data/reference_output_2/data/smiles/87438.pdb
     RDKit          3D

 26 28  0  0  0  0  0  0  0  0999 V2000
   69.3858   47.6948   56.3083 N   0  0  0  0  0  0  0  0  0  0  0  0
   69.9693   48.6599   55.6367 N   0  0  0  0  0  0  0  0  0  0  0  0
   69.9586   48.7781   54.2858 C   0  0  0  0  0  0  0  0  0  0  0  0
   69.2877   47.8156   53.5802 C   0  0  0  0  0  0  0  0  0  0  0  0
   69.2031   47.8211   52.2140 C   0  0  0  0  0  0  0  0  0  0  0  0
   68.5007   46.8015   51.5665 C   0  0  0  0  0  0  0  0  0  0  0  0
   67.8901   45.7901   52.2714 C   0  0  0  0  0  0  0  0  0  0  0  0
   67.9633   45.7666   53.6402 C   0  0  0  0  0  0  0  0  0  0  0  0
   68.6575   46.7733   54.2790 C   0  0  0  0  0  0  0  0  0  0  0  0
   68.7296   46.7482   55.6516 C   0  0  0  0  0  0  0  0  0  0  0  0
   68.1649   45.8160   56.2680 O   0  0  0  0  0  0  0  0  0  0  0  0
   70.6305   49.8792   53.6310 C   0  0  0  0  0  0  0  0  0  0  0  0
   70.1347   50.8658   53.0646 O   0  0  0  0  0  0  0  0  0  0  0  0
   72.0606   49.8437   53.6267 O   0  0  0  0  0  0  0  0  0  0  0  0
   69.4669   47.6722   57.7614 C   0  0  0  0  0  0  0  0  0  0  0  0
   70.8541   47.5049   58.2579 C   0  0  0  0  0  0  0  0  0  0  0  0
   71.3739   48.5324   58.7758 O   0  0  0  0  0  0  0  0  0  0  0  0
   73.9013   42.5953   57.8859 C   0  0  0  0  0  0  0  0  0  0  0  0
   73.0930   43.8573   57.9814 C   0  0  0  0  0  0  0  0  0  0  0  0
   73.6999   45.0841   58.1090 C   0  0  0  0  0  0  0  0  0  0  0  0
   72.9677   46.2681   58.1987 C   0  0  0  0  0  0  0  0  0  0  0  0
   73.6592   47.5541   58.3334 C   0  0  0  0  0  0  0  0  0  0  0  0
   71.5832   46.2515   58.1624 C   0  0  0  0  0  0  0  0  0  0  0  0
   70.9743   45.0233   58.0350 C   0  0  0  0  0  0  0  0  0  0  0  0
   71.7181   43.8368   57.9455 C   0  0  0  0  0  0  0  0  0  0  0  0
   70.9917   42.5508   57.8089 C   0  0  0  0  0  0  0  0  0  0  0  0
 18 19  1  0
 19 20  2  0
 19 25  1  0
 20 21  1  0
 21 22  1  0
 21 23  2  0
 23 16  1  0
 23 24  1  0
 16 17  2  0
 16 15  1  0
 15  1  1  0
  1  2  1  0
  1 10  1  0
  2  3  2  0
  3 12  1  0
  3  4  1  0
 12 13  2  0
 12 14  1  0
  4  5  2  0
  4  9  1  0
  5  6  1  0
  6  7  2  0
  7  8  1  0
  8  9  2  0
  9 10  1  0
 10 11  2  0
 24 25  2  0
 25 26  1  0
M  END
>  <minimizedAffinity>  (1) 
-8.60275

$$$$
data/reference_output_2/data/smiles/87723.pdb
     RDKit          3D

 24 25  0  0  0  0  0  0  0  0999 V2000
   68.7841   47.6195   56.7500 S   0  0  0  0  0  0  0  0  0  0  0  0
   67.3652   47.6301   57.2876 O   0  0  0  0  0  0  0  0  0  0  0  0
   69.4353   46.3972   57.3913 O   0  0  0  0  0  0  0  0  0  0  0  0
   68.7895   47.4349   55.0302 C   0  0  0  0  0  0  0  0  0  0  0  0
   68.0809   46.3415   54.5157 C   0  0  0  0  0  0  0  0  0  0  0  0
   68.0179   46.1344   53.1654 C   0  0  0  0  0  0  0  0  0  0  0  0
   68.6476   46.9945   52.3118 C   0  0  0  0  0  0  0  0  0  0  0  0
   68.5722   46.7661   50.9276 O   0  0  0  0  0  0  0  0  0  0  0  0
   69.3509   48.0802   52.8161 C   0  0  0  0  0  0  0  0  0  0  0  0
   69.4169   48.2906   54.1671 C   0  0  0  0  0  0  0  0  0  0  0  0
   70.0084   48.9730   51.8551 C   0  0  0  0  0  0  0  0  0  0  0  0
   70.6510   48.5009   50.8675 O   0  0  0  0  0  0  0  0  0  0  0  0
   69.9339   50.3263   52.0169 O   0  0  0  0  0  0  0  0  0  0  0  0
   69.5581   49.0217   57.3322 N   0  0  0  0  0  0  0  0  0  0  0  0
   73.7320   49.7949   57.0940 C   0  0  0  0  0  0  0  0  0  0  0  0
   72.7960   50.5548   56.4259 C   0  0  0  0  0  0  0  0  0  0  0  0
   71.4489   50.2831   56.5258 C   0  0  0  0  0  0  0  0  0  0  0  0
   70.9570   49.2331   57.3000 C   0  0  0  0  0  0  0  0  0  0  0  0
   71.8950   48.4867   57.9596 C   0  0  0  0  0  0  0  0  0  0  0  0
   73.2520   48.7579   57.8612 C   0  0  0  0  0  0  0  0  0  0  0  0
   77.3176   50.2320   55.6848 C   0  0  0  0  0  0  0  0  0  0  0  0
   75.8668   49.9311   55.8014 C   0  0  0  0  0  0  0  0  0  0  0  0
   75.2665   49.5150   54.7793 O   0  0  0  0  0  0  0  0  0  0  0  0
   75.1197   50.0828   56.9855 N   0  0  0  0  0  0  0  0  0  0  0  0
 21 22  1  0
 22 23  2  0
 22 24  1  0
 24 15  1  0
 15 16  2  0
 15 20  1  0
 16 17  1  0
 17 18  2  0
 18 14  1  0
 18 19  1  0
 14  1  1  0
  1  2  2  0
  1  3  2  0
  1  4  1  0
  4  5  2  0
  4 10  1  0
  5  6  1  0
  6  7  2  0
  7  8  1  0
  7  9  1  0
  9 11  1  0
  9 10  2  0
 11 12  2  0
 11 13  1  0
 19 20  2  0
M  END
>  <minimizedAffinity>  (2) 
-8.55375

$$$$
data/reference_output_2/data/smiles/87734.pdb
     RDKit          3D

 20 21  0  0  0  0  0  0  0  0999 V2000
   68.5013   47.1777   54.9917 C   0  0  0  0  0  0  0  0  0  0  0  0
   67.7452   46.2555   54.3043 C   0  0  0  0  0  0  0  0  0  0  0  0
   67.8010   46.1245   52.9370 C   0  0  0  0  0  0  0  0  0  0  0  0
   67.0422   45.1979   52.2439 O   0  0  0  0  0  0  0  0  0  0  0  0
   68.6689   46.9747   52.2459 C   0  0  0  0  0  0  0  0  0  0  0  0
   68.7384   46.8578   50.8661 O   0  0  0  0  0  0  0  0  0  0  0  0
   69.4474   47.9140   52.8848 C   0  0  0  0  0  0  0  0  0  0  0  0
   69.3397   47.9880   54.2546 C   0  0  0  0  0  0  0  0  0  0  0  0
   70.3371   48.7826   52.1607 N   0  0  0  0  0  0  0  0  0  0  0  0
   70.1063   49.2910   51.0746 O   0  0  0  0  0  0  0  0  0  0  0  0
   71.5558   49.0404   52.7831 O   0  0  0  0  0  0  0  0  0  0  0  0
   68.4596   47.3015   56.4691 C   0  0  0  0  0  0  0  0  0  0  0  0
   67.3389   47.6141   56.9473 O   0  0  0  0  0  0  0  0  0  0  0  0
   73.0978   46.3342   59.7911 C   0  0  0  0  0  0  0  0  0  0  0  0
   71.9091   46.5924   58.9167 C   0  0  0  0  0  0  0  0  0  0  0  0
   71.2266   45.5521   58.3119 C   0  0  0  0  0  0  0  0  0  0  0  0
   70.1279   45.7917   57.5109 C   0  0  0  0  0  0  0  0  0  0  0  0
   69.6532   47.0645   57.2716 C   0  0  0  0  0  0  0  0  0  0  0  0
   70.3232   48.1124   57.8649 C   0  0  0  0  0  0  0  0  0  0  0  0
   71.4312   47.8577   58.6708 C   0  0  0  0  0  0  0  0  0  0  0  0
 14 15  1  0
 15 16  2  0
 15 20  1  0
 16 17  1  0
 17 18  2  0
 18 12  1  0
 18 19  1  0
 12 13  2  0
 12  1  1  0
  1  2  2  0
  1  8  1  0
  2  3  1  0
  3  4  1  0
  3  5  2  0
  5  6  1  0
  5  7  1  0
  7  9  1  0
  7  8  2  0
  9 10  2  0
  9 11  1  0
 19 20  2  0
M  CHG  2   9   1  11  -1
M  END
>  <minimizedAffinity>  (3) 
-8.68650

$$$$
data/reference_output_2/data/smiles/87752.pdb
     RDKit          3D

 25 27  0  0  0  0  0  0  0  0999 V2000
   70.8103   43.8215   57.9370 O   0  0  0  0  0  0  0  0  0  0  0  0
   69.6811   43.7164   57.3307 C   0  0  0  0  0  0  0  0  0  0  0  0
   69.1551   44.9431   56.8867 N   0  0  0  0  0  0  0  0  0  0  0  0
   69.1037   42.4136   57.1788 C   0  0  0  0  0  0  0  0  0  0  0  0
   69.7239   41.3235   57.8213 C   0  0  0  0  0  0  0  0  0  0  0  0
   69.2853   40.0477   57.7601 C   0  0  0  0  0  0  0  0  0  0  0  0
   68.1500   39.7853   57.0209 C   0  0  0  0  0  0  0  0  0  0  0  0
   67.4886   40.7925   56.3662 C   0  0  0  0  0  0  0  0  0  0  0  0
   67.9950   42.0860   56.4694 C   0  0  0  0  0  0  0  0  0  0  0  0
   67.3272   43.0592   55.8167 F   0  0  0  0  0  0  0  0  0  0  0  0
   69.9551   38.9883   58.4315 N   0  0  0  0  0  0  0  0  0  0  0  0
   69.4611   38.2445   59.4495 C   0  0  0  0  0  0  0  0  0  0  0  0
   70.3872   37.3065   59.8549 C   0  0  0  0  0  0  0  0  0  0  0  0
   71.4779   37.5085   59.0360 C   0  0  0  0  0  0  0  0  0  0  0  0
   71.1714   38.5176   58.2076 N   0  0  0  0  0  0  0  0  0  0  0  0
   69.8071   46.1741   57.0889 N   0  0  0  0  0  0  0  0  0  0  0  0
   68.8707   47.3955   56.3073 S   0  0  0  0  0  0  0  0  0  0  0  0
   67.5260   47.5508   56.9338 O   0  0  0  0  0  0  0  0  0  0  0  0
   69.6205   48.6901   56.4526 O   0  0  0  0  0  0  0  0  0  0  0  0
   68.7021   47.0768   54.6035 C   0  0  0  0  0  0  0  0  0  0  0  0
   67.9827   46.0186   54.1182 C   0  0  0  0  0  0  0  0  0  0  0  0
   67.8859   45.8168   52.7414 C   0  0  0  0  0  0  0  0  0  0  0  0
   68.5101   46.6769   51.8877 C   0  0  0  0  0  0  0  0  0  0  0  0
   69.2366   47.7455   52.3740 C   0  0  0  0  0  0  0  0  0  0  0  0
   69.3237   47.9326   53.7233 C   0  0  0  0  0  0  0  0  0  0  0  0
  1  2  2  0
  2  3  1  0
  2  4  1  0
  3 16  1  0
 16 17  1  0
 17 18  2  0
 17 19  2  0
 17 20  1  0
 20 21  2  0
 20 25  1  0
 21 22  1  0
 22 23  2  0
 23 24  1  0
 24 25  2  0
  4  5  2  0
  4  9  1  0
  5  6  1  0
  6 11  1  0
  6  7  2  0
 11 12  1  0
 11 15  1  0
 12 13  2  0
 13 14  1  0
 14 15  2  0
  7  8  1  0
  8  9  2  0
  9 10  1  0
M  END
>  <minimizedAffinity>  (4) 
-8.57311

$$$$
data/reference_output_2/data/smiles/87775.pdb
     RDKit          3D

 24 26  0  0  0  0  0  0  0  0999 V2000
   70.0776   46.1041   58.9417 O   0  0  0  0  0  0  0  0  0  0  0  0
   69.6773   46.2777   57.7782 C   0  0  0  0  0  0  0  0  0  0  0  0
   69.4794   45.0498   57.0295 N   0  0  0  0  0  0  0  0  0  0  0  0
   69.7338   43.8140   57.6226 N   0  0  0  0  0  0  0  0  0  0  0  0
   69.0673   42.7561   57.3283 C   0  0  0  0  0  0  0  0  0  0  0  0
   67.9754   42.6565   56.3698 C   0  0  0  0  0  0  0  0  0  0  0  0
   67.5568   43.6424   55.7006 O   0  0  0  0  0  0  0  0  0  0  0  0
   67.5144   41.3117   56.3455 N   0  0  0  0  0  0  0  0  0  0  0  0
   68.2985   40.5589   57.2766 C   0  0  0  0  0  0  0  0  0  0  0  0
   68.2331   39.2223   57.6091 C   0  0  0  0  0  0  0  0  0  0  0  0
   69.1267   38.7642   58.5522 C   0  0  0  0  0  0  0  0  0  0  0  0
   70.0582   39.5849   59.1560 C   0  0  0  0  0  0  0  0  0  0  0  0
   70.1067   40.9185   58.8095 C   0  0  0  0  0  0  0  0  0  0  0  0
   71.2617   42.0168   59.5320 Cl  0  0  0  0  0  0  0  0  0  0  0  0
   69.2246   41.3904   57.8717 C   0  0  0  0  0  0  0  0  0  0  0  0
   69.4137   47.5696   57.1655 C   0  0  0  0  0  0  0  0  0  0  0  0
   68.3481   47.5772   56.1464 C   0  0  0  0  0  0  0  0  0  0  0  0
   68.7375   47.5492   54.7429 C   0  0  0  0  0  0  0  0  0  0  0  0
   68.3086   46.4794   53.9470 C   0  0  0  0  0  0  0  0  0  0  0  0
   68.6611   46.3737   52.6242 C   0  0  0  0  0  0  0  0  0  0  0  0
   69.4636   47.3537   52.0631 C   0  0  0  0  0  0  0  0  0  0  0  0
   69.7938   47.2038   50.7228 O   0  0  0  0  0  0  0  0  0  0  0  0
   69.8961   48.4096   52.8266 C   0  0  0  0  0  0  0  0  0  0  0  0
   69.5322   48.5027   54.1602 C   0  0  0  0  0  0  0  0  0  0  0  0
  1  2  2  0
  2 16  1  0
  2  3  1  0
 16 17  1  0
 17 18  1  0
 18 19  2  0
 18 24  1  0
 19 20  1  0
 20 21  2  0
 21 22  1  0
 21 23  1  0
 23 24  2  0
  3  4  1  0
  4  5  2  0
  5  6  1  0
  5 15  1  0
  6  7  2  0
  6  8  1  0
  8  9  1  0
  9 10  1  0
  9 15  2  0
 10 11  2  0
 11 12  1  0
 12 13  2  0
 13 14  1  0
 13 15  1  0
M  END
>  <minimizedAffinity>  (5) 
-8.86506

$$$$
data/reference_output_2/data/smiles/87871.pdb
     RDKit          3D

 26 28  0  0  0  0  0  0  0  0999 V2000
   67.7476   43.4512   55.9663 N   0  0  0  0  0  0  0  0  0  0  0  0
   68.4962   42.6789   56.8584 C   0  0  0  0  0  0  0  0  0  0  0  0
   69.7486   42.9631   56.8659 O   0  0  0  0  0  0  0  0  0  0  0  0
   68.0166   41.6275   57.7420 C   0  0  0  0  0  0  0  0  0  0  0  0
   68.9088   40.5913   58.0485 C   0  0  0  0  0  0  0  0  0  0  0  0
   68.5519   39.5476   58.8763 C   0  0  0  0  0  0  0  0  0  0  0  0
   69.4024   38.5156   59.1973 C   0  0  0  0  0  0  0  0  0  0  0  0
   69.0431   37.4756   60.0242 C   0  0  0  0  0  0  0  0  0  0  0  0
   70.2396   36.0570   60.4535 Br  0  0  0  0  0  0  0  0  0  0  0  0
   67.7516   37.4553   60.5716 C   0  0  0  0  0  0  0  0  0  0  0  0
   66.8774   38.4795   60.2646 C   0  0  0  0  0  0  0  0  0  0  0  0
   67.2869   39.5121   59.4226 C   0  0  0  0  0  0  0  0  0  0  0  0
   66.4690   40.4834   59.1281 O   0  0  0  0  0  0  0  0  0  0  0  0
   66.7930   41.5060   58.3274 C   0  0  0  0  0  0  0  0  0  0  0  0
   65.9326   42.3983   58.1005 O   0  0  0  0  0  0  0  0  0  0  0  0
   68.2379   46.2904   56.4111 O   0  0  0  0  0  0  0  0  0  0  0  0
   68.3390   45.8091   55.2613 C   0  0  0  0  0  0  0  0  0  0  0  0
   68.0978   44.4582   55.0965 N   0  0  0  0  0  0  0  0  0  0  0  0
   68.7102   46.7505   54.1997 C   0  0  0  0  0  0  0  0  0  0  0  0
   69.2785   47.9683   54.4642 C   0  0  0  0  0  0  0  0  0  0  0  0
   69.6262   48.8531   53.4340 C   0  0  0  0  0  0  0  0  0  0  0  0
   70.3484   50.3980   53.8058 Cl  0  0  0  0  0  0  0  0  0  0  0  0
   69.4080   48.5261   52.1205 C   0  0  0  0  0  0  0  0  0  0  0  0
   68.8371   47.3041   51.8412 C   0  0  0  0  0  0  0  0  0  0  0  0
   68.5003   46.4423   52.8720 C   0  0  0  0  0  0  0  0  0  0  0  0
   67.9235   45.2092   52.5776 O   0  0  0  0  0  0  0  0  0  0  0  0
 16 17  2  0
 17 18  1  0
 17 19  1  0
 18  1  1  0
  1  2  1  0
  2  3  2  0
  2  4  1  0
  4  5  2  0
  4 14  1  0
  5  6  1  0
  6  7  2  0
  6 12  1  0
  7  8  1  0
  8  9  1  0
  8 10  2  0
 10 11  1  0
 11 12  2  0
 12 13  1  0
 13 14  1  0
 14 15  2  0
 19 20  2  0
 19 25  1  0
 20 21  1  0
 21 22  1  0
 21 23  2  0
 23 24  1  0
 24 25  2  0
 25 26  1  0
M  END
>  <minimizedAffinity>  (6) 
-8.69560

$$$$
data/reference_output_2/data/smiles/87925.pdb
     RDKit          3D

 32 35  0  0  0  0  0  0  0  0999 V2000
   71.9570   44.6632   59.8965 O   0  0  0  0  0  0  0  0  0  0  0  0
   71.7970   44.9068   58.6642 C   0  0  0  0  0  0  0  0  0  0  0  0
   72.1732   43.8806   57.7806 N   0  0  0  0  0  0  0  0  0  0  0  0
   71.2510   46.1953   58.2992 C   0  0  0  0  0  0  0  0  0  0  0  0
   71.9228   47.3709   58.6104 C   0  0  0  0  0  0  0  0  0  0  0  0
   71.4535   48.5800   58.2919 N   0  0  0  0  0  0  0  0  0  0  0  0
   70.2805   48.6838   57.6408 C   0  0  0  0  0  0  0  0  0  0  0  0
   69.5748   47.5916   57.3060 N   0  0  0  0  0  0  0  0  0  0  0  0
   70.0573   46.3699   57.6339 C   0  0  0  0  0  0  0  0  0  0  0  0
   69.3537   45.4073   57.2936 O   0  0  0  0  0  0  0  0  0  0  0  0
   68.3143   47.7088   56.6132 C   0  0  0  0  0  0  0  0  0  0  0  0
   68.5701   47.5293   55.1642 C   0  0  0  0  0  0  0  0  0  0  0  0
   69.3555   48.3286   54.3846 C   0  0  0  0  0  0  0  0  0  0  0  0
   69.5691   48.1264   53.0483 C   0  0  0  0  0  0  0  0  0  0  0  0
   68.9675   47.0598   52.4273 C   0  0  0  0  0  0  0  0  0  0  0  0
   69.1750   46.8543   51.1063 F   0  0  0  0  0  0  0  0  0  0  0  0
   68.1510   46.2057   53.1790 C   0  0  0  0  0  0  0  0  0  0  0  0
   67.5693   45.1617   52.5491 F   0  0  0  0  0  0  0  0  0  0  0  0
   67.9621   46.4450   54.5231 C   0  0  0  0  0  0  0  0  0  0  0  0
   72.7179   42.6097   58.2647 C   0  0  0  0  0  0  0  0  0  0  0  0
   74.1894   42.7231   58.3139 C   0  0  0  0  0  0  0  0  0  0  0  0
   75.3945   42.8293   58.3395 C   0  0  0  0  0  0  0  0  0  0  0  0
   76.8343   42.9604   58.3528 C   0  0  0  0  0  0  0  0  0  0  0  0
   77.4635   43.8833   59.1430 C   0  0  0  0  0  0  0  0  0  0  0  0
   78.8538   44.0232   59.1686 C   0  0  0  0  0  0  0  0  0  0  0  0
   79.6084   43.1877   58.3561 C   0  0  0  0  0  0  0  0  0  0  0  0
   80.9651   43.3150   58.3732 N   0  0  0  0  0  0  0  0  0  0  0  0
   81.6813   42.4997   57.5816 C   0  0  0  0  0  0  0  0  0  0  0  0
   81.1233   41.5459   56.7573 C   0  0  0  0  0  0  0  0  0  0  0  0
   79.7470   41.4152   56.7394 C   0  0  0  0  0  0  0  0  0  0  0  0
   79.0019   42.2481   57.5496 C   0  0  0  0  0  0  0  0  0  0  0  0
   77.6099   42.1461   57.5584 C   0  0  0  0  0  0  0  0  0  0  0  0
  1  2  2  0
  2  3  1  0
  2  4  1  0
  3 20  1  0
 20 21  1  0
 21 22  3  0
 22 23  1  0
 23 24  2  0
 23 32  1  0
 24 25  1  0
 25 26  2  0
 26 27  1  0
 26 31  1  0
 27 28  2  0
 28 29  1  0
 29 30  2  0
 30 31  1  0
 31 32  2  0
  4  5  2  0
  4  9  1  0
  5  6  1  0
  6  7  2  0
  7  8  1  0
  8 11  1  0
  8  9  1  0
 11 12  1  0
 12 13  2  0
 12 19  1  0
 13 14  1  0
 14 15  2  0
 15 16  1  0
 15 17  1  0
 17 18  1  0
 17 19  2  0
  9 10  2  0
M  END
>  <minimizedAffinity>  (7) 
-8.75445

$$$$
data/reference_output_2/data/smiles/87929.pdb
     RDKit          3D

 23 25  0  0  0  0  0  0  0  0999 V2000
   72.1109   52.0483   54.6850 C   0  0  2  0  0  0  0  0  0  0  0  0
   71.1225   51.1995   53.9847 N   0  0  0  0  0  0  0  0  0  0  0  0
   70.7897   49.9247   54.2570 C   0  0  0  0  0  0  0  0  0  0  0  0
   69.8272   49.4835   53.3737 C   0  0  0  0  0  0  0  0  0  0  0  0
   69.6038   50.5390   52.5724 N   0  0  0  0  0  0  0  0  0  0  0  0
   70.3792   51.5488   52.9481 N   0  0  0  0  0  0  0  0  0  0  0  0
   69.1785   48.1813   53.2956 C   0  0  0  0  0  0  0  0  0  0  0  0
   68.6764   47.5387   54.4074 C   0  0  0  0  0  0  0  0  0  0  0  0
   68.0612   46.3042   54.3313 C   0  0  0  0  0  0  0  0  0  0  0  0
   67.9222   45.6532   53.1230 C   0  0  0  0  0  0  0  0  0  0  0  0
   68.4236   46.2943   52.0100 C   0  0  0  0  0  0  0  0  0  0  0  0
   69.0376   47.5280   52.0879 C   0  0  0  0  0  0  0  0  0  0  0  0
   73.6138   50.9222   56.2020 O   0  0  0  0  0  0  0  0  0  0  0  0
   73.2329   51.1791   55.0552 C   0  0  0  0  0  0  0  0  0  0  0  0
   73.9625   50.5658   53.9903 N   0  0  0  0  0  0  0  0  0  0  0  0
   75.0173   49.7453   54.2688 O   0  0  0  0  0  0  0  0  0  0  0  0
   71.4296   52.7777   55.7822 C   0  0  0  0  0  0  0  0  0  0  0  0
   70.2586   52.1358   56.3773 C   0  0  0  0  0  0  0  0  0  0  0  0
   68.9767   52.3323   55.9347 C   0  0  0  0  0  0  0  0  0  0  0  0
   67.8936   51.6799   56.5254 C   0  0  0  0  0  0  0  0  0  0  0  0
   68.1078   50.8201   57.5764 C   0  0  0  0  0  0  0  0  0  0  0  0
   69.3898   50.6071   58.0392 C   0  0  0  0  0  0  0  0  0  0  0  0
   70.4350   51.2576   57.4438 C   0  0  0  0  0  0  0  0  0  0  0  0
 13 14  2  0
 14 15  1  0
 14  1  1  0
 15 16  1  0
  1 17  1  1
  1  2  1  0
 17 18  1  0
 18 19  2  0
 18 23  1  0
 19 20  1  0
 20 21  2  0
 21 22  1  0
 22 23  2  0
  2  3  1  0
  2  6  1  0
  3  4  2  0
  4  7  1  0
  4  5  1  0
  7  8  2  0
  7 12  1  0
  8  9  1  0
  9 10  2  0
 10 11  1  0
 11 12  2  0
  5  6  2  0
M  END
>  <minimizedAffinity>  (8) 
-8.71344

$$$$
data/reference_output_2/data/smiles/87938.pdb
     RDKit          3D

 28 31  0  0  0  0  0  0  0  0999 V2000
   70.2450   48.6316   57.3561 N   0  0  0  0  0  0  0  0  0  0  0  0
   70.5851   49.3493   56.3182 N   0  0  0  0  0  0  0  0  0  0  0  0
   70.1977   49.0219   55.0452 C   0  0  0  0  0  0  0  0  0  0  0  0
   70.6195   49.8734   53.9150 C   0  0  0  0  0  0  0  0  0  0  0  0
   69.4421   47.9261   54.8481 N   0  0  0  0  0  0  0  0  0  0  0  0
   69.0653   47.1508   55.9031 C   0  0  0  0  0  0  0  0  0  0  0  0
   68.3038   46.0792   55.4805 C   0  0  0  0  0  0  0  0  0  0  0  0
   68.1996   46.1837   54.1208 C   0  0  0  0  0  0  0  0  0  0  0  0
   67.5676   45.4050   53.1595 C   0  0  0  0  0  0  0  0  0  0  0  0
   67.6106   45.7231   51.8260 C   0  0  0  0  0  0  0  0  0  0  0  0
   67.0026   44.9740   50.8728 F   0  0  0  0  0  0  0  0  0  0  0  0
   68.3066   46.8481   51.4733 C   0  0  0  0  0  0  0  0  0  0  0  0
   68.9515   47.6470   52.4280 C   0  0  0  0  0  0  0  0  0  0  0  0
   68.9039   47.3237   53.7536 C   0  0  0  0  0  0  0  0  0  0  0  0
   69.4982   47.5507   57.1587 C   0  0  0  0  0  0  0  0  0  0  0  0
   69.1470   46.8292   58.1395 O   0  0  0  0  0  0  0  0  0  0  0  0
   70.6422   48.9159   58.7276 C   0  0  0  0  0  0  0  0  0  0  0  0
   72.5963   47.3262   58.3096 N   0  0  0  0  0  0  0  0  0  0  0  0
   71.6337   47.8772   59.1711 C   0  0  0  0  0  0  0  0  0  0  0  0
   71.5680   47.5020   60.3817 O   0  0  0  0  0  0  0  0  0  0  0  0
   73.5198   46.3002   58.7805 C   0  0  0  0  0  0  0  0  0  0  0  0
   69.8018   43.1796   57.5894 C   0  0  0  0  0  0  0  0  0  0  0  0
   71.2820   43.3820   57.7268 C   0  0  0  0  0  0  0  0  0  0  0  0
   72.2147   42.4357   57.4470 C   0  0  0  0  0  0  0  0  0  0  0  0
   73.5579   42.7070   57.5916 C   0  0  0  0  0  0  0  0  0  0  0  0
   73.9597   43.9506   58.0233 C   0  0  0  0  0  0  0  0  0  0  0  0
   73.0259   44.9561   58.3222 C   0  0  0  0  0  0  0  0  0  0  0  0
   71.7085   44.6332   58.1627 C   0  0  0  0  0  0  0  0  0  0  0  0
 22 23  1  0
 23 24  2  0
 23 28  1  0
 24 25  1  0
 25 26  2  0
 26 27  1  0
 27 21  1  0
 27 28  2  0
 21 18  1  0
 18 19  1  0
 19 20  2  0
 19 17  1  0
 17  1  1  0
  1  2  1  0
  1 15  1  0
  2  3  2  0
  3  4  1  0
  3  5  1  0
  5  6  1  0
  5 14  1  0
  6  7  2  0
  6 15  1  0
  7  8  1  0
  8  9  1  0
  8 14  2  0
  9 10  2  0
 10 11  1  0
 10 12  1  0
 12 13  2  0
 13 14  1  0
 15 16  2  0
M  END
>  <minimizedAffinity>  (9) 
-9.04406

$$$$
data/reference_output_2/data/smiles/88104.pdb
     RDKit          3D

 25 27  0  0  0  0  0  0  0  0999 V2000
   74.0259   51.4144   55.5517 N   0  0  0  0  0  0  0  0  0  0  0  0
   73.1437   50.9648   54.5349 C   0  0  0  0  0  0  0  0  0  0  0  0
   73.7103   50.3373   53.5765 O   0  0  0  0  0  0  0  0  0  0  0  0
   76.1128   50.1263   56.0068 C   0  0  0  0  0  0  0  0  0  0  0  0
   75.4400   49.1706   56.4775 O   0  0  0  0  0  0  0  0  0  0  0  0
   75.4141   51.2313   55.5349 N   0  0  0  0  0  0  0  0  0  0  0  0
   80.4193   49.7649   55.9816 C   0  0  0  0  0  0  0  0  0  0  0  0
   79.5890   48.7621   55.4960 C   0  0  0  0  0  0  0  0  0  0  0  0
   78.2176   48.8797   55.5073 C   0  0  0  0  0  0  0  0  0  0  0  0
   77.5722   49.9948   55.9954 C   0  0  0  0  0  0  0  0  0  0  0  0
   78.3845   50.9994   56.4819 C   0  0  0  0  0  0  0  0  0  0  0  0
   79.7681   50.8920   56.4779 C   0  0  0  0  0  0  0  0  0  0  0  0
   82.6205   48.6244   56.2768 C   0  0  0  0  0  0  0  0  0  0  0  0
   81.7891   49.6683   55.9778 O   0  0  0  0  0  0  0  0  0  0  0  0
   71.7036   51.1453   54.4811 C   0  0  0  0  0  0  0  0  0  0  0  0
   70.8755   50.0005   54.1205 C   0  0  0  0  0  0  0  0  0  0  0  0
   70.7737   49.4653   52.8669 N   0  0  0  0  0  0  0  0  0  0  0  0
   69.9377   48.4166   52.8601 C   0  0  0  0  0  0  0  0  0  0  0  0
   69.5088   47.5434   51.8669 C   0  0  0  0  0  0  0  0  0  0  0  0
   68.6382   46.5224   52.1233 C   0  0  0  0  0  0  0  0  0  0  0  0
   68.1809   46.3730   53.4244 C   0  0  0  0  0  0  0  0  0  0  0  0
   68.6075   47.2398   54.3999 C   0  0  0  0  0  0  0  0  0  0  0  0
   69.4823   48.2735   54.1660 C   0  0  0  0  0  0  0  0  0  0  0  0
   70.0792   49.2541   54.8790 N   0  0  0  0  0  0  0  0  0  0  0  0
   69.7942   49.4172   56.3020 C   0  0  0  0  0  0  0  0  0  0  0  0
 13 14  1  0
 14  7  1  0
  7  8  2  0
  7 12  1  0
  8  9  1  0
  9 10  2  0
 10  4  1  0
 10 11  1  0
  4  5  2  0
  4  6  1  0
  6  1  1  0
  1  2  1  0
  2  3  2  0
  2 15  1  0
 15 16  1  0
 16 17  2  0
 16 24  1  0
 17 18  1  0
 18 19  2  0
 18 23  1  0
 19 20  1  0
 20 21  2  0
 21 22  1  0
 22 23  2  0
 23 24  1  0
 24 25  1  0
 11 12  2  0
M  END
>  <minimizedAffinity>  (10) 
-8.50965

$$$$
data/reference_output_2/data/smiles/88117.pdb
     RDKit          3D

 30 34  0  0  0  0  0  0  0  0999 V2000
   71.6482   47.1247   59.0514 C   0  0  0  0  0  0  0  0  0  0  0  0
   70.6582   47.6995   58.3017 C   0  0  0  0  0  0  0  0  0  0  0  0
   69.8686   46.9566   57.4078 C   0  0  0  0  0  0  0  0  0  0  0  0
   70.1273   45.6215   57.3121 C   0  0  0  0  0  0  0  0  0  0  0  0
   71.1275   45.0261   58.0657 C   0  0  0  0  0  0  0  0  0  0  0  0
   71.8775   45.7811   58.9258 C   0  0  0  0  0  0  0  0  0  0  0  0
   72.8414   45.1730   59.6444 F   0  0  0  0  0  0  0  0  0  0  0  0
   72.2381   47.8892   61.1874 O   0  0  0  0  0  0  0  0  0  0  0  0
   72.4170   47.9808   59.9477 C   0  0  0  0  0  0  0  0  0  0  0  0
   73.3661   48.9228   59.4900 N   0  0  0  0  0  0  0  0  0  0  0  0
   74.1932   49.8271   60.2580 C   0  0  0  0  0  0  0  0  0  0  0  0
   75.4989   49.8484   59.5362 C   0  0  0  0  0  0  0  0  0  0  0  0
   75.2360   49.1371   58.2275 C   0  0  1  0  0  0  0  0  0  0  0  0
   76.0091   49.7609   57.1295 C   0  0  0  0  0  0  0  0  0  0  0  0
   77.3067   48.9646   57.1478 C   0  0  0  0  0  0  0  0  0  0  0  0
   77.2067   48.0107   58.2144 N   0  0  0  0  0  0  0  0  0  0  0  0
   75.7658   47.7261   58.2314 C   0  0  0  0  0  0  0  0  0  0  0  0
   73.7411   49.2086   58.0921 C   0  0  0  0  0  0  0  0  0  0  0  0
   68.8078   47.6769   56.6612 C   0  0  0  0  0  0  0  0  0  0  0  0
   69.2485   48.0103   55.2723 C   0  0  0  0  0  0  0  0  0  0  0  0
   70.1574   49.0249   55.1604 N   0  0  0  0  0  0  0  0  0  0  0  0
   70.6194   49.3360   53.9759 N   0  0  0  0  0  0  0  0  0  0  0  0
   70.2548   48.7167   52.8567 C   0  0  0  0  0  0  0  0  0  0  0  0
   70.7254   49.0478   51.7414 O   0  0  0  0  0  0  0  0  0  0  0  0
   69.3424   47.6908   52.9198 C   0  0  0  0  0  0  0  0  0  0  0  0
   68.9313   47.0336   51.7816 C   0  0  0  0  0  0  0  0  0  0  0  0
   68.0122   46.0262   51.8881 C   0  0  0  0  0  0  0  0  0  0  0  0
   67.4971   45.6676   53.1187 C   0  0  0  0  0  0  0  0  0  0  0  0
   67.9067   46.3251   54.2656 C   0  0  0  0  0  0  0  0  0  0  0  0
   68.8317   47.3384   54.1742 C   0  0  0  0  0  0  0  0  0  0  0  0
  8  9  2  0
  9  1  1  0
  9 10  1  0
  1  2  2  0
  1  6  1  0
  2  3  1  0
  3 19  1  0
  3  4  2  0
 19 20  1  0
 20 21  2  0
 20 30  1  0
 21 22  1  0
 22 23  1  0
 23 24  2  0
 23 25  1  0
 25 26  1  0
 25 30  2  0
 26 27  2  0
 27 28  1  0
 28 29  2  0
 29 30  1  0
  4  5  1  0
  5  6  2  0
  6  7  1  0
 10 11  1  0
 10 18  1  0
 11 12  1  0
 13 12  1  1
 13 14  1  0
 13 17  1  0
 13 18  1  0
 14 15  1  0
 15 16  1  0
 16 17  1  0
M  CHG  1  16   1
M  END
>  <minimizedAffinity>  (11) 
-9.02614

$$$$
data/reference_output_2/data/smiles/88250.pdb
     RDKit          3D

 22 23  0  0  0  0  0  0  0  0999 V2000
   70.4348   49.4938   53.6881 C   0  0  0  0  0  0  0  0  0  0  0  0
   70.4574   50.4817   52.9021 O   0  0  0  0  0  0  0  0  0  0  0  0
   71.2444   49.5735   54.8317 N   0  0  0  0  0  0  0  0  0  0  0  0
   67.1365   45.0623   52.2248 N   0  0  0  0  0  0  0  0  0  0  0  0
   67.9471   46.1640   52.6201 C   0  0  0  0  0  0  0  0  0  0  0  0
   67.9761   46.6429   53.9121 C   0  0  0  0  0  0  0  0  0  0  0  0
   68.7812   47.7289   54.2816 C   0  0  0  0  0  0  0  0  0  0  0  0
   69.5794   48.3581   53.3495 C   0  0  0  0  0  0  0  0  0  0  0  0
   69.5377   47.8647   52.0596 C   0  0  0  0  0  0  0  0  0  0  0  0
   70.3494   48.5032   51.1066 O   0  0  0  0  0  0  0  0  0  0  0  0
   68.7462   46.7952   51.6909 C   0  0  0  0  0  0  0  0  0  0  0  0
   72.0918   50.7103   55.1579 C   0  0  1  0  0  0  0  0  0  0  0  0
   73.0272   51.0509   54.0900 C   0  0  0  0  0  0  0  0  0  0  0  0
   73.0301   52.2604   53.6711 O   0  0  0  0  0  0  0  0  0  0  0  0
   73.9078   50.2007   53.4876 O   0  0  0  0  0  0  0  0  0  0  0  0
   71.1486   51.8587   55.4286 C   0  0  0  0  0  0  0  0  0  0  0  0
   69.9778   51.4946   56.2458 C   0  0  0  0  0  0  0  0  0  0  0  0
   70.1171   50.8338   57.4484 C   0  0  0  0  0  0  0  0  0  0  0  0
   69.0300   50.4833   58.2177 C   0  0  0  0  0  0  0  0  0  0  0  0
   67.7799   50.8086   57.7597 C   0  0  0  0  0  0  0  0  0  0  0  0
   67.6271   51.4655   56.5635 C   0  0  0  0  0  0  0  0  0  0  0  0
   68.7153   51.8156   55.7961 C   0  0  0  0  0  0  0  0  0  0  0  0
  4  5  1  0
  5  6  2  0
  5 11  1  0
  6  7  1  0
  7  8  2  0
  8  1  1  0
  8  9  1  0
  1  2  2  0
  1  3  1  0
  3 12  1  0
 12 16  1  6
 12 13  1  0
 16 17  1  0
 17 18  2  0
 17 22  1  0
 18 19  1  0
 19 20  2  0
 20 21  1  0
 21 22  2  0
 13 14  2  0
 13 15  1  0
  9 10  1  0
  9 11  2  0
M  END
>  <minimizedAffinity>  (12) 
-8.82072

$$$$
data/reference_output_2/data/smiles/88310.pdb
     RDKit          3D

 26 29  0  0  0  0  0  0  0  0999 V2000
   70.3146   45.2220   57.7827 C   0  0  0  0  0  0  0  0  0  0  0  0
   71.4161   45.6644   58.5016 C   0  0  0  0  0  0  0  0  0  0  0  0
   71.7664   47.0004   58.4880 C   0  0  0  0  0  0  0  0  0  0  0  0
   71.0312   47.9443   57.7592 C   0  0  0  0  0  0  0  0  0  0  0  0
   69.9397   47.5226   57.0424 C   0  0  0  0  0  0  0  0  0  0  0  0
   69.6236   46.1816   57.0818 C   0  0  0  0  0  0  0  0  0  0  0  0
   68.2679   44.0473   56.3034 O   0  0  0  0  0  0  0  0  0  0  0  0
   68.9313   43.2728   57.0554 C   0  0  0  0  0  0  0  0  0  0  0  0
   69.9627   43.8462   57.8035 N   0  0  0  0  0  0  0  0  0  0  0  0
   68.6016   41.8432   57.1090 C   0  0  0  0  0  0  0  0  0  0  0  0
   67.9262   40.9598   56.3946 C   0  0  0  0  0  0  0  0  0  0  0  0
   67.8815   39.7264   56.8208 N   0  0  0  0  0  0  0  0  0  0  0  0
   68.3687   39.2336   57.7893 C   0  0  0  0  0  0  0  0  0  0  0  0
   69.2205   40.7816   58.5174 S   0  0  0  0  0  0  0  0  0  0  0  0
   69.0928   48.4563   56.2153 C   0  0  0  0  0  0  0  0  0  0  0  0
   69.5045   48.4060   54.7905 C   0  0  0  0  0  0  0  0  0  0  0  0
   70.5340   49.1975   54.3491 N   0  0  0  0  0  0  0  0  0  0  0  0
   70.9308   49.2088   53.0943 N   0  0  0  0  0  0  0  0  0  0  0  0
   70.3666   48.4528   52.1402 C   0  0  0  0  0  0  0  0  0  0  0  0
   70.7737   48.4926   50.9530 O   0  0  0  0  0  0  0  0  0  0  0  0
   69.3103   47.6249   52.5336 C   0  0  0  0  0  0  0  0  0  0  0  0
   68.9005   47.6196   53.8557 C   0  0  0  0  0  0  0  0  0  0  0  0
   67.7914   46.7311   54.2810 C   0  0  0  0  0  0  0  0  0  0  0  0
   67.8308   45.5019   53.3679 C   0  0  0  0  0  0  0  0  0  0  0  0
   67.5345   46.0387   51.9656 C   0  0  0  0  0  0  0  0  0  0  0  0
   68.7087   46.8135   51.4680 C   0  0  0  0  0  0  0  0  0  0  0  0
  7  8  2  0
  8  9  1  0
  8 10  1  0
  9  1  1  0
  1  2  2  0
  1  6  1  0
  2  3  1  0
  3  4  2  0
  4  5  1  0
  5 15  1  0
  5  6  2  0
 15 16  1  0
 16 17  2  0
 16 22  1  0
 17 18  1  0
 18 19  1  0
 19 20  2  0
 19 21  1  0
 21 22  2  0
 21 26  1  0
 22 23  1  0
 23 24  1  0
 24 25  1  0
 25 26  1  0
 10 11  2  0
 10 14  1  0
 11 12  1  0
 12 13  2  0
 13 14  1  0
M  END
>  <minimizedAffinity>  (13) 
-9.87731

$$$$
data/reference_output_2/data/smiles/88331.pdb
     RDKit          3D

 23 26  0  0  0  0  0  0  0  0999 V2000
   70.4532   47.3062   57.8509 C   0  0  0  0  0  0  0  0  0  0  0  0
   70.6100   45.8114   57.8781 C   0  0  0  0  0  0  0  0  0  0  0  0
   69.6514   44.8930   57.6368 N   0  0  0  0  0  0  0  0  0  0  0  0
   70.1274   43.6425   57.7436 C   0  0  0  0  0  0  0  0  0  0  0  0
   71.4637   43.8094   58.0724 C   0  0  0  0  0  0  0  0  0  0  0  0
   71.7290   45.1227   58.1462 N   0  0  0  0  0  0  0  0  0  0  0  0
   69.4476   42.3681   57.5678 C   0  0  0  0  0  0  0  0  0  0  0  0
   68.3421   42.2667   56.7507 C   0  0  0  0  0  0  0  0  0  0  0  0
   67.7148   41.0339   56.6043 C   0  0  0  0  0  0  0  0  0  0  0  0
   68.1639   39.9014   57.2525 C   0  0  0  0  0  0  0  0  0  0  0  0
   69.2452   40.0387   58.0422 N   0  0  0  0  0  0  0  0  0  0  0  0
   69.8741   41.2225   58.2031 C   0  0  0  0  0  0  0  0  0  0  0  0
   69.0203   47.5749   57.4403 C   0  0  0  0  0  0  0  0  0  0  0  0
   70.0645   48.6564   52.1237 C   0  0  0  0  0  0  0  0  0  0  0  0
   69.1449   47.5591   52.5028 C   0  0  0  0  0  0  0  0  0  0  0  0
   68.5557   46.8155   51.5022 C   0  0  0  0  0  0  0  0  0  0  0  0
   67.7066   45.8021   51.8389 C   0  0  0  0  0  0  0  0  0  0  0  0
   67.4735   45.5656   53.1829 C   0  0  0  0  0  0  0  0  0  0  0  0
   68.0812   46.3325   54.1724 C   0  0  0  0  0  0  0  0  0  0  0  0
   68.0176   46.3005   55.5176 N   0  0  0  0  0  0  0  0  0  0  0  0
   68.8093   47.2722   55.9974 C   0  0  0  0  0  0  0  0  0  0  0  0
   69.3558   47.8956   54.9344 N   0  0  0  0  0  0  0  0  0  0  0  0
   68.9152   47.3265   53.8158 N   0  0  0  0  0  0  0  0  0  0  0  0
 14 15  1  0
 15 16  2  0
 15 23  1  0
 16 17  1  0
 17 18  2  0
 18 19  1  0
 19 20  2  0
 19 23  1  0
 20 21  1  0
 21 13  1  0
 21 22  2  0
 13  1  1  0
  1  2  1  0
  2  3  2  0
  2  6  1  0
  3  4  1  0
  4  7  1  0
  4  5  2  0
  7  8  2  0
  7 12  1  0
  8  9  1  0
  9 10  2  0
 10 11  1  0
 11 12  2  0
  5  6  1  0
 22 23  1  0
M  CHG  1   3   1
M  END
>  <minimizedAffinity>  (14) 
-8.69174

$$$$
data/reference_output_2/data/smiles/88374.pdb
     RDKit          3D

 23 25  0  0  0  0  0  0  0  0999 V2000
   72.1209   51.1716   54.5428 N   0  0  0  0  0  0  0  0  0  0  0  0
   71.3809   51.8448   53.6518 N   0  0  0  0  0  0  0  0  0  0  0  0
   70.4620   51.0496   53.1310 N   0  0  0  0  0  0  0  0  0  0  0  0
   70.5976   49.8214   53.6904 C   0  0  0  0  0  0  0  0  0  0  0  0
   71.6289   49.9463   54.5505 N   0  0  0  0  0  0  0  0  0  0  0  0
   69.7976   48.6320   53.4144 C   0  0  0  0  0  0  0  0  0  0  0  0
   69.0721   48.0408   54.4039 C   0  0  0  0  0  0  0  0  0  0  0  0
   68.3187   46.9101   54.1159 C   0  0  0  0  0  0  0  0  0  0  0  0
   68.2976   46.3780   52.8399 C   0  0  0  0  0  0  0  0  0  0  0  0
   67.3573   44.9571   52.4597 Cl  0  0  0  0  0  0  0  0  0  0  0  0
   69.0207   46.9590   51.8330 C   0  0  0  0  0  0  0  0  0  0  0  0
   69.7651   48.0885   52.1483 C   0  0  0  0  0  0  0  0  0  0  0  0
   73.2249   51.6850   55.3283 C   0  0  0  0  0  0  0  0  0  0  0  0
   75.2265   50.5766   56.4024 N   0  0  0  0  0  0  0  0  0  0  0  0
   74.3603   50.7317   55.3010 C   0  0  0  0  0  0  0  0  0  0  0  0
   74.5401   50.0629   54.2810 O   0  0  0  0  0  0  0  0  0  0  0  0
   75.2273   48.9141   58.4873 C   0  0  0  0  0  0  0  0  0  0  0  0
   76.5711   49.0406   57.7811 C   0  0  2  0  0  0  0  0  0  0  0  0
   77.4832   49.8075   58.6897 C   0  0  0  0  0  0  0  0  0  0  0  0
   78.7319   50.2634   58.0170 C   0  0  0  0  0  0  0  0  0  0  0  0
   78.5308   50.9259   56.6955 C   0  0  0  0  0  0  0  0  0  0  0  0
   77.5774   50.2261   55.7890 C   0  0  0  0  0  0  0  0  0  0  0  0
   76.3537   49.6592   56.4345 C   0  0  2  0  0  0  0  0  0  0  0  0
 18 17  1  1
 18 19  1  0
 18 23  1  0
 19 20  1  0
 20 21  1  0
 21 22  1  0
 22 23  1  0
 23 14  1  1
 14 15  1  0
 15 16  2  0
 15 13  1  0
 13  1  1  0
  1  2  1  0
  1  5  1  0
  2  3  2  0
  3  4  1  0
  4  6  1  0
  4  5  2  0
  6  7  2  0
  6 12  1  0
  7  8  1  0
  8  9  2  0
  9 10  1  0
  9 11  1  0
 11 12  2  0
M  END
>  <minimizedAffinity>  (15) 
-8.58721

$$$$
data/reference_output_2/data/smiles/88440.pdb
     RDKit          3D

 30 33  0  0  0  0  0  0  0  0999 V2000
   71.5481   47.0258   58.9078 C   0  0  0  0  0  0  0  0  0  0  0  0
   70.5360   47.6664   58.1862 C   0  0  0  0  0  0  0  0  0  0  0  0
   69.7129   46.9716   57.3340 C   0  0  0  0  0  0  0  0  0  0  0  0
   69.9048   45.6122   57.1995 C   0  0  0  0  0  0  0  0  0  0  0  0
   70.8934   44.9324   57.8921 C   0  0  0  0  0  0  0  0  0  0  0  0
   71.6977   45.6793   58.7391 C   0  0  0  0  0  0  0  0  0  0  0  0
   72.6637   45.0250   59.4153 F   0  0  0  0  0  0  0  0  0  0  0  0
   72.0746   47.8353   61.0043 O   0  0  0  0  0  0  0  0  0  0  0  0
   72.4227   47.7900   59.7826 C   0  0  0  0  0  0  0  0  0  0  0  0
   73.5581   48.4188   59.2830 N   0  0  0  0  0  0  0  0  0  0  0  0
   74.4247   49.1587   60.1580 C   0  0  0  0  0  0  0  0  0  0  0  0
   74.5947   50.5893   59.6030 C   0  0  0  0  0  0  0  0  0  0  0  0
   73.6294   50.7302   58.5479 N   0  0  0  0  0  0  0  0  0  0  0  0
   74.0072   49.8624   57.4695 C   0  0  0  0  0  0  0  0  0  0  0  0
   73.8815   48.3826   57.8889 C   0  0  0  0  0  0  0  0  0  0  0  0
   73.2603   52.0467   58.1957 C   0  0  0  0  0  0  0  0  0  0  0  0
   71.7484   52.1548   58.1364 C   0  0  0  0  0  0  0  0  0  0  0  0
   71.1230   51.0880   58.7348 O   0  0  0  0  0  0  0  0  0  0  0  0
   68.6482   47.6170   56.5403 C   0  0  0  0  0  0  0  0  0  0  0  0
   69.2061   47.9737   55.2061 C   0  0  0  0  0  0  0  0  0  0  0  0
   70.1411   48.9642   55.1166 N   0  0  0  0  0  0  0  0  0  0  0  0
   70.6479   49.2894   53.9466 N   0  0  0  0  0  0  0  0  0  0  0  0
   70.2822   48.6830   52.8098 C   0  0  0  0  0  0  0  0  0  0  0  0
   70.7710   48.9961   51.6868 O   0  0  0  0  0  0  0  0  0  0  0  0
   69.3490   47.6827   52.8373 C   0  0  0  0  0  0  0  0  0  0  0  0
   68.9367   47.0193   51.7078 C   0  0  0  0  0  0  0  0  0  0  0  0
   67.9961   46.0146   51.7879 C   0  0  0  0  0  0  0  0  0  0  0  0
   67.4666   45.6738   53.0034 C   0  0  0  0  0  0  0  0  0  0  0  0
   67.8580   46.3229   54.1737 C   0  0  0  0  0  0  0  0  0  0  0  0
   68.8025   47.3236   54.0598 C   0  0  0  0  0  0  0  0  0  0  0  0
  8  9  2  0
  9  1  1  0
  9 10  1  0
  1  2  2  0
  1  6  1  0
  2  3  1  0
  3 19  1  0
  3  4  2  0
 19 20  1  0
 20 21  2  0
 20 30  1  0
 21 22  1  0
 22 23  1  0
 23 24  2  0
 23 25  1  0
 25 26  1  0
 25 30  2  0
 26 27  2  0
 27 28  1  0
 28 29  2  0
 29 30  1  0
  4  5  1  0
  5  6  2  0
  6  7  1  0
 10 11  1  0
 10 15  1  0
 11 12  1  0
 12 13  1  0
 13 16  1  0
 13 14  1  0
 16 17  1  0
 17 18  1  0
 14 15  1  0
M  CHG  1  13   1
M  END
>  <minimizedAffinity>  (16) 
-8.87081

$$$$
data/reference_output_2/data/smiles/88497.pdb
     RDKit          3D

 29 31  0  0  0  0  0  0  0  0999 V2000
   68.7487   46.8300   54.2829 C   0  0  0  0  0  0  0  0  0  0  0  0
   69.4560   47.9764   54.5817 C   0  0  0  0  0  0  0  0  0  0  0  0
   69.8869   48.8860   53.6374 C   0  0  0  0  0  0  0  0  0  0  0  0
   69.5755   48.6066   52.3222 C   0  0  0  0  0  0  0  0  0  0  0  0
   68.8698   47.4748   51.9581 C   0  0  0  0  0  0  0  0  0  0  0  0
   68.4594   46.5899   52.9546 C   0  0  0  0  0  0  0  0  0  0  0  0
   67.5604   45.1334   52.5699 Cl  0  0  0  0  0  0  0  0  0  0  0  0
   68.1435   44.5056   55.0984 N   0  0  0  0  0  0  0  0  0  0  0  0
   68.3127   45.8955   55.3291 C   0  0  0  0  0  0  0  0  0  0  0  0
   68.0699   46.3161   56.4907 O   0  0  0  0  0  0  0  0  0  0  0  0
   69.9193   43.0193   56.5693 O   0  0  0  0  0  0  0  0  0  0  0  0
   68.6779   42.8603   56.8307 C   0  0  0  0  0  0  0  0  0  0  0  0
   67.7290   43.6113   56.0927 N   0  0  0  0  0  0  0  0  0  0  0  0
   68.3326   41.9115   57.8785 C   0  0  0  0  0  0  0  0  0  0  0  0
   68.4013   42.2522   59.2059 C   0  0  0  0  0  0  0  0  0  0  0  0
   68.0584   41.3052   60.1688 C   0  0  0  0  0  0  0  0  0  0  0  0
   67.6557   40.0432   59.8584 C   0  0  0  0  0  0  0  0  0  0  0  0
   67.5855   39.6951   58.5196 C   0  0  0  0  0  0  0  0  0  0  0  0
   67.9227   40.6294   57.5651 C   0  0  0  0  0  0  0  0  0  0  0  0
   67.8430   40.2532   56.2306 O   0  0  0  0  0  0  0  0  0  0  0  0
   70.7769   50.3166   54.0838 S   0  0  0  0  0  0  0  0  0  0  0  0
   72.2458   49.9944   53.8759 O   0  0  0  0  0  0  0  0  0  0  0  0
   70.4617   51.4637   53.1757 O   0  0  0  0  0  0  0  0  0  0  0  0
   70.5748   50.7035   55.7379 N   0  0  0  0  0  0  0  0  0  0  0  0
   69.2713   51.2186   56.0514 C   0  0  0  0  0  0  0  0  0  0  0  0
   69.0589   52.6350   55.5734 C   0  0  0  0  0  0  0  0  0  0  0  0
   70.1222   53.4980   56.2273 C   0  0  0  0  0  0  0  0  0  0  0  0
   71.4648   52.9932   55.7624 C   0  0  0  0  0  0  0  0  0  0  0  0
   71.6192   51.5563   56.2026 C   0  0  0  0  0  0  0  0  0  0  0  0
 11 12  2  0
 12 13  1  0
 12 14  1  0
 13  8  1  0
  8  9  1  0
  9 10  2  0
  9  1  1  0
  1  2  2  0
  1  6  1  0
  2  3  1  0
  3 21  1  0
  3  4  2  0
 21 22  2  0
 21 23  2  0
 21 24  1  0
 24 25  1  0
 24 29  1  0
 25 26  1  0
 26 27  1  0
 27 28  1  0
 28 29  1  0
  4  5  1  0
  5  6  2  0
  6  7  1  0
 14 15  2  0
 14 19  1  0
 15 16  1  0
 16 17  2  0
 17 18  1  0
 18 19  2  0
 19 20  1  0
M  END
>  <minimizedAffinity>  (17) 
-9.13913

$$$$
data/reference_output_2/data/smiles/88507.pdb
     RDKit          3D

 25 27  0  0  0  0  0  0  0  0999 V2000
   68.5980   47.7676   56.6561 C   0  0  0  0  0  0  0  0  0  0  0  0
   67.3508   47.6355   56.9560 O   0  0  0  0  0  0  0  0  0  0  0  0
   68.9770   48.0128   55.2991 C   0  0  0  0  0  0  0  0  0  0  0  0
   69.7707   49.1454   55.0467 C   0  0  0  0  0  0  0  0  0  0  0  0
   70.1890   49.4711   53.7772 C   0  0  0  0  0  0  0  0  0  0  0  0
   70.8986   50.4821   53.5382 O   0  0  0  0  0  0  0  0  0  0  0  0
   69.8463   48.7062   52.7307 N   0  0  0  0  0  0  0  0  0  0  0  0
   69.0812   47.5997   52.9139 C   0  0  0  0  0  0  0  0  0  0  0  0
   68.7593   46.8492   51.8050 C   0  0  0  0  0  0  0  0  0  0  0  0
   67.9854   45.7212   51.9508 C   0  0  0  0  0  0  0  0  0  0  0  0
   67.5654   45.3915   53.2128 C   0  0  0  0  0  0  0  0  0  0  0  0
   67.8942   46.1496   54.3122 C   0  0  0  0  0  0  0  0  0  0  0  0
   68.6600   47.2760   54.2060 C   0  0  0  0  0  0  0  0  0  0  0  0
   69.3746   47.6330   57.8029 O   0  0  0  0  0  0  0  0  0  0  0  0
   70.4933   46.7465   57.7893 C   0  0  0  0  0  0  0  0  0  0  0  0
   69.9877   44.9933   59.1991 O   0  0  0  0  0  0  0  0  0  0  0  0
   70.0510   45.3802   58.0145 C   0  0  0  0  0  0  0  0  0  0  0  0
   69.7070   44.5188   56.9708 N   0  0  0  0  0  0  0  0  0  0  0  0
   69.2670   43.1746   57.1035 C   0  0  0  0  0  0  0  0  0  0  0  0
   69.8615   42.2168   57.8738 C   0  0  0  0  0  0  0  0  0  0  0  0
   69.3471   40.9225   57.9331 C   0  0  0  0  0  0  0  0  0  0  0  0
   68.2371   40.5571   57.2328 C   0  0  0  0  0  0  0  0  0  0  0  0
   67.7809   39.2775   57.3310 F   0  0  0  0  0  0  0  0  0  0  0  0
   67.6189   41.5005   56.4508 C   0  0  0  0  0  0  0  0  0  0  0  0
   68.1304   42.7757   56.3948 C   0  0  0  0  0  0  0  0  0  0  0  0
 16 17  2  0
 17 15  1  0
 17 18  1  0
 15 14  1  0
 14  1  1  0
  1  2  2  0
  1  3  1  0
  3  4  2  0
  3 13  1  0
  4  5  1  0
  5  6  2  0
  5  7  1  0
  7  8  1  0
  8  9  1  0
  8 13  2  0
  9 10  2  0
 10 11  1  0
 11 12  2  0
 12 13  1  0
 18 19  1  0
 19 20  2  0
 19 25  1  0
 20 21  1  0
 21 22  2  0
 22 23  1  0
 22 24  1  0
 24 25  2  0
M  END
>  <minimizedAffinity>  (18) 
-9.17440

$$$$
data/reference_output_2/data/smiles/88808.pdb
     RDKit          3D

 30 33  0  0  0  0  0  0  0  0999 V2000
   69.3680   44.4738   56.7940 C   0  0  2  0  0  0  0  0  0  0  0  0
   69.2281   45.8778   57.0449 N   0  0  0  0  0  0  0  0  0  0  0  0
   68.9134   46.8461   56.2371 C   0  0  0  0  0  0  0  0  0  0  0  0
   68.7140   46.7278   54.7899 C   0  0  0  0  0  0  0  0  0  0  0  0
   69.1599   47.8063   54.0571 C   0  0  0  0  0  0  0  0  0  0  0  0
   68.9982   47.8466   52.6871 C   0  0  0  0  0  0  0  0  0  0  0  0
   68.3801   46.7811   52.0236 C   0  0  0  0  0  0  0  0  0  0  0  0
   67.9390   45.6960   52.7662 C   0  0  0  0  0  0  0  0  0  0  0  0
   68.1056   45.6689   54.1281 C   0  0  0  0  0  0  0  0  0  0  0  0
   67.7027   44.4392   54.7647 N   0  0  0  0  0  0  0  0  0  0  0  0
   68.3283   43.8717   55.9130 C   0  0  0  0  0  0  0  0  0  0  0  0
   67.9342   42.6955   56.1959 O   0  0  0  0  0  0  0  0  0  0  0  0
   68.8429   48.1856   56.7770 C   0  0  0  0  0  0  0  0  0  0  0  0
   67.5867   48.5991   57.2485 C   0  0  0  0  0  0  0  0  0  0  0  0
   67.3889   49.8712   57.7056 C   0  0  0  0  0  0  0  0  0  0  0  0
   68.3746   50.8184   57.7392 C   0  0  0  0  0  0  0  0  0  0  0  0
   69.6128   50.4355   57.2764 C   0  0  0  0  0  0  0  0  0  0  0  0
   69.8137   49.1286   56.8057 C   0  0  0  0  0  0  0  0  0  0  0  0
   70.4843   42.8300   58.3802 C   0  0  0  0  0  0  0  0  0  0  0  0
   71.4010   42.6430   57.5461 O   0  0  0  0  0  0  0  0  0  0  0  0
   69.4473   43.7287   58.0441 N   0  0  0  0  0  0  0  0  0  0  0  0
   70.2759   43.1301   60.7683 N   0  0  0  0  0  0  0  0  0  0  0  0
   70.4527   42.1444   59.6822 C   0  0  2  0  0  0  0  0  0  0  0  0
   71.6174   41.2838   60.0073 C   0  0  0  0  0  0  0  0  0  0  0  0
   71.5201   39.8986   59.4836 C   0  0  0  0  0  0  0  0  0  0  0  0
   72.6915   39.2549   59.0994 C   0  0  0  0  0  0  0  0  0  0  0  0
   72.6670   37.9836   58.5783 C   0  0  0  0  0  0  0  0  0  0  0  0
   71.4655   37.3520   58.4409 C   0  0  0  0  0  0  0  0  0  0  0  0
   70.2989   37.9897   58.8232 C   0  0  0  0  0  0  0  0  0  0  0  0
   70.3129   39.2657   59.3481 C   0  0  0  0  0  0  0  0  0  0  0  0
 23 22  1  1
 23 24  1  0
 23 19  1  0
 24 25  1  0
 25 26  2  0
 25 30  1  0
 26 27  1  0
 27 28  2  0
 28 29  1  0
 29 30  2  0
 19 20  2  0
 19 21  1  0
  1 21  1  1
  1  2  1  0
  1 11  1  0
  2  3  2  0
  3 13  1  0
  3  4  1  0
 13 14  2  0
 13 18  1  0
 14 15  1  0
 15 16  2  0
 16 17  1  0
 17 18  2  0
  4  5  1  0
  4  9  2  0
  5  6  2  0
  6  7  1  0
  7  8  2  0
  8  9  1  0
  9 10  1  0
 10 11  1  0
 11 12  2  0
M  CHG  1  22   1
M  END
>  <minimizedAffinity>  (19) 
-8.78041

$$$$
data/reference_output_2/data/smiles/88907.pdb
     RDKit          3D

 22 24  0  0  0  0  0  0  0  0999 V2000
   69.2779   47.3133   56.2159 C   0  0  0  0  0  0  0  0  0  0  0  0
   69.1651   46.0377   56.0739 O   0  0  0  0  0  0  0  0  0  0  0  0
   69.0085   48.1002   55.0959 N   0  0  0  0  0  0  0  0  0  0  0  0
   69.1167   49.5187   55.1532 C   0  0  0  0  0  0  0  0  0  0  0  0
   68.5856   49.9841   56.3292 C   0  0  0  0  0  0  0  0  0  0  0  0
   68.6390   51.3331   56.5820 C   0  0  0  0  0  0  0  0  0  0  0  0
   69.2070   52.2152   55.6867 C   0  0  0  0  0  0  0  0  0  0  0  0
   69.7386   51.7456   54.5027 C   0  0  0  0  0  0  0  0  0  0  0  0
   69.6915   50.3937   54.2362 C   0  0  0  0  0  0  0  0  0  0  0  0
   70.2508   50.0265   52.9587 N   0  0  0  0  0  0  0  0  0  0  0  0
   69.9616   48.8728   52.1624 C   0  0  0  0  0  0  0  0  0  0  0  0
   70.4720   48.8041   51.0216 O   0  0  0  0  0  0  0  0  0  0  0  0
   69.1130   47.7558   52.5731 C   0  0  0  0  0  0  0  0  0  0  0  0
   68.7081   46.9627   51.4976 C   0  0  0  0  0  0  0  0  0  0  0  0
   67.8875   45.8745   51.7022 C   0  0  0  0  0  0  0  0  0  0  0  0
   67.4806   45.5936   52.9861 C   0  0  0  0  0  0  0  0  0  0  0  0
   67.8565   46.3513   54.0739 C   0  0  0  0  0  0  0  0  0  0  0  0
   68.6722   47.4249   53.8541 C   0  0  0  0  0  0  0  0  0  0  0  0
   69.6881   47.6931   57.5768 C   0  0  0  0  0  0  0  0  0  0  0  0
   70.6947   46.6652   58.1373 C   0  0  0  0  0  0  0  0  0  0  0  0
   70.6732   44.4249   58.8287 C   0  0  0  0  0  0  0  0  0  0  0  0
   69.9933   45.6887   58.9108 N   0  0  0  0  0  0  0  0  0  0  0  0
 21 22  1  0
 22 20  1  0
 20 19  1  0
 19  1  1  0
  1  2  2  0
  1  3  1  0
  3  4  1  0
  3 18  1  0
  4  5  2  0
  4  9  1  0
  5  6  1  0
  6  7  2  0
  7  8  1  0
  8  9  2  0
  9 10  1  0
 10 11  1  0
 11 12  2  0
 11 13  1  0
 13 14  2  0
 13 18  1  0
 14 15  1  0
 15 16  2  0
 16 17  1  0
 17 18  2  0
M  CHG  1  22   1
M  END
>  <minimizedAffinity>  (20) 
-8.51300

$$$$
data/reference_output_2/data/smiles/88939.pdb
     RDKit          3D

 27 29  0  0  0  0  0  0  0  0999 V2000
   70.7724   43.4256   59.2058 N   0  0  0  0  0  0  0  0  0  0  0  0
   70.8498   42.3190   58.3423 C   0  0  0  0  0  0  0  0  0  0  0  0
   70.2207   42.4475   57.2471 O   0  0  0  0  0  0  0  0  0  0  0  0
   71.5561   41.0716   58.5614 C   0  0  0  0  0  0  0  0  0  0  0  0
   70.8618   39.8535   58.5201 C   0  0  0  0  0  0  0  0  0  0  0  0
   71.5239   38.6679   58.7275 C   0  0  0  0  0  0  0  0  0  0  0  0
   70.8584   37.4571   58.6909 C   0  0  0  0  0  0  0  0  0  0  0  0
   71.4899   36.2492   58.8943 C   0  0  0  0  0  0  0  0  0  0  0  0
   72.8422   36.2634   59.1417 C   0  0  0  0  0  0  0  0  0  0  0  0
   73.5657   37.4362   59.1916 C   0  0  0  0  0  0  0  0  0  0  0  0
   72.8757   38.6201   58.9796 C   0  0  0  0  0  0  0  0  0  0  0  0
   73.4982   39.7657   59.0118 O   0  0  0  0  0  0  0  0  0  0  0  0
   72.8979   40.9425   58.8177 C   0  0  0  0  0  0  0  0  0  0  0  0
   73.6199   41.9782   58.8765 O   0  0  0  0  0  0  0  0  0  0  0  0
   70.6710   45.7009   58.2214 C   0  0  0  0  0  0  0  0  0  0  0  0
   71.8982   45.5674   57.9922 O   0  0  0  0  0  0  0  0  0  0  0  0
   70.0378   44.5945   58.8602 N   0  0  0  0  0  0  0  0  0  0  0  0
   69.9560   46.9340   57.8429 C   0  0  0  0  0  0  0  0  0  0  0  0
   68.8968   46.6135   56.9772 O   0  0  0  0  0  0  0  0  0  0  0  0
   69.9328   49.6417   53.3135 C   0  0  0  0  0  0  0  0  0  0  0  0
   69.3449   48.3842   53.8350 C   0  0  0  0  0  0  0  0  0  0  0  0
   68.7488   47.5349   52.9262 C   0  0  0  0  0  0  0  0  0  0  0  0
   68.1884   46.3549   53.3655 C   0  0  0  0  0  0  0  0  0  0  0  0
   67.5544   45.4645   52.3505 C   0  0  0  0  0  0  0  0  0  0  0  0
   68.2289   46.0369   54.7013 C   0  0  0  0  0  0  0  0  0  0  0  0
   68.8137   46.8576   55.6340 C   0  0  0  0  0  0  0  0  0  0  0  0
   69.3726   48.0436   55.1685 C   0  0  0  0  0  0  0  0  0  0  0  0
 20 21  1  0
 21 22  2  0
 21 27  1  0
 22 23  1  0
 23 24  1  0
 23 25  2  0
 25 26  1  0
 26 19  1  0
 26 27  2  0
 19 18  1  0
 18 15  1  0
 15 16  2  0
 15 17  1  0
 17  1  1  0
  1  2  1  0
  2  3  2  0
  2  4  1  0
  4  5  2  0
  4 13  1  0
  5  6  1  0
  6  7  2  0
  6 11  1  0
  7  8  1  0
  8  9  2  0
  9 10  1  0
 10 11  2  0
 11 12  1  0
 12 13  1  0
 13 14  2  0
M  END
>  <minimizedAffinity>  (21) 
-8.53567

$$$$
data/reference_output_2/data/smiles/89015.pdb
     RDKit          3D

 27 29  0  0  0  0  0  0  0  0999 V2000
   69.7333   43.8465   57.5669 C   0  0  0  0  0  0  0  0  0  0  0  0
   70.7038   43.9703   58.3633 O   0  0  0  0  0  0  0  0  0  0  0  0
   69.2382   45.0134   56.9594 N   0  0  0  0  0  0  0  0  0  0  0  0
   69.1199   40.1147   57.7988 C   0  0  0  0  0  0  0  0  0  0  0  0
   68.1320   39.9835   56.8433 C   0  0  0  0  0  0  0  0  0  0  0  0
   67.6669   41.0796   56.1315 C   0  0  0  0  0  0  0  0  0  0  0  0
   66.6989   40.9526   55.1933 F   0  0  0  0  0  0  0  0  0  0  0  0
   68.1918   42.3329   56.3707 C   0  0  0  0  0  0  0  0  0  0  0  0
   69.1846   42.4972   57.3249 C   0  0  0  0  0  0  0  0  0  0  0  0
   69.6193   41.3873   58.0100 C   0  0  0  0  0  0  0  0  0  0  0  0
   67.5925   38.8486   60.0509 C   0  0  0  0  0  0  0  0  0  0  0  0
   68.8957   38.3922   59.5406 C   0  0  0  0  0  0  0  0  0  0  0  0
   69.6456   37.3187   59.9915 C   0  0  0  0  0  0  0  0  0  0  0  0
   70.7879   37.2712   59.2208 C   0  0  0  0  0  0  0  0  0  0  0  0
   70.6984   38.2898   58.3489 N   0  0  0  0  0  0  0  0  0  0  0  0
   69.5796   38.9755   58.5167 N   0  0  0  0  0  0  0  0  0  0  0  0
   69.7046   46.2954   57.1480 N   0  0  0  0  0  0  0  0  0  0  0  0
   68.8009   47.5101   56.3423 S   0  0  0  0  0  0  0  0  0  0  0  0
   67.3660   47.5011   56.8015 O   0  0  0  0  0  0  0  0  0  0  0  0
   69.4214   48.8353   56.7282 O   0  0  0  0  0  0  0  0  0  0  0  0
   68.8560   47.3435   54.6106 C   0  0  0  0  0  0  0  0  0  0  0  0
   69.4771   48.3251   53.8309 C   0  0  0  0  0  0  0  0  0  0  0  0
   69.5305   48.2122   52.4768 C   0  0  0  0  0  0  0  0  0  0  0  0
   68.9675   47.1193   51.8352 C   0  0  0  0  0  0  0  0  0  0  0  0
   68.3495   46.1433   52.6153 C   0  0  0  0  0  0  0  0  0  0  0  0
   68.2943   46.2534   53.9850 C   0  0  0  0  0  0  0  0  0  0  0  0
   67.6982   45.3161   54.7527 F   0  0  0  0  0  0  0  0  0  0  0  0
 11 12  1  0
 12 13  2  0
 12 16  1  0
 13 14  1  0
 14 15  2  0
 15 16  1  0
 16  4  1  0
  4  5  2  0
  4 10  1  0
  5  6  1  0
  6  7  1  0
  6  8  2  0
  8  9  1  0
  9  1  1  0
  9 10  2  0
  1  2  2  0
  1  3  1  0
  3 17  1  0
 17 18  1  0
 18 19  2  0
 18 20  2  0
 18 21  1  0
 21 22  2  0
 21 26  1  0
 22 23  1  0
 23 24  2  0
 24 25  1  0
 25 26  2  0
 26 27  1  0
M  END
>  <minimizedAffinity>  (22) 
-9.04391

$$$$
data/reference_output_2/data/smiles/89049.pdb
     RDKit          3D

 30 34  0  0  0  0  0  0  0  0999 V2000
   70.7293   46.3196   58.4887 C   0  0  0  0  0  0  0  0  0  0  0  0
   69.8940   46.8999   57.5543 C   0  0  0  0  0  0  0  0  0  0  0  0
   69.8961   48.2301   57.2449 C   0  0  0  0  0  0  0  0  0  0  0  0
   70.8135   49.0188   57.9347 C   0  0  0  0  0  0  0  0  0  0  0  0
   71.6630   48.4775   58.8728 C   0  0  0  0  0  0  0  0  0  0  0  0
   71.6286   47.1063   59.1628 C   0  0  0  0  0  0  0  0  0  0  0  0
   72.4879   46.6490   60.0906 F   0  0  0  0  0  0  0  0  0  0  0  0
   69.6321   44.3564   59.2260 O   0  0  0  0  0  0  0  0  0  0  0  0
   70.6896   44.8990   58.7839 C   0  0  0  0  0  0  0  0  0  0  0  0
   71.8395   44.0826   58.5822 N   0  0  0  0  0  0  0  0  0  0  0  0
   73.1917   44.3233   58.1087 C   0  0  0  0  0  0  0  0  0  0  0  0
   73.6385   43.1514   58.9369 C   0  0  0  0  0  0  0  0  0  0  0  0
   73.9973   43.5661   60.3272 C   0  0  0  0  0  0  0  0  0  0  0  0
   75.4816   43.7658   60.4154 C   0  0  0  0  0  0  0  0  0  0  0  0
   75.9700   44.2007   59.1218 N   0  0  0  0  0  0  0  0  0  0  0  0
   75.9454   43.1237   58.1496 C   0  0  0  0  0  0  0  0  0  0  0  0
   74.6923   42.2997   58.3140 C   0  0  0  0  0  0  0  0  0  0  0  0
   72.2153   42.6915   58.7353 C   0  0  0  0  0  0  0  0  0  0  0  0
   68.9679   48.8046   56.2482 C   0  0  0  0  0  0  0  0  0  0  0  0
   69.3526   48.6506   54.8533 C   0  0  0  0  0  0  0  0  0  0  0  0
   70.2453   49.5641   54.3624 N   0  0  0  0  0  0  0  0  0  0  0  0
   70.6526   49.5645   53.1043 N   0  0  0  0  0  0  0  0  0  0  0  0
   70.2223   48.6651   52.2032 C   0  0  0  0  0  0  0  0  0  0  0  0
   70.6252   48.6828   50.9955 O   0  0  0  0  0  0  0  0  0  0  0  0
   69.3247   47.7143   52.6192 C   0  0  0  0  0  0  0  0  0  0  0  0
   68.8461   46.7509   51.7500 C   0  0  0  0  0  0  0  0  0  0  0  0
   67.9569   45.8037   52.2003 C   0  0  0  0  0  0  0  0  0  0  0  0
   67.5430   45.8134   53.5107 C   0  0  0  0  0  0  0  0  0  0  0  0
   68.0127   46.7727   54.3924 C   0  0  0  0  0  0  0  0  0  0  0  0
   68.9036   47.7267   53.9541 C   0  0  0  0  0  0  0  0  0  0  0  0
  8  9  2  0
  9  1  1  0
  9 10  1  0
  1  2  2  0
  1  6  1  0
  2  3  1  0
  3 19  1  0
  3  4  2  0
 19 20  1  0
 20 21  2  0
 20 30  1  0
 21 22  1  0
 22 23  1  0
 23 24  2  0
 23 25  1  0
 25 26  1  0
 25 30  2  0
 26 27  2  0
 27 28  1  0
 28 29  2  0
 29 30  1  0
  4  5  1  0
  5  6  2  0
  6  7  1  0
 10 11  1  0
 10 18  1  0
 11 12  1  0
 12 13  1  0
 12 17  1  0
 12 18  1  0
 13 14  1  0
 14 15  1  0
 15 16  1  0
 16 17  1  0
M  CHG  1  15   1
M  END
>  <minimizedAffinity>  (23) 
-9.24478

$$$$
data/reference_output_2/data/smiles/89075.pdb
     RDKit          3D

 25 28  0  0  0  0  0  0  0  0999 V2000
   69.3255   46.3064   57.0133 C   0  0  0  0  0  0  0  0  0  0  0  0
   69.9679   45.1470   57.2870 N   0  0  0  0  0  0  0  0  0  0  0  0
   71.0251   45.0505   58.1055 C   0  0  0  0  0  0  0  0  0  0  0  0
   71.4723   46.1746   58.6885 N   0  0  0  0  0  0  0  0  0  0  0  0
   70.8699   47.3594   58.4528 C   0  0  0  0  0  0  0  0  0  0  0  0
   71.1045   48.6090   58.8919 N   0  0  0  0  0  0  0  0  0  0  0  0
   70.2103   49.4754   58.3574 C   0  0  0  0  0  0  0  0  0  0  0  0
   70.0155   50.8417   58.4786 C   0  0  0  0  0  0  0  0  0  0  0  0
   68.9971   51.4735   57.7967 C   0  0  0  0  0  0  0  0  0  0  0  0
   68.1622   50.7342   56.9852 C   0  0  0  0  0  0  0  0  0  0  0  0
   68.3171   49.3722   56.8331 C   0  0  0  0  0  0  0  0  0  0  0  0
   69.3466   48.7735   57.5301 C   0  0  0  0  0  0  0  0  0  0  0  0
   69.7785   47.4646   57.6080 C   0  0  0  0  0  0  0  0  0  0  0  0
   68.2069   46.3045   56.1255 N   0  0  0  0  0  0  0  0  0  0  0  0
   69.1575   47.8431   52.9179 C   0  0  0  0  0  0  0  0  0  0  0  0
   68.6350   46.9359   52.0224 C   0  0  0  0  0  0  0  0  0  0  0  0
   67.9682   45.8157   52.4833 C   0  0  0  0  0  0  0  0  0  0  0  0
   67.8058   45.5713   53.8238 C   0  0  0  0  0  0  0  0  0  0  0  0
   68.3163   46.4593   54.7355 C   0  0  0  0  0  0  0  0  0  0  0  0
   68.9782   47.5694   54.2536 C   0  0  0  0  0  0  0  0  0  0  0  0
   70.0055   49.2692   52.4240 S   0  0  0  0  0  0  0  0  0  0  0  0
   71.4477   49.1291   52.8484 O   0  0  0  0  0  0  0  0  0  0  0  0
   69.9816   49.4682   50.9303 O   0  0  0  0  0  0  0  0  0  0  0  0
   70.3336   51.3596   53.9901 C   0  0  0  0  0  0  0  0  0  0  0  0
   69.3610   50.6966   53.1423 N   0  0  0  0  0  0  0  0  0  0  0  0
 24 25  1  0
 25 21  1  0
 21 22  2  0
 21 23  2  0
 21 15  1  0
 15 16  2  0
 15 20  1  0
 16 17  1  0
 17 18  2  0
 18 19  1  0
 19 14  1  0
 19 20  2  0
 14  1  1  0
  1  2  2  0
  1 13  1  0
  2  3  1  0
  3  4  2  0
  4  5  1  0
  5  6  1  0
  5 13  2  0
  6  7  1  0
  7  8  1  0
  7 12  2  0
  8  9  2  0
  9 10  1  0
 10 11  2  0
 11 12  1  0
 12 13  1  0
M  END
>  <minimizedAffinity>  (24) 
-9.42732

$$$$
data/reference_output_2/data/smiles/89161.pdb
     RDKit          3D

 23 25  0  0  0  0  0  0  0  0999 V2000
   69.0407   46.1384   56.4551 C   0  0  0  0  0  0  0  0  0  0  0  0
   70.0565   46.3577   57.1382 O   0  0  0  0  0  0  0  0  0  0  0  0
   68.5927   44.7961   56.3105 N   0  0  0  0  0  0  0  0  0  0  0  0
   69.3128   43.7771   56.9401 N   0  0  0  0  0  0  0  0  0  0  0  0
   68.8787   42.5666   57.0391 C   0  0  0  0  0  0  0  0  0  0  0  0
   67.6137   42.0712   56.5308 C   0  0  0  0  0  0  0  0  0  0  0  0
   66.7796   42.7694   55.9278 O   0  0  0  0  0  0  0  0  0  0  0  0
   67.5430   40.6704   56.8625 N   0  0  0  0  0  0  0  0  0  0  0  0
   68.7331   40.2974   57.5608 C   0  0  0  0  0  0  0  0  0  0  0  0
   69.1543   39.0880   58.0899 C   0  0  0  0  0  0  0  0  0  0  0  0
   70.3932   39.0160   58.7336 C   0  0  0  0  0  0  0  0  0  0  0  0
   71.2004   40.1246   58.8496 C   0  0  0  0  0  0  0  0  0  0  0  0
   70.7554   41.3104   58.3139 C   0  0  0  0  0  0  0  0  0  0  0  0
   69.5322   41.4146   57.6705 C   0  0  0  0  0  0  0  0  0  0  0  0
   68.4861   48.5140   56.6275 C   0  0  0  0  0  0  0  0  0  0  0  0
   68.3154   47.2774   55.8064 C   0  0  1  0  0  0  0  0  0  0  0  0
   68.8942   47.5412   54.4553 C   0  0  0  0  0  0  0  0  0  0  0  0
   68.6164   46.7141   53.3866 C   0  0  0  0  0  0  0  0  0  0  0  0
   69.1472   46.9452   52.1185 C   0  0  0  0  0  0  0  0  0  0  0  0
   69.9789   48.0241   51.8948 C   0  0  0  0  0  0  0  0  0  0  0  0
   70.5172   48.2700   50.6383 O   0  0  0  0  0  0  0  0  0  0  0  0
   70.2618   48.8579   52.9614 C   0  0  0  0  0  0  0  0  0  0  0  0
   69.7265   48.6142   54.2150 C   0  0  0  0  0  0  0  0  0  0  0  0
 16 15  1  1
 16  1  1  0
 16 17  1  0
  1  2  2  0
  1  3  1  0
  3  4  1  0
  4  5  2  0
  5  6  1  0
  5 14  1  0
  6  7  2  0
  6  8  1  0
  8  9  1  0
  9 10  1  0
  9 14  2  0
 10 11  2  0
 11 12  1  0
 12 13  2  0
 13 14  1  0
 17 18  2  0
 17 23  1  0
 18 19  1  0
 19 20  2  0
 20 21  1  0
 20 22  1  0
 22 23  2  0
M  END
>  <minimizedAffinity>  (25) 
-8.72660

$$$$
data/reference_output_2/data/smiles/89271.pdb
     RDKit          3D

 27 29  0  0  0  0  0  0  0  0999 V2000
   70.8637   41.5955   58.3962 C   0  0  0  0  0  0  0  0  0  0  0  0
   71.9328   42.0621   59.1643 C   0  0  0  0  0  0  0  0  0  0  0  0
   72.1944   43.4126   59.2570 C   0  0  0  0  0  0  0  0  0  0  0  0
   71.4351   44.3622   58.6123 C   0  0  0  0  0  0  0  0  0  0  0  0
   70.3688   43.9240   57.8444 C   0  0  0  0  0  0  0  0  0  0  0  0
   70.1191   42.5670   57.7613 C   0  0  0  0  0  0  0  0  0  0  0  0
   69.7463   45.1171   57.2715 C   0  0  0  0  0  0  0  0  0  0  0  0
   68.7167   45.1661   56.4909 N   0  0  0  0  0  0  0  0  0  0  0  0
   70.4732   46.3054   57.7198 C   0  0  0  0  0  0  0  0  0  0  0  0
   70.2357   47.5140   57.4386 O   0  0  0  0  0  0  0  0  0  0  0  0
   71.5139   45.7860   58.5512 N   0  0  0  0  0  0  0  0  0  0  0  0
   71.4949   39.1346   58.6004 N   0  0  0  0  0  0  0  0  0  0  0  0
   70.5870   40.1677   58.2843 C   0  0  0  0  0  0  0  0  0  0  0  0
   69.4462   39.8288   57.8708 O   0  0  0  0  0  0  0  0  0  0  0  0
   70.9247   37.0283   59.7700 C   0  0  0  0  0  0  0  0  0  0  0  0
   71.1945   37.7187   58.4826 C   0  0  0  0  0  0  0  0  0  0  0  0
   72.3595   37.0262   57.7472 C   0  0  0  0  0  0  0  0  0  0  0  0
   68.2246   46.4108   56.0100 N   0  0  0  0  0  0  0  0  0  0  0  0
   68.4007   46.5796   54.6027 C   0  0  0  0  0  0  0  0  0  0  0  0
   67.7587   45.7214   53.7089 C   0  0  0  0  0  0  0  0  0  0  0  0
   67.8980   45.8395   52.3444 C   0  0  0  0  0  0  0  0  0  0  0  0
   68.6967   46.8359   51.8244 C   0  0  0  0  0  0  0  0  0  0  0  0
   69.3428   47.6980   52.6713 C   0  0  0  0  0  0  0  0  0  0  0  0
   69.1813   47.5521   54.0297 C   0  0  0  0  0  0  0  0  0  0  0  0
   70.1787   48.7376   52.1058 C   0  0  0  0  0  0  0  0  0  0  0  0
   69.8632   49.3712   51.0821 O   0  0  0  0  0  0  0  0  0  0  0  0
   71.3781   49.0418   52.7274 O   0  0  0  0  0  0  0  0  0  0  0  0
 15 16  1  0
 16 17  1  0
 16 12  1  0
 12 13  1  0
 13 14  2  0
 13  1  1  0
  1  2  2  0
  1  6  1  0
  2  3  1  0
  3  4  2  0
  4  5  1  0
  4 11  1  0
  5  6  2  0
  5  7  1  0
  7  8  2  0
  7  9  1  0
  8 18  1  0
 18 19  1  0
 19 20  2  0
 19 24  1  0
 20 21  1  0
 21 22  2  0
 22 23  1  0
 23 25  1  0
 23 24  2  0
 25 26  2  0
 25 27  1  0
  9 10  2  0
  9 11  1  0
M  END
>  <minimizedAffinity>  (26) 
-9.15459

$$$$
data/reference_output_2/data/smiles/89341.pdb
     RDKit          3D

 30 32  0  0  0  0  0  0  0  0999 V2000
   69.9938   48.1317   57.2554 C   0  0  0  0  0  0  0  0  0  0  0  0
   70.9760   47.7733   58.0962 C   0  0  0  0  0  0  0  0  0  0  0  0
   71.6698   48.9340   58.3951 N   0  0  0  0  0  0  0  0  0  0  0  0
   71.1254   49.9732   57.7538 C   0  0  0  0  0  0  0  0  0  0  0  0
   71.4415   51.3372   57.7187 C   0  0  0  0  0  0  0  0  0  0  0  0
   70.7074   52.2184   56.9644 C   0  0  0  0  0  0  0  0  0  0  0  0
   69.6356   51.7638   56.2238 C   0  0  0  0  0  0  0  0  0  0  0  0
   68.7211   52.9117   55.2737 Cl  0  0  0  0  0  0  0  0  0  0  0  0
   69.3339   50.4130   56.2686 C   0  0  0  0  0  0  0  0  0  0  0  0
   70.0599   49.5243   57.0177 C   0  0  0  0  0  0  0  0  0  0  0  0
   68.7962   47.1754   56.4713 S   0  0  0  0  0  0  0  0  0  0  0  0
   67.4161   47.4858   57.0564 O   0  0  0  0  0  0  0  0  0  0  0  0
   69.0012   45.7114   56.9232 O   0  0  0  0  0  0  0  0  0  0  0  0
   70.1259   49.1365   51.8295 C   0  0  0  0  0  0  0  0  0  0  0  0
   69.4382   48.1137   52.6293 C   0  0  0  0  0  0  0  0  0  0  0  0
   68.7433   47.1096   52.0140 C   0  0  0  0  0  0  0  0  0  0  0  0
   68.0972   46.1485   52.7318 C   0  0  0  0  0  0  0  0  0  0  0  0
   67.3650   45.0936   51.9714 C   0  0  0  0  0  0  0  0  0  0  0  0
   68.1304   46.1682   54.0893 C   0  0  0  0  0  0  0  0  0  0  0  0
   68.8139   47.1541   54.7589 C   0  0  0  0  0  0  0  0  0  0  0  0
   69.4572   48.1112   54.0308 C   0  0  0  0  0  0  0  0  0  0  0  0
   71.3064   46.4986   58.6912 C   0  0  0  0  0  0  0  0  0  0  0  0
   71.3870   46.4805   59.9765 O   0  0  0  0  0  0  0  0  0  0  0  0
   71.5486   45.2698   58.0826 N   0  0  0  0  0  0  0  0  0  0  0  0
   71.8842   44.0393   58.7684 C   0  0  2  0  0  0  0  0  0  0  0  0
   72.7680   43.1420   57.9194 C   0  0  0  0  0  0  0  0  0  0  0  0
   70.6678   43.2807   59.1292 C   0  0  0  0  0  0  0  0  0  0  0  0
   70.5701   42.0791   58.8051 O   0  0  0  0  0  0  0  0  0  0  0  0
   69.6016   43.8803   59.8347 N   0  0  0  0  0  0  0  0  0  0  0  0
   68.4277   43.1684   60.1893 N   0  0  0  0  0  0  0  0  0  0  0  0
 14 15  1  0
 15 16  2  0
 15 21  1  0
 16 17  1  0
 17 18  1  0
 17 19  2  0
 19 20  1  0
 20 11  1  0
 20 21  2  0
 11 12  2  0
 11 13  2  0
 11  1  1  0
  1  2  2  0
  1 10  1  0
  2 22  1  0
  2  3  1  0
 22 23  2  0
 22 24  1  0
 24 25  1  0
 25 26  1  6
 25 27  1  0
 27 28  2  0
 27 29  1  0
 29 30  1  0
  3  4  1  0
  4  5  1  0
  4 10  2  0
  5  6  2  0
  6  7  1  0
  7  8  1  0
  7  9  2  0
  9 10  1  0
M  END
>  <minimizedAffinity>  (27) 
-9.19798

$$$$
data/reference_output_2/data/smiles/89361.pdb
     RDKit          3D

 29 32  0  0  0  0  0  0  0  0999 V2000
   69.1173   41.3237   57.9218 C   0  0  0  0  0  0  0  0  0  0  0  0
   68.0679   40.9236   57.0866 C   0  0  0  0  0  0  0  0  0  0  0  0
   67.5141   41.7729   56.1542 C   0  0  0  0  0  0  0  0  0  0  0  0
   67.9703   43.0644   55.9993 C   0  0  0  0  0  0  0  0  0  0  0  0
   67.6416   44.1003   55.2004 N   0  0  0  0  0  0  0  0  0  0  0  0
   68.4229   45.1609   55.4685 C   0  0  0  0  0  0  0  0  0  0  0  0
   69.2427   44.7604   56.4522 N   0  0  0  0  0  0  0  0  0  0  0  0
   69.0025   43.4855   56.8078 C   0  0  0  0  0  0  0  0  0  0  0  0
   69.5551   42.6162   57.7481 C   0  0  0  0  0  0  0  0  0  0  0  0
   68.3524   46.4821   54.7889 C   0  0  1  0  0  0  0  0  0  0  0  0
   69.3144   47.4242   55.4949 C   0  0  0  0  0  0  0  0  0  0  0  0
   69.3629   48.5545   54.4585 C   0  0  2  0  0  0  0  0  0  0  0  0
   68.3495   49.4503   54.8289 O   0  0  0  0  0  0  0  0  0  0  0  0
   68.9556   47.8148   53.1981 C   0  0  2  0  0  0  0  0  0  0  0  0
   68.8688   46.4619   53.5214 O   0  0  0  0  0  0  0  0  0  0  0  0
   69.9670   48.0628   52.0988 C   0  0  0  0  0  0  0  0  0  0  0  0
   69.9472   46.9622   51.2393 O   0  0  0  0  0  0  0  0  0  0  0  0
   68.9212   39.9801   59.8191 O   0  0  0  0  0  0  0  0  0  0  0  0
   69.6634   40.3822   58.8907 C   0  0  0  0  0  0  0  0  0  0  0  0
   70.9888   39.8959   58.8426 N   0  0  0  0  0  0  0  0  0  0  0  0
   71.5848   38.9641   59.7775 C   0  0  0  0  0  0  0  0  0  0  0  0
   71.7157   37.5816   59.2207 C   0  0  0  0  0  0  0  0  0  0  0  0
   72.2424   37.3962   57.9546 C   0  0  0  0  0  0  0  0  0  0  0  0
   72.3592   36.1238   57.4299 C   0  0  0  0  0  0  0  0  0  0  0  0
   73.0314   35.9104   55.8206 Cl  0  0  0  0  0  0  0  0  0  0  0  0
   71.9476   35.0264   58.1711 C   0  0  0  0  0  0  0  0  0  0  0  0
   71.4189   35.2161   59.4436 C   0  0  0  0  0  0  0  0  0  0  0  0
   70.9219   33.7791   60.3164 Cl  0  0  0  0  0  0  0  0  0  0  0  0
   71.3075   36.4809   59.9523 C   0  0  0  0  0  0  0  0  0  0  0  0
 18 19  2  0
 19 20  1  0
 19  1  1  0
 20 21  1  0
 21 22  1  0
 22 23  2  0
 22 29  1  0
 23 24  1  0
 24 25  1  0
 24 26  2  0
 26 27  1  0
 27 28  1  0
 27 29  2  0
  1  2  2  0
  1  9  1  0
  2  3  1  0
  3  4  2  0
  4  5  1  0
  4  8  1  0
  5  6  1  0
 10  6  1  1
  6  7  2  0
 10 11  1  0
 10 15  1  0
 11 12  1  0
 12 13  1  1
 12 14  1  0
 14 16  1  6
 14 15  1  0
 16 17  1  0
  7  8  1  0
  8  9  2  0
M  CHG  1   7   1
M  END
>  <minimizedAffinity>  (28) 
-8.94556

$$$$
data/reference_output_2/data/smiles/89504.pdb
     RDKit          3D

 27 30  0  0  0  0  0  0  0  0999 V2000
   69.8325   47.9056   57.5065 C   0  0  0  0  0  0  0  0  0  0  0  0
   70.3853   48.9047   58.2947 C   0  0  0  0  0  0  0  0  0  0  0  0
   71.3770   48.6429   59.1952 C   0  0  0  0  0  0  0  0  0  0  0  0
   71.8485   47.3475   59.3317 C   0  0  0  0  0  0  0  0  0  0  0  0
   72.8256   47.0753   60.2168 F   0  0  0  0  0  0  0  0  0  0  0  0
   71.3230   46.3233   58.5641 C   0  0  0  0  0  0  0  0  0  0  0  0
   70.3206   46.6399   57.6662 C   0  0  0  0  0  0  0  0  0  0  0  0
   71.8152   44.9989   58.7055 N   0  0  0  0  0  0  0  0  0  0  0  0
   73.1294   44.6514   58.2420 C   0  0  0  0  0  0  0  0  0  0  0  0
   73.3423   43.1565   58.1802 C   0  0  0  0  0  0  0  0  0  0  0  0
   72.2313   42.4339   57.4581 C   0  0  0  0  0  0  0  0  0  0  0  0
   70.9379   42.3885   58.2103 C   0  0  0  0  0  0  0  0  0  0  0  0
   70.8925   43.7128   59.4302 S   0  0  0  0  0  0  0  0  0  0  0  0
   71.5140   43.2750   60.7202 O   0  0  0  0  0  0  0  0  0  0  0  0
   69.4966   44.2314   59.6069 O   0  0  0  0  0  0  0  0  0  0  0  0
   68.7347   48.2469   56.5425 C   0  0  0  0  0  0  0  0  0  0  0  0
   70.9181   48.8632   51.6337 O   0  0  0  0  0  0  0  0  0  0  0  0
   70.3954   48.6898   52.7681 C   0  0  0  0  0  0  0  0  0  0  0  0
   70.8093   49.4680   53.7716 N   0  0  0  0  0  0  0  0  0  0  0  0
   70.2790   49.3021   54.9529 N   0  0  0  0  0  0  0  0  0  0  0  0
   69.3155   48.3597   55.1888 C   0  0  0  0  0  0  0  0  0  0  0  0
   68.8631   47.5406   54.1865 C   0  0  0  0  0  0  0  0  0  0  0  0
   69.4129   47.7010   52.9293 C   0  0  0  0  0  0  0  0  0  0  0  0
   69.0384   46.9012   51.7385 C   0  0  0  0  0  0  0  0  0  0  0  0
   67.7389   46.2012   52.0035 C   0  0  0  0  0  0  0  0  0  0  0  0
   67.9000   45.4526   53.3323 C   0  0  0  0  0  0  0  0  0  0  0  0
   67.8429   46.5027   54.4450 C   0  0  0  0  0  0  0  0  0  0  0  0
 17 18  2  0
 18 19  1  0
 18 23  1  0
 19 20  1  0
 20 21  2  0
 21 16  1  0
 21 22  1  0
 16  1  1  0
  1  2  2  0
  1  7  1  0
  2  3  1  0
  3  4  2  0
  4  5  1  0
  4  6  1  0
  6  8  1  0
  6  7  2  0
  8  9  1  0
  8 13  1  0
  9 10  1  0
 10 11  1  0
 11 12  1  0
 12 13  1  0
 13 14  2  0
 13 15  2  0
 22 23  2  0
 22 27  1  0
 23 24  1  0
 24 25  1  0
 25 26  1  0
 26 27  1  0
M  END
>  <minimizedAffinity>  (29) 
-8.82679

$$$$
data/reference_output_2/data/smiles/89553.pdb
     RDKit          3D

 28 31  0  0  0  0  0  0  0  0999 V2000
   70.6658   45.3034   57.8511 C   0  0  0  0  0  0  0  0  0  0  0  0
   71.6595   45.7361   58.7096 C   0  0  0  0  0  0  0  0  0  0  0  0
   71.8767   47.0900   58.8313 C   0  0  0  0  0  0  0  0  0  0  0  0
   71.1392   48.0188   58.1286 C   0  0  0  0  0  0  0  0  0  0  0  0
   70.1247   47.5967   57.2525 C   0  0  0  0  0  0  0  0  0  0  0  0
   69.9326   46.2470   57.1515 C   0  0  0  0  0  0  0  0  0  0  0  0
   69.2347   43.7722   59.6580 O   0  0  0  0  0  0  0  0  0  0  0  0
   69.6754   43.1738   58.6483 C   0  0  0  0  0  0  0  0  0  0  0  0
   70.4125   43.9194   57.6988 N   0  0  0  0  0  0  0  0  0  0  0  0
   69.4158   41.7386   58.4861 C   0  0  0  0  0  0  0  0  0  0  0  0
   70.0742   40.8279   59.2072 N   0  0  0  0  0  0  0  0  0  0  0  0
   69.8281   39.5070   59.0495 C   0  0  0  0  0  0  0  0  0  0  0  0
   68.8951   39.0401   58.1443 C   0  0  0  0  0  0  0  0  0  0  0  0
   68.2043   39.9613   57.3892 C   0  0  0  0  0  0  0  0  0  0  0  0
   68.4836   41.2985   57.5796 C   0  0  0  0  0  0  0  0  0  0  0  0
   67.7799   42.2358   56.8101 O   0  0  0  0  0  0  0  0  0  0  0  0
   69.3586   48.6222   56.5024 C   0  0  0  0  0  0  0  0  0  0  0  0
   69.6618   48.5527   55.0545 C   0  0  0  0  0  0  0  0  0  0  0  0
   70.7015   49.2984   54.5727 N   0  0  0  0  0  0  0  0  0  0  0  0
   71.0524   49.3318   53.3049 N   0  0  0  0  0  0  0  0  0  0  0  0
   70.3738   48.6013   52.3846 C   0  0  0  0  0  0  0  0  0  0  0  0
   70.6863   48.6130   51.1604 O   0  0  0  0  0  0  0  0  0  0  0  0
   69.3254   47.8309   52.7755 C   0  0  0  0  0  0  0  0  0  0  0  0
   68.9742   47.8121   54.1195 C   0  0  0  0  0  0  0  0  0  0  0  0
   67.8547   46.9692   54.5551 C   0  0  0  0  0  0  0  0  0  0  0  0
   67.6756   45.6934   53.7891 C   0  0  0  0  0  0  0  0  0  0  0  0
   68.3043   45.6747   52.4451 C   0  0  0  0  0  0  0  0  0  0  0  0
   68.5298   47.0119   51.8347 C   0  0  0  0  0  0  0  0  0  0  0  0
  7  8  2  0
  8  9  1  0
  8 10  1  0
  9  1  1  0
  1  2  2  0
  1  6  1  0
  2  3  1  0
  3  4  2  0
  4  5  1  0
  5 17  1  0
  5  6  2  0
 17 18  1  0
 18 19  2  0
 18 24  1  0
 19 20  1  0
 20 21  1  0
 21 22  2  0
 21 23  1  0
 23 24  2  0
 23 28  1  0
 24 25  1  0
 25 26  1  0
 26 27  1  0
 27 28  1  0
 10 11  2  0
 10 15  1  0
 11 12  1  0
 12 13  2  0
 13 14  1  0
 14 15  2  0
 15 16  1  0
M  END
>  <minimizedAffinity>  (30) 
-9.19374

$$$$
data/reference_output_2/data/smiles/89625.pdb
     RDKit          3D

 28 31  0  0  0  0  0  0  0  0999 V2000
   69.0947   48.2448   56.9405 C   0  0  0  0  0  0  0  0  0  0  0  0
   68.2399   49.2500   57.3362 C   0  0  0  0  0  0  0  0  0  0  0  0
   68.6317   50.2086   58.2548 C   0  0  0  0  0  0  0  0  0  0  0  0
   69.8922   50.1645   58.7870 C   0  0  0  0  0  0  0  0  0  0  0  0
   70.7852   49.1702   58.4188 C   0  0  0  0  0  0  0  0  0  0  0  0
   70.3579   48.2413   57.5057 C   0  0  0  0  0  0  0  0  0  0  0  0
   69.4130   47.9417   52.3565 C   0  0  0  0  0  0  0  0  0  0  0  0
   68.8863   46.7689   51.8587 C   0  0  0  0  0  0  0  0  0  0  0  0
   68.3420   45.8403   52.7122 C   0  0  0  0  0  0  0  0  0  0  0  0
   68.3119   46.0610   54.0681 C   0  0  0  0  0  0  0  0  0  0  0  0
   67.8659   45.3792   55.1455 N   0  0  0  0  0  0  0  0  0  0  0  0
   68.0900   46.0633   56.2580 N   0  0  0  0  0  0  0  0  0  0  0  0
   68.6940   47.2298   55.9734 C   0  0  0  0  0  0  0  0  0  0  0  0
   68.8395   47.2423   54.6053 C   0  0  0  0  0  0  0  0  0  0  0  0
   69.3770   48.1529   53.7271 C   0  0  0  0  0  0  0  0  0  0  0  0
   69.7141   50.2853   51.6422 N   0  0  0  0  0  0  0  0  0  0  0  0
   69.9866   48.9198   51.4516 C   0  0  0  0  0  0  0  0  0  0  0  0
   70.7189   48.5416   50.5114 O   0  0  0  0  0  0  0  0  0  0  0  0
   72.1105   49.1305   58.9839 N   0  0  0  0  0  0  0  0  0  0  0  0
   72.4065   48.2467   60.0557 C   0  0  0  0  0  0  0  0  0  0  0  0
   71.5186   47.4971   60.5176 O   0  0  0  0  0  0  0  0  0  0  0  0
   73.7581   48.1723   60.6671 C   0  0  0  0  0  0  0  0  0  0  0  0
   74.6776   49.1808   60.0935 C   0  0  0  0  0  0  0  0  0  0  0  0
   74.4979   50.5201   60.2998 C   0  0  0  0  0  0  0  0  0  0  0  0
   75.3703   51.4253   59.7547 C   0  0  0  0  0  0  0  0  0  0  0  0
   76.4019   50.9838   59.0154 N   0  0  0  0  0  0  0  0  0  0  0  0
   76.5986   49.6705   58.7995 C   0  0  0  0  0  0  0  0  0  0  0  0
   75.7366   48.7393   59.3369 C   0  0  0  0  0  0  0  0  0  0  0  0
 16 17  1  0
 17 18  2  0
 17  7  1  0
  7  8  2  0
  7 15  1  0
  8  9  1  0
  9 10  2  0
 10 11  1  0
 10 14  1  0
 11 12  1  0
 12 13  2  0
 13  1  1  0
 13 14  1  0
  1  2  2  0
  1  6  1  0
  2  3  1  0
  3  4  2  0
  4  5  1  0
  5 19  1  0
  5  6  2  0
 19 20  1  0
 20 21  2  0
 20 22  1  0
 22 23  1  0
 23 24  2  0
 23 28  1  0
 24 25  1  0
 25 26  2  0
 26 27  1  0
 27 28  2  0
 14 15  2  0
M  END
>  <minimizedAffinity>  (31) 
-8.91927

$$$$
data/reference_output_2/data/smiles/89698.pdb
     RDKit          3D

 23 25  0  0  0  0  0  0  0  0999 V2000
   69.6663   48.0327   56.3586 C   0  0  0  0  0  0  0  0  0  0  0  0
   69.8231   48.0861   54.9088 C   0  0  0  0  0  0  0  0  0  0  0  0
   70.7367   49.0147   54.4230 N   0  0  0  0  0  0  0  0  0  0  0  0
   70.9214   49.2293   53.1468 N   0  0  0  0  0  0  0  0  0  0  0  0
   70.2478   48.5734   52.1833 C   0  0  0  0  0  0  0  0  0  0  0  0
   70.4377   48.7935   50.9604 O   0  0  0  0  0  0  0  0  0  0  0  0
   69.3222   47.6310   52.5741 C   0  0  0  0  0  0  0  0  0  0  0  0
   68.6322   46.9228   51.6160 C   0  0  0  0  0  0  0  0  0  0  0  0
   67.7293   45.9648   51.9980 C   0  0  0  0  0  0  0  0  0  0  0  0
   67.5484   45.7451   53.3697 C   0  0  0  0  0  0  0  0  0  0  0  0
   68.2413   46.4569   54.3220 C   0  0  0  0  0  0  0  0  0  0  0  0
   69.1436   47.4201   53.9515 C   0  0  0  0  0  0  0  0  0  0  0  0
   68.7757   50.3501   57.0063 C   0  0  0  0  0  0  0  0  0  0  0  0
   67.7386   51.0693   57.5961 C   0  0  0  0  0  0  0  0  0  0  0  0
   66.5739   50.4420   57.9969 C   0  0  0  0  0  0  0  0  0  0  0  0
   66.4365   49.0825   57.8110 C   0  0  0  0  0  0  0  0  0  0  0  0
   67.4634   48.3872   57.2333 C   0  0  0  0  0  0  0  0  0  0  0  0
   68.6655   49.0081   56.8169 C   0  0  0  0  0  0  0  0  0  0  0  0
   69.9053   51.0297   56.5038 N   0  0  0  0  0  0  0  0  0  0  0  0
   69.9375   53.8747   56.3170 C   0  0  0  0  0  0  0  0  0  0  0  0
   69.7502   52.3458   55.4371 S   0  0  0  0  0  0  0  0  0  0  0  0
   70.7808   52.2495   54.3261 O   0  0  0  0  0  0  0  0  0  0  0  0
   68.4119   52.3450   54.7735 O   0  0  0  0  0  0  0  0  0  0  0  0
 20 21  1  0
 21 22  2  0
 21 23  2  0
 21 19  1  0
 19 13  1  0
 13 14  2  0
 13 18  1  0
 14 15  1  0
 15 16  2  0
 16 17  1  0
 17 18  2  0
 18  1  1  0
  1  2  1  0
  2  3  2  0
  2 12  1  0
  3  4  1  0
  4  5  1  0
  5  6  2  0
  5  7  1  0
  7  8  1  0
  7 12  2  0
  8  9  2  0
  9 10  1  0
 10 11  2  0
 11 12  1  0
M  END
>  <minimizedAffinity>  (32) 
-8.71073

$$$$
data/reference_output_2/data/smiles/89716.pdb
     RDKit          3D

 28 31  0  0  0  0  0  0  0  0999 V2000
   71.6141   47.2779   58.9425 C   0  0  0  0  0  0  0  0  0  0  0  0
   70.7459   47.9645   58.1303 C   0  0  0  0  0  0  0  0  0  0  0  0
   69.8928   47.3473   57.2120 C   0  0  0  0  0  0  0  0  0  0  0  0
   69.9607   45.9862   57.1538 C   0  0  0  0  0  0  0  0  0  0  0  0
   70.8279   45.2366   57.9585 C   0  0  0  0  0  0  0  0  0  0  0  0
   71.6484   45.8900   58.8483 C   0  0  0  0  0  0  0  0  0  0  0  0
   72.5006   45.1993   59.6436 F   0  0  0  0  0  0  0  0  0  0  0  0
   72.1934   47.9034   61.0949 O   0  0  0  0  0  0  0  0  0  0  0  0
   72.4831   47.9766   59.8784 C   0  0  0  0  0  0  0  0  0  0  0  0
   73.6270   48.7292   59.5014 N   0  0  0  0  0  0  0  0  0  0  0  0
   74.3841   49.3646   60.5663 C   0  0  0  0  0  0  0  0  0  0  0  0
   75.3861   48.4175   61.1384 C   0  0  0  0  0  0  0  0  0  0  0  0
   76.2514   47.7376   60.1278 C   0  0  0  0  0  0  0  0  0  0  0  0
   75.5512   47.1819   59.0045 N   0  0  0  0  0  0  0  0  0  0  0  0
   75.3228   48.1362   57.9356 C   0  0  0  0  0  0  0  0  0  0  0  0
   73.9811   48.8240   58.0975 C   0  0  0  0  0  0  0  0  0  0  0  0
   68.9676   48.1563   56.3964 C   0  0  0  0  0  0  0  0  0  0  0  0
   69.3732   48.3044   54.9804 C   0  0  0  0  0  0  0  0  0  0  0  0
   70.3200   49.2288   54.6369 N   0  0  0  0  0  0  0  0  0  0  0  0
   70.7491   49.3664   53.4054 N   0  0  0  0  0  0  0  0  0  0  0  0
   70.2771   48.6003   52.4133 C   0  0  0  0  0  0  0  0  0  0  0  0
   70.6712   48.7086   51.2219 O   0  0  0  0  0  0  0  0  0  0  0  0
   69.3096   47.6376   52.6844 C   0  0  0  0  0  0  0  0  0  0  0  0
   68.8150   46.8557   51.6446 C   0  0  0  0  0  0  0  0  0  0  0  0
   67.8531   45.9221   51.9220 C   0  0  0  0  0  0  0  0  0  0  0  0
   67.4136   45.7947   53.2166 C   0  0  0  0  0  0  0  0  0  0  0  0
   67.8818   46.5508   54.2618 C   0  0  0  0  0  0  0  0  0  0  0  0
   68.8694   47.5077   53.9849 C   0  0  0  0  0  0  0  0  0  0  0  0
  8  9  2  0
  9  1  1  0
  9 10  1  0
  1  2  2  0
  1  6  1  0
  2  3  1  0
  3 17  1  0
  3  4  2  0
 17 18  1  0
 18 19  2  0
 18 28  1  0
 19 20  1  0
 20 21  1  0
 21 22  2  0
 21 23  1  0
 23 24  1  0
 23 28  2  0
 24 25  2  0
 25 26  1  0
 26 27  2  0
 27 28  1  0
  4  5  1  0
  5  6  2  0
  6  7  1  0
 10 11  1  0
 10 16  1  0
 11 12  1  0
 12 13  1  0
 13 14  1  0
 14 15  1  0
 15 16  1  0
M  CHG  1  14   1
M  END
>  <minimizedAffinity>  (33) 
-9.09208

$$$$
data/reference_output_2/data/smiles/89732.pdb
     RDKit          3D

 24 26  0  0  0  0  0  0  0  0999 V2000
   69.5793   48.0957   57.3268 C   0  0  0  0  0  0  0  0  0  0  0  0
   68.3904   48.7297   57.6536 C   0  0  0  0  0  0  0  0  0  0  0  0
   68.0489   49.9665   57.1452 C   0  0  0  0  0  0  0  0  0  0  0  0
   68.8855   50.6272   56.2810 C   0  0  0  0  0  0  0  0  0  0  0  0
   70.0713   50.0084   55.9474 C   0  0  0  0  0  0  0  0  0  0  0  0
   70.4212   48.7571   56.4595 C   0  0  0  0  0  0  0  0  0  0  0  0
   70.9834   50.6924   55.0278 C   0  0  0  0  0  0  0  0  0  0  0  0
   70.1535   51.3931   53.9770 C   0  0  2  0  0  0  0  0  0  0  0  0
   69.3864   52.4783   54.7044 C   0  0  0  0  0  0  0  0  0  0  0  0
   68.4770   51.9431   55.7658 C   0  0  0  0  0  0  0  0  0  0  0  0
   69.4861   45.7537   57.3068 O   0  0  0  0  0  0  0  0  0  0  0  0
   69.8959   46.7780   57.8957 C   0  0  0  0  0  0  0  0  0  0  0  0
   70.6395   46.6023   59.0763 N   0  0  0  0  0  0  0  0  0  0  0  0
   70.9279   45.3837   59.5960 O   0  0  0  0  0  0  0  0  0  0  0  0
   69.2126   50.5471   53.3345 N   0  0  0  0  0  0  0  0  0  0  0  0
   69.8498   49.2422   52.4672 S   0  0  0  0  0  0  0  0  0  0  0  0
   71.3009   49.0129   52.8667 O   0  0  0  0  0  0  0  0  0  0  0  0
   69.8697   49.6046   51.0030 O   0  0  0  0  0  0  0  0  0  0  0  0
   69.0111   47.7551   52.6853 C   0  0  0  0  0  0  0  0  0  0  0  0
   68.6777   47.2939   53.9406 C   0  0  0  0  0  0  0  0  0  0  0  0
   68.0055   46.0945   54.0253 C   0  0  0  0  0  0  0  0  0  0  0  0
   67.6631   45.3548   52.9152 C   0  0  0  0  0  0  0  0  0  0  0  0
   68.0059   45.8400   51.7118 N   0  0  0  0  0  0  0  0  0  0  0  0
   68.6529   46.9918   51.5991 C   0  0  0  0  0  0  0  0  0  0  0  0
 11 12  2  0
 12 13  1  0
 12  1  1  0
 13 14  1  0
  1  2  2  0
  1  6  1  0
  2  3  1  0
  3  4  2  0
  4  5  1  0
  4 10  1  0
  5  6  2  0
  5  7  1  0
  7  8  1  0
  8 15  1  1
  8  9  1  0
 15 16  1  0
 16 17  2  0
 16 18  2  0
 16 19  1  0
 19 20  2  0
 19 24  1  0
 20 21  1  0
 21 22  2  0
 22 23  1  0
 23 24  2  0
  9 10  1  0
M  END
>  <minimizedAffinity>  (34) 
-8.66634

$$$$
data/reference_output_2/data/smiles/89842.pdb
     RDKit          3D

 21 23  0  0  0  0  0  0  0  0999 V2000
   68.1998   45.1315   55.3100 C   0  0  0  0  0  0  0  0  0  0  0  0
   68.6607   45.8952   56.3144 N   0  0  0  0  0  0  0  0  0  0  0  0
   69.0908   47.0673   55.8495 N   0  0  0  0  0  0  0  0  0  0  0  0
   68.8990   47.0490   54.5132 C   0  0  0  0  0  0  0  0  0  0  0  0
   69.1497   47.9741   53.5087 C   0  0  0  0  0  0  0  0  0  0  0  0
   68.8471   47.6879   52.1972 C   0  0  0  0  0  0  0  0  0  0  0  0
   68.2800   46.4557   51.8648 C   0  0  0  0  0  0  0  0  0  0  0  0
   68.0164   45.5099   52.8346 C   0  0  0  0  0  0  0  0  0  0  0  0
   68.3364   45.8415   54.1345 C   0  0  0  0  0  0  0  0  0  0  0  0
   67.6832   43.8753   55.4134 O   0  0  0  0  0  0  0  0  0  0  0  0
   68.1545   42.8492   56.2192 C   0  0  0  0  0  0  0  0  0  0  0  0
   66.1878   41.7277   56.8516 O   0  0  0  0  0  0  0  0  0  0  0  0
   67.2452   41.6817   56.1821 C   0  0  0  0  0  0  0  0  0  0  0  0
   67.5049   40.5419   55.4440 O   0  0  0  0  0  0  0  0  0  0  0  0
   69.6634   48.1626   56.6116 C   0  0  0  0  0  0  0  0  0  0  0  0
   68.6769   49.2127   56.9163 C   0  0  0  0  0  0  0  0  0  0  0  0
   67.5821   48.8913   57.6799 C   0  0  0  0  0  0  0  0  0  0  0  0
   66.6135   49.8490   57.9992 C   0  0  0  0  0  0  0  0  0  0  0  0
   66.7629   51.1361   57.5385 C   0  0  0  0  0  0  0  0  0  0  0  0
   67.8492   51.4786   56.7738 C   0  0  0  0  0  0  0  0  0  0  0  0
   68.7916   50.5057   56.4753 C   0  0  0  0  0  0  0  0  0  0  0  0
 12 13  2  0
 13 14  1  0
 13 11  1  0
 11 10  1  0
 10  1  1  0
  1  2  2  0
  1  9  1  0
  2  3  1  0
  3 15  1  0
  3  4  1  0
 15 16  1  0
 16 17  2  0
 16 21  1  0
 17 18  1  0
 18 19  2  0
 19 20  1  0
 20 21  2  0
  4  5  1  0
  4  9  2  0
  5  6  2  0
  6  7  1  0
  7  8  2  0
  8  9  1  0
M  END
>  <minimizedAffinity>  (35) 
-8.78398

$$$$
data/reference_output_2/data/smiles/89951.pdb
     RDKit          3D

 27 30  0  0  0  0  0  0  0  0999 V2000
   70.7708   47.1862   57.6896 O   0  0  0  0  0  0  0  0  0  0  0  0
   70.0567   46.1785   57.5067 C   0  0  0  0  0  0  0  0  0  0  0  0
   68.9788   46.2644   56.5924 N   0  0  0  0  0  0  0  0  0  0  0  0
   70.3129   44.9256   58.2127 C   0  0  0  0  0  0  0  0  0  0  0  0
   70.2107   43.6367   57.6885 C   0  0  0  0  0  0  0  0  0  0  0  0
   70.5372   42.7216   58.6665 C   0  0  0  0  0  0  0  0  0  0  0  0
   70.8277   43.4593   59.7517 N   0  0  0  0  0  0  0  0  0  0  0  0
   70.6977   44.7436   59.4880 N   0  0  0  0  0  0  0  0  0  0  0  0
   70.5632   41.2680   58.5607 C   0  0  0  0  0  0  0  0  0  0  0  0
   69.4163   40.5069   58.4670 C   0  0  0  0  0  0  0  0  0  0  0  0
   69.4493   39.1296   58.3706 C   0  0  0  0  0  0  0  0  0  0  0  0
   70.6633   38.4463   58.3644 C   0  0  0  0  0  0  0  0  0  0  0  0
   71.8099   39.2010   58.4577 C   0  0  0  0  0  0  0  0  0  0  0  0
   71.7610   40.5881   58.5543 C   0  0  0  0  0  0  0  0  0  0  0  0
   72.9530   41.2927   58.6446 O   0  0  0  0  0  0  0  0  0  0  0  0
   68.6341   47.4463   55.8350 C   0  0  0  0  0  0  0  0  0  0  0  0
   68.5652   47.1332   54.3763 C   0  0  0  0  0  0  0  0  0  0  0  0
   67.9093   45.9951   53.9144 C   0  0  0  0  0  0  0  0  0  0  0  0
   67.8181   45.6943   52.5695 C   0  0  0  0  0  0  0  0  0  0  0  0
   68.3813   46.5252   51.6361 C   0  0  0  0  0  0  0  0  0  0  0  0
   69.0302   47.6495   52.0898 C   0  0  0  0  0  0  0  0  0  0  0  0
   69.1225   47.9507   53.4234 C   0  0  0  0  0  0  0  0  0  0  0  0
   69.8389   49.1433   53.7853 N   0  0  0  0  0  0  0  0  0  0  0  0
   69.3004   50.3827   53.6122 C   0  0  0  0  0  0  0  0  0  0  0  0
   70.2157   51.3134   54.0425 C   0  0  0  0  0  0  0  0  0  0  0  0
   71.3101   50.6035   54.4760 C   0  0  0  0  0  0  0  0  0  0  0  0
   71.0294   49.3005   54.2977 N   0  0  0  0  0  0  0  0  0  0  0  0
  1  2  2  0
  2  3  1  0
  2  4  1  0
  3 16  1  0
 16 17  1  0
 17 18  2  0
 17 22  1  0
 18 19  1  0
 19 20  2  0
 20 21  1  0
 21 22  2  0
 22 23  1  0
 23 24  1  0
 23 27  1  0
 24 25  2  0
 25 26  1  0
 26 27  2  0
  4  5  2  0
  4  8  1  0
  5  6  1  0
  6  9  1  0
  6  7  2  0
  9 10  2  0
  9 14  1  0
 10 11  1  0
 11 12  2  0
 12 13  1  0
 13 14  2  0
 14 15  1  0
  7  8  1  0
M  END
>  <minimizedAffinity>  (36) 
-8.50163

$$$$
data/reference_output_2/data/smiles/89988.pdb
     RDKit          3D

 29 33  0  0  0  0  0  0  0  0999 V2000
   71.1248   42.8292   59.6768 C   0  0  0  0  0  0  0  0  0  0  0  0
   70.7467   41.4857   59.2385 N   0  0  0  0  0  0  0  0  0  0  0  0
   71.5146   40.3833   59.3042 C   0  0  0  0  0  0  0  0  0  0  0  0
   70.8124   39.3131   58.7963 C   0  0  0  0  0  0  0  0  0  0  0  0
   69.6069   39.7806   58.4203 N   0  0  0  0  0  0  0  0  0  0  0  0
   69.5795   41.0954   58.6931 C   0  0  0  0  0  0  0  0  0  0  0  0
   68.2589   41.6789   58.2965 C   0  0  0  0  0  0  0  0  0  0  0  0
   67.6801   40.6175   57.3843 C   0  0  0  0  0  0  0  0  0  0  0  0
   68.3286   39.3490   57.8294 C   0  0  0  0  0  0  0  0  0  0  0  0
   71.2325   37.9289   58.6725 C   0  0  0  0  0  0  0  0  0  0  0  0
   72.0892   37.4808   57.6899 C   0  0  0  0  0  0  0  0  0  0  0  0
   72.4591   36.1387   57.6087 C   0  0  0  0  0  0  0  0  0  0  0  0
   71.9885   35.2027   58.5037 C   0  0  0  0  0  0  0  0  0  0  0  0
   71.1317   35.6341   59.4909 C   0  0  0  0  0  0  0  0  0  0  0  0
   70.7662   36.9588   59.5707 C   0  0  0  0  0  0  0  0  0  0  0  0
   71.4609   43.6796   57.4979 O   0  0  0  0  0  0  0  0  0  0  0  0
   70.8483   43.7969   58.5890 C   0  0  0  0  0  0  0  0  0  0  0  0
   69.9279   44.8574   58.7007 N   0  0  0  0  0  0  0  0  0  0  0  0
   69.6727   45.7856   57.6369 C   0  0  0  0  0  0  0  0  0  0  0  0
   69.3139   45.7102   56.4282 N   0  0  0  0  0  0  0  0  0  0  0  0
   69.1459   46.7177   55.6458 C   0  0  0  0  0  0  0  0  0  0  0  0
   69.3820   47.9836   56.1888 C   0  0  0  0  0  0  0  0  0  0  0  0
   69.8374   47.6036   57.8210 S   0  0  0  0  0  0  0  0  0  0  0  0
   68.7225   46.5943   54.2249 C   0  0  0  0  0  0  0  0  0  0  0  0
   67.8561   45.6298   53.7938 C   0  0  0  0  0  0  0  0  0  0  0  0
   67.4669   45.5226   52.4688 C   0  0  0  0  0  0  0  0  0  0  0  0
   67.9507   46.3954   51.5408 C   0  0  0  0  0  0  0  0  0  0  0  0
   68.8240   47.3782   51.9405 C   0  0  0  0  0  0  0  0  0  0  0  0
   69.2052   47.4775   53.2619 C   0  0  0  0  0  0  0  0  0  0  0  0
 16 17  2  0
 17  1  1  0
 17 18  1  0
  1  2  1  0
  2  3  1  0
  2  6  2  0
  3  4  2  0
  4 10  1  0
  4  5  1  0
 10 11  2  0
 10 15  1  0
 11 12  1  0
 12 13  2  0
 13 14  1  0
 14 15  2  0
  5  6  1  0
  5  9  1  0
  6  7  1  0
  7  8  1  0
  8  9  1  0
 18 19  1  0
 19 20  2  0
 19 23  1  0
 20 21  1  0
 21 24  1  0
 21 22  2  0
 24 25  2  0
 24 29  1  0
 25 26  1  0
 26 27  2  0
 27 28  1  0
 28 29  2  0
 22 23  1  0
M  CHG  1   2   1
M  END
>  <minimizedAffinity>  (37) 
-9.08448

$$$$
data/reference_output_2/data/smiles/90295.pdb
     RDKit          3D

 25 27  0  0  0  0  0  0  0  0999 V2000
   69.7500   43.1088   57.4672 C   0  0  0  0  0  0  0  0  0  0  0  0
   68.7300   43.2374   56.5461 C   0  0  0  0  0  0  0  0  0  0  0  0
   68.3768   44.4391   56.0365 N   0  0  0  0  0  0  0  0  0  0  0  0
   68.9662   45.5806   56.3691 N   0  0  0  0  0  0  0  0  0  0  0  0
   69.9660   45.4979   57.2641 C   0  0  0  0  0  0  0  0  0  0  0  0
   70.5597   46.5728   57.6113 O   0  0  0  0  0  0  0  0  0  0  0  0
   70.3709   44.2821   57.8216 C   0  0  0  0  0  0  0  0  0  0  0  0
   71.3157   41.3424   58.1612 C   0  0  0  0  0  0  0  0  0  0  0  0
   70.0950   41.7939   57.9873 C   0  0  0  0  0  0  0  0  0  0  0  0
   72.5284   39.8188   59.4895 O   0  0  0  0  0  0  0  0  0  0  0  0
   71.5899   39.9968   58.6942 C   0  0  0  0  0  0  0  0  0  0  0  0
   70.8461   38.8919   58.3533 O   0  0  0  0  0  0  0  0  0  0  0  0
   71.3003   37.5886   58.4005 C   0  0  0  0  0  0  0  0  0  0  0  0
   70.8261   36.7907   59.4182 C   0  0  0  0  0  0  0  0  0  0  0  0
   71.2382   35.4564   59.5367 C   0  0  0  0  0  0  0  0  0  0  0  0
   72.1251   34.9277   58.6310 C   0  0  0  0  0  0  0  0  0  0  0  0
   72.5896   35.7402   57.6193 C   0  0  0  0  0  0  0  0  0  0  0  0
   72.1860   37.0458   57.5043 C   0  0  0  0  0  0  0  0  0  0  0  0
   68.5541   46.8524   55.7931 C   0  0  0  0  0  0  0  0  0  0  0  0
   68.5851   46.8786   54.3266 C   0  0  0  0  0  0  0  0  0  0  0  0
   67.8499   45.9762   53.6030 C   0  0  0  0  0  0  0  0  0  0  0  0
   67.8675   45.9890   52.2027 C   0  0  0  0  0  0  0  0  0  0  0  0
   68.6362   46.9248   51.5450 C   0  0  0  0  0  0  0  0  0  0  0  0
   69.3907   47.8506   52.2715 C   0  0  0  0  0  0  0  0  0  0  0  0
   69.3490   47.8083   53.6719 C   0  0  0  0  0  0  0  0  0  0  0  0
 10 11  2  0
 11  8  1  0
 11 12  1  0
  8  9  2  0
  9  1  1  0
  1  2  1  0
  1  7  2  0
  2  3  2  0
  3  4  1  0
  4 19  1  0
  4  5  1  0
 19 20  1  0
 20 21  2  0
 20 25  1  0
 21 22  1  0
 22 23  2  0
 23 24  1  0
 24 25  2  0
  5  6  2  0
  5  7  1  0
 12 13  1  0
 13 14  2  0
 13 18  1  0
 14 15  1  0
 15 16  2  0
 16 17  1  0
 17 18  2  0
M  END
>  <minimizedAffinity>  (38) 
-9.33731

$$$$
data/reference_output_2/data/smiles/90432.pdb
     RDKit          3D

 31 34  0  0  0  0  0  0  0  0999 V2000
   70.8302   46.3298   57.1221 N   0  0  0  0  0  0  0  0  0  0  0  0
   70.5537   45.3619   58.1174 C   0  0  0  0  0  0  0  0  0  0  0  0
   69.7460   45.6859   59.0479 O   0  0  0  0  0  0  0  0  0  0  0  0
   68.2817   51.4477   57.6447 C   0  0  0  0  0  0  0  0  0  0  0  0
   68.9564   50.1130   57.4857 C   0  0  0  0  0  0  0  0  0  0  0  0
   70.0967   49.8065   58.1778 C   0  0  0  0  0  0  0  0  0  0  0  0
   70.6925   48.5731   58.0326 C   0  0  0  0  0  0  0  0  0  0  0  0
   70.1786   47.6104   57.2040 C   0  0  0  0  0  0  0  0  0  0  0  0
   69.0054   47.8956   56.4741 C   0  0  0  0  0  0  0  0  0  0  0  0
   68.4268   49.1524   56.6413 C   0  0  0  0  0  0  0  0  0  0  0  0
   68.5655   46.8795   55.5442 C   0  0  0  0  0  0  0  0  0  0  0  0
   68.1369   45.8054   56.1727 O   0  0  0  0  0  0  0  0  0  0  0  0
   68.4833   46.7672   54.1314 C   0  0  0  0  0  0  0  0  0  0  0  0
   67.7278   45.8626   53.4473 C   0  0  0  0  0  0  0  0  0  0  0  0
   67.7319   45.8600   52.0588 C   0  0  0  0  0  0  0  0  0  0  0  0
   68.4860   46.7539   51.3385 C   0  0  0  0  0  0  0  0  0  0  0  0
   69.2455   47.6611   52.0122 C   0  0  0  0  0  0  0  0  0  0  0  0
   69.2476   47.6712   53.3682 C   0  0  0  0  0  0  0  0  0  0  0  0
   71.1241   44.0320   58.1579 C   0  0  0  0  0  0  0  0  0  0  0  0
   72.3900   43.7426   57.7524 N   0  0  0  0  0  0  0  0  0  0  0  0
   72.6877   42.4548   57.9368 C   0  0  0  0  0  0  0  0  0  0  0  0
   71.5984   41.8995   58.4706 N   0  0  0  0  0  0  0  0  0  0  0  0
   70.6230   42.8478   58.6184 C   0  0  0  0  0  0  0  0  0  0  0  0
   69.3609   42.5415   59.2280 C   0  0  0  0  0  0  0  0  0  0  0  0
   68.3117   42.3748   58.4883 O   0  0  0  0  0  0  0  0  0  0  0  0
   69.2126   42.4136   60.6120 N   0  0  0  0  0  0  0  0  0  0  0  0
   70.3255   42.5730   61.5009 C   0  0  0  0  0  0  0  0  0  0  0  0
   69.9507   42.0842   62.8647 C   0  0  0  0  0  0  0  0  0  0  0  0
   68.8076   42.6394   63.3676 O   0  0  0  0  0  0  0  0  0  0  0  0
   67.8075   42.9179   62.4809 C   0  0  0  0  0  0  0  0  0  0  0  0
   67.9002   42.1175   61.2073 C   0  0  0  0  0  0  0  0  0  0  0  0
  4  5  1  0
  5  6  2  0
  5 10  1  0
  6  7  1  0
  7  8  2  0
  8  1  1  0
  8  9  1  0
  1  2  1  0
  2  3  2  0
  2 19  1  0
 19 20  1  0
 19 23  2  0
 20 21  1  0
 21 22  2  0
 22 23  1  0
 23 24  1  0
 24 25  2  0
 24 26  1  0
 26 27  1  0
 26 31  1  0
 27 28  1  0
 28 29  1  0
 29 30  1  0
 30 31  1  0
  9 11  1  0
  9 10  2  0
 11 12  2  0
 11 13  1  0
 13 14  2  0
 13 18  1  0
 14 15  1  0
 15 16  2  0
 16 17  1  0
 17 18  2  0
M  CHG  1  22   1
M  END
>  <minimizedAffinity>  (39) 
-8.77558

$$$$
data/reference_output_2/data/smiles/90436.pdb
     RDKit          3D

 23 26  0  0  0  0  0  0  0  0999 V2000
   68.1418   45.6057   54.9558 C   0  0  0  0  0  0  0  0  0  0  0  0
   68.4045   46.2237   56.1220 N   0  0  0  0  0  0  0  0  0  0  0  0
   68.9276   47.4560   56.1841 C   0  0  0  0  0  0  0  0  0  0  0  0
   69.2028   48.1044   57.3675 C   0  0  0  0  0  0  0  0  0  0  0  0
   69.7431   49.3807   57.4208 C   0  0  0  0  0  0  0  0  0  0  0  0
   70.0247   50.0469   56.2500 C   0  0  0  0  0  0  0  0  0  0  0  0
   69.7525   49.4043   55.0436 C   0  0  0  0  0  0  0  0  0  0  0  0
   69.2142   48.1352   55.0183 C   0  0  0  0  0  0  0  0  0  0  0  0
   68.9576   47.5309   53.8271 N   0  0  0  0  0  0  0  0  0  0  0  0
   69.1512   47.9889   52.5762 C   0  0  0  0  0  0  0  0  0  0  0  0
   68.7412   47.0242   51.6713 C   0  0  0  0  0  0  0  0  0  0  0  0
   68.2976   45.9763   52.4502 C   0  0  0  0  0  0  0  0  0  0  0  0
   68.4347   46.2965   53.8010 C   0  0  0  0  0  0  0  0  0  0  0  0
   67.5922   44.3070   54.8843 N   0  0  0  0  0  0  0  0  0  0  0  0
   66.1529   41.9336   55.1274 O   0  0  0  0  0  0  0  0  0  0  0  0
   67.0446   42.1595   55.9809 C   0  0  0  0  0  0  0  0  0  0  0  0
   67.7782   43.3462   55.8754 N   0  0  0  0  0  0  0  0  0  0  0  0
   67.3241   41.2171   57.0648 C   0  0  0  0  0  0  0  0  0  0  0  0
   66.9871   41.4633   58.3787 C   0  0  0  0  0  0  0  0  0  0  0  0
   67.2513   40.5743   59.4003 C   0  0  0  0  0  0  0  0  0  0  0  0
   67.8815   39.3823   59.1048 C   0  0  0  0  0  0  0  0  0  0  0  0
   68.2090   39.1571   57.7837 C   0  0  0  0  0  0  0  0  0  0  0  0
   67.9367   40.0497   56.8006 N   0  0  0  0  0  0  0  0  0  0  0  0
 15 16  2  0
 16 17  1  0
 16 18  1  0
 17 14  1  0
 14  1  1  0
  1  2  2  0
  1 13  1  0
  2  3  1  0
  3  4  2  0
  3  8  1  0
  4  5  1  0
  5  6  2  0
  6  7  1  0
  7  8  2  0
  8  9  1  0
  9 10  1  0
  9 13  1  0
 10 11  2  0
 11 12  1  0
 12 13  2  0
 18 19  2  0
 18 23  1  0
 19 20  1  0
 20 21  2  0
 21 22  1  0
 22 23  2  0
M  END
>  <minimizedAffinity>  (40) 
-8.72942

$$$$
data/reference_output_2/data/smiles/90460.pdb
     RDKit          3D

 24 26  0  0  0  0  0  0  0  0999 V2000
   69.7488   45.7862   57.4882 S   0  0  0  0  0  0  0  0  0  0  0  0
   69.4992   46.4376   58.8617 O   0  0  0  0  0  0  0  0  0  0  0  0
   71.0478   46.4373   57.0332 O   0  0  0  0  0  0  0  0  0  0  0  0
   70.0610   44.0948   57.7056 C   0  0  0  0  0  0  0  0  0  0  0  0
   71.2172   43.6712   58.3600 C   0  0  0  0  0  0  0  0  0  0  0  0
   71.5478   42.3533   58.5302 C   0  0  0  0  0  0  0  0  0  0  0  0
   70.6769   41.4190   58.0187 C   0  0  0  0  0  0  0  0  0  0  0  0
   69.5165   41.8016   57.3629 C   0  0  0  0  0  0  0  0  0  0  0  0
   68.6698   40.7864   56.8896 C   0  0  0  0  0  0  0  0  0  0  0  0
   67.5076   41.1558   56.2587 C   0  0  0  0  0  0  0  0  0  0  0  0
   67.2495   42.4891   56.1314 C   0  0  0  0  0  0  0  0  0  0  0  0
   68.0613   43.4468   56.5844 N   0  0  0  0  0  0  0  0  0  0  0  0
   69.2195   43.1287   57.2122 C   0  0  0  0  0  0  0  0  0  0  0  0
   68.5294   46.2161   56.3940 N   0  0  0  0  0  0  0  0  0  0  0  0
   69.2632   47.5617   52.9802 C   0  0  0  0  0  0  0  0  0  0  0  0
   69.2684   47.3781   54.3530 C   0  0  0  0  0  0  0  0  0  0  0  0
   68.5779   46.3853   54.9945 C   0  0  0  0  0  0  0  0  0  0  0  0
   67.8360   45.5348   54.1527 C   0  0  0  0  0  0  0  0  0  0  0  0
   67.8054   45.6865   52.7866 C   0  0  0  0  0  0  0  0  0  0  0  0
   68.5134   46.6942   52.1863 C   0  0  0  0  0  0  0  0  0  0  0  0
   68.5165   46.8901   50.8023 O   0  0  0  0  0  0  0  0  0  0  0  0
   71.1751   48.8826   52.7705 O   0  0  0  0  0  0  0  0  0  0  0  0
   70.0240   48.6407   52.3645 C   0  0  0  0  0  0  0  0  0  0  0  0
   69.4853   49.3898   51.3441 O   0  0  0  0  0  0  0  0  0  0  0  0
 22 23  2  0
 23 24  1  0
 23 15  1  0
 15 16  2  0
 15 20  1  0
 16 17  1  0
 17 14  1  0
 17 18  2  0
 14  1  1  0
  1  2  2  0
  1  3  2  0
  1  4  1  0
  4  5  2  0
  4 13  1  0
  5  6  1  0
  6  7  2  0
  7  8  1  0
  8  9  1  0
  8 13  2  0
  9 10  2  0
 10 11  1  0
 11 12  2  0
 12 13  1  0
 18 19  1  0
 19 20  2  0
 20 21  1  0
M  END
>  <minimizedAffinity>  (41) 
-8.75543

$$$$
data/reference_output_2/data/smiles/90497.pdb
     RDKit          3D

 21 22  0  0  0  0  0  0  0  0999 V2000
   70.2605   44.7022   57.5130 C   0  0  0  0  0  0  0  0  0  0  0  0
   71.3321   44.8301   58.3726 C   0  0  0  0  0  0  0  0  0  0  0  0
   71.7307   46.0697   58.8629 C   0  0  0  0  0  0  0  0  0  0  0  0
   71.0113   47.1881   58.4583 C   0  0  0  0  0  0  0  0  0  0  0  0
   69.9497   47.0417   57.6027 C   0  0  0  0  0  0  0  0  0  0  0  0
   69.5421   45.8070   57.1058 C   0  0  0  0  0  0  0  0  0  0  0  0
   69.0628   42.5430   57.8674 C   0  0  0  0  0  0  0  0  0  0  0  0
   68.6815   43.0024   58.9841 O   0  0  0  0  0  0  0  0  0  0  0  0
   69.8934   43.3928   57.0541 N   0  0  0  0  0  0  0  0  0  0  0  0
   68.7025   41.2035   57.3695 C   0  0  0  0  0  0  0  0  0  0  0  0
   66.9183   42.5329   56.1837 N   0  0  0  0  0  0  0  0  0  0  0  0
   67.6815   41.3592   56.2869 C   0  0  0  0  0  0  0  0  0  0  0  0
   67.5225   40.3866   55.4523 N   0  0  0  0  0  0  0  0  0  0  0  0
   66.5808   40.5321   54.4554 O   0  0  0  0  0  0  0  0  0  0  0  0
   68.4747   45.7847   56.2655 O   0  0  0  0  0  0  0  0  0  0  0  0
   68.4173   46.0710   54.9280 C   0  0  0  0  0  0  0  0  0  0  0  0
   67.7994   45.1629   54.0872 C   0  0  0  0  0  0  0  0  0  0  0  0
   67.7234   45.4192   52.7393 C   0  0  0  0  0  0  0  0  0  0  0  0
   68.2577   46.5770   52.2063 C   0  0  0  0  0  0  0  0  0  0  0  0
   68.8672   47.4615   53.0707 C   0  0  0  0  0  0  0  0  0  0  0  0
   68.9572   47.2322   54.4169 C   0  0  0  0  0  0  0  0  0  0  0  0
 11 12  1  0
 12 10  1  0
 12 13  2  0
 10  7  1  0
  7  8  2  0
  7  9  1  0
  9  1  1  0
  1  2  2  0
  1  6  1  0
  2  3  1  0
  3  4  2  0
  4  5  1  0
  5  6  2  0
  6 15  1  0
 15 16  1  0
 16 17  2  0
 16 21  1  0
 17 18  1  0
 18 19  2  0
 19 20  1  0
 20 21  2  0
 13 14  1  0
M  CHG  1  13   1
M  END
>  <minimizedAffinity>  (42) 
-8.50221

$$$$
data/reference_output_2/data/smiles/90696.pdb
     RDKit          3D

 28 30  0  0  0  0  0  0  0  0999 V2000
   70.7777   44.0460   58.2475 O   0  0  0  0  0  0  0  0  0  0  0  0
   69.7885   43.8604   57.5043 C   0  0  0  0  0  0  0  0  0  0  0  0
   69.2165   44.9894   56.8453 N   0  0  0  0  0  0  0  0  0  0  0  0
   69.2276   42.5433   57.3098 C   0  0  0  0  0  0  0  0  0  0  0  0
   68.1837   42.3951   56.3790 C   0  0  0  0  0  0  0  0  0  0  0  0
   67.5913   41.1893   56.1285 C   0  0  0  0  0  0  0  0  0  0  0  0
   66.5955   41.1024   55.2287 F   0  0  0  0  0  0  0  0  0  0  0  0
   68.0422   40.0687   56.8239 C   0  0  0  0  0  0  0  0  0  0  0  0
   69.0523   40.1447   57.7405 C   0  0  0  0  0  0  0  0  0  0  0  0
   69.6180   41.4110   57.9510 C   0  0  0  0  0  0  0  0  0  0  0  0
   69.5437   39.0039   58.4778 C   0  0  0  0  0  0  0  0  0  0  0  0
   68.8565   38.4043   59.4972 C   0  0  0  0  0  0  0  0  0  0  0  0
   69.3393   37.3122   60.1946 C   0  0  0  0  0  0  0  0  0  0  0  0
   70.5688   36.8064   59.8462 C   0  0  0  0  0  0  0  0  0  0  0  0
   71.2573   37.4097   58.8221 C   0  0  0  0  0  0  0  0  0  0  0  0
   70.7437   38.4790   58.1668 N   0  0  0  0  0  0  0  0  0  0  0  0
   69.7614   46.2670   57.0359 N   0  0  0  0  0  0  0  0  0  0  0  0
   68.8457   47.4543   56.2538 S   0  0  0  0  0  0  0  0  0  0  0  0
   69.4549   48.8152   56.5436 O   0  0  0  0  0  0  0  0  0  0  0  0
   67.4310   47.5146   56.8257 O   0  0  0  0  0  0  0  0  0  0  0  0
   68.7983   47.2386   54.5426 C   0  0  0  0  0  0  0  0  0  0  0  0
   69.4407   48.0995   53.7004 C   0  0  0  0  0  0  0  0  0  0  0  0
   69.3852   47.9609   52.3246 C   0  0  0  0  0  0  0  0  0  0  0  0
   68.6577   46.9229   51.8042 C   0  0  0  0  0  0  0  0  0  0  0  0
   68.0094   46.0544   52.6455 C   0  0  0  0  0  0  0  0  0  0  0  0
   67.2659   44.9945   52.1156 O   0  0  0  0  0  0  0  0  0  0  0  0
   68.0550   46.1781   54.0090 C   0  0  0  0  0  0  0  0  0  0  0  0
   67.4298   45.3435   54.8582 F   0  0  0  0  0  0  0  0  0  0  0  0
  1  2  2  0
  2  3  1  0
  2  4  1  0
  3 17  1  0
 17 18  1  0
 18 19  2  0
 18 20  2  0
 18 21  1  0
 21 22  2  0
 21 27  1  0
 22 23  1  0
 23 24  2  0
 24 25  1  0
 25 26  1  0
 25 27  2  0
 27 28  1  0
  4  5  2  0
  4 10  1  0
  5  6  1  0
  6  7  1  0
  6  8  2  0
  8  9  1  0
  9 11  1  0
  9 10  2  0
 11 12  2  0
 11 16  1  0
 12 13  1  0
 13 14  2  0
 14 15  1  0
 15 16  2  0
M  END
>  <minimizedAffinity>  (43) 
-9.70397

$$$$
data/reference_output_2/data/smiles/90754.pdb
     RDKit          3D

 28 31  0  0  0  0  0  0  0  0999 V2000
   68.9722   43.5095   57.3486 N   0  0  0  0  0  0  0  0  0  0  0  0
   70.1896   43.7633   57.7415 C   0  0  0  0  0  0  0  0  0  0  0  0
   71.2269   42.7510   58.0003 C   0  0  0  0  0  0  0  0  0  0  0  0
   72.5345   43.5161   57.8806 C   0  0  0  0  0  0  0  0  0  0  0  0
   72.1778   44.9456   58.0985 C   0  0  0  0  0  0  0  0  0  0  0  0
   72.9662   46.0449   58.3495 C   0  0  0  0  0  0  0  0  0  0  0  0
   72.4146   47.3105   58.5245 C   0  0  0  0  0  0  0  0  0  0  0  0
   71.0488   47.4165   58.4366 C   0  0  0  0  0  0  0  0  0  0  0  0
   70.2443   46.2963   58.1822 C   0  0  0  0  0  0  0  0  0  0  0  0
   70.8065   45.0563   58.0117 C   0  0  0  0  0  0  0  0  0  0  0  0
   68.6108   42.1706   57.1552 N   0  0  0  0  0  0  0  0  0  0  0  0
   66.8345   42.6713   55.7534 N   0  0  0  0  0  0  0  0  0  0  0  0
   67.6354   41.7553   56.2137 C   0  0  0  0  0  0  0  0  0  0  0  0
   67.4921   40.4291   55.7600 N   0  0  0  0  0  0  0  0  0  0  0  0
   70.4090   48.6625   58.6180 N   0  0  0  0  0  0  0  0  0  0  0  0
   69.3297   49.4406   57.5705 S   0  0  0  0  0  0  0  0  0  0  0  0
   69.5811   50.9432   57.5702 O   0  0  0  0  0  0  0  0  0  0  0  0
   67.9125   49.2558   58.0664 O   0  0  0  0  0  0  0  0  0  0  0  0
   69.3500   48.8848   55.9246 C   0  0  0  0  0  0  0  0  0  0  0  0
   70.0939   49.5180   54.9658 C   0  0  0  0  0  0  0  0  0  0  0  0
   70.0999   49.0708   53.6757 C   0  0  0  0  0  0  0  0  0  0  0  0
   69.3445   47.9682   53.3418 C   0  0  0  0  0  0  0  0  0  0  0  0
   69.3377   47.4950   52.0256 C   0  0  0  0  0  0  0  0  0  0  0  0
   68.5975   46.3981   51.6535 C   0  0  0  0  0  0  0  0  0  0  0  0
   67.8438   45.7507   52.6065 C   0  0  0  0  0  0  0  0  0  0  0  0
   67.8129   46.1785   53.9311 C   0  0  0  0  0  0  0  0  0  0  0  0
   68.5724   47.2868   54.2691 C   0  0  0  0  0  0  0  0  0  0  0  0
   68.6033   47.7839   55.5591 C   0  0  0  0  0  0  0  0  0  0  0  0
 12 13  2  0
 13 14  1  0
 13 11  1  0
 11  1  1  0
  1  2  2  0
  2  3  1  0
  2 10  1  0
  3  4  1  0
  4  5  1  0
  5  6  2  0
  5 10  1  0
  6  7  1  0
  7  8  2  0
  8 15  1  0
  8  9  1  0
 15 16  1  0
 16 17  2  0
 16 18  2  0
 16 19  1  0
 19 20  2  0
 19 28  1  0
 20 21  1  0
 21 22  2  0
 22 23  1  0
 22 27  1  0
 23 24  2  0
 24 25  1  0
 25 26  2  0
 26 27  1  0
 27 28  2  0
  9 10  2  0
M  CHG  1  12   1
M  END
>  <minimizedAffinity>  (44) 
-8.91960

$$$$
data/reference_output_2/data/smiles/90800.pdb
     RDKit          3D

 25 27  0  0  0  0  0  0  0  0999 V2000
   69.1996   43.7678   56.8838 N   0  0  0  0  0  0  0  0  0  0  0  0
   68.7411   42.5758   56.9352 C   0  0  0  0  0  0  0  0  0  0  0  0
   67.4943   42.0904   56.3831 C   0  0  0  0  0  0  0  0  0  0  0  0
   66.6591   42.7496   55.7071 O   0  0  0  0  0  0  0  0  0  0  0  0
   67.3994   40.7069   56.7552 N   0  0  0  0  0  0  0  0  0  0  0  0
   68.5191   40.3104   57.5043 C   0  0  0  0  0  0  0  0  0  0  0  0
   68.8449   39.0971   58.0648 C   0  0  0  0  0  0  0  0  0  0  0  0
   70.0467   38.9650   58.7789 C   0  0  0  0  0  0  0  0  0  0  0  0
   70.8729   40.0630   58.8997 C   0  0  0  0  0  0  0  0  0  0  0  0
   70.5310   41.2607   58.3375 C   0  0  0  0  0  0  0  0  0  0  0  0
   69.3296   41.4170   57.6185 C   0  0  0  0  0  0  0  0  0  0  0  0
   70.0459   46.4588   57.1063 O   0  0  0  0  0  0  0  0  0  0  0  0
   69.0401   46.1957   56.4070 C   0  0  0  0  0  0  0  0  0  0  0  0
   68.5957   44.8600   56.2851 N   0  0  0  0  0  0  0  0  0  0  0  0
   68.2758   47.2487   55.6905 C   0  0  0  0  0  0  0  0  0  0  0  0
   68.8950   47.5583   54.3725 C   0  0  0  0  0  0  0  0  0  0  0  0
   68.7122   46.8018   53.2469 C   0  0  0  0  0  0  0  0  0  0  0  0
   69.2933   47.1515   52.0472 C   0  0  0  0  0  0  0  0  0  0  0  0
   70.0589   48.2595   51.9699 C   0  0  0  0  0  0  0  0  0  0  0  0
   70.6285   48.5904   50.7486 O   0  0  0  0  0  0  0  0  0  0  0  0
   70.2614   49.0521   53.1041 C   0  0  0  0  0  0  0  0  0  0  0  0
   69.6964   48.7249   54.3035 C   0  0  0  0  0  0  0  0  0  0  0  0
   72.1314   39.8790   59.6107 C   0  0  0  0  0  0  0  0  0  0  0  0
   72.3055   40.4007   60.7721 O   0  0  0  0  0  0  0  0  0  0  0  0
   73.1895   39.1558   59.1061 O   0  0  0  0  0  0  0  0  0  0  0  0
 12 13  2  0
 13 15  1  0
 13 14  1  0
 15 16  1  0
 16 17  2  0
 16 22  1  0
 17 18  1  0
 18 19  2  0
 19 20  1  0
 19 21  1  0
 21 22  2  0
 14  1  1  0
  1  2  2  0
  2  3  1  0
  2 11  1  0
  3  4  2  0
  3  5  1  0
  5  6  1  0
  6  7  1  0
  6 11  2  0
  7  8  2  0
  8  9  1  0
  9 23  1  0
  9 10  2  0
 23 24  2  0
 23 25  1  0
 10 11  1  0
M  END
>  <minimizedAffinity>  (45) 
-8.64228

$$$$
data/reference_output_2/data/smiles/90852.pdb
     RDKit          3D

 27 30  0  0  0  0  0  0  0  0999 V2000
   69.3080   48.2735   57.0360 C   0  0  0  0  0  0  0  0  0  0  0  0
   68.5360   49.4114   57.2538 C   0  0  0  0  0  0  0  0  0  0  0  0
   68.9945   50.3271   58.1529 C   0  0  0  0  0  0  0  0  0  0  0  0
   70.2026   50.1556   58.8509 C   0  0  0  0  0  0  0  0  0  0  0  0
   70.9798   49.0438   58.6528 C   0  0  0  0  0  0  0  0  0  0  0  0
   70.4880   48.1250   57.7302 C   0  0  0  0  0  0  0  0  0  0  0  0
   69.4290   48.0200   52.4570 C   0  0  0  0  0  0  0  0  0  0  0  0
   68.8571   46.8785   51.9575 C   0  0  0  0  0  0  0  0  0  0  0  0
   68.3277   45.9626   52.8594 C   0  0  0  0  0  0  0  0  0  0  0  0
   68.3517   46.1492   54.2195 C   0  0  0  0  0  0  0  0  0  0  0  0
   67.9307   45.4601   55.2933 N   0  0  0  0  0  0  0  0  0  0  0  0
   68.2264   46.1395   56.4089 N   0  0  0  0  0  0  0  0  0  0  0  0
   68.8424   47.2802   56.0882 C   0  0  0  0  0  0  0  0  0  0  0  0
   68.9371   47.3163   54.7224 C   0  0  0  0  0  0  0  0  0  0  0  0
   69.4621   48.2232   53.8123 C   0  0  0  0  0  0  0  0  0  0  0  0
   69.7284   50.3783   51.6209 N   0  0  0  0  0  0  0  0  0  0  0  0
   69.9861   48.9875   51.5299 C   0  0  0  0  0  0  0  0  0  0  0  0
   70.7415   48.5561   50.5922 O   0  0  0  0  0  0  0  0  0  0  0  0
   72.2014   48.7617   59.2888 N   0  0  0  0  0  0  0  0  0  0  0  0
   72.4506   47.7859   60.2726 C   0  0  0  0  0  0  0  0  0  0  0  0
   71.4940   47.0628   60.6523 O   0  0  0  0  0  0  0  0  0  0  0  0
   73.7920   47.5836   60.8712 C   0  0  0  0  0  0  0  0  0  0  0  0
   74.2819   48.5335   61.7538 C   0  0  0  0  0  0  0  0  0  0  0  0
   75.5275   48.3735   62.3275 C   0  0  0  0  0  0  0  0  0  0  0  0
   76.3220   47.2762   62.0476 C   0  0  0  0  0  0  0  0  0  0  0  0
   75.8247   46.3720   61.1912 N   0  0  0  0  0  0  0  0  0  0  0  0
   74.5950   46.5094   60.6115 C   0  0  0  0  0  0  0  0  0  0  0  0
 16 17  1  0
 17 18  2  0
 17  7  1  0
  7  8  2  0
  7 15  1  0
  8  9  1  0
  9 10  2  0
 10 11  1  0
 10 14  1  0
 11 12  1  0
 12 13  2  0
 13  1  1  0
 13 14  1  0
  1  2  2  0
  1  6  1  0
  2  3  1  0
  3  4  2  0
  4  5  1  0
  5 19  1  0
  5  6  2  0
 19 20  1  0
 20 21  2  0
 20 22  1  0
 22 23  2  0
 22 27  1  0
 23 24  1  0
 24 25  2  0
 25 26  1  0
 26 27  2  0
 14 15  2  0
M  END
>  <minimizedAffinity>  (46) 
-8.95807

$$$$
data/reference_output_2/data/smiles/90951.pdb
     RDKit          3D

 23 25  0  0  0  0  0  0  0  0999 V2000
   70.2197   44.4569   57.6949 C   0  0  0  0  0  0  0  0  0  0  0  0
   71.1220   45.3807   58.1929 C   0  0  0  0  0  0  0  0  0  0  0  0
   70.6575   46.6154   57.8038 C   0  0  0  0  0  0  0  0  0  0  0  0
   69.5038   46.4206   57.0891 C   0  0  0  0  0  0  0  0  0  0  0  0
   69.2942   45.1278   57.0573 O   0  0  0  0  0  0  0  0  0  0  0  0
   70.2921   43.0052   57.8548 C   0  0  0  0  0  0  0  0  0  0  0  0
   71.3001   42.3875   57.4040 O   0  0  0  0  0  0  0  0  0  0  0  0
   69.2293   42.2397   58.5255 C   0  0  0  0  0  0  0  0  0  0  0  0
   69.3304   39.9094   58.0614 O   0  0  0  0  0  0  0  0  0  0  0  0
   68.8481   41.0520   57.7412 C   0  0  0  0  0  0  0  0  0  0  0  0
   67.9394   41.1435   56.6167 C   0  0  0  0  0  0  0  0  0  0  0  0
   67.1677   42.2278   56.3375 N   0  0  0  0  0  0  0  0  0  0  0  0
   66.4676   41.9524   55.2446 C   0  0  0  0  0  0  0  0  0  0  0  0
   66.7755   40.7267   54.8284 N   0  0  0  0  0  0  0  0  0  0  0  0
   67.6868   40.2240   55.6756 N   0  0  0  0  0  0  0  0  0  0  0  0
   68.6585   47.4956   56.4722 C   0  0  0  0  0  0  0  0  0  0  0  0
   68.6338   47.2798   55.0025 C   0  0  0  0  0  0  0  0  0  0  0  0
   67.9091   46.2165   54.4797 C   0  0  0  0  0  0  0  0  0  0  0  0
   67.8561   45.9773   53.1271 C   0  0  0  0  0  0  0  0  0  0  0  0
   68.5446   46.8281   52.2954 C   0  0  0  0  0  0  0  0  0  0  0  0
   68.5107   46.6184   50.9531 F   0  0  0  0  0  0  0  0  0  0  0  0
   69.2757   47.8966   52.7728 C   0  0  0  0  0  0  0  0  0  0  0  0
   69.3120   48.1144   54.1455 C   0  0  0  0  0  0  0  0  0  0  0  0
  9 10  2  0
 10  8  1  0
 10 11  1  0
  8  6  1  0
  6  7  2  0
  6  1  1  0
  1  2  2  0
  1  5  1  0
  2  3  1  0
  3  4  2  0
  4 16  1  0
  4  5  1  0
 16 17  1  0
 17 18  2  0
 17 23  1  0
 18 19  1  0
 19 20  2  0
 20 21  1  0
 20 22  1  0
 22 23  2  0
 11 12  1  0
 11 15  2  0
 12 13  2  0
 13 14  1  0
 14 15  1  0
M  END
>  <minimizedAffinity>  (47) 
-8.84337

$$$$
data/reference_output_2/data/smiles/91009.pdb
     RDKit          3D

 30 32  0  0  0  0  0  0  0  0999 V2000
   69.7221   43.1815   56.9706 O   0  0  0  0  0  0  0  0  0  0  0  0
   68.6012   42.6991   56.6730 C   0  0  0  0  0  0  0  0  0  0  0  0
   67.7303   43.6595   56.0220 N   0  0  0  0  0  0  0  0  0  0  0  0
   68.1775   44.9432   55.7975 N   0  0  0  0  0  0  0  0  0  0  0  0
   68.1750   45.6074   54.5356 C   0  0  0  0  0  0  0  0  0  0  0  0
   67.7201   44.9376   53.5660 O   0  0  0  0  0  0  0  0  0  0  0  0
   68.6628   46.9690   54.3684 C   0  0  0  0  0  0  0  0  0  0  0  0
   68.8750   47.7386   55.4891 C   0  0  0  0  0  0  0  0  0  0  0  0
   69.3364   49.0368   55.4050 C   0  0  0  0  0  0  0  0  0  0  0  0
   69.5908   49.5766   54.1590 C   0  0  0  0  0  0  0  0  0  0  0  0
   69.3719   48.7897   53.0444 C   0  0  0  0  0  0  0  0  0  0  0  0
   68.9185   47.5208   53.1830 N   0  0  0  0  0  0  0  0  0  0  0  0
   70.0955   50.9757   53.9663 C   0  0  0  0  0  0  0  0  0  0  0  0
   71.4441   50.9972   54.3108 F   0  0  0  0  0  0  0  0  0  0  0  0
   69.4760   51.8492   54.8610 F   0  0  0  0  0  0  0  0  0  0  0  0
   69.9450   51.3758   52.6596 F   0  0  0  0  0  0  0  0  0  0  0  0
   68.1332   41.3307   56.9145 C   0  0  0  0  0  0  0  0  0  0  0  0
   68.3232   40.8061   58.2713 C   0  0  0  0  0  0  0  0  0  0  0  0
   69.2867   39.7896   58.5186 N   0  0  0  0  0  0  0  0  0  0  0  0
   68.8852   39.2035   59.8354 C   0  0  0  0  0  0  0  0  0  0  0  0
   69.4821   37.8067   59.9329 C   0  0  0  0  0  0  0  0  0  0  0  0
   70.8321   37.9462   59.3567 N   0  0  0  0  0  0  0  0  0  0  0  0
   71.4242   39.2474   59.5315 C   0  0  0  0  0  0  0  0  0  0  0  0
   70.6250   40.2655   58.6898 C   0  0  0  0  0  0  0  0  0  0  0  0
   71.4621   36.8793   58.7046 C   0  0  0  0  0  0  0  0  0  0  0  0
   72.1718   37.0397   57.5358 C   0  0  0  0  0  0  0  0  0  0  0  0
   72.7943   35.9924   56.8970 C   0  0  0  0  0  0  0  0  0  0  0  0
   72.7119   34.7383   57.4330 C   0  0  0  0  0  0  0  0  0  0  0  0
   72.0117   34.5286   58.6032 C   0  0  0  0  0  0  0  0  0  0  0  0
   71.4001   35.6051   59.2153 C   0  0  0  0  0  0  0  0  0  0  0  0
  1  2  2  0
  2 17  1  0
  2  3  1  0
 17 18  1  0
 18 19  1  0
 19 20  1  0
 19 24  1  0
 20 21  1  0
 21 22  1  0
 22 25  1  0
 22 23  1  0
 25 26  2  0
 25 30  1  0
 26 27  1  0
 27 28  2  0
 28 29  1  0
 29 30  2  0
 23 24  1  0
  3  4  1  0
  4  5  1  0
  5  6  2  0
  5  7  1  0
  7  8  2  0
  7 12  1  0
  8  9  1  0
  9 10  2  0
 10 13  1  0
 10 11  1  0
 13 14  1  0
 13 15  1  0
 13 16  1  0
 11 12  2  0
M  CHG  1  19   1
M  END
>  <minimizedAffinity>  (48) 
-8.53769

$$$$
data/reference_output_2/data/smiles/91191.pdb
     RDKit          3D

 27 30  0  0  0  0  0  0  0  0999 V2000
   70.7132   37.9395   59.0316 C   0  0  0  0  0  0  0  0  0  0  0  0
   69.8705   37.7088   60.1013 C   0  0  0  0  0  0  0  0  0  0  0  0
   69.7460   36.4715   60.6864 C   0  0  0  0  0  0  0  0  0  0  0  0
   68.8839   36.2908   61.7631 C   0  0  0  0  0  0  0  0  0  0  0  0
   68.7606   35.0686   62.3437 C   0  0  0  0  0  0  0  0  0  0  0  0
   69.4979   34.0029   61.8564 C   0  0  0  0  0  0  0  0  0  0  0  0
   70.3637   34.1434   60.7907 C   0  0  0  0  0  0  0  0  0  0  0  0
   70.4768   35.3899   60.2140 C   0  0  0  0  0  0  0  0  0  0  0  0
   71.3304   35.5761   59.1435 C   0  0  0  0  0  0  0  0  0  0  0  0
   72.0482   34.5207   58.6388 C   0  0  0  0  0  0  0  0  0  0  0  0
   72.8728   34.7857   57.5332 C   0  0  0  0  0  0  0  0  0  0  0  0
   72.9734   36.0233   56.9699 C   0  0  0  0  0  0  0  0  0  0  0  0
   72.2400   37.0764   57.4949 C   0  0  0  0  0  0  0  0  0  0  0  0
   71.4293   36.8524   58.5726 C   0  0  0  0  0  0  0  0  0  0  0  0
   70.8266   39.3188   58.5552 C   0  0  0  0  0  0  0  0  0  0  0  0
   69.6032   40.0945   58.9590 C   0  0  0  0  0  0  0  0  0  0  0  0
   69.1701   42.3478   58.0280 C   0  0  0  0  0  0  0  0  0  0  0  0
   68.5136   43.1169   57.0928 N   0  0  0  0  0  0  0  0  0  0  0  0
   67.7202   42.5854   56.1606 C   0  0  0  0  0  0  0  0  0  0  0  0
   67.1384   43.3197   55.3215 O   0  0  0  0  0  0  0  0  0  0  0  0
   67.5495   41.2408   56.1253 N   0  0  0  0  0  0  0  0  0  0  0  0
   68.1594   40.4499   57.0048 C   0  0  0  0  0  0  0  0  0  0  0  0
   68.0161   39.1830   56.9951 O   0  0  0  0  0  0  0  0  0  0  0  0
   69.0037   40.9933   58.0020 C   0  0  0  0  0  0  0  0  0  0  0  0
   69.4832   43.7629   59.8496 O   0  0  0  0  0  0  0  0  0  0  0  0
   70.0344   42.9849   58.9931 C   0  0  0  0  0  0  0  0  0  0  0  0
   71.3882   42.8812   59.1325 O   0  0  0  0  0  0  0  0  0  0  0  0
 25 26  2  0
 26 27  1  0
 26 17  1  0
 17 18  1  0
 17 24  2  0
 18 19  1  0
 19 20  2  0
 19 21  1  0
 21 22  1  0
 22 23  2  0
 22 24  1  0
 24 16  1  0
 16 15  1  0
 15  1  1  0
  1  2  2  0
  1 14  1  0
  2  3  1  0
  3  4  2  0
  3  8  1  0
  4  5  1  0
  5  6  2  0
  6  7  1  0
  7  8  2  0
  8  9  1  0
  9 10  1  0
  9 14  2  0
 10 11  2  0
 11 12  1  0
 12 13  2  0
 13 14  1  0
M  END
>  <minimizedAffinity>  (49) 
-8.66128

$$$$
data/reference_output_2/data/smiles/91261.pdb
     RDKit          3D

 30 33  0  0  0  0  0  0  0  0999 V2000
   70.7255   44.4589   57.9239 C   0  0  0  0  0  0  0  0  0  0  0  0
   71.6610   45.1588   58.6981 C   0  0  0  0  0  0  0  0  0  0  0  0
   71.6079   46.5337   58.7830 C   0  0  0  0  0  0  0  0  0  0  0  0
   70.6233   47.1820   58.0915 C   0  0  0  0  0  0  0  0  0  0  0  0
   69.6743   46.5034   57.3097 C   0  0  0  0  0  0  0  0  0  0  0  0
   69.7495   45.1487   57.2446 C   0  0  0  0  0  0  0  0  0  0  0  0
   71.4860   42.5114   56.8814 O   0  0  0  0  0  0  0  0  0  0  0  0
   70.8818   43.0055   57.8983 C   0  0  0  0  0  0  0  0  0  0  0  0
   70.4183   42.1282   58.9056 N   0  0  0  0  0  0  0  0  0  0  0  0
   69.7397   42.6206   60.0599 C   0  0  0  0  0  0  0  0  0  0  0  0
   68.2959   42.2520   60.1413 C   0  0  0  0  0  0  0  0  0  0  0  0
   67.6634   41.7559   58.8997 C   0  0  0  0  0  0  0  0  0  0  0  0
   68.4257   41.0416   57.9782 N   0  0  1  0  0  0  0  0  0  0  0  0
   69.3491   40.0783   58.3952 C   0  0  0  0  0  0  0  0  0  0  0  0
   70.6914   40.7286   58.6454 C   0  0  0  0  0  0  0  0  0  0  0  0
   68.1286   41.1775   56.6020 C   0  0  0  0  0  0  0  0  0  0  0  0
   66.9772   42.1471   56.3463 C   0  0  0  0  0  0  0  0  0  0  0  0
   67.4376   43.3018   55.6887 O   0  0  0  0  0  0  0  0  0  0  0  0
   68.6807   47.2832   56.5818 C   0  0  0  0  0  0  0  0  0  0  0  0
   69.1737   47.6635   55.2654 C   0  0  0  0  0  0  0  0  0  0  0  0
   70.1000   48.6717   55.2038 N   0  0  0  0  0  0  0  0  0  0  0  0
   70.6006   49.1317   54.0883 N   0  0  0  0  0  0  0  0  0  0  0  0
   70.2429   48.6512   52.8973 C   0  0  0  0  0  0  0  0  0  0  0  0
   70.7117   49.0823   51.8241 O   0  0  0  0  0  0  0  0  0  0  0  0
   69.3039   47.6201   52.8447 C   0  0  0  0  0  0  0  0  0  0  0  0
   68.9064   47.0777   51.6487 C   0  0  0  0  0  0  0  0  0  0  0  0
   67.9968   46.0612   51.6167 C   0  0  0  0  0  0  0  0  0  0  0  0
   67.4801   45.5855   52.8207 C   0  0  0  0  0  0  0  0  0  0  0  0
   67.8935   46.1457   54.0078 C   0  0  0  0  0  0  0  0  0  0  0  0
   68.8045   47.1665   54.0489 C   0  0  0  0  0  0  0  0  0  0  0  0
  7  8  2  0
  8  1  1  0
  8  9  1  0
  1  2  2  0
  1  6  1  0
  2  3  1  0
  3  4  2  0
  4  5  1  0
  5 19  1  0
  5  6  2  0
 19 20  1  0
 20 21  2  0
 20 30  1  0
 21 22  1  0
 22 23  1  0
 23 24  2  0
 23 25  1  0
 25 26  1  0
 25 30  2  0
 26 27  2  0
 27 28  1  0
 28 29  2  0
 29 30  1  0
  9 10  1  0
  9 15  1  0
 10 11  1  0
 11 12  1  0
 12 13  1  0
 13 16  1  6
 13 14  1  0
 16 17  1  0
 17 18  1  0
 14 15  1  0
M  CHG  1  13   1
M  END
>  <minimizedAffinity>  (50) 
-8.78286

$$$$
data/reference_output_2/data/smiles/91395.pdb
     RDKit          3D

 29 32  0  0  0  0  0  0  0  0999 V2000
   70.1660   42.0825   58.6358 N   0  0  0  0  0  0  0  0  0  0  0  0
   70.1211   42.4710   60.0413 C   0  0  0  0  0  0  0  0  0  0  0  0
   71.3069   43.3686   60.3012 C   0  0  0  0  0  0  0  0  0  0  0  0
   71.4241   44.5207   59.3525 C   0  0  0  0  0  0  0  0  0  0  0  0
   70.8284   44.3181   58.0157 C   0  0  1  0  0  0  0  0  0  0  0  0
   69.7884   43.2704   57.8946 C   0  0  0  0  0  0  0  0  0  0  0  0
   68.9947   40.8372   58.4262 S   0  0  0  0  0  0  0  0  0  0  0  0
   67.8795   41.0195   59.4230 O   0  0  0  0  0  0  0  0  0  0  0  0
   68.4546   40.8992   57.0270 O   0  0  0  0  0  0  0  0  0  0  0  0
   71.2152   34.4221   60.1924 C   0  0  0  0  0  0  0  0  0  0  0  0
   71.4986   35.5545   59.2997 N   0  0  0  0  0  0  0  0  0  0  0  0
   72.4988   35.6164   58.4024 C   0  0  0  0  0  0  0  0  0  0  0  0
   72.3975   36.8536   57.7800 C   0  0  0  0  0  0  0  0  0  0  0  0
   71.3127   37.5523   58.3124 C   0  0  0  0  0  0  0  0  0  0  0  0
   70.7974   38.8003   58.0400 C   0  0  0  0  0  0  0  0  0  0  0  0
   69.6840   39.2401   58.7453 C   0  0  0  0  0  0  0  0  0  0  0  0
   69.1344   38.4088   59.6953 C   0  0  0  0  0  0  0  0  0  0  0  0
   69.6680   37.1609   59.9531 C   0  0  0  0  0  0  0  0  0  0  0  0
   70.7804   36.7017   59.2588 C   0  0  0  0  0  0  0  0  0  0  0  0
   70.2745   45.6424   57.5434 C   0  0  0  0  0  0  0  0  0  0  0  0
   70.7168   46.7301   57.9853 O   0  0  0  0  0  0  0  0  0  0  0  0
   69.2301   45.6606   56.5805 N   0  0  0  0  0  0  0  0  0  0  0  0
   68.6135   46.8547   56.0414 C   0  0  0  0  0  0  0  0  0  0  0  0
   68.6226   46.8483   54.5729 C   0  0  0  0  0  0  0  0  0  0  0  0
   67.9548   45.8296   53.8935 C   0  0  0  0  0  0  0  0  0  0  0  0
   67.9343   45.8024   52.5213 C   0  0  0  0  0  0  0  0  0  0  0  0
   68.5960   46.8172   51.8340 C   0  0  0  0  0  0  0  0  0  0  0  0
   69.2573   47.8278   52.4729 C   0  0  0  0  0  0  0  0  0  0  0  0
   69.2641   47.8335   53.8703 C   0  0  0  0  0  0  0  0  0  0  0  0
 10 11  1  0
 11 12  1  0
 11 19  1  0
 12 13  2  0
 13 14  1  0
 14 15  1  0
 14 19  2  0
 15 16  2  0
 16  7  1  0
 16 17  1  0
  7  8  2  0
  7  9  2  0
  7  1  1  0
  1  2  1  0
  1  6  1  0
  2  3  1  0
  3  4  1  0
  4  5  1  0
  5 20  1  1
  5  6  1  0
 20 21  2  0
 20 22  1  0
 22 23  1  0
 23 24  1  0
 24 25  2  0
 24 29  1  0
 25 26  1  0
 26 27  2  0
 27 28  1  0
 28 29  2  0
 17 18  2  0
 18 19  1  0
M  END
>  <minimizedAffinity>  (51) 
-8.51428

$$$$
data/reference_output_2/data/smiles/91397.pdb
     RDKit          3D

 24 27  0  0  0  0  0  0  0  0999 V2000
   69.0891   45.8979   55.9567 C   0  0  0  0  0  0  0  0  0  0  0  0
   69.6966   46.6583   56.7524 O   0  0  0  0  0  0  0  0  0  0  0  0
   68.6197   46.4064   54.7408 N   0  0  0  0  0  0  0  0  0  0  0  0
   67.9369   45.6048   53.7850 C   0  0  0  0  0  0  0  0  0  0  0  0
   68.0305   46.0646   52.3519 C   0  0  0  0  0  0  0  0  0  0  0  0
   69.0675   47.0871   52.1130 C   0  0  0  0  0  0  0  0  0  0  0  0
   69.8093   47.4018   51.0544 N   0  0  0  0  0  0  0  0  0  0  0  0
   70.6397   48.3922   51.3564 N   0  0  0  0  0  0  0  0  0  0  0  0
   70.4728   48.7655   52.6215 C   0  0  0  0  0  0  0  0  0  0  0  0
   69.4722   47.9425   53.1200 C   0  0  0  0  0  0  0  0  0  0  0  0
   68.8105   47.8347   54.4038 C   0  0  0  0  0  0  0  0  0  0  0  0
   67.2648   41.3050   56.5198 C   0  0  0  0  0  0  0  0  0  0  0  0
   68.0993   42.4946   56.5999 N   0  0  0  0  0  0  0  0  0  0  0  0
   69.2438   42.4965   57.3292 C   0  0  0  0  0  0  0  0  0  0  0  0
   69.7481   43.7795   57.1600 C   0  0  0  0  0  0  0  0  0  0  0  0
   68.8995   44.5275   56.3364 C   0  0  0  0  0  0  0  0  0  0  0  0
   67.9036   43.6638   56.0308 N   0  0  0  0  0  0  0  0  0  0  0  0
   71.1838   49.7513   53.3660 N   0  0  0  0  0  0  0  0  0  0  0  0
   70.4897   50.6899   54.1619 C   0  0  0  0  0  0  0  0  0  0  0  0
   70.7498   50.7461   55.5242 C   0  0  0  0  0  0  0  0  0  0  0  0
   70.0709   51.6319   56.3607 C   0  0  0  0  0  0  0  0  0  0  0  0
   69.1198   52.4750   55.8331 C   0  0  0  0  0  0  0  0  0  0  0  0
   68.8663   52.4191   54.4961 C   0  0  0  0  0  0  0  0  0  0  0  0
   69.5312   51.5457   53.6524 C   0  0  0  0  0  0  0  0  0  0  0  0
 12 13  1  0
 13 14  1  0
 13 17  1  0
 14 15  2  0
 15 16  1  0
 16  1  1  0
 16 17  2  0
  1  2  2  0
  1  3  1  0
  3  4  1  0
  3 11  1  0
  4  5  1  0
  5  6  1  0
  6  7  1  0
  6 10  2  0
  7  8  1  0
  8  9  2  0
  9 18  1  0
  9 10  1  0
 18 19  1  0
 19 20  2  0
 19 24  1  0
 20 21  1  0
 21 22  2  0
 22 23  1  0
 23 24  2  0
 10 11  1  0
M  END
>  <minimizedAffinity>  (52) 
-9.05348

$$$$
data/reference_output_2/data/smiles/91521.pdb
     RDKit          3D

 23 25  0  0  0  0  0  0  0  0999 V2000
   68.2764   45.9982   56.1179 O   0  0  0  0  0  0  0  0  0  0  0  0
   68.1350   45.2885   55.0683 C   0  0  0  0  0  0  0  0  0  0  0  0
   67.8677   43.9172   55.2841 N   0  0  0  0  0  0  0  0  0  0  0  0
   68.2518   45.9033   53.7453 C   0  0  0  0  0  0  0  0  0  0  0  0
   67.5301   45.4587   52.6865 C   0  0  0  0  0  0  0  0  0  0  0  0
   67.6690   46.0716   51.4351 C   0  0  0  0  0  0  0  0  0  0  0  0
   68.5344   47.1247   51.2742 C   0  0  0  0  0  0  0  0  0  0  0  0
   69.2929   47.6069   52.3475 C   0  0  0  0  0  0  0  0  0  0  0  0
   69.1122   46.9667   53.5374 C   0  0  0  0  0  0  0  0  0  0  0  0
   70.1743   48.6906   52.1503 N   0  0  0  0  0  0  0  0  0  0  0  0
   70.0460   49.4176   51.1636 O   0  0  0  0  0  0  0  0  0  0  0  0
   71.1636   48.9289   53.0543 O   0  0  0  0  0  0  0  0  0  0  0  0
   67.7601   43.3494   56.5610 N   0  0  0  0  0  0  0  0  0  0  0  0
   67.5243   42.0843   56.6295 C   0  0  0  0  0  0  0  0  0  0  0  0
   67.3902   41.3718   57.8918 C   0  0  0  0  0  0  0  0  0  0  0  0
   66.4598   41.6183   58.8707 C   0  0  0  0  0  0  0  0  0  0  0  0
   66.6633   40.7496   59.8762 N   0  0  0  0  0  0  0  0  0  0  0  0
   67.7057   39.9422   59.5759 C   0  0  0  0  0  0  0  0  0  0  0  0
   68.2898   38.8935   60.2989 C   0  0  0  0  0  0  0  0  0  0  0  0
   69.3622   38.2177   59.7586 C   0  0  0  0  0  0  0  0  0  0  0  0
   69.8171   38.6027   58.5220 C   0  0  0  0  0  0  0  0  0  0  0  0
   69.2393   39.6337   57.8143 C   0  0  0  0  0  0  0  0  0  0  0  0
   68.1625   40.3266   58.3378 C   0  0  0  0  0  0  0  0  0  0  0  0
  1  2  2  0
  2  3  1  0
  2  4  1  0
  3 13  1  0
 13 14  2  0
 14 15  1  0
 15 16  2  0
 15 23  1  0
 16 17  1  0
 17 18  1  0
 18 19  1  0
 18 23  2  0
 19 20  2  0
 20 21  1  0
 21 22  2  0
 22 23  1  0
  4  5  2  0
  4  9  1  0
  5  6  1  0
  6  7  2  0
  7  8  1  0
  8 10  1  0
  8  9  2  0
 10 11  2  0
 10 12  1  0
M  CHG  2  10   1  12  -1
M  END
>  <minimizedAffinity>  (53) 
-8.64702

$$$$
data/reference_output_2/data/smiles/91808.pdb
     RDKit          3D

 25 27  0  0  0  0  0  0  0  0999 V2000
   71.8913   50.0213   53.9581 O   0  0  0  0  0  0  0  0  0  0  0  0
   70.6146   50.0870   53.9289 C   0  0  0  0  0  0  0  0  0  0  0  0
   70.0852   51.1958   54.6162 N   0  0  0  0  0  0  0  0  0  0  0  0
   69.8718   49.0560   53.2207 C   0  0  0  0  0  0  0  0  0  0  0  0
   69.3334   47.9811   53.9527 C   0  0  0  0  0  0  0  0  0  0  0  0
   68.6182   46.9660   53.3721 C   0  0  0  0  0  0  0  0  0  0  0  0
   68.0884   45.9100   54.0898 C   0  0  0  0  0  0  0  0  0  0  0  0
   67.3729   44.8986   53.4868 C   0  0  0  0  0  0  0  0  0  0  0  0
   67.1884   44.9557   52.1251 C   0  0  0  0  0  0  0  0  0  0  0  0
   66.4742   43.9653   51.4536 O   0  0  0  0  0  0  0  0  0  0  0  0
   67.7122   46.0086   51.3861 C   0  0  0  0  0  0  0  0  0  0  0  0
   68.4376   47.0323   52.0074 C   0  0  0  0  0  0  0  0  0  0  0  0
   68.9323   48.0249   51.3137 O   0  0  0  0  0  0  0  0  0  0  0  0
   69.6320   49.0183   51.8795 C   0  0  0  0  0  0  0  0  0  0  0  0
   70.0551   49.9132   51.1164 O   0  0  0  0  0  0  0  0  0  0  0  0
   70.7739   52.2391   55.2722 C   0  0  0  0  0  0  0  0  0  0  0  0
   70.9894   52.3384   56.6971 C   0  0  0  0  0  0  0  0  0  0  0  0
   70.5575   51.5218   57.7970 C   0  0  0  0  0  0  0  0  0  0  0  0
   69.4034   50.6283   57.7260 C   0  0  0  0  0  0  0  0  0  0  0  0
   68.0886   51.0088   57.7889 C   0  0  0  0  0  0  0  0  0  0  0  0
   67.0068   50.1721   57.6956 C   0  0  0  0  0  0  0  0  0  0  0  0
   67.2525   48.8243   57.5238 C   0  0  0  0  0  0  0  0  0  0  0  0
   68.5632   48.3721   57.4529 C   0  0  0  0  0  0  0  0  0  0  0  0
   68.8087   47.0127   57.2811 O   0  0  0  0  0  0  0  0  0  0  0  0
   69.6069   49.2409   57.5502 C   0  0  0  0  0  0  0  0  0  0  0  0
  1  2  2  0
  2  3  1  0
  2  4  1  0
  3 16  1  0
 16 17  1  0
 17 18  1  0
 18 19  1  0
 19 20  2  0
 19 25  1  0
 20 21  1  0
 21 22  2  0
 22 23  1  0
 23 24  1  0
 23 25  2  0
  4  5  2  0
  4 14  1  0
  5  6  1  0
  6  7  2  0
  6 12  1  0
  7  8  1  0
  8  9  2  0
  9 10  1  0
  9 11  1  0
 11 12  2  0
 12 13  1  0
 13 14  1  0
 14 15  2  0
M  END
>  <minimizedAffinity>  (54) 
-8.79047

$$$$
data/reference_output_2/data/smiles/91917.pdb
     RDKit          3D

 26 29  0  0  0  0  0  0  0  0999 V2000
   69.5592   43.6844   57.8710 O   0  0  0  0  0  0  0  0  0  0  0  0
   68.8703   42.8603   57.2387 C   0  0  0  0  0  0  0  0  0  0  0  0
   68.9370   41.4458   57.5749 C   0  0  0  0  0  0  0  0  0  0  0  0
   69.6137   40.7068   58.5391 C   0  0  0  0  0  0  0  0  0  0  0  0
   69.2604   39.3537   58.4175 C   0  0  0  0  0  0  0  0  0  0  0  0
   68.4033   39.3347   57.4041 N   0  0  0  0  0  0  0  0  0  0  0  0
   68.2045   40.5732   56.8948 N   0  0  0  0  0  0  0  0  0  0  0  0
   67.3855   40.9951   55.7816 C   0  0  0  0  0  0  0  0  0  0  0  0
   66.9506   42.4053   55.8562 C   0  0  0  0  0  0  0  0  0  0  0  0
   68.0204   43.3204   56.1864 N   0  0  0  0  0  0  0  0  0  0  0  0
   68.1404   44.5260   55.4958 C   0  0  0  0  0  0  0  0  0  0  0  0
   67.7601   44.6401   54.1590 C   0  0  0  0  0  0  0  0  0  0  0  0
   67.8894   45.8553   53.4884 C   0  0  0  0  0  0  0  0  0  0  0  0
   68.3934   46.9579   54.1379 C   0  0  0  0  0  0  0  0  0  0  0  0
   68.5197   48.1402   53.4854 F   0  0  0  0  0  0  0  0  0  0  0  0
   68.7617   46.8129   55.4621 C   0  0  0  0  0  0  0  0  0  0  0  0
   68.6256   45.6371   56.0773 N   0  0  0  0  0  0  0  0  0  0  0  0
   69.7595   38.2469   59.2864 C   0  0  0  0  0  0  0  0  0  0  0  0
   71.0311   37.8415   58.9958 O   0  0  0  0  0  0  0  0  0  0  0  0
   71.6006   36.7179   58.5044 C   0  0  0  0  0  0  0  0  0  0  0  0
   71.4743   35.5031   59.1232 C   0  0  0  0  0  0  0  0  0  0  0  0
   72.0663   34.3443   58.6035 C   0  0  0  0  0  0  0  0  0  0  0  0
   72.7946   34.3893   57.4553 C   0  0  0  0  0  0  0  0  0  0  0  0
   72.9272   35.6057   56.8269 C   0  0  0  0  0  0  0  0  0  0  0  0
   73.6692   35.6218   55.6671 F   0  0  0  0  0  0  0  0  0  0  0  0
   72.3556   36.7456   57.3204 C   0  0  0  0  0  0  0  0  0  0  0  0
  1  2  2  0
  2  3  1  0
  2 10  1  0
  3  4  2  0
  3  7  1  0
  4  5  1  0
  5 18  1  0
  5  6  2  0
 18 19  1  0
 19 20  1  0
 20 21  2  0
 20 26  1  0
 21 22  1  0
 22 23  2  0
 23 24  1  0
 24 25  1  0
 24 26  2  0
  6  7  1  0
  7  8  1  0
  8  9  1  0
  9 10  1  0
 10 11  1  0
 11 12  2  0
 11 17  1  0
 12 13  1  0
 13 14  2  0
 14 15  1  0
 14 16  1  0
 16 17  2  0
M  END
>  <minimizedAffinity>  (55) 
-8.58146

$$$$
data/reference_output_2/data/smiles/92191.pdb
     RDKit          3D

 20 21  0  0  0  0  0  0  0  0999 V2000
   70.0862   49.5667   53.0610 S   0  0  0  0  0  0  0  0  0  0  0  0
   69.8064   50.1937   51.7162 O   0  0  0  0  0  0  0  0  0  0  0  0
   71.5456   49.2977   53.2288 O   0  0  0  0  0  0  0  0  0  0  0  0
   70.0101   47.4380   50.9415 N   0  0  0  0  0  0  0  0  0  0  0  0
   69.2563   47.1340   52.0906 C   0  0  0  0  0  0  0  0  0  0  0  0
   68.5485   45.9511   52.2116 C   0  0  0  0  0  0  0  0  0  0  0  0
   67.8229   45.6856   53.3453 C   0  0  0  0  0  0  0  0  0  0  0  0
   67.8085   46.6222   54.3706 C   0  0  0  0  0  0  0  0  0  0  0  0
   68.5108   47.7574   54.2092 N   0  0  0  0  0  0  0  0  0  0  0  0
   69.2282   48.0476   53.1170 C   0  0  0  0  0  0  0  0  0  0  0  0
   69.5437   50.6687   54.3083 C   0  0  0  0  0  0  0  0  0  0  0  0
   69.7612   52.0409   54.2230 C   0  0  0  0  0  0  0  0  0  0  0  0
   69.3105   52.8612   55.2391 C   0  0  0  0  0  0  0  0  0  0  0  0
   68.6506   52.3296   56.3296 C   0  0  0  0  0  0  0  0  0  0  0  0
   68.4206   50.9649   56.4399 C   0  0  0  0  0  0  0  0  0  0  0  0
   68.8809   50.1715   55.4126 C   0  0  0  0  0  0  0  0  0  0  0  0
   67.7092   50.4391   57.6269 C   0  0  0  0  0  0  0  0  0  0  0  0
   66.5338   51.1576   57.8282 F   0  0  0  0  0  0  0  0  0  0  0  0
   67.3333   49.1170   57.4200 F   0  0  0  0  0  0  0  0  0  0  0  0
   68.4647   50.5560   58.7747 F   0  0  0  0  0  0  0  0  0  0  0  0
  4  5  1  0
  5  6  2  0
  5 10  1  0
  6  7  1  0
  7  8  2  0
  8  9  1  0
  9 10  2  0
 10  1  1  0
  1  2  2  0
  1  3  2  0
  1 11  1  0
 11 12  2  0
 11 16  1  0
 12 13  1  0
 13 14  2  0
 14 15  1  0
 15 17  1  0
 15 16  2  0
 17 18  1  0
 17 19  1  0
 17 20  1  0
M  END
>  <minimizedAffinity>  (56) 
-8.58088

$$$$
data/reference_output_2/data/smiles/92412.pdb
     RDKit          3D

 28 31  0  0  0  0  0  0  0  0999 V2000
   71.1559   45.7617   58.2695 C   0  0  0  0  0  0  0  0  0  0  0  0
   71.8819   46.5926   59.0860 C   0  0  0  0  0  0  0  0  0  0  0  0
   71.6556   47.9374   59.1821 C   0  0  0  0  0  0  0  0  0  0  0  0
   70.6356   48.4784   58.4082 C   0  0  0  0  0  0  0  0  0  0  0  0
   69.8782   47.7068   57.5778 C   0  0  0  0  0  0  0  0  0  0  0  0
   70.1562   46.3422   57.5229 C   0  0  0  0  0  0  0  0  0  0  0  0
   70.5370   43.4478   58.8324 C   0  0  0  0  0  0  0  0  0  0  0  0
   69.5643   43.8429   59.5063 O   0  0  0  0  0  0  0  0  0  0  0  0
   71.3945   44.3660   58.1727 N   0  0  0  0  0  0  0  0  0  0  0  0
   71.6252   37.8418   58.3432 C   0  0  0  0  0  0  0  0  0  0  0  0
   71.3544   39.3099   58.4728 C   0  0  0  0  0  0  0  0  0  0  0  0
   70.0615   39.7828   58.5270 C   0  0  0  0  0  0  0  0  0  0  0  0
   69.8205   41.1088   58.6432 N   0  0  0  0  0  0  0  0  0  0  0  0
   70.8178   42.0036   58.7071 C   0  0  0  0  0  0  0  0  0  0  0  0
   72.1104   41.5377   58.6524 C   0  0  0  0  0  0  0  0  0  0  0  0
   72.3502   40.2090   58.5367 N   0  0  0  0  0  0  0  0  0  0  0  0
   68.7752   48.2469   56.7468 C   0  0  0  0  0  0  0  0  0  0  0  0
   68.5374   47.3612   55.6029 C   0  0  0  0  0  0  0  0  0  0  0  0
   68.0370   46.1060   55.8196 N   0  0  0  0  0  0  0  0  0  0  0  0
   67.7659   45.2821   54.8268 N   0  0  0  0  0  0  0  0  0  0  0  0
   67.9595   45.6152   53.5384 C   0  0  0  0  0  0  0  0  0  0  0  0
   67.6959   44.8191   52.6009 O   0  0  0  0  0  0  0  0  0  0  0  0
   68.4615   46.8650   53.2485 C   0  0  0  0  0  0  0  0  0  0  0  0
   68.7445   47.7246   54.3176 C   0  0  0  0  0  0  0  0  0  0  0  0
   69.3197   49.0387   53.9757 C   0  0  0  0  0  0  0  0  0  0  0  0
   70.4337   48.7419   52.9627 C   0  0  0  0  0  0  0  0  0  0  0  0
   69.9498   48.0674   51.7318 C   0  0  0  0  0  0  0  0  0  0  0  0
   68.6784   47.3078   51.8616 C   0  0  0  0  0  0  0  0  0  0  0  0
 10 11  1  0
 11 12  2  0
 11 16  1  0
 12 13  1  0
 13 14  2  0
 14  7  1  0
 14 15  1  0
  7  8  2  0
  7  9  1  0
  9  1  1  0
  1  2  2  0
  1  6  1  0
  2  3  1  0
  3  4  2  0
  4  5  1  0
  5 17  1  0
  5  6  2  0
 17 18  1  0
 18 19  2  0
 18 24  1  0
 19 20  1  0
 20 21  1  0
 21 22  2  0
 21 23  1  0
 23 24  2  0
 23 28  1  0
 24 25  1  0
 25 26  1  0
 26 27  1  0
 27 28  1  0
 15 16  2  0
M  END
>  <minimizedAffinity>  (57) 
-9.25721

$$$$
data/reference_output_2/data/smiles/92495.pdb
     RDKit          3D

 27 30  0  0  0  0  0  0  0  0999 V2000
   71.1176   46.6593   58.3889 C   0  0  0  0  0  0  0  0  0  0  0  0
   70.1166   47.0437   57.4949 C   0  0  0  0  0  0  0  0  0  0  0  0
   69.7142   48.3620   57.3233 C   0  0  0  0  0  0  0  0  0  0  0  0
   70.3182   49.3407   58.0558 C   0  0  0  0  0  0  0  0  0  0  0  0
   71.3018   48.9860   58.9385 C   0  0  0  0  0  0  0  0  0  0  0  0
   71.6923   47.6775   59.1019 C   0  0  0  0  0  0  0  0  0  0  0  0
   72.6502   47.4465   60.0021 F   0  0  0  0  0  0  0  0  0  0  0  0
   73.6461   42.4779   57.6839 C   0  0  0  0  0  0  0  0  0  0  0  0
   72.4645   43.3951   57.6416 C   0  0  1  0  0  0  0  0  0  0  0  0
   71.3023   42.9403   58.4388 C   0  0  0  0  0  0  0  0  0  0  0  0
   70.6744   44.1796   58.9500 C   0  0  0  0  0  0  0  0  0  0  0  0
   69.6272   44.1937   59.6265 O   0  0  0  0  0  0  0  0  0  0  0  0
   71.4794   45.2899   58.5283 N   0  0  0  0  0  0  0  0  0  0  0  0
   72.7690   44.7441   58.2386 C   0  0  0  0  0  0  0  0  0  0  0  0
   73.8644   45.2915   58.4478 O   0  0  0  0  0  0  0  0  0  0  0  0
   68.6397   48.6410   56.3050 C   0  0  0  0  0  0  0  0  0  0  0  0
   69.1082   48.6052   54.9261 C   0  0  0  0  0  0  0  0  0  0  0  0
   70.0042   49.5585   54.5156 N   0  0  0  0  0  0  0  0  0  0  0  0
   70.5184   49.5966   53.3042 N   0  0  0  0  0  0  0  0  0  0  0  0
   70.2139   48.7064   52.3529 C   0  0  0  0  0  0  0  0  0  0  0  0
   70.7027   48.7487   51.2138 O   0  0  0  0  0  0  0  0  0  0  0  0
   69.3216   47.7209   52.6879 C   0  0  0  0  0  0  0  0  0  0  0  0
   68.9483   46.7729   51.7620 C   0  0  0  0  0  0  0  0  0  0  0  0
   68.0373   45.7760   52.0821 C   0  0  0  0  0  0  0  0  0  0  0  0
   67.5051   45.7447   53.3471 C   0  0  0  0  0  0  0  0  0  0  0  0
   67.8778   46.6992   54.2885 C   0  0  0  0  0  0  0  0  0  0  0  0
   68.7699   47.6756   53.9773 C   0  0  0  0  0  0  0  0  0  0  0  0
  9  8  1  1
  9 10  1  0
  9 14  1  0
 10 11  1  0
 11 12  2  0
 11 13  1  0
 13  1  1  0
 13 14  1  0
  1  2  2  0
  1  6  1  0
  2  3  1  0
  3 16  1  0
  3  4  2  0
 16 17  1  0
 17 18  2  0
 17 27  1  0
 18 19  1  0
 19 20  1  0
 20 21  2  0
 20 22  1  0
 22 23  1  0
 22 27  2  0
 23 24  2  0
 24 25  1  0
 25 26  2  0
 26 27  1  0
  4  5  1  0
  5  6  2  0
  6  7  1  0
 14 15  2  0
M  END
>  <minimizedAffinity>  (58) 
-9.16069

$$$$
data/reference_output_2/data/smiles/92509.pdb
     RDKit          3D

 21 22  0  0  0  0  0  0  0  0999 V2000
   67.9299   44.6371   55.3979 O   0  0  0  0  0  0  0  0  0  0  0  0
   68.1705   45.5577   54.4820 C   0  0  0  0  0  0  0  0  0  0  0  0
   67.7232   45.3961   53.1586 C   0  0  0  0  0  0  0  0  0  0  0  0
   67.0348   44.2504   52.8932 F   0  0  0  0  0  0  0  0  0  0  0  0
   67.9613   46.3304   52.1879 C   0  0  0  0  0  0  0  0  0  0  0  0
   67.5093   46.1376   50.9038 F   0  0  0  0  0  0  0  0  0  0  0  0
   68.6599   47.4866   52.4678 C   0  0  0  0  0  0  0  0  0  0  0  0
   69.1123   47.6747   53.7547 C   0  0  0  0  0  0  0  0  0  0  0  0
   69.7980   48.8346   53.9838 F   0  0  0  0  0  0  0  0  0  0  0  0
   68.8782   46.7468   54.7275 C   0  0  0  0  0  0  0  0  0  0  0  0
   69.3257   46.9444   55.9845 F   0  0  0  0  0  0  0  0  0  0  0  0
   68.1559   42.5061   56.4518 C   0  0  0  0  0  0  0  0  0  0  0  0
   68.8314   41.7677   57.4445 C   0  0  0  0  0  0  0  0  0  0  0  0
   69.7860   42.3649   58.2221 C   0  0  0  0  0  0  0  0  0  0  0  0
   70.1065   43.6935   58.0519 C   0  0  0  0  0  0  0  0  0  0  0  0
   69.4734   44.3766   57.1232 N   0  0  0  0  0  0  0  0  0  0  0  0
   68.4882   43.8203   56.2984 C   0  0  0  0  0  0  0  0  0  0  0  0
   67.4321   40.4225   55.3254 N   0  0  0  0  0  0  0  0  0  0  0  0
   67.1790   41.8109   55.6508 C   0  0  0  0  0  0  0  0  0  0  0  0
   66.0818   42.2601   55.1772 N   0  0  0  0  0  0  0  0  0  0  0  0
   65.2165   41.4816   54.4199 O   0  0  0  0  0  0  0  0  0  0  0  0
 18 19  1  0
 19 20  2  0
 19 12  1  0
 20 21  1  0
 12 13  2  0
 12 17  1  0
 13 14  1  0
 14 15  2  0
 15 16  1  0
 16 17  2  0
 17  1  1  0
  1  2  1  0
  2  3  2  0
  2 10  1  0
  3  4  1  0
  3  5  1  0
  5  6  1  0
  5  7  2  0
  7  8  1  0
  8  9  1  0
  8 10  2  0
 10 11  1  0
M  CHG  1  20   1
M  END
>  <minimizedAffinity>  (59) 
-8.62028

$$$$
data/reference_output_2/data/smiles/92521.pdb
     RDKit          3D

 25 28  0  0  0  0  0  0  0  0999 V2000
   68.7696   47.2058   56.0946 C   0  0  2  0  0  0  0  0  0  0  0  0
   67.3885   47.2562   56.2906 O   0  0  0  0  0  0  0  0  0  0  0  0
   66.8353   45.0995   50.9520 O   0  0  0  0  0  0  0  0  0  0  0  0
   67.5186   45.8867   51.6376 C   0  0  0  0  0  0  0  0  0  0  0  0
   68.3441   46.8757   51.4022 N   0  0  0  0  0  0  0  0  0  0  0  0
   68.9223   47.5282   52.3900 C   0  0  0  0  0  0  0  0  0  0  0  0
   69.8242   48.6067   52.2521 C   0  0  0  0  0  0  0  0  0  0  0  0
   70.2149   49.1115   51.0198 O   0  0  0  0  0  0  0  0  0  0  0  0
   70.3549   49.2019   53.3748 C   0  0  0  0  0  0  0  0  0  0  0  0
   70.0593   48.8075   54.6597 C   0  0  0  0  0  0  0  0  0  0  0  0
   69.1822   47.7588   54.8033 C   0  0  0  0  0  0  0  0  0  0  0  0
   68.6530   47.1661   53.6539 C   0  0  0  0  0  0  0  0  0  0  0  0
   67.5283   45.8360   53.5012 S   0  0  0  0  0  0  0  0  0  0  0  0
   69.2612   45.7588   56.2611 C   0  0  0  0  0  0  0  0  0  0  0  0
   69.8183   45.6471   57.5636 N   0  0  0  0  0  0  0  0  0  0  0  0
   70.1366   44.3324   58.0157 C   0  0  1  0  0  0  0  0  0  0  0  0
   69.4036   43.3011   57.2034 C   0  0  0  0  0  0  0  0  0  0  0  0
   69.6454   41.8928   57.6688 C   0  0  0  0  0  0  0  0  0  0  0  0
   71.0534   41.5855   58.0471 C   0  0  0  0  0  0  0  0  0  0  0  0
   71.9793   42.7164   58.0393 C   0  0  0  0  0  0  0  0  0  0  0  0
   73.3439   42.4529   58.0504 C   0  0  0  0  0  0  0  0  0  0  0  0
   74.2549   43.5018   58.0543 C   0  0  0  0  0  0  0  0  0  0  0  0
   73.8264   44.8122   58.0465 C   0  0  0  0  0  0  0  0  0  0  0  0
   72.4797   45.0959   58.0359 C   0  0  0  0  0  0  0  0  0  0  0  0
   71.5847   44.0295   58.0320 C   0  0  0  0  0  0  0  0  0  0  0  0
  3  4  2  0
  4  5  1  0
  4 13  1  0
  5  6  1  0
  6  7  2  0
  6 12  1  0
  7  8  1  0
  7  9  1  0
  9 10  2  0
 10 11  1  0
 11  1  1  0
 11 12  2  0
  1  2  1  6
  1 14  1  0
 14 15  1  0
 16 15  1  6
 16 17  1  0
 16 25  1  0
 17 18  1  0
 18 19  1  0
 19 20  1  0
 20 21  2  0
 20 25  1  0
 21 22  1  0
 22 23  2  0
 23 24  1  0
 24 25  2  0
 12 13  1  0
M  CHG  1  15   1
M  END
>  <minimizedAffinity>  (60) 
-9.01722

$$$$
data/reference_output_2/data/smiles/92633.pdb
     RDKit          3D

 25 27  0  0  0  0  0  0  0  0999 V2000
   68.0793   45.2013   54.9146 C   0  0  0  0  0  0  0  0  0  0  0  0
   67.6384   44.8926   53.6420 C   0  0  0  0  0  0  0  0  0  0  0  0
   67.6725   45.6234   52.4730 C   0  0  0  0  0  0  0  0  0  0  0  0
   66.9995   45.1257   51.3660 O   0  0  0  0  0  0  0  0  0  0  0  0
   68.3355   46.8414   52.2981 C   0  0  0  0  0  0  0  0  0  0  0  0
   68.4293   47.1842   51.0903 O   0  0  0  0  0  0  0  0  0  0  0  0
   68.8841   47.6898   53.2370 C   0  0  0  0  0  0  0  0  0  0  0  0
   69.4569   48.8087   52.6696 C   0  0  0  0  0  0  0  0  0  0  0  0
   69.4408   48.9836   51.2875 O   0  0  0  0  0  0  0  0  0  0  0  0
   70.0608   49.7798   53.4608 C   0  0  0  0  0  0  0  0  0  0  0  0
   70.6401   50.9084   52.8967 O   0  0  0  0  0  0  0  0  0  0  0  0
   70.0863   49.6211   54.8341 C   0  0  0  0  0  0  0  0  0  0  0  0
   70.6698   50.5572   55.6262 F   0  0  0  0  0  0  0  0  0  0  0  0
   69.5022   48.4855   55.3990 C   0  0  0  0  0  0  0  0  0  0  0  0
   68.9081   47.5295   54.6121 C   0  0  0  0  0  0  0  0  0  0  0  0
   68.3862   46.4793   55.3532 C   0  0  0  0  0  0  0  0  0  0  0  0
   69.1360   44.2069   56.7022 O   0  0  0  0  0  0  0  0  0  0  0  0
   68.2256   44.0958   55.8529 C   0  0  0  0  0  0  0  0  0  0  0  0
   67.4383   42.9365   55.8760 N   0  0  0  0  0  0  0  0  0  0  0  0
   67.5062   41.8326   56.7313 C   0  0  0  0  0  0  0  0  0  0  0  0
   68.1782   40.6670   56.4914 C   0  0  0  0  0  0  0  0  0  0  0  0
   68.1784   39.6184   57.4239 C   0  0  0  0  0  0  0  0  0  0  0  0
   67.5099   39.7042   58.6192 C   0  0  0  0  0  0  0  0  0  0  0  0
   66.8321   40.8692   58.8693 C   0  0  0  0  0  0  0  0  0  0  0  0
   66.8326   41.8870   57.9625 C   0  0  0  0  0  0  0  0  0  0  0  0
 17 18  2  0
 18 19  1  0
 18  1  1  0
 19 20  1  0
 20 21  2  0
 20 25  1  0
 21 22  1  0
 22 23  2  0
 23 24  1  0
 24 25  2  0
  1  2  1  0
  1 16  2  0
  2  3  2  0
  3  4  1  0
  3  5  1  0
  5  6  2  0
  5  7  1  0
  7  8  1  0
  7 15  2  0
  8  9  1  0
  8 10  2  0
 10 11  1  0
 10 12  1  0
 12 13  1  0
 12 14  2  0
 14 15  1  0
 15 16  1  0
M  END
>  <minimizedAffinity>  (61) 
-9.24558

$$$$
data/reference_output_2/data/smiles/92808.pdb
     RDKit          3D

 28 30  0  0  0  0  0  0  0  0999 V2000
   68.6641   41.2167   57.2622 C   0  0  0  0  0  0  0  0  0  0  0  0
   69.8670   41.2819   57.9409 C   0  0  0  0  0  0  0  0  0  0  0  0
   70.3692   40.2709   58.6811 C   0  0  0  0  0  0  0  0  0  0  0  0
   69.6764   39.0541   58.8135 C   0  0  0  0  0  0  0  0  0  0  0  0
   68.4815   38.9714   58.1484 C   0  0  0  0  0  0  0  0  0  0  0  0
   67.9827   40.0354   57.3855 C   0  0  0  0  0  0  0  0  0  0  0  0
   70.3343   37.7833   59.8018 S   0  0  0  0  0  0  0  0  0  0  0  0
   69.2843   37.1027   60.5698 O   0  0  0  0  0  0  0  0  0  0  0  0
   71.2336   38.4805   60.8693 O   0  0  0  0  0  0  0  0  0  0  0  0
   71.3365   36.7497   58.8305 C   0  0  0  0  0  0  0  0  0  0  0  0
   72.0639   37.1344   57.7417 C   0  0  0  0  0  0  0  0  0  0  0  0
   72.8261   36.2799   56.9633 C   0  0  0  0  0  0  0  0  0  0  0  0
   72.8446   34.9173   57.3362 C   0  0  0  0  0  0  0  0  0  0  0  0
   72.1478   34.5391   58.3839 C   0  0  0  0  0  0  0  0  0  0  0  0
   71.3866   35.3728   59.1632 C   0  0  0  0  0  0  0  0  0  0  0  0
   68.1317   42.3948   56.5252 C   0  0  0  0  0  0  0  0  0  0  0  0
   68.7778   43.5755   56.9735 N   0  0  0  0  0  0  0  0  0  0  0  0
   69.4668   45.7206   56.8755 N   0  0  0  0  0  0  0  0  0  0  0  0
   68.7812   44.8252   56.3487 C   0  0  0  0  0  0  0  0  0  0  0  0
   70.8909   45.6016   58.9496 N   0  0  0  0  0  0  0  0  0  0  0  0
   70.2170   45.6679   57.9602 C   0  0  0  0  0  0  0  0  0  0  0  0
   68.0782   45.1142   55.1506 N   0  0  0  0  0  0  0  0  0  0  0  0
   68.4183   46.0548   54.1618 C   0  0  0  0  0  0  0  0  0  0  0  0
   68.1042   45.7429   52.8432 C   0  0  0  0  0  0  0  0  0  0  0  0
   68.4150   46.5981   51.8107 C   0  0  0  0  0  0  0  0  0  0  0  0
   69.0357   47.7756   52.0399 C   0  0  0  0  0  0  0  0  0  0  0  0
   69.3451   48.0871   53.3099 N   0  0  0  0  0  0  0  0  0  0  0  0
   69.0602   47.2728   54.3781 C   0  0  0  0  0  0  0  0  0  0  0  0
 20 21  3  0
 21 18  1  0
 18 19  2  0
 19 17  1  0
 19 22  1  0
 17 16  1  0
 16  1  1  0
  1  2  2  0
  1  6  1  0
  2  3  1  0
  3  4  2  0
  4  7  1  0
  4  5  1  0
  7  8  2  0
  7  9  2  0
  7 10  1  0
 10 11  2  0
 10 15  1  0
 11 12  1  0
 12 13  2  0
 13 14  1  0
 14 15  2  0
  5  6  2  0
 22 23  1  0
 23 24  2  0
 23 28  1  0
 24 25  1  0
 25 26  2  0
 26 27  1  0
 27 28  2  0
M  CHG  1  18   1
M  END
>  <minimizedAffinity>  (62) 
-8.82301

$$$$
data/reference_output_2/data/smiles/92841.pdb
     RDKit          3D

 22 25  0  0  0  0  0  0  0  0999 V2000
   70.1144   49.3857   53.4484 C   0  0  0  0  0  0  0  0  0  0  0  0
   70.1251   49.9036   52.1931 N   0  0  0  0  0  0  0  0  0  0  0  0
   69.5244   49.0783   51.3684 N   0  0  0  0  0  0  0  0  0  0  0  0
   69.0878   47.9848   52.0136 C   0  0  0  0  0  0  0  0  0  0  0  0
   68.4135   46.8498   51.5705 C   0  0  0  0  0  0  0  0  0  0  0  0
   68.0899   45.8538   52.4652 C   0  0  0  0  0  0  0  0  0  0  0  0
   68.4547   46.0270   53.7816 C   0  0  0  0  0  0  0  0  0  0  0  0
   69.1295   47.1672   54.2171 C   0  0  0  0  0  0  0  0  0  0  0  0
   69.4573   48.1712   53.3284 C   0  0  0  0  0  0  0  0  0  0  0  0
   68.1262   44.9864   54.7498 C   0  0  0  0  0  0  0  0  0  0  0  0
   67.2712   43.9522   54.5594 N   0  0  0  0  0  0  0  0  0  0  0  0
   67.2397   43.2261   55.6608 N   0  0  0  0  0  0  0  0  0  0  0  0
   68.0706   43.8069   56.5284 N   0  0  0  0  0  0  0  0  0  0  0  0
   68.6144   44.8707   55.9973 N   0  0  0  0  0  0  0  0  0  0  0  0
   70.6667   50.0101   54.6743 C   0  0  0  0  0  0  0  0  0  0  0  0
   69.8257   51.0836   55.2625 C   0  0  0  0  0  0  0  0  0  0  0  0
   66.7995   49.8126   58.0027 C   0  0  0  0  0  0  0  0  0  0  0  0
   67.8010   48.9512   57.6293 C   0  0  0  0  0  0  0  0  0  0  0  0
   68.7767   49.3614   56.7471 C   0  0  0  0  0  0  0  0  0  0  0  0
   68.7888   50.6496   56.2042 C   0  0  0  0  0  0  0  0  0  0  0  0
   67.7783   51.4984   56.5879 C   0  0  0  0  0  0  0  0  0  0  0  0
   66.7967   51.0704   57.4817 C   0  0  0  0  0  0  0  0  0  0  0  0
 17 18  2  0
 17 22  1  0
 18 19  1  0
 19 20  2  0
 20 16  1  0
 20 21  1  0
 16 15  1  0
 15  1  1  0
  1  2  2  0
  1  9  1  0
  2  3  1  0
  3  4  1  0
  4  5  1  0
  4  9  2  0
  5  6  2  0
  6  7  1  0
  7 10  1  0
  7  8  2  0
 10 11  2  0
 10 14  1  0
 11 12  1  0
 12 13  2  0
 13 14  1  0
  8  9  1  0
 21 22  2  0
M  END
>  <minimizedAffinity>  (63) 
-9.04517

$$$$
data/reference_output_2/data/smiles/92864.pdb
     RDKit          3D

 28 31  0  0  0  0  0  0  0  0999 V2000
   73.9122   49.3205   57.2021 C   0  0  0  0  0  0  0  0  0  0  0  0
   73.6429   48.3839   58.1713 C   0  0  0  0  0  0  0  0  0  0  0  0
   72.3309   47.9351   58.3840 C   0  0  0  0  0  0  0  0  0  0  0  0
   71.3076   48.4383   57.6158 C   0  0  0  0  0  0  0  0  0  0  0  0
   71.5473   49.3968   56.6166 C   0  0  0  0  0  0  0  0  0  0  0  0
   72.8441   49.7865   56.4651 C   0  0  0  0  0  0  0  0  0  0  0  0
   75.4171   50.8248   56.2766 O   0  0  0  0  0  0  0  0  0  0  0  0
   75.2663   49.7904   56.9752 C   0  0  0  0  0  0  0  0  0  0  0  0
   76.4354   49.1760   57.4780 N   0  0  0  0  0  0  0  0  0  0  0  0
   77.6839   49.6441   57.2449 N   0  0  0  0  0  0  0  0  0  0  0  0
   78.3335   49.3604   56.0289 C   0  0  0  0  0  0  0  0  0  0  0  0
   79.7936   49.0400   56.4009 C   0  0  0  0  0  0  0  0  0  0  0  0
   79.6994   48.1386   57.6065 C   0  0  0  0  0  0  0  0  0  0  0  0
   79.8195   48.8051   58.9156 C   0  0  0  0  0  0  0  0  0  0  0  0
   79.2760   50.1689   59.0540 C   0  0  0  0  0  0  0  0  0  0  0  0
   78.2519   50.6070   58.0876 C   0  0  0  0  0  0  0  0  0  0  0  0
   70.3994   49.8901   55.8001 C   0  0  0  0  0  0  0  0  0  0  0  0
   70.2008   49.1658   54.5442 C   0  0  0  0  0  0  0  0  0  0  0  0
   71.0239   49.4919   53.5149 N   0  0  0  0  0  0  0  0  0  0  0  0
   71.0033   48.9271   52.3356 N   0  0  0  0  0  0  0  0  0  0  0  0
   70.0964   47.9466   52.1230 C   0  0  0  0  0  0  0  0  0  0  0  0
   70.0811   47.4100   50.9953 O   0  0  0  0  0  0  0  0  0  0  0  0
   69.2290   47.5531   53.0996 C   0  0  0  0  0  0  0  0  0  0  0  0
   69.2931   48.1889   54.3410 C   0  0  0  0  0  0  0  0  0  0  0  0
   68.3104   47.7315   55.3342 C   0  0  0  0  0  0  0  0  0  0  0  0
   68.4441   46.2073   55.3881 C   0  0  0  0  0  0  0  0  0  0  0  0
   68.0990   45.5661   54.0689 C   0  0  0  0  0  0  0  0  0  0  0  0
   68.2506   46.4908   52.8838 C   0  0  0  0  0  0  0  0  0  0  0  0
  7  8  2  0
  8  9  1  0
  8  1  1  0
  9 10  1  0
 10 11  1  0
 10 16  1  0
 11 12  1  0
 12 13  1  0
 13 14  1  0
 14 15  1  0
 15 16  1  0
  1  2  2  0
  1  6  1  0
  2  3  1  0
  3  4  2  0
  4  5  1  0
  5 17  1  0
  5  6  2  0
 17 18  1  0
 18 19  2  0
 18 24  1  0
 19 20  1  0
 20 21  1  0
 21 22  2  0
 21 23  1  0
 23 24  2  0
 23 28  1  0
 24 25  1  0
 25 26  1  0
 26 27  1  0
 27 28  1  0
M  END
>  <minimizedAffinity>  (64) 
-8.61149

$$$$
data/reference_output_2/data/smiles/92900.pdb
     RDKit          3D

 26 28  0  0  0  0  0  0  0  0999 V2000
   68.6284   46.2876   55.4170 C   0  0  0  0  0  0  0  0  0  0  0  0
   67.8859   45.2243   55.0627 N   0  0  0  0  0  0  0  0  0  0  0  0
   67.4957   45.0199   53.8023 C   0  0  0  0  0  0  0  0  0  0  0  0
   67.8714   45.9339   52.8399 C   0  0  0  0  0  0  0  0  0  0  0  0
   67.4082   45.7466   51.1745 Cl  0  0  0  0  0  0  0  0  0  0  0  0
   68.6391   47.0416   53.1781 C   0  0  0  0  0  0  0  0  0  0  0  0
   69.0295   47.9733   52.2360 C   0  0  0  0  0  0  0  0  0  0  0  0
   69.7860   49.0664   52.5690 C   0  0  0  0  0  0  0  0  0  0  0  0
   70.1811   49.2619   53.8759 C   0  0  0  0  0  0  0  0  0  0  0  0
   69.7820   48.3230   54.8029 C   0  0  0  0  0  0  0  0  0  0  0  0
   69.0238   47.2240   54.4816 C   0  0  0  0  0  0  0  0  0  0  0  0
   70.0481   44.3451   56.9645 N   0  0  0  0  0  0  0  0  0  0  0  0
   69.6713   45.6098   57.4519 C   0  0  0  0  0  0  0  0  0  0  0  0
   70.0052   45.9635   58.7900 N   0  0  0  0  0  0  0  0  0  0  0  0
   69.0304   46.4855   56.7534 N   0  0  0  0  0  0  0  0  0  0  0  0
   71.1493   50.6406   54.3617 S   0  0  0  0  0  0  0  0  0  0  0  0
   72.5739   50.2836   54.0650 O   0  0  0  0  0  0  0  0  0  0  0  0
   70.7740   51.7922   53.4259 O   0  0  0  0  0  0  0  0  0  0  0  0
   70.9258   51.1677   55.9316 N   0  0  0  0  0  0  0  0  0  0  0  0
   70.0583   52.2477   56.1707 C   0  0  0  0  0  0  0  0  0  0  0  0
   68.8113   52.2421   55.2415 C   0  0  0  0  0  0  0  0  0  0  0  0
   68.2036   51.2648   56.2204 C   0  0  0  0  0  0  0  0  0  0  0  0
   69.0334   52.0017   57.2874 C   0  0  0  0  0  0  0  0  0  0  0  0
   70.6473   53.5897   56.1386 C   0  0  0  0  0  0  0  0  0  0  0  0
   70.0337   54.5815   56.6610 O   0  0  0  0  0  0  0  0  0  0  0  0
   71.8543   53.8200   55.5533 O   0  0  0  0  0  0  0  0  0  0  0  0
 12 13  1  0
 13 14  1  0
 13 15  2  0
 15  1  1  0
  1  2  2  0
  1 11  1  0
  2  3  1  0
  3  4  2  0
  4  5  1  0
  4  6  1  0
  6  7  1  0
  6 11  2  0
  7  8  2  0
  8  9  1  0
  9 16  1  0
  9 10  2  0
 16 17  2  0
 16 18  2  0
 16 19  1  0
 19 20  1  0
 20 24  1  0
 20 21  1  0
 20 23  1  0
 24 25  2  0
 24 26  1  0
 21 22  1  0
 22 23  1  0
 10 11  1  0
M  CHG  1  15   1
M  END
>  <minimizedAffinity>  (65) 
-8.73186

$$$$
data/reference_output_2/data/smiles/92964.pdb
     RDKit          3D

 26 28  0  0  0  0  0  0  0  0999 V2000
   69.8690   42.7768   57.0340 O   0  0  0  0  0  0  0  0  0  0  0  0
   68.6307   42.5496   57.0756 C   0  0  0  0  0  0  0  0  0  0  0  0
   67.7964   43.5124   56.4641 N   0  0  0  0  0  0  0  0  0  0  0  0
   68.1639   41.3363   57.7362 C   0  0  0  0  0  0  0  0  0  0  0  0
   68.6538   40.0832   57.4348 C   0  0  0  0  0  0  0  0  0  0  0  0
   68.1802   38.9541   58.0876 C   0  0  0  0  0  0  0  0  0  0  0  0
   67.2062   39.0167   59.0632 C   0  0  0  0  0  0  0  0  0  0  0  0
   66.7207   40.2762   59.3575 C   0  0  0  0  0  0  0  0  0  0  0  0
   67.1882   41.4003   58.7109 C   0  0  0  0  0  0  0  0  0  0  0  0
   66.7377   37.8461   59.7182 N   0  0  0  0  0  0  0  0  0  0  0  0
   65.6000   37.1514   59.5672 C   0  0  0  0  0  0  0  0  0  0  0  0
   65.5571   36.0701   60.4176 C   0  0  0  0  0  0  0  0  0  0  0  0
   66.7348   36.1092   61.1274 C   0  0  0  0  0  0  0  0  0  0  0  0
   67.4268   37.2051   60.6734 C   0  0  0  0  0  0  0  0  0  0  0  0
   68.2837   44.6685   55.8370 N   0  0  0  0  0  0  0  0  0  0  0  0
   67.9329   45.0200   54.5060 C   0  0  0  0  0  0  0  0  0  0  0  0
   67.1545   44.2284   53.9155 O   0  0  0  0  0  0  0  0  0  0  0  0
   68.4205   46.2130   53.8257 C   0  0  0  0  0  0  0  0  0  0  0  0
   68.5850   46.2987   52.4722 C   0  0  0  0  0  0  0  0  0  0  0  0
   69.0593   47.4897   51.9110 C   0  0  0  0  0  0  0  0  0  0  0  0
   69.3655   48.5794   52.6964 C   0  0  0  0  0  0  0  0  0  0  0  0
   69.2026   48.5010   54.0643 C   0  0  0  0  0  0  0  0  0  0  0  0
   68.7375   47.3271   54.5810 C   0  0  0  0  0  0  0  0  0  0  0  0
   69.8476   49.7904   52.1366 N   0  0  0  0  0  0  0  0  0  0  0  0
   70.3784   50.6409   52.8672 O   0  0  0  0  0  0  0  0  0  0  0  0
   69.7436   50.0518   50.7947 O   0  0  0  0  0  0  0  0  0  0  0  0
  1  2  2  0
  2  3  1  0
  2  4  1  0
  3 15  1  0
 15 16  1  0
 16 17  2  0
 16 18  1  0
 18 19  2  0
 18 23  1  0
 19 20  1  0
 20 21  2  0
 21 24  1  0
 21 22  1  0
 24 25  2  0
 24 26  1  0
 22 23  2  0
  4  5  2  0
  4  9  1  0
  5  6  1  0
  6  7  2  0
  7 10  1  0
  7  8  1  0
 10 11  1  0
 10 14  1  0
 11 12  2  0
 12 13  1  0
 13 14  2  0
  8  9  2  0
M  CHG  2  24   1  26  -1
M  END
>  <minimizedAffinity>  (66) 
-8.74223

$$$$
data/reference_output_2/data/smiles/92976.pdb
     RDKit          3D

 28 30  0  0  0  0  0  0  0  0999 V2000
   68.2822   46.4939   54.6966 C   0  0  0  0  0  0  0  0  0  0  0  0
   67.8778   45.5685   53.7711 C   0  0  0  0  0  0  0  0  0  0  0  0
   68.0788   45.7787   52.4086 C   0  0  0  0  0  0  0  0  0  0  0  0
   68.6988   46.9496   51.9635 C   0  0  0  0  0  0  0  0  0  0  0  0
   69.0996   47.8720   52.8828 C   0  0  0  0  0  0  0  0  0  0  0  0
   68.8857   47.6270   54.2211 C   0  0  0  0  0  0  0  0  0  0  0  0
   69.7384   49.1647   52.4996 C   0  0  0  0  0  0  0  0  0  0  0  0
   70.1027   49.2731   51.3165 O   0  0  0  0  0  0  0  0  0  0  0  0
   69.8852   50.1492   53.5095 N   0  0  0  0  0  0  0  0  0  0  0  0
   69.4200   50.0218   54.8654 C   0  0  0  0  0  0  0  0  0  0  0  0
   70.6155   50.5954   55.6326 C   0  0  1  0  0  0  0  0  0  0  0  0
   71.6290   49.6642   55.5683 O   0  0  0  0  0  0  0  0  0  0  0  0
   70.9182   51.8284   54.8100 C   0  0  2  0  0  0  0  0  0  0  0  0
   70.0001   52.7916   55.2413 F   0  0  0  0  0  0  0  0  0  0  0  0
   70.5444   51.4197   53.3991 C   0  0  0  0  0  0  0  0  0  0  0  0
   68.0897   46.3085   56.0766 O   0  0  0  0  0  0  0  0  0  0  0  0
   71.0241   46.4112   58.2646 C   0  0  0  0  0  0  0  0  0  0  0  0
   69.9366   46.8356   57.4912 C   0  0  0  0  0  0  0  0  0  0  0  0
   69.1871   45.8868   56.8520 C   0  0  0  0  0  0  0  0  0  0  0  0
   69.5193   44.5942   56.9861 N   0  0  0  0  0  0  0  0  0  0  0  0
   70.5480   44.1672   57.7155 C   0  0  0  0  0  0  0  0  0  0  0  0
   71.3378   45.0856   58.3833 C   0  0  0  0  0  0  0  0  0  0  0  0
   70.9107   42.7275   57.8554 C   0  0  0  0  0  0  0  0  0  0  0  0
   71.1356   42.3642   59.1677 F   0  0  0  0  0  0  0  0  0  0  0  0
   72.0852   42.4657   57.1531 F   0  0  0  0  0  0  0  0  0  0  0  0
   69.9341   41.9339   57.2890 F   0  0  0  0  0  0  0  0  0  0  0  0
   71.5451   47.2936   60.3984 N   0  0  0  0  0  0  0  0  0  0  0  0
   71.8340   47.4301   58.9604 C   0  0  0  0  0  0  0  0  0  0  0  0
 27 28  1  0
 28 17  1  0
 17 18  2  0
 17 22  1  0
 18 19  1  0
 19 16  1  0
 19 20  2  0
 16  1  1  0
  1  2  2  0
  1  6  1  0
  2  3  1  0
  3  4  2  0
  4  5  1  0
  5  7  1  0
  5  6  2  0
  7  8  2  0
  7  9  1  0
  9 10  1  0
  9 15  1  0
 10 11  1  0
 11 12  1  6
 11 13  1  0
 13 14  1  1
 13 15  1  0
 20 21  1  0
 21 23  1  0
 21 22  2  0
 23 24  1  0
 23 25  1  0
 23 26  1  0
M  CHG  1  27   1
M  END
>  <minimizedAffinity>  (67) 
-8.90393

$$$$
data/reference_output_2/data/smiles/93025.pdb
     RDKit          3D

 24 26  0  0  0  0  0  0  0  0999 V2000
   68.2524   44.3123   55.7221 N   0  0  0  0  0  0  0  0  0  0  0  0
   67.7772   44.8628   54.7071 C   0  0  0  0  0  0  0  0  0  0  0  0
   68.2585   45.9307   53.8629 C   0  0  0  0  0  0  0  0  0  0  0  0
   68.1584   45.8198   52.4626 C   0  0  0  0  0  0  0  0  0  0  0  0
   68.6061   46.8168   51.6404 C   0  0  0  0  0  0  0  0  0  0  0  0
   69.1633   47.9452   52.1575 C   0  0  0  0  0  0  0  0  0  0  0  0
   69.6304   48.9825   51.3435 O   0  0  0  0  0  0  0  0  0  0  0  0
   69.2925   48.1195   53.5295 C   0  0  0  0  0  0  0  0  0  0  0  0
   69.8604   49.2743   54.0197 C   0  0  0  0  0  0  0  0  0  0  0  0
   69.9766   49.4209   55.3802 C   0  0  0  0  0  0  0  0  0  0  0  0
   69.5453   48.4555   56.2513 C   0  0  0  0  0  0  0  0  0  0  0  0
   68.9761   47.3015   55.7111 C   0  0  0  0  0  0  0  0  0  0  0  0
   68.8274   47.0881   54.3522 C   0  0  0  0  0  0  0  0  0  0  0  0
   69.6870   42.4554   57.0297 O   0  0  0  0  0  0  0  0  0  0  0  0
   68.4162   42.2965   57.1306 C   0  0  0  0  0  0  0  0  0  0  0  0
   67.6517   43.2638   56.4497 N   0  0  0  0  0  0  0  0  0  0  0  0
   67.9442   41.1723   57.9112 C   0  0  0  0  0  0  0  0  0  0  0  0
   68.3495   39.8786   57.5508 C   0  0  0  0  0  0  0  0  0  0  0  0
   67.9611   38.7489   58.2218 C   0  0  0  0  0  0  0  0  0  0  0  0
   67.1286   38.8263   59.3148 C   0  0  0  0  0  0  0  0  0  0  0  0
   66.7153   37.7058   60.0160 O   0  0  0  0  0  0  0  0  0  0  0  0
   66.7171   40.0814   59.6885 C   0  0  0  0  0  0  0  0  0  0  0  0
   67.1174   41.2404   58.9984 C   0  0  0  0  0  0  0  0  0  0  0  0
   66.6664   42.4763   59.4265 O   0  0  0  0  0  0  0  0  0  0  0  0
 14 15  2  0
 15 16  1  0
 15 17  1  0
 16  1  1  0
  1  2  2  0
  2  3  1  0
  3  4  2  0
  3 13  1  0
  4  5  1  0
  5  6  2  0
  6  7  1  0
  6  8  1  0
  8  9  1  0
  8 13  2  0
  9 10  2  0
 10 11  1  0
 11 12  2  0
 12 13  1  0
 17 18  2  0
 17 23  1  0
 18 19  1  0
 19 20  2  0
 20 21  1  0
 20 22  1  0
 22 23  2  0
 23 24  1  0
M  END
>  <minimizedAffinity>  (68) 
-8.75075

$$$$
data/reference_output_2/data/smiles/93090.pdb
     RDKit          3D

 27 29  0  0  0  0  0  0  0  0999 V2000
   67.2383   39.5099   59.4697 C   0  0  0  0  0  0  0  0  0  0  0  0
   67.8281   39.0751   58.3006 C   0  0  0  0  0  0  0  0  0  0  0  0
   68.1834   39.9569   57.2830 C   0  0  0  0  0  0  0  0  0  0  0  0
   67.9536   41.3092   57.4150 C   0  0  0  0  0  0  0  0  0  0  0  0
   67.3654   41.7533   58.5773 C   0  0  0  0  0  0  0  0  0  0  0  0
   67.0127   40.8553   59.5933 C   0  0  0  0  0  0  0  0  0  0  0  0
   65.8895   38.6260   61.3276 C   0  0  0  0  0  0  0  0  0  0  0  0
   66.8881   38.5149   60.5071 C   0  0  0  0  0  0  0  0  0  0  0  0
   66.5380   39.0468   64.2391 C   0  0  0  0  0  0  0  0  0  0  0  0
   65.7876   37.9339   63.6824 N   0  0  0  0  0  0  0  0  0  0  0  0
   65.2994   36.9552   64.4538 C   0  0  0  0  0  0  0  0  0  0  0  0
   64.6600   36.0929   63.5993 C   0  0  0  0  0  0  0  0  0  0  0  0
   64.7790   36.5697   62.3433 N   0  0  0  0  0  0  0  0  0  0  0  0
   64.2273   35.9131   61.2036 C   0  0  0  0  0  0  0  0  0  0  0  0
   65.4727   37.7065   62.3698 C   0  0  0  0  0  0  0  0  0  0  0  0
   68.3104   42.2680   56.3726 C   0  0  0  0  0  0  0  0  0  0  0  0
   67.5348   43.2609   56.1052 N   0  0  0  0  0  0  0  0  0  0  0  0
   67.8217   44.2153   55.1161 N   0  0  0  0  0  0  0  0  0  0  0  0
   68.4056   45.4612   55.3772 C   0  0  0  0  0  0  0  0  0  0  0  0
   68.6849   45.7252   56.5781 O   0  0  0  0  0  0  0  0  0  0  0  0
   68.7120   46.4683   54.3660 C   0  0  0  0  0  0  0  0  0  0  0  0
   68.5368   46.2427   53.0171 C   0  0  0  0  0  0  0  0  0  0  0  0
   68.8386   47.2259   52.0789 C   0  0  0  0  0  0  0  0  0  0  0  0
   69.3238   48.4637   52.4477 C   0  0  0  0  0  0  0  0  0  0  0  0
   69.6284   49.4602   51.4779 N   0  0  0  0  0  0  0  0  0  0  0  0
   69.4981   48.6889   53.8002 C   0  0  0  0  0  0  0  0  0  0  0  0
   69.1993   47.7150   54.7297 C   0  0  0  0  0  0  0  0  0  0  0  0
  9 10  1  0
 10 11  1  0
 10 15  1  0
 11 12  2  0
 12 13  1  0
 13 14  1  0
 13 15  2  0
 15  7  1  0
  7  8  2  0
  8  1  1  0
  1  2  2  0
  1  6  1  0
  2  3  1  0
  3  4  2  0
  4 16  1  0
  4  5  1  0
 16 17  2  0
 17 18  1  0
 18 19  1  0
 19 20  2  0
 19 21  1  0
 21 22  2  0
 21 27  1  0
 22 23  1  0
 23 24  2  0
 24 25  1  0
 24 26  1  0
 26 27  2  0
  5  6  2  0
M  CHG  1  13   1
M  END
>  <minimizedAffinity>  (69) 
-8.50986

$$$$
data/reference_output_2/data/smiles/93320.pdb
     RDKit          3D

 29 32  0  0  0  0  0  0  0  0999 V2000
   70.7594   43.5583   59.0447 O   0  0  0  0  0  0  0  0  0  0  0  0
   70.0231   43.0187   58.1974 C   0  0  0  0  0  0  0  0  0  0  0  0
   69.8734   41.6077   58.1862 N   0  0  0  0  0  0  0  0  0  0  0  0
   70.5439   40.7279   59.1286 C   0  0  1  0  0  0  0  0  0  0  0  0
   69.6119   39.7065   59.6812 C   0  0  0  0  0  0  0  0  0  0  0  0
   70.1918   38.7478   60.6450 C   0  0  0  0  0  0  0  0  0  0  0  0
   70.7663   37.5699   59.8978 C   0  0  0  0  0  0  0  0  0  0  0  0
   70.3674   36.3486   60.3977 C   0  0  0  0  0  0  0  0  0  0  0  0
   70.8575   35.2261   59.7571 C   0  0  0  0  0  0  0  0  0  0  0  0
   70.5046   33.9759   60.1977 F   0  0  0  0  0  0  0  0  0  0  0  0
   71.6989   35.3173   58.6751 C   0  0  0  0  0  0  0  0  0  0  0  0
   72.0767   36.5550   58.2030 C   0  0  0  0  0  0  0  0  0  0  0  0
   72.9027   36.7349   57.1422 F   0  0  0  0  0  0  0  0  0  0  0  0
   71.6096   37.7211   58.8140 C   0  0  0  0  0  0  0  0  0  0  0  0
   72.1149   38.8952   58.1765 N   0  0  0  0  0  0  0  0  0  0  0  0
   71.7496   40.2184   58.4966 C   0  0  0  0  0  0  0  0  0  0  0  0
   72.5981   41.0820   58.1868 O   0  0  0  0  0  0  0  0  0  0  0  0
   69.3306   43.8621   57.2322 C   0  0  0  0  0  0  0  0  0  0  0  0
   68.3453   43.5680   56.3828 N   0  0  0  0  0  0  0  0  0  0  0  0
   68.0117   44.6390   55.6852 N   0  0  0  0  0  0  0  0  0  0  0  0
   68.7803   45.6716   56.0651 C   0  0  0  0  0  0  0  0  0  0  0  0
   69.5955   45.1655   57.0313 N   0  0  0  0  0  0  0  0  0  0  0  0
   68.7620   47.0777   55.5557 C   0  0  0  0  0  0  0  0  0  0  0  0
   68.7252   47.0556   54.0554 C   0  0  0  0  0  0  0  0  0  0  0  0
   69.4696   47.8962   53.2831 C   0  0  0  0  0  0  0  0  0  0  0  0
   69.3864   47.8194   51.9105 C   0  0  0  0  0  0  0  0  0  0  0  0
   68.5685   46.9156   51.3041 C   0  0  0  0  0  0  0  0  0  0  0  0
   67.8042   46.0527   52.0538 C   0  0  0  0  0  0  0  0  0  0  0  0
   67.8902   46.1333   53.4225 C   0  0  0  0  0  0  0  0  0  0  0  0
  1  2  2  0
  2  3  1  0
  2 18  1  0
  4  3  1  6
  4  5  1  0
  4 16  1  0
  5  6  1  0
  6  7  1  0
  7  8  1  0
  7 14  2  0
  8  9  2  0
  9 10  1  0
  9 11  1  0
 11 12  2  0
 12 13  1  0
 12 14  1  0
 14 15  1  0
 15 16  1  0
 16 17  2  0
 18 19  2  0
 18 22  1  0
 19 20  1  0
 20 21  1  0
 21 23  1  0
 21 22  2  0
 23 24  1  0
 24 25  2  0
 24 29  1  0
 25 26  1  0
 26 27  2  0
 27 28  1  0
 28 29  2  0
M  END
>  <minimizedAffinity>  (70) 
-9.58613

$$$$
data/reference_output_2/data/smiles/93420.pdb
     RDKit          3D

 27 29  0  0  0  0  0  0  0  0999 V2000
   69.1817   43.2957   56.9513 C   0  0  0  0  0  0  0  0  0  0  0  0
   70.2583   42.7946   57.6140 C   0  0  0  0  0  0  0  0  0  0  0  0
   71.3722   43.5674   57.8461 O   0  0  0  0  0  0  0  0  0  0  0  0
   70.2774   41.4673   58.0861 C   0  0  0  0  0  0  0  0  0  0  0  0
   71.3494   40.9864   58.7394 N   0  0  0  0  0  0  0  0  0  0  0  0
   71.3813   39.7100   59.2001 C   0  0  0  0  0  0  0  0  0  0  0  0
   70.3298   38.8322   59.0309 C   0  0  0  0  0  0  0  0  0  0  0  0
   69.2202   39.3209   58.3583 C   0  0  0  0  0  0  0  0  0  0  0  0
   69.2120   40.6246   57.8985 C   0  0  0  0  0  0  0  0  0  0  0  0
   68.1554   41.1331   57.2429 N   0  0  0  0  0  0  0  0  0  0  0  0
   68.1181   42.3938   56.7853 C   0  0  0  0  0  0  0  0  0  0  0  0
   67.0929   42.8072   56.1765 O   0  0  0  0  0  0  0  0  0  0  0  0
   68.3922   44.9974   55.2303 N   0  0  0  0  0  0  0  0  0  0  0  0
   69.0392   44.6425   56.4207 C   0  0  0  0  0  0  0  0  0  0  0  0
   69.5421   45.6142   57.0853 O   0  0  0  0  0  0  0  0  0  0  0  0
   68.1954   46.2841   54.6581 C   0  0  0  0  0  0  0  0  0  0  0  0
   68.9880   47.0533   52.4460 C   0  0  0  0  0  0  0  0  0  0  0  0
   67.8786   46.3524   53.2148 C   0  0  0  0  0  0  0  0  0  0  0  0
   67.4842   45.1045   52.5165 C   0  0  0  0  0  0  0  0  0  0  0  0
   70.3859   37.4280   59.5480 C   0  0  0  0  0  0  0  0  0  0  0  0
   71.2767   36.5876   58.7263 C   0  0  0  0  0  0  0  0  0  0  0  0
   71.5024   35.2618   59.0023 C   0  0  0  0  0  0  0  0  0  0  0  0
   72.3550   34.4900   58.2016 C   0  0  0  0  0  0  0  0  0  0  0  0
   72.9773   35.0637   57.1237 C   0  0  0  0  0  0  0  0  0  0  0  0
   73.8221   34.3379   56.3138 F   0  0  0  0  0  0  0  0  0  0  0  0
   72.7538   36.3888   56.8453 C   0  0  0  0  0  0  0  0  0  0  0  0
   71.9064   37.1474   57.6435 C   0  0  0  0  0  0  0  0  0  0  0  0
 17 18  1  0
 18 19  1  0
 18 16  1  0
 16 13  1  0
 13 14  1  0
 14 15  2  0
 14  1  1  0
  1  2  2  0
  1 11  1  0
  2  3  1  0
  2  4  1  0
  4  5  2  0
  4  9  1  0
  5  6  1  0
  6  7  2  0
  7 20  1  0
  7  8  1  0
 20 21  1  0
 21 22  2  0
 21 27  1  0
 22 23  1  0
 23 24  2  0
 24 25  1  0
 24 26  1  0
 26 27  2  0
  8  9  2  0
  9 10  1  0
 10 11  1  0
 11 12  2  0
M  END
>  <minimizedAffinity>  (71) 
-8.73510

$$$$
data/reference_output_2/data/smiles/93430.pdb
     RDKit          3D

 32 35  0  0  0  0  0  0  0  0999 V2000
   65.5955   40.0452   60.8811 C   0  0  0  0  0  0  0  0  0  0  0  0
   66.4399   40.4906   59.9592 C   0  0  0  0  0  0  0  0  0  0  0  0
   67.0292   39.6019   59.1649 N   0  0  0  0  0  0  0  0  0  0  0  0
   67.8874   40.0449   58.2268 C   0  0  0  0  0  0  0  0  0  0  0  0
   68.4757   39.2684   57.4465 O   0  0  0  0  0  0  0  0  0  0  0  0
   68.1646   41.3995   58.0752 C   0  0  0  0  0  0  0  0  0  0  0  0
   68.9989   41.8622   57.1667 C   0  0  0  0  0  0  0  0  0  0  0  0
   67.5705   42.2941   58.8757 N   0  0  0  0  0  0  0  0  0  0  0  0
   66.7149   41.8407   59.8099 C   0  0  0  0  0  0  0  0  0  0  0  0
   66.1304   42.6457   60.5893 O   0  0  0  0  0  0  0  0  0  0  0  0
   69.2548   43.3152   57.0527 C   0  0  0  0  0  0  0  0  0  0  0  0
   70.3032   43.8327   57.7806 C   0  0  0  0  0  0  0  0  0  0  0  0
   70.5673   45.2019   57.6902 C   0  0  0  0  0  0  0  0  0  0  0  0
   69.8045   46.0270   56.8965 C   0  0  0  0  0  0  0  0  0  0  0  0
   68.7601   45.5043   56.1720 C   0  0  0  0  0  0  0  0  0  0  0  0
   68.5014   44.1321   56.2667 C   0  0  0  0  0  0  0  0  0  0  0  0
   68.0067   46.3536   55.3796 O   0  0  0  0  0  0  0  0  0  0  0  0
   68.3532   46.6584   54.0667 C   0  0  0  0  0  0  0  0  0  0  0  0
   67.8417   45.9094   53.0356 C   0  0  0  0  0  0  0  0  0  0  0  0
   68.1896   46.2173   51.7332 C   0  0  0  0  0  0  0  0  0  0  0  0
   69.0434   47.2623   51.4210 C   0  0  0  0  0  0  0  0  0  0  0  0
   69.5501   48.0052   52.4475 C   0  0  0  0  0  0  0  0  0  0  0  0
   69.2059   47.7015   53.7467 C   0  0  0  0  0  0  0  0  0  0  0  0
   65.9380   37.8477   61.9958 C   0  0  0  0  0  0  0  0  0  0  0  0
   65.4463   36.6058   61.8547 N   0  0  0  0  0  0  0  0  0  0  0  0
   64.5479   36.6204   60.8396 C   0  0  0  0  0  0  0  0  0  0  0  0
   64.4531   37.8588   60.3211 N   0  0  0  0  0  0  0  0  0  0  0  0
   65.3087   38.6106   61.0338 C   0  0  0  0  0  0  0  0  0  0  0  0
   67.0136   37.2255   64.0991 C   0  0  0  0  0  0  0  0  0  0  0  0
   66.9384   38.2504   62.9867 C   0  0  0  0  0  0  0  0  0  0  0  0
   66.5783   39.5839   63.6306 C   0  0  0  0  0  0  0  0  0  0  0  0
   68.3309   38.3598   62.4103 C   0  0  0  0  0  0  0  0  0  0  0  0
 29 30  1  0
 30 31  1  0
 30 32  1  0
 30 24  1  0
 24 25  1  0
 24 28  2  0
 25 26  1  0
 26 27  2  0
 27 28  1  0
 28  1  1  0
  1  2  2  0
  2  3  1  0
  2  9  1  0
  3  4  1  0
  4  5  2  0
  4  6  1  0
  6  7  2  0
  6  8  1  0
  7 11  1  0
 11 12  2  0
 11 16  1  0
 12 13  1  0
 13 14  2  0
 14 15  1  0
 15 17  1  0
 15 16  2  0
 17 18  1  0
 18 19  2  0
 18 23  1  0
 19 20  1  0
 20 21  2  0
 21 22  1  0
 22 23  2  0
  8  9  1  0
  9 10  2  0
M  CHG  1  27   1
M  END
>  <minimizedAffinity>  (72) 
-8.97923

$$$$
data/reference_output_2/data/smiles/93452.pdb
     RDKit          3D

 26 29  0  0  0  0  0  0  0  0999 V2000
   70.1691   48.2301   57.2891 C   0  0  0  0  0  0  0  0  0  0  0  0
   70.8993   48.9520   58.2347 C   0  0  0  0  0  0  0  0  0  0  0  0
   71.6990   48.3778   59.1849 C   0  0  0  0  0  0  0  0  0  0  0  0
   71.7881   47.0014   59.2111 C   0  0  0  0  0  0  0  0  0  0  0  0
   72.5718   46.4151   60.1448 F   0  0  0  0  0  0  0  0  0  0  0  0
   71.0659   46.2578   58.2748 C   0  0  0  0  0  0  0  0  0  0  0  0
   70.2723   46.8698   57.3319 C   0  0  0  0  0  0  0  0  0  0  0  0
   71.1876   44.8389   58.3417 N   0  0  0  0  0  0  0  0  0  0  0  0
   72.4377   44.0719   58.3519 C   0  0  0  0  0  0  0  0  0  0  0  0
   72.1748   42.8142   57.5468 C   0  0  0  0  0  0  0  0  0  0  0  0
   70.9463   42.1602   58.1939 C   0  0  0  0  0  0  0  0  0  0  0  0
   69.9469   43.6413   58.4272 S   0  0  0  0  0  0  0  0  0  0  0  0
   68.9723   43.7350   57.3089 O   0  0  0  0  0  0  0  0  0  0  0  0
   69.2805   43.6307   59.7696 O   0  0  0  0  0  0  0  0  0  0  0  0
   69.3517   49.0101   56.3182 C   0  0  0  0  0  0  0  0  0  0  0  0
   70.7268   48.3411   51.1158 O   0  0  0  0  0  0  0  0  0  0  0  0
   70.3840   48.4590   52.3144 C   0  0  0  0  0  0  0  0  0  0  0  0
   71.0916   49.2684   53.1269 N   0  0  0  0  0  0  0  0  0  0  0  0
   70.7388   49.4004   54.3914 N   0  0  0  0  0  0  0  0  0  0  0  0
   69.6876   48.7528   54.9136 C   0  0  0  0  0  0  0  0  0  0  0  0
   68.9521   47.9258   54.1206 C   0  0  0  0  0  0  0  0  0  0  0  0
   69.2966   47.7721   52.8032 C   0  0  0  0  0  0  0  0  0  0  0  0
   68.4655   46.8827   51.9583 C   0  0  0  0  0  0  0  0  0  0  0  0
   68.2435   45.5981   52.6692 C   0  0  0  0  0  0  0  0  0  0  0  0
   67.9380   45.6928   54.1169 C   0  0  0  0  0  0  0  0  0  0  0  0
   67.7933   47.1363   54.6279 C   0  0  0  0  0  0  0  0  0  0  0  0
 16 17  2  0
 17 18  1  0
 17 22  1  0
 18 19  1  0
 19 20  2  0
 20 15  1  0
 20 21  1  0
 15  1  1  0
  1  2  2  0
  1  7  1  0
  2  3  1  0
  3  4  2  0
  4  5  1  0
  4  6  1  0
  6  8  1  0
  6  7  2  0
  8  9  1  0
  8 12  1  0
  9 10  1  0
 10 11  1  0
 11 12  1  0
 12 13  2  0
 12 14  2  0
 21 22  2  0
 21 26  1  0
 22 23  1  0
 23 24  1  0
 24 25  1  0
 25 26  1  0
M  END
>  <minimizedAffinity>  (73) 
-8.70744

$$$$
data/reference_output_2/data/smiles/93507.pdb
     RDKit          3D

 31 35  0  0  0  0  0  0  0  0999 V2000
   71.6454   37.4323   58.4509 C   0  0  0  0  0  0  0  0  0  0  0  0
   71.0459   36.6299   59.3962 C   0  0  0  0  0  0  0  0  0  0  0  0
   71.2316   35.2507   59.3896 C   0  0  0  0  0  0  0  0  0  0  0  0
   72.0223   34.6634   58.4308 C   0  0  0  0  0  0  0  0  0  0  0  0
   72.3915   33.3855   58.1608 N   0  0  0  0  0  0  0  0  0  0  0  0
   73.1718   33.3571   57.1199 N   0  0  0  0  0  0  0  0  0  0  0  0
   73.3561   34.5950   56.6540 C   0  0  0  0  0  0  0  0  0  0  0  0
   72.6348   35.4394   57.4707 C   0  0  0  0  0  0  0  0  0  0  0  0
   72.4274   36.8077   57.5094 C   0  0  0  0  0  0  0  0  0  0  0  0
   74.1629   34.9898   55.5071 C   0  0  0  0  0  0  0  0  0  0  0  0
   73.6225   35.4098   54.3155 C   0  0  0  0  0  0  0  0  0  0  0  0
   74.3799   35.7903   53.2262 C   0  0  0  0  0  0  0  0  0  0  0  0
   75.7543   35.7551   53.3147 C   0  0  0  0  0  0  0  0  0  0  0  0
   76.4999   36.1263   52.2463 F   0  0  0  0  0  0  0  0  0  0  0  0
   76.3397   35.3402   54.4926 C   0  0  0  0  0  0  0  0  0  0  0  0
   75.5605   34.9658   55.5661 C   0  0  0  0  0  0  0  0  0  0  0  0
   71.7625   41.0630   58.7340 C   0  0  0  0  0  0  0  0  0  0  0  0
   70.5257   40.8496   58.2542 N   0  0  0  0  0  0  0  0  0  0  0  0
   70.3377   39.5498   58.0984 N   0  0  0  0  0  0  0  0  0  0  0  0
   71.4411   38.8771   58.4693 C   0  0  0  0  0  0  0  0  0  0  0  0
   72.3054   39.8282   58.8572 N   0  0  0  0  0  0  0  0  0  0  0  0
   72.4578   42.3334   59.0783 C   0  0  0  0  0  0  0  0  0  0  0  0
   73.6596   46.9287   61.3824 C   0  0  0  0  0  0  0  0  0  0  0  0
   72.5304   46.6903   60.4363 C   0  0  0  0  0  0  0  0  0  0  0  0
   71.4889   47.3663   60.6156 O   0  0  0  0  0  0  0  0  0  0  0  0
   72.6059   45.7554   59.3831 N   0  0  0  0  0  0  0  0  0  0  0  0
   71.4719   45.5808   58.5086 C   0  0  0  0  0  0  0  0  0  0  0  0
   71.1121   44.1433   58.2502 C   0  0  0  0  0  0  0  0  0  0  0  0
   72.2940   43.3501   58.1059 N   0  0  0  0  0  0  0  0  0  0  0  0
   73.4202   44.1615   57.8335 C   0  0  0  0  0  0  0  0  0  0  0  0
   73.7680   44.9394   59.1117 C   0  0  0  0  0  0  0  0  0  0  0  0
 23 24  1  0
 24 25  2  0
 24 26  1  0
 26 27  1  0
 26 31  1  0
 27 28  1  0
 28 29  1  0
 29 22  1  0
 29 30  1  0
 22 17  1  0
 17 18  2  0
 17 21  1  0
 18 19  1  0
 19 20  2  0
 20  1  1  0
 20 21  1  0
  1  2  2  0
  1  9  1  0
  2  3  1  0
  3  4  2  0
  4  5  1  0
  4  8  1  0
  5  6  1  0
  6  7  2  0
  7 10  1  0
  7  8  1  0
 10 11  2  0
 10 16  1  0
 11 12  1  0
 12 13  2  0
 13 14  1  0
 13 15  1  0
 15 16  2  0
  8  9  2  0
 30 31  1  0
M  CHG  1  29   1
M  END
>  <minimizedAffinity>  (74) 
-8.58577

$$$$
data/reference_output_2/data/smiles/93550.pdb
     RDKit          3D

 30 33  0  0  0  0  0  0  0  0999 V2000
   65.9714   42.4476   60.5234 O   0  0  0  0  0  0  0  0  0  0  0  0
   66.6314   41.6581   59.7970 C   0  0  0  0  0  0  0  0  0  0  0  0
   67.4794   42.1553   58.8721 N   0  0  0  0  0  0  0  0  0  0  0  0
   68.1733   41.2821   58.1083 C   0  0  0  0  0  0  0  0  0  0  0  0
   69.0085   41.7815   57.1976 C   0  0  0  0  0  0  0  0  0  0  0  0
   67.9977   39.9266   58.2934 C   0  0  0  0  0  0  0  0  0  0  0  0
   68.6606   39.1571   57.5634 O   0  0  0  0  0  0  0  0  0  0  0  0
   67.1487   39.4220   59.2180 N   0  0  0  0  0  0  0  0  0  0  0  0
   66.4534   40.2931   59.9838 C   0  0  0  0  0  0  0  0  0  0  0  0
   65.6146   39.8150   60.8994 C   0  0  0  0  0  0  0  0  0  0  0  0
   69.1781   43.2195   57.0196 C   0  0  0  0  0  0  0  0  0  0  0  0
   70.1129   43.9028   57.7675 C   0  0  0  0  0  0  0  0  0  0  0  0
   70.3270   45.2573   57.6518 C   0  0  0  0  0  0  0  0  0  0  0  0
   69.5897   46.0016   56.7558 C   0  0  0  0  0  0  0  0  0  0  0  0
   68.6479   45.3411   55.9954 C   0  0  0  0  0  0  0  0  0  0  0  0
   68.4437   43.9689   56.1243 C   0  0  0  0  0  0  0  0  0  0  0  0
   67.8995   46.1003   55.0850 O   0  0  0  0  0  0  0  0  0  0  0  0
   68.5145   46.7698   54.0317 C   0  0  0  0  0  0  0  0  0  0  0  0
   69.0521   48.0138   54.2944 C   0  0  0  0  0  0  0  0  0  0  0  0
   69.6708   48.7188   53.2918 C   0  0  0  0  0  0  0  0  0  0  0  0
   69.7498   48.1802   52.0320 C   0  0  0  0  0  0  0  0  0  0  0  0
   70.3742   48.9308   51.0879 F   0  0  0  0  0  0  0  0  0  0  0  0
   69.2149   46.9472   51.7731 C   0  0  0  0  0  0  0  0  0  0  0  0
   68.5936   46.2281   52.7623 C   0  0  0  0  0  0  0  0  0  0  0  0
   65.4133   38.3857   61.1111 C   0  0  0  0  0  0  0  0  0  0  0  0
   64.5448   37.7322   60.2593 C   0  0  0  0  0  0  0  0  0  0  0  0
   64.2875   36.3715   60.3803 C   0  0  0  0  0  0  0  0  0  0  0  0
   64.9394   35.7040   61.3910 C   0  0  0  0  0  0  0  0  0  0  0  0
   65.7838   36.3592   62.2132 N   0  0  0  0  0  0  0  0  0  0  0  0
   66.0390   37.6765   62.1028 C   0  0  0  0  0  0  0  0  0  0  0  0
  1  2  2  0
  2  3  1  0
  2  9  1  0
  3  4  1  0
  4  5  2  0
  4  6  1  0
  5 11  1  0
 11 12  2  0
 11 16  1  0
 12 13  1  0
 13 14  2  0
 14 15  1  0
 15 17  1  0
 15 16  2  0
 17 18  1  0
 18 19  2  0
 18 24  1  0
 19 20  1  0
 20 21  2  0
 21 22  1  0
 21 23  1  0
 23 24  2  0
  6  7  2  0
  6  8  1  0
  8  9  1  0
  9 10  2  0
 10 25  1  0
 25 26  2  0
 25 30  1  0
 26 27  1  0
 27 28  2  0
 28 29  1  0
 29 30  2  0
M  END
>  <minimizedAffinity>  (75) 
-9.38536

$$$$
data/reference_output_2/data/smiles/93640.pdb
     RDKit          3D

 27 30  0  0  0  0  0  0  0  0999 V2000
   71.1294   43.9128   58.5592 C   0  0  0  0  0  0  0  0  0  0  0  0
   70.1468   43.7461   57.6017 C   0  0  0  0  0  0  0  0  0  0  0  0
   69.5195   44.8393   57.0373 C   0  0  0  0  0  0  0  0  0  0  0  0
   69.8309   46.1365   57.3881 C   0  0  0  0  0  0  0  0  0  0  0  0
   70.8111   46.3012   58.3441 C   0  0  0  0  0  0  0  0  0  0  0  0
   71.4400   45.2097   58.9105 C   0  0  0  0  0  0  0  0  0  0  0  0
   73.0920   42.4040   57.3473 O   0  0  0  0  0  0  0  0  0  0  0  0
   72.7978   42.0468   58.5204 C   0  0  0  0  0  0  0  0  0  0  0  0
   71.7939   42.8067   59.1600 N   0  0  0  0  0  0  0  0  0  0  0  0
   73.4952   40.8953   59.1342 C   0  0  0  0  0  0  0  0  0  0  0  0
   72.7377   39.6349   58.9541 C   0  0  0  0  0  0  0  0  0  0  0  0
   73.2715   38.3918   59.2114 C   0  0  0  0  0  0  0  0  0  0  0  0
   72.5529   37.2264   59.0393 C   0  0  0  0  0  0  0  0  0  0  0  0
   71.2476   37.2879   58.5920 C   0  0  0  0  0  0  0  0  0  0  0  0
   70.7189   38.5309   58.3361 C   0  0  0  0  0  0  0  0  0  0  0  0
   71.4419   39.7025   58.5101 C   0  0  0  0  0  0  0  0  0  0  0  0
   69.1339   47.2974   56.7583 C   0  0  0  0  0  0  0  0  0  0  0  0
   68.7815   47.0300   55.3772 N   0  0  0  0  0  0  0  0  0  0  0  0
   69.3571   47.6109   54.3066 C   0  0  0  0  0  0  0  0  0  0  0  0
   68.7948   47.1386   53.1442 C   0  0  0  0  0  0  0  0  0  0  0  0
   68.9923   47.3806   51.8009 C   0  0  0  0  0  0  0  0  0  0  0  0
   69.8853   48.2237   51.4655 O   0  0  0  0  0  0  0  0  0  0  0  0
   68.2508   46.7325   50.8812 N   0  0  0  0  0  0  0  0  0  0  0  0
   67.3193   45.8487   51.2870 C   0  0  0  0  0  0  0  0  0  0  0  0
   67.1290   45.6157   52.5978 N   0  0  0  0  0  0  0  0  0  0  0  0
   67.8280   46.2221   53.5704 C   0  0  0  0  0  0  0  0  0  0  0  0
   67.8596   46.1942   54.9071 N   0  0  0  0  0  0  0  0  0  0  0  0
  7  8  2  0
  8 10  1  0
  8  9  1  0
 10 11  1  0
 11 12  2  0
 11 16  1  0
 12 13  1  0
 13 14  2  0
 14 15  1  0
 15 16  2  0
  9  1  1  0
  1  2  2  0
  1  6  1  0
  2  3  1  0
  3  4  2  0
  4 17  1  0
  4  5  1  0
 17 18  1  0
 18 19  1  0
 18 27  1  0
 19 20  2  0
 20 21  1  0
 20 26  1  0
 21 22  2  0
 21 23  1  0
 23 24  1  0
 24 25  2  0
 25 26  1  0
 26 27  2  0
  5  6  2  0
M  END
>  <minimizedAffinity>  (76) 
-8.68188

$$$$
data/reference_output_2/data/smiles/93714.pdb
     RDKit          3D

 28 30  0  0  0  0  0  0  0  0999 V2000
   71.4222   41.3410   58.1637 C   0  0  0  0  0  0  0  0  0  0  0  0
   72.4860   42.3088   58.3559 C   0  0  0  0  0  0  0  0  0  0  0  0
   72.3479   43.6223   58.3407 C   0  0  0  0  0  0  0  0  0  0  0  0
   71.1154   44.2808   58.1298 C   0  0  0  0  0  0  0  0  0  0  0  0
   70.0816   43.4155   57.9331 C   0  0  0  0  0  0  0  0  0  0  0  0
   70.1951   42.0585   57.9425 C   0  0  0  0  0  0  0  0  0  0  0  0
   70.9934   46.0039   58.3489 S   0  0  0  0  0  0  0  0  0  0  0  0
   71.0400   46.2470   59.8551 O   0  0  0  0  0  0  0  0  0  0  0  0
   72.2319   46.5923   57.7097 O   0  0  0  0  0  0  0  0  0  0  0  0
   69.5823   46.7492   57.7813 N   0  0  0  0  0  0  0  0  0  0  0  0
   69.0655   46.7513   56.4641 C   0  0  0  0  0  0  0  0  0  0  0  0
   69.2647   47.8252   55.6455 C   0  0  0  0  0  0  0  0  0  0  0  0
   68.8749   47.7797   54.3353 C   0  0  0  0  0  0  0  0  0  0  0  0
   68.2742   46.6474   53.8223 C   0  0  0  0  0  0  0  0  0  0  0  0
   68.0839   45.5862   54.6751 C   0  0  0  0  0  0  0  0  0  0  0  0
   68.4825   45.6528   55.9859 N   0  0  0  0  0  0  0  0  0  0  0  0
   71.6815   38.8010   58.4348 C   0  0  0  0  0  0  0  0  0  0  0  0
   71.5401   40.1058   58.3027 C   0  0  0  0  0  0  0  0  0  0  0  0
   72.5651   35.2422   57.6950 C   0  0  0  0  0  0  0  0  0  0  0  0
   72.5463   36.6151   57.6298 C   0  0  0  0  0  0  0  0  0  0  0  0
   71.8306   37.3464   58.5565 C   0  0  0  0  0  0  0  0  0  0  0  0
   71.1665   36.6622   59.5258 C   0  0  0  0  0  0  0  0  0  0  0  0
   71.1567   35.2966   59.6311 C   0  0  0  0  0  0  0  0  0  0  0  0
   71.8724   34.5892   58.6902 C   0  0  0  0  0  0  0  0  0  0  0  0
   71.8877   33.1858   58.7578 O   0  0  0  0  0  0  0  0  0  0  0  0
   74.3506   33.8262   57.0494 O   0  0  0  0  0  0  0  0  0  0  0  0
   73.2968   34.4588   56.7211 C   0  0  0  0  0  0  0  0  0  0  0  0
   72.9160   34.3384   55.3840 O   0  0  0  0  0  0  0  0  0  0  0  0
 26 27  2  0
 27 28  1  0
 27 19  1  0
 19 20  2  0
 19 24  1  0
 20 21  1  0
 21 17  1  0
 21 22  2  0
 17 18  3  0
 18  1  1  0
  1  2  2  0
  1  6  1  0
  2  3  1  0
  3  4  2  0
  4  7  1  0
  4  5  1  0
  7  8  2  0
  7  9  2  0
  7 10  1  0
 10 11  1  0
 11 12  2  0
 11 16  1  0
 12 13  1  0
 13 14  2  0
 14 15  1  0
 15 16  2  0
  5  6  2  0
 22 23  1  0
 23 24  2  0
 24 25  1  0
M  END
>  <minimizedAffinity>  (77) 
-8.51958

$$$$
data/reference_output_2/data/smiles/93845.pdb
     RDKit          3D

 28 32  0  0  0  0  0  0  0  0999 V2000
   69.7111   46.6506   57.4548 C   0  0  0  0  0  0  0  0  0  0  0  0
   69.7300   45.3237   57.2740 N   0  0  0  0  0  0  0  0  0  0  0  0
   70.6135   44.7315   58.0513 N   0  0  0  0  0  0  0  0  0  0  0  0
   71.2454   45.6502   58.8091 C   0  0  0  0  0  0  0  0  0  0  0  0
   72.2387   45.5619   59.7701 C   0  0  0  0  0  0  0  0  0  0  0  0
   72.7126   46.6892   60.4046 C   0  0  0  0  0  0  0  0  0  0  0  0
   72.1491   47.8937   60.0334 C   0  0  0  0  0  0  0  0  0  0  0  0
   71.1514   47.9926   59.0697 C   0  0  0  0  0  0  0  0  0  0  0  0
   70.6881   46.8562   58.4441 C   0  0  0  0  0  0  0  0  0  0  0  0
   73.7464   46.6249   61.4046 N   0  0  0  0  0  0  0  0  0  0  0  0
   74.5517   45.4384   61.4127 C   0  0  0  0  0  0  0  0  0  0  0  0
   75.7075   45.4124   62.3070 C   0  0  0  0  0  0  0  0  0  0  0  0
   75.7863   46.4382   63.2991 N   0  0  0  0  0  0  0  0  0  0  0  0
   74.5207   47.0481   63.6151 C   0  0  0  0  0  0  0  0  0  0  0  0
   73.9559   47.6947   62.3455 C   0  0  0  0  0  0  0  0  0  0  0  0
   68.9397   49.2260   57.4493 O   0  0  0  0  0  0  0  0  0  0  0  0
   68.7567   47.9102   56.7085 S   0  0  0  0  0  0  0  0  0  0  0  0
   67.2861   47.5923   56.7816 O   0  0  0  0  0  0  0  0  0  0  0  0
   69.2151   48.1953   55.0479 C   0  0  0  0  0  0  0  0  0  0  0  0
   70.0224   49.2969   54.7547 C   0  0  0  0  0  0  0  0  0  0  0  0
   70.3775   49.5894   53.4683 C   0  0  0  0  0  0  0  0  0  0  0  0
   69.9455   48.7999   52.4312 C   0  0  0  0  0  0  0  0  0  0  0  0
   69.1455   47.7059   52.7112 C   0  0  0  0  0  0  0  0  0  0  0  0
   68.6974   46.8787   51.6967 C   0  0  0  0  0  0  0  0  0  0  0  0
   67.9099   45.7757   51.9324 C   0  0  0  0  0  0  0  0  0  0  0  0
   67.5569   45.4827   53.2158 C   0  0  0  0  0  0  0  0  0  0  0  0
   67.9873   46.2878   54.2590 C   0  0  0  0  0  0  0  0  0  0  0  0
   68.7754   47.3963   54.0233 C   0  0  0  0  0  0  0  0  0  0  0  0
 16 17  2  0
 17 18  2  0
 17 19  1  0
 17  1  1  0
 19 20  2  0
 19 28  1  0
 20 21  1  0
 21 22  2  0
 22 23  1  0
 23 24  1  0
 23 28  2  0
 24 25  2  0
 25 26  1  0
 26 27  2  0
 27 28  1  0
  1  2  2  0
  1  9  1  0
  2  3  1  0
  3  4  1  0
  4  5  1  0
  4  9  2  0
  5  6  2  0
  6 10  1  0
  6  7  1  0
 10 11  1  0
 10 15  1  0
 11 12  1  0
 12 13  1  0
 13 14  1  0
 14 15  1  0
  7  8  2  0
  8  9  1  0
M  CHG  1  13   1
M  END
>  <minimizedAffinity>  (78) 
-8.67080

$$$$
data/reference_output_2/data/smiles/94061.pdb
     RDKit          3D

 25 28  0  0  0  0  0  0  0  0999 V2000
   67.4060   42.3779   56.3593 C   0  0  0  0  0  0  0  0  0  0  0  0
   66.6790   42.0442   55.4005 O   0  0  0  0  0  0  0  0  0  0  0  0
   68.0451   43.6401   56.2974 N   0  0  0  0  0  0  0  0  0  0  0  0
   68.7303   41.4513   58.3925 C   0  0  2  0  0  0  0  0  0  0  0  0
   68.5719   40.3472   57.3700 C   0  0  0  0  0  0  0  0  0  0  0  0
   67.5825   41.4973   57.4926 C   0  0  2  0  0  0  0  0  0  0  0  0
   72.4115   43.6243   58.1503 C   0  0  0  0  0  0  0  0  0  0  0  0
   71.3197   44.2132   58.7198 C   0  0  0  0  0  0  0  0  0  0  0  0
   70.1188   43.5262   58.7995 C   0  0  0  0  0  0  0  0  0  0  0  0
   69.9399   42.2439   58.3294 C   0  0  0  0  0  0  0  0  0  0  0  0
   71.0941   41.6859   57.7531 C   0  0  0  0  0  0  0  0  0  0  0  0
   72.2832   42.3411   57.6626 C   0  0  0  0  0  0  0  0  0  0  0  0
   73.9398   45.5753   58.2580 C   0  0  0  0  0  0  0  0  0  0  0  0
   73.6350   44.2355   58.0324 O   0  0  0  0  0  0  0  0  0  0  0  0
   67.8213   44.4395   55.1523 N   0  0  0  0  0  0  0  0  0  0  0  0
   68.3168   45.7721   55.2315 C   0  0  0  0  0  0  0  0  0  0  0  0
   68.5214   46.3618   56.4281 N   0  0  0  0  0  0  0  0  0  0  0  0
   68.9832   47.5997   56.5232 N   0  0  0  0  0  0  0  0  0  0  0  0
   69.2814   48.3587   55.4554 C   0  0  0  0  0  0  0  0  0  0  0  0
   69.0963   47.8178   54.2022 C   0  0  0  0  0  0  0  0  0  0  0  0
   69.3926   48.5705   53.0893 C   0  0  0  0  0  0  0  0  0  0  0  0
   69.1874   47.9758   51.8661 C   0  0  0  0  0  0  0  0  0  0  0  0
   68.7092   46.6936   51.7606 C   0  0  0  0  0  0  0  0  0  0  0  0
   68.4183   45.9564   52.8750 C   0  0  0  0  0  0  0  0  0  0  0  0
   68.6141   46.5267   54.1185 C   0  0  0  0  0  0  0  0  0  0  0  0
 13 14  1  0
 14  7  1  0
  7  8  2  0
  7 12  1  0
  8  9  1  0
  9 10  2  0
  4 10  1  6
 10 11  1  0
  4  5  1  0
  4  6  1  0
  5  6  1  0
  6  1  1  6
  1  2  2  0
  1  3  1  0
  3 15  1  0
 15 16  1  0
 16 17  2  0
 16 25  1  0
 17 18  1  0
 18 19  2  0
 19 20  1  0
 20 21  1  0
 20 25  2  0
 21 22  2  0
 22 23  1  0
 23 24  2  0
 24 25  1  0
 11 12  2  0
M  END
>  <minimizedAffinity>  (79) 
-8.78388

$$$$
data/reference_output_2/data/smiles/94070.pdb
     RDKit          3D

 25 27  0  0  0  0  0  0  0  0999 V2000
   68.8509   42.9086   57.1809 C   0  0  0  0  0  0  0  0  0  0  0  0
   69.2056   44.1826   56.7828 N   0  0  0  0  0  0  0  0  0  0  0  0
   68.4848   44.5710   55.7651 N   0  0  0  0  0  0  0  0  0  0  0  0
   67.6739   43.5805   55.4961 N   0  0  0  0  0  0  0  0  0  0  0  0
   67.8641   42.5253   56.3495 C   0  0  0  0  0  0  0  0  0  0  0  0
   68.5839   45.8389   55.0872 C   0  0  0  0  0  0  0  0  0  0  0  0
   69.0438   46.9578   55.7421 C   0  0  0  0  0  0  0  0  0  0  0  0
   69.1374   48.1890   55.0848 C   0  0  0  0  0  0  0  0  0  0  0  0
   68.7695   48.3120   53.7635 C   0  0  0  0  0  0  0  0  0  0  0  0
   68.3091   47.1908   53.1107 C   0  0  0  0  0  0  0  0  0  0  0  0
   68.2169   45.9584   53.7694 C   0  0  0  0  0  0  0  0  0  0  0  0
   67.7692   44.8489   53.1481 F   0  0  0  0  0  0  0  0  0  0  0  0
   70.5551   41.3194   58.2144 N   0  0  0  0  0  0  0  0  0  0  0  0
   69.5019   42.2058   58.2801 C   0  0  0  0  0  0  0  0  0  0  0  0
   69.0346   42.4398   59.4564 O   0  0  0  0  0  0  0  0  0  0  0  0
   71.2202   40.6152   59.2701 C   0  0  0  0  0  0  0  0  0  0  0  0
   69.0365   38.6432   60.1098 C   0  0  0  0  0  0  0  0  0  0  0  0
   70.2867   38.3314   59.4022 C   0  0  0  0  0  0  0  0  0  0  0  0
   70.4605   36.9756   59.0927 C   0  0  0  0  0  0  0  0  0  0  0  0
   71.6101   36.4944   58.4955 C   0  0  0  0  0  0  0  0  0  0  0  0
   72.6108   37.3649   58.1954 C   0  0  0  0  0  0  0  0  0  0  0  0
   72.4534   38.6897   58.4893 C   0  0  0  0  0  0  0  0  0  0  0  0
   71.2818   39.1848   59.0978 C   0  0  0  0  0  0  0  0  0  0  0  0
   67.0645   41.2609   56.2481 C   0  0  0  0  0  0  0  0  0  0  0  0
   67.7000   40.3102   55.4643 O   0  0  0  0  0  0  0  0  0  0  0  0
 17 18  1  0
 18 19  2  0
 18 23  1  0
 19 20  1  0
 20 21  2  0
 21 22  1  0
 22 23  2  0
 23 16  1  0
 16 13  1  0
 13 14  1  0
 14 15  2  0
 14  1  1  0
  1  2  2  0
  1  5  1  0
  2  3  1  0
  3  6  1  0
  3  4  1  0
  6  7  2  0
  6 11  1  0
  7  8  1  0
  8  9  2  0
  9 10  1  0
 10 11  2  0
 11 12  1  0
  4  5  2  0
  5 24  1  0
 24 25  1  0
M  END
>  <minimizedAffinity>  (80) 
-8.51172

$$$$
data/reference_output_2/data/smiles/94114.pdb
     RDKit          3D

 22 23  0  0  0  0  0  0  0  0999 V2000
   74.0942   50.2803   53.6817 O   0  0  0  0  0  0  0  0  0  0  0  0
   73.4941   50.8584   54.6555 C   0  0  0  0  0  0  0  0  0  0  0  0
   74.3632   51.3287   55.6710 N   0  0  0  0  0  0  0  0  0  0  0  0
   75.7554   51.1880   55.6258 N   0  0  0  0  0  0  0  0  0  0  0  0
   76.3781   50.1465   56.0363 C   0  0  0  0  0  0  0  0  0  0  0  0
   77.8216   49.9965   55.9917 C   0  0  0  0  0  0  0  0  0  0  0  0
   78.4289   48.8727   55.4799 C   0  0  0  0  0  0  0  0  0  0  0  0
   79.8267   48.7690   55.4568 C   0  0  0  0  0  0  0  0  0  0  0  0
   80.6201   49.7845   55.9427 C   0  0  0  0  0  0  0  0  0  0  0  0
   80.0008   50.8694   56.4373 N   0  0  0  0  0  0  0  0  0  0  0  0
   78.6421   50.9923   56.4705 C   0  0  0  0  0  0  0  0  0  0  0  0
   72.0428   50.9639   54.6179 C   0  0  0  0  0  0  0  0  0  0  0  0
   71.3112   49.7605   54.4205 N   0  0  0  0  0  0  0  0  0  0  0  0
   70.3534   49.6032   53.3816 C   0  0  0  0  0  0  0  0  0  0  0  0
   70.1949   50.6132   52.6240 O   0  0  0  0  0  0  0  0  0  0  0  0
   69.5977   48.3819   53.1794 C   0  0  0  0  0  0  0  0  0  0  0  0
   69.2904   47.9083   51.9257 C   0  0  0  0  0  0  0  0  0  0  0  0
   68.5636   46.7321   51.7520 C   0  0  0  0  0  0  0  0  0  0  0  0
   68.1277   46.0015   52.8331 C   0  0  0  0  0  0  0  0  0  0  0  0
   68.4345   46.4747   54.0924 C   0  0  0  0  0  0  0  0  0  0  0  0
   67.9952   45.7404   55.1472 F   0  0  0  0  0  0  0  0  0  0  0  0
   69.1519   47.6366   54.2499 C   0  0  0  0  0  0  0  0  0  0  0  0
  1  2  2  0
  2 12  1  0
  2  3  1  0
 12 13  1  0
 13 14  1  0
 14 15  2  0
 14 16  1  0
 16 17  2  0
 16 22  1  0
 17 18  1  0
 18 19  2  0
 19 20  1  0
 20 21  1  0
 20 22  2  0
  3  4  1  0
  4  5  2  0
  5  6  1  0
  6  7  2  0
  6 11  1  0
  7  8  1  0
  8  9  2  0
  9 10  1  0
 10 11  2  0
M  END
>  <minimizedAffinity>  (81) 
-8.54565

$$$$
data/reference_output_2/data/smiles/94189.pdb
     RDKit          3D

 31 34  0  0  0  0  0  0  0  0999 V2000
   67.0925   37.1677   59.8663 O   0  0  0  0  0  0  0  0  0  0  0  0
   67.1108   38.3750   59.5437 C   0  0  0  0  0  0  0  0  0  0  0  0
   68.1049   38.9036   58.8057 N   0  0  0  0  0  0  0  0  0  0  0  0
   68.1382   40.2128   58.4485 C   0  0  0  0  0  0  0  0  0  0  0  0
   69.1150   40.7216   57.7258 C   0  0  0  0  0  0  0  0  0  0  0  0
   67.1016   41.0274   58.8642 C   0  0  0  0  0  0  0  0  0  0  0  0
   67.1229   42.2422   58.5374 O   0  0  0  0  0  0  0  0  0  0  0  0
   66.1106   40.4928   59.6020 N   0  0  0  0  0  0  0  0  0  0  0  0
   66.0766   39.1893   59.9590 C   0  0  0  0  0  0  0  0  0  0  0  0
   65.0927   38.6803   60.6853 C   0  0  0  0  0  0  0  0  0  0  0  0
   65.0452   37.2717   61.0774 C   0  0  0  0  0  0  0  0  0  0  0  0
   65.4867   36.9419   62.3500 C   0  0  0  0  0  0  0  0  0  0  0  0
   65.4803   35.6488   62.8057 C   0  0  0  0  0  0  0  0  0  0  0  0
   65.0153   34.6545   61.9600 C   0  0  0  0  0  0  0  0  0  0  0  0
   64.9808   32.9985   62.4759 Cl  0  0  0  0  0  0  0  0  0  0  0  0
   64.5752   34.9827   60.6915 C   0  0  0  0  0  0  0  0  0  0  0  0
   64.5892   36.2826   60.2523 C   0  0  0  0  0  0  0  0  0  0  0  0
   69.1615   42.1336   57.3340 C   0  0  0  0  0  0  0  0  0  0  0  0
   70.0340   42.9589   58.0005 C   0  0  0  0  0  0  0  0  0  0  0  0
   70.1374   44.2972   57.6920 C   0  0  0  0  0  0  0  0  0  0  0  0
   69.3655   44.8576   56.7002 C   0  0  0  0  0  0  0  0  0  0  0  0
   68.4900   43.9398   56.0589 C   0  0  0  0  0  0  0  0  0  0  0  0
   68.4130   42.6540   56.3777 N   0  0  0  0  0  0  0  0  0  0  0  0
   69.3717   46.1418   56.3087 O   0  0  0  0  0  0  0  0  0  0  0  0
   68.5552   46.9841   55.6350 C   0  0  0  0  0  0  0  0  0  0  0  0
   68.5335   46.9206   54.1616 C   0  0  0  0  0  0  0  0  0  0  0  0
   67.7406   46.0468   53.4996 C   0  0  0  0  0  0  0  0  0  0  0  0
   67.7705   46.0210   52.1097 C   0  0  0  0  0  0  0  0  0  0  0  0
   68.6046   46.8845   51.4286 C   0  0  0  0  0  0  0  0  0  0  0  0
   69.4028   47.7657   52.1023 C   0  0  0  0  0  0  0  0  0  0  0  0
   69.3711   47.7876   53.4716 C   0  0  0  0  0  0  0  0  0  0  0  0
  1  2  2  0
  2  3  1  0
  2  9  1  0
  3  4  1  0
  4  5  2  0
  4  6  1  0
  5 18  1  0
 18 19  2  0
 18 23  1  0
 19 20  1  0
 20 21  2  0
 21 24  1  0
 21 22  1  0
 24 25  1  0
 25 26  1  0
 26 27  2  0
 26 31  1  0
 27 28  1  0
 28 29  2  0
 29 30  1  0
 30 31  2  0
 22 23  2  0
  6  7  2  0
  6  8  1  0
  8  9  1  0
  9 10  2  0
 10 11  1  0
 11 12  2  0
 11 17  1  0
 12 13  1  0
 13 14  2  0
 14 15  1  0
 14 16  1  0
 16 17  2  0
M  END
>  <minimizedAffinity>  (82) 
-8.51947

$$$$
data/reference_output_2/data/smiles/94286.pdb
     RDKit          3D

 25 28  0  0  0  0  0  0  0  0999 V2000
   70.6124   44.4115   57.5959 O   0  0  0  0  0  0  0  0  0  0  0  0
   69.5728   44.0313   57.0059 C   0  0  0  0  0  0  0  0  0  0  0  0
   68.7773   44.7826   56.2311 N   0  0  0  0  0  0  0  0  0  0  0  0
   67.8127   43.9767   55.8233 N   0  0  0  0  0  0  0  0  0  0  0  0
   67.9980   42.7456   56.3316 C   0  0  0  0  0  0  0  0  0  0  0  0
   67.3093   41.5551   56.2317 C   0  0  0  0  0  0  0  0  0  0  0  0
   67.7479   40.3979   56.8891 C   0  0  0  0  0  0  0  0  0  0  0  0
   68.8927   40.4743   57.6451 C   0  0  0  0  0  0  0  0  0  0  0  0
   69.5220   41.6644   57.7050 N   0  0  0  0  0  0  0  0  0  0  0  0
   69.1113   42.7587   57.0860 N   0  0  0  0  0  0  0  0  0  0  0  0
   69.4207   39.3049   58.3677 C   0  0  0  0  0  0  0  0  0  0  0  0
   70.7163   38.8765   58.1455 C   0  0  0  0  0  0  0  0  0  0  0  0
   71.2611   37.7872   58.7957 C   0  0  0  0  0  0  0  0  0  0  0  0
   70.5101   37.0739   59.7086 C   0  0  0  0  0  0  0  0  0  0  0  0
   69.2184   37.4937   59.9363 C   0  0  0  0  0  0  0  0  0  0  0  0
   68.6682   38.6024   59.2731 C   0  0  0  0  0  0  0  0  0  0  0  0
   68.9277   46.2025   55.8937 C   0  0  0  0  0  0  0  0  0  0  0  0
   68.7054   46.3628   54.4475 C   0  0  0  0  0  0  0  0  0  0  0  0
   67.8940   45.4494   53.7666 C   0  0  0  0  0  0  0  0  0  0  0  0
   67.6825   45.5893   52.4248 C   0  0  0  0  0  0  0  0  0  0  0  0
   66.8950   44.7009   51.7686 F   0  0  0  0  0  0  0  0  0  0  0  0
   68.2763   46.6389   51.7482 C   0  0  0  0  0  0  0  0  0  0  0  0
   69.0821   47.5477   52.4186 C   0  0  0  0  0  0  0  0  0  0  0  0
   69.6794   48.5868   51.7880 F   0  0  0  0  0  0  0  0  0  0  0  0
   69.2966   47.4050   53.7801 C   0  0  0  0  0  0  0  0  0  0  0  0
  1  2  2  0
  2  3  1  0
  2 10  1  0
  3 17  1  0
  3  4  1  0
 17 18  1  0
 18 19  2  0
 18 25  1  0
 19 20  1  0
 20 21  1  0
 20 22  2  0
 22 23  1  0
 23 24  1  0
 23 25  2  0
  4  5  2  0
  5  6  1  0
  5 10  1  0
  6  7  2  0
  7  8  1  0
  8 11  1  0
  8  9  2  0
 11 12  2  0
 11 16  1  0
 12 13  1  0
 13 14  2  0
 14 15  1  0
 15 16  2  0
  9 10  1  0
M  END
>  <minimizedAffinity>  (83) 
-9.30256

$$$$
data/reference_output_2/data/smiles/94408.pdb
     RDKit          3D

 23 25  0  0  0  0  0  0  0  0999 V2000
   71.9488   51.0120   54.3447 N   0  0  0  0  0  0  0  0  0  0  0  0
   70.8763   51.7642   54.0425 C   0  0  0  0  0  0  0  0  0  0  0  0
   69.8783   50.9515   53.6293 C   0  0  0  0  0  0  0  0  0  0  0  0
   70.3363   49.6599   53.6725 C   0  0  0  0  0  0  0  0  0  0  0  0
   71.5873   49.7450   54.1101 N   0  0  0  0  0  0  0  0  0  0  0  0
   69.5967   48.4538   53.3134 C   0  0  0  0  0  0  0  0  0  0  0  0
   69.4419   48.0650   51.9988 C   0  0  0  0  0  0  0  0  0  0  0  0
   68.7464   46.9280   51.6422 C   0  0  0  0  0  0  0  0  0  0  0  0
   68.1699   46.1230   52.5995 C   0  0  0  0  0  0  0  0  0  0  0  0
   67.4777   44.9947   52.2805 F   0  0  0  0  0  0  0  0  0  0  0  0
   68.3238   46.5100   53.9234 C   0  0  0  0  0  0  0  0  0  0  0  0
   67.7600   45.7241   54.8712 F   0  0  0  0  0  0  0  0  0  0  0  0
   69.0200   47.6477   54.2727 C   0  0  0  0  0  0  0  0  0  0  0  0
   73.1929   51.5079   54.8149 C   0  0  0  0  0  0  0  0  0  0  0  0
   73.8065   50.9840   56.0403 C   0  0  0  0  0  0  0  0  0  0  0  0
   75.5766   49.1713   54.6643 O   0  0  0  0  0  0  0  0  0  0  0  0
   76.0636   49.9775   55.4855 C   0  0  0  0  0  0  0  0  0  0  0  0
   75.2118   50.8768   56.1584 N   0  0  0  0  0  0  0  0  0  0  0  0
   77.4642   49.9596   55.7155 N   0  0  0  0  0  0  0  0  0  0  0  0
   78.3904   49.0653   55.0603 C   0  0  0  0  0  0  0  0  0  0  0  0
   79.7522   49.4268   55.6185 C   0  0  0  0  0  0  0  0  0  0  0  0
   79.3739   49.9316   57.0000 C   0  0  0  0  0  0  0  0  0  0  0  0
   78.1890   50.8390   56.6460 C   0  0  0  0  0  0  0  0  0  0  0  0
 16 17  2  0
 17 18  1  0
 17 19  1  0
 18 15  1  0
 15 14  1  0
 14  1  1  0
  1  2  1  0
  1  5  1  0
  2  3  2  0
  3  4  1  0
  4  6  1  0
  4  5  2  0
  6  7  2  0
  6 13  1  0
  7  8  1  0
  8  9  2  0
  9 10  1  0
  9 11  1  0
 11 12  1  0
 11 13  2  0
 19 20  1  0
 19 23  1  0
 20 21  1  0
 21 22  1  0
 22 23  1  0
M  END
>  <minimizedAffinity>  (84) 
-8.57561

$$$$
data/reference_output_2/data/smiles/94508.pdb
     RDKit          3D

 27 31  0  0  0  0  0  0  0  0999 V2000
   71.4227   47.2946   57.9347 O   0  0  0  0  0  0  0  0  0  0  0  0
   71.0970   46.0647   57.8954 C   0  0  0  0  0  0  0  0  0  0  0  0
   71.9614   45.1065   58.2821 N   0  0  0  0  0  0  0  0  0  0  0  0
   71.6348   43.7905   58.2478 C   0  0  0  0  0  0  0  0  0  0  0  0
   72.5180   42.7984   58.6438 C   0  0  0  0  0  0  0  0  0  0  0  0
   72.1764   41.4577   58.6057 C   0  0  0  0  0  0  0  0  0  0  0  0
   73.0399   40.4826   58.9918 N   0  0  0  0  0  0  0  0  0  0  0  0
   72.7002   39.1807   58.9512 C   0  0  0  0  0  0  0  0  0  0  0  0
   73.5822   38.1775   59.3458 C   0  0  0  0  0  0  0  0  0  0  0  0
   73.2475   36.8403   59.3094 C   0  0  0  0  0  0  0  0  0  0  0  0
   71.9858   36.5103   58.8599 C   0  0  0  0  0  0  0  0  0  0  0  0
   71.0907   37.5095   58.4611 C   0  0  0  0  0  0  0  0  0  0  0  0
   71.4398   38.8490   58.5025 C   0  0  0  0  0  0  0  0  0  0  0  0
   70.5802   39.8232   58.1175 N   0  0  0  0  0  0  0  0  0  0  0  0
   70.9130   41.1263   58.1561 C   0  0  0  0  0  0  0  0  0  0  0  0
   70.0376   42.1272   57.7627 C   0  0  0  0  0  0  0  0  0  0  0  0
   70.3723   43.4623   57.7997 C   0  0  0  0  0  0  0  0  0  0  0  0
   69.5072   44.4343   57.4109 N   0  0  0  0  0  0  0  0  0  0  0  0
   69.8385   45.7333   57.4482 C   0  0  0  0  0  0  0  0  0  0  0  0
   68.9482   46.7674   57.0466 N   0  0  0  0  0  0  0  0  0  0  0  0
   68.0081   46.6073   56.0424 N   0  0  0  0  0  0  0  0  0  0  0  0
   68.3048   46.7394   54.6367 C   0  0  0  0  0  0  0  0  0  0  0  0
   69.1208   47.7549   54.1894 C   0  0  0  0  0  0  0  0  0  0  0  0
   69.4099   47.8898   52.8523 C   0  0  0  0  0  0  0  0  0  0  0  0
   68.8957   47.0193   51.9210 C   0  0  0  0  0  0  0  0  0  0  0  0
   68.0821   46.0121   52.3893 C   0  0  0  0  0  0  0  0  0  0  0  0
   67.7800   45.8581   53.7217 C   0  0  0  0  0  0  0  0  0  0  0  0
  1  2  2  0
  2  3  1  0
  2 19  1  0
  3  4  1  0
  4  5  2  0
  4 17  1  0
  5  6  1  0
  6  7  2  0
  6 15  1  0
  7  8  1  0
  8  9  2  0
  8 13  1  0
  9 10  1  0
 10 11  2  0
 11 12  1  0
 12 13  2  0
 13 14  1  0
 14 15  2  0
 15 16  1  0
 16 17  2  0
 17 18  1  0
 18 19  2  0
 19 20  1  0
 20 21  1  0
 21 22  1  0
 22 23  2  0
 22 27  1  0
 23 24  1  0
 24 25  2  0
 25 26  1  0
 26 27  2  0
M  END
>  <minimizedAffinity>  (85) 
-9.10057

$$$$
data/reference_output_2/data/smiles/94511.pdb
     RDKit          3D

 25 27  0  0  0  0  0  0  0  0999 V2000
   69.4111   47.7540   56.2087 N   0  0  0  0  0  0  0  0  0  0  0  0
   69.9770   48.6607   55.4562 N   0  0  0  0  0  0  0  0  0  0  0  0
   69.8940   48.6826   54.0866 C   0  0  0  0  0  0  0  0  0  0  0  0
   69.1824   47.7104   53.4515 C   0  0  0  0  0  0  0  0  0  0  0  0
   69.0589   47.6681   52.0869 C   0  0  0  0  0  0  0  0  0  0  0  0
   68.3140   46.6318   51.5148 C   0  0  0  0  0  0  0  0  0  0  0  0
   67.6965   45.6521   52.2436 C   0  0  0  0  0  0  0  0  0  0  0  0
   67.8403   45.7231   53.6127 C   0  0  0  0  0  0  0  0  0  0  0  0
   68.5601   46.7184   54.2247 C   0  0  0  0  0  0  0  0  0  0  0  0
   68.7109   46.7951   55.5919 C   0  0  0  0  0  0  0  0  0  0  0  0
   68.1532   45.9048   56.3003 O   0  0  0  0  0  0  0  0  0  0  0  0
   70.5611   49.7443   53.3737 C   0  0  0  0  0  0  0  0  0  0  0  0
   71.8393   49.8222   53.5511 O   0  0  0  0  0  0  0  0  0  0  0  0
   70.0626   50.6914   52.5329 O   0  0  0  0  0  0  0  0  0  0  0  0
   69.5249   47.7961   57.6774 C   0  0  0  0  0  0  0  0  0  0  0  0
   72.4345   50.1766   58.5837 C   0  0  0  0  0  0  0  0  0  0  0  0
   71.0601   49.8015   58.2484 N   0  0  0  0  0  0  0  0  0  0  0  0
   70.8047   48.4311   58.0134 C   0  0  0  0  0  0  0  0  0  0  0  0
   71.7948   47.6116   58.0966 O   0  0  0  0  0  0  0  0  0  0  0  0
   70.0916   50.8699   58.1716 C   0  0  0  0  0  0  0  0  0  0  0  0
   68.7061   50.3986   58.2560 C   0  0  0  0  0  0  0  0  0  0  0  0
   67.7007   50.9407   57.3171 C   0  0  0  0  0  0  0  0  0  0  0  0
   68.1720   51.6739   56.1273 C   0  0  0  0  0  0  0  0  0  0  0  0
   69.3215   52.5527   56.4743 C   0  0  0  0  0  0  0  0  0  0  0  0
   70.4468   51.7228   56.9959 C   0  0  0  0  0  0  0  0  0  0  0  0
 16 17  1  0
 17 18  1  0
 17 20  1  0
 18 19  2  0
 18 15  1  0
 15  1  1  0
  1  2  1  0
  1 10  1  0
  2  3  2  0
  3 12  1  0
  3  4  1  0
 12 13  2  0
 12 14  1  0
  4  5  2  0
  4  9  1  0
  5  6  1  0
  6  7  2  0
  7  8  1  0
  8  9  2  0
  9 10  1  0
 10 11  2  0
 20 21  1  0
 20 25  1  0
 21 22  1  0
 22 23  1  0
 23 24  1  0
 24 25  1  0
M  END
>  <minimizedAffinity>  (86) 
-8.73127

$$$$
data/reference_output_2/data/smiles/94560.pdb
     RDKit          3D

 23 25  0  0  0  0  0  0  0  0999 V2000
   69.8729   45.7686   58.8932 O   0  0  0  0  0  0  0  0  0  0  0  0
   70.3290   45.2223   57.8686 C   0  0  0  0  0  0  0  0  0  0  0  0
   69.6041   45.4722   56.6389 N   0  0  0  0  0  0  0  0  0  0  0  0
   71.5093   44.4060   57.9766 C   0  0  0  0  0  0  0  0  0  0  0  0
   71.4243   43.0153   57.8208 C   0  0  0  0  0  0  0  0  0  0  0  0
   72.5299   42.2042   57.9178 C   0  0  0  0  0  0  0  0  0  0  0  0
   73.7757   42.7351   58.1755 C   0  0  0  0  0  0  0  0  0  0  0  0
   74.8774   41.9588   58.2759 N   0  0  0  0  0  0  0  0  0  0  0  0
   76.0936   42.4549   58.5253 C   0  0  0  0  0  0  0  0  0  0  0  0
   76.2704   43.8170   58.6934 C   0  0  0  0  0  0  0  0  0  0  0  0
   75.1536   44.6091   58.5926 C   0  0  0  0  0  0  0  0  0  0  0  0
   73.9045   44.0968   58.3360 C   0  0  0  0  0  0  0  0  0  0  0  0
   72.7703   44.8887   58.2318 C   0  0  0  0  0  0  0  0  0  0  0  0
   68.5237   46.2166   56.5283 N   0  0  0  0  0  0  0  0  0  0  0  0
   68.0511   46.9622   55.6837 C   0  0  0  0  0  0  0  0  0  0  0  0
   68.6146   47.2785   54.4005 C   0  0  0  0  0  0  0  0  0  0  0  0
   69.3733   48.4667   54.3805 C   0  0  0  0  0  0  0  0  0  0  0  0
   69.9868   48.9270   53.2424 C   0  0  0  0  0  0  0  0  0  0  0  0
   69.9026   48.2588   52.0474 C   0  0  0  0  0  0  0  0  0  0  0  0
   70.5331   48.7476   50.9140 O   0  0  0  0  0  0  0  0  0  0  0  0
   69.1691   47.1069   52.0589 C   0  0  0  0  0  0  0  0  0  0  0  0
   68.5349   46.6305   53.2314 C   0  0  0  0  0  0  0  0  0  0  0  0
   67.8347   45.4587   53.0841 O   0  0  0  0  0  0  0  0  0  0  0  0
  1  2  2  0
  2  3  1  0
  2  4  1  0
  3 14  1  0
 14 15  2  0
 15 16  1  0
 16 17  2  0
 16 22  1  0
 17 18  1  0
 18 19  2  0
 19 20  1  0
 19 21  1  0
 21 22  2  0
 22 23  1  0
  4  5  2  0
  4 13  1  0
  5  6  1  0
  6  7  2  0
  7  8  1  0
  7 12  1  0
  8  9  2  0
  9 10  1  0
 10 11  2  0
 11 12  1  0
 12 13  2  0
M  END
>  <minimizedAffinity>  (87) 
-8.84798

$$$$
data/reference_output_2/data/smiles/94813.pdb
     RDKit          3D

 22 24  0  0  0  0  0  0  0  0999 V2000
   73.2629   51.7607   54.7092 C   0  0  0  0  0  0  0  0  0  0  0  0
   72.0224   51.1544   54.1063 C   0  0  0  0  0  0  0  0  0  0  0  0
   71.6509   49.8663   54.1090 N   0  0  0  0  0  0  0  0  0  0  0  0
   70.4795   49.7205   53.4684 C   0  0  0  0  0  0  0  0  0  0  0  0
   70.1615   50.9698   53.0815 N   0  0  0  0  0  0  0  0  0  0  0  0
   71.0811   51.8016   53.4643 O   0  0  0  0  0  0  0  0  0  0  0  0
   69.6881   48.5189   53.2187 C   0  0  0  0  0  0  0  0  0  0  0  0
   68.9869   47.9172   54.2520 C   0  0  0  0  0  0  0  0  0  0  0  0
   68.2329   46.7807   54.0361 C   0  0  0  0  0  0  0  0  0  0  0  0
   68.1450   46.1970   52.7903 C   0  0  0  0  0  0  0  0  0  0  0  0
   68.8372   46.7842   51.7518 C   0  0  0  0  0  0  0  0  0  0  0  0
   69.5899   47.9242   51.9777 C   0  0  0  0  0  0  0  0  0  0  0  0
   73.7020   51.0481   55.9270 C   0  0  0  0  0  0  0  0  0  0  0  0
   75.4118   49.3652   54.5323 O   0  0  0  0  0  0  0  0  0  0  0  0
   75.9602   50.0834   55.4043 C   0  0  0  0  0  0  0  0  0  0  0  0
   75.1136   50.9482   56.1285 N   0  0  0  0  0  0  0  0  0  0  0  0
   77.3941   50.0224   55.6514 C   0  0  0  0  0  0  0  0  0  0  0  0
   78.2255   49.0471   55.1550 C   0  0  0  0  0  0  0  0  0  0  0  0
   79.5921   49.0235   55.4140 C   0  0  0  0  0  0  0  0  0  0  0  0
   80.1746   49.9967   56.1923 C   0  0  0  0  0  0  0  0  0  0  0  0
   79.3508   50.9808   56.6959 C   0  0  0  0  0  0  0  0  0  0  0  0
   78.0014   51.0092   56.4435 C   0  0  0  0  0  0  0  0  0  0  0  0
 14 15  2  0
 15 16  1  0
 15 17  1  0
 16 13  1  0
 13  1  1  0
  1  2  1  0
  2  3  2  0
  2  6  1  0
  3  4  1  0
  4  7  1  0
  4  5  2  0
  7  8  2  0
  7 12  1  0
  8  9  1  0
  9 10  2  0
 10 11  1  0
 11 12  2  0
  5  6  1  0
 17 18  2  0
 17 22  1  0
 18 19  1  0
 19 20  2  0
 20 21  1  0
 21 22  2  0
M  END
>  <minimizedAffinity>  (88) 
-8.56736

$$$$
data/reference_output_2/data/smiles/94919.pdb
     RDKit          3D

 22 24  0  0  0  0  0  0  0  0999 V2000
   69.3823   47.8324   53.0441 C   0  0  0  0  0  0  0  0  0  0  0  0
   68.7365   46.8480   52.3166 C   0  0  0  0  0  0  0  0  0  0  0  0
   68.8881   46.7949   50.9632 F   0  0  0  0  0  0  0  0  0  0  0  0
   67.9369   45.9076   52.9075 C   0  0  0  0  0  0  0  0  0  0  0  0
   67.7864   45.9660   54.2885 C   0  0  0  0  0  0  0  0  0  0  0  0
   68.3898   46.9095   55.0874 C   0  0  0  0  0  0  0  0  0  0  0  0
   69.1967   47.8400   54.3950 C   0  0  0  0  0  0  0  0  0  0  0  0
   69.8094   48.7814   55.1273 F   0  0  0  0  0  0  0  0  0  0  0  0
   69.7265   49.5268   51.2230 N   0  0  0  0  0  0  0  0  0  0  0  0
   70.2202   48.8011   52.3412 C   0  0  0  0  0  0  0  0  0  0  0  0
   71.3931   49.0108   52.7078 O   0  0  0  0  0  0  0  0  0  0  0  0
   68.2591   46.9840   56.4291 O   0  0  0  0  0  0  0  0  0  0  0  0
   69.1990   47.0893   57.4116 C   0  0  0  0  0  0  0  0  0  0  0  0
   70.0628   45.9006   57.6135 C   0  0  0  0  0  0  0  0  0  0  0  0
   71.3323   45.7391   57.9516 N   0  0  0  0  0  0  0  0  0  0  0  0
   71.6745   44.4472   58.0041 C   0  0  0  0  0  0  0  0  0  0  0  0
   72.8290   43.7629   58.2954 C   0  0  0  0  0  0  0  0  0  0  0  0
   72.8488   42.3968   58.2587 C   0  0  0  0  0  0  0  0  0  0  0  0
   71.7142   41.6566   57.9296 C   0  0  0  0  0  0  0  0  0  0  0  0
   70.5677   42.3592   57.6408 C   0  0  0  0  0  0  0  0  0  0  0  0
   70.5431   43.7386   57.6769 C   0  0  0  0  0  0  0  0  0  0  0  0
   69.5902   44.6393   57.4469 N   0  0  0  0  0  0  0  0  0  0  0  0
  9 10  1  0
 10 11  2  0
 10  1  1  0
  1  2  2  0
  1  7  1  0
  2  3  1  0
  2  4  1  0
  4  5  2  0
  5  6  1  0
  6 12  1  0
  6  7  2  0
 12 13  1  0
 13 14  1  0
 14 15  2  0
 14 22  1  0
 15 16  1  0
 16 17  2  0
 16 21  1  0
 17 18  1  0
 18 19  2  0
 19 20  1  0
 20 21  2  0
 21 22  1  0
  7  8  1  0
M  CHG  1  15   1
M  END
>  <minimizedAffinity>  (89) 
-8.53444

$$$$
data/reference_output_2/data/smiles/94981.pdb
     RDKit          3D

 30 34  0  0  0  0  0  0  0  0999 V2000
   67.8681   42.6371   56.5305 C   0  0  0  0  0  0  0  0  0  0  0  0
   68.9270   41.8717   56.9466 C   0  0  0  0  0  0  0  0  0  0  0  0
   68.8928   40.9440   57.9739 C   0  0  0  0  0  0  0  0  0  0  0  0
   67.6876   40.7901   58.6190 C   0  0  0  0  0  0  0  0  0  0  0  0
   66.6024   41.5551   58.2153 C   0  0  0  0  0  0  0  0  0  0  0  0
   66.6999   42.4296   57.2206 N   0  0  0  0  0  0  0  0  0  0  0  0
   70.0671   40.1669   58.3568 C   0  0  0  0  0  0  0  0  0  0  0  0
   71.2442   40.6909   58.8366 C   0  0  0  0  0  0  0  0  0  0  0  0
   72.1459   39.6575   59.0994 C   0  0  0  0  0  0  0  0  0  0  0  0
   71.4663   38.5060   58.7596 C   0  0  0  0  0  0  0  0  0  0  0  0
   70.2303   38.8439   58.3207 N   0  0  0  0  0  0  0  0  0  0  0  0
   72.1130   37.1776   58.9010 C   0  0  2  0  0  0  0  0  0  0  0  0
   72.4455   36.5877   57.5491 C   0  0  0  0  0  0  0  0  0  0  0  0
   72.4450   35.1037   57.8472 C   0  0  0  0  0  0  0  0  0  0  0  0
   71.4658   34.8888   58.8699 N   0  0  0  0  0  0  0  0  0  0  0  0
   71.1106   36.1525   59.4404 C   0  0  0  0  0  0  0  0  0  0  0  0
   73.2812   37.1738   59.8308 C   0  0  0  0  0  0  0  0  0  0  0  0
   74.1138   38.3505   59.7492 N   0  0  0  0  0  0  0  0  0  0  0  0
   73.5107   39.6252   59.6130 C   0  0  0  0  0  0  0  0  0  0  0  0
   74.0979   40.6909   59.9112 O   0  0  0  0  0  0  0  0  0  0  0  0
   68.9572   45.2972   56.5542 O   0  0  0  0  0  0  0  0  0  0  0  0
   68.4202   44.8913   55.4948 C   0  0  0  0  0  0  0  0  0  0  0  0
   67.8868   43.5915   55.4825 N   0  0  0  0  0  0  0  0  0  0  0  0
   68.3789   45.7878   54.3410 C   0  0  0  0  0  0  0  0  0  0  0  0
   68.9275   47.0417   54.4563 C   0  0  0  0  0  0  0  0  0  0  0  0
   68.9228   47.9483   53.3941 C   0  0  0  0  0  0  0  0  0  0  0  0
   68.3627   47.5988   52.1976 C   0  0  0  0  0  0  0  0  0  0  0  0
   67.8099   46.3518   52.0623 C   0  0  0  0  0  0  0  0  0  0  0  0
   67.2481   45.9601   50.9083 F   0  0  0  0  0  0  0  0  0  0  0  0
   67.8237   45.4684   53.1231 C   0  0  0  0  0  0  0  0  0  0  0  0
 21 22  2  0
 22 23  1  0
 22 24  1  0
 23  1  1  0
  1  2  2  0
  1  6  1  0
  2  3  1  0
  3  7  1  0
  3  4  2  0
  7  8  2  0
  7 11  1  0
  8  9  1  0
  9 10  2  0
  9 19  1  0
 10 11  1  0
 12 10  1  0
 12 13  1  6
 12 16  1  0
 12 17  1  0
 13 14  1  0
 14 15  1  0
 15 16  1  0
 17 18  1  0
 18 19  1  0
 19 20  2  0
  4  5  1  0
  5  6  2  0
 24 25  2  0
 24 30  1  0
 25 26  1  0
 26 27  2  0
 27 28  1  0
 28 29  1  0
 28 30  2  0
M  CHG  1  15   1
M  END
>  <minimizedAffinity>  (90) 
-8.79641

$$$$
data/reference_output_2/data/smiles/94985.pdb
     RDKit          3D

 26 28  0  0  0  0  0  0  0  0999 V2000
   68.2757   44.3786   55.7242 C   0  0  0  0  0  0  0  0  0  0  0  0
   69.0247   43.8017   56.6944 N   0  0  0  0  0  0  0  0  0  0  0  0
   68.8442   42.5549   57.1566 C   0  0  0  0  0  0  0  0  0  0  0  0
   67.8319   41.7877   56.6225 C   0  0  0  0  0  0  0  0  0  0  0  0
   67.5744   40.4888   57.0406 O   0  0  0  0  0  0  0  0  0  0  0  0
   67.0629   42.3646   55.6332 C   0  0  0  0  0  0  0  0  0  0  0  0
   66.1378   41.6597   55.1471 O   0  0  0  0  0  0  0  0  0  0  0  0
   67.2893   43.6382   55.1993 N   0  0  0  0  0  0  0  0  0  0  0  0
   69.3312   49.7200   53.8583 C   0  0  0  0  0  0  0  0  0  0  0  0
   69.0696   48.3515   54.3742 C   0  0  0  0  0  0  0  0  0  0  0  0
   69.2827   47.9995   55.6850 C   0  0  0  0  0  0  0  0  0  0  0  0
   69.0261   46.6993   56.1451 C   0  0  0  0  0  0  0  0  0  0  0  0
   68.5562   45.7456   55.2915 C   0  0  0  0  0  0  0  0  0  0  0  0
   68.3483   46.1218   53.9719 C   0  0  0  0  0  0  0  0  0  0  0  0
   68.5954   47.3958   53.5035 C   0  0  0  0  0  0  0  0  0  0  0  0
   69.6994   41.9993   58.2131 C   0  0  0  0  0  0  0  0  0  0  0  0
   69.7009   42.5163   59.3459 O   0  0  0  0  0  0  0  0  0  0  0  0
   70.5314   40.8748   57.9708 N   0  0  0  0  0  0  0  0  0  0  0  0
   71.3859   40.2861   58.9521 C   0  0  0  0  0  0  0  0  0  0  0  0
   71.3248   38.8265   58.9758 C   0  0  0  0  0  0  0  0  0  0  0  0
   70.5592   38.0832   59.8458 C   0  0  0  0  0  0  0  0  0  0  0  0
   70.5542   36.7093   59.8071 C   0  0  0  0  0  0  0  0  0  0  0  0
   71.3309   36.0168   58.8749 C   0  0  0  0  0  0  0  0  0  0  0  0
   71.3459   34.6652   58.8132 F   0  0  0  0  0  0  0  0  0  0  0  0
   72.1039   36.7464   57.9954 C   0  0  0  0  0  0  0  0  0  0  0  0
   72.0916   38.1271   58.0560 C   0  0  0  0  0  0  0  0  0  0  0  0
  9 10  1  0
 10 11  2  0
 10 15  1  0
 11 12  1  0
 12 13  2  0
 13  1  1  0
 13 14  1  0
  1  2  2  0
  1  8  1  0
  2  3  1  0
  3 16  1  0
  3  4  2  0
 16 17  2  0
 16 18  1  0
 18 19  1  0
 19 20  1  0
 20 21  2  0
 20 26  1  0
 21 22  1  0
 22 23  2  0
 23 24  1  0
 23 25  1  0
 25 26  2  0
  4  5  1  0
  4  6  1  0
  6  7  2  0
  6  8  1  0
 14 15  2  0
M  END
>  <minimizedAffinity>  (91) 
-8.79097

$$$$
data/reference_output_2/data/smiles/95350.pdb
     RDKit          3D

 25 27  0  0  0  0  0  0  0  0999 V2000
   71.2173   50.2714   56.7020 C   0  0  0  0  0  0  0  0  0  0  0  0
   73.2270   50.3899   58.0283 O   0  0  0  0  0  0  0  0  0  0  0  0
   72.6854   50.1424   56.9007 C   0  0  0  0  0  0  0  0  0  0  0  0
   73.5725   49.7402   55.8656 N   0  0  0  0  0  0  0  0  0  0  0  0
   74.9478   49.6387   56.1213 N   0  0  0  0  0  0  0  0  0  0  0  0
   75.8520   50.1696   55.4023 C   0  0  0  0  0  0  0  0  0  0  0  0
   77.2896   50.0603   55.6751 C   0  0  0  0  0  0  0  0  0  0  0  0
   78.0403   49.0667   55.0835 C   0  0  0  0  0  0  0  0  0  0  0  0
   79.3958   48.9213   55.3076 C   0  0  0  0  0  0  0  0  0  0  0  0
   80.0544   49.7887   56.1525 C   0  0  0  0  0  0  0  0  0  0  0  0
   81.4125   49.6854   56.4106 O   0  0  0  0  0  0  0  0  0  0  0  0
   79.3041   50.7863   56.7479 C   0  0  0  0  0  0  0  0  0  0  0  0
   77.9441   50.9275   56.5187 C   0  0  0  0  0  0  0  0  0  0  0  0
   70.8429   50.8234   55.3829 C   0  0  0  0  0  0  0  0  0  0  0  0
   70.3437   49.8409   54.3910 C   0  0  0  0  0  0  0  0  0  0  0  0
   69.5815   48.8469   54.8888 N   0  0  0  0  0  0  0  0  0  0  0  0
   69.0872   47.9010   54.1055 C   0  0  0  0  0  0  0  0  0  0  0  0
   68.3076   46.8881   54.6269 C   0  0  0  0  0  0  0  0  0  0  0  0
   67.8104   45.9266   53.7976 C   0  0  0  0  0  0  0  0  0  0  0  0
   68.0719   45.9446   52.4388 C   0  0  0  0  0  0  0  0  0  0  0  0
   68.8449   46.9397   51.8860 C   0  0  0  0  0  0  0  0  0  0  0  0
   69.3406   47.9090   52.7522 C   0  0  0  0  0  0  0  0  0  0  0  0
   70.1189   48.9326   52.2758 C   0  0  0  0  0  0  0  0  0  0  0  0
   70.3593   48.9495   51.0254 O   0  0  0  0  0  0  0  0  0  0  0  0
   70.6016   49.8714   53.1000 N   0  0  0  0  0  0  0  0  0  0  0  0
  2  3  2  0
  3  1  1  0
  3  4  1  0
  1 14  1  0
 14 15  1  0
 15 16  2  0
 15 25  1  0
 16 17  1  0
 17 18  2  0
 17 22  1  0
 18 19  1  0
 19 20  2  0
 20 21  1  0
 21 22  2  0
 22 23  1  0
 23 24  2  0
 23 25  1  0
  4  5  1  0
  5  6  2  0
  6  7  1  0
  7  8  2  0
  7 13  1  0
  8  9  1  0
  9 10  2  0
 10 11  1  0
 10 12  1  0
 12 13  2  0
M  END
>  <minimizedAffinity>  (92) 
-8.99365

$$$$
data/reference_output_2/data/smiles/95479.pdb
     RDKit          3D

 32 36  0  0  0  0  0  0  0  0999 V2000
   71.5154   47.4353   58.6972 C   0  0  0  0  0  0  0  0  0  0  0  0
   70.5172   48.0154   57.9470 C   0  0  0  0  0  0  0  0  0  0  0  0
   69.6526   47.3091   57.1512 C   0  0  0  0  0  0  0  0  0  0  0  0
   69.7999   45.9353   57.1073 C   0  0  0  0  0  0  0  0  0  0  0  0
   70.8016   45.3061   57.8559 C   0  0  0  0  0  0  0  0  0  0  0  0
   70.9290   43.9600   57.8066 F   0  0  0  0  0  0  0  0  0  0  0  0
   71.6462   46.0671   58.6418 C   0  0  0  0  0  0  0  0  0  0  0  0
   72.6304   45.4754   59.3787 F   0  0  0  0  0  0  0  0  0  0  0  0
   72.3376   47.9901   60.7706 O   0  0  0  0  0  0  0  0  0  0  0  0
   72.3954   48.2813   59.5238 C   0  0  0  0  0  0  0  0  0  0  0  0
   73.2152   49.3002   59.0323 N   0  0  0  0  0  0  0  0  0  0  0  0
   73.2929   49.6102   57.6414 C   0  0  0  0  0  0  0  0  0  0  0  0
   74.7044   49.2615   57.1752 C   0  0  0  0  0  0  0  0  0  0  0  0
   75.5922   49.2421   58.3751 N   0  0  0  0  0  0  0  0  0  0  0  0
   75.2764   50.4304   59.0877 C   0  0  0  0  0  0  0  0  0  0  0  0
   74.0227   50.0818   59.9339 C   0  0  0  0  0  0  0  0  0  0  0  0
   76.9293   49.0124   57.9745 C   0  0  0  0  0  0  0  0  0  0  0  0
   77.3915   49.4695   56.6525 C   0  0  0  0  0  0  0  0  0  0  0  0
   78.6386   49.2006   55.9659 C   0  0  0  0  0  0  0  0  0  0  0  0
   78.4755   50.5703   56.6325 C   0  0  0  0  0  0  0  0  0  0  0  0
   68.5788   48.0010   56.4003 C   0  0  0  0  0  0  0  0  0  0  0  0
   69.0573   48.2168   55.0120 C   0  0  0  0  0  0  0  0  0  0  0  0
   69.9458   49.2250   54.7584 N   0  0  0  0  0  0  0  0  0  0  0  0
   70.4346   49.4551   53.5678 N   0  0  0  0  0  0  0  0  0  0  0  0
   70.0854   48.7028   52.5234 C   0  0  0  0  0  0  0  0  0  0  0  0
   70.5400   48.8990   51.3602 O   0  0  0  0  0  0  0  0  0  0  0  0
   69.2058   47.6770   52.6837 C   0  0  0  0  0  0  0  0  0  0  0  0
   68.8220   46.8832   51.6110 C   0  0  0  0  0  0  0  0  0  0  0  0
   67.9219   45.8504   51.7909 C   0  0  0  0  0  0  0  0  0  0  0  0
   67.4152   45.6257   53.0534 C   0  0  0  0  0  0  0  0  0  0  0  0
   67.7849   46.4055   54.1414 C   0  0  0  0  0  0  0  0  0  0  0  0
   68.6789   47.4291   53.9610 C   0  0  0  0  0  0  0  0  0  0  0  0
  9 10  2  0
 10  1  1  0
 10 11  1  0
  1  2  2  0
  1  7  1  0
  2  3  1  0
  3 21  1  0
  3  4  2  0
 21 22  1  0
 22 23  2  0
 22 32  1  0
 23 24  1  0
 24 25  1  0
 25 26  2  0
 25 27  1  0
 27 28  1  0
 27 32  2  0
 28 29  2  0
 29 30  1  0
 30 31  2  0
 31 32  1  0
  4  5  1  0
  5  6  1  0
  5  7  2  0
  7  8  1  0
 11 12  1  0
 11 16  1  0
 12 13  1  0
 13 14  1  0
 14 17  1  0
 14 15  1  0
 17 18  1  0
 18 19  1  0
 18 20  1  0
 19 20  1  0
 15 16  1  0
M  CHG  1  14   1
M  END
>  <minimizedAffinity>  (93) 
-9.39559

$$$$
data/reference_output_2/data/smiles/95676.pdb
     RDKit          3D

 21 24  0  0  0  0  0  0  0  0999 V2000
   69.2335   47.6953   52.4279 C   0  0  0  0  0  0  0  0  0  0  0  0
   68.6329   46.9218   51.4594 C   0  0  0  0  0  0  0  0  0  0  0  0
   67.7709   45.8947   51.8242 C   0  0  0  0  0  0  0  0  0  0  0  0
   67.5319   45.6670   53.1623 C   0  0  0  0  0  0  0  0  0  0  0  0
   68.1112   46.4172   54.1531 C   0  0  0  0  0  0  0  0  0  0  0  0
   68.0642   46.4260   55.5054 N   0  0  0  0  0  0  0  0  0  0  0  0
   68.8539   47.4059   55.9720 C   0  0  0  0  0  0  0  0  0  0  0  0
   69.3900   48.0039   54.9021 N   0  0  0  0  0  0  0  0  0  0  0  0
   68.9654   47.4341   53.7585 C   0  0  0  0  0  0  0  0  0  0  0  0
   69.1090   47.7833   57.4093 C   0  0  1  0  0  0  0  0  0  0  0  0
   70.3590   47.0285   57.8902 C   0  0  0  0  0  0  0  0  0  0  0  0
   70.8531   48.3753   58.3787 C   0  0  0  0  0  0  0  0  0  0  0  0
   69.8297   48.9786   57.5824 N   0  0  2  0  0  0  0  0  0  0  0  0
   69.2644   50.1287   58.1572 C   0  0  0  0  0  0  0  0  0  0  0  0
   70.0508   51.3932   57.8367 C   0  0  0  0  0  0  0  0  0  0  0  0
   69.4004   51.8448   56.5507 C   0  0  0  0  0  0  0  0  0  0  0  0
   67.9574   51.4203   56.6365 C   0  0  0  0  0  0  0  0  0  0  0  0
   67.8821   50.5000   57.8040 C   0  0  0  0  0  0  0  0  0  0  0  0
   71.2694   49.0306   52.7897 N   0  0  0  0  0  0  0  0  0  0  0  0
   70.1221   48.7531   52.0164 C   0  0  0  0  0  0  0  0  0  0  0  0
   69.8862   49.4186   50.9938 O   0  0  0  0  0  0  0  0  0  0  0  0
 19 20  1  0
 20 21  2  0
 20  1  1  0
  1  2  2  0
  1  9  1  0
  2  3  1  0
  3  4  2  0
  4  5  1  0
  5  6  1  0
  5  9  2  0
  6  7  1  0
 10  7  1  6
  7  8  2  0
 10 11  1  0
 10 13  1  0
 11 12  1  0
 12 13  1  0
 13 14  1  1
 14 15  1  0
 14 18  1  0
 15 16  1  0
 16 17  1  0
 17 18  1  0
  8  9  1  0
M  CHG  2   8   1  13   1
M  END
>  <minimizedAffinity>  (94) 
-8.76486

$$$$
data/reference_output_2/data/smiles/95687.pdb
     RDKit          3D

 22 23  0  0  0  0  0  0  0  0999 V2000
   67.5631   44.5160   55.1514 N   0  0  0  0  0  0  0  0  0  0  0  0
   69.3406   47.9512   53.4485 C   0  0  0  0  0  0  0  0  0  0  0  0
   68.7587   46.9531   52.6790 C   0  0  0  0  0  0  0  0  0  0  0  0
   68.1614   45.8405   53.2035 C   0  0  0  0  0  0  0  0  0  0  0  0
   68.1169   45.6678   54.6009 C   0  0  0  0  0  0  0  0  0  0  0  0
   68.6985   46.6656   55.3734 C   0  0  0  0  0  0  0  0  0  0  0  0
   69.3034   47.7927   54.8213 C   0  0  0  0  0  0  0  0  0  0  0  0
   69.3593   50.8212   53.1475 N   0  0  0  0  0  0  0  0  0  0  0  0
   70.0878   49.3313   52.6942 S   0  0  0  0  0  0  0  0  0  0  0  0
   71.5465   49.3566   53.1261 O   0  0  0  0  0  0  0  0  0  0  0  0
   70.0275   49.2395   51.1946 O   0  0  0  0  0  0  0  0  0  0  0  0
   68.2316   43.6711   56.0132 N   0  0  0  0  0  0  0  0  0  0  0  0
   67.8146   42.3456   56.2335 C   0  0  0  0  0  0  0  0  0  0  0  0
   66.7720   41.9789   55.5907 O   0  0  0  0  0  0  0  0  0  0  0  0
   68.4561   41.3748   57.1098 C   0  0  0  0  0  0  0  0  0  0  0  0
   67.8461   40.1294   57.3265 C   0  0  0  0  0  0  0  0  0  0  0  0
   68.4105   39.1484   58.1057 C   0  0  0  0  0  0  0  0  0  0  0  0
   69.6144   39.3562   58.7121 C   0  0  0  0  0  0  0  0  0  0  0  0
   70.1663   38.3890   59.4728 F   0  0  0  0  0  0  0  0  0  0  0  0
   70.2397   40.5625   58.5239 C   0  0  0  0  0  0  0  0  0  0  0  0
   69.6641   41.5479   57.7357 C   0  0  0  0  0  0  0  0  0  0  0  0
   70.3244   42.7106   57.6134 F   0  0  0  0  0  0  0  0  0  0  0  0
  8  9  1  0
  9 10  2  0
  9 11  2  0
  9  2  1  0
  2  3  2  0
  2  7  1  0
  3  4  1  0
  4  5  2  0
  5  1  1  0
  5  6  1  0
  1 12  1  0
 12 13  1  0
 13 14  2  0
 13 15  1  0
 15 16  2  0
 15 21  1  0
 16 17  1  0
 17 18  2  0
 18 19  1  0
 18 20  1  0
 20 21  2  0
 21 22  1  0
  6  7  2  0
M  END
>  <minimizedAffinity>  (95) 
-8.64566

$$$$
data/reference_output_2/data/smiles/95873.pdb
     RDKit          3D

 25 27  0  0  0  0  0  0  0  0999 V2000
   69.9285   46.6833   57.3202 C   0  0  0  0  0  0  0  0  0  0  0  0
   70.1114   45.2315   57.5288 C   0  0  0  0  0  0  0  0  0  0  0  0
   69.4977   44.2483   57.5227 N   0  0  0  0  0  0  0  0  0  0  0  0
   69.8667   43.0169   57.7856 C   0  0  0  0  0  0  0  0  0  0  0  0
   69.1071   41.8530   57.7696 C   0  0  0  0  0  0  0  0  0  0  0  0
   69.6786   40.6519   58.0762 C   0  0  0  0  0  0  0  0  0  0  0  0
   71.0168   40.4874   58.4184 C   0  0  0  0  0  0  0  0  0  0  0  0
   71.7629   41.6449   58.4323 C   0  0  0  0  0  0  0  0  0  0  0  0
   71.1875   42.8771   58.1202 C   0  0  0  0  0  0  0  0  0  0  0  0
   71.7913   44.5097   58.0319 S   0  0  0  0  0  0  0  0  0  0  0  0
   68.8671   39.4174   58.0583 C   0  0  0  0  0  0  0  0  0  0  0  0
   69.0445   38.5032   58.8992 O   0  0  0  0  0  0  0  0  0  0  0  0
   67.8966   39.2908   57.0812 O   0  0  0  0  0  0  0  0  0  0  0  0
   69.0770   47.0955   56.3571 O   0  0  0  0  0  0  0  0  0  0  0  0
   69.2880   47.8156   52.8081 C   0  0  0  0  0  0  0  0  0  0  0  0
   68.4802   46.7935   52.3205 C   0  0  0  0  0  0  0  0  0  0  0  0
   68.3203   46.7457   50.9674 F   0  0  0  0  0  0  0  0  0  0  0  0
   67.8843   45.8895   53.1746 C   0  0  0  0  0  0  0  0  0  0  0  0
   68.0536   45.9475   54.5439 C   0  0  0  0  0  0  0  0  0  0  0  0
   68.8478   46.9507   55.0475 C   0  0  0  0  0  0  0  0  0  0  0  0
   69.4537   47.8720   54.1621 C   0  0  0  0  0  0  0  0  0  0  0  0
   70.2434   48.8657   54.6776 F   0  0  0  0  0  0  0  0  0  0  0  0
   69.7517   50.1723   52.0845 N   0  0  0  0  0  0  0  0  0  0  0  0
   69.9212   48.7753   51.9080 C   0  0  0  0  0  0  0  0  0  0  0  0
   70.6322   48.3870   50.9550 O   0  0  0  0  0  0  0  0  0  0  0  0
 23 24  1  0
 24 25  2  0
 24 15  1  0
 15 16  2  0
 15 21  1  0
 16 17  1  0
 16 18  1  0
 18 19  2  0
 19 20  1  0
 20 14  1  0
 20 21  2  0
 14  1  1  0
  1  2  1  0
  2  3  2  0
  2 10  1  0
  3  4  1  0
  4  5  2  0
  4  9  1  0
  5  6  1  0
  6 11  1  0
  6  7  2  0
 11 12  2  0
 11 13  1  0
  7  8  1  0
  8  9  2  0
  9 10  1  0
 21 22  1  0
M  END
>  <minimizedAffinity>  (96) 
-8.75337

$$$$
data/reference_output_2/data/smiles/96026.pdb
     RDKit          3D

 23 25  0  0  0  0  0  0  0  0999 V2000
   66.6594   44.4218   51.3068 N   0  0  0  0  0  0  0  0  0  0  0  0
   67.4199   45.4311   51.9851 C   0  0  0  0  0  0  0  0  0  0  0  0
   67.9499   46.5092   51.3140 C   0  0  0  0  0  0  0  0  0  0  0  0
   68.6945   47.5023   51.9653 C   0  0  0  0  0  0  0  0  0  0  0  0
   68.9330   47.4415   53.3192 C   0  0  0  0  0  0  0  0  0  0  0  0
   68.3964   46.3553   53.9884 C   0  0  0  0  0  0  0  0  0  0  0  0
   67.6549   45.3682   53.3392 C   0  0  0  0  0  0  0  0  0  0  0  0
   68.6051   46.2716   55.3480 C   0  0  0  0  0  0  0  0  0  0  0  0
   68.1580   45.3236   56.0406 O   0  0  0  0  0  0  0  0  0  0  0  0
   69.3285   47.2484   56.0097 C   0  0  0  0  0  0  0  0  0  0  0  0
   69.8232   48.2899   55.2650 C   0  0  0  0  0  0  0  0  0  0  0  0
   69.6402   48.4043   53.9309 N   0  0  0  0  0  0  0  0  0  0  0  0
   69.5735   47.2044   57.4349 C   0  0  0  0  0  0  0  0  0  0  0  0
   69.5797   46.1132   58.0284 O   0  0  0  0  0  0  0  0  0  0  0  0
   69.7998   48.3725   58.1207 O   0  0  0  0  0  0  0  0  0  0  0  0
   70.2504   49.5415   53.2561 C   0  0  0  0  0  0  0  0  0  0  0  0
   70.0560   50.7505   54.1095 C   0  0  0  0  0  0  0  0  0  0  0  0
   68.7460   51.2257   54.2908 C   0  0  0  0  0  0  0  0  0  0  0  0
   68.5106   52.3242   55.0533 C   0  0  0  0  0  0  0  0  0  0  0  0
   69.5677   52.9783   55.6530 C   0  0  0  0  0  0  0  0  0  0  0  0
   69.3221   54.0696   56.4101 F   0  0  0  0  0  0  0  0  0  0  0  0
   70.8671   52.5507   55.5042 C   0  0  0  0  0  0  0  0  0  0  0  0
   71.0813   51.4191   54.7158 C   0  0  0  0  0  0  0  0  0  0  0  0
  1  2  1  0
  2  3  2  0
  2  7  1  0
  3  4  1  0
  4  5  2  0
  5  6  1  0
  5 12  1  0
  6  7  2  0
  6  8  1  0
  8  9  2  0
  8 10  1  0
 10 13  1  0
 10 11  2  0
 13 14  2  0
 13 15  1  0
 11 12  1  0
 12 16  1  0
 16 17  1  0
 17 18  2  0
 17 23  1  0
 18 19  1  0
 19 20  2  0
 20 21  1  0
 20 22  1  0
 22 23  2  0
M  END
>  <minimizedAffinity>  (97) 
-8.51999

$$$$
data/reference_output_2/data/smiles/96095.pdb
     RDKit          3D

 28 30  0  0  0  0  0  0  0  0999 V2000
   68.2819   46.3567   53.9033 C   0  0  0  0  0  0  0  0  0  0  0  0
   68.5071   46.0396   52.5896 C   0  0  0  0  0  0  0  0  0  0  0  0
   69.2738   46.8820   51.8117 C   0  0  0  0  0  0  0  0  0  0  0  0
   69.8004   48.0324   52.3775 C   0  0  0  0  0  0  0  0  0  0  0  0
   69.5923   48.3806   53.6963 C   0  0  0  0  0  0  0  0  0  0  0  0
   68.8267   47.5259   54.4489 C   0  0  0  0  0  0  0  0  0  0  0  0
   70.1785   49.6076   54.2231 C   0  0  0  0  0  0  0  0  0  0  0  0
   69.4380   50.4790   54.7359 O   0  0  0  0  0  0  0  0  0  0  0  0
   71.5653   49.8887   54.1957 N   0  0  0  0  0  0  0  0  0  0  0  0
   72.1542   51.1066   54.7181 C   0  0  1  0  0  0  0  0  0  0  0  0
   72.0866   51.1861   56.2137 C   0  0  0  0  0  0  0  0  0  0  0  0
   73.5099   51.4195   56.6721 C   0  0  0  0  0  0  0  0  0  0  0  0
   74.3072   50.6077   55.6528 C   0  0  0  0  0  0  0  0  0  0  0  0
   73.6432   51.0388   54.3615 C   0  0  1  0  0  0  0  0  0  0  0  0
   73.9004   50.1094   53.3857 O   0  0  0  0  0  0  0  0  0  0  0  0
   67.5077   45.4907   54.6606 O   0  0  0  0  0  0  0  0  0  0  0  0
   68.4119   42.4912   56.5988 C   0  0  0  0  0  0  0  0  0  0  0  0
   67.8088   43.3462   55.7151 C   0  0  0  0  0  0  0  0  0  0  0  0
   68.1528   44.6714   55.5709 C   0  0  0  0  0  0  0  0  0  0  0  0
   69.1479   45.1242   56.3650 N   0  0  0  0  0  0  0  0  0  0  0  0
   69.7849   44.3393   57.2552 C   0  0  0  0  0  0  0  0  0  0  0  0
   69.4261   43.0100   57.3862 C   0  0  0  0  0  0  0  0  0  0  0  0
   70.8823   44.8465   58.1275 C   0  0  0  0  0  0  0  0  0  0  0  0
   72.1191   44.5049   57.6492 F   0  0  0  0  0  0  0  0  0  0  0  0
   70.7318   44.4212   59.4371 F   0  0  0  0  0  0  0  0  0  0  0  0
   70.7887   46.2432   58.1626 F   0  0  0  0  0  0  0  0  0  0  0  0
   67.5939   40.5288   55.4067 N   0  0  0  0  0  0  0  0  0  0  0  0
   67.9789   41.0654   56.6923 C   0  0  0  0  0  0  0  0  0  0  0  0
 27 28  1  0
 28 17  1  0
 17 18  2  0
 17 22  1  0
 18 19  1  0
 19 16  1  0
 19 20  2  0
 16  1  1  0
  1  2  2  0
  1  6  1  0
  2  3  1  0
  3  4  2  0
  4  5  1  0
  5  7  1  0
  5  6  2  0
  7  8  2  0
  7  9  1  0
 10  9  1  1
 10 11  1  0
 10 14  1  0
 11 12  1  0
 12 13  1  0
 13 14  1  0
 14 15  1  6
 20 21  1  0
 21 23  1  0
 21 22  2  0
 23 24  1  0
 23 25  1  0
 23 26  1  0
M  CHG  1  27   1
M  END
>  <minimizedAffinity>  (98) 
-9.07371

$$$$
data/reference_output_2/data/smiles/96199.pdb
     RDKit          3D

 24 26  0  0  0  0  0  0  0  0999 V2000
   71.3133   37.1195   58.6181 C   0  0  0  0  0  0  0  0  0  0  0  0
   70.8341   38.5353   58.5103 C   0  0  0  0  0  0  0  0  0  0  0  0
   69.4875   38.8452   58.4207 C   0  0  0  0  0  0  0  0  0  0  0  0
   69.1324   40.1836   58.3236 C   0  0  0  0  0  0  0  0  0  0  0  0
   70.0717   41.1937   58.3145 C   0  0  0  0  0  0  0  0  0  0  0  0
   69.6891   42.5352   58.2160 C   0  0  0  0  0  0  0  0  0  0  0  0
   68.3439   42.8041   58.1281 O   0  0  0  0  0  0  0  0  0  0  0  0
   70.6091   43.5558   58.2055 C   0  0  0  0  0  0  0  0  0  0  0  0
   71.9465   43.1671   58.2994 C   0  0  0  0  0  0  0  0  0  0  0  0
   72.3115   41.8482   58.3954 C   0  0  0  0  0  0  0  0  0  0  0  0
   71.3909   40.8226   58.4063 C   0  0  0  0  0  0  0  0  0  0  0  0
   71.7378   39.5284   58.5007 N   0  0  0  0  0  0  0  0  0  0  0  0
   70.2928   44.9658   58.1063 C   0  0  0  0  0  0  0  0  0  0  0  0
   70.6600   45.7063   59.0903 O   0  0  0  0  0  0  0  0  0  0  0  0
   69.6200   45.5976   57.0296 N   0  0  0  0  0  0  0  0  0  0  0  0
   69.4138   47.0363   57.1557 C   0  0  0  0  0  0  0  0  0  0  0  0
   68.3522   47.5699   56.2432 C   0  0  0  0  0  0  0  0  0  0  0  0
   68.7404   47.5323   54.8172 C   0  0  0  0  0  0  0  0  0  0  0  0
   68.3400   46.4385   54.0629 C   0  0  0  0  0  0  0  0  0  0  0  0
   68.6598   46.3133   52.7335 C   0  0  0  0  0  0  0  0  0  0  0  0
   69.4028   47.2984   52.1207 C   0  0  0  0  0  0  0  0  0  0  0  0
   69.7240   47.1650   50.7707 O   0  0  0  0  0  0  0  0  0  0  0  0
   69.8047   48.3881   52.8646 C   0  0  0  0  0  0  0  0  0  0  0  0
   69.4763   48.5016   54.1985 C   0  0  0  0  0  0  0  0  0  0  0  0
  1  2  1  0
  2  3  2  0
  2 12  1  0
  3  4  1  0
  4  5  2  0
  5  6  1  0
  5 11  1  0
  6  7  1  0
  6  8  2  0
  8 13  1  0
  8  9  1  0
 13 14  2  0
 13 15  1  0
 15 16  1  0
 16 17  1  0
 17 18  1  0
 18 19  2  0
 18 24  1  0
 19 20  1  0
 20 21  2  0
 21 22  1  0
 21 23  1  0
 23 24  2  0
  9 10  2  0
 10 11  1  0
 11 12  2  0
M  END
>  <minimizedAffinity>  (99) 
-8.71085

$$$$
data/reference_output_2/data/smiles/96331.pdb
     RDKit          3D

 22 23  0  0  0  0  0  0  0  0999 V2000
   67.8509   43.9011   55.2867 N   0  0  0  0  0  0  0  0  0  0  0  0
   68.1851   45.2611   55.1090 C   0  0  0  0  0  0  0  0  0  0  0  0
   68.3924   45.9367   56.1439 O   0  0  0  0  0  0  0  0  0  0  0  0
   68.3014   45.9125   53.8088 C   0  0  0  0  0  0  0  0  0  0  0  0
   67.5588   45.4650   52.7293 C   0  0  0  0  0  0  0  0  0  0  0  0
   67.6408   46.0541   51.4840 C   0  0  0  0  0  0  0  0  0  0  0  0
   68.4838   47.1269   51.2788 C   0  0  0  0  0  0  0  0  0  0  0  0
   69.2359   47.6010   52.3183 C   0  0  0  0  0  0  0  0  0  0  0  0
   69.1331   46.9855   53.5711 C   0  0  0  0  0  0  0  0  0  0  0  0
   70.1003   48.7024   52.1058 N   0  0  0  0  0  0  0  0  0  0  0  0
   69.9339   49.5148   51.1750 O   0  0  0  0  0  0  0  0  0  0  0  0
   71.1585   48.8838   52.9545 O   0  0  0  0  0  0  0  0  0  0  0  0
   67.5280   41.8964   56.6419 C   0  0  0  0  0  0  0  0  0  0  0  0
   67.4397   41.2664   55.5319 O   0  0  0  0  0  0  0  0  0  0  0  0
   67.7464   43.2959   56.5654 N   0  0  0  0  0  0  0  0  0  0  0  0
   65.7533   41.5402   61.2220 C   0  0  0  0  0  0  0  0  0  0  0  0
   66.5378   40.9455   60.1143 C   0  0  0  0  0  0  0  0  0  0  0  0
   67.1396   39.7206   60.2014 C   0  0  0  0  0  0  0  0  0  0  0  0
   67.8653   39.1863   59.1569 C   0  0  0  0  0  0  0  0  0  0  0  0
   67.9927   39.9114   57.9763 C   0  0  0  0  0  0  0  0  0  0  0  0
   67.4007   41.1400   57.8615 C   0  0  0  0  0  0  0  0  0  0  0  0
   66.6844   41.6498   58.9139 C   0  0  0  0  0  0  0  0  0  0  0  0
 16 17  1  0
 17 18  2  0
 17 22  1  0
 18 19  1  0
 19 20  2  0
 20 21  1  0
 21 13  1  0
 21 22  2  0
 13 14  2  0
 13 15  1  0
 15  1  1  0
  1  2  1  0
  2  3  2  0
  2  4  1  0
  4  5  2  0
  4  9  1  0
  5  6  1  0
  6  7  2  0
  7  8  1  0
  8 10  1  0
  8  9  2  0
 10 11  2  0
 10 12  1  0
M  CHG  2  10   1  12  -1
M  END
>  <minimizedAffinity>  (100) 
-8.97105

$$$$
data/reference_output_2/data/smiles/96402.pdb
     RDKit          3D

 23 26  0  0  0  0  0  0  0  0999 V2000
   69.9542   43.4788   57.8505 C   0  0  0  0  0  0  0  0  0  0  0  0
   70.9713   43.7298   58.7420 C   0  0  0  0  0  0  0  0  0  0  0  0
   71.4062   45.0287   58.8909 C   0  0  0  0  0  0  0  0  0  0  0  0
   70.7852   45.9958   58.1289 C   0  0  0  0  0  0  0  0  0  0  0  0
   70.9546   47.3146   58.0963 N   0  0  0  0  0  0  0  0  0  0  0  0
   70.1314   47.8412   57.2667 N   0  0  0  0  0  0  0  0  0  0  0  0
   69.3539   46.8546   56.6928 C   0  0  0  0  0  0  0  0  0  0  0  0
   69.7827   45.7252   57.2508 N   0  0  0  0  0  0  0  0  0  0  0  0
   69.4192   44.4822   57.1576 N   0  0  0  0  0  0  0  0  0  0  0  0
   68.2667   39.6002   57.4338 C   0  0  0  0  0  0  0  0  0  0  0  0
   69.3056   39.7745   58.3005 C   0  0  0  0  0  0  0  0  0  0  0  0
   69.8559   41.0442   58.4195 C   0  0  0  0  0  0  0  0  0  0  0  0
   69.3966   42.1368   57.6996 C   0  0  0  0  0  0  0  0  0  0  0  0
   68.3463   41.9529   56.8242 C   0  0  0  0  0  0  0  0  0  0  0  0
   67.8021   40.6774   56.7116 C   0  0  0  0  0  0  0  0  0  0  0  0
   68.2960   47.2264   55.7847 C   0  0  0  0  0  0  0  0  0  0  0  0
   68.1104   46.6066   54.4717 C   0  0  0  0  0  0  0  0  0  0  0  0
   68.8469   47.2013   53.3478 C   0  0  0  0  0  0  0  0  0  0  0  0
   69.3598   48.5022   53.5566 C   0  0  0  0  0  0  0  0  0  0  0  0
   70.0341   49.1347   52.5648 C   0  0  0  0  0  0  0  0  0  0  0  0
   70.2002   48.4888   51.3761 C   0  0  0  0  0  0  0  0  0  0  0  0
   69.7191   47.2615   51.1713 N   0  0  0  0  0  0  0  0  0  0  0  0
   69.0462   46.6304   52.1607 C   0  0  0  0  0  0  0  0  0  0  0  0
 10 11  2  0
 10 15  1  0
 11 12  1  0
 12 13  2  0
 13  1  1  0
 13 14  1  0
  1  2  1  0
  1  9  2  0
  2  3  2  0
  3  4  1  0
  4  5  2  0
  4  8  1  0
  5  6  1  0
  6  7  2  0
  7 16  1  0
  7  8  1  0
 16 17  1  0
 17 18  1  0
 18 19  2  0
 18 23  1  0
 19 20  1  0
 20 21  2  0
 21 22  1  0
 22 23  2  0
  8  9  1  0
 14 15  2  0
M  END
>  <minimizedAffinity>  (101) 
-8.65103

$$$$
data/reference_output_2/data/smiles/96538.pdb
     RDKit          3D

 24 26  0  0  0  0  0  0  0  0999 V2000
   68.2287   46.2779   54.1032 C   0  0  0  0  0  0  0  0  0  0  0  0
   67.9021   45.8658   52.7899 C   0  0  0  0  0  0  0  0  0  0  0  0
   68.3761   46.5565   51.7026 C   0  0  0  0  0  0  0  0  0  0  0  0
   69.1774   47.6684   51.8211 C   0  0  0  0  0  0  0  0  0  0  0  0
   69.5073   48.0913   53.0718 C   0  0  0  0  0  0  0  0  0  0  0  0
   69.0275   47.3889   54.1889 C   0  0  0  0  0  0  0  0  0  0  0  0
   70.3547   49.2508   53.3214 C   0  0  0  0  0  0  0  0  0  0  0  0
   71.5751   49.1317   52.9955 O   0  0  0  0  0  0  0  0  0  0  0  0
   69.8660   50.4497   53.8925 N   0  0  0  0  0  0  0  0  0  0  0  0
   70.6375   51.6439   54.1618 C   0  0  0  0  0  0  0  0  0  0  0  0
   69.9921   52.1319   55.4407 C   0  0  1  0  0  0  0  0  0  0  0  0
   70.2689   53.4776   55.6785 O   0  0  0  0  0  0  0  0  0  0  0  0
   68.5159   51.9509   55.1261 C   0  0  2  0  0  0  0  0  0  0  0  0
   67.7307   51.9157   56.2322 F   0  0  0  0  0  0  0  0  0  0  0  0
   68.4984   50.6747   54.3073 C   0  0  0  0  0  0  0  0  0  0  0  0
   67.7269   45.5442   55.1402 O   0  0  0  0  0  0  0  0  0  0  0  0
   68.5031   42.3184   56.6606 C   0  0  0  0  0  0  0  0  0  0  0  0
   69.5840   42.6601   57.4315 C   0  0  0  0  0  0  0  0  0  0  0  0
   70.0296   43.9712   57.4214 C   0  0  0  0  0  0  0  0  0  0  0  0
   69.3980   44.8559   56.6697 N   0  0  0  0  0  0  0  0  0  0  0  0
   68.3417   44.6084   55.8932 C   0  0  0  0  0  0  0  0  0  0  0  0
   67.8848   43.3033   55.8917 C   0  0  0  0  0  0  0  0  0  0  0  0
   67.5539   40.4741   55.4040 N   0  0  0  0  0  0  0  0  0  0  0  0
   68.0436   40.9165   56.6946 C   0  0  0  0  0  0  0  0  0  0  0  0
 23 24  1  0
 24 17  1  0
 17 18  2  0
 17 22  1  0
 18 19  1  0
 19 20  2  0
 20 21  1  0
 21 16  1  0
 21 22  2  0
 16  1  1  0
  1  2  2  0
  1  6  1  0
  2  3  1  0
  3  4  2  0
  4  5  1  0
  5  7  1  0
  5  6  2  0
  7  8  2  0
  7  9  1  0
  9 10  1  0
  9 15  1  0
 10 11  1  0
 11 12  1  6
 11 13  1  0
 13 14  1  1
 13 15  1  0
M  CHG  1  23   1
M  END
>  <minimizedAffinity>  (102) 
-8.87145

$$$$
data/reference_output_2/data/smiles/96857.pdb
     RDKit          3D

 26 29  0  0  0  0  0  0  0  0999 V2000
   69.0394   51.1780   56.1668 C   0  0  0  0  0  0  0  0  0  0  0  0
   68.7884   50.1744   55.2208 C   0  0  0  0  0  0  0  0  0  0  0  0
   69.1180   48.9021   55.4021 C   0  0  0  0  0  0  0  0  0  0  0  0
   69.7667   48.4829   56.5731 C   0  0  0  0  0  0  0  0  0  0  0  0
   70.0644   49.4006   57.5517 C   0  0  0  0  0  0  0  0  0  0  0  0
   70.7656   49.2955   58.7833 C   0  0  0  0  0  0  0  0  0  0  0  0
   70.6947   50.5910   59.2429 N   0  0  0  0  0  0  0  0  0  0  0  0
   70.0935   51.3892   58.4255 N   0  0  0  0  0  0  0  0  0  0  0  0
   69.6768   50.7266   57.3271 C   0  0  0  0  0  0  0  0  0  0  0  0
   68.8086   47.9141   54.3392 C   0  0  0  0  0  0  0  0  0  0  0  0
   67.9119   46.8635   54.6128 C   0  0  0  0  0  0  0  0  0  0  0  0
   67.8220   45.9507   53.5720 C   0  0  0  0  0  0  0  0  0  0  0  0
   68.4066   45.9065   52.4324 C   0  0  0  0  0  0  0  0  0  0  0  0
   69.3337   47.0238   52.1063 C   0  0  0  0  0  0  0  0  0  0  0  0
   69.9453   47.3613   50.9564 N   0  0  0  0  0  0  0  0  0  0  0  0
   70.4549   48.5728   51.2289 N   0  0  0  0  0  0  0  0  0  0  0  0
   70.2443   48.9803   52.4475 C   0  0  0  0  0  0  0  0  0  0  0  0
   69.4569   47.9345   53.1032 C   0  0  0  0  0  0  0  0  0  0  0  0
   68.6880   52.9115   54.4246 N   0  0  0  0  0  0  0  0  0  0  0  0
   68.9539   52.6207   55.8123 C   0  0  0  0  0  0  0  0  0  0  0  0
   69.0778   53.5015   56.6292 O   0  0  0  0  0  0  0  0  0  0  0  0
   71.6117   48.3420   59.1732 C   0  0  0  0  0  0  0  0  0  0  0  0
   72.4595   47.4213   59.5553 C   0  0  0  0  0  0  0  0  0  0  0  0
   73.4428   46.3337   59.9822 C   0  0  0  0  0  0  0  0  0  0  0  0
   72.7165   45.3252   60.8163 C   0  0  0  0  0  0  0  0  0  0  0  0
   71.3992   45.1838   60.3851 O   0  0  0  0  0  0  0  0  0  0  0  0
 19 20  1  0
 20 21  2  0
 20  1  1  0
  1  2  2  0
  1  9  1  0
  2  3  1  0
  3 10  1  0
  3  4  2  0
 10 11  2  0
 10 18  1  0
 11 12  1  0
 12 13  2  0
 13 14  1  0
 14 15  1  0
 14 18  2  0
 15 16  1  0
 16 17  2  0
 17 18  1  0
  4  5  1  0
  5  6  1  0
  5  9  2  0
  6 22  1  0
  6  7  2  0
 22 23  3  0
 23 24  1  0
 24 25  1  0
 25 26  1  0
  7  8  1  0
  8  9  1  0
M  END
>  <minimizedAffinity>  (103) 
-8.56109

$$$$
data/reference_output_2/data/smiles/96873.pdb
     RDKit          3D

 31 35  0  0  0  0  0  0  0  0999 V2000
   69.3723   48.6709   53.0954 C   0  0  0  0  0  0  0  0  0  0  0  0
   69.3708   48.3431   51.7971 N   0  0  0  0  0  0  0  0  0  0  0  0
   68.9170   47.1361   51.6156 N   0  0  0  0  0  0  0  0  0  0  0  0
   68.5961   46.6144   52.8129 C   0  0  0  0  0  0  0  0  0  0  0  0
   68.0787   45.4029   53.2462 C   0  0  0  0  0  0  0  0  0  0  0  0
   67.8381   45.1217   54.5734 C   0  0  0  0  0  0  0  0  0  0  0  0
   68.1266   46.0813   55.4710 N   0  0  0  0  0  0  0  0  0  0  0  0
   68.6344   47.2849   55.0871 C   0  0  0  0  0  0  0  0  0  0  0  0
   68.8717   47.5631   53.7775 C   0  0  0  0  0  0  0  0  0  0  0  0
   72.8972   51.5478   54.9495 C   0  0  0  0  0  0  0  0  0  0  0  0
   71.4544   51.3729   54.5625 C   0  0  0  0  0  0  0  0  0  0  0  0
   71.1137   50.1482   54.0327 C   0  0  0  0  0  0  0  0  0  0  0  0
   69.8068   49.9301   53.6589 C   0  0  0  0  0  0  0  0  0  0  0  0
   68.8989   50.9529   53.8335 C   0  0  0  0  0  0  0  0  0  0  0  0
   69.2853   52.1577   54.3669 C   0  0  0  0  0  0  0  0  0  0  0  0
   70.5478   52.3494   54.7211 N   0  0  0  0  0  0  0  0  0  0  0  0
   67.3051   43.8696   54.9844 N   0  0  0  0  0  0  0  0  0  0  0  0
   67.9386   43.0059   55.9226 C   0  0  0  0  0  0  0  0  0  0  0  0
   69.0318   43.3959   56.4004 O   0  0  0  0  0  0  0  0  0  0  0  0
   67.3971   41.7653   56.3230 N   0  0  0  0  0  0  0  0  0  0  0  0
   68.0053   40.8585   57.2745 C   0  0  0  0  0  0  0  0  0  0  0  0
   68.0557   41.4136   58.6539 C   0  0  0  0  0  0  0  0  0  0  0  0
   66.8717   41.5703   59.3909 C   0  0  0  0  0  0  0  0  0  0  0  0
   66.8677   42.0722   60.6721 C   0  0  0  0  0  0  0  0  0  0  0  0
   68.0445   42.4466   61.2887 C   0  0  0  0  0  0  0  0  0  0  0  0
   69.2144   42.3021   60.5883 C   0  0  0  0  0  0  0  0  0  0  0  0
   69.2161   41.7944   59.2920 C   0  0  0  0  0  0  0  0  0  0  0  0
   70.3765   42.7614   61.4234 C   0  0  0  0  0  0  0  0  0  0  0  0
   69.7875   43.1794   62.6583 N   0  0  0  0  0  0  0  0  0  0  0  0
   68.3780   42.9993   62.6029 C   0  0  0  0  0  0  0  0  0  0  0  0
   67.5369   43.2517   63.4867 O   0  0  0  0  0  0  0  0  0  0  0  0
 10 11  1  0
 11 12  2  0
 11 16  1  0
 12 13  1  0
 13  1  1  0
 13 14  2  0
  1  2  2  0
  1  9  1  0
  2  3  1  0
  3  4  1  0
  4  5  1  0
  4  9  2  0
  5  6  2  0
  6 17  1  0
  6  7  1  0
 17 18  1  0
 18 19  2  0
 18 20  1  0
 20 21  1  0
 21 22  1  0
 22 23  2  0
 22 27  1  0
 23 24  1  0
 24 25  2  0
 25 26  1  0
 25 30  1  0
 26 27  2  0
 26 28  1  0
 28 29  1  0
 29 30  1  0
 30 31  2  0
  7  8  2  0
  8  9  1  0
 14 15  1  0
 15 16  2  0
M  END
>  <minimizedAffinity>  (104) 
-8.74795

$$$$
data/reference_output_2/data/smiles/96896.pdb
     RDKit          3D

 31 34  0  0  0  0  0  0  0  0999 V2000
   70.3470   41.3298   59.5155 C   0  0  0  0  0  0  0  0  0  0  0  0
   70.2062   41.1339   60.7360 O   0  0  0  0  0  0  0  0  0  0  0  0
   69.2705   41.8229   58.7532 N   0  0  0  0  0  0  0  0  0  0  0  0
   67.9562   42.1357   59.2960 C   0  0  0  0  0  0  0  0  0  0  0  0
   67.0931   41.3310   58.3105 C   0  0  0  0  0  0  0  0  0  0  0  0
   67.6906   41.7909   56.9934 C   0  0  0  0  0  0  0  0  0  0  0  0
   69.1435   42.1299   57.3435 C   0  0  1  0  0  0  0  0  0  0  0  0
   71.1575   38.5862   58.2844 C   0  0  0  0  0  0  0  0  0  0  0  0
   70.0763   38.9120   57.6966 O   0  0  0  0  0  0  0  0  0  0  0  0
   71.9343   39.6188   58.8694 N   0  0  0  0  0  0  0  0  0  0  0  0
   73.1831   39.3839   59.5652 C   0  0  0  0  0  0  0  0  0  0  0  0
   73.9036   40.7131   59.2931 C   0  0  0  0  0  0  0  0  0  0  0  0
   72.7867   41.6851   59.6135 C   0  0  0  0  0  0  0  0  0  0  0  0
   71.6305   41.0471   58.8738 C   0  0  2  0  0  0  0  0  0  0  0  0
   70.0863   37.0124   60.3209 C   0  0  0  0  0  0  0  0  0  0  0  0
   71.0333   36.4049   59.3408 C   0  0  0  0  0  0  0  0  0  0  0  0
   71.3434   35.0710   59.4853 C   0  0  0  0  0  0  0  0  0  0  0  0
   72.2251   34.5061   58.5734 C   0  0  0  0  0  0  0  0  0  0  0  0
   72.7735   35.2539   57.5519 C   0  0  0  0  0  0  0  0  0  0  0  0
   72.4184   36.5839   57.4672 C   0  0  0  0  0  0  0  0  0  0  0  0
   71.5572   37.1898   58.3379 C   0  0  0  0  0  0  0  0  0  0  0  0
   69.3249   43.5625   57.0268 C   0  0  0  0  0  0  0  0  0  0  0  0
   70.3395   44.1066   57.5723 O   0  0  0  0  0  0  0  0  0  0  0  0
   68.5033   44.3403   56.2067 N   0  0  0  0  0  0  0  0  0  0  0  0
   68.7166   45.7350   55.9217 C   0  0  0  0  0  0  0  0  0  0  0  0
   68.5290   46.1014   54.5029 C   0  0  0  0  0  0  0  0  0  0  0  0
   67.8214   45.3591   53.5857 C   0  0  0  0  0  0  0  0  0  0  0  0
   67.6810   45.7472   52.2635 C   0  0  0  0  0  0  0  0  0  0  0  0
   68.2347   46.8716   51.8291 N   0  0  0  0  0  0  0  0  0  0  0  0
   68.9485   47.6538   52.6831 C   0  0  0  0  0  0  0  0  0  0  0  0
   69.0958   47.2786   54.0014 C   0  0  0  0  0  0  0  0  0  0  0  0
 15 16  1  0
 16 17  2  0
 16 21  1  0
 17 18  1  0
 18 19  2  0
 19 20  1  0
 20 21  2  0
 21  8  1  0
  8  9  2  0
  8 10  1  0
 10 11  1  0
 10 14  1  0
 11 12  1  0
 12 13  1  0
 13 14  1  0
 14  1  1  1
  1  2  2  0
  1  3  1  0
  3  4  1  0
  3  7  1  0
  4  5  1  0
  5  6  1  0
  6  7  1  0
  7 22  1  1
 22 23  2  0
 22 24  1  0
 24 25  1  0
 25 26  1  0
 26 27  2  0
 26 31  1  0
 27 28  1  0
 28 29  2  0
 29 30  1  0
 30 31  2  0
M  END
>  <minimizedAffinity>  (105) 
-8.58768

$$$$
data/reference_output_2/data/smiles/96950.pdb
     RDKit          3D

 27 29  0  0  0  0  0  0  0  0999 V2000
   72.7087   35.1313   57.3264 C   0  0  0  0  0  0  0  0  0  0  0  0
   72.8262   33.7956   57.5999 C   0  0  0  0  0  0  0  0  0  0  0  0
   72.2103   33.2293   58.7161 C   0  0  0  0  0  0  0  0  0  0  0  0
   71.4844   34.0837   59.5204 C   0  0  0  0  0  0  0  0  0  0  0  0
   71.3650   35.4279   59.2481 C   0  0  0  0  0  0  0  0  0  0  0  0
   70.6470   36.2882   60.0522 C   0  0  0  0  0  0  0  0  0  0  0  0
   70.5353   37.6352   59.7799 C   0  0  0  0  0  0  0  0  0  0  0  0
   71.1384   38.2125   58.6769 C   0  0  0  0  0  0  0  0  0  0  0  0
   71.8679   37.3303   57.8618 C   0  0  0  0  0  0  0  0  0  0  0  0
   71.9760   35.9902   58.1391 C   0  0  0  0  0  0  0  0  0  0  0  0
   73.9335   35.7112   53.7309 C   0  0  0  0  0  0  0  0  0  0  0  0
   73.2648   35.1020   54.8984 C   0  0  0  0  0  0  0  0  0  0  0  0
   72.6240   34.0496   54.7703 O   0  0  0  0  0  0  0  0  0  0  0  0
   73.3457   35.7090   56.1865 N   0  0  0  0  0  0  0  0  0  0  0  0
   71.0494   39.6393   58.3464 C   0  0  0  0  0  0  0  0  0  0  0  0
   69.8128   40.2971   58.8360 C   0  0  0  0  0  0  0  0  0  0  0  0
   69.1240   41.1276   57.8294 C   0  0  0  0  0  0  0  0  0  0  0  0
   69.2560   42.4877   57.7817 C   0  0  0  0  0  0  0  0  0  0  0  0
   68.4605   43.1587   56.8801 N   0  0  0  0  0  0  0  0  0  0  0  0
   67.6107   42.4896   56.0976 C   0  0  0  0  0  0  0  0  0  0  0  0
   66.9093   43.1710   55.2925 O   0  0  0  0  0  0  0  0  0  0  0  0
   67.4886   41.1557   56.1459 N   0  0  0  0  0  0  0  0  0  0  0  0
   68.2303   40.4511   56.9990 C   0  0  0  0  0  0  0  0  0  0  0  0
   68.1314   39.1754   57.0639 O   0  0  0  0  0  0  0  0  0  0  0  0
   70.1938   43.2785   58.5447 C   0  0  0  0  0  0  0  0  0  0  0  0
   69.7320   44.0187   59.4880 O   0  0  0  0  0  0  0  0  0  0  0  0
   71.5570   43.3609   58.4003 O   0  0  0  0  0  0  0  0  0  0  0  0
 11 12  1  0
 12 13  2  0
 12 14  1  0
 14  1  1  0
  1  2  2  0
  1 10  1  0
  2  3  1  0
  3  4  2  0
  4  5  1  0
  5  6  1  0
  5 10  2  0
  6  7  2  0
  7  8  1  0
  8 15  1  0
  8  9  2  0
 15 16  1  0
 16 17  1  0
 17 18  2  0
 17 23  1  0
 18 25  1  0
 18 19  1  0
 25 26  2  0
 25 27  1  0
 19 20  1  0
 20 21  2  0
 20 22  1  0
 22 23  1  0
 23 24  2  0
  9 10  1  0
M  END
>  <minimizedAffinity>  (106) 
-8.72253

$$$$
data/reference_output_2/data/smiles/97083.pdb
     RDKit          3D

 29 33  0  0  0  0  0  0  0  0999 V2000
   70.0120   45.2631   58.9807 O   0  0  0  0  0  0  0  0  0  0  0  0
   70.5129   46.3849   58.6881 C   0  0  0  0  0  0  0  0  0  0  0  0
   71.6005   46.9748   59.4617 C   0  0  0  0  0  0  0  0  0  0  0  0
   72.1215   46.3090   60.5569 C   0  0  0  0  0  0  0  0  0  0  0  0
   73.1621   46.9164   61.2653 C   0  0  0  0  0  0  0  0  0  0  0  0
   73.6308   48.1476   60.8513 C   0  0  0  0  0  0  0  0  0  0  0  0
   73.1146   48.8197   59.7576 C   0  0  0  0  0  0  0  0  0  0  0  0
   72.0717   48.2045   59.0526 C   0  0  0  0  0  0  0  0  0  0  0  0
   71.5240   48.8440   57.9483 O   0  0  0  0  0  0  0  0  0  0  0  0
   70.1814   48.5487   57.6298 C   0  0  0  0  0  0  0  0  0  0  0  0
   70.0278   47.1289   57.5739 N   0  0  0  0  0  0  0  0  0  0  0  0
   74.7219   48.7389   61.6283 C   0  0  0  0  0  0  0  0  0  0  0  0
   75.2193   49.8551   61.3353 O   0  0  0  0  0  0  0  0  0  0  0  0
   75.2183   48.0085   62.7447 N   0  0  0  0  0  0  0  0  0  0  0  0
   76.4898   48.0044   63.4459 C   0  0  0  0  0  0  0  0  0  0  0  0
   76.5490   46.6257   64.0693 C   0  0  0  0  0  0  0  0  0  0  0  0
   75.1106   46.2656   64.3520 C   0  0  0  0  0  0  0  0  0  0  0  0
   74.3122   47.0540   63.3538 C   0  0  2  0  0  0  0  0  0  0  0  0
   73.7068   46.2695   62.3719 O   0  0  0  0  0  0  0  0  0  0  0  0
   69.4153   46.4117   56.4784 C   0  0  0  0  0  0  0  0  0  0  0  0
   68.4141   47.1692   55.6931 C   0  0  0  0  0  0  0  0  0  0  0  0
   68.4957   47.0514   54.2379 C   0  0  0  0  0  0  0  0  0  0  0  0
   67.7458   46.1250   53.5576 C   0  0  0  0  0  0  0  0  0  0  0  0
   67.8122   46.0021   52.1849 C   0  0  0  0  0  0  0  0  0  0  0  0
   67.0595   45.0727   51.5127 F   0  0  0  0  0  0  0  0  0  0  0  0
   68.6628   46.8490   51.5092 C   0  0  0  0  0  0  0  0  0  0  0  0
   69.4233   47.7879   52.1824 C   0  0  0  0  0  0  0  0  0  0  0  0
   70.2646   48.6191   51.4676 F   0  0  0  0  0  0  0  0  0  0  0  0
   69.3273   47.8753   53.5433 C   0  0  0  0  0  0  0  0  0  0  0  0
  1  2  2  0
  2  3  1  0
  2 11  1  0
  3  4  1  0
  3  8  2  0
  4  5  2  0
  5  6  1  0
  5 19  1  0
  6  7  2  0
  6 12  1  0
  7  8  1  0
  8  9  1  0
  9 10  1  0
 10 11  1  0
 11 20  1  0
 20 21  1  0
 21 22  1  0
 22 23  2  0
 22 29  1  0
 23 24  1  0
 24 25  1  0
 24 26  2  0
 26 27  1  0
 27 28  1  0
 27 29  2  0
 12 13  2  0
 12 14  1  0
 14 15  1  0
 14 18  1  0
 15 16  1  0
 16 17  1  0
 18 17  1  1
 18 19  1  0
M  END
>  <minimizedAffinity>  (107) 
-8.56149

$$$$
data/reference_output_2/data/smiles/97311.pdb
     RDKit          3D

 29 31  0  0  0  0  0  0  0  0999 V2000
   68.7282   46.6743   54.3732 C   0  0  0  0  0  0  0  0  0  0  0  0
   69.4068   47.8608   54.5542 C   0  0  0  0  0  0  0  0  0  0  0  0
   69.6482   48.7533   53.5309 C   0  0  0  0  0  0  0  0  0  0  0  0
   69.1996   48.4566   52.2855 C   0  0  0  0  0  0  0  0  0  0  0  0
   68.5096   47.2754   52.0460 C   0  0  0  0  0  0  0  0  0  0  0  0
   68.2796   46.3881   53.1048 C   0  0  0  0  0  0  0  0  0  0  0  0
   67.4164   44.8877   52.8638 Cl  0  0  0  0  0  0  0  0  0  0  0  0
   68.3113   44.3975   55.4105 N   0  0  0  0  0  0  0  0  0  0  0  0
   68.5177   45.8000   55.5160 C   0  0  0  0  0  0  0  0  0  0  0  0
   68.5169   46.3023   56.6701 O   0  0  0  0  0  0  0  0  0  0  0  0
   67.2729   41.9002   55.2442 O   0  0  0  0  0  0  0  0  0  0  0  0
   67.5619   42.2613   56.4195 C   0  0  0  0  0  0  0  0  0  0  0  0
   68.1087   43.5700   56.5328 N   0  0  0  0  0  0  0  0  0  0  0  0
   67.3426   41.3822   57.5637 C   0  0  0  0  0  0  0  0  0  0  0  0
   66.5735   41.6796   58.6332 C   0  0  0  0  0  0  0  0  0  0  0  0
   66.4448   40.7517   59.6663 C   0  0  0  0  0  0  0  0  0  0  0  0
   67.0838   39.5258   59.6338 C   0  0  0  0  0  0  0  0  0  0  0  0
   66.9702   38.6125   60.6311 F   0  0  0  0  0  0  0  0  0  0  0  0
   67.8692   39.2154   58.5467 C   0  0  0  0  0  0  0  0  0  0  0  0
   67.9831   40.1440   57.5363 C   0  0  0  0  0  0  0  0  0  0  0  0
   70.5372   50.2352   53.9305 S   0  0  0  0  0  0  0  0  0  0  0  0
   71.9829   49.8653   53.9188 O   0  0  0  0  0  0  0  0  0  0  0  0
   70.2248   51.2353   52.8236 O   0  0  0  0  0  0  0  0  0  0  0  0
   69.9618   50.8144   55.3724 N   0  0  0  0  0  0  0  0  0  0  0  0
   68.9404   51.7725   55.4189 C   0  0  0  0  0  0  0  0  0  0  0  0
   68.0274   51.3683   56.5899 C   0  0  0  0  0  0  0  0  0  0  0  0
   68.7263   51.0990   57.7406 O   0  0  0  0  0  0  0  0  0  0  0  0
   69.7226   50.1502   57.6115 C   0  0  0  0  0  0  0  0  0  0  0  0
   70.6941   50.7120   56.5578 C   0  0  0  0  0  0  0  0  0  0  0  0
 11 12  2  0
 12 13  1  0
 12 14  1  0
 13  8  1  0
  8  9  1  0
  9 10  2  0
  9  1  1  0
  1  2  2  0
  1  6  1  0
  2  3  1  0
  3 21  1  0
  3  4  2  0
 21 22  2  0
 21 23  2  0
 21 24  1  0
 24 25  1  0
 24 29  1  0
 25 26  1  0
 26 27  1  0
 27 28  1  0
 28 29  1  0
  4  5  1  0
  5  6  2  0
  6  7  1  0
 14 15  2  0
 14 20  1  0
 15 16  1  0
 16 17  2  0
 17 18  1  0
 17 19  1  0
 19 20  2  0
M  END
>  <minimizedAffinity>  (108) 
-8.72991

$$$$
data/reference_output_2/data/smiles/97326.pdb
     RDKit          3D

 24 26  0  0  0  0  0  0  0  0999 V2000
   69.0946   47.2475   56.5419 S   0  0  0  0  0  0  0  0  0  0  0  0
   69.9366   48.0609   57.5093 O   0  0  0  0  0  0  0  0  0  0  0  0
   67.6784   47.4125   57.0331 O   0  0  0  0  0  0  0  0  0  0  0  0
   69.2817   47.8235   54.9174 C   0  0  0  0  0  0  0  0  0  0  0  0
   69.9792   48.9832   54.6863 C   0  0  0  0  0  0  0  0  0  0  0  0
   70.1772   49.4660   53.3972 C   0  0  0  0  0  0  0  0  0  0  0  0
   69.6503   48.7435   52.3339 C   0  0  0  0  0  0  0  0  0  0  0  0
   68.9519   47.5859   52.5421 C   0  0  0  0  0  0  0  0  0  0  0  0
   68.4305   46.8995   51.4805 C   0  0  0  0  0  0  0  0  0  0  0  0
   67.7343   45.7661   51.7373 N   0  0  0  0  0  0  0  0  0  0  0  0
   67.5418   45.3017   52.9781 C   0  0  0  0  0  0  0  0  0  0  0  0
   68.0581   45.9770   54.0611 C   0  0  0  0  0  0  0  0  0  0  0  0
   68.7800   47.1450   53.8424 C   0  0  0  0  0  0  0  0  0  0  0  0
   69.9268   45.0358   57.8862 C   0  0  0  0  0  0  0  0  0  0  0  0
   69.7946   45.6912   58.9387 O   0  0  0  0  0  0  0  0  0  0  0  0
   69.6261   45.6276   56.6532 N   0  0  0  0  0  0  0  0  0  0  0  0
   70.4076   43.6288   58.0208 C   0  0  0  0  0  0  0  0  0  0  0  0
   70.4756   40.8075   58.8678 C   0  0  0  0  0  0  0  0  0  0  0  0
   69.4704   41.3147   57.8962 C   0  0  0  0  0  0  0  0  0  0  0  0
   68.5602   40.3837   57.4052 C   0  0  0  0  0  0  0  0  0  0  0  0
   67.5985   40.7792   56.5007 C   0  0  0  0  0  0  0  0  0  0  0  0
   67.5947   42.1022   56.1265 C   0  0  0  0  0  0  0  0  0  0  0  0
   68.4892   43.0368   56.6030 C   0  0  0  0  0  0  0  0  0  0  0  0
   69.4563   42.6409   57.5132 C   0  0  0  0  0  0  0  0  0  0  0  0
 18 19  1  0
 19 20  2  0
 19 24  1  0
 20 21  1  0
 21 22  2  0
 22 23  1  0
 23 24  2  0
 24 17  1  0
 17 14  1  0
 14 15  2  0
 14 16  1  0
 16  1  1  0
  1  2  2  0
  1  3  2  0
  1  4  1  0
  4  5  2  0
  4 13  1  0
  5  6  1  0
  6  7  2  0
  7  8  1  0
  8  9  1  0
  8 13  2  0
  9 10  2  0
 10 11  1  0
 11 12  2  0
 12 13  1  0
M  END
>  <minimizedAffinity>  (109) 
-8.82522

$$$$
data/reference_output_2/data/smiles/97442.pdb
     RDKit          3D

 28 31  0  0  0  0  0  0  0  0999 V2000
   76.3244   34.5681   54.9701 N   0  0  0  0  0  0  0  0  0  0  0  0
   77.0418   34.7851   56.0950 C   0  0  0  0  0  0  0  0  0  0  0  0
   76.2290   35.0296   57.1336 N   0  0  0  0  0  0  0  0  0  0  0  0
   76.5905   35.3128   58.5212 C   0  0  0  0  0  0  0  0  0  0  0  0
   74.9529   34.9793   56.7156 C   0  0  0  0  0  0  0  0  0  0  0  0
   75.0200   34.6900   55.3606 C   0  0  0  0  0  0  0  0  0  0  0  0
   73.7167   35.1770   57.4714 C   0  0  0  0  0  0  0  0  0  0  0  0
   73.1202   34.1166   58.1325 C   0  0  0  0  0  0  0  0  0  0  0  0
   71.9477   34.3015   58.8512 C   0  0  0  0  0  0  0  0  0  0  0  0
   71.3383   35.5367   58.9329 C   0  0  0  0  0  0  0  0  0  0  0  0
   71.9289   36.5991   58.2757 C   0  0  0  0  0  0  0  0  0  0  0  0
   73.0856   36.4023   57.5701 C   0  0  0  0  0  0  0  0  0  0  0  0
   73.8465   34.5493   54.5057 C   0  0  0  0  0  0  0  0  0  0  0  0
   73.2972   33.3065   54.2829 C   0  0  0  0  0  0  0  0  0  0  0  0
   72.1721   33.1480   53.4613 C   0  0  0  0  0  0  0  0  0  0  0  0
   71.5873   34.2365   52.8545 C   0  0  0  0  0  0  0  0  0  0  0  0
   72.1310   35.4771   53.0742 C   0  0  0  0  0  0  0  0  0  0  0  0
   73.2541   35.6302   53.8953 C   0  0  0  0  0  0  0  0  0  0  0  0
   76.7501   34.2385   53.6524 C   0  0  0  0  0  0  0  0  0  0  0  0
   76.7594   35.1702   52.5835 C   0  0  0  0  0  0  0  0  0  0  0  0
   76.6857   36.4201   52.9838 O   0  0  0  0  0  0  0  0  0  0  0  0
   77.2566   34.7213   46.8476 C   0  0  0  0  0  0  0  0  0  0  0  0
   77.0994   34.8125   48.3298 C   0  0  0  0  0  0  0  0  0  0  0  0
   76.1514   34.0771   48.9939 C   0  0  0  0  0  0  0  0  0  0  0  0
   76.0400   34.1949   50.3829 C   0  0  0  0  0  0  0  0  0  0  0  0
   76.8324   35.0154   51.1564 C   0  0  0  0  0  0  0  0  0  0  0  0
   77.7857   35.7433   50.4208 C   0  0  0  0  0  0  0  0  0  0  0  0
   77.8986   35.6334   49.0693 C   0  0  0  0  0  0  0  0  0  0  0  0
 22 23  1  0
 23 24  2  0
 23 28  1  0
 24 25  1  0
 25 26  2  0
 26 20  1  0
 26 27  1  0
 20 21  2  0
 20 19  1  0
 19  1  1  0
  1  2  2  0
  1  6  1  0
  2  3  1  0
  3  4  1  0
  3  5  1  0
  5  7  1  0
  5  6  2  0
  7  8  2  0
  7 12  1  0
  8  9  1  0
  9 10  2  0
 10 11  1  0
 11 12  2  0
  6 13  1  0
 13 14  2  0
 13 18  1  0
 14 15  1  0
 15 16  2  0
 16 17  1  0
 17 18  2  0
 27 28  2  0
M  CHG  1   1   1
M  END
>  <minimizedAffinity>  (110) 
-8.55178

$$$$
data/reference_output_2/data/smiles/97470.pdb
     RDKit          3D

 29 31  0  0  0  0  0  0  0  0999 V2000
   69.8408   45.4274   59.1012 O   0  0  0  0  0  0  0  0  0  0  0  0
   70.5241   45.9620   58.1986 C   0  0  0  0  0  0  0  0  0  0  0  0
   71.9176   46.3647   58.5395 C   0  0  0  0  0  0  0  0  0  0  0  0
   71.8599   47.4382   59.5908 C   0  0  0  0  0  0  0  0  0  0  0  0
   71.0105   48.5343   59.2492 N   0  0  0  0  0  0  0  0  0  0  0  0
   71.3662   49.4865   58.2408 C   0  0  0  0  0  0  0  0  0  0  0  0
   72.5858   49.5231   57.8096 N   0  0  0  0  0  0  0  0  0  0  0  0
   72.7241   50.7685   56.5960 S   0  0  0  0  0  0  0  0  0  0  0  0
   73.6519   51.8429   57.0086 O   0  0  0  0  0  0  0  0  0  0  0  0
   73.0717   50.1595   55.2757 O   0  0  0  0  0  0  0  0  0  0  0  0
   71.0477   51.2460   56.6940 C   0  0  0  0  0  0  0  0  0  0  0  0
   70.3786   52.2146   56.0028 C   0  0  0  0  0  0  0  0  0  0  0  0
   69.0317   52.4239   56.2460 C   0  0  0  0  0  0  0  0  0  0  0  0
   68.4448   51.6187   57.1924 C   0  0  0  0  0  0  0  0  0  0  0  0
   69.1224   50.6586   57.8720 C   0  0  0  0  0  0  0  0  0  0  0  0
   70.4855   50.4337   57.6395 C   0  0  0  0  0  0  0  0  0  0  0  0
   69.9468   46.1267   57.0014 O   0  0  0  0  0  0  0  0  0  0  0  0
   69.0921   46.9897   56.4092 C   0  0  0  0  0  0  0  0  0  0  0  0
   68.8919   46.9427   54.9545 C   0  0  0  0  0  0  0  0  0  0  0  0
   69.3024   47.9676   54.1438 C   0  0  0  0  0  0  0  0  0  0  0  0
   70.0005   49.0498   54.5931 F   0  0  0  0  0  0  0  0  0  0  0  0
   69.0805   47.9626   52.7614 C   0  0  0  0  0  0  0  0  0  0  0  0
   69.4925   48.9843   51.9815 F   0  0  0  0  0  0  0  0  0  0  0  0
   68.4281   46.8870   52.2118 C   0  0  0  0  0  0  0  0  0  0  0  0
   68.1674   46.7942   50.8841 F   0  0  0  0  0  0  0  0  0  0  0  0
   68.0135   45.8566   53.0113 C   0  0  0  0  0  0  0  0  0  0  0  0
   67.3617   44.7778   52.4704 F   0  0  0  0  0  0  0  0  0  0  0  0
   68.2343   45.8723   54.3536 C   0  0  0  0  0  0  0  0  0  0  0  0
   67.8430   44.8687   55.2011 F   0  0  0  0  0  0  0  0  0  0  0  0
  1  2  2  0
  2  3  1  0
  2 17  1  0
  3  4  1  0
  4  5  1  0
  5  6  1  0
  6  7  2  0
  6 16  1  0
  7  8  1  0
  8  9  2  0
  8 10  2  0
  8 11  1  0
 11 12  1  0
 11 16  2  0
 12 13  2  0
 13 14  1  0
 14 15  2  0
 15 16  1  0
 17 18  1  0
 18 19  1  0
 19 20  2  0
 19 28  1  0
 20 21  1  0
 20 22  1  0
 22 23  1  0
 22 24  2  0
 24 25  1  0
 24 26  1  0
 26 27  1  0
 26 28  2  0
 28 29  1  0
M  CHG  1   7   1
M  END
>  <minimizedAffinity>  (111) 
-8.93952

$$$$
data/reference_output_2/data/smiles/97488.pdb
     RDKit          3D

 31 33  0  0  0  0  0  0  0  0999 V2000
   70.2226   48.7954   58.5384 C   0  0  0  0  0  0  0  0  0  0  0  0
   69.4603   49.1906   57.3777 C   0  0  0  0  0  0  0  0  0  0  0  0
   68.5920   50.1536   57.6411 O   0  0  0  0  0  0  0  0  0  0  0  0
   71.0852   50.4606   55.2345 C   0  0  0  0  0  0  0  0  0  0  0  0
   70.1584   49.3241   54.9911 C   0  0  0  0  0  0  0  0  0  0  0  0
   69.4178   48.7809   55.9991 C   0  0  0  0  0  0  0  0  0  0  0  0
   68.6115   47.7284   55.6270 N   0  0  0  0  0  0  0  0  0  0  0  0
   67.8311   47.1375   56.6030 O   0  0  0  0  0  0  0  0  0  0  0  0
   68.5290   47.2416   54.3919 C   0  0  0  0  0  0  0  0  0  0  0  0
   67.7272   46.1679   54.0732 C   0  0  0  0  0  0  0  0  0  0  0  0
   67.6672   45.6512   52.7947 C   0  0  0  0  0  0  0  0  0  0  0  0
   68.4195   46.2006   51.7772 C   0  0  0  0  0  0  0  0  0  0  0  0
   69.2202   47.2792   52.1058 C   0  0  0  0  0  0  0  0  0  0  0  0
   69.2831   47.8037   53.3998 C   0  0  0  0  0  0  0  0  0  0  0  0
   70.0794   48.8326   53.7183 N   0  0  0  0  0  0  0  0  0  0  0  0
   70.8304   49.3897   52.7171 O   0  0  0  0  0  0  0  0  0  0  0  0
   71.1994   47.7014   58.1741 C   0  0  0  0  0  0  0  0  0  0  0  0
   72.3515   47.9721   57.8345 O   0  0  0  0  0  0  0  0  0  0  0  0
   70.7570   46.3238   58.2327 C   0  0  0  0  0  0  0  0  0  0  0  0
   70.5639   45.7591   59.3726 O   0  0  0  0  0  0  0  0  0  0  0  0
   70.5116   45.5048   57.1043 N   0  0  0  0  0  0  0  0  0  0  0  0
   70.0876   44.1660   57.2862 C   0  0  0  0  0  0  0  0  0  0  0  0
   70.7987   43.2690   58.0766 C   0  0  0  0  0  0  0  0  0  0  0  0
   70.3283   41.9898   58.2076 C   0  0  0  0  0  0  0  0  0  0  0  0
   69.1712   41.5660   57.5771 C   0  0  0  0  0  0  0  0  0  0  0  0
   68.4680   42.4577   56.7963 C   0  0  0  0  0  0  0  0  0  0  0  0
   68.9324   43.7379   56.6610 C   0  0  0  0  0  0  0  0  0  0  0  0
   67.2064   42.0524   56.0878 C   0  0  0  0  0  0  0  0  0  0  0  0
   66.9594   43.0668   55.1640 F   0  0  0  0  0  0  0  0  0  0  0  0
   66.1902   42.0478   57.0218 F   0  0  0  0  0  0  0  0  0  0  0  0
   67.3423   40.8385   55.4722 F   0  0  0  0  0  0  0  0  0  0  0  0
  4  5  1  0
  5  6  2  0
  5 15  1  0
  6  2  1  0
  6  7  1  0
  2  3  2  0
  2  1  1  0
  1 17  1  0
 17 18  2  0
 17 19  1  0
 19 20  2  0
 19 21  1  0
 21 22  1  0
 22 23  2  0
 22 27  1  0
 23 24  1  0
 24 25  2  0
 25 26  1  0
 26 28  1  0
 26 27  2  0
 28 29  1  0
 28 30  1  0
 28 31  1  0
  7  8  1  0
  7  9  2  0
  9 10  1  0
  9 14  1  0
 10 11  2  0
 11 12  1  0
 12 13  2  0
 13 14  1  0
 14 15  2  0
 15 16  1  0
M  CHG  4   7   1   8  -1  15   1  16  -1
M  END
>  <minimizedAffinity>  (112) 
-9.00120

$$$$
data/reference_output_2/data/smiles/97727.pdb
     RDKit          3D

 26 29  0  0  0  0  0  0  0  0999 V2000
   71.5135   44.2197   58.8650 C   0  0  0  0  0  0  0  0  0  0  0  0
   70.3932   44.0437   57.9004 N   0  0  0  0  0  0  0  0  0  0  0  0
   69.8185   45.0435   57.3393 N   0  0  0  0  0  0  0  0  0  0  0  0
   68.9174   45.0924   56.5539 C   0  0  0  0  0  0  0  0  0  0  0  0
   68.6161   43.2274   56.4095 S   0  0  0  0  0  0  0  0  0  0  0  0
   69.9434   42.8450   57.5860 C   0  0  0  0  0  0  0  0  0  0  0  0
   70.2627   41.4725   57.9518 C   0  0  0  0  0  0  0  0  0  0  0  0
   69.2153   40.5430   58.0320 C   0  0  0  0  0  0  0  0  0  0  0  0
   69.4097   39.2229   58.3664 C   0  0  0  0  0  0  0  0  0  0  0  0
   70.6636   38.7317   58.6448 C   0  0  0  0  0  0  0  0  0  0  0  0
   71.7020   39.6223   58.5715 C   0  0  0  0  0  0  0  0  0  0  0  0
   71.4930   40.9672   58.2300 C   0  0  0  0  0  0  0  0  0  0  0  0
   70.8747   37.3294   59.0003 C   0  0  0  0  0  0  0  0  0  0  0  0
   71.7806   36.7001   58.4020 O   0  0  0  0  0  0  0  0  0  0  0  0
   70.1378   36.6609   59.9536 O   0  0  0  0  0  0  0  0  0  0  0  0
   68.0924   45.9528   55.7839 N   0  0  0  0  0  0  0  0  0  0  0  0
   68.2368   46.2472   54.4140 C   0  0  0  0  0  0  0  0  0  0  0  0
   67.6658   45.3811   53.4574 C   0  0  0  0  0  0  0  0  0  0  0  0
   67.7761   45.6306   52.1079 C   0  0  0  0  0  0  0  0  0  0  0  0
   68.4555   46.7477   51.6788 C   0  0  0  0  0  0  0  0  0  0  0  0
   69.0171   47.6029   52.5935 C   0  0  0  0  0  0  0  0  0  0  0  0
   69.6799   48.7205   52.1081 C   0  0  0  0  0  0  0  0  0  0  0  0
   70.2359   49.5935   53.0160 C   0  0  0  0  0  0  0  0  0  0  0  0
   70.1468   49.3837   54.3532 C   0  0  0  0  0  0  0  0  0  0  0  0
   69.4811   48.2593   54.8512 C   0  0  0  0  0  0  0  0  0  0  0  0
   68.9136   47.3633   53.9730 C   0  0  0  0  0  0  0  0  0  0  0  0
  1  2  1  0
  2  3  1  0
  2  6  2  0
  3  4  2  0
  4 16  1  0
  4  5  1  0
 16 17  1  0
 17 18  2  0
 17 26  1  0
 18 19  1  0
 19 20  2  0
 20 21  1  0
 21 22  1  0
 21 26  2  0
 22 23  2  0
 23 24  1  0
 24 25  2  0
 25 26  1  0
  5  6  1  0
  6  7  1  0
  7  8  2  0
  7 12  1  0
  8  9  1  0
  9 10  2  0
 10 13  1  0
 10 11  1  0
 13 14  2  0
 13 15  1  0
 11 12  2  0
M  CHG  1   2   1
M  END
>  <minimizedAffinity>  (113) 
-8.56110

$$$$
data/reference_output_2/data/smiles/97728.pdb
     RDKit          3D

 25 27  0  0  0  0  0  0  0  0999 V2000
   66.9791   41.6919   55.3923 O   0  0  0  0  0  0  0  0  0  0  0  0
   67.2492   42.2026   56.4981 C   0  0  0  0  0  0  0  0  0  0  0  0
   67.8014   43.5320   56.4703 N   0  0  0  0  0  0  0  0  0  0  0  0
   68.0503   44.2278   55.2882 N   0  0  0  0  0  0  0  0  0  0  0  0
   68.2812   45.6214   55.2023 C   0  0  0  0  0  0  0  0  0  0  0  0
   68.2405   46.2632   56.2866 O   0  0  0  0  0  0  0  0  0  0  0  0
   68.5536   46.3109   53.9353 C   0  0  0  0  0  0  0  0  0  0  0  0
   67.9451   45.9515   52.7448 C   0  0  0  0  0  0  0  0  0  0  0  0
   68.4365   46.8216   51.7526 C   0  0  0  0  0  0  0  0  0  0  0  0
   69.3057   47.6459   52.4061 C   0  0  0  0  0  0  0  0  0  0  0  0
   69.3354   47.3005   53.6932 O   0  0  0  0  0  0  0  0  0  0  0  0
   70.0546   48.6996   51.8087 N   0  0  0  0  0  0  0  0  0  0  0  0
   70.7324   48.5604   50.7870 O   0  0  0  0  0  0  0  0  0  0  0  0
   70.0231   49.9314   52.4141 O   0  0  0  0  0  0  0  0  0  0  0  0
   67.0043   41.4770   57.7683 C   0  0  0  0  0  0  0  0  0  0  0  0
   68.1379   40.6045   58.1315 C   0  0  0  0  0  0  0  0  0  0  0  0
   67.8180   39.2569   58.3601 C   0  0  0  0  0  0  0  0  0  0  0  0
   68.7951   38.3407   58.6466 C   0  0  0  0  0  0  0  0  0  0  0  0
   70.1276   38.6936   58.7238 C   0  0  0  0  0  0  0  0  0  0  0  0
   71.0976   37.7221   58.9918 C   0  0  0  0  0  0  0  0  0  0  0  0
   72.4182   38.0631   59.0414 C   0  0  0  0  0  0  0  0  0  0  0  0
   72.7514   39.3835   58.8200 C   0  0  0  0  0  0  0  0  0  0  0  0
   71.7865   40.3383   58.5561 C   0  0  0  0  0  0  0  0  0  0  0  0
   70.4496   40.0143   58.5008 C   0  0  0  0  0  0  0  0  0  0  0  0
   69.4497   40.9497   58.2102 C   0  0  0  0  0  0  0  0  0  0  0  0
  1  2  2  0
  2 15  1  0
  2  3  1  0
 15 16  1  0
 16 17  2  0
 16 25  1  0
 17 18  1  0
 18 19  2  0
 19 20  1  0
 19 24  1  0
 20 21  2  0
 21 22  1  0
 22 23  2  0
 23 24  1  0
 24 25  2  0
  3  4  1  0
  4  5  1  0
  5  6  2  0
  5  7  1  0
  7  8  2  0
  7 11  1  0
  8  9  1  0
  9 10  2  0
 10 12  1  0
 10 11  1  0
 12 13  2  0
 12 14  1  0
M  CHG  2  12   1  14  -1
M  END
>  <minimizedAffinity>  (114) 
-9.22613

$$$$
data/reference_output_2/data/smiles/97849.pdb
     RDKit          3D

 24 26  0  0  0  0  0  0  0  0999 V2000
   72.2380   51.0236   55.0458 C   0  0  1  0  0  0  0  0  0  0  0  0
   73.6693   50.9336   54.7682 C   0  0  0  0  0  0  0  0  0  0  0  0
   74.1423   50.3493   53.7335 O   0  0  0  0  0  0  0  0  0  0  0  0
   74.6208   51.5057   55.6478 N   0  0  0  0  0  0  0  0  0  0  0  0
   75.9579   51.4464   55.4192 O   0  0  0  0  0  0  0  0  0  0  0  0
   70.5461   49.9013   53.5431 C   0  0  0  0  0  0  0  0  0  0  0  0
   70.2332   51.0184   53.0745 O   0  0  0  0  0  0  0  0  0  0  0  0
   71.5526   49.8450   54.5421 N   0  0  0  0  0  0  0  0  0  0  0  0
   67.7672   45.8339   53.6479 C   0  0  0  0  0  0  0  0  0  0  0  0
   68.6816   46.8645   53.0977 C   0  0  0  0  0  0  0  0  0  0  0  0
   69.2367   46.9307   51.8334 C   0  0  0  0  0  0  0  0  0  0  0  0
   69.9996   48.0729   51.8474 C   0  0  0  0  0  0  0  0  0  0  0  0
   69.8971   48.6627   53.0841 C   0  0  0  0  0  0  0  0  0  0  0  0
   69.0975   47.9054   53.8029 O   0  0  0  0  0  0  0  0  0  0  0  0
   71.8402   51.3585   56.4353 C   0  0  0  0  0  0  0  0  0  0  0  0
   70.4437   51.6657   56.6904 C   0  0  0  0  0  0  0  0  0  0  0  0
   69.9559   52.9652   56.5853 C   0  0  0  0  0  0  0  0  0  0  0  0
   68.6440   52.9073   56.8451 N   0  0  0  0  0  0  0  0  0  0  0  0
   68.2693   51.6567   57.1091 C   0  0  0  0  0  0  0  0  0  0  0  0
   67.0469   51.1435   57.4317 C   0  0  0  0  0  0  0  0  0  0  0  0
   66.9091   49.7938   57.6760 C   0  0  0  0  0  0  0  0  0  0  0  0
   68.0194   48.9872   57.5880 C   0  0  0  0  0  0  0  0  0  0  0  0
   69.2605   49.4855   57.2638 C   0  0  0  0  0  0  0  0  0  0  0  0
   69.4073   50.8426   57.0163 C   0  0  0  0  0  0  0  0  0  0  0  0
  9 10  1  0
 10 11  2  0
 10 14  1  0
 11 12  1  0
 12 13  2  0
 13  6  1  0
 13 14  1  0
  6  7  2  0
  6  8  1  0
  8  1  1  0
  1 15  1  1
  1  2  1  0
 15 16  1  0
 16 17  2  0
 16 24  1  0
 17 18  1  0
 18 19  1  0
 19 20  1  0
 19 24  2  0
 20 21  2  0
 21 22  1  0
 22 23  2  0
 23 24  1  0
  2  3  2  0
  2  4  1  0
  4  5  1  0
M  END
>  <minimizedAffinity>  (115) 
-8.55558

$$$$
data/reference_output_2/data/smiles/97852.pdb
     RDKit          3D

 27 29  0  0  0  0  0  0  0  0999 V2000
   69.1460   43.0269   57.1664 C   0  0  0  0  0  0  0  0  0  0  0  0
   67.9711   42.6306   57.3876 O   0  0  0  0  0  0  0  0  0  0  0  0
   69.2971   44.2452   56.4636 N   0  0  0  0  0  0  0  0  0  0  0  0
   73.9638   42.8203   58.2372 C   0  0  0  0  0  0  0  0  0  0  0  0
   72.6451   42.1433   58.1527 C   0  0  0  0  0  0  0  0  0  0  0  0
   71.5378   42.8404   57.7218 C   0  0  0  0  0  0  0  0  0  0  0  0
   70.2837   42.2414   57.6286 C   0  0  0  0  0  0  0  0  0  0  0  0
   70.1904   40.9209   57.9847 C   0  0  0  0  0  0  0  0  0  0  0  0
   71.2764   40.1662   58.4278 C   0  0  0  0  0  0  0  0  0  0  0  0
   72.4934   40.8113   58.5003 C   0  0  0  0  0  0  0  0  0  0  0  0
   71.1170   38.7922   58.7853 N   0  0  0  0  0  0  0  0  0  0  0  0
   71.7687   37.7384   58.2582 C   0  0  0  0  0  0  0  0  0  0  0  0
   71.3461   36.5709   58.8596 C   0  0  0  0  0  0  0  0  0  0  0  0
   70.3952   36.9775   59.7865 C   0  0  0  0  0  0  0  0  0  0  0  0
   70.3058   38.3152   59.6918 N   0  0  0  0  0  0  0  0  0  0  0  0
   68.2089   45.0010   56.0193 N   0  0  0  0  0  0  0  0  0  0  0  0
   68.5780   46.6851   56.0423 S   0  0  0  0  0  0  0  0  0  0  0  0
   67.5070   47.4979   56.6830 O   0  0  0  0  0  0  0  0  0  0  0  0
   69.8248   46.8534   56.8945 O   0  0  0  0  0  0  0  0  0  0  0  0
   68.9385   47.2710   54.4377 C   0  0  0  0  0  0  0  0  0  0  0  0
   69.7453   48.3583   54.2912 C   0  0  0  0  0  0  0  0  0  0  0  0
   70.0205   48.8094   53.0045 C   0  0  0  0  0  0  0  0  0  0  0  0
   69.4910   48.1733   51.8972 C   0  0  0  0  0  0  0  0  0  0  0  0
   68.6857   47.0822   52.1068 C   0  0  0  0  0  0  0  0  0  0  0  0
   68.1580   46.4479   51.0232 F   0  0  0  0  0  0  0  0  0  0  0  0
   68.3928   46.6118   53.3481 C   0  0  0  0  0  0  0  0  0  0  0  0
   67.5961   45.5332   53.5675 F   0  0  0  0  0  0  0  0  0  0  0  0
  4  5  1  0
  5  6  2  0
  5 10  1  0
  6  7  1  0
  7  1  1  0
  7  8  2  0
  1  2  2  0
  1  3  1  0
  3 16  1  0
 16 17  1  0
 17 18  2  0
 17 19  2  0
 17 20  1  0
 20 21  2  0
 20 26  1  0
 21 22  1  0
 22 23  2  0
 23 24  1  0
 24 25  1  0
 24 26  2  0
 26 27  1  0
  8  9  1  0
  9 11  1  0
  9 10  2  0
 11 12  1  0
 11 15  1  0
 12 13  2  0
 13 14  1  0
 14 15  2  0
M  END
>  <minimizedAffinity>  (116) 
-9.31927

$$$$
data/reference_output_2/data/smiles/97914.pdb
     RDKit          3D

 33 37  0  0  0  0  0  0  0  0999 V2000
   73.6350   41.9277   58.1260 O   0  0  0  0  0  0  0  0  0  0  0  0
   72.3808   41.8467   58.1907 C   0  0  0  0  0  0  0  0  0  0  0  0
   71.7682   40.6347   58.2779 N   0  0  0  0  0  0  0  0  0  0  0  0
   70.4240   40.5987   58.3445 C   0  0  0  0  0  0  0  0  0  0  0  0
   69.8399   39.4142   58.4288 C   0  0  0  0  0  0  0  0  0  0  0  0
   69.7183   41.7852   58.3218 C   0  0  0  0  0  0  0  0  0  0  0  0
   68.4560   41.6778   58.3878 O   0  0  0  0  0  0  0  0  0  0  0  0
   70.3104   42.9920   58.2352 N   0  0  0  0  0  0  0  0  0  0  0  0
   71.6563   43.0181   58.1693 C   0  0  0  0  0  0  0  0  0  0  0  0
   72.2430   44.2201   58.0834 C   0  0  0  0  0  0  0  0  0  0  0  0
   70.6016   38.1564   58.4532 C   0  0  0  0  0  0  0  0  0  0  0  0
   70.3732   37.1501   59.3174 N   0  0  0  0  0  0  0  0  0  0  0  0
   71.2308   36.1287   59.0965 C   0  0  0  0  0  0  0  0  0  0  0  0
   71.4318   34.8881   59.6758 C   0  0  0  0  0  0  0  0  0  0  0  0
   72.4061   34.0163   59.2436 C   0  0  0  0  0  0  0  0  0  0  0  0
   73.2175   34.4099   58.1783 C   0  0  0  0  0  0  0  0  0  0  0  0
   73.0082   35.6474   57.6098 C   0  0  0  0  0  0  0  0  0  0  0  0
   72.0362   36.5265   58.0356 C   0  0  0  0  0  0  0  0  0  0  0  0
   71.6118   37.7549   57.6891 N   0  0  0  0  0  0  0  0  0  0  0  0
   71.4631   45.4399   58.0624 C   0  0  0  0  0  0  0  0  0  0  0  0
   71.9017   46.5218   58.7746 C   0  0  0  0  0  0  0  0  0  0  0  0
   71.1834   47.6982   58.7775 C   0  0  0  0  0  0  0  0  0  0  0  0
   70.0313   47.7532   58.0548 C   0  0  0  0  0  0  0  0  0  0  0  0
   69.5876   46.6692   57.3384 C   0  0  0  0  0  0  0  0  0  0  0  0
   70.3079   45.4839   57.3338 C   0  0  0  0  0  0  0  0  0  0  0  0
   68.4146   46.7100   56.5973 O   0  0  0  0  0  0  0  0  0  0  0  0
   68.4206   46.6833   55.2113 C   0  0  0  0  0  0  0  0  0  0  0  0
   68.9491   47.7504   54.5379 C   0  0  0  0  0  0  0  0  0  0  0  0
   68.9710   47.7565   53.1480 C   0  0  0  0  0  0  0  0  0  0  0  0
   68.4673   46.7019   52.4136 C   0  0  0  0  0  0  0  0  0  0  0  0
   68.5092   46.7500   51.0482 F   0  0  0  0  0  0  0  0  0  0  0  0
   67.9393   45.6371   53.1059 C   0  0  0  0  0  0  0  0  0  0  0  0
   67.9119   45.6200   54.5011 C   0  0  0  0  0  0  0  0  0  0  0  0
  1  2  2  0
  2  3  1  0
  2  9  1  0
  3  4  1  0
  4  5  2  0
  4  6  1  0
  5 11  1  0
 11 12  2  0
 11 19  1  0
 12 13  1  0
 13 14  2  0
 13 18  1  0
 14 15  1  0
 15 16  2  0
 16 17  1  0
 17 18  2  0
 18 19  1  0
  6  7  2  0
  6  8  1  0
  8  9  1  0
  9 10  2  0
 10 20  1  0
 20 21  2  0
 20 25  1  0
 21 22  1  0
 22 23  2  0
 23 24  1  0
 24 26  1  0
 24 25  2  0
 26 27  1  0
 27 28  2  0
 27 33  1  0
 28 29  1  0
 29 30  2  0
 30 31  1  0
 30 32  1  0
 32 33  2  0
M  CHG  1  12   1
M  END
>  <minimizedAffinity>  (117) 
-10.27963

$$$$
data/reference_output_2/data/smiles/97958.pdb
     RDKit          3D

 28 31  0  0  0  0  0  0  0  0999 V2000
   71.0224   46.1502   58.3656 C   0  0  0  0  0  0  0  0  0  0  0  0
   72.0152   46.9062   58.9709 C   0  0  0  0  0  0  0  0  0  0  0  0
   72.1678   48.2460   58.7238 C   0  0  0  0  0  0  0  0  0  0  0  0
   71.3195   48.8858   57.8494 C   0  0  0  0  0  0  0  0  0  0  0  0
   70.2998   48.1648   57.2113 C   0  0  0  0  0  0  0  0  0  0  0  0
   70.1833   46.8338   57.4864 C   0  0  0  0  0  0  0  0  0  0  0  0
   71.9571   44.0374   58.5224 O   0  0  0  0  0  0  0  0  0  0  0  0
   70.8824   44.7310   58.6416 C   0  0  0  0  0  0  0  0  0  0  0  0
   69.6754   44.1026   59.0186 N   0  0  0  0  0  0  0  0  0  0  0  0
   69.6752   42.7040   59.2599 C   0  0  0  0  0  0  0  0  0  0  0  0
   69.5144   41.8600   58.0073 C   0  0  0  0  0  0  0  0  0  0  0  0
   69.6122   40.3953   58.2503 C   0  0  0  0  0  0  0  0  0  0  0  0
   68.3691   39.6110   57.9900 C   0  0  0  0  0  0  0  0  0  0  0  0
   67.7534   39.8857   56.7320 N   0  0  0  0  0  0  0  0  0  0  0  0
   67.8313   41.2178   56.2587 C   0  0  0  0  0  0  0  0  0  0  0  0
   68.2661   42.2439   57.2439 C   0  0  0  0  0  0  0  0  0  0  0  0
   69.4442   48.9693   56.3185 C   0  0  0  0  0  0  0  0  0  0  0  0
   69.6896   48.7678   54.8777 C   0  0  0  0  0  0  0  0  0  0  0  0
   70.7058   49.4447   54.2586 N   0  0  0  0  0  0  0  0  0  0  0  0
   71.0140   49.2883   53.0013 N   0  0  0  0  0  0  0  0  0  0  0  0
   70.3345   48.4324   52.2230 C   0  0  0  0  0  0  0  0  0  0  0  0
   70.6996   48.3394   51.0100 O   0  0  0  0  0  0  0  0  0  0  0  0
   69.2983   47.7112   52.7595 C   0  0  0  0  0  0  0  0  0  0  0  0
   68.9857   47.8938   54.1069 C   0  0  0  0  0  0  0  0  0  0  0  0
   67.8265   47.1117   54.5983 C   0  0  0  0  0  0  0  0  0  0  0  0
   67.9461   45.6866   54.0823 C   0  0  0  0  0  0  0  0  0  0  0  0
   67.8773   45.6476   52.5778 C   0  0  0  0  0  0  0  0  0  0  0  0
   68.5480   46.7826   51.8967 C   0  0  0  0  0  0  0  0  0  0  0  0
  7  8  2  0
  8  9  1  0
  8  1  1  0
  9 10  1  0
 10 11  1  0
 11 12  1  0
 11 16  1  0
 12 13  1  0
 13 14  1  0
 14 15  1  0
 15 16  1  0
  1  2  2  0
  1  6  1  0
  2  3  1  0
  3  4  2  0
  4  5  1  0
  5 17  1  0
  5  6  2  0
 17 18  1  0
 18 19  2  0
 18 24  1  0
 19 20  1  0
 20 21  1  0
 21 22  2  0
 21 23  1  0
 23 24  2  0
 23 28  1  0
 24 25  1  0
 25 26  1  0
 26 27  1  0
 27 28  1  0
M  CHG  1  14   1
M  END
>  <minimizedAffinity>  (118) 
-9.67789

$$$$
data/reference_output_2/data/smiles/98122.pdb
     RDKit          3D

 26 28  0  0  0  0  0  0  0  0999 V2000
   68.3743   44.9770   55.9985 N   0  0  0  0  0  0  0  0  0  0  0  0
   68.8670   46.3344   55.9762 C   0  0  0  0  0  0  0  0  0  0  0  0
   69.9863   46.5326   56.5600 O   0  0  0  0  0  0  0  0  0  0  0  0
   68.7554   42.7774   56.8460 C   0  0  0  0  0  0  0  0  0  0  0  0
   69.1102   43.9850   56.6227 N   0  0  0  0  0  0  0  0  0  0  0  0
   69.9077   39.6650   58.6428 C   0  0  0  0  0  0  0  0  0  0  0  0
   71.2568   39.9619   58.8508 C   0  0  0  0  0  0  0  0  0  0  0  0
   71.7932   41.1373   58.4140 C   0  0  0  0  0  0  0  0  0  0  0  0
   70.9615   42.0410   57.7544 C   0  0  0  0  0  0  0  0  0  0  0  0
   69.6246   41.8006   57.5226 C   0  0  0  0  0  0  0  0  0  0  0  0
   69.1192   40.6092   57.9733 C   0  0  0  0  0  0  0  0  0  0  0  0
   70.2125   37.4634   59.6856 C   0  0  0  0  0  0  0  0  0  0  0  0
   69.4342   38.4765   59.1036 O   0  0  0  0  0  0  0  0  0  0  0  0
   68.1091   47.4342   55.3183 C   0  0  0  0  0  0  0  0  0  0  0  0
   68.8006   48.0534   54.1753 C   0  0  0  0  0  0  0  0  0  0  0  0
   69.1696   47.4132   53.0444 C   0  0  0  0  0  0  0  0  0  0  0  0
   69.8690   48.0865   52.0426 C   0  0  0  0  0  0  0  0  0  0  0  0
   70.2017   47.4515   50.9799 O   0  0  0  0  0  0  0  0  0  0  0  0
   70.1676   49.3487   52.2046 O   0  0  0  0  0  0  0  0  0  0  0  0
   69.8440   50.0250   53.2676 C   0  0  0  0  0  0  0  0  0  0  0  0
   70.1801   51.3682   53.4072 C   0  0  0  0  0  0  0  0  0  0  0  0
   69.8195   52.0565   54.5507 C   0  0  0  0  0  0  0  0  0  0  0  0
   69.1335   51.4703   55.5740 C   0  0  0  0  0  0  0  0  0  0  0  0
   68.7424   52.2195   56.8225 C   0  0  0  0  0  0  0  0  0  0  0  0
   68.7964   50.1127   55.4283 C   0  0  0  0  0  0  0  0  0  0  0  0
   69.1519   49.4150   54.2907 C   0  0  0  0  0  0  0  0  0  0  0  0
 12 13  1  0
 13  6  1  0
  6  7  2  0
  6 11  1  0
  7  8  1  0
  8  9  2  0
  9 10  1  0
 10  4  1  0
 10 11  2  0
  4  5  2  0
  5  1  1  0
  1  2  1  0
  2  3  2  0
  2 14  1  0
 14 15  1  0
 15 16  2  0
 15 26  1  0
 16 17  1  0
 17 18  2  0
 17 19  1  0
 19 20  1  0
 20 21  1  0
 20 26  2  0
 21 22  2  0
 22 23  1  0
 23 24  1  0
 23 25  2  0
 25 26  1  0
M  END
>  <minimizedAffinity>  (119) 
-8.55546

$$$$
data/reference_output_2/data/smiles/98172.pdb
     RDKit          3D

 22 23  0  0  0  0  0  0  0  0999 V2000
   68.0939   45.9656   55.7229 N   0  0  0  0  0  0  0  0  0  0  0  0
   68.2615   46.2954   54.3551 C   0  0  0  0  0  0  0  0  0  0  0  0
   67.5823   45.5885   53.3928 C   0  0  0  0  0  0  0  0  0  0  0  0
   67.6807   45.8578   52.0554 C   0  0  0  0  0  0  0  0  0  0  0  0
   67.0020   45.1415   51.1432 F   0  0  0  0  0  0  0  0  0  0  0  0
   68.4899   46.8773   51.6265 C   0  0  0  0  0  0  0  0  0  0  0  0
   69.1939   47.6173   52.5589 C   0  0  0  0  0  0  0  0  0  0  0  0
   69.0682   47.3162   53.8915 C   0  0  0  0  0  0  0  0  0  0  0  0
   70.0706   48.7388   52.0856 C   0  0  0  0  0  0  0  0  0  0  0  0
   70.9980   49.1002   53.0752 F   0  0  0  0  0  0  0  0  0  0  0  0
   69.3145   49.8840   51.8788 F   0  0  0  0  0  0  0  0  0  0  0  0
   70.6856   48.4287   50.9002 F   0  0  0  0  0  0  0  0  0  0  0  0
   70.9247   47.2145   58.6072 C   0  0  0  0  0  0  0  0  0  0  0  0
   70.2170   48.1445   57.8435 C   0  0  0  0  0  0  0  0  0  0  0  0
   69.3175   47.7092   56.9362 N   0  0  0  0  0  0  0  0  0  0  0  0
   69.0469   46.4350   56.7088 C   0  0  0  0  0  0  0  0  0  0  0  0
   69.7272   45.5102   57.4418 N   0  0  0  0  0  0  0  0  0  0  0  0
   70.6432   45.8995   58.3694 C   0  0  0  0  0  0  0  0  0  0  0  0
   72.8898   48.3486   59.2206 O   0  0  0  0  0  0  0  0  0  0  0  0
   71.9063   47.6408   59.5964 C   0  0  0  0  0  0  0  0  0  0  0  0
   71.8619   47.3282   60.9755 N   0  0  0  0  0  0  0  0  0  0  0  0
   72.8109   47.7521   61.8570 O   0  0  0  0  0  0  0  0  0  0  0  0
 19 20  2  0
 20 21  1  0
 20 13  1  0
 21 22  1  0
 13 14  2  0
 13 18  1  0
 14 15  1  0
 15 16  2  0
 16  1  1  0
 16 17  1  0
  1  2  1  0
  2  3  2  0
  2  8  1  0
  3  4  1  0
  4  5  1  0
  4  6  2  0
  6  7  1  0
  7  9  1  0
  7  8  2  0
  9 10  1  0
  9 11  1  0
  9 12  1  0
 17 18  2  0
M  END
>  <minimizedAffinity>  (120) 
-8.91187

$$$$
data/reference_output_2/data/smiles/98199.pdb
     RDKit          3D

 28 30  0  0  0  0  0  0  0  0999 V2000
   73.1648   51.5999   54.8530 C   0  0  0  0  0  0  0  0  0  0  0  0
   70.7030   51.5625   53.5740 O   0  0  0  0  0  0  0  0  0  0  0  0
   71.0667   50.4465   54.0398 C   0  0  0  0  0  0  0  0  0  0  0  0
   72.3236   50.4346   54.7015 N   0  0  0  0  0  0  0  0  0  0  0  0
   70.2068   49.2801   53.8769 C   0  0  0  0  0  0  0  0  0  0  0  0
   69.7442   48.6269   55.0027 C   0  0  0  0  0  0  0  0  0  0  0  0
   68.9275   47.5173   54.9362 C   0  0  0  0  0  0  0  0  0  0  0  0
   68.5428   47.0204   53.6857 C   0  0  0  0  0  0  0  0  0  0  0  0
   67.7273   45.9134   53.5786 C   0  0  0  0  0  0  0  0  0  0  0  0
   67.3625   45.4436   52.3192 C   0  0  0  0  0  0  0  0  0  0  0  0
   67.8288   46.1020   51.2002 C   0  0  0  0  0  0  0  0  0  0  0  0
   68.6208   47.1767   51.3489 N   0  0  0  0  0  0  0  0  0  0  0  0
   68.9909   47.6544   52.5515 C   0  0  0  0  0  0  0  0  0  0  0  0
   69.8203   48.7784   52.6744 C   0  0  0  0  0  0  0  0  0  0  0  0
   73.2883   52.0449   56.2992 C   0  0  0  0  0  0  0  0  0  0  0  0
   71.9905   53.1810   56.7264 S   0  0  0  0  0  0  0  0  0  0  0  0
   72.4017   53.8860   57.9882 O   0  0  0  0  0  0  0  0  0  0  0  0
   71.8104   54.2078   55.6390 O   0  0  0  0  0  0  0  0  0  0  0  0
   70.5239   52.2969   57.0375 C   0  0  0  0  0  0  0  0  0  0  0  0
   70.4712   51.2936   57.9943 C   0  0  0  0  0  0  0  0  0  0  0  0
   69.3149   50.5847   58.2522 C   0  0  0  0  0  0  0  0  0  0  0  0
   68.1573   50.8632   57.5463 C   0  0  0  0  0  0  0  0  0  0  0  0
   68.2394   51.8664   56.6009 C   0  0  0  0  0  0  0  0  0  0  0  0
   69.3837   52.5443   56.3698 N   0  0  0  0  0  0  0  0  0  0  0  0
   66.8881   50.1200   57.7946 C   0  0  0  0  0  0  0  0  0  0  0  0
   67.0151   48.8899   57.2101 F   0  0  0  0  0  0  0  0  0  0  0  0
   65.7875   50.8237   57.3470 F   0  0  0  0  0  0  0  0  0  0  0  0
   66.7183   49.9241   59.1585 F   0  0  0  0  0  0  0  0  0  0  0  0
  2  3  2  0
  3  4  1  0
  3  5  1  0
  4  1  1  0
  1 15  1  0
 15 16  1  0
 16 17  2  0
 16 18  2  0
 16 19  1  0
 19 20  2  0
 19 24  1  0
 20 21  1  0
 21 22  2  0
 22 25  1  0
 22 23  1  0
 25 26  1  0
 25 27  1  0
 25 28  1  0
 23 24  2  0
  5  6  2  0
  5 14  1  0
  6  7  1  0
  7  8  2  0
  8  9  1  0
  8 13  1  0
  9 10  2  0
 10 11  1  0
 11 12  2  0
 12 13  1  0
 13 14  2  0
M  END
>  <minimizedAffinity>  (121) 
-8.76980

$$$$
data/reference_output_2/data/smiles/98253.pdb
     RDKit          3D

 26 29  0  0  0  0  0  0  0  0999 V2000
   70.4019   49.3363   56.2352 C   0  0  0  0  0  0  0  0  0  0  0  0
   66.7047   45.0951   50.7742 N   0  0  0  0  0  0  0  0  0  0  0  0
   67.4522   45.9318   51.6452 C   0  0  0  0  0  0  0  0  0  0  0  0
   68.3327   46.7970   51.1065 N   0  0  0  0  0  0  0  0  0  0  0  0
   69.0798   47.6228   51.8461 C   0  0  0  0  0  0  0  0  0  0  0  0
   70.0131   48.5405   51.3022 N   0  0  0  0  0  0  0  0  0  0  0  0
   68.9538   47.6000   53.2329 C   0  0  0  0  0  0  0  0  0  0  0  0
   69.6916   48.4215   54.0485 C   0  0  0  0  0  0  0  0  0  0  0  0
   69.5726   48.4055   55.4372 C   0  0  0  0  0  0  0  0  0  0  0  0
   68.6710   47.5201   55.9728 C   0  0  0  0  0  0  0  0  0  0  0  0
   67.9119   46.6762   55.1569 C   0  0  0  0  0  0  0  0  0  0  0  0
   68.0578   46.7202   53.7881 C   0  0  0  0  0  0  0  0  0  0  0  0
   67.3196   45.8979   52.9885 N   0  0  0  0  0  0  0  0  0  0  0  0
   71.0915   48.6519   57.2836 N   0  0  0  0  0  0  0  0  0  0  0  0
   71.5056   49.1961   58.5098 C   0  0  0  0  0  0  0  0  0  0  0  0
   71.2256   50.4354   58.6804 O   0  0  0  0  0  0  0  0  0  0  0  0
   72.2027   48.4546   59.5470 C   0  0  0  0  0  0  0  0  0  0  0  0
   71.7921   47.1911   59.9471 C   0  0  0  0  0  0  0  0  0  0  0  0
   72.4565   46.4900   60.9292 C   0  0  0  0  0  0  0  0  0  0  0  0
   73.5611   47.0400   61.5454 C   0  0  0  0  0  0  0  0  0  0  0  0
   74.2550   46.3660   62.5364 C   0  0  0  0  0  0  0  0  0  0  0  0
   75.3577   46.8845   63.1691 C   0  0  0  0  0  0  0  0  0  0  0  0
   75.7800   48.1458   62.7795 C   0  0  0  0  0  0  0  0  0  0  0  0
   75.0939   48.8190   61.7963 C   0  0  0  0  0  0  0  0  0  0  0  0
   73.9825   48.2827   61.1672 C   0  0  0  0  0  0  0  0  0  0  0  0
   73.3003   48.9907   60.1655 C   0  0  0  0  0  0  0  0  0  0  0  0
  2  3  1  0
  3  4  2  0
  3 13  1  0
  4  5  1  0
  5  6  1  0
  5  7  2  0
  7  8  1  0
  7 12  1  0
  8  9  2  0
  9  1  1  0
  9 10  1  0
  1 14  1  0
 14 15  1  0
 15 16  2  0
 15 17  1  0
 17 18  2  0
 17 26  1  0
 18 19  1  0
 19 20  2  0
 20 21  1  0
 20 25  1  0
 21 22  2  0
 22 23  1  0
 23 24  2  0
 24 25  1  0
 25 26  2  0
 10 11  2  0
 11 12  1  0
 12 13  2  0
M  END
>  <minimizedAffinity>  (122) 
-8.53348

$$$$
data/reference_output_2/data/smiles/98344.pdb
     RDKit          3D

 31 34  0  0  0  0  0  0  0  0999 V2000
   67.8475   43.9815   55.1712 N   0  0  0  0  0  0  0  0  0  0  0  0
   68.3225   45.1693   55.0923 C   0  0  0  0  0  0  0  0  0  0  0  0
   68.9110   46.0242   56.1075 C   0  0  0  0  0  0  0  0  0  0  0  0
   69.0682   45.7337   57.3086 O   0  0  0  0  0  0  0  0  0  0  0  0
   69.2843   47.2560   55.5114 N   0  0  0  0  0  0  0  0  0  0  0  0
   68.9318   47.1700   54.1422 C   0  0  0  0  0  0  0  0  0  0  0  0
   69.0689   48.0830   53.0878 C   0  0  0  0  0  0  0  0  0  0  0  0
   68.6594   47.8055   51.8028 C   0  0  0  0  0  0  0  0  0  0  0  0
   68.0904   46.5774   51.5478 C   0  0  0  0  0  0  0  0  0  0  0  0
   67.9359   45.6488   52.5516 C   0  0  0  0  0  0  0  0  0  0  0  0
   68.3570   45.9439   53.8536 C   0  0  0  0  0  0  0  0  0  0  0  0
   67.4340   41.9314   56.4475 C   0  0  0  0  0  0  0  0  0  0  0  0
   67.0883   41.3900   55.3593 O   0  0  0  0  0  0  0  0  0  0  0  0
   67.8344   43.2870   56.3624 N   0  0  0  0  0  0  0  0  0  0  0  0
   67.4137   39.6575   60.0850 C   0  0  0  0  0  0  0  0  0  0  0  0
   66.7177   40.8438   60.0033 C   0  0  0  0  0  0  0  0  0  0  0  0
   66.7217   41.5886   58.8188 C   0  0  0  0  0  0  0  0  0  0  0  0
   67.4115   41.1715   57.7044 C   0  0  0  0  0  0  0  0  0  0  0  0
   68.1066   39.9733   57.8064 C   0  0  0  0  0  0  0  0  0  0  0  0
   68.1114   39.2319   58.9630 C   0  0  0  0  0  0  0  0  0  0  0  0
   66.2281   39.3323   62.6735 N   0  0  0  0  0  0  0  0  0  0  0  0
   67.4034   38.7341   61.5683 S   0  0  0  0  0  0  0  0  0  0  0  0
   67.2345   37.2847   61.2676 O   0  0  0  0  0  0  0  0  0  0  0  0
   68.7564   38.8888   62.2431 O   0  0  0  0  0  0  0  0  0  0  0  0
   69.9069   48.4119   56.1242 C   0  0  0  0  0  0  0  0  0  0  0  0
   68.9743   49.4400   56.5598 C   0  0  0  0  0  0  0  0  0  0  0  0
   67.9652   49.1571   57.4457 C   0  0  0  0  0  0  0  0  0  0  0  0
   67.0700   50.1537   57.8633 C   0  0  0  0  0  0  0  0  0  0  0  0
   67.2007   51.4268   57.3833 C   0  0  0  0  0  0  0  0  0  0  0  0
   68.2019   51.7291   56.4979 C   0  0  0  0  0  0  0  0  0  0  0  0
   69.0825   50.7300   56.0932 C   0  0  0  0  0  0  0  0  0  0  0  0
 21 22  1  0
 22 23  2  0
 22 24  2  0
 22 15  1  0
 15 16  2  0
 15 20  1  0
 16 17  1  0
 17 18  2  0
 18 12  1  0
 18 19  1  0
 12 13  2  0
 12 14  1  0
 14  1  1  0
  1  2  2  0
  2  3  1  0
  2 11  1  0
  3  4  2  0
  3  5  1  0
  5 25  1  0
  5  6  1  0
 25 26  1  0
 26 27  2  0
 26 31  1  0
 27 28  1  0
 28 29  2  0
 29 30  1  0
 30 31  2  0
  6  7  1  0
  6 11  2  0
  7  8  2  0
  8  9  1  0
  9 10  2  0
 10 11  1  0
 19 20  2  0
M  END
>  <minimizedAffinity>  (123) 
-8.66435

$$$$
data/reference_output_2/data/smiles/98349.pdb
     RDKit          3D

 31 34  0  0  0  0  0  0  0  0999 V2000
   67.8363   45.5774   53.4638 C   0  0  0  0  0  0  0  0  0  0  0  0
   68.0742   45.7682   52.1193 C   0  0  0  0  0  0  0  0  0  0  0  0
   68.6923   46.9247   51.6682 C   0  0  0  0  0  0  0  0  0  0  0  0
   69.0839   47.9062   52.5397 C   0  0  0  0  0  0  0  0  0  0  0  0
   68.8602   47.7411   53.8764 C   0  0  0  0  0  0  0  0  0  0  0  0
   68.2434   46.5847   54.3119 C   0  0  0  0  0  0  0  0  0  0  0  0
   69.3626   48.9146   54.6165 C   0  0  0  0  0  0  0  0  0  0  0  0
   69.9132   49.8338   53.6424 N   0  0  0  0  0  0  0  0  0  0  0  0
   69.7404   49.2126   52.3927 C   0  0  0  0  0  0  0  0  0  0  0  0
   70.0851   49.6715   51.2761 O   0  0  0  0  0  0  0  0  0  0  0  0
   70.5065   51.1196   53.9667 C   0  0  1  0  0  0  0  0  0  0  0  0
   69.5301   52.1048   54.4916 C   0  0  0  0  0  0  0  0  0  0  0  0
   69.4820   52.3210   55.9551 C   0  0  0  0  0  0  0  0  0  0  0  0
   70.5584   51.7012   56.7424 C   0  0  0  0  0  0  0  0  0  0  0  0
   70.3738   51.4732   57.9605 O   0  0  0  0  0  0  0  0  0  0  0  0
   71.7794   51.3727   56.1116 N   0  0  0  0  0  0  0  0  0  0  0  0
   71.7472   50.9658   54.7588 C   0  0  0  0  0  0  0  0  0  0  0  0
   72.7584   50.4678   54.1910 O   0  0  0  0  0  0  0  0  0  0  0  0
   67.1691   44.3539   53.9741 C   0  0  0  0  0  0  0  0  0  0  0  0
   68.1132   42.5266   57.2323 N   0  0  0  0  0  0  0  0  0  0  0  0
   67.4980   42.8347   55.9773 C   0  0  0  0  0  0  0  0  0  0  0  0
   66.6845   42.0063   55.5462 O   0  0  0  0  0  0  0  0  0  0  0  0
   67.7666   43.9935   55.2416 N   0  0  0  0  0  0  0  0  0  0  0  0
   67.0198   37.6944   60.1381 C   0  0  0  0  0  0  0  0  0  0  0  0
   67.3031   38.9520   59.3836 C   0  0  0  0  0  0  0  0  0  0  0  0
   68.2226   38.9876   58.3554 C   0  0  0  0  0  0  0  0  0  0  0  0
   68.4741   40.1600   57.6667 C   0  0  0  0  0  0  0  0  0  0  0  0
   67.8278   41.3424   57.9651 C   0  0  0  0  0  0  0  0  0  0  0  0
   66.9079   41.3095   58.9919 C   0  0  0  0  0  0  0  0  0  0  0  0
   66.6545   40.1302   59.6854 C   0  0  0  0  0  0  0  0  0  0  0  0
   65.4872   40.0985   60.9862 Cl  0  0  0  0  0  0  0  0  0  0  0  0
 24 25  1  0
 25 26  2  0
 25 30  1  0
 26 27  1  0
 27 28  2  0
 28 20  1  0
 28 29  1  0
 20 21  1  0
 21 22  2  0
 21 23  1  0
 23 19  1  0
 19  1  1  0
  1  2  2  0
  1  6  1  0
  2  3  1  0
  3  4  2  0
  4  5  1  0
  4  9  1  0
  5  6  2  0
  5  7  1  0
  7  8  1  0
 11  8  1  1
  8  9  1  0
 11 12  1  0
 11 17  1  0
 12 13  1  0
 13 14  1  0
 14 15  2  0
 14 16  1  0
 16 17  1  0
 17 18  2  0
  9 10  2  0
 29 30  2  0
 30 31  1  0
M  END
>  <minimizedAffinity>  (124) 
-8.77270

$$$$
data/reference_output_2/data/smiles/98357.pdb
     RDKit          3D

 27 30  0  0  0  0  0  0  0  0999 V2000
   74.5708   34.6185   54.2631 N   0  0  0  0  0  0  0  0  0  0  0  0
   73.4892   35.5283   54.0329 C   0  0  0  0  0  0  0  0  0  0  0  0
   72.6805   35.0398   52.8762 C   0  0  0  0  0  0  0  0  0  0  0  0
   73.2114   33.6547   52.5647 C   0  0  0  0  0  0  0  0  0  0  0  0
   74.5435   33.5982   53.2481 C   0  0  0  0  0  0  0  0  0  0  0  0
   74.5342   34.0541   55.6083 C   0  0  0  0  0  0  0  0  0  0  0  0
   73.6420   34.8279   56.4841 C   0  0  0  0  0  0  0  0  0  0  0  0
   72.9165   35.4840   57.2022 C   0  0  0  0  0  0  0  0  0  0  0  0
   72.0494   36.2727   58.0451 C   0  0  0  0  0  0  0  0  0  0  0  0
   71.3644   35.7061   59.0857 C   0  0  0  0  0  0  0  0  0  0  0  0
   70.5311   36.4840   59.8876 C   0  0  0  0  0  0  0  0  0  0  0  0
   70.3843   37.8402   59.6435 C   0  0  0  0  0  0  0  0  0  0  0  0
   71.0750   38.4130   58.5950 C   0  0  0  0  0  0  0  0  0  0  0  0
   71.8906   37.6319   57.8149 C   0  0  0  0  0  0  0  0  0  0  0  0
   75.8741   35.2906   54.1379 C   0  0  0  0  0  0  0  0  0  0  0  0
   76.3003   35.2334   52.7384 C   0  0  0  0  0  0  0  0  0  0  0  0
   76.6428   35.1812   51.5787 C   0  0  0  0  0  0  0  0  0  0  0  0
   77.0360   35.1061   50.1889 C   0  0  0  0  0  0  0  0  0  0  0  0
   78.1707   35.7282   49.7208 C   0  0  0  0  0  0  0  0  0  0  0  0
   78.5039   35.6282   48.3890 C   0  0  0  0  0  0  0  0  0  0  0  0
   77.7248   34.9158   47.5027 C   0  0  0  0  0  0  0  0  0  0  0  0
   76.5769   34.2819   47.9572 C   0  0  0  0  0  0  0  0  0  0  0  0
   75.7612   33.5571   47.1242 C   0  0  0  0  0  0  0  0  0  0  0  0
   74.6262   32.9377   47.6016 C   0  0  0  0  0  0  0  0  0  0  0  0
   74.2828   33.0310   48.9330 C   0  0  0  0  0  0  0  0  0  0  0  0
   75.1038   33.7594   49.7694 C   0  0  0  0  0  0  0  0  0  0  0  0
   76.2415   34.3836   49.3030 C   0  0  0  0  0  0  0  0  0  0  0  0
  7  8  3  0
  7  6  1  0
  8  9  1  0
  9 10  2  0
  9 14  1  0
 10 11  1  0
 11 12  2  0
 12 13  1  0
 13 14  2  0
  6  1  1  0
  1 15  1  0
  1  2  1  0
  1  5  1  0
 15 16  1  0
 16 17  3  0
 17 18  1  0
 18 19  2  0
 18 27  1  0
 19 20  1  0
 20 21  2  0
 21 22  1  0
 22 23  1  0
 22 27  2  0
 23 24  2  0
 24 25  1  0
 25 26  2  0
 26 27  1  0
  2  3  1  0
  3  4  1  0
  4  5  1  0
M  CHG  1   1   1
M  END
>  <minimizedAffinity>  (125) 
-8.78741

$$$$
data/reference_output_2/data/smiles/98409.pdb
     RDKit          3D

 25 26  0  0  0  0  0  0  0  0999 V2000
   67.6625   44.3342   55.0252 N   0  0  0  0  0  0  0  0  0  0  0  0
   68.1704   43.6384   56.1492 C   0  0  0  0  0  0  0  0  0  0  0  0
   69.1497   44.1478   56.7072 O   0  0  0  0  0  0  0  0  0  0  0  0
   67.6485   42.4396   56.6553 N   0  0  0  0  0  0  0  0  0  0  0  0
   69.2500   47.9364   53.4687 C   0  0  0  0  0  0  0  0  0  0  0  0
   68.8752   46.8946   52.6475 C   0  0  0  0  0  0  0  0  0  0  0  0
   68.3572   45.7198   53.1578 C   0  0  0  0  0  0  0  0  0  0  0  0
   68.1886   45.5310   54.5251 C   0  0  0  0  0  0  0  0  0  0  0  0
   68.5708   46.5871   55.3252 C   0  0  0  0  0  0  0  0  0  0  0  0
   69.0864   47.7581   54.8262 C   0  0  0  0  0  0  0  0  0  0  0  0
   69.8794   49.4334   51.0980 N   0  0  0  0  0  0  0  0  0  0  0  0
   69.9102   49.4343   52.8192 S   0  0  0  0  0  0  0  0  0  0  0  0
   71.3344   49.5468   53.2667 O   0  0  0  0  0  0  0  0  0  0  0  0
   69.1472   50.6180   53.3810 O   0  0  0  0  0  0  0  0  0  0  0  0
   68.2161   41.8423   57.7538 N   0  0  0  0  0  0  0  0  0  0  0  0
   68.3269   40.1405   57.6620 S   0  0  0  0  0  0  0  0  0  0  0  0
   67.2728   39.5713   58.5936 O   0  0  0  0  0  0  0  0  0  0  0  0
   67.9825   39.6319   56.2856 O   0  0  0  0  0  0  0  0  0  0  0  0
   69.8646   39.5360   58.2104 C   0  0  0  0  0  0  0  0  0  0  0  0
   70.9120   40.4062   58.3754 C   0  0  0  0  0  0  0  0  0  0  0  0
   72.1635   39.9571   58.8142 C   0  0  0  0  0  0  0  0  0  0  0  0
   72.3660   38.6172   59.0904 C   0  0  0  0  0  0  0  0  0  0  0  0
   73.9384   38.0793   59.6385 Cl  0  0  0  0  0  0  0  0  0  0  0  0
   71.3101   37.7601   58.9217 C   0  0  0  0  0  0  0  0  0  0  0  0
   70.0741   38.2064   58.4871 C   0  0  0  0  0  0  0  0  0  0  0  0
 11 12  1  0
 12 13  2  0
 12 14  2  0
 12  5  1  0
  5  6  2  0
  5 10  1  0
  6  7  1  0
  7  8  2  0
  8  1  1  0
  8  9  1  0
  1  2  1  0
  2  3  2  0
  2  4  1  0
  4 15  1  0
 15 16  1  0
 16 17  2  0
 16 18  2  0
 16 19  1  0
 19 20  2  0
 19 25  1  0
 20 21  1  0
 21 22  2  0
 22 23  1  0
 22 24  1  0
 24 25  2  0
  9 10  2  0
M  END
>  <minimizedAffinity>  (126) 
-8.52498

$$$$
data/reference_output_2/data/smiles/98454.pdb
     RDKit          3D

 26 28  0  0  0  0  0  0  0  0999 V2000
   69.0209   43.8941   56.6196 C   0  0  0  0  0  0  0  0  0  0  0  0
   68.7870   42.6352   56.9776 C   0  0  0  0  0  0  0  0  0  0  0  0
   67.5894   42.0050   56.4904 C   0  0  0  0  0  0  0  0  0  0  0  0
   66.8050   42.6495   55.7498 O   0  0  0  0  0  0  0  0  0  0  0  0
   67.3520   40.6598   56.8809 N   0  0  0  0  0  0  0  0  0  0  0  0
   68.2600   39.9765   57.7141 C   0  0  0  0  0  0  0  0  0  0  0  0
   68.0334   38.7804   58.0515 O   0  0  0  0  0  0  0  0  0  0  0  0
   69.4768   40.5490   58.2377 N   0  0  0  0  0  0  0  0  0  0  0  0
   69.7191   41.8913   57.8484 C   0  0  0  0  0  0  0  0  0  0  0  0
   70.7481   42.5441   58.2103 O   0  0  0  0  0  0  0  0  0  0  0  0
   68.1058   44.5703   55.7857 N   0  0  0  0  0  0  0  0  0  0  0  0
   67.6774   45.2071   53.0892 N   0  0  0  0  0  0  0  0  0  0  0  0
   68.2398   46.1781   53.9576 C   0  0  0  0  0  0  0  0  0  0  0  0
   68.5753   47.4269   53.4833 C   0  0  0  0  0  0  0  0  0  0  0  0
   69.1215   48.3818   54.3064 C   0  0  0  0  0  0  0  0  0  0  0  0
   69.3382   48.0812   55.6347 C   0  0  0  0  0  0  0  0  0  0  0  0
   69.0013   46.8294   56.1086 C   0  0  0  0  0  0  0  0  0  0  0  0
   68.4463   45.8459   55.2912 C   0  0  0  0  0  0  0  0  0  0  0  0
   70.3907   39.7695   59.0030 C   0  0  0  0  0  0  0  0  0  0  0  0
   71.3275   38.8675   58.3485 C   0  0  0  0  0  0  0  0  0  0  0  0
   71.6533   37.5290   58.7149 C   0  0  0  0  0  0  0  0  0  0  0  0
   70.9567   36.6231   59.3466 C   0  0  0  0  0  0  0  0  0  0  0  0
   71.6189   35.2942   59.5685 C   0  0  0  0  0  0  0  0  0  0  0  0
   72.1402   34.7294   58.2628 C   0  0  0  0  0  0  0  0  0  0  0  0
   72.9478   35.7689   57.5106 C   0  0  0  0  0  0  0  0  0  0  0  0
   73.0519   37.0505   58.3099 C   0  0  0  0  0  0  0  0  0  0  0  0
 12 13  1  0
 13 14  2  0
 13 18  1  0
 14 15  1  0
 15 16  2  0
 16 17  1  0
 17 18  2  0
 18 11  1  0
 11  1  1  0
  1  2  2  0
  2  3  1  0
  2  9  1  0
  3  4  2  0
  3  5  1  0
  5  6  1  0
  6  7  2  0
  6  8  1  0
  8 19  1  0
  8  9  1  0
 19 20  1  0
 20 21  1  0
 21 22  2  0
 21 26  1  0
 22 23  1  0
 23 24  1  0
 24 25  1  0
 25 26  1  0
  9 10  2  0
M  END
>  <minimizedAffinity>  (127) 
-8.78258

$$$$
data/reference_output_2/data/smiles/98469.pdb
     RDKit          3D

 26 28  0  0  0  0  0  0  0  0999 V2000
   69.7197   43.8327   57.6902 O   0  0  0  0  0  0  0  0  0  0  0  0
   69.9095   42.6079   57.9208 C   0  0  0  0  0  0  0  0  0  0  0  0
   71.0727   42.1877   58.6276 N   0  0  0  0  0  0  0  0  0  0  0  0
   71.2994   40.7931   58.8962 C   0  0  0  0  0  0  0  0  0  0  0  0
   72.6472   40.3285   59.7133 S   0  0  0  0  0  0  0  0  0  0  0  0
   70.3917   39.7851   58.4773 N   0  0  0  0  0  0  0  0  0  0  0  0
   69.2221   40.1885   57.7686 C   0  0  0  0  0  0  0  0  0  0  0  0
   68.4133   39.3061   57.3943 O   0  0  0  0  0  0  0  0  0  0  0  0
   68.9515   41.5961   57.4733 C   0  0  0  0  0  0  0  0  0  0  0  0
   67.8876   42.0065   56.8244 C   0  0  0  0  0  0  0  0  0  0  0  0
   70.6755   38.4191   58.7757 C   0  0  0  0  0  0  0  0  0  0  0  0
   70.0920   37.7458   59.8186 C   0  0  0  0  0  0  0  0  0  0  0  0
   70.3877   36.4194   60.0836 C   0  0  0  0  0  0  0  0  0  0  0  0
   71.2883   35.7646   59.2797 C   0  0  0  0  0  0  0  0  0  0  0  0
   71.8881   36.4316   58.2200 C   0  0  0  0  0  0  0  0  0  0  0  0
   71.5823   37.7548   57.9695 C   0  0  0  0  0  0  0  0  0  0  0  0
   67.6769   43.3803   56.5671 N   0  0  0  0  0  0  0  0  0  0  0  0
   67.8165   43.9771   55.2959 N   0  0  0  0  0  0  0  0  0  0  0  0
   68.1437   45.3503   55.1618 C   0  0  0  0  0  0  0  0  0  0  0  0
   68.3058   46.0203   56.2146 O   0  0  0  0  0  0  0  0  0  0  0  0
   68.3022   46.0220   53.8512 C   0  0  0  0  0  0  0  0  0  0  0  0
   69.0774   47.1331   53.6710 C   0  0  0  0  0  0  0  0  0  0  0  0
   69.2034   47.7310   52.4428 C   0  0  0  0  0  0  0  0  0  0  0  0
   68.5275   47.1928   51.3663 C   0  0  0  0  0  0  0  0  0  0  0  0
   67.7355   46.0740   51.5053 C   0  0  0  0  0  0  0  0  0  0  0  0
   67.6289   45.4967   52.7465 C   0  0  0  0  0  0  0  0  0  0  0  0
  1  2  2  0
  2  3  1  0
  2  9  1  0
  3  4  1  0
  4  5  2  0
  4  6  1  0
  6 11  1  0
  6  7  1  0
 11 12  2  0
 11 16  1  0
 12 13  1  0
 13 14  2  0
 14 15  1  0
 15 16  2  0
  7  8  2  0
  7  9  1  0
  9 10  2  0
 10 17  1  0
 17 18  1  0
 18 19  1  0
 19 20  2  0
 19 21  1  0
 21 22  2  0
 21 26  1  0
 22 23  1  0
 23 24  2  0
 24 25  1  0
 25 26  2  0
M  END
>  <minimizedAffinity>  (128) 
-8.97149

$$$$
data/reference_output_2/data/smiles/98591.pdb
     RDKit          3D

 29 32  0  0  0  0  0  0  0  0999 V2000
   72.2643   51.8594   54.8892 C   0  0  0  0  0  0  0  0  0  0  0  0
   72.4191   52.3099   53.6907 O   0  0  0  0  0  0  0  0  0  0  0  0
   70.9505   51.8390   55.3640 N   0  0  0  0  0  0  0  0  0  0  0  0
   70.5075   51.3846   56.6611 C   0  0  0  0  0  0  0  0  0  0  0  0
   69.2961   50.4968   56.5197 C   0  0  0  0  0  0  0  0  0  0  0  0
   69.0257   50.0166   55.1437 C   0  0  0  0  0  0  0  0  0  0  0  0
   69.0693   51.0963   54.0937 C   0  0  0  0  0  0  0  0  0  0  0  0
   69.8235   52.3120   54.5251 C   0  0  0  0  0  0  0  0  0  0  0  0
   74.0732   50.1686   55.3293 N   0  0  0  0  0  0  0  0  0  0  0  0
   73.4600   51.4333   55.5934 C   0  0  0  0  0  0  0  0  0  0  0  0
   74.0333   52.1260   56.4673 O   0  0  0  0  0  0  0  0  0  0  0  0
   81.0698   49.0983   57.2710 O   0  0  0  0  0  0  0  0  0  0  0  0
   79.8128   49.1842   57.0730 C   0  0  0  0  0  0  0  0  0  0  0  0
   79.1193   49.9160   55.9908 C   0  0  0  0  0  0  0  0  0  0  0  0
   77.6767   49.6727   56.2499 C   0  0  0  0  0  0  0  0  0  0  0  0
   76.5106   50.0789   55.6021 C   0  0  0  0  0  0  0  0  0  0  0  0
   75.2450   49.7381   56.0106 C   0  0  0  0  0  0  0  0  0  0  0  0
   75.1275   48.9411   57.1371 C   0  0  0  0  0  0  0  0  0  0  0  0
   76.2545   48.5182   57.8060 C   0  0  0  0  0  0  0  0  0  0  0  0
   77.5156   48.8804   57.3666 C   0  0  0  0  0  0  0  0  0  0  0  0
   78.8073   48.5797   57.8705 N   0  0  0  0  0  0  0  0  0  0  0  0
   69.8937   48.8833   54.6830 C   0  0  0  0  0  0  0  0  0  0  0  0
   69.2002   47.8510   53.9361 C   0  0  0  0  0  0  0  0  0  0  0  0
   68.4358   46.9154   54.5876 C   0  0  0  0  0  0  0  0  0  0  0  0
   67.7687   45.9225   53.8582 C   0  0  0  0  0  0  0  0  0  0  0  0
   67.8735   45.8750   52.4925 C   0  0  0  0  0  0  0  0  0  0  0  0
   67.1995   44.8797   51.8238 F   0  0  0  0  0  0  0  0  0  0  0  0
   68.6366   46.8070   51.8309 C   0  0  0  0  0  0  0  0  0  0  0  0
   69.2915   47.7856   52.5689 C   0  0  0  0  0  0  0  0  0  0  0  0
 12 13  2  0
 13 14  1  0
 13 21  1  0
 14 15  1  0
 15 16  2  0
 15 20  1  0
 16 17  1  0
 17  9  1  0
 17 18  2  0
  9 10  1  0
 10 11  2  0
 10  1  1  0
  1  2  2  0
  1  3  1  0
  3  4  1  0
  3  8  1  0
  4  5  1  0
  5  6  1  0
  6 22  1  0
  6  7  1  0
 22 23  1  0
 23 24  2  0
 23 29  1  0
 24 25  1  0
 25 26  2  0
 26 27  1  0
 26 28  1  0
 28 29  2  0
  7  8  1  0
 18 19  1  0
 19 20  2  0
 20 21  1  0
M  END
>  <minimizedAffinity>  (129) 
-8.57975

$$$$
data/reference_output_2/data/smiles/98592.pdb
     RDKit          3D

 30 34  0  0  0  0  0  0  0  0999 V2000
   70.0621   43.2579   57.4339 C   0  0  0  0  0  0  0  0  0  0  0  0
   68.7947   42.7754   56.8720 C   0  0  0  0  0  0  0  0  0  0  0  0
   68.2165   41.5340   57.1508 C   0  0  0  0  0  0  0  0  0  0  0  0
   67.0500   41.5229   56.4073 C   0  0  0  0  0  0  0  0  0  0  0  0
   66.9863   42.6916   55.7544 N   0  0  0  0  0  0  0  0  0  0  0  0
   68.0144   43.4556   56.0159 N   0  0  0  0  0  0  0  0  0  0  0  0
   68.2876   44.7649   55.5067 C   0  0  0  0  0  0  0  0  0  0  0  0
   68.2553   45.0208   54.1817 N   0  0  0  0  0  0  0  0  0  0  0  0
   68.4975   46.2102   53.6406 C   0  0  0  0  0  0  0  0  0  0  0  0
   68.8035   47.2639   54.4748 C   0  0  0  0  0  0  0  0  0  0  0  0
   68.8362   46.9958   55.8274 C   0  0  0  0  0  0  0  0  0  0  0  0
   69.1110   47.9317   56.6151 O   0  0  0  0  0  0  0  0  0  0  0  0
   68.5845   45.7793   56.3304 N   0  0  0  0  0  0  0  0  0  0  0  0
   69.0369   48.4964   53.6494 C   0  0  0  0  0  0  0  0  0  0  0  0
   69.3791   47.9106   52.3012 C   0  0  0  0  0  0  0  0  0  0  0  0
   68.5083   46.6758   52.2289 C   0  0  0  0  0  0  0  0  0  0  0  0
   68.7664   40.5225   58.0334 C   0  0  0  0  0  0  0  0  0  0  0  0
   69.9925   40.2837   57.9772 O   0  0  0  0  0  0  0  0  0  0  0  0
   67.9753   39.7941   58.9539 N   0  0  0  0  0  0  0  0  0  0  0  0
   66.5618   39.7473   59.3416 C   0  0  0  0  0  0  0  0  0  0  0  0
   66.7935   38.2735   59.6553 C   0  0  0  0  0  0  0  0  0  0  0  0
   68.2021   38.7565   59.9401 C   0  0  0  0  0  0  0  0  0  0  0  0
   66.0509   37.7520   60.8043 C   0  0  0  0  0  0  0  0  0  0  0  0
   65.0321   36.8506   60.5910 C   0  0  0  0  0  0  0  0  0  0  0  0
   64.2974   36.3273   61.6555 C   0  0  0  0  0  0  0  0  0  0  0  0
   64.5778   36.7038   62.9532 C   0  0  0  0  0  0  0  0  0  0  0  0
   63.8998   36.2301   64.0260 F   0  0  0  0  0  0  0  0  0  0  0  0
   65.6039   37.6140   63.1800 C   0  0  0  0  0  0  0  0  0  0  0  0
   65.9196   38.0172   64.4411 F   0  0  0  0  0  0  0  0  0  0  0  0
   66.3283   38.1268   62.1003 C   0  0  0  0  0  0  0  0  0  0  0  0
  1  2  1  0
  2  3  2  0
  2  6  1  0
  3 17  1  0
  3  4  1  0
 17 18  2  0
 17 19  1  0
 19 20  1  0
 19 22  1  0
 20 21  1  0
 21 23  1  0
 21 22  1  0
 23 24  2  0
 23 30  1  0
 24 25  1  0
 25 26  2  0
 26 27  1  0
 26 28  1  0
 28 29  1  0
 28 30  2  0
  4  5  2  0
  5  6  1  0
  6  7  1  0
  7  8  2  0
  7 13  1  0
  8  9  1  0
  9 10  2  0
  9 16  1  0
 10 11  1  0
 10 14  1  0
 11 12  2  0
 11 13  1  0
 14 15  1  0
 15 16  1  0
M  END
>  <minimizedAffinity>  (130) 
-9.40128

$$$$
data/reference_output_2/data/smiles/98688.pdb
     RDKit          3D

 26 28  0  0  0  0  0  0  0  0999 V2000
   68.8133   42.2354   57.0125 C   0  0  0  0  0  0  0  0  0  0  0  0
   69.0293   43.5458   56.6611 N   0  0  0  0  0  0  0  0  0  0  0  0
   68.2587   44.1941   55.7762 C   0  0  0  0  0  0  0  0  0  0  0  0
   67.2463   43.5067   55.2320 N   0  0  0  0  0  0  0  0  0  0  0  0
   66.9704   42.2402   55.5171 C   0  0  0  0  0  0  0  0  0  0  0  0
   66.0212   41.6194   54.9984 O   0  0  0  0  0  0  0  0  0  0  0  0
   67.7726   41.5526   56.4435 C   0  0  0  0  0  0  0  0  0  0  0  0
   67.4775   40.2335   56.7360 O   0  0  0  0  0  0  0  0  0  0  0  0
   68.5423   45.5890   55.4449 C   0  0  0  0  0  0  0  0  0  0  0  0
   68.2592   46.0462   54.1497 C   0  0  0  0  0  0  0  0  0  0  0  0
   68.5023   47.3494   53.7714 C   0  0  0  0  0  0  0  0  0  0  0  0
   69.0423   48.2100   54.7158 C   0  0  0  0  0  0  0  0  0  0  0  0
   69.2903   49.5008   54.3642 F   0  0  0  0  0  0  0  0  0  0  0  0
   69.3157   47.7513   55.9840 C   0  0  0  0  0  0  0  0  0  0  0  0
   69.0723   46.4300   56.3767 C   0  0  0  0  0  0  0  0  0  0  0  0
   70.1870   42.4249   58.8616 O   0  0  0  0  0  0  0  0  0  0  0  0
   69.6946   41.6182   57.9836 C   0  0  0  0  0  0  0  0  0  0  0  0
   70.0606   40.2721   58.0689 N   0  0  0  0  0  0  0  0  0  0  0  0
   70.9694   39.7468   59.1026 C   0  0  0  0  0  0  0  0  0  0  0  0
   71.1838   38.2991   59.0013 C   0  0  0  0  0  0  0  0  0  0  0  0
   71.9723   37.8114   57.9514 C   0  0  0  0  0  0  0  0  0  0  0  0
   72.2152   36.4730   57.7766 C   0  0  0  0  0  0  0  0  0  0  0  0
   71.6655   35.5590   58.6642 C   0  0  0  0  0  0  0  0  0  0  0  0
   71.9206   34.2288   58.4691 F   0  0  0  0  0  0  0  0  0  0  0  0
   70.8891   36.0045   59.7008 C   0  0  0  0  0  0  0  0  0  0  0  0
   70.6674   37.3447   59.8457 C   0  0  0  0  0  0  0  0  0  0  0  0
 16 17  2  0
 17 18  1  0
 17  1  1  0
 18 19  1  0
 19 20  1  0
 20 21  2  0
 20 26  1  0
 21 22  1  0
 22 23  2  0
 23 24  1  0
 23 25  1  0
 25 26  2  0
  1  2  1  0
  1  7  2  0
  2  3  2  0
  3  9  1  0
  3  4  1  0
  9 10  2  0
  9 15  1  0
 10 11  1  0
 11 12  2  0
 12 13  1  0
 12 14  1  0
 14 15  2  0
  4  5  1  0
  5  6  2  0
  5  7  1  0
  7  8  1  0
M  END
>  <minimizedAffinity>  (131) 
-8.67515

$$$$
data/reference_output_2/data/smiles/98741.pdb
     RDKit          3D

 27 29  0  0  0  0  0  0  0  0999 V2000
   70.6751   49.1226   57.6686 C   0  0  0  0  0  0  0  0  0  0  0  0
   70.1170   50.1032   58.2434 O   0  0  0  0  0  0  0  0  0  0  0  0
   70.7969   49.1829   56.2714 N   0  0  0  0  0  0  0  0  0  0  0  0
   73.2839   47.5689   61.5575 C   0  0  0  0  0  0  0  0  0  0  0  0
   72.4266   47.2360   60.3871 C   0  0  0  0  0  0  0  0  0  0  0  0
   71.9548   48.2581   59.5905 C   0  0  0  0  0  0  0  0  0  0  0  0
   71.1464   48.0129   58.4770 C   0  0  0  0  0  0  0  0  0  0  0  0
   70.8559   46.7002   58.2326 C   0  0  0  0  0  0  0  0  0  0  0  0
   71.2906   45.6291   58.9850 C   0  0  0  0  0  0  0  0  0  0  0  0
   72.0913   45.9322   60.0792 C   0  0  0  0  0  0  0  0  0  0  0  0
   70.9354   44.2545   58.6569 C   0  0  0  0  0  0  0  0  0  0  0  0
   71.8808   43.4737   58.1200 N   0  0  0  0  0  0  0  0  0  0  0  0
   71.6399   42.1798   57.7826 C   0  0  0  0  0  0  0  0  0  0  0  0
   70.3990   41.6674   57.9984 C   0  0  0  0  0  0  0  0  0  0  0  0
   69.4206   42.4476   58.5443 C   0  0  0  0  0  0  0  0  0  0  0  0
   69.7198   43.7399   58.8636 N   0  0  0  0  0  0  0  0  0  0  0  0
   70.3182   50.2932   55.5200 N   0  0  0  0  0  0  0  0  0  0  0  0
   70.4952   49.9411   53.8475 S   0  0  0  0  0  0  0  0  0  0  0  0
   71.9686   49.7581   53.5538 O   0  0  0  0  0  0  0  0  0  0  0  0
   70.0203   51.1128   53.0374 O   0  0  0  0  0  0  0  0  0  0  0  0
   69.6182   48.5065   53.3761 C   0  0  0  0  0  0  0  0  0  0  0  0
   68.7968   47.8672   54.3116 C   0  0  0  0  0  0  0  0  0  0  0  0
   68.1070   46.7351   53.9292 C   0  0  0  0  0  0  0  0  0  0  0  0
   68.2038   46.2147   52.6520 C   0  0  0  0  0  0  0  0  0  0  0  0
   69.0249   46.8777   51.7656 C   0  0  0  0  0  0  0  0  0  0  0  0
   69.7349   48.0174   52.1049 C   0  0  0  0  0  0  0  0  0  0  0  0
   70.5387   48.6565   51.2173 F   0  0  0  0  0  0  0  0  0  0  0  0
  4  5  1  0
  5  6  2  0
  5 10  1  0
  6  7  1  0
  7  1  1  0
  7  8  2  0
  1  2  2  0
  1  3  1  0
  3 17  1  0
 17 18  1  0
 18 19  2  0
 18 20  2  0
 18 21  1  0
 21 22  2  0
 21 26  1  0
 22 23  1  0
 23 24  2  0
 24 25  1  0
 25 26  2  0
 26 27  1  0
  8  9  1  0
  9 11  1  0
  9 10  2  0
 11 12  2  0
 11 16  1  0
 12 13  1  0
 13 14  2  0
 14 15  1  0
 15 16  2  0
M  END
>  <minimizedAffinity>  (132) 
-8.56738

$$$$
data/reference_output_2/data/smiles/98865.pdb
     RDKit          3D

 26 28  0  0  0  0  0  0  0  0999 V2000
   71.0183   48.2533   57.5823 O   0  0  0  0  0  0  0  0  0  0  0  0
   69.8949   47.8195   57.2440 C   0  0  0  0  0  0  0  0  0  0  0  0
   69.5907   46.4656   57.6590 N   0  0  0  0  0  0  0  0  0  0  0  0
   68.9164   48.6259   56.4672 C   0  0  0  0  0  0  0  0  0  0  0  0
   69.2136   48.5099   55.0044 C   0  0  0  0  0  0  0  0  0  0  0  0
   70.0703   49.3825   54.3178 C   0  0  0  0  0  0  0  0  0  0  0  0
   70.1306   49.0040   53.0415 N   0  0  0  0  0  0  0  0  0  0  0  0
   69.3558   47.9249   52.8510 C   0  0  0  0  0  0  0  0  0  0  0  0
   69.0846   47.1491   51.7283 C   0  0  0  0  0  0  0  0  0  0  0  0
   68.2287   46.0620   51.8601 C   0  0  0  0  0  0  0  0  0  0  0  0
   67.6378   45.7240   53.0674 C   0  0  0  0  0  0  0  0  0  0  0  0
   67.9159   46.5065   54.1842 C   0  0  0  0  0  0  0  0  0  0  0  0
   68.7750   47.6052   54.0723 C   0  0  0  0  0  0  0  0  0  0  0  0
   70.6064   45.7906   58.3930 C   0  0  0  0  0  0  0  0  0  0  0  0
   70.3831   44.3566   58.5159 C   0  0  0  0  0  0  0  0  0  0  0  0
   69.7237   43.9059   59.5381 O   0  0  0  0  0  0  0  0  0  0  0  0
   70.8037   43.3415   57.6291 N   0  0  0  0  0  0  0  0  0  0  0  0
   70.5051   41.9634   57.8710 C   0  0  0  0  0  0  0  0  0  0  0  0
   71.4709   41.1599   58.4191 C   0  0  0  0  0  0  0  0  0  0  0  0
   71.1492   39.8297   58.6675 C   0  0  0  0  0  0  0  0  0  0  0  0
   69.9035   39.2925   58.3826 C   0  0  0  0  0  0  0  0  0  0  0  0
   69.6502   37.9623   58.6543 F   0  0  0  0  0  0  0  0  0  0  0  0
   68.9477   40.1151   57.8330 C   0  0  0  0  0  0  0  0  0  0  0  0
   67.7178   39.6384   57.5471 F   0  0  0  0  0  0  0  0  0  0  0  0
   69.2806   41.4692   57.5834 C   0  0  0  0  0  0  0  0  0  0  0  0
   68.2575   42.2088   57.0375 F   0  0  0  0  0  0  0  0  0  0  0  0
  1  2  2  0
  2  4  1  0
  2  3  1  0
  4  5  1  0
  5  6  2  0
  5 13  1  0
  6  7  1  0
  7  8  1  0
  8  9  1  0
  8 13  2  0
  9 10  2  0
 10 11  1  0
 11 12  2  0
 12 13  1  0
  3 14  1  0
 14 15  1  0
 15 16  2  0
 15 17  1  0
 17 18  1  0
 18 19  2  0
 18 25  1  0
 19 20  1  0
 20 21  2  0
 21 22  1  0
 21 23  1  0
 23 24  1  0
 23 25  2  0
 25 26  1  0
M  END
>  <minimizedAffinity>  (133) 
-8.52841

$$$$
data/reference_output_2/data/smiles/99116.pdb
     RDKit          3D

 24 26  0  0  0  0  0  0  0  0999 V2000
   67.7621   43.2159   56.7407 N   0  0  0  0  0  0  0  0  0  0  0  0
   67.7356   41.7601   56.8418 C   0  0  0  0  0  0  0  0  0  0  0  0
   67.7511   41.2021   55.7273 O   0  0  0  0  0  0  0  0  0  0  0  0
   68.1525   45.1249   55.2077 C   0  0  0  0  0  0  0  0  0  0  0  0
   68.4409   45.8309   56.2066 O   0  0  0  0  0  0  0  0  0  0  0  0
   67.8003   43.7746   55.4662 N   0  0  0  0  0  0  0  0  0  0  0  0
   69.8977   48.6782   52.2294 C   0  0  0  0  0  0  0  0  0  0  0  0
   69.0552   47.4695   52.4282 C   0  0  0  0  0  0  0  0  0  0  0  0
   68.3517   46.9645   51.3546 C   0  0  0  0  0  0  0  0  0  0  0  0
   67.5748   45.8445   51.5499 C   0  0  0  0  0  0  0  0  0  0  0  0
   67.5017   45.2364   52.8004 C   0  0  0  0  0  0  0  0  0  0  0  0
   68.1987   45.7282   53.8814 C   0  0  0  0  0  0  0  0  0  0  0  0
   68.9687   46.8500   53.6583 C   0  0  0  0  0  0  0  0  0  0  0  0
   67.6959   41.1157   58.1472 C   0  0  0  0  0  0  0  0  0  0  0  0
   68.9756   41.1326   58.9004 C   0  0  0  0  0  0  0  0  0  0  0  0
   69.6868   42.3762   58.9748 N   0  0  0  0  0  0  0  0  0  0  0  0
   69.1869   43.4855   59.5452 N   0  0  0  0  0  0  0  0  0  0  0  0
   70.0272   44.4848   59.4301 N   0  0  0  0  0  0  0  0  0  0  0  0
   71.1301   44.0838   58.7758 C   0  0  0  0  0  0  0  0  0  0  0  0
   72.3098   44.7102   58.4077 C   0  0  0  0  0  0  0  0  0  0  0  0
   73.2956   44.0264   57.7521 C   0  0  0  0  0  0  0  0  0  0  0  0
   73.0750   42.6939   57.4699 C   0  0  0  0  0  0  0  0  0  0  0  0
   71.9046   42.0804   57.8364 C   0  0  0  0  0  0  0  0  0  0  0  0
   70.8814   42.7387   58.5000 C   0  0  0  0  0  0  0  0  0  0  0  0
  7  8  1  0
  8  9  2  0
  8 13  1  0
  9 10  1  0
 10 11  2  0
 11 12  1  0
 12  4  1  0
 12 13  2  0
  4  5  2  0
  4  6  1  0
  6  1  1  0
  1  2  1  0
  2  3  2  0
  2 14  1  0
 14 15  1  0
 15 16  1  0
 16 17  1  0
 16 24  1  0
 17 18  2  0
 18 19  1  0
 19 20  1  0
 19 24  2  0
 20 21  2  0
 21 22  1  0
 22 23  2  0
 23 24  1  0
M  END
>  <minimizedAffinity>  (134) 
-9.24741

$$$$
data/reference_output_2/data/smiles/99132.pdb
     RDKit          3D

 23 25  0  0  0  0  0  0  0  0999 V2000
   69.0145   48.1788   55.2112 C   0  0  0  0  0  0  0  0  0  0  0  0
   69.4885   47.6301   56.3822 C   0  0  0  0  0  0  0  0  0  0  0  0
   69.3423   46.2797   56.6926 C   0  0  0  0  0  0  0  0  0  0  0  0
   68.7084   45.4176   55.8351 C   0  0  0  0  0  0  0  0  0  0  0  0
   68.2227   45.9649   54.6425 C   0  0  0  0  0  0  0  0  0  0  0  0
   67.5972   45.0962   53.8020 F   0  0  0  0  0  0  0  0  0  0  0  0
   68.3709   47.2968   54.3427 C   0  0  0  0  0  0  0  0  0  0  0  0
   68.5287   43.9957   56.1128 C   0  0  0  0  0  0  0  0  0  0  0  0
   69.3934   43.2732   56.8897 C   0  0  0  0  0  0  0  0  0  0  0  0
   69.1833   41.9420   57.1232 N   0  0  0  0  0  0  0  0  0  0  0  0
   68.1280   41.2994   56.5993 C   0  0  0  0  0  0  0  0  0  0  0  0
   67.8936   39.9096   56.8323 N   0  0  0  0  0  0  0  0  0  0  0  0
   67.2522   42.0187   55.8159 C   0  0  0  0  0  0  0  0  0  0  0  0
   67.4618   43.3255   55.5898 N   0  0  0  0  0  0  0  0  0  0  0  0
   69.6722   49.9875   53.6942 C   0  0  0  0  0  0  0  0  0  0  0  0
   69.7344   51.3567   53.3886 C   0  0  0  0  0  0  0  0  0  0  0  0
   69.2853   52.3060   54.2721 C   0  0  0  0  0  0  0  0  0  0  0  0
   68.7656   51.8940   55.4794 C   0  0  0  0  0  0  0  0  0  0  0  0
   68.6958   50.5590   55.7962 C   0  0  0  0  0  0  0  0  0  0  0  0
   69.1586   49.5878   54.8818 C   0  0  0  0  0  0  0  0  0  0  0  0
   69.5060   48.3985   51.6993 N   0  0  0  0  0  0  0  0  0  0  0  0
   70.1980   49.0674   52.7191 C   0  0  0  0  0  0  0  0  0  0  0  0
   71.4543   48.8029   52.7641 O   0  0  0  0  0  0  0  0  0  0  0  0
 21 22  1  0
 22 23  2  0
 22 15  1  0
 15 16  2  0
 15 20  1  0
 16 17  1  0
 17 18  2  0
 18 19  1  0
 19 20  2  0
 20  1  1  0
  1  2  2  0
  1  7  1  0
  2  3  1  0
  3  4  2  0
  4  8  1  0
  4  5  1  0
  8  9  2  0
  8 14  1  0
  9 10  1  0
 10 11  2  0
 11 12  1  0
 11 13  1  0
 13 14  2  0
  5  6  1  0
  5  7  2  0
M  END
>  <minimizedAffinity>  (135) 
-8.62601

$$$$
data/reference_output_2/data/smiles/99257.pdb
     RDKit          3D

 21 22  0  0  0  0  0  0  0  0999 V2000
   68.7254   45.1647   56.2349 N   0  0  0  0  0  0  0  0  0  0  0  0
   68.4783   43.8634   56.2991 C   0  0  0  0  0  0  0  0  0  0  0  0
   69.4048   42.9956   56.9961 C   0  0  0  0  0  0  0  0  0  0  0  0
   70.6861   43.4778   57.3035 C   0  0  0  0  0  0  0  0  0  0  0  0
   71.6098   42.6987   57.9648 C   0  0  0  0  0  0  0  0  0  0  0  0
   71.2989   41.4171   58.3433 C   0  0  0  0  0  0  0  0  0  0  0  0
   70.0489   40.9325   58.0474 C   0  0  0  0  0  0  0  0  0  0  0  0
   69.0924   41.7253   57.3689 C   0  0  0  0  0  0  0  0  0  0  0  0
   67.8057   41.1530   57.0927 C   0  0  0  0  0  0  0  0  0  0  0  0
   67.7370   40.3255   56.1025 O   0  0  0  0  0  0  0  0  0  0  0  0
   66.6180   41.3498   57.7276 O   0  0  0  0  0  0  0  0  0  0  0  0
   67.8617   46.0046   55.5803 O   0  0  0  0  0  0  0  0  0  0  0  0
   69.2742   47.6114   52.5540 C   0  0  0  0  0  0  0  0  0  0  0  0
   68.6502   46.8492   51.5915 C   0  0  0  0  0  0  0  0  0  0  0  0
   67.7760   45.8197   51.9291 C   0  0  0  0  0  0  0  0  0  0  0  0
   67.5478   45.5789   53.2781 C   0  0  0  0  0  0  0  0  0  0  0  0
   68.1555   46.3237   54.2654 C   0  0  0  0  0  0  0  0  0  0  0  0
   69.0111   47.3296   53.8739 C   0  0  0  0  0  0  0  0  0  0  0  0
   71.1784   48.9291   52.9174 O   0  0  0  0  0  0  0  0  0  0  0  0
   70.1868   48.6855   52.1891 C   0  0  0  0  0  0  0  0  0  0  0  0
   69.9801   49.4440   51.0541 O   0  0  0  0  0  0  0  0  0  0  0  0
 19 20  2  0
 20 21  1  0
 20 13  1  0
 13 14  2  0
 13 18  1  0
 14 15  1  0
 15 16  2  0
 16 17  1  0
 17 12  1  0
 17 18  2  0
 12  1  1  0
  1  2  2  0
  2  3  1  0
  3  4  2  0
  3  8  1  0
  4  5  1  0
  5  6  2  0
  6  7  1  0
  7  8  2  0
  8  9  1  0
  9 10  2  0
  9 11  1  0
M  END
>  <minimizedAffinity>  (136) 
-8.51143

$$$$
data/reference_output_2/data/smiles/99289.pdb
     RDKit          3D

 21 22  0  0  0  0  0  0  0  0999 V2000
   71.4844   49.3209   53.2169 N   0  0  0  0  0  0  0  0  0  0  0  0
   69.9424   49.2828   52.4467 S   0  0  0  0  0  0  0  0  0  0  0  0
   69.1033   50.4374   52.8964 O   0  0  0  0  0  0  0  0  0  0  0  0
   70.0883   49.2986   50.9711 O   0  0  0  0  0  0  0  0  0  0  0  0
   68.2644   46.0083   56.0278 N   0  0  0  0  0  0  0  0  0  0  0  0
   68.3686   46.3187   54.6492 C   0  0  0  0  0  0  0  0  0  0  0  0
   67.8247   45.4511   53.6960 C   0  0  0  0  0  0  0  0  0  0  0  0
   67.9334   45.7655   52.3579 C   0  0  0  0  0  0  0  0  0  0  0  0
   68.5799   46.9356   51.9714 C   0  0  0  0  0  0  0  0  0  0  0  0
   69.1164   47.7929   52.9046 C   0  0  0  0  0  0  0  0  0  0  0  0
   68.9955   47.4576   54.2300 C   0  0  0  0  0  0  0  0  0  0  0  0
   71.6018   50.4196   54.0800 N   0  0  0  0  0  0  0  0  0  0  0  0
   72.8500   50.9967   54.3018 C   0  0  0  0  0  0  0  0  0  0  0  0
   73.8448   50.4704   53.6883 O   0  0  0  0  0  0  0  0  0  0  0  0
   73.1094   52.1172   55.1517 C   0  0  0  0  0  0  0  0  0  0  0  0
   72.8606   51.9826   56.5307 C   0  0  0  0  0  0  0  0  0  0  0  0
   73.0919   53.0515   57.3450 C   0  0  0  0  0  0  0  0  0  0  0  0
   73.5569   54.2539   56.8819 C   0  0  0  0  0  0  0  0  0  0  0  0
   73.7907   54.3566   55.5405 C   0  0  0  0  0  0  0  0  0  0  0  0
   73.5744   53.3018   54.6539 C   0  0  0  0  0  0  0  0  0  0  0  0
   73.8566   53.5328   53.3473 F   0  0  0  0  0  0  0  0  0  0  0  0
  5  6  1  0
  6  7  2  0
  6 11  1  0
  7  8  1  0
  8  9  2  0
  9 10  1  0
 10  2  1  0
 10 11  2  0
  2  3  2  0
  2  4  2  0
  2  1  1  0
  1 12  1  0
 12 13  1  0
 13 14  2  0
 13 15  1  0
 15 16  2  0
 15 20  1  0
 16 17  1  0
 17 18  2  0
 18 19  1  0
 19 20  2  0
 20 21  1  0
M  END
>  <minimizedAffinity>  (137) 
-8.66541

$$$$
data/reference_output_2/data/smiles/99365.pdb
     RDKit          3D

 28 32  0  0  0  0  0  0  0  0999 V2000
   71.3060   46.8073   58.9295 C   0  0  0  0  0  0  0  0  0  0  0  0
   70.5186   47.6819   58.1852 C   0  0  0  0  0  0  0  0  0  0  0  0
   69.7178   47.2737   57.1530 C   0  0  0  0  0  0  0  0  0  0  0  0
   69.6737   45.9156   56.8082 C   0  0  0  0  0  0  0  0  0  0  0  0
   70.4508   45.0551   57.5408 C   0  0  0  0  0  0  0  0  0  0  0  0
   71.2537   45.4760   58.5804 C   0  0  0  0  0  0  0  0  0  0  0  0
   72.0160   44.5978   59.2930 F   0  0  0  0  0  0  0  0  0  0  0  0
   71.8173   47.0111   61.2346 O   0  0  0  0  0  0  0  0  0  0  0  0
   72.1389   47.2732   60.0295 C   0  0  0  0  0  0  0  0  0  0  0  0
   73.3199   48.0263   59.7407 N   0  0  0  0  0  0  0  0  0  0  0  0
   74.3897   48.6614   60.5021 C   0  0  0  0  0  0  0  0  0  0  0  0
   74.7438   49.4269   59.3098 C   0  0  0  0  0  0  0  0  0  0  0  0
   74.4819   50.8667   59.2065 C   0  0  0  0  0  0  0  0  0  0  0  0
   75.7800   51.0178   58.6653 O   0  0  0  0  0  0  0  0  0  0  0  0
   76.1475   49.6989   58.9609 C   0  0  0  0  0  0  0  0  0  0  0  0
   73.9524   48.4702   58.5144 C   0  0  0  0  0  0  0  0  0  0  0  0
   68.8396   48.1653   56.3467 C   0  0  0  0  0  0  0  0  0  0  0  0
   69.2953   48.3026   54.9405 C   0  0  0  0  0  0  0  0  0  0  0  0
   70.2612   49.1954   54.6206 N   0  0  0  0  0  0  0  0  0  0  0  0
   70.7665   49.3429   53.4191 N   0  0  0  0  0  0  0  0  0  0  0  0
   70.3277   48.5789   52.4127 C   0  0  0  0  0  0  0  0  0  0  0  0
   70.7811   48.6826   51.2506 O   0  0  0  0  0  0  0  0  0  0  0  0
   69.3402   47.6486   52.6812 C   0  0  0  0  0  0  0  0  0  0  0  0
   68.8448   46.8445   51.6615 C   0  0  0  0  0  0  0  0  0  0  0  0
   67.8532   45.9242   51.8986 C   0  0  0  0  0  0  0  0  0  0  0  0
   67.3286   45.7828   53.1670 C   0  0  0  0  0  0  0  0  0  0  0  0
   67.8038   46.5706   54.2015 C   0  0  0  0  0  0  0  0  0  0  0  0
   68.8023   47.4933   53.9584 C   0  0  0  0  0  0  0  0  0  0  0  0
  8  9  2  0
  9  1  1  0
  9 10  1  0
  1  2  2  0
  1  6  1  0
  2  3  1  0
  3 17  1  0
  3  4  2  0
 17 18  1  0
 18 19  2  0
 18 28  1  0
 19 20  1  0
 20 21  1  0
 21 22  2  0
 21 23  1  0
 23 24  1  0
 23 28  2  0
 24 25  2  0
 25 26  1  0
 26 27  2  0
 27 28  1  0
  4  5  1  0
  5  6  2  0
  6  7  1  0
 10 11  1  0
 10 16  1  0
 11 12  1  0
 12 13  1  0
 12 15  1  0
 12 16  1  0
 13 14  1  0
 14 15  1  0
M  END
>  <minimizedAffinity>  (138) 
-9.23371

$$$$
data/reference_output_2/data/smiles/99446.pdb
     RDKit          3D

 33 36  0  0  0  0  0  0  0  0999 V2000
   70.7333   44.3702   58.9829 C   0  0  0  0  0  0  0  0  0  0  0  0
   70.7399   45.6870   58.8174 C   0  0  0  0  0  0  0  0  0  0  0  0
   71.4167   46.4170   59.7057 N   0  0  0  0  0  0  0  0  0  0  0  0
   71.4400   47.7539   59.5621 C   0  0  0  0  0  0  0  0  0  0  0  0
   72.0708   48.4614   60.3867 O   0  0  0  0  0  0  0  0  0  0  0  0
   70.7718   48.3819   58.5039 C   0  0  0  0  0  0  0  0  0  0  0  0
   70.7781   49.6766   58.3392 C   0  0  0  0  0  0  0  0  0  0  0  0
   70.0913   47.6485   57.6088 N   0  0  0  0  0  0  0  0  0  0  0  0
   70.0831   46.3128   57.7755 C   0  0  0  0  0  0  0  0  0  0  0  0
   69.4586   45.5923   56.9606 O   0  0  0  0  0  0  0  0  0  0  0  0
   70.0669   50.3009   57.2192 C   0  0  0  0  0  0  0  0  0  0  0  0
   69.1303   51.2521   57.5908 C   0  0  0  0  0  0  0  0  0  0  0  0
   68.4128   51.8916   56.6019 C   0  0  0  0  0  0  0  0  0  0  0  0
   68.6585   51.5580   55.2834 C   0  0  0  0  0  0  0  0  0  0  0  0
   69.5917   50.6105   54.9212 C   0  0  0  0  0  0  0  0  0  0  0  0
   70.2957   49.9846   55.9148 C   0  0  0  0  0  0  0  0  0  0  0  0
   69.8097   50.2944   53.4704 C   0  0  0  0  0  0  0  0  0  0  0  0
   69.3455   48.9029   53.2257 C   0  0  0  0  0  0  0  0  0  0  0  0
   68.6489   48.2255   54.2053 C   0  0  0  0  0  0  0  0  0  0  0  0
   68.2300   46.9412   53.9548 C   0  0  0  0  0  0  0  0  0  0  0  0
   68.4948   46.3257   52.7486 C   0  0  0  0  0  0  0  0  0  0  0  0
   68.0554   45.0607   52.5676 F   0  0  0  0  0  0  0  0  0  0  0  0
   69.1963   47.0316   51.7874 C   0  0  0  0  0  0  0  0  0  0  0  0
   69.6303   48.3225   52.0062 C   0  0  0  0  0  0  0  0  0  0  0  0
   72.6214   43.0662   59.9788 C   0  0  0  0  0  0  0  0  0  0  0  0
   72.9095   42.5716   61.1893 N   0  0  0  0  0  0  0  0  0  0  0  0
   71.9146   42.8709   62.0561 C   0  0  0  0  0  0  0  0  0  0  0  0
   71.0063   43.5643   61.3413 N   0  0  0  0  0  0  0  0  0  0  0  0
   71.4175   43.6950   60.0707 C   0  0  0  0  0  0  0  0  0  0  0  0
   72.6579   42.5136   57.5703 C   0  0  0  0  0  0  0  0  0  0  0  0
   73.4580   42.9467   58.7777 C   0  0  0  0  0  0  0  0  0  0  0  0
   74.1609   44.2650   58.5414 C   0  0  0  0  0  0  0  0  0  0  0  0
   74.5016   41.8788   59.0142 C   0  0  0  0  0  0  0  0  0  0  0  0
 30 31  1  0
 31 32  1  0
 31 33  1  0
 31 25  1  0
 25 26  1  0
 25 29  2  0
 26 27  1  0
 27 28  2  0
 28 29  1  0
 29  1  1  0
  1  2  2  0
  2  3  1  0
  2  9  1  0
  3  4  1  0
  4  5  2  0
  4  6  1  0
  6  7  2  0
  6  8  1  0
  7 11  1  0
 11 12  2  0
 11 16  1  0
 12 13  1  0
 13 14  2  0
 14 15  1  0
 15 17  1  0
 15 16  2  0
 17 18  1  0
 18 19  2  0
 18 24  1  0
 19 20  1  0
 20 21  2  0
 21 22  1  0
 21 23  1  0
 23 24  2  0
  8  9  1  0
  9 10  2  0
M  CHG  1  28   1
M  END
>  <minimizedAffinity>  (139) 
-9.51901

$$$$
data/reference_output_2/data/smiles/99455.pdb
     RDKit          3D

 23 24  0  0  0  0  0  0  0  0999 V2000
   71.4981   49.5510   53.6991 N   0  0  0  0  0  0  0  0  0  0  0  0
   70.4239   49.4916   53.0670 C   0  0  0  0  0  0  0  0  0  0  0  0
   69.9594   50.5990   52.3236 N   0  0  0  0  0  0  0  0  0  0  0  0
   69.5984   48.2476   53.0554 C   0  0  0  0  0  0  0  0  0  0  0  0
   69.1676   47.7350   51.8621 C   0  0  0  0  0  0  0  0  0  0  0  0
   68.3950   46.5768   51.8496 C   0  0  0  0  0  0  0  0  0  0  0  0
   68.0389   45.9086   53.0196 C   0  0  0  0  0  0  0  0  0  0  0  0
   68.4895   46.4507   54.2095 C   0  0  0  0  0  0  0  0  0  0  0  0
   69.2572   47.6048   54.2177 C   0  0  0  0  0  0  0  0  0  0  0  0
   68.1356   45.7824   55.4149 N   0  0  0  0  0  0  0  0  0  0  0  0
   68.0870   46.3701   56.5082 O   0  0  0  0  0  0  0  0  0  0  0  0
   67.8411   44.4373   55.3635 O   0  0  0  0  0  0  0  0  0  0  0  0
   72.4051   50.4627   53.8758 O   0  0  0  0  0  0  0  0  0  0  0  0
   72.7714   51.3263   54.8445 C   0  0  0  0  0  0  0  0  0  0  0  0
   73.8240   51.1746   55.4535 O   0  0  0  0  0  0  0  0  0  0  0  0
   71.8663   52.4957   55.1760 C   0  0  0  0  0  0  0  0  0  0  0  0
   67.0145   50.4823   57.6528 C   0  0  0  0  0  0  0  0  0  0  0  0
   68.2340   51.0191   56.9968 C   0  0  0  0  0  0  0  0  0  0  0  0
   68.1959   51.9059   55.9439 C   0  0  0  0  0  0  0  0  0  0  0  0
   69.3411   52.3984   55.3403 C   0  0  0  0  0  0  0  0  0  0  0  0
   70.5948   52.0265   55.7622 C   0  0  0  0  0  0  0  0  0  0  0  0
   70.6282   51.1214   56.8380 C   0  0  0  0  0  0  0  0  0  0  0  0
   69.4954   50.6332   57.4365 C   0  0  0  0  0  0  0  0  0  0  0  0
 17 18  1  0
 18 19  2  0
 18 23  1  0
 19 20  1  0
 20 21  2  0
 21 16  1  0
 21 22  1  0
 16 14  1  0
 14 15  2  0
 14 13  1  0
 13  1  1  0
  1  2  2  0
  2  3  1  0
  2  4  1  0
  4  5  2  0
  4  9  1  0
  5  6  1  0
  6  7  2  0
  7  8  1  0
  8 10  1  0
  8  9  2  0
 10 11  2  0
 10 12  1  0
 22 23  2  0
M  CHG  3   1   1  10   1  12  -1
M  END
>  <minimizedAffinity>  (140) 
-8.60545

$$$$
data/reference_output_2/data/smiles/99581.pdb
     RDKit          3D

 24 26  0  0  0  0  0  0  0  0999 V2000
   72.3620   50.7400   54.8157 C   0  0  0  0  0  0  0  0  0  0  0  0
   72.4078   50.0673   53.7563 O   0  0  0  0  0  0  0  0  0  0  0  0
   71.1982   51.4495   55.1328 N   0  0  0  0  0  0  0  0  0  0  0  0
   71.0436   52.2557   56.3300 C   0  0  0  0  0  0  0  0  0  0  0  0
   69.8145   51.7390   57.0482 C   0  0  0  0  0  0  0  0  0  0  0  0
   68.6151   52.0264   56.2059 C   0  0  0  0  0  0  0  0  0  0  0  0
   68.8964   52.2031   54.7525 C   0  0  0  0  0  0  0  0  0  0  0  0
   70.0600   51.4045   54.2449 C   0  0  2  0  0  0  0  0  0  0  0  0
   69.5886   49.9883   54.0709 C   0  0  0  0  0  0  0  0  0  0  0  0
   69.2868   49.1143   55.0471 N   0  0  0  0  0  0  0  0  0  0  0  0
   68.9013   47.9418   54.5131 C   0  0  0  0  0  0  0  0  0  0  0  0
   68.4961   46.7435   55.0426 C   0  0  0  0  0  0  0  0  0  0  0  0
   68.1560   45.6994   54.1988 C   0  0  0  0  0  0  0  0  0  0  0  0
   67.7623   44.5364   54.7648 F   0  0  0  0  0  0  0  0  0  0  0  0
   68.2076   45.8108   52.8251 C   0  0  0  0  0  0  0  0  0  0  0  0
   68.6164   47.0201   52.3048 C   0  0  0  0  0  0  0  0  0  0  0  0
   68.9609   48.0776   53.1388 C   0  0  0  0  0  0  0  0  0  0  0  0
   69.3837   49.3388   52.9167 N   0  0  0  0  0  0  0  0  0  0  0  0
   73.5810   50.7341   55.6781 C   0  0  0  0  0  0  0  0  0  0  0  0
   76.0009   50.0455   55.6038 C   0  0  0  0  0  0  0  0  0  0  0  0
   76.1755   50.5487   56.7465 O   0  0  0  0  0  0  0  0  0  0  0  0
   74.6979   50.1141   55.0157 N   0  0  0  0  0  0  0  0  0  0  0  0
   78.2877   49.1702   55.5520 C   0  0  0  0  0  0  0  0  0  0  0  0
   77.0573   49.4461   54.9507 O   0  0  0  0  0  0  0  0  0  0  0  0
 23 24  1  0
 24 20  1  0
 20 21  2  0
 20 22  1  0
 22 19  1  0
 19  1  1  0
  1  2  2  0
  1  3  1  0
  3  4  1  0
  3  8  1  0
  4  5  1  0
  5  6  1  0
  6  7  1  0
  7  8  1  0
  8  9  1  1
  9 10  2  0
  9 18  1  0
 10 11  1  0
 11 12  2  0
 11 17  1  0
 12 13  1  0
 13 14  1  0
 13 15  2  0
 15 16  1  0
 16 17  2  0
 17 18  1  0
M  CHG  1  10   1
M  END
>  <minimizedAffinity>  (141) 
-8.59406

$$$$
data/reference_output_2/data/smiles/99673.pdb
     RDKit          3D

 30 33  0  0  0  0  0  0  0  0999 V2000
   67.2988   41.7564   55.9861 O   0  0  0  0  0  0  0  0  0  0  0  0
   68.2663   42.1480   56.6882 C   0  0  0  0  0  0  0  0  0  0  0  0
   68.8715   41.1850   57.5322 N   0  0  0  0  0  0  0  0  0  0  0  0
   69.9887   41.5941   58.3574 C   0  0  0  0  0  0  0  0  0  0  0  0
   70.9428   40.4004   58.3959 C   0  0  0  0  0  0  0  0  0  0  0  0
   70.3422   39.2763   59.1704 C   0  0  0  0  0  0  0  0  0  0  0  0
   68.8320   39.2182   58.9700 C   0  0  0  0  0  0  0  0  0  0  0  0
   68.4436   39.8039   57.6265 C   0  0  0  0  0  0  0  0  0  0  0  0
   70.9455   37.9411   58.8605 C   0  0  0  0  0  0  0  0  0  0  0  0
   70.5978   36.8254   59.6243 C   0  0  0  0  0  0  0  0  0  0  0  0
   71.1293   35.5750   59.3975 C   0  0  0  0  0  0  0  0  0  0  0  0
   72.0393   35.3857   58.3872 C   0  0  0  0  0  0  0  0  0  0  0  0
   72.4043   36.4655   57.6131 C   0  0  0  0  0  0  0  0  0  0  0  0
   71.8536   37.7252   57.8605 C   0  0  0  0  0  0  0  0  0  0  0  0
   70.5469   39.5279   60.6168 C   0  0  0  0  0  0  0  0  0  0  0  0
   69.5595   39.6192   61.3740 O   0  0  0  0  0  0  0  0  0  0  0  0
   71.8239   39.6595   61.1183 O   0  0  0  0  0  0  0  0  0  0  0  0
   68.7321   43.5295   56.6254 C   0  0  0  0  0  0  0  0  0  0  0  0
   67.9060   44.4215   55.9653 O   0  0  0  0  0  0  0  0  0  0  0  0
   68.1868   45.2644   54.9333 C   0  0  0  0  0  0  0  0  0  0  0  0
   67.7396   44.9820   53.6417 C   0  0  0  0  0  0  0  0  0  0  0  0
   67.9991   45.8080   52.5702 C   0  0  0  0  0  0  0  0  0  0  0  0
   68.7278   46.9566   52.7750 C   0  0  0  0  0  0  0  0  0  0  0  0
   69.0258   47.8338   51.7400 C   0  0  0  0  0  0  0  0  0  0  0  0
   69.7564   48.9592   52.0199 C   0  0  0  0  0  0  0  0  0  0  0  0
   70.1873   49.2175   53.3039 C   0  0  0  0  0  0  0  0  0  0  0  0
   70.8599   50.2649   53.5323 O   0  0  0  0  0  0  0  0  0  0  0  0
   69.8809   48.3619   54.2466 O   0  0  0  0  0  0  0  0  0  0  0  0
   69.1793   47.2579   54.0421 C   0  0  0  0  0  0  0  0  0  0  0  0
   68.9080   46.4137   55.1097 C   0  0  0  0  0  0  0  0  0  0  0  0
  1  2  2  0
  2 18  1  0
  2  3  1  0
 18 19  1  0
 19 20  1  0
 20 21  2  0
 20 30  1  0
 21 22  1  0
 22 23  2  0
 23 24  1  0
 23 29  1  0
 24 25  2  0
 25 26  1  0
 26 27  2  0
 26 28  1  0
 28 29  1  0
 29 30  2  0
  3  4  1  0
  3  8  1  0
  4  5  1  0
  5  6  1  0
  6 15  1  0
  6  9  1  0
  6  7  1  0
 15 16  2  0
 15 17  1  0
  9 10  2  0
  9 14  1  0
 10 11  1  0
 11 12  2  0
 12 13  1  0
 13 14  2  0
  7  8  1  0
M  END
>  <minimizedAffinity>  (142) 
-9.37538

$$$$
data/reference_output_2/data/smiles/99717.pdb
     RDKit          3D

 29 33  0  0  0  0  0  0  0  0999 V2000
   69.8118   49.9211   56.7663 C   0  0  0  0  0  0  0  0  0  0  0  0
   67.1743   47.6512   57.0300 O   0  0  0  0  0  0  0  0  0  0  0  0
   68.4840   47.4131   56.3883 S   0  0  0  0  0  0  0  0  0  0  0  0
   69.3648   46.5037   57.2140 O   0  0  0  0  0  0  0  0  0  0  0  0
   68.3269   46.7571   54.7724 C   0  0  0  0  0  0  0  0  0  0  0  0
   67.7540   45.6009   54.2627 C   0  0  0  0  0  0  0  0  0  0  0  0
   67.8098   45.3791   52.9011 C   0  0  0  0  0  0  0  0  0  0  0  0
   68.4221   46.2919   52.0765 C   0  0  0  0  0  0  0  0  0  0  0  0
   69.0024   47.4601   52.5730 C   0  0  0  0  0  0  0  0  0  0  0  0
   69.6098   48.3643   51.7497 C   0  0  0  0  0  0  0  0  0  0  0  0
   70.1602   49.4927   52.3134 C   0  0  0  0  0  0  0  0  0  0  0  0
   70.0897   49.6863   53.6760 C   0  0  0  0  0  0  0  0  0  0  0  0
   69.4636   48.7541   54.5296 C   0  0  0  0  0  0  0  0  0  0  0  0
   68.9372   47.6681   53.9530 C   0  0  0  0  0  0  0  0  0  0  0  0
   69.3305   48.8490   55.9423 N   0  0  0  0  0  0  0  0  0  0  0  0
   71.1572   49.7299   57.3837 C   0  0  0  0  0  0  0  0  0  0  0  0
   71.1802   49.2325   58.7835 C   0  0  0  0  0  0  0  0  0  0  0  0
   72.5098   48.8555   59.2262 N   0  0  0  0  0  0  0  0  0  0  0  0
   72.5244   47.8236   60.1984 C   0  0  0  0  0  0  0  0  0  0  0  0
   72.3128   46.4874   59.4717 C   0  0  0  0  0  0  0  0  0  0  0  0
   73.5365   46.2535   58.7571 N   0  0  0  0  0  0  0  0  0  0  0  0
   74.3136   47.4082   58.3967 C   0  0  0  0  0  0  0  0  0  0  0  0
   73.2993   48.5181   58.0746 C   0  0  0  0  0  0  0  0  0  0  0  0
   73.9243   44.9474   58.4335 C   0  0  0  0  0  0  0  0  0  0  0  0
   73.1428   44.0215   57.7765 C   0  0  0  0  0  0  0  0  0  0  0  0
   73.5961   42.7444   57.4934 C   0  0  0  0  0  0  0  0  0  0  0  0
   74.8590   42.3572   57.8647 C   0  0  0  0  0  0  0  0  0  0  0  0
   75.6440   43.3040   58.5307 C   0  0  0  0  0  0  0  0  0  0  0  0
   75.1693   44.5247   58.7845 N   0  0  0  0  0  0  0  0  0  0  0  0
  2  3  2  0
  3  4  2  0
  3  5  1  0
  3 15  1  0
  5  6  2  0
  5 14  1  0
  6  7  1  0
  7  8  2  0
  8  9  1  0
  9 10  1  0
  9 14  2  0
 10 11  2  0
 11 12  1  0
 12 13  2  0
 13 14  1  0
 13 15  1  0
 15  1  1  0
  1 16  1  0
 16 17  1  0
 17 18  1  0
 18 19  1  0
 18 23  1  0
 19 20  1  0
 20 21  1  0
 21 24  1  0
 21 22  1  0
 24 25  2  0
 24 29  1  0
 25 26  1  0
 26 27  2  0
 27 28  1  0
 28 29  2  0
 22 23  1  0
M  CHG  1  18   1
M  END
>  <minimizedAffinity>  (143) 
-8.57226

$$$$
data/reference_output_2/data/smiles/99752.pdb
     RDKit          3D

 29 32  0  0  0  0  0  0  0  0999 V2000
   68.0682   44.5625   55.2989 N   0  0  0  0  0  0  0  0  0  0  0  0
   68.4932   43.7466   56.3564 C   0  0  0  0  0  0  0  0  0  0  0  0
   69.2248   44.1998   57.2497 O   0  0  0  0  0  0  0  0  0  0  0  0
   69.3874   51.0007   55.4146 C   0  0  0  0  0  0  0  0  0  0  0  0
   69.3559   49.9799   54.3293 C   0  0  0  0  0  0  0  0  0  0  0  0
   69.6501   50.3473   53.0266 C   0  0  0  0  0  0  0  0  0  0  0  0
   69.5986   49.3399   52.0895 C   0  0  0  0  0  0  0  0  0  0  0  0
   69.8619   49.6338   50.8762 O   0  0  0  0  0  0  0  0  0  0  0  0
   69.3012   48.1058   52.3326 O   0  0  0  0  0  0  0  0  0  0  0  0
   69.0095   47.6940   53.5687 C   0  0  0  0  0  0  0  0  0  0  0  0
   68.6963   46.3804   53.8136 C   0  0  0  0  0  0  0  0  0  0  0  0
   68.3864   45.9329   55.1075 C   0  0  0  0  0  0  0  0  0  0  0  0
   68.4220   46.8905   56.0880 C   0  0  0  0  0  0  0  0  0  0  0  0
   68.7428   48.2297   55.8251 C   0  0  0  0  0  0  0  0  0  0  0  0
   69.0446   48.6557   54.5532 C   0  0  0  0  0  0  0  0  0  0  0  0
   68.1040   42.3093   56.4770 C   0  0  0  0  0  0  0  0  0  0  0  0
   68.6796   41.6633   57.5983 N   0  0  0  0  0  0  0  0  0  0  0  0
   70.0698   41.8387   57.8172 C   0  0  0  0  0  0  0  0  0  0  0  0
   70.4594   41.0486   59.0580 C   0  0  0  0  0  0  0  0  0  0  0  0
   70.2773   39.6452   58.8909 N   0  0  0  0  0  0  0  0  0  0  0  0
   69.1026   39.3008   58.1468 C   0  0  0  0  0  0  0  0  0  0  0  0
   68.1147   40.4198   57.9937 C   0  0  0  0  0  0  0  0  0  0  0  0
   71.3855   38.9303   58.3388 C   0  0  0  0  0  0  0  0  0  0  0  0
   71.4297   37.4979   58.6388 C   0  0  0  0  0  0  0  0  0  0  0  0
   72.1316   36.6552   57.8128 C   0  0  0  0  0  0  0  0  0  0  0  0
   72.2279   35.3142   58.0179 C   0  0  0  0  0  0  0  0  0  0  0  0
   71.5817   34.7852   59.1153 C   0  0  0  0  0  0  0  0  0  0  0  0
   70.8715   35.6180   59.9550 C   0  0  0  0  0  0  0  0  0  0  0  0
   70.7862   36.9745   59.7302 C   0  0  0  0  0  0  0  0  0  0  0  0
  4  5  1  0
  5  6  2  0
  5 15  1  0
  6  7  1  0
  7  8  2  0
  7  9  1  0
  9 10  1  0
 10 11  1  0
 10 15  2  0
 11 12  2  0
 12  1  1  0
 12 13  1  0
  1  2  1  0
  2  3  2  0
  2 16  1  0
 16 17  1  0
 17 18  1  0
 17 22  1  0
 18 19  1  0
 19 20  1  0
 20 23  1  0
 20 21  1  0
 23 24  1  0
 24 25  2  0
 24 29  1  0
 25 26  1  0
 26 27  2  0
 27 28  1  0
 28 29  2  0
 21 22  1  0
 13 14  2  0
 14 15  1  0
M  CHG  2  17   1  20   1
M  END
>  <minimizedAffinity>  (144) 
-9.34890

$$$$
data/reference_output_2/data/smiles/99915.pdb
     RDKit          3D

 23 24  0  0  0  0  0  0  0  0999 V2000
   67.2167   42.1055   55.9871 C   0  0  0  0  0  0  0  0  0  0  0  0
   65.8426   41.8987   55.0737 S   0  0  0  0  0  0  0  0  0  0  0  0
   67.3739   41.2860   58.6717 O   0  0  0  0  0  0  0  0  0  0  0  0
   67.8687   40.5533   57.7915 C   0  0  0  0  0  0  0  0  0  0  0  0
   67.8127   40.9225   56.4440 N   0  0  0  0  0  0  0  0  0  0  0  0
   68.5221   39.2742   58.1967 C   0  0  0  0  0  0  0  0  0  0  0  0
   69.8306   39.2112   58.3029 C   0  0  0  0  0  0  0  0  0  0  0  0
   70.5535   38.0113   58.6912 C   0  0  0  0  0  0  0  0  0  0  0  0
   70.1821   37.1635   59.7046 C   0  0  0  0  0  0  0  0  0  0  0  0
   70.9110   36.0371   60.0258 C   0  0  0  0  0  0  0  0  0  0  0  0
   72.0583   35.7250   59.3211 C   0  0  0  0  0  0  0  0  0  0  0  0
   72.4506   36.5593   58.3020 C   0  0  0  0  0  0  0  0  0  0  0  0
   71.6994   37.6739   58.0091 C   0  0  0  0  0  0  0  0  0  0  0  0
   67.6229   43.4211   56.1956 N   0  0  0  0  0  0  0  0  0  0  0  0
   67.9397   44.2700   55.1004 N   0  0  0  0  0  0  0  0  0  0  0  0
   68.3254   45.6141   55.2857 C   0  0  0  0  0  0  0  0  0  0  0  0
   68.3876   46.0641   56.4547 O   0  0  0  0  0  0  0  0  0  0  0  0
   68.6496   46.4890   54.1802 C   0  0  0  0  0  0  0  0  0  0  0  0
   68.4709   46.1877   52.8488 C   0  0  0  0  0  0  0  0  0  0  0  0
   68.7901   47.0439   51.8186 C   0  0  0  0  0  0  0  0  0  0  0  0
   69.3183   48.2711   52.1306 C   0  0  0  0  0  0  0  0  0  0  0  0
   69.5028   48.5866   53.4438 N   0  0  0  0  0  0  0  0  0  0  0  0
   69.1889   47.7474   54.4409 C   0  0  0  0  0  0  0  0  0  0  0  0
  3  4  2  0
  4  6  1  0
  4  5  1  0
  6  7  2  0
  7  8  1  0
  8  9  2  0
  8 13  1  0
  9 10  1  0
 10 11  2  0
 11 12  1  0
 12 13  2  0
  5  1  1  0
  1  2  2  0
  1 14  1  0
 14 15  1  0
 15 16  1  0
 16 17  2  0
 16 18  1  0
 18 19  2  0
 18 23  1  0
 19 20  1  0
 20 21  2  0
 21 22  1  0
 22 23  2  0
M  END
>  <minimizedAffinity>  (145) 
-8.50101

$$$$
data/reference_output_2/data/smiles/100005.pdb
     RDKit          3D

 22 24  0  0  0  0  0  0  0  0999 V2000
   67.9468   42.2642   55.9839 O   0  0  0  0  0  0  0  0  0  0  0  0
   68.6384   43.0397   56.6742 C   0  0  0  0  0  0  0  0  0  0  0  0
   68.5433   44.4312   56.2290 N   0  0  0  0  0  0  0  0  0  0  0  0
   69.4700   42.7376   57.7917 C   0  0  0  0  0  0  0  0  0  0  0  0
   69.2125   43.4332   58.8648 O   0  0  0  0  0  0  0  0  0  0  0  0
   70.5477   41.8013   57.9798 C   0  0  0  0  0  0  0  0  0  0  0  0
   71.9202   42.1610   57.9565 C   0  0  0  0  0  0  0  0  0  0  0  0
   72.6855   41.1203   58.2645 N   0  0  0  0  0  0  0  0  0  0  0  0
   71.8945   40.0508   58.5002 C   0  0  0  0  0  0  0  0  0  0  0  0
   72.2304   38.7509   58.8322 C   0  0  0  0  0  0  0  0  0  0  0  0
   71.1912   37.8588   58.9830 C   0  0  0  0  0  0  0  0  0  0  0  0
   69.8900   38.2099   58.8194 C   0  0  0  0  0  0  0  0  0  0  0  0
   69.5736   39.5333   58.4839 C   0  0  0  0  0  0  0  0  0  0  0  0
   70.5667   40.4683   58.3222 C   0  0  0  0  0  0  0  0  0  0  0  0
   67.7594   44.8115   55.1651 N   0  0  0  0  0  0  0  0  0  0  0  0
   68.1756   45.7587   54.1978 C   0  0  0  0  0  0  0  0  0  0  0  0
   67.9074   45.5275   52.8358 C   0  0  0  0  0  0  0  0  0  0  0  0
   68.2973   46.4212   51.8678 C   0  0  0  0  0  0  0  0  0  0  0  0
   68.9644   47.5562   52.2783 C   0  0  0  0  0  0  0  0  0  0  0  0
   69.3821   48.4961   51.3393 O   0  0  0  0  0  0  0  0  0  0  0  0
   69.2336   47.7961   53.6111 C   0  0  0  0  0  0  0  0  0  0  0  0
   68.8389   46.8911   54.5984 C   0  0  0  0  0  0  0  0  0  0  0  0
  1  2  2  0
  2  3  1  0
  2  4  1  0
  3 15  1  0
 15 16  1  0
 16 17  2  0
 16 22  1  0
 17 18  1  0
 18 19  2  0
 19 20  1  0
 19 21  1  0
 21 22  2  0
  4  5  2  0
  4  6  1  0
  6  7  2  0
  6 14  1  0
  7  8  1  0
  8  9  1  0
  9 10  1  0
  9 14  2  0
 10 11  2  0
 11 12  1  0
 12 13  2  0
 13 14  1  0
M  END
>  <minimizedAffinity>  (146) 
-8.58933

$$$$
data/reference_output_2/data/smiles/100050.pdb
     RDKit          3D

 26 28  0  0  0  0  0  0  0  0999 V2000
   69.4087   48.6569   57.6804 C   0  0  0  0  0  0  0  0  0  0  0  0
   72.5685   50.7643   55.7067 C   0  0  0  0  0  0  0  0  0  0  0  0
   72.4353   52.0819   55.3068 C   0  0  0  0  0  0  0  0  0  0  0  0
   71.2574   52.7332   55.5733 C   0  0  0  0  0  0  0  0  0  0  0  0
   70.2508   52.0675   56.2229 C   0  0  0  0  0  0  0  0  0  0  0  0
   69.0625   52.7205   56.5376 C   0  0  0  0  0  0  0  0  0  0  0  0
   68.0818   52.0913   57.2048 N   0  0  0  0  0  0  0  0  0  0  0  0
   68.2357   50.7922   57.5845 C   0  0  0  0  0  0  0  0  0  0  0  0
   69.3876   50.0809   57.3033 C   0  0  0  0  0  0  0  0  0  0  0  0
   70.3829   50.7367   56.6233 C   0  0  0  0  0  0  0  0  0  0  0  0
   71.5559   50.0744   56.3633 C   0  0  0  0  0  0  0  0  0  0  0  0
   74.7793   49.8918   56.3609 C   0  0  0  0  0  0  0  0  0  0  0  0
   73.7730   50.1605   55.4193 O   0  0  0  0  0  0  0  0  0  0  0  0
   68.8396   47.9268   56.5012 C   0  0  0  0  0  0  0  0  0  0  0  0
   67.7677   47.3092   56.7815 O   0  0  0  0  0  0  0  0  0  0  0  0
   69.3367   47.8594   55.2123 N   0  0  0  0  0  0  0  0  0  0  0  0
   68.8198   47.1572   54.1001 C   0  0  0  0  0  0  0  0  0  0  0  0
   68.1173   45.9868   54.1877 C   0  0  0  0  0  0  0  0  0  0  0  0
   67.6524   45.3795   53.0491 C   0  0  0  0  0  0  0  0  0  0  0  0
   67.8483   45.8771   51.7810 C   0  0  0  0  0  0  0  0  0  0  0  0
   68.5587   47.0569   51.7185 C   0  0  0  0  0  0  0  0  0  0  0  0
   69.0440   47.7048   52.8185 C   0  0  0  0  0  0  0  0  0  0  0  0
   69.9252   49.2192   52.6506 S   0  0  0  0  0  0  0  0  0  0  0  0
   69.7898   49.7009   50.9805 N   0  0  0  0  0  0  0  0  0  0  0  0
   69.2000   50.2573   53.4372 O   0  0  0  0  0  0  0  0  0  0  0  0
   71.3675   49.0851   52.9992 O   0  0  0  0  0  0  0  0  0  0  0  0
 12 13  1  0
 13  2  1  0
  2  3  2  0
  2 11  1  0
  3  4  1  0
  4  5  2  0
  5  6  1  0
  5 10  1  0
  6  7  2  0
  7  8  1  0
  8  9  2  0
  9  1  1  0
  9 10  1  0
  1 14  1  0
 14 15  2  0
 14 16  1  0
 16 17  1  0
 17 18  2  0
 17 22  1  0
 18 19  1  0
 19 20  2  0
 20 21  1  0
 21 22  2  0
 22 23  1  0
 23 24  1  0
 23 25  2  0
 23 26  2  0
 10 11  2  0
M  END
>  <minimizedAffinity>  (147) 
-8.70505

$$$$
data/reference_output_2/data/smiles/100103.pdb
     RDKit          3D

 31 34  0  0  0  0  0  0  0  0999 V2000
   70.9525   47.9870   58.0882 C   0  0  0  0  0  0  0  0  0  0  0  0
   71.5761   47.0393   57.5496 O   0  0  0  0  0  0  0  0  0  0  0  0
   71.5625   48.7313   59.1373 N   0  0  0  0  0  0  0  0  0  0  0  0
   69.5821   48.3229   57.6240 C   0  0  0  0  0  0  0  0  0  0  0  0
   70.7226   50.2443   55.8812 C   0  0  0  0  0  0  0  0  0  0  0  0
   69.9739   49.0548   55.3764 C   0  0  0  0  0  0  0  0  0  0  0  0
   69.8195   48.8662   54.0078 C   0  0  0  0  0  0  0  0  0  0  0  0
   69.1433   47.7957   53.4674 C   0  0  0  0  0  0  0  0  0  0  0  0
   68.9957   47.6186   52.0888 C   0  0  0  0  0  0  0  0  0  0  0  0
   68.3115   46.5344   51.6000 C   0  0  0  0  0  0  0  0  0  0  0  0
   67.7702   45.6208   52.4570 C   0  0  0  0  0  0  0  0  0  0  0  0
   67.9223   45.8077   53.8118 C   0  0  0  0  0  0  0  0  0  0  0  0
   68.5972   46.8756   54.3480 C   0  0  0  0  0  0  0  0  0  0  0  0
   68.7665   47.0893   55.7146 C   0  0  0  0  0  0  0  0  0  0  0  0
   68.2710   46.2530   56.5065 O   0  0  0  0  0  0  0  0  0  0  0  0
   69.4325   48.1440   56.1998 N   0  0  0  0  0  0  0  0  0  0  0  0
   72.8883   48.4577   59.6355 C   0  0  0  0  0  0  0  0  0  0  0  0
   72.8135   47.3213   60.5800 C   0  0  0  0  0  0  0  0  0  0  0  0
   71.6961   46.9966   61.0400 O   0  0  0  0  0  0  0  0  0  0  0  0
   73.9539   46.5833   60.9869 N   0  0  0  0  0  0  0  0  0  0  0  0
   73.7930   45.4862   61.9135 C   0  0  0  0  0  0  0  0  0  0  0  0
   74.4211   45.9593   63.2170 C   0  0  0  0  0  0  0  0  0  0  0  0
   75.7176   46.6032   62.9294 N   0  0  0  0  0  0  0  0  0  0  0  0
   76.2736   46.5323   61.5926 C   0  0  0  0  0  0  0  0  0  0  0  0
   75.2860   46.8768   60.5154 C   0  0  0  0  0  0  0  0  0  0  0  0
   76.3282   47.2597   64.0270 C   0  0  0  0  0  0  0  0  0  0  0  0
   75.6674   47.5310   65.1969 C   0  0  0  0  0  0  0  0  0  0  0  0
   76.2783   48.1698   66.2583 C   0  0  0  0  0  0  0  0  0  0  0  0
   77.5830   48.5635   66.1907 C   0  0  0  0  0  0  0  0  0  0  0  0
   78.2746   48.3059   65.0305 C   0  0  0  0  0  0  0  0  0  0  0  0
   77.6648   47.6709   63.9763 C   0  0  0  0  0  0  0  0  0  0  0  0
  5  6  1  0
  6  7  2  0
  6 16  1  0
  7  8  1  0
  8  9  2  0
  8 13  1  0
  9 10  1  0
 10 11  2  0
 11 12  1  0
 12 13  2  0
 13 14  1  0
 14 15  2  0
 14 16  1  0
 16  4  1  0
  4  1  1  0
  1  2  2  0
  1  3  1  0
  3 17  1  0
 17 18  1  0
 18 19  2  0
 18 20  1  0
 20 21  1  0
 20 25  1  0
 21 22  1  0
 22 23  1  0
 23 26  1  0
 23 24  1  0
 26 27  2  0
 26 31  1  0
 27 28  1  0
 28 29  2  0
 29 30  1  0
 30 31  2  0
 24 25  1  0
M  END
>  <minimizedAffinity>  (148) 
-8.61040

$$$$
data/reference_output_2/data/smiles/100217.pdb
     RDKit          3D

 25 27  0  0  0  0  0  0  0  0999 V2000
   70.5467   44.1421   57.5720 N   0  0  0  0  0  0  0  0  0  0  0  0
   70.2995   42.8848   57.7319 C   0  0  0  0  0  0  0  0  0  0  0  0
   69.0448   42.2104   57.4140 C   0  0  0  0  0  0  0  0  0  0  0  0
   68.0274   42.7905   56.9322 O   0  0  0  0  0  0  0  0  0  0  0  0
   69.2240   40.8445   57.7503 N   0  0  0  0  0  0  0  0  0  0  0  0
   70.5353   40.6158   58.2680 C   0  0  0  0  0  0  0  0  0  0  0  0
   71.1719   39.4705   58.7245 C   0  0  0  0  0  0  0  0  0  0  0  0
   70.3665   37.9163   58.7432 Cl  0  0  0  0  0  0  0  0  0  0  0  0
   72.4710   39.5122   59.1842 C   0  0  0  0  0  0  0  0  0  0  0  0
   73.1065   40.7364   59.1704 C   0  0  0  0  0  0  0  0  0  0  0  0
   72.4809   41.8894   58.7155 C   0  0  0  0  0  0  0  0  0  0  0  0
   73.2909   43.4370   58.7013 Cl  0  0  0  0  0  0  0  0  0  0  0  0
   71.1766   41.8382   58.2563 C   0  0  0  0  0  0  0  0  0  0  0  0
   70.7743   46.8997   57.6953 O   0  0  0  0  0  0  0  0  0  0  0  0
   69.7454   46.4481   57.1322 C   0  0  0  0  0  0  0  0  0  0  0  0
   69.6024   45.0372   57.0542 N   0  0  0  0  0  0  0  0  0  0  0  0
   68.7164   47.3796   56.5674 C   0  0  0  0  0  0  0  0  0  0  0  0
   68.6924   47.2897   55.0885 C   0  0  0  0  0  0  0  0  0  0  0  0
   69.3474   48.1852   54.2620 C   0  0  0  0  0  0  0  0  0  0  0  0
   69.3086   48.0788   52.8867 C   0  0  0  0  0  0  0  0  0  0  0  0
   68.6060   47.0617   52.2890 C   0  0  0  0  0  0  0  0  0  0  0  0
   68.5745   46.9642   50.9005 O   0  0  0  0  0  0  0  0  0  0  0  0
   67.9482   46.1624   53.0847 C   0  0  0  0  0  0  0  0  0  0  0  0
   67.2495   45.1509   52.4849 F   0  0  0  0  0  0  0  0  0  0  0  0
   67.9910   46.2745   54.4761 C   0  0  0  0  0  0  0  0  0  0  0  0
 14 15  2  0
 15 17  1  0
 15 16  1  0
 17 18  1  0
 18 19  2  0
 18 25  1  0
 19 20  1  0
 20 21  2  0
 21 22  1  0
 21 23  1  0
 23 24  1  0
 23 25  2  0
 16  1  1  0
  1  2  2  0
  2  3  1  0
  2 13  1  0
  3  4  2  0
  3  5  1  0
  5  6  1  0
  6  7  1  0
  6 13  2  0
  7  8  1  0
  7  9  2  0
  9 10  1  0
 10 11  2  0
 11 12  1  0
 11 13  1  0
M  END
>  <minimizedAffinity>  (149) 
-8.53727

$$$$
data/reference_output_2/data/smiles/100227.pdb
     RDKit          3D

 26 28  0  0  0  0  0  0  0  0999 V2000
   69.8643   45.4620   59.1076 O   0  0  0  0  0  0  0  0  0  0  0  0
   70.2728   44.9980   58.0011 C   0  0  0  0  0  0  0  0  0  0  0  0
   69.6519   45.5074   56.8401 N   0  0  0  0  0  0  0  0  0  0  0  0
   71.3285   43.9965   58.0274 C   0  0  0  0  0  0  0  0  0  0  0  0
   72.6585   44.3189   57.8867 C   0  0  0  0  0  0  0  0  0  0  0  0
   73.6456   43.3290   57.9183 C   0  0  0  0  0  0  0  0  0  0  0  0
   73.3135   42.0098   58.0904 C   0  0  0  0  0  0  0  0  0  0  0  0
   71.9744   41.6552   58.2363 C   0  0  0  0  0  0  0  0  0  0  0  0
   71.0423   42.6519   58.1999 C   0  0  0  0  0  0  0  0  0  0  0  0
   71.6369   40.2482   58.4189 C   0  0  0  0  0  0  0  0  0  0  0  0
   70.3649   39.8295   58.3456 N   0  0  0  0  0  0  0  0  0  0  0  0
   70.0271   38.5276   58.5110 C   0  0  0  0  0  0  0  0  0  0  0  0
   71.0194   37.5862   58.7660 C   0  0  0  0  0  0  0  0  0  0  0  0
   72.3227   38.0289   58.8377 C   0  0  0  0  0  0  0  0  0  0  0  0
   72.5893   39.3446   58.6625 N   0  0  0  0  0  0  0  0  0  0  0  0
   68.6425   46.4650   56.8469 N   0  0  0  0  0  0  0  0  0  0  0  0
   68.9987   47.8893   55.9722 S   0  0  0  0  0  0  0  0  0  0  0  0
   70.3753   48.3432   56.4359 O   0  0  0  0  0  0  0  0  0  0  0  0
   68.0709   49.0198   56.3293 O   0  0  0  0  0  0  0  0  0  0  0  0
   69.0718   47.6620   54.2385 C   0  0  0  0  0  0  0  0  0  0  0  0
   69.8473   48.5327   53.4549 C   0  0  0  0  0  0  0  0  0  0  0  0
   69.8977   48.3111   52.1047 C   0  0  0  0  0  0  0  0  0  0  0  0
   69.1997   47.2561   51.5379 C   0  0  0  0  0  0  0  0  0  0  0  0
   68.4474   46.4116   52.2999 C   0  0  0  0  0  0  0  0  0  0  0  0
   68.3760   46.6128   53.6814 C   0  0  0  0  0  0  0  0  0  0  0  0
   67.6072   45.7793   54.4377 F   0  0  0  0  0  0  0  0  0  0  0  0
  1  2  2  0
  2  3  1  0
  2  4  1  0
  3 16  1  0
 16 17  1  0
 17 18  2  0
 17 19  2  0
 17 20  1  0
 20 21  2  0
 20 25  1  0
 21 22  1  0
 22 23  2  0
 23 24  1  0
 24 25  2  0
 25 26  1  0
  4  5  2  0
  4  9  1  0
  5  6  1  0
  6  7  2  0
  7  8  1  0
  8 10  1  0
  8  9  2  0
 10 11  2  0
 10 15  1  0
 11 12  1  0
 12 13  2  0
 13 14  1  0
 14 15  2  0
M  END
>  <minimizedAffinity>  (150) 
-8.61707

$$$$
data/reference_output_2/data/smiles/100290.pdb
     RDKit          3D

 26 28  0  0  0  0  0  0  0  0999 V2000
   69.7029   41.6940   57.6821 C   0  0  0  0  0  0  0  0  0  0  0  0
   69.7559   43.1564   57.4371 C   0  0  0  0  0  0  0  0  0  0  0  0
   68.8552   43.7011   56.5633 C   0  0  0  0  0  0  0  0  0  0  0  0
   67.9180   43.0044   55.9035 F   0  0  0  0  0  0  0  0  0  0  0  0
   68.9191   45.0898   56.3422 C   0  0  0  0  0  0  0  0  0  0  0  0
   69.8532   45.7691   57.0038 N   0  0  0  0  0  0  0  0  0  0  0  0
   70.7485   45.2542   57.8667 C   0  0  0  0  0  0  0  0  0  0  0  0
   70.6943   43.8896   58.0908 C   0  0  0  0  0  0  0  0  0  0  0  0
   71.5876   43.3599   58.9566 F   0  0  0  0  0  0  0  0  0  0  0  0
   71.6865   46.0875   58.4996 N   0  0  0  0  0  0  0  0  0  0  0  0
   73.1022   46.0122   58.3665 C   0  0  0  0  0  0  0  0  0  0  0  0
   73.6022   46.4239   59.7196 C   0  0  0  0  0  0  0  0  0  0  0  0
   72.4155   46.9508   60.4865 C   0  0  0  0  0  0  0  0  0  0  0  0
   71.3783   47.1570   59.3842 C   0  0  1  0  0  0  0  0  0  0  0  0
   71.6523   48.5325   58.8118 C   0  0  0  0  0  0  0  0  0  0  0  0
   70.9963   48.7362   57.6117 O   0  0  0  0  0  0  0  0  0  0  0  0
   68.0607   45.6954   55.4913 O   0  0  0  0  0  0  0  0  0  0  0  0
   68.2895   46.1773   54.2466 C   0  0  0  0  0  0  0  0  0  0  0  0
   67.6285   45.5244   53.1877 C   0  0  0  0  0  0  0  0  0  0  0  0
   67.7899   45.9299   51.9030 C   0  0  0  0  0  0  0  0  0  0  0  0
   68.5915   46.9822   51.5495 C   0  0  0  0  0  0  0  0  0  0  0  0
   69.2510   47.6394   52.5621 C   0  0  0  0  0  0  0  0  0  0  0  0
   69.0878   47.2261   53.8889 C   0  0  0  0  0  0  0  0  0  0  0  0
   70.1183   48.7732   52.2118 C   0  0  0  0  0  0  0  0  0  0  0  0
   69.8840   49.4077   51.1169 N   0  0  0  0  0  0  0  0  0  0  0  0
   71.1873   49.1769   53.0361 N   0  0  0  0  0  0  0  0  0  0  0  0
  1  2  1  0
  2  3  2  0
  2  8  1  0
  3  4  1  0
  3  5  1  0
  5 17  1  0
  5  6  2  0
 17 18  1  0
 18 19  2  0
 18 23  1  0
 19 20  1  0
 20 21  2  0
 21 22  1  0
 22 24  1  0
 22 23  2  0
 24 25  2  0
 24 26  1  0
  6  7  1  0
  7 10  1  0
  7  8  2  0
 10 11  1  0
 10 14  1  0
 11 12  1  0
 12 13  1  0
 13 14  1  0
 14 15  1  6
 15 16  1  0
  8  9  1  0
M  CHG  1  25   1
M  END
>  <minimizedAffinity>  (151) 
-8.80039

$$$$
data/reference_output_2/data/smiles/100456.pdb
     RDKit          3D

 22 23  0  0  0  0  0  0  0  0999 V2000
   69.2359   49.9179   56.7293 C   0  0  0  0  0  0  0  0  0  0  0  0
   68.9511   51.1801   57.2029 C   0  0  0  0  0  0  0  0  0  0  0  0
   68.7231   52.1968   56.2897 C   0  0  0  0  0  0  0  0  0  0  0  0
   68.7712   51.9940   54.9305 C   0  0  0  0  0  0  0  0  0  0  0  0
   69.0547   50.7375   54.4455 C   0  0  0  0  0  0  0  0  0  0  0  0
   69.2792   49.7344   55.3619 C   0  0  0  0  0  0  0  0  0  0  0  0
   70.5287   48.0222   57.5725 C   0  0  0  0  0  0  0  0  0  0  0  0
   69.4857   48.8023   57.6258 C   0  0  0  0  0  0  0  0  0  0  0  0
   71.6866   46.9304   59.3373 O   0  0  0  0  0  0  0  0  0  0  0  0
   70.7174   46.9010   58.5229 C   0  0  0  0  0  0  0  0  0  0  0  0
   69.8010   45.8173   58.4966 N   0  0  0  0  0  0  0  0  0  0  0  0
   69.9395   44.7804   59.3450 O   0  0  0  0  0  0  0  0  0  0  0  0
   69.1175   50.4816   53.0362 N   0  0  0  0  0  0  0  0  0  0  0  0
   69.9591   49.0975   52.4650 S   0  0  0  0  0  0  0  0  0  0  0  0
   71.3396   49.0478   53.0895 O   0  0  0  0  0  0  0  0  0  0  0  0
   70.1873   49.1837   50.9876 O   0  0  0  0  0  0  0  0  0  0  0  0
   69.0659   47.6423   52.8544 C   0  0  0  0  0  0  0  0  0  0  0  0
   68.9661   47.1708   54.1471 C   0  0  0  0  0  0  0  0  0  0  0  0
   68.2392   46.0085   54.3760 C   0  0  0  0  0  0  0  0  0  0  0  0
   67.6329   45.3379   53.3491 C   0  0  0  0  0  0  0  0  0  0  0  0
   67.7368   45.8149   52.0637 C   0  0  0  0  0  0  0  0  0  0  0  0
   68.4562   46.9699   51.8170 C   0  0  0  0  0  0  0  0  0  0  0  0
  9 10  2  0
 10  7  1  0
 10 11  1  0
  7  8  2  0
  8  1  1  0
  1  2  2  0
  1  6  1  0
  2  3  1  0
  3  4  2  0
  4  5  1  0
  5 13  1  0
  5  6  2  0
 13 14  1  0
 14 15  2  0
 14 16  2  0
 14 17  1  0
 17 18  2  0
 17 22  1  0
 18 19  1  0
 19 20  2  0
 20 21  1  0
 21 22  2  0
 11 12  1  0
M  END
>  <minimizedAffinity>  (152) 
-8.82459

$$$$
data/reference_output_2/data/smiles/100556.pdb
     RDKit          3D

 27 30  0  0  0  0  0  0  0  0999 V2000
   68.8168   47.4798   56.5178 C   0  0  0  0  0  0  0  0  0  0  0  0
   67.6051   47.4979   57.0188 O   0  0  0  0  0  0  0  0  0  0  0  0
   68.9362   48.0941   55.2371 C   0  0  0  0  0  0  0  0  0  0  0  0
   69.3510   49.3835   54.9959 C   0  0  0  0  0  0  0  0  0  0  0  0
   69.5429   49.8657   53.7003 C   0  0  0  0  0  0  0  0  0  0  0  0
   69.3104   49.0324   52.6471 C   0  0  0  0  0  0  0  0  0  0  0  0
   68.8909   47.7334   52.8150 C   0  0  0  0  0  0  0  0  0  0  0  0
   68.7042   47.2676   54.0967 C   0  0  0  0  0  0  0  0  0  0  0  0
   68.2247   45.8707   53.9945 C   0  0  0  0  0  0  0  0  0  0  0  0
   67.7438   45.7354   52.5739 C   0  0  0  0  0  0  0  0  0  0  0  0
   68.6118   46.6775   51.8085 C   0  0  0  0  0  0  0  0  0  0  0  0
   69.9936   51.2836   53.6985 C   0  0  0  0  0  0  0  0  0  0  0  0
   69.5467   51.7954   55.0292 C   0  0  0  0  0  0  0  0  0  0  0  0
   69.6204   50.5257   55.9121 C   0  0  0  0  0  0  0  0  0  0  0  0
   69.9049   45.3748   57.3510 N   0  0  0  0  0  0  0  0  0  0  0  0
   69.7798   46.8313   57.3773 C   0  0  0  0  0  0  0  0  0  0  0  0
   70.5544   47.3675   58.1760 O   0  0  0  0  0  0  0  0  0  0  0  0
   71.0456   44.5809   58.3667 S   0  0  0  0  0  0  0  0  0  0  0  0
   70.8993   45.1039   59.7825 O   0  0  0  0  0  0  0  0  0  0  0  0
   72.4692   44.9064   57.9525 O   0  0  0  0  0  0  0  0  0  0  0  0
   70.1774   38.6080   58.4508 C   0  0  0  0  0  0  0  0  0  0  0  0
   70.3539   40.0756   58.4284 C   0  0  0  0  0  0  0  0  0  0  0  0
   69.2948   40.9396   58.3838 C   0  0  0  0  0  0  0  0  0  0  0  0
   69.5056   42.3072   58.3649 C   0  0  0  0  0  0  0  0  0  0  0  0
   70.7819   42.8578   58.3901 C   0  0  0  0  0  0  0  0  0  0  0  0
   71.8290   41.9541   58.4367 C   0  0  0  0  0  0  0  0  0  0  0  0
   71.6280   40.5888   58.4558 C   0  0  0  0  0  0  0  0  0  0  0  0
 21 22  1  0
 22 23  2  0
 22 27  1  0
 23 24  1  0
 24 25  2  0
 25 18  1  0
 25 26  1  0
 18 19  2  0
 18 20  2  0
 18 15  1  0
 15 16  1  0
 16 17  2  0
 16  1  1  0
  1  2  2  0
  1  3  1  0
  3  4  2  0
  3  8  1  0
  4  5  1  0
  4 14  1  0
  5  6  2  0
  5 12  1  0
  6  7  1  0
  7  8  2  0
  7 11  1  0
  8  9  1  0
  9 10  1  0
 10 11  1  0
 12 13  1  0
 13 14  1  0
 26 27  2  0
M  END
>  <minimizedAffinity>  (153) 
-8.84665

$$$$
data/reference_output_2/data/smiles/100620.pdb
     RDKit          3D

 29 31  0  0  0  0  0  0  0  0999 V2000
   71.4709   46.8175   59.1126 C   0  0  0  0  0  0  0  0  0  0  0  0
   71.1323   47.5357   60.0632 O   0  0  0  0  0  0  0  0  0  0  0  0
   72.2071   45.6414   59.3726 N   0  0  0  0  0  0  0  0  0  0  0  0
   72.5548   45.2988   60.7254 C   0  0  0  0  0  0  0  0  0  0  0  0
   71.9833   43.9204   61.0214 C   0  0  0  0  0  0  0  0  0  0  0  0
   71.2793   43.3934   59.8596 N   0  0  0  0  0  0  0  0  0  0  0  0
   69.9379   42.9543   59.9105 C   0  0  0  0  0  0  0  0  0  0  0  0
   69.3142   43.0154   60.9880 O   0  0  0  0  0  0  0  0  0  0  0  0
   72.0827   43.3544   58.6272 C   0  0  0  0  0  0  0  0  0  0  0  0
   72.6366   44.7403   58.3285 C   0  0  0  0  0  0  0  0  0  0  0  0
   69.2739   42.4378   58.7333 C   0  0  0  0  0  0  0  0  0  0  0  0
   68.9915   41.0847   58.5628 C   0  0  0  0  0  0  0  0  0  0  0  0
   68.3621   40.5922   57.4483 C   0  0  0  0  0  0  0  0  0  0  0  0
   67.9801   41.4505   56.4321 C   0  0  0  0  0  0  0  0  0  0  0  0
   68.2666   42.7947   56.6147 C   0  0  0  0  0  0  0  0  0  0  0  0
   68.8756   43.2396   57.7034 N   0  0  0  0  0  0  0  0  0  0  0  0
   71.0782   47.2393   57.7485 C   0  0  0  0  0  0  0  0  0  0  0  0
   69.3642   45.6721   57.1906 N   0  0  0  0  0  0  0  0  0  0  0  0
   69.6366   47.0575   57.4190 C   0  0  2  0  0  0  0  0  0  0  0  0
   69.0235   48.0296   56.4939 C   0  0  0  0  0  0  0  0  0  0  0  0
   68.8843   47.6582   55.0858 C   0  0  0  0  0  0  0  0  0  0  0  0
   68.1055   46.6095   54.6747 C   0  0  0  0  0  0  0  0  0  0  0  0
   68.0150   46.2924   53.3538 C   0  0  0  0  0  0  0  0  0  0  0  0
   67.2315   45.2384   52.9454 F   0  0  0  0  0  0  0  0  0  0  0  0
   68.6897   46.9972   52.3731 C   0  0  0  0  0  0  0  0  0  0  0  0
   68.5828   46.6625   51.0664 F   0  0  0  0  0  0  0  0  0  0  0  0
   69.4670   48.0503   52.8202 C   0  0  0  0  0  0  0  0  0  0  0  0
   69.5770   48.3904   54.1399 C   0  0  0  0  0  0  0  0  0  0  0  0
   70.3691   49.4537   54.5221 F   0  0  0  0  0  0  0  0  0  0  0  0
 19 18  1  6
 19 17  1  0
 19 20  1  0
 17  1  1  0
  1  2  2  0
  1  3  1  0
  3  4  1  0
  3 10  1  0
  4  5  1  0
  5  6  1  0
  6  7  1  0
  6  9  1  0
  7  8  2  0
  7 11  1  0
 11 12  2  0
 11 16  1  0
 12 13  1  0
 13 14  2  0
 14 15  1  0
 15 16  2  0
  9 10  1  0
 20 21  1  0
 21 22  2  0
 21 28  1  0
 22 23  1  0
 23 24  1  0
 23 25  2  0
 25 26  1  0
 25 27  1  0
 27 28  2  0
 28 29  1  0
M  CHG  1  18   1
M  END
>  <minimizedAffinity>  (154) 
-8.53622

$$$$
data/reference_output_2/data/smiles/100648.pdb
     RDKit          3D

 29 31  0  0  0  0  0  0  0  0999 V2000
   68.6458   47.0982   54.1314 C   0  0  0  0  0  0  0  0  0  0  0  0
   68.0218   46.1323   53.3715 C   0  0  0  0  0  0  0  0  0  0  0  0
   68.0810   46.1468   51.9709 C   0  0  0  0  0  0  0  0  0  0  0  0
   68.7954   47.1726   51.3973 C   0  0  0  0  0  0  0  0  0  0  0  0
   69.4205   48.1388   52.1378 C   0  0  0  0  0  0  0  0  0  0  0  0
   69.3659   48.1315   53.5033 C   0  0  0  0  0  0  0  0  0  0  0  0
   70.0074   49.1242   54.3055 N   0  0  0  0  0  0  0  0  0  0  0  0
   69.5970   50.4766   54.3145 C   0  0  0  0  0  0  0  0  0  0  0  0
   68.6064   50.7394   53.5474 O   0  0  0  0  0  0  0  0  0  0  0  0
   70.1976   51.5407   55.1009 C   0  0  0  0  0  0  0  0  0  0  0  0
   71.5445   51.5625   55.3707 C   0  0  0  0  0  0  0  0  0  0  0  0
   72.1247   52.5888   56.1303 C   0  0  0  0  0  0  0  0  0  0  0  0
   71.3435   53.6092   56.6262 C   0  0  0  0  0  0  0  0  0  0  0  0
   69.9925   53.6087   56.3689 C   0  0  0  0  0  0  0  0  0  0  0  0
   69.4606   52.5847   55.6202 C   0  0  0  0  0  0  0  0  0  0  0  0
   68.6110   47.1346   55.5830 C   0  0  0  0  0  0  0  0  0  0  0  0
   68.1326   48.1580   56.1916 O   0  0  0  0  0  0  0  0  0  0  0  0
   70.0211   46.0685   57.2278 O   0  0  0  0  0  0  0  0  0  0  0  0
   69.1062   46.0356   56.3844 C   0  0  0  0  0  0  0  0  0  0  0  0
   68.5164   44.7098   56.2421 N   0  0  0  0  0  0  0  0  0  0  0  0
   68.9604   43.6203   56.9926 N   0  0  0  0  0  0  0  0  0  0  0  0
   68.4428   42.3155   56.8369 C   0  0  0  0  0  0  0  0  0  0  0  0
   67.5396   42.1722   55.9701 O   0  0  0  0  0  0  0  0  0  0  0  0
   68.8868   41.1621   57.6057 C   0  0  0  0  0  0  0  0  0  0  0  0
   68.0951   40.0352   57.6803 C   0  0  0  0  0  0  0  0  0  0  0  0
   68.4509   38.9129   58.3856 C   0  0  0  0  0  0  0  0  0  0  0  0
   69.6237   38.8961   59.0396 N   0  0  0  0  0  0  0  0  0  0  0  0
   70.4213   39.9642   58.9944 C   0  0  0  0  0  0  0  0  0  0  0  0
   70.0827   41.1171   58.2850 C   0  0  0  0  0  0  0  0  0  0  0  0
 18 19  2  0
 19 20  1  0
 19 16  1  0
 20 21  1  0
 21 22  1  0
 22 23  2  0
 22 24  1  0
 24 25  2  0
 24 29  1  0
 25 26  1  0
 26 27  2  0
 27 28  1  0
 28 29  2  0
 16 17  2  0
 16  1  1  0
  1  2  2  0
  1  6  1  0
  2  3  1  0
  3  4  2  0
  4  5  1  0
  5  6  2  0
  6  7  1  0
  7  8  1  0
  8  9  2  0
  8 10  1  0
 10 11  2  0
 10 15  1  0
 11 12  1  0
 12 13  2  0
 13 14  1  0
 14 15  2  0
M  END
>  <minimizedAffinity>  (155) 
-8.55825

$$$$
data/reference_output_2/data/smiles/100656.pdb
     RDKit          3D

 26 28  0  0  0  0  0  0  0  0999 V2000
   68.7392   47.8478   56.3278 C   0  0  0  0  0  0  0  0  0  0  0  0
   72.1295   51.0805   54.8529 C   0  0  0  0  0  0  0  0  0  0  0  0
   71.1561   49.9854   54.5401 C   0  0  0  0  0  0  0  0  0  0  0  0
   70.9857   49.5350   53.2879 N   0  0  0  0  0  0  0  0  0  0  0  0
   70.0907   48.5335   53.0262 C   0  0  0  0  0  0  0  0  0  0  0  0
   69.9343   48.0806   51.7221 C   0  0  0  0  0  0  0  0  0  0  0  0
   69.0473   47.0715   51.4072 C   0  0  0  0  0  0  0  0  0  0  0  0
   68.3034   46.5065   52.4239 C   0  0  0  0  0  0  0  0  0  0  0  0
   68.4363   46.9352   53.7280 C   0  0  0  0  0  0  0  0  0  0  0  0
   69.3290   47.9440   54.0069 C   0  0  0  0  0  0  0  0  0  0  0  0
   69.5101   48.4099   55.2695 N   0  0  0  0  0  0  0  0  0  0  0  0
   70.3941   49.3957   55.5233 C   0  0  0  0  0  0  0  0  0  0  0  0
   70.5701   49.8386   56.7060 O   0  0  0  0  0  0  0  0  0  0  0  0
   69.3019   46.5943   56.8851 C   0  0  0  0  0  0  0  0  0  0  0  0
   70.2479   46.5482   57.6988 O   0  0  0  0  0  0  0  0  0  0  0  0
   68.7309   45.3609   56.4707 N   0  0  0  0  0  0  0  0  0  0  0  0
   69.2562   44.1501   56.9946 N   0  0  0  0  0  0  0  0  0  0  0  0
   68.5251   42.9384   56.9295 C   0  0  0  0  0  0  0  0  0  0  0  0
   67.4009   42.9763   56.3944 O   0  0  0  0  0  0  0  0  0  0  0  0
   69.0211   41.6648   57.4534 C   0  0  0  0  0  0  0  0  0  0  0  0
   68.2195   40.5411   57.4347 C   0  0  0  0  0  0  0  0  0  0  0  0
   68.6385   39.3172   57.9154 C   0  0  0  0  0  0  0  0  0  0  0  0
   69.9014   39.1672   58.4460 C   0  0  0  0  0  0  0  0  0  0  0  0
   70.4213   37.6044   59.0539 Cl  0  0  0  0  0  0  0  0  0  0  0  0
   70.7223   40.2736   58.4766 C   0  0  0  0  0  0  0  0  0  0  0  0
   70.2829   41.5083   57.9849 C   0  0  0  0  0  0  0  0  0  0  0  0
  2  3  1  0
  3  4  2  0
  3 12  1  0
  4  5  1  0
  5  6  2  0
  5 10  1  0
  6  7  1  0
  7  8  2  0
  8  9  1  0
  9 10  2  0
 10 11  1  0
 11  1  1  0
 11 12  1  0
  1 14  1  0
 14 15  2  0
 14 16  1  0
 16 17  1  0
 17 18  1  0
 18 19  2  0
 18 20  1  0
 20 21  2  0
 20 26  1  0
 21 22  1  0
 22 23  2  0
 23 24  1  0
 23 25  1  0
 25 26  2  0
 12 13  2  0
M  END
>  <minimizedAffinity>  (156) 
-8.63252

$$$$
data/reference_output_2/data/smiles/100754.pdb
     RDKit          3D

 24 26  0  0  0  0  0  0  0  0999 V2000
   69.4607   47.8385   56.1394 C   0  0  0  0  0  0  0  0  0  0  0  0
   68.5255   48.8594   56.6546 C   0  0  0  0  0  0  0  0  0  0  0  0
   68.6947   50.2051   56.2987 C   0  0  0  0  0  0  0  0  0  0  0  0
   67.8599   51.1959   56.7453 C   0  0  0  0  0  0  0  0  0  0  0  0
   66.7998   50.8804   57.5819 C   0  0  0  0  0  0  0  0  0  0  0  0
   66.6193   49.5507   57.9430 C   0  0  0  0  0  0  0  0  0  0  0  0
   67.4756   48.5724   57.4787 C   0  0  0  0  0  0  0  0  0  0  0  0
   69.0468   47.4539   54.7794 C   0  0  0  0  0  0  0  0  0  0  0  0
   69.5920   48.0625   53.6590 C   0  0  0  0  0  0  0  0  0  0  0  0
   69.2294   47.7092   52.3788 C   0  0  0  0  0  0  0  0  0  0  0  0
   68.2973   46.7216   52.1655 C   0  0  0  0  0  0  0  0  0  0  0  0
   67.7446   46.1052   53.2771 C   0  0  0  0  0  0  0  0  0  0  0  0
   68.1052   46.4566   54.5723 C   0  0  0  0  0  0  0  0  0  0  0  0
   69.8138   46.7471   57.0670 C   0  0  0  0  0  0  0  0  0  0  0  0
   69.7445   44.2080   57.2763 C   0  0  0  0  0  0  0  0  0  0  0  0
   70.9097   44.1677   57.7580 O   0  0  0  0  0  0  0  0  0  0  0  0
   69.2132   45.4737   56.9470 N   0  0  0  0  0  0  0  0  0  0  0  0
   68.3835   39.4272   57.8454 C   0  0  0  0  0  0  0  0  0  0  0  0
   68.4204   40.8089   57.3685 N   0  0  0  0  0  0  0  0  0  0  0  0
   69.2718   41.7699   57.7608 C   0  0  0  0  0  0  0  0  0  0  0  0
   69.0010   42.9700   57.0809 C   0  0  0  0  0  0  0  0  0  0  0  0
   67.9452   42.6633   56.2691 C   0  0  0  0  0  0  0  0  0  0  0  0
   67.3850   43.4612   55.4834 O   0  0  0  0  0  0  0  0  0  0  0  0
   67.6231   41.3495   56.4713 N   0  0  0  0  0  0  0  0  0  0  0  0
 18 19  1  0
 19 20  1  0
 19 24  1  0
 20 21  2  0
 21 15  1  0
 21 22  1  0
 15 16  2  0
 15 17  1  0
 17 14  1  0
 14  1  1  0
  1  2  1  0
  1  8  1  0
  2  3  2  0
  2  7  1  0
  3  4  1  0
  4  5  2  0
  5  6  1  0
  6  7  2  0
  8  9  2  0
  8 13  1  0
  9 10  1  0
 10 11  2  0
 11 12  1  0
 12 13  2  0
 22 23  2  0
 22 24  1  0
M  END
>  <minimizedAffinity>  (157) 
-8.74192

$$$$
data/reference_output_2/data/smiles/100770.pdb
     RDKit          3D

 27 30  0  0  0  0  0  0  0  0999 V2000
   67.9431   45.1086   54.6423 C   0  0  0  0  0  0  0  0  0  0  0  0
   68.1670   45.3971   53.3111 C   0  0  0  0  0  0  0  0  0  0  0  0
   68.6177   46.6238   52.8688 C   0  0  0  0  0  0  0  0  0  0  0  0
   68.9154   47.1798   51.6842 N   0  0  0  0  0  0  0  0  0  0  0  0
   69.3193   48.4293   51.8062 N   0  0  0  0  0  0  0  0  0  0  0  0
   69.3016   48.7565   53.1323 C   0  0  0  0  0  0  0  0  0  0  0  0
   68.8639   47.6315   53.8001 C   0  0  0  0  0  0  0  0  0  0  0  0
   68.6291   47.3092   55.1267 C   0  0  0  0  0  0  0  0  0  0  0  0
   68.1890   46.0981   55.5203 N   0  0  0  0  0  0  0  0  0  0  0  0
   69.6567   49.9957   53.7201 N   0  0  0  0  0  0  0  0  0  0  0  0
   68.7554   51.0337   54.1692 C   0  0  0  0  0  0  0  0  0  0  0  0
   69.5832   52.2457   54.5010 C   0  0  0  0  0  0  0  0  0  0  0  0
   70.9720   51.7247   54.7006 C   0  0  0  0  0  0  0  0  0  0  0  0
   70.9682   50.4283   53.9681 C   0  0  0  0  0  0  0  0  0  0  0  0
   72.0106   49.8213   53.6285 O   0  0  0  0  0  0  0  0  0  0  0  0
   67.7443   41.9121   56.6588 N   0  0  0  0  0  0  0  0  0  0  0  0
   68.1236   43.1685   56.1555 C   0  0  0  0  0  0  0  0  0  0  0  0
   69.1052   43.7584   56.6905 O   0  0  0  0  0  0  0  0  0  0  0  0
   67.4772   43.8317   55.0777 N   0  0  0  0  0  0  0  0  0  0  0  0
   68.1913   39.7868   57.6454 C   0  0  0  0  0  0  0  0  0  0  0  0
   68.4444   41.2737   57.7709 C   0  0  2  0  0  0  0  0  0  0  0  0
   67.9061   41.7067   59.0813 C   0  0  0  0  0  0  0  0  0  0  0  0
   66.5829   41.4254   59.3538 C   0  0  0  0  0  0  0  0  0  0  0  0
   65.9811   41.7840   60.5439 C   0  0  0  0  0  0  0  0  0  0  0  0
   66.7513   42.4466   61.4810 C   0  0  0  0  0  0  0  0  0  0  0  0
   68.0789   42.7334   61.2183 C   0  0  0  0  0  0  0  0  0  0  0  0
   68.6506   42.3645   60.0243 C   0  0  0  0  0  0  0  0  0  0  0  0
 21 20  1  6
 21 16  1  0
 21 22  1  0
 16 17  1  0
 17 18  2  0
 17 19  1  0
 19  1  1  0
  1  2  2  0
  1  9  1  0
  2  3  1  0
  3  4  1  0
  3  7  2  0
  4  5  1  0
  5  6  2  0
  6 10  1  0
  6  7  1  0
 10 11  1  0
 10 14  1  0
 11 12  1  0
 12 13  1  0
 13 14  1  0
 14 15  2  0
  7  8  1  0
  8  9  2  0
 22 23  2  0
 22 27  1  0
 23 24  1  0
 24 25  2  0
 25 26  1  0
 26 27  2  0
M  END
>  <minimizedAffinity>  (158) 
-8.64695

$$$$
data/reference_output_2/data/smiles/100823.pdb
     RDKit          3D

 28 30  0  0  0  0  0  0  0  0999 V2000
   70.0677   48.3302   57.2387 C   0  0  0  0  0  0  0  0  0  0  0  0
   70.5818   49.5251   57.3760 O   0  0  0  0  0  0  0  0  0  0  0  0
   70.8055   47.3330   57.8713 N   0  0  0  0  0  0  0  0  0  0  0  0
   72.0298   47.6800   58.6450 C   0  0  0  0  0  0  0  0  0  0  0  0
   71.8880   47.0184   59.9930 C   0  0  0  0  0  0  0  0  0  0  0  0
   72.0690   47.6721   61.0237 O   0  0  0  0  0  0  0  0  0  0  0  0
   71.5472   45.6430   60.0290 N   0  0  0  0  0  0  0  0  0  0  0  0
   70.8113   45.1161   58.9239 C   0  0  0  0  0  0  0  0  0  0  0  0
   70.4620   43.7700   58.9010 C   0  0  0  0  0  0  0  0  0  0  0  0
   69.7628   43.2290   57.8499 C   0  0  0  0  0  0  0  0  0  0  0  0
   69.4267   44.0815   56.8232 C   0  0  0  0  0  0  0  0  0  0  0  0
   69.7690   45.4360   56.8291 C   0  0  0  0  0  0  0  0  0  0  0  0
   70.4677   45.9801   57.8803 C   0  0  0  0  0  0  0  0  0  0  0  0
   69.3896   41.7913   57.8266 C   0  0  0  0  0  0  0  0  0  0  0  0
   68.6374   41.5484   56.6943 F   0  0  0  0  0  0  0  0  0  0  0  0
   70.4606   40.9553   57.9255 F   0  0  0  0  0  0  0  0  0  0  0  0
   68.5772   41.5558   58.9341 F   0  0  0  0  0  0  0  0  0  0  0  0
   68.8421   48.3141   56.4641 C   0  0  0  0  0  0  0  0  0  0  0  0
   69.1500   48.6167   55.0811 O   0  0  0  0  0  0  0  0  0  0  0  0
   69.3049   47.9104   52.8279 C   0  0  0  0  0  0  0  0  0  0  0  0
   69.0109   47.0694   51.7693 C   0  0  0  0  0  0  0  0  0  0  0  0
   68.1645   45.9985   52.0190 C   0  0  0  0  0  0  0  0  0  0  0  0
   67.6390   45.7783   53.2603 C   0  0  0  0  0  0  0  0  0  0  0  0
   67.9622   46.6452   54.2872 C   0  0  0  0  0  0  0  0  0  0  0  0
   68.7906   47.7218   54.1085 C   0  0  0  0  0  0  0  0  0  0  0  0
   69.8043   50.1814   51.8471 N   0  0  0  0  0  0  0  0  0  0  0  0
   70.1928   49.0462   52.5919 C   0  0  0  0  0  0  0  0  0  0  0  0
   71.3656   49.0547   53.0579 O   0  0  0  0  0  0  0  0  0  0  0  0
 26 27  1  0
 27 28  2  0
 27 20  1  0
 20 21  2  0
 20 25  1  0
 21 22  1  0
 22 23  2  0
 23 24  1  0
 24 25  2  0
 25 19  1  0
 19 18  1  0
 18  1  1  0
  1  2  2  0
  1  3  1  0
  3  4  1  0
  3 13  1  0
  4  5  1  0
  5  6  2  0
  5  7  1  0
  7  8  1  0
  8  9  2  0
  8 13  1  0
  9 10  1  0
 10 14  1  0
 10 11  2  0
 14 15  1  0
 14 16  1  0
 14 17  1  0
 11 12  1  0
 12 13  2  0
M  END
>  <minimizedAffinity>  (159) 
-8.69199

$$$$
data/reference_output_2/data/smiles/100852.pdb
     RDKit          3D

 26 28  0  0  0  0  0  0  0  0999 V2000
   71.0361   39.7191   58.4601 C   0  0  0  0  0  0  0  0  0  0  0  0
   69.7470   40.1950   58.3834 C   0  0  0  0  0  0  0  0  0  0  0  0
   69.4757   41.5342   58.2276 C   0  0  0  0  0  0  0  0  0  0  0  0
   70.5011   42.4853   58.1372 C   0  0  0  0  0  0  0  0  0  0  0  0
   71.7836   41.9996   58.2142 C   0  0  0  0  0  0  0  0  0  0  0  0
   72.0540   40.6421   58.3731 C   0  0  0  0  0  0  0  0  0  0  0  0
   71.6598   35.5030   58.9547 C   0  0  0  0  0  0  0  0  0  0  0  0
   72.3889   36.2375   58.0426 C   0  0  0  0  0  0  0  0  0  0  0  0
   72.1848   37.5898   57.8891 C   0  0  0  0  0  0  0  0  0  0  0  0
   71.2489   38.2869   58.6271 C   0  0  0  0  0  0  0  0  0  0  0  0
   70.5209   37.5496   59.5373 C   0  0  0  0  0  0  0  0  0  0  0  0
   70.7223   36.1966   59.6948 C   0  0  0  0  0  0  0  0  0  0  0  0
   72.0330   32.9385   59.2459 N   0  0  0  0  0  0  0  0  0  0  0  0
   71.8641   34.0891   59.1249 C   0  0  0  0  0  0  0  0  0  0  0  0
   70.1041   44.1776   57.9113 S   0  0  0  0  0  0  0  0  0  0  0  0
   71.3575   44.9369   57.5508 O   0  0  0  0  0  0  0  0  0  0  0  0
   69.7085   44.6899   59.2813 O   0  0  0  0  0  0  0  0  0  0  0  0
   68.9054   44.4673   56.7447 N   0  0  0  0  0  0  0  0  0  0  0  0
   68.8242   45.5665   55.8568 C   0  0  0  0  0  0  0  0  0  0  0  0
   69.1840   46.8536   56.1821 C   0  0  0  0  0  0  0  0  0  0  0  0
   69.1098   47.9236   55.2907 C   0  0  0  0  0  0  0  0  0  0  0  0
   68.6570   47.7008   54.0189 C   0  0  0  0  0  0  0  0  0  0  0  0
   68.2984   46.4104   53.6968 C   0  0  0  0  0  0  0  0  0  0  0  0
   68.3819   45.4030   54.5771 N   0  0  0  0  0  0  0  0  0  0  0  0
   67.8024   46.1330   52.3196 C   0  0  0  0  0  0  0  0  0  0  0  0
   67.0732   44.9475   52.2796 O   0  0  0  0  0  0  0  0  0  0  0  0
 13 14  3  0
 14  7  1  0
  7  8  2  0
  7 12  1  0
  8  9  1  0
  9 10  2  0
 10  1  1  0
 10 11  1  0
  1  2  2  0
  1  6  1  0
  2  3  1  0
  3  4  2  0
  4 15  1  0
  4  5  1  0
 15 16  2  0
 15 17  2  0
 15 18  1  0
 18 19  1  0
 19 20  2  0
 19 24  1  0
 20 21  1  0
 21 22  2  0
 22 23  1  0
 23 25  1  0
 23 24  2  0
 25 26  1  0
  5  6  2  0
 11 12  2  0
M  END
>  <minimizedAffinity>  (160) 
-8.62746

$$$$
data/reference_output_2/data/smiles/100910.pdb
     RDKit          3D

 25 26  0  0  0  0  0  0  0  0999 V2000
   69.7017   43.1288   57.0368 O   0  0  0  0  0  0  0  0  0  0  0  0
   68.5428   42.7186   56.6718 C   0  0  0  0  0  0  0  0  0  0  0  0
   67.7800   43.7202   56.0165 N   0  0  0  0  0  0  0  0  0  0  0  0
   68.2545   45.0324   55.7979 N   0  0  0  0  0  0  0  0  0  0  0  0
   68.2091   45.6591   54.5356 C   0  0  0  0  0  0  0  0  0  0  0  0
   67.7119   44.9706   53.5968 O   0  0  0  0  0  0  0  0  0  0  0  0
   68.6767   47.0029   54.2409 C   0  0  0  0  0  0  0  0  0  0  0  0
   69.0313   47.4121   52.9769 C   0  0  0  0  0  0  0  0  0  0  0  0
   69.4749   48.6970   52.7134 C   0  0  0  0  0  0  0  0  0  0  0  0
   69.5820   49.6367   53.7151 C   0  0  0  0  0  0  0  0  0  0  0  0
   70.1408   51.2703   53.4072 Cl  0  0  0  0  0  0  0  0  0  0  0  0
   69.2275   49.2363   54.9925 C   0  0  0  0  0  0  0  0  0  0  0  0
   68.7855   47.9472   55.2448 C   0  0  0  0  0  0  0  0  0  0  0  0
   68.1180   41.3426   56.9358 C   0  0  0  0  0  0  0  0  0  0  0  0
   68.6876   40.7143   58.0310 O   0  0  0  0  0  0  0  0  0  0  0  0
   68.5264   39.3965   58.3560 C   0  0  0  0  0  0  0  0  0  0  0  0
   67.7851   38.6686   57.6542 O   0  0  0  0  0  0  0  0  0  0  0  0
   69.2188   38.7799   59.5463 C   0  0  0  0  0  0  0  0  0  0  0  0
   70.2878   37.8681   59.0952 C   0  0  0  0  0  0  0  0  0  0  0  0
   71.2201   38.2684   58.1509 C   0  0  0  0  0  0  0  0  0  0  0  0
   72.1975   37.3882   57.7586 C   0  0  0  0  0  0  0  0  0  0  0  0
   72.2918   36.1034   58.2713 C   0  0  0  0  0  0  0  0  0  0  0  0
   71.3637   35.7052   59.2104 C   0  0  0  0  0  0  0  0  0  0  0  0
   70.3803   36.5916   59.6054 C   0  0  0  0  0  0  0  0  0  0  0  0
   69.4619   36.1909   60.5381 F   0  0  0  0  0  0  0  0  0  0  0  0
  1  2  2  0
  2 14  1  0
  2  3  1  0
 14 15  1  0
 15 16  1  0
 16 17  2  0
 16 18  1  0
 18 19  1  0
 19 20  2  0
 19 24  1  0
 20 21  1  0
 21 22  2  0
 22 23  1  0
 23 24  2  0
 24 25  1  0
  3  4  1  0
  4  5  1  0
  5  6  2  0
  5  7  1  0
  7  8  2  0
  7 13  1  0
  8  9  1  0
  9 10  2  0
 10 11  1  0
 10 12  1  0
 12 13  2  0
M  END
>  <minimizedAffinity>  (161) 
-8.59826

$$$$
data/reference_output_2/data/smiles/100921.pdb
     RDKit          3D

 25 28  0  0  0  0  0  0  0  0999 V2000
   72.7585   51.3049   56.1206 C   0  0  2  0  0  0  0  0  0  0  0  0
   72.1133   52.2814   57.0261 C   0  0  0  0  0  0  0  0  0  0  0  0
   71.5479   53.3376   56.0109 C   0  0  0  0  0  0  0  0  0  0  0  0
   70.3121   52.5788   55.4707 C   0  0  0  0  0  0  0  0  0  0  0  0
   70.6400   51.3923   54.8236 N   0  0  2  0  0  0  0  0  0  0  0  0
   71.8081   50.6843   55.1316 C   0  0  0  0  0  0  0  0  0  0  0  0
   73.6039   50.2978   56.8218 C   0  0  0  0  0  0  0  0  0  0  0  0
   75.5040   49.4936   54.6766 O   0  0  0  0  0  0  0  0  0  0  0  0
   75.8736   50.0220   55.7494 C   0  0  0  0  0  0  0  0  0  0  0  0
   75.0030   50.3985   56.7866 N   0  0  0  0  0  0  0  0  0  0  0  0
   77.3316   50.2549   55.9069 C   0  0  0  0  0  0  0  0  0  0  0  0
   78.3251   49.3583   55.5876 C   0  0  0  0  0  0  0  0  0  0  0  0
   79.5389   49.9268   55.8714 C   0  0  0  0  0  0  0  0  0  0  0  0
   79.2644   51.1886   56.3699 C   0  0  0  0  0  0  0  0  0  0  0  0
   77.9153   51.3617   56.3808 N   0  0  0  0  0  0  0  0  0  0  0  0
   69.8954   50.9231   53.7330 C   0  0  0  0  0  0  0  0  0  0  0  0
   69.4775   49.5208   53.7118 C   0  0  0  0  0  0  0  0  0  0  0  0
   68.8578   48.9571   54.7955 C   0  0  0  0  0  0  0  0  0  0  0  0
   68.5172   47.6036   54.7122 C   0  0  0  0  0  0  0  0  0  0  0  0
   68.8064   46.8740   53.5602 C   0  0  0  0  0  0  0  0  0  0  0  0
   69.4263   47.4473   52.4812 C   0  0  0  0  0  0  0  0  0  0  0  0
   69.8192   46.9880   51.2693 N   0  0  0  0  0  0  0  0  0  0  0  0
   70.3781   47.9984   50.6226 O   0  0  0  0  0  0  0  0  0  0  0  0
   70.3473   49.0653   51.3831 N   0  0  0  0  0  0  0  0  0  0  0  0
   69.7628   48.7739   52.5556 C   0  0  0  0  0  0  0  0  0  0  0  0
  8  9  2  0
  9 10  1  0
  9 11  1  0
 10  7  1  0
  1  7  1  1
  1  2  1  0
  1  6  1  0
  2  3  1  0
  3  4  1  0
  4  5  1  0
  5 16  1  6
  5  6  1  0
 16 17  1  0
 17 18  2  0
 17 25  1  0
 18 19  1  0
 19 20  2  0
 20 21  1  0
 21 22  2  0
 21 25  1  0
 22 23  1  0
 23 24  1  0
 24 25  2  0
 11 12  2  0
 11 15  1  0
 12 13  1  0
 13 14  2  0
 14 15  1  0
M  CHG  1   5   1
M  END
>  <minimizedAffinity>  (162) 
-8.88508

$$$$
data/reference_output_2/data/smiles/100960.pdb
     RDKit          3D

 28 31  0  0  0  0  0  0  0  0999 V2000
   68.5077   46.1387   54.1701 C   0  0  0  0  0  0  0  0  0  0  0  0
   67.9801   45.7503   52.9561 C   0  0  0  0  0  0  0  0  0  0  0  0
   68.0987   46.5221   51.8189 C   0  0  0  0  0  0  0  0  0  0  0  0
   68.7601   47.7326   51.8480 C   0  0  0  0  0  0  0  0  0  0  0  0
   69.2912   48.1300   53.0579 C   0  0  0  0  0  0  0  0  0  0  0  0
   69.1689   47.3474   54.2013 C   0  0  0  0  0  0  0  0  0  0  0  0
   68.4129   45.7988   56.4871 O   0  0  0  0  0  0  0  0  0  0  0  0
   68.3542   45.2867   55.3397 C   0  0  0  0  0  0  0  0  0  0  0  0
   68.1384   43.8948   55.2769 N   0  0  0  0  0  0  0  0  0  0  0  0
   67.9891   43.0634   56.4053 C   0  0  0  0  0  0  0  0  0  0  0  0
   68.8700   43.1603   57.4118 N   0  0  0  0  0  0  0  0  0  0  0  0
   68.7845   42.3951   58.5197 C   0  0  0  0  0  0  0  0  0  0  0  0
   67.7662   41.4668   58.6588 C   0  0  0  0  0  0  0  0  0  0  0  0
   66.8446   41.3444   57.6412 C   0  0  0  0  0  0  0  0  0  0  0  0
   66.9652   42.1555   56.5053 C   0  0  0  0  0  0  0  0  0  0  0  0
   66.0683   42.0746   55.4526 O   0  0  0  0  0  0  0  0  0  0  0  0
   70.1411   49.6746   53.1128 S   0  0  0  0  0  0  0  0  0  0  0  0
   69.8395   50.4741   51.8696 O   0  0  0  0  0  0  0  0  0  0  0  0
   71.6101   49.3930   53.2319 O   0  0  0  0  0  0  0  0  0  0  0  0
   69.6354   50.5374   54.5017 N   0  0  0  0  0  0  0  0  0  0  0  0
   68.7510   51.7094   54.5699 C   0  0  0  0  0  0  0  0  0  0  0  0
   68.0866   51.5916   55.9263 C   0  0  0  0  0  0  0  0  0  0  0  0
   69.1163   50.8496   56.7368 C   0  0  0  0  0  0  0  0  0  0  0  0
   69.2342   50.7342   58.1137 C   0  0  0  0  0  0  0  0  0  0  0  0
   70.2737   49.9948   58.6322 C   0  0  0  0  0  0  0  0  0  0  0  0
   71.1505   49.4020   57.7497 C   0  0  0  0  0  0  0  0  0  0  0  0
   71.0445   49.5092   56.3843 C   0  0  0  0  0  0  0  0  0  0  0  0
   70.0007   50.2517   55.8664 C   0  0  0  0  0  0  0  0  0  0  0  0
  7  8  2  0
  8  9  1  0
  8  1  1  0
  9 10  1  0
 10 11  2  0
 10 15  1  0
 11 12  1  0
 12 13  2  0
 13 14  1  0
 14 15  2  0
 15 16  1  0
  1  2  2  0
  1  6  1  0
  2  3  1  0
  3  4  2  0
  4  5  1  0
  5 17  1  0
  5  6  2  0
 17 18  2  0
 17 19  2  0
 17 20  1  0
 20 21  1  0
 20 28  1  0
 21 22  1  0
 22 23  1  0
 23 24  1  0
 23 28  2  0
 24 25  2  0
 25 26  1  0
 26 27  2  0
 27 28  1  0
M  END
>  <minimizedAffinity>  (163) 
-8.81074

$$$$
data/reference_output_2/data/smiles/101060.pdb
     RDKit          3D

 27 30  0  0  0  0  0  0  0  0999 V2000
   69.5093   47.3613   56.1831 N   0  0  0  0  0  0  0  0  0  0  0  0
   70.0084   48.3175   55.4366 N   0  0  0  0  0  0  0  0  0  0  0  0
   69.8114   48.3989   54.0825 C   0  0  0  0  0  0  0  0  0  0  0  0
   69.0601   47.4625   53.4054 C   0  0  0  0  0  0  0  0  0  0  0  0
   68.8303   47.4996   52.0463 C   0  0  0  0  0  0  0  0  0  0  0  0
   68.0548   46.5170   51.4096 C   0  0  0  0  0  0  0  0  0  0  0  0
   67.5316   45.5128   52.1923 C   0  0  0  0  0  0  0  0  0  0  0  0
   67.7666   45.4856   53.5468 C   0  0  0  0  0  0  0  0  0  0  0  0
   68.5186   46.4332   54.1871 C   0  0  0  0  0  0  0  0  0  0  0  0
   68.7640   46.4257   55.5323 C   0  0  0  0  0  0  0  0  0  0  0  0
   68.2710   45.4935   56.2207 O   0  0  0  0  0  0  0  0  0  0  0  0
   70.4174   49.5071   53.3626 C   0  0  0  0  0  0  0  0  0  0  0  0
   69.8789   50.3418   52.6517 O   0  0  0  0  0  0  0  0  0  0  0  0
   71.8225   49.6834   53.4712 O   0  0  0  0  0  0  0  0  0  0  0  0
   69.7163   47.2958   57.6018 C   0  0  0  0  0  0  0  0  0  0  0  0
   73.0226   49.4885   58.9888 C   0  0  0  0  0  0  0  0  0  0  0  0
   71.9181   50.3711   58.5826 C   0  0  1  0  0  0  0  0  0  0  0  0
   72.1722   51.0877   57.2516 C   0  0  0  0  0  0  0  0  0  0  0  0
   70.7724   51.4960   56.8814 C   0  0  0  0  0  0  0  0  0  0  0  0
   70.3066   52.5576   56.1510 C   0  0  0  0  0  0  0  0  0  0  0  0
   68.9357   52.7757   56.0128 C   0  0  0  0  0  0  0  0  0  0  0  0
   68.0647   51.8895   56.6364 C   0  0  0  0  0  0  0  0  0  0  0  0
   68.5621   50.8330   57.3614 C   0  0  0  0  0  0  0  0  0  0  0  0
   69.8969   50.5965   57.5081 C   0  0  0  0  0  0  0  0  0  0  0  0
   70.6902   49.6127   58.1557 N   0  0  0  0  0  0  0  0  0  0  0  0
   70.5058   48.2654   58.2950 C   0  0  0  0  0  0  0  0  0  0  0  0
   71.2346   47.7502   59.2852 O   0  0  0  0  0  0  0  0  0  0  0  0
 17 16  1  6
 17 18  1  0
 17 25  1  0
 18 19  1  0
 19 20  2  0
 19 24  1  0
 20 21  1  0
 21 22  2  0
 22 23  1  0
 23 24  2  0
 24 25  1  0
 25 26  1  0
 26 27  2  0
 26 15  1  0
 15  1  1  0
  1  2  1  0
  1 10  1  0
  2  3  2  0
  3 12  1  0
  3  4  1  0
 12 13  2  0
 12 14  1  0
  4  5  2  0
  4  9  1  0
  5  6  1  0
  6  7  2  0
  7  8  1  0
  8  9  2  0
  9 10  1  0
 10 11  2  0
M  END
>  <minimizedAffinity>  (164) 
-8.67011

$$$$
data/reference_output_2/data/smiles/101139.pdb
     RDKit          3D

 23 25  0  0  0  0  0  0  0  0999 V2000
   68.4470   43.7110   56.2415 N   0  0  0  0  0  0  0  0  0  0  0  0
   68.1789   42.4635   56.4598 C   0  0  0  0  0  0  0  0  0  0  0  0
   67.1045   41.6820   55.8494 C   0  0  0  0  0  0  0  0  0  0  0  0
   66.2690   42.1183   55.0067 O   0  0  0  0  0  0  0  0  0  0  0  0
   67.2011   40.3751   56.3883 N   0  0  0  0  0  0  0  0  0  0  0  0
   68.2853   40.2806   57.3154 C   0  0  0  0  0  0  0  0  0  0  0  0
   68.7654   39.2296   58.0807 C   0  0  0  0  0  0  0  0  0  0  0  0
   69.8500   39.4120   58.9107 C   0  0  0  0  0  0  0  0  0  0  0  0
   70.4200   40.6683   58.9391 C   0  0  0  0  0  0  0  0  0  0  0  0
   72.0820   40.9513   60.2097 I   0  0  0  0  0  0  0  0  0  0  0  0
   69.9597   41.7281   58.1859 C   0  0  0  0  0  0  0  0  0  0  0  0
   68.8622   41.5326   57.3508 C   0  0  0  0  0  0  0  0  0  0  0  0
   67.6953   44.4831   55.3509 N   0  0  0  0  0  0  0  0  0  0  0  0
   69.2807   47.9927   53.5680 C   0  0  0  0  0  0  0  0  0  0  0  0
   69.2958   47.7921   54.9330 C   0  0  0  0  0  0  0  0  0  0  0  0
   68.7798   46.6485   55.5090 C   0  0  0  0  0  0  0  0  0  0  0  0
   68.2231   45.6552   54.7348 C   0  0  0  0  0  0  0  0  0  0  0  0
   68.2020   45.8439   53.3713 C   0  0  0  0  0  0  0  0  0  0  0  0
   68.7244   46.9996   52.7887 C   0  0  0  0  0  0  0  0  0  0  0  0
   71.5155   49.7435   53.5099 N   0  0  0  0  0  0  0  0  0  0  0  0
   69.9359   49.4441   52.8406 S   0  0  0  0  0  0  0  0  0  0  0  0
   70.1064   49.2293   51.3676 O   0  0  0  0  0  0  0  0  0  0  0  0
   69.0951   50.6501   53.1462 O   0  0  0  0  0  0  0  0  0  0  0  0
 20 21  1  0
 21 22  2  0
 21 23  2  0
 21 14  1  0
 14 15  2  0
 14 19  1  0
 15 16  1  0
 16 17  2  0
 17 13  1  0
 17 18  1  0
 13  1  1  0
  1  2  2  0
  2  3  1  0
  2 12  1  0
  3  4  2  0
  3  5  1  0
  5  6  1  0
  6  7  1  0
  6 12  2  0
  7  8  2  0
  8  9  1  0
  9 10  1  0
  9 11  2  0
 11 12  1  0
 18 19  2  0
M  END
>  <minimizedAffinity>  (165) 
-8.69852

$$$$
data/reference_output_2/data/smiles/101230.pdb
     RDKit          3D

 22 24  0  0  0  0  0  0  0  0999 V2000
   70.6705   50.0140   54.6589 C   0  0  1  0  0  0  0  0  0  0  0  0
   69.6452   50.2816   55.6615 C   0  0  0  0  0  0  0  0  0  0  0  0
   69.5770   49.6316   56.8586 C   0  0  0  0  0  0  0  0  0  0  0  0
   68.5631   49.9061   57.7857 C   0  0  0  0  0  0  0  0  0  0  0  0
   67.6130   50.8452   57.4991 C   0  0  0  0  0  0  0  0  0  0  0  0
   67.6612   51.5142   56.2982 C   0  0  0  0  0  0  0  0  0  0  0  0
   68.6692   51.2220   55.4071 C   0  0  0  0  0  0  0  0  0  0  0  0
   71.4299   48.9945   52.6428 O   0  0  0  0  0  0  0  0  0  0  0  0
   70.3116   49.2954   53.4473 C   0  0  1  0  0  0  0  0  0  0  0  0
   69.4506   48.1324   53.4429 C   0  0  0  0  0  0  0  0  0  0  0  0
   69.1545   47.6247   52.1568 C   0  0  0  0  0  0  0  0  0  0  0  0
   68.3642   46.5137   52.0219 C   0  0  0  0  0  0  0  0  0  0  0  0
   67.8467   45.8741   53.1344 C   0  0  0  0  0  0  0  0  0  0  0  0
   67.0672   44.7775   52.9803 F   0  0  0  0  0  0  0  0  0  0  0  0
   68.1192   46.3462   54.3924 C   0  0  0  0  0  0  0  0  0  0  0  0
   68.9276   47.4789   54.5193 C   0  0  0  0  0  0  0  0  0  0  0  0
   71.6487   51.1744   54.4739 C   0  0  0  0  0  0  0  0  0  0  0  0
   73.0039   50.6946   54.8007 N   0  0  0  0  0  0  0  0  0  0  0  0
   73.5534   50.5513   56.0205 C   0  0  0  0  0  0  0  0  0  0  0  0
   74.8562   50.0680   55.8752 C   0  0  0  0  0  0  0  0  0  0  0  0
   75.0209   49.9458   54.5428 N   0  0  0  0  0  0  0  0  0  0  0  0
   73.9206   50.3192   53.9297 N   0  0  0  0  0  0  0  0  0  0  0  0
  9  8  1  1
  9 10  1  0
  9  1  1  0
 10 11  2  0
 10 16  1  0
 11 12  1  0
 12 13  2  0
 13 14  1  0
 13 15  1  0
 15 16  2  0
  1 17  1  6
  1  2  1  0
 17 18  1  0
 18 19  1  0
 18 22  1  0
 19 20  2  0
 20 21  1  0
 21 22  2  0
  2  3  2  0
  2  7  1  0
  3  4  1  0
  4  5  2  0
  5  6  1  0
  6  7  2  0
M  END
>  <minimizedAffinity>  (166) 
-8.75587

$$$$
data/reference_output_2/data/smiles/101289.pdb
     RDKit          3D

 27 30  0  0  0  0  0  0  0  0999 V2000
   72.8099   47.1100   60.6324 C   0  0  0  0  0  0  0  0  0  0  0  0
   71.8451   46.8536   59.5355 C   0  0  0  0  0  0  0  0  0  0  0  0
   71.5158   45.5575   59.1941 C   0  0  0  0  0  0  0  0  0  0  0  0
   70.6174   45.2795   58.1734 C   0  0  0  0  0  0  0  0  0  0  0  0
   70.0526   46.3372   57.4967 C   0  0  0  0  0  0  0  0  0  0  0  0
   70.3570   47.6645   57.8079 C   0  0  0  0  0  0  0  0  0  0  0  0
   69.9425   48.8775   57.2989 C   0  0  0  0  0  0  0  0  0  0  0  0
   70.5974   49.8117   58.0222 N   0  0  0  0  0  0  0  0  0  0  0  0
   71.3680   49.2274   58.9223 N   0  0  0  0  0  0  0  0  0  0  0  0
   71.2552   47.8858   58.8304 C   0  0  0  0  0  0  0  0  0  0  0  0
   70.2925   43.8904   57.8394 C   0  0  0  0  0  0  0  0  0  0  0  0
   71.1271   42.8560   57.6735 N   0  0  0  0  0  0  0  0  0  0  0  0
   70.4280   41.7667   57.3778 N   0  0  0  0  0  0  0  0  0  0  0  0
   69.1139   42.0766   57.3459 C   0  0  0  0  0  0  0  0  0  0  0  0
   69.0660   43.3846   57.6329 N   0  0  0  0  0  0  0  0  0  0  0  0
   67.7895   40.9750   57.0003 S   0  0  0  0  0  0  0  0  0  0  0  0
   67.8473   39.6164   58.1383 C   0  0  0  0  0  0  0  0  0  0  0  0
   67.8917   40.4919   55.5620 O   0  0  0  0  0  0  0  0  0  0  0  0
   66.5064   41.7252   57.2135 O   0  0  0  0  0  0  0  0  0  0  0  0
   68.9777   49.0744   56.1885 C   0  0  0  0  0  0  0  0  0  0  0  0
   69.6464   48.9982   54.8383 C   0  0  0  0  0  0  0  0  0  0  0  0
   69.0964   47.9501   53.9684 C   0  0  0  0  0  0  0  0  0  0  0  0
   68.2541   46.9587   54.4238 C   0  0  0  0  0  0  0  0  0  0  0  0
   67.7411   45.9783   53.6070 C   0  0  0  0  0  0  0  0  0  0  0  0
   68.0664   45.9608   52.2677 C   0  0  0  0  0  0  0  0  0  0  0  0
   68.8970   46.9272   51.7854 C   0  0  0  0  0  0  0  0  0  0  0  0
   69.4093   47.9135   52.6242 C   0  0  0  0  0  0  0  0  0  0  0  0
  1  2  1  0
  2  3  2  0
  2 10  1  0
  3  4  1  0
  4 11  1  0
  4  5  2  0
 11 12  2  0
 11 15  1  0
 12 13  1  0
 13 14  2  0
 14 16  1  0
 14 15  1  0
 16 17  1  0
 16 18  2  0
 16 19  2  0
  5  6  1  0
  6  7  1  0
  6 10  2  0
  7 20  1  0
  7  8  2  0
 20 21  1  0
 21 22  1  0
 22 23  2  0
 22 27  1  0
 23 24  1  0
 24 25  2  0
 25 26  1  0
 26 27  2  0
  8  9  1  0
  9 10  1  0
M  END
>  <minimizedAffinity>  (167) 
-8.80958

$$$$
data/reference_output_2/data/smiles/101469.pdb
     RDKit          3D

 25 26  0  0  0  0  0  0  0  0999 V2000
   73.9777   52.5454   54.9747 C   0  0  0  0  0  0  0  0  0  0  0  0
   73.8738   50.1530   54.8864 O   0  0  0  0  0  0  0  0  0  0  0  0
   73.3144   51.2772   54.6246 C   0  0  0  0  0  0  0  0  0  0  0  0
   72.0519   51.1462   53.9916 N   0  0  0  0  0  0  0  0  0  0  0  0
   71.4880   49.8981   53.6967 N   0  0  0  0  0  0  0  0  0  0  0  0
   70.0906   49.6931   53.6636 C   0  0  0  0  0  0  0  0  0  0  0  0
   69.3835   50.7286   53.9240 O   0  0  0  0  0  0  0  0  0  0  0  0
   69.4291   48.4308   53.3664 C   0  0  0  0  0  0  0  0  0  0  0  0
   68.7846   47.7160   54.3406 C   0  0  0  0  0  0  0  0  0  0  0  0
   68.1604   46.5060   54.0144 C   0  0  0  0  0  0  0  0  0  0  0  0
   68.1799   46.0140   52.7273 C   0  0  0  0  0  0  0  0  0  0  0  0
   68.8228   46.7261   51.7544 C   0  0  0  0  0  0  0  0  0  0  0  0
   69.4341   47.9170   52.0860 C   0  0  0  0  0  0  0  0  0  0  0  0
   73.9938   52.8744   56.3195 O   0  0  0  0  0  0  0  0  0  0  0  0
   72.8985   53.1298   57.1138 C   0  0  0  0  0  0  0  0  0  0  0  0
   72.7830   54.2670   57.6200 O   0  0  0  0  0  0  0  0  0  0  0  0
   71.8590   52.1198   57.3888 C   0  0  0  0  0  0  0  0  0  0  0  0
   70.6092   52.3174   57.0128 C   0  0  0  0  0  0  0  0  0  0  0  0
   69.5135   51.3910   57.2338 C   0  0  0  0  0  0  0  0  0  0  0  0
   69.7828   50.0445   57.4544 C   0  0  0  0  0  0  0  0  0  0  0  0
   68.7761   49.1252   57.6687 C   0  0  0  0  0  0  0  0  0  0  0  0
   67.4472   49.5315   57.6698 C   0  0  0  0  0  0  0  0  0  0  0  0
   67.1578   50.8553   57.4542 C   0  0  0  0  0  0  0  0  0  0  0  0
   65.8658   51.2569   57.4536 F   0  0  0  0  0  0  0  0  0  0  0  0
   68.2005   51.7605   57.2399 C   0  0  0  0  0  0  0  0  0  0  0  0
  2  3  2  0
  3  1  1  0
  3  4  1  0
  1 14  1  0
 14 15  1  0
 15 16  2  0
 15 17  1  0
 17 18  2  0
 18 19  1  0
 19 20  2  0
 19 25  1  0
 20 21  1  0
 21 22  2  0
 22 23  1  0
 23 24  1  0
 23 25  2  0
  4  5  1  0
  5  6  1  0
  6  7  2  0
  6  8  1  0
  8  9  2  0
  8 13  1  0
  9 10  1  0
 10 11  2  0
 11 12  1  0
 12 13  2  0
M  END
>  <minimizedAffinity>  (168) 
-8.75661

$$$$
data/reference_output_2/data/smiles/101508.pdb
     RDKit          3D

 27 30  0  0  0  0  0  0  0  0999 V2000
   71.4837   47.3536   58.7666 C   0  0  0  0  0  0  0  0  0  0  0  0
   70.5051   47.9572   58.0020 C   0  0  0  0  0  0  0  0  0  0  0  0
   69.6835   47.2432   57.1733 C   0  0  0  0  0  0  0  0  0  0  0  0
   69.8485   45.8689   57.1073 C   0  0  0  0  0  0  0  0  0  0  0  0
   70.8217   45.2546   57.8659 C   0  0  0  0  0  0  0  0  0  0  0  0
   71.6510   46.0011   58.7067 C   0  0  0  0  0  0  0  0  0  0  0  0
   72.5965   45.3602   59.4365 F   0  0  0  0  0  0  0  0  0  0  0  0
   72.2225   48.0752   60.8856 O   0  0  0  0  0  0  0  0  0  0  0  0
   72.3061   48.1969   59.6255 C   0  0  0  0  0  0  0  0  0  0  0  0
   73.1979   49.1487   59.0795 N   0  0  0  0  0  0  0  0  0  0  0  0
   73.9966   49.9726   59.9394 C   0  0  0  0  0  0  0  0  0  0  0  0
   75.2472   50.5114   59.3688 C   0  0  0  0  0  0  0  0  0  0  0  0
   75.5457   50.2513   58.0124 N   0  0  0  0  0  0  0  0  0  0  0  0
   74.8797   49.1098   57.4411 C   0  0  0  0  0  0  0  0  0  0  0  0
   73.3757   49.3496   57.6536 C   0  0  0  0  0  0  0  0  0  0  0  0
   68.6497   47.9499   56.3932 C   0  0  0  0  0  0  0  0  0  0  0  0
   69.1230   48.1577   55.0015 C   0  0  0  0  0  0  0  0  0  0  0  0
   70.0150   49.1481   54.7311 N   0  0  0  0  0  0  0  0  0  0  0  0
   70.4852   49.3920   53.5252 N   0  0  0  0  0  0  0  0  0  0  0  0
   70.0908   48.6528   52.4887 C   0  0  0  0  0  0  0  0  0  0  0  0
   70.5369   48.8816   51.3411 O   0  0  0  0  0  0  0  0  0  0  0  0
   69.1901   47.6255   52.6584 C   0  0  0  0  0  0  0  0  0  0  0  0
   68.7935   46.8767   51.5897 C   0  0  0  0  0  0  0  0  0  0  0  0
   67.8879   45.8567   51.7935 C   0  0  0  0  0  0  0  0  0  0  0  0
   67.3952   45.6003   53.0641 C   0  0  0  0  0  0  0  0  0  0  0  0
   67.8154   46.3766   54.1366 C   0  0  0  0  0  0  0  0  0  0  0  0
   68.7187   47.3982   53.9381 C   0  0  0  0  0  0  0  0  0  0  0  0
  8  9  2  0
  9  1  1  0
  9 10  1  0
  1  2  2  0
  1  6  1  0
  2  3  1  0
  3 16  1  0
  3  4  2  0
 16 17  1  0
 17 18  2  0
 17 27  1  0
 18 19  1  0
 19 20  1  0
 20 21  2  0
 20 22  1  0
 22 23  1  0
 22 27  2  0
 23 24  2  0
 24 25  1  0
 25 26  2  0
 26 27  1  0
  4  5  1  0
  5  6  2  0
  6  7  1  0
 10 11  1  0
 10 15  1  0
 11 12  1  0
 12 13  1  0
 13 14  1  0
 14 15  1  0
M  CHG  1  13   1
M  END
>  <minimizedAffinity>  (169) 
-8.98865

$$$$
data/reference_output_2/data/smiles/101829.pdb
     RDKit          3D

 22 24  0  0  0  0  0  0  0  0999 V2000
   70.0360   46.0872   58.6764 O   0  0  0  0  0  0  0  0  0  0  0  0
   69.6108   46.2314   57.5050 C   0  0  0  0  0  0  0  0  0  0  0  0
   69.3754   44.9813   56.8035 N   0  0  0  0  0  0  0  0  0  0  0  0
   69.6412   43.7969   57.4911 N   0  0  0  0  0  0  0  0  0  0  0  0
   68.9898   42.7075   57.2727 C   0  0  0  0  0  0  0  0  0  0  0  0
   67.9101   42.5610   56.3038 C   0  0  0  0  0  0  0  0  0  0  0  0
   67.4827   43.4714   55.5634 O   0  0  0  0  0  0  0  0  0  0  0  0
   67.4374   41.1988   56.3546 N   0  0  0  0  0  0  0  0  0  0  0  0
   68.2061   40.5177   57.3345 C   0  0  0  0  0  0  0  0  0  0  0  0
   68.1338   39.2054   57.7480 C   0  0  0  0  0  0  0  0  0  0  0  0
   68.9823   38.7142   58.7337 C   0  0  0  0  0  0  0  0  0  0  0  0
   69.8949   39.5849   59.2784 C   0  0  0  0  0  0  0  0  0  0  0  0
   69.9754   40.9173   58.8649 C   0  0  0  0  0  0  0  0  0  0  0  0
   69.1271   41.3928   57.8862 C   0  0  0  0  0  0  0  0  0  0  0  0
   69.3615   47.5184   56.8709 C   0  0  0  0  0  0  0  0  0  0  0  0
   68.2474   47.5410   55.9170 C   0  0  0  0  0  0  0  0  0  0  0  0
   68.4941   47.3356   54.5089 C   0  0  0  0  0  0  0  0  0  0  0  0
   67.9133   46.3348   53.7931 C   0  0  0  0  0  0  0  0  0  0  0  0
   68.1894   46.1323   52.4321 C   0  0  0  0  0  0  0  0  0  0  0  0
   69.0839   46.9989   51.8331 C   0  0  0  0  0  0  0  0  0  0  0  0
   69.6908   48.0244   52.5284 C   0  0  0  0  0  0  0  0  0  0  0  0
   69.3975   48.1934   53.8656 C   0  0  0  0  0  0  0  0  0  0  0  0
  1  2  2  0
  2 15  1  0
  2  3  1  0
 15 16  1  0
 16 17  1  0
 17 18  2  0
 17 22  1  0
 18 19  1  0
 19 20  2  0
 20 21  1  0
 21 22  2  0
  3  4  1  0
  4  5  2  0
  5  6  1  0
  5 14  1  0
  6  7  2  0
  6  8  1  0
  8  9  1  0
  9 10  1  0
  9 14  2  0
 10 11  2  0
 11 12  1  0
 12 13  2  0
 13 14  1  0
M  END
>  <minimizedAffinity>  (170) 
-8.51723

$$$$
data/reference_output_2/data/smiles/101995.pdb
     RDKit          3D

 27 29  0  0  0  0  0  0  0  0999 V2000
   70.0575   47.5589   57.2631 C   0  0  0  0  0  0  0  0  0  0  0  0
   70.5210   48.5594   58.0995 C   0  0  0  0  0  0  0  0  0  0  0  0
   69.8256   49.7588   58.1548 C   0  0  0  0  0  0  0  0  0  0  0  0
   68.6960   49.9867   57.4103 C   0  0  0  0  0  0  0  0  0  0  0  0
   67.8335   51.5105   57.4956 Cl  0  0  0  0  0  0  0  0  0  0  0  0
   68.2511   48.9573   56.5739 C   0  0  0  0  0  0  0  0  0  0  0  0
   68.9205   47.7436   56.4934 C   0  0  0  0  0  0  0  0  0  0  0  0
   70.6107   45.2638   58.1405 C   0  0  0  0  0  0  0  0  0  0  0  0
   69.8480   45.5156   59.0888 O   0  0  0  0  0  0  0  0  0  0  0  0
   70.7314   46.3230   57.1749 N   0  0  0  0  0  0  0  0  0  0  0  0
   70.8400   42.7521   57.8595 C   0  0  0  0  0  0  0  0  0  0  0  0
   71.8877   41.8760   57.7615 N   0  0  0  0  0  0  0  0  0  0  0  0
   73.0141   42.6052   57.8446 C   0  0  0  0  0  0  0  0  0  0  0  0
   72.6888   43.8895   57.9874 N   0  0  0  0  0  0  0  0  0  0  0  0
   71.3250   44.0189   58.0013 C   0  0  0  0  0  0  0  0  0  0  0  0
   67.2452   42.0808   58.7356 N   0  0  0  0  0  0  0  0  0  0  0  0
   68.5546   42.5635   58.8591 N   0  0  0  0  0  0  0  0  0  0  0  0
   69.4682   42.2867   57.8059 C   0  0  0  0  0  0  0  0  0  0  0  0
   69.0310   41.6317   56.8468 O   0  0  0  0  0  0  0  0  0  0  0  0
   68.5199   46.6836   55.6132 C   0  0  0  0  0  0  0  0  0  0  0  0
   68.1220   45.5691   56.0540 O   0  0  0  0  0  0  0  0  0  0  0  0
   68.5444   46.8144   54.1748 C   0  0  0  0  0  0  0  0  0  0  0  0
   69.3239   47.7417   53.5457 C   0  0  0  0  0  0  0  0  0  0  0  0
   69.3991   47.8518   52.1521 C   0  0  0  0  0  0  0  0  0  0  0  0
   68.6596   46.9962   51.3639 C   0  0  0  0  0  0  0  0  0  0  0  0
   67.8718   46.0628   52.0030 C   0  0  0  0  0  0  0  0  0  0  0  0
   67.7981   45.9533   53.3625 C   0  0  0  0  0  0  0  0  0  0  0  0
 16 17  1  0
 17 18  1  0
 18 19  2  0
 18 11  1  0
 11 12  1  0
 11 15  2  0
 12 13  1  0
 13 14  2  0
 14 15  1  0
 15  8  1  0
  8  9  2  0
  8 10  1  0
 10  1  1  0
  1  2  2  0
  1  7  1  0
  2  3  1  0
  3  4  2  0
  4  5  1  0
  4  6  1  0
  6  7  2  0
  7 20  1  0
 20 21  2  0
 20 22  1  0
 22 23  2  0
 22 27  1  0
 23 24  1  0
 24 25  2  0
 25 26  1  0
 26 27  2  0
M  CHG  1  14   1
M  END
>  <minimizedAffinity>  (171) 
-9.07422

$$$$
data/reference_output_2/data/smiles/102121.pdb
     RDKit          3D

 26 28  0  0  0  0  0  0  0  0999 V2000
   69.6950   45.9843   57.8056 N   0  0  0  0  0  0  0  0  0  0  0  0
   70.8080   45.6233   58.2769 C   0  0  0  0  0  0  0  0  0  0  0  0
   71.3582   44.2607   58.1834 C   0  0  0  0  0  0  0  0  0  0  0  0
   72.5170   43.7865   57.7572 C   0  0  0  0  0  0  0  0  0  0  0  0
   72.7674   42.4702   57.7775 C   0  0  0  0  0  0  0  0  0  0  0  0
   71.7846   41.6591   58.2510 C   0  0  0  0  0  0  0  0  0  0  0  0
   70.4953   42.7823   58.6701 S   0  0  0  0  0  0  0  0  0  0  0  0
   71.7705   40.1956   58.3907 C   0  0  0  0  0  0  0  0  0  0  0  0
   71.7489   38.9972   58.4872 C   0  0  0  0  0  0  0  0  0  0  0  0
   71.7403   37.5528   58.5877 C   0  0  0  0  0  0  0  0  0  0  0  0
   72.4466   36.7491   57.7150 C   0  0  0  0  0  0  0  0  0  0  0  0
   72.4557   35.3732   57.7876 C   0  0  0  0  0  0  0  0  0  0  0  0
   71.7252   34.7714   58.7805 C   0  0  0  0  0  0  0  0  0  0  0  0
   71.0002   35.5493   59.6795 C   0  0  0  0  0  0  0  0  0  0  0  0
   71.0137   36.9248   59.5772 C   0  0  0  0  0  0  0  0  0  0  0  0
   69.1438   47.2670   57.8772 N   0  0  0  0  0  0  0  0  0  0  0  0
   69.4982   48.1775   56.8098 C   0  0  0  0  0  0  0  0  0  0  0  0
   69.0856   48.2412   53.0409 C   0  0  1  0  0  0  0  0  0  0  0  0
   68.6720   46.8049   53.0770 C   0  0  0  0  0  0  0  0  0  0  0  0
   67.5616   46.6238   54.0013 N   0  0  0  0  0  0  0  0  0  0  0  0
   67.9833   46.8432   55.3712 C   0  0  0  0  0  0  0  0  0  0  0  0
   69.3005   47.5716   55.4442 C   0  0  1  0  0  0  0  0  0  0  0  0
   69.3593   48.7182   54.4469 C   0  0  0  0  0  0  0  0  0  0  0  0
   71.3078   49.0018   52.7525 O   0  0  0  0  0  0  0  0  0  0  0  0
   70.3271   48.4040   52.2436 C   0  0  0  0  0  0  0  0  0  0  0  0
   70.4630   47.9268   50.9510 O   0  0  0  0  0  0  0  0  0  0  0  0
 24 25  2  0
 25 26  1  0
 18 25  1  6
 18 19  1  0
 18 23  1  0
 19 20  1  0
 20 21  1  0
 21 22  1  0
 22 17  1  1
 22 23  1  0
 17 16  1  0
 16  1  1  0
  1  2  2  0
  2  3  1  0
  3  4  2  0
  3  7  1  0
  4  5  1  0
  5  6  2  0
  6  8  1  0
  6  7  1  0
  8  9  3  0
  9 10  1  0
 10 11  2  0
 10 15  1  0
 11 12  1  0
 12 13  2  0
 13 14  1  0
 14 15  2  0
M  CHG  1  20   1
M  END
>  <minimizedAffinity>  (172) 
-8.96512

$$$$
data/reference_output_2/data/smiles/102141.pdb
     RDKit          3D

 31 36  0  0  0  0  0  0  0  0999 V2000
   75.5731   35.4863   53.9604 N   0  0  0  0  0  0  0  0  0  0  0  0
   75.6191   35.0361   55.2195 C   0  0  0  0  0  0  0  0  0  0  0  0
   74.4954   34.3156   55.4861 N   0  0  0  0  0  0  0  0  0  0  0  0
   73.7593   34.3301   54.3672 C   0  0  0  0  0  0  0  0  0  0  0  0
   72.5391   33.7586   54.0819 C   0  0  0  0  0  0  0  0  0  0  0  0
   72.0022   33.9342   52.8226 C   0  0  0  0  0  0  0  0  0  0  0  0
   72.6464   34.6610   51.8412 C   0  0  0  0  0  0  0  0  0  0  0  0
   73.8707   35.2267   52.1462 C   0  0  0  0  0  0  0  0  0  0  0  0
   74.4328   35.0710   53.3898 C   0  0  0  0  0  0  0  0  0  0  0  0
   76.5695   36.2885   53.2936 C   0  0  0  0  0  0  0  0  0  0  0  0
   79.1669   33.8697   47.8501 C   0  0  0  0  0  0  0  0  0  0  0  0
   78.4440   35.0195   47.6086 C   0  0  0  0  0  0  0  0  0  0  0  0
   77.8029   35.7085   48.6180 C   0  0  0  0  0  0  0  0  0  0  0  0
   77.8589   35.2669   49.9292 C   0  0  0  0  0  0  0  0  0  0  0  0
   77.2359   35.9323   50.9223 N   0  0  0  0  0  0  0  0  0  0  0  0
   77.2667   35.5356   52.2082 C   0  0  0  0  0  0  0  0  0  0  0  0
   77.9822   34.3871   52.4844 C   0  0  0  0  0  0  0  0  0  0  0  0
   78.6308   33.6838   51.4891 C   0  0  0  0  0  0  0  0  0  0  0  0
   78.5834   34.1155   50.1678 C   0  0  0  0  0  0  0  0  0  0  0  0
   79.2237   33.4286   49.1562 C   0  0  0  0  0  0  0  0  0  0  0  0
   74.1340   33.6659   56.7185 C   0  0  0  0  0  0  0  0  0  0  0  0
   73.1672   34.4338   57.5398 C   0  0  0  0  0  0  0  0  0  0  0  0
   72.4823   33.7925   58.5417 C   0  0  0  0  0  0  0  0  0  0  0  0
   71.5578   34.4825   59.3367 C   0  0  0  0  0  0  0  0  0  0  0  0
   71.3333   35.8215   59.1099 C   0  0  0  0  0  0  0  0  0  0  0  0
   70.4234   36.5443   59.8771 C   0  0  0  0  0  0  0  0  0  0  0  0
   70.2112   37.8846   59.6375 C   0  0  0  0  0  0  0  0  0  0  0  0
   70.9012   38.5265   58.6308 C   0  0  0  0  0  0  0  0  0  0  0  0
   71.7942   37.7815   57.8910 C   0  0  0  0  0  0  0  0  0  0  0  0
   72.0378   36.4387   58.0964 C   0  0  0  0  0  0  0  0  0  0  0  0
   72.9227   35.7409   57.3476 N   0  0  0  0  0  0  0  0  0  0  0  0
 11 12  2  0
 11 20  1  0
 12 13  1  0
 13 14  2  0
 14 15  1  0
 14 19  1  0
 15 16  2  0
 16 10  1  0
 16 17  1  0
 10  1  1  0
  1  2  1  0
  1  9  1  0
  2  3  2  0
  3 21  1  0
  3  4  1  0
 21 22  1  0
 22 23  2  0
 22 31  1  0
 23 24  1  0
 24 25  2  0
 25 26  1  0
 25 30  1  0
 26 27  2  0
 27 28  1  0
 28 29  2  0
 29 30  1  0
 30 31  2  0
  4  5  1  0
  4  9  2  0
  5  6  2  0
  6  7  1  0
  7  8  2  0
  8  9  1  0
 17 18  2  0
 18 19  1  0
 19 20  2  0
M  CHG  1   3   1
M  END
>  <minimizedAffinity>  (173) 
-9.07811

$$$$
data/reference_output_2/data/smiles/102279.pdb
     RDKit          3D

 26 28  0  0  0  0  0  0  0  0999 V2000
   70.3358   44.2497   57.7098 C   0  0  0  0  0  0  0  0  0  0  0  0
   69.4714   44.9756   56.8509 C   0  0  0  0  0  0  0  0  0  0  0  0
   69.5428   46.2769   57.0858 N   0  0  0  0  0  0  0  0  0  0  0  0
   70.4279   46.4483   58.0757 C   0  0  0  0  0  0  0  0  0  0  0  0
   70.8799   47.6102   58.7088 C   0  0  0  0  0  0  0  0  0  0  0  0
   71.8083   47.5934   59.7163 C   0  0  0  0  0  0  0  0  0  0  0  0
   72.2954   46.3794   60.0982 C   0  0  0  0  0  0  0  0  0  0  0  0
   73.5909   46.2329   61.4869 Br  0  0  0  0  0  0  0  0  0  0  0  0
   71.8557   45.2268   59.4823 C   0  0  0  0  0  0  0  0  0  0  0  0
   70.9132   45.2155   58.4581 C   0  0  0  0  0  0  0  0  0  0  0  0
   71.8841   42.2584   57.6655 C   0  0  0  0  0  0  0  0  0  0  0  0
   70.4454   42.8319   57.6188 C   0  0  0  0  0  0  0  0  0  0  0  0
   69.5822   41.9993   57.5493 N   0  0  0  0  0  0  0  0  0  0  0  0
   68.2965   41.9371   57.4857 N   0  0  0  0  0  0  0  0  0  0  0  0
   67.5924   41.6983   56.2349 C   0  0  0  0  0  0  0  0  0  0  0  0
   66.9473   42.7019   55.7664 N   0  0  0  0  0  0  0  0  0  0  0  0
   67.6346   40.4315   55.5986 N   0  0  0  0  0  0  0  0  0  0  0  0
   68.6761   47.4705   56.2400 S   0  0  0  0  0  0  0  0  0  0  0  0
   69.4326   48.7853   56.3361 O   0  0  0  0  0  0  0  0  0  0  0  0
   67.2891   47.6386   56.8166 O   0  0  0  0  0  0  0  0  0  0  0  0
   68.5365   47.0285   54.5564 C   0  0  0  0  0  0  0  0  0  0  0  0
   69.2454   47.7870   53.6109 C   0  0  0  0  0  0  0  0  0  0  0  0
   69.2096   47.4975   52.2647 C   0  0  0  0  0  0  0  0  0  0  0  0
   68.4553   46.4317   51.8367 C   0  0  0  0  0  0  0  0  0  0  0  0
   67.7643   45.6942   52.7635 C   0  0  0  0  0  0  0  0  0  0  0  0
   67.7919   45.9722   54.1020 C   0  0  0  0  0  0  0  0  0  0  0  0
 11 12  1  0
 12 13  2  0
 12  1  1  0
 13 14  1  0
 14 15  1  0
 15 16  2  0
 15 17  1  0
  1  2  2  0
  1 10  1  0
  2  3  1  0
  3 18  1  0
  3  4  1  0
 18 19  2  0
 18 20  2  0
 18 21  1  0
 21 22  2  0
 21 26  1  0
 22 23  1  0
 23 24  2  0
 24 25  1  0
 25 26  2  0
  4  5  1  0
  4 10  2  0
  5  6  2  0
  6  7  1  0
  7  8  1  0
  7  9  2  0
  9 10  1  0
M  CHG  1  16   1
M  END
>  <minimizedAffinity>  (174) 
-9.03342

$$$$
data/reference_output_2/data/smiles/102325.pdb
     RDKit          3D

 24 27  0  0  0  0  0  0  0  0999 V2000
   71.6517   50.8179   54.0008 N   0  0  0  0  0  0  0  0  0  0  0  0
   68.6338   47.8532   56.5321 C   0  0  0  0  0  0  0  0  0  0  0  0
   69.2520   48.2824   55.2521 C   0  0  0  0  0  0  0  0  0  0  0  0
   70.1424   49.3298   55.2015 C   0  0  0  0  0  0  0  0  0  0  0  0
   70.7170   49.7441   53.9953 C   0  0  0  0  0  0  0  0  0  0  0  0
   70.3657   49.0793   52.8945 N   0  0  0  0  0  0  0  0  0  0  0  0
   69.5006   48.0444   52.8717 C   0  0  0  0  0  0  0  0  0  0  0  0
   69.1723   47.3858   51.7114 C   0  0  0  0  0  0  0  0  0  0  0  0
   68.2920   46.3309   51.7116 C   0  0  0  0  0  0  0  0  0  0  0  0
   67.7272   45.9230   52.8940 C   0  0  0  0  0  0  0  0  0  0  0  0
   68.0487   46.5749   54.0594 C   0  0  0  0  0  0  0  0  0  0  0  0
   68.9345   47.6418   54.0790 C   0  0  0  0  0  0  0  0  0  0  0  0
   73.0291   50.5995   54.0394 N   0  0  0  0  0  0  0  0  0  0  0  0
   73.8661   50.9298   55.1126 C   0  0  0  0  0  0  0  0  0  0  0  0
   73.3859   51.4780   56.1210 O   0  0  0  0  0  0  0  0  0  0  0  0
   75.3501   50.6412   55.1011 C   0  0  2  0  0  0  0  0  0  0  0  0
   75.8083   49.4055   54.7515 O   0  0  0  0  0  0  0  0  0  0  0  0
   75.8581   49.7131   56.1154 C   0  0  1  0  0  0  0  0  0  0  0  0
   77.1863   49.9190   56.7192 C   0  0  0  0  0  0  0  0  0  0  0  0
   78.3522   49.6588   55.9956 C   0  0  0  0  0  0  0  0  0  0  0  0
   79.5764   49.8942   56.5760 C   0  0  0  0  0  0  0  0  0  0  0  0
   79.7063   50.3716   57.8382 N   0  0  0  0  0  0  0  0  0  0  0  0
   78.5785   50.6280   58.5558 C   0  0  0  0  0  0  0  0  0  0  0  0
   77.3664   50.4008   57.9912 C   0  0  0  0  0  0  0  0  0  0  0  0
  2  3  1  0
  3  4  2  0
  3 12  1  0
  4  5  1  0
  5  1  1  0
  5  6  2  0
  1 13  1  0
 13 14  1  0
 14 15  2  0
 16 14  1  1
 16 17  1  0
 16 18  1  0
 17 18  1  0
 18 19  1  6
 19 20  2  0
 19 24  1  0
 20 21  1  0
 21 22  2  0
 22 23  1  0
 23 24  2  0
  6  7  1  0
  7  8  1  0
  7 12  2  0
  8  9  2  0
  9 10  1  0
 10 11  2  0
 11 12  1  0
M  END
>  <minimizedAffinity>  (175) 
-8.56819

$$$$
data/reference_output_2/data/smiles/102436.pdb
     RDKit          3D

 22 24  0  0  0  0  0  0  0  0999 V2000
   68.4916   44.6780   55.9636 N   0  0  0  0  0  0  0  0  0  0  0  0
   67.9896   45.1686   54.8809 C   0  0  0  0  0  0  0  0  0  0  0  0
   68.4908   46.3944   54.2629 C   0  0  0  0  0  0  0  0  0  0  0  0
   68.5274   47.5826   54.9197 C   0  0  0  0  0  0  0  0  0  0  0  0
   69.0045   48.7550   54.3369 C   0  0  0  0  0  0  0  0  0  0  0  0
   69.4536   48.6870   53.0379 C   0  0  0  0  0  0  0  0  0  0  0  0
   69.4267   47.4969   52.3524 C   0  0  0  0  0  0  0  0  0  0  0  0
   68.9423   46.3411   52.9658 C   0  0  0  0  0  0  0  0  0  0  0  0
   69.9210   47.7543   51.1345 N   0  0  0  0  0  0  0  0  0  0  0  0
   70.2307   49.0158   51.0757 O   0  0  0  0  0  0  0  0  0  0  0  0
   69.9603   49.6023   52.2065 N   0  0  0  0  0  0  0  0  0  0  0  0
   70.1555   50.9433   52.5194 O   0  0  0  0  0  0  0  0  0  0  0  0
   69.9555   42.8430   57.3871 O   0  0  0  0  0  0  0  0  0  0  0  0
   68.7428   42.5644   57.2388 C   0  0  0  0  0  0  0  0  0  0  0  0
   67.9644   43.4970   56.5067 N   0  0  0  0  0  0  0  0  0  0  0  0
   68.2263   41.3290   57.8142 C   0  0  0  0  0  0  0  0  0  0  0  0
   68.7184   40.0783   57.5089 C   0  0  0  0  0  0  0  0  0  0  0  0
   68.1785   38.9313   58.0956 C   0  0  0  0  0  0  0  0  0  0  0  0
   67.1390   38.9987   58.9981 C   0  0  0  0  0  0  0  0  0  0  0  0
   66.4604   37.5524   59.7358 Cl  0  0  0  0  0  0  0  0  0  0  0  0
   66.6478   40.2516   59.3028 C   0  0  0  0  0  0  0  0  0  0  0  0
   67.1863   41.3790   58.7192 C   0  0  0  0  0  0  0  0  0  0  0  0
 13 14  2  0
 14 15  1  0
 14 16  1  0
 15  1  1  0
  1  2  2  0
  2  3  1  0
  3  4  1  0
  3  8  2  0
  4  5  2  0
  5  6  1  0
  6  7  1  0
  6 11  2  0
  7  8  1  0
  7  9  2  0
  9 10  1  0
 10 11  1  0
 11 12  1  0
 16 17  2  0
 16 22  1  0
 17 18  1  0
 18 19  2  0
 19 20  1  0
 19 21  1  0
 21 22  2  0
M  CHG  2  11   1  12  -1
M  END
>  <minimizedAffinity>  (176) 
-8.55173

$$$$
data/reference_output_2/data/smiles/102447.pdb
     RDKit          3D

 28 31  0  0  0  0  0  0  0  0999 V2000
   67.5103   41.1845   57.8923 C   0  0  2  0  0  0  0  0  0  0  0  0
   68.3575   41.9288   58.8528 C   0  0  0  0  0  0  0  0  0  0  0  0
   68.2466   42.8453   59.7060 O   0  0  0  0  0  0  0  0  0  0  0  0
   69.4703   41.1570   58.4258 N   0  0  0  0  0  0  0  0  0  0  0  0
   68.5759   40.1427   57.9583 C   0  0  1  0  0  0  0  0  0  0  0  0
   70.8815   41.3443   58.4632 C   0  0  0  0  0  0  0  0  0  0  0  0
   71.7050   40.5918   59.2657 C   0  0  0  0  0  0  0  0  0  0  0  0
   73.0706   40.8022   59.2763 C   0  0  0  0  0  0  0  0  0  0  0  0
   73.6679   41.7579   58.4979 C   0  0  0  0  0  0  0  0  0  0  0  0
   72.8541   42.5202   57.6881 C   0  0  0  0  0  0  0  0  0  0  0  0
   71.4810   42.3083   57.6791 C   0  0  0  0  0  0  0  0  0  0  0  0
   68.3342   39.0867   58.9568 C   0  0  0  0  0  0  0  0  0  0  0  0
   69.2051   38.2149   59.5378 C   0  0  0  0  0  0  0  0  0  0  0  0
   68.7494   37.3343   60.4290 C   0  0  0  0  0  0  0  0  0  0  0  0
   67.4144   37.3304   60.7354 C   0  0  0  0  0  0  0  0  0  0  0  0
   66.8209   38.6782   59.6665 S   0  0  0  0  0  0  0  0  0  0  0  0
   67.7401   43.2626   56.4327 N   0  0  0  0  0  0  0  0  0  0  0  0
   67.5370   41.8712   56.5733 C   0  0  0  0  0  0  0  0  0  0  0  0
   67.3726   41.1945   55.5330 O   0  0  0  0  0  0  0  0  0  0  0  0
   68.5842   45.8295   56.0669 O   0  0  0  0  0  0  0  0  0  0  0  0
   68.2103   45.2433   55.0286 C   0  0  0  0  0  0  0  0  0  0  0  0
   67.7638   43.9080   55.1699 N   0  0  0  0  0  0  0  0  0  0  0  0
   68.2544   45.9544   53.7524 C   0  0  0  0  0  0  0  0  0  0  0  0
   68.9804   47.1229   53.6350 C   0  0  0  0  0  0  0  0  0  0  0  0
   69.0417   47.8173   52.4439 C   0  0  0  0  0  0  0  0  0  0  0  0
   68.3856   47.3742   51.3347 N   0  0  0  0  0  0  0  0  0  0  0  0
   67.6699   46.2387   51.4192 C   0  0  0  0  0  0  0  0  0  0  0  0
   67.5997   45.5239   52.6209 C   0  0  0  0  0  0  0  0  0  0  0  0
 20 21  2  0
 21 22  1  0
 21 23  1  0
 22 17  1  0
 17 18  1  0
 18 19  2  0
  1 18  1  6
  1  2  1  0
  1  5  1  0
  2  3  2  0
  2  4  1  0
  4  6  1  0
  4  5  1  0
  6  7  2  0
  6 11  1  0
  7  8  1  0
  8  9  2  0
  9 10  1  0
 10 11  2  0
  5 12  1  1
 12 13  2  0
 12 16  1  0
 13 14  1  0
 14 15  2  0
 15 16  1  0
 23 24  2  0
 23 28  1  0
 24 25  1  0
 25 26  2  0
 26 27  1  0
 27 28  2  0
M  END
>  <minimizedAffinity>  (177) 
-9.28875

$$$$
data/reference_output_2/data/smiles/102453.pdb
     RDKit          3D

 31 34  0  0  0  0  0  0  0  0999 V2000
   73.6994   41.6507   58.3295 O   0  0  0  0  0  0  0  0  0  0  0  0
   72.4519   41.5438   58.3209 C   0  0  0  0  0  0  0  0  0  0  0  0
   71.8918   40.3213   58.3881 N   0  0  0  0  0  0  0  0  0  0  0  0
   70.5514   40.2081   58.3789 C   0  0  0  0  0  0  0  0  0  0  0  0
   70.0010   39.0001   58.4452 C   0  0  0  0  0  0  0  0  0  0  0  0
   69.8081   41.3688   58.3008 C   0  0  0  0  0  0  0  0  0  0  0  0
   68.5478   41.2338   58.2948 O   0  0  0  0  0  0  0  0  0  0  0  0
   70.3605   42.5953   58.2336 N   0  0  0  0  0  0  0  0  0  0  0  0
   71.7013   42.7094   58.2427 C   0  0  0  0  0  0  0  0  0  0  0  0
   72.2622   43.9094   58.1771 C   0  0  0  0  0  0  0  0  0  0  0  0
   71.4898   45.1393   58.0950 C   0  0  0  0  0  0  0  0  0  0  0  0
   71.8852   46.2628   58.7846 C   0  0  0  0  0  0  0  0  0  0  0  0
   71.1464   47.4514   58.7101 C   0  0  0  0  0  0  0  0  0  0  0  0
   70.0110   47.4850   57.9332 C   0  0  0  0  0  0  0  0  0  0  0  0
   69.5945   46.3696   57.2306 C   0  0  0  0  0  0  0  0  0  0  0  0
   70.3480   45.2178   57.3297 C   0  0  0  0  0  0  0  0  0  0  0  0
   68.4503   46.4849   56.4770 O   0  0  0  0  0  0  0  0  0  0  0  0
   68.4055   46.5023   55.1033 C   0  0  0  0  0  0  0  0  0  0  0  0
   68.9054   47.5864   54.4193 C   0  0  0  0  0  0  0  0  0  0  0  0
   68.8898   47.6651   53.0352 C   0  0  0  0  0  0  0  0  0  0  0  0
   68.3622   46.6417   52.3038 C   0  0  0  0  0  0  0  0  0  0  0  0
   68.3549   46.7372   50.9481 F   0  0  0  0  0  0  0  0  0  0  0  0
   67.8493   45.5335   52.9661 C   0  0  0  0  0  0  0  0  0  0  0  0
   67.8719   45.4687   54.3485 C   0  0  0  0  0  0  0  0  0  0  0  0
   70.8067   37.7856   58.5273 C   0  0  0  0  0  0  0  0  0  0  0  0
   70.7905   36.8418   59.5340 C   0  0  0  0  0  0  0  0  0  0  0  0
   71.7223   35.8960   59.1532 C   0  0  0  0  0  0  0  0  0  0  0  0
   72.2599   36.2969   57.9488 C   0  0  0  0  0  0  0  0  0  0  0  0
   71.6788   37.4143   57.6370 O   0  0  0  0  0  0  0  0  0  0  0  0
   73.3156   35.5349   57.1947 C   0  0  0  0  0  0  0  0  0  0  0  0
   72.9371   35.3985   55.8802 O   0  0  0  0  0  0  0  0  0  0  0  0
  1  2  2  0
  2  3  1  0
  2  9  1  0
  3  4  1  0
  4  5  2  0
  4  6  1  0
  5 25  1  0
 25 26  2  0
 25 29  1  0
 26 27  1  0
 27 28  2  0
 28 30  1  0
 28 29  1  0
 30 31  1  0
  6  7  2  0
  6  8  1  0
  8  9  1  0
  9 10  2  0
 10 11  1  0
 11 12  2  0
 11 16  1  0
 12 13  1  0
 13 14  2  0
 14 15  1  0
 15 17  1  0
 15 16  2  0
 17 18  1  0
 18 19  2  0
 18 24  1  0
 19 20  1  0
 20 21  2  0
 21 22  1  0
 21 23  1  0
 23 24  2  0
M  END
>  <minimizedAffinity>  (178) 
-9.61029

$$$$
data/reference_output_2/data/smiles/102536.pdb
     RDKit          3D

 24 26  0  0  0  0  0  0  0  0999 V2000
   73.6267   50.2401   55.7623 N   0  0  0  0  0  0  0  0  0  0  0  0
   72.9397   51.0528   54.8383 C   0  0  0  0  0  0  0  0  0  0  0  0
   73.5515   51.9991   54.2985 O   0  0  0  0  0  0  0  0  0  0  0  0
   71.4952   50.7687   54.5182 C   0  0  0  0  0  0  0  0  0  0  0  0
   70.5286   51.7426   54.6256 C   0  0  0  0  0  0  0  0  0  0  0  0
   69.0184   50.8442   54.1237 S   0  0  0  0  0  0  0  0  0  0  0  0
   69.9401   49.2898   53.8477 C   0  0  0  0  0  0  0  0  0  0  0  0
   71.0364   49.5982   54.1164 N   0  0  0  0  0  0  0  0  0  0  0  0
   69.1858   48.0679   53.3825 C   0  0  0  0  0  0  0  0  0  0  0  0
   68.5770   47.2758   54.3065 C   0  0  0  0  0  0  0  0  0  0  0  0
   67.8658   46.1290   53.9082 C   0  0  0  0  0  0  0  0  0  0  0  0
   67.7811   45.8016   52.5742 C   0  0  0  0  0  0  0  0  0  0  0  0
   67.0985   44.6958   52.1520 F   0  0  0  0  0  0  0  0  0  0  0  0
   68.4002   46.6104   51.6514 C   0  0  0  0  0  0  0  0  0  0  0  0
   69.0954   47.7341   52.0620 C   0  0  0  0  0  0  0  0  0  0  0  0
   75.7504   49.0564   54.4737 O   0  0  0  0  0  0  0  0  0  0  0  0
   76.0478   49.8358   55.4198 C   0  0  0  0  0  0  0  0  0  0  0  0
   74.9806   50.4586   56.1010 N   0  0  0  0  0  0  0  0  0  0  0  0
   77.4487   50.0494   55.7541 C   0  0  0  0  0  0  0  0  0  0  0  0
   78.4309   49.1392   55.4360 C   0  0  0  0  0  0  0  0  0  0  0  0
   79.7560   49.3241   55.7439 C   0  0  0  0  0  0  0  0  0  0  0  0
   80.1348   50.4754   56.4040 C   0  0  0  0  0  0  0  0  0  0  0  0
   79.1392   51.3837   56.7176 C   0  0  0  0  0  0  0  0  0  0  0  0
   77.8395   51.1630   56.3962 N   0  0  0  0  0  0  0  0  0  0  0  0
 16 17  2  0
 17 18  1  0
 17 19  1  0
 18  1  1  0
  1  2  1  0
  2  3  2  0
  2  4  1  0
  4  5  2  0
  4  8  1  0
  5  6  1  0
  6  7  1  0
  7  9  1  0
  7  8  2  0
  9 10  2  0
  9 15  1  0
 10 11  1  0
 11 12  2  0
 12 13  1  0
 12 14  1  0
 14 15  2  0
 19 20  2  0
 19 24  1  0
 20 21  1  0
 21 22  2  0
 22 23  1  0
 23 24  2  0
M  END
>  <minimizedAffinity>  (179) 
-8.88778

$$$$
data/reference_output_2/data/smiles/102560.pdb
     RDKit          3D

 26 28  0  0  0  0  0  0  0  0999 V2000
   68.9832   45.0555   56.2445 N   0  0  0  0  0  0  0  0  0  0  0  0
   69.3302   46.3419   56.7048 C   0  0  0  0  0  0  0  0  0  0  0  0
   69.7110   46.3706   57.9312 O   0  0  0  0  0  0  0  0  0  0  0  0
   67.5368   42.8336   55.7524 O   0  0  0  0  0  0  0  0  0  0  0  0
   68.2850   42.7465   56.7850 C   0  0  0  0  0  0  0  0  0  0  0  0
   69.0381   43.9033   57.0422 N   0  0  0  0  0  0  0  0  0  0  0  0
   68.2655   41.5108   57.5394 C   0  0  0  0  0  0  0  0  0  0  0  0
   68.4750   41.5637   58.9226 C   0  0  0  0  0  0  0  0  0  0  0  0
   68.4736   40.4459   59.7223 C   0  0  0  0  0  0  0  0  0  0  0  0
   68.2626   39.1898   59.2007 C   0  0  0  0  0  0  0  0  0  0  0  0
   68.0537   39.1078   57.8470 C   0  0  0  0  0  0  0  0  0  0  0  0
   68.0564   40.2542   57.0351 C   0  0  0  0  0  0  0  0  0  0  0  0
   67.8385   40.1076   55.6698 O   0  0  0  0  0  0  0  0  0  0  0  0
   69.3124   47.6028   55.9750 C   0  0  0  0  0  0  0  0  0  0  0  0
   68.9837   47.3526   54.5646 C   0  0  0  0  0  0  0  0  0  0  0  0
   68.0400   46.4125   54.2359 C   0  0  0  0  0  0  0  0  0  0  0  0
   67.6976   46.1210   52.9294 C   0  0  0  0  0  0  0  0  0  0  0  0
   68.3102   46.7854   51.8908 C   0  0  0  0  0  0  0  0  0  0  0  0
   69.2598   47.7319   52.1972 C   0  0  0  0  0  0  0  0  0  0  0  0
   69.5851   48.0055   53.5133 C   0  0  0  0  0  0  0  0  0  0  0  0
   68.4919   48.6879   56.5554 C   0  0  0  0  0  0  0  0  0  0  0  0
   67.4123   48.3420   57.3329 C   0  0  0  0  0  0  0  0  0  0  0  0
   66.6227   49.3090   57.8852 C   0  0  0  0  0  0  0  0  0  0  0  0
   66.8938   50.6421   57.6726 C   0  0  0  0  0  0  0  0  0  0  0  0
   67.9797   50.9735   56.8900 C   0  0  0  0  0  0  0  0  0  0  0  0
   68.7812   50.0033   56.3287 C   0  0  0  0  0  0  0  0  0  0  0  0
  4  5  2  0
  5  6  1  0
  5  7  1  0
  6  1  1  0
  1  2  1  0
  2  3  2  0
  2 14  1  0
 14 15  1  0
 14 21  1  0
 15 16  2  0
 15 20  1  0
 16 17  1  0
 17 18  2  0
 18 19  1  0
 19 20  2  0
 21 22  2  0
 21 26  1  0
 22 23  1  0
 23 24  2  0
 24 25  1  0
 25 26  2  0
  7  8  2  0
  7 12  1  0
  8  9  1  0
  9 10  2  0
 10 11  1  0
 11 12  2  0
 12 13  1  0
M  END
>  <minimizedAffinity>  (180) 
-10.00948

$$$$
data/reference_output_2/data/smiles/102562.pdb
     RDKit          3D

 30 34  0  0  0  0  0  0  0  0999 V2000
   68.8551   43.4350   59.8101 O   0  0  0  0  0  0  0  0  0  0  0  0
   68.5321   42.2304   60.0389 C   0  0  0  0  0  0  0  0  0  0  0  0
   68.3440   41.7307   61.3474 N   0  0  0  0  0  0  0  0  0  0  0  0
   67.9937   40.3568   61.2506 C   0  0  0  0  0  0  0  0  0  0  0  0
   67.7008   39.3922   62.2286 C   0  0  0  0  0  0  0  0  0  0  0  0
   67.3844   38.1011   61.8652 C   0  0  0  0  0  0  0  0  0  0  0  0
   67.3567   37.7555   60.5184 C   0  0  0  0  0  0  0  0  0  0  0  0
   67.6377   38.6754   59.5465 C   0  0  0  0  0  0  0  0  0  0  0  0
   67.6127   38.3478   58.2208 F   0  0  0  0  0  0  0  0  0  0  0  0
   67.9547   39.9768   59.9419 C   0  0  0  0  0  0  0  0  0  0  0  0
   68.2910   41.1349   59.0945 C   0  0  0  0  0  0  0  0  0  0  0  0
   67.1868   41.5149   58.1558 C   0  0  0  0  0  0  0  0  0  0  0  0
   67.6705   41.9211   56.7805 C   0  0  0  0  0  0  0  0  0  0  0  0
   68.8462   42.7096   56.9481 N   0  0  0  0  0  0  0  0  0  0  0  0
   70.0039   42.0337   57.4889 C   0  0  0  0  0  0  0  0  0  0  0  0
   69.6097   40.8970   58.3959 C   0  0  0  0  0  0  0  0  0  0  0  0
   68.9363   44.0768   56.6242 C   0  0  0  0  0  0  0  0  0  0  0  0
   68.3340   44.5572   55.4864 N   0  0  0  0  0  0  0  0  0  0  0  0
   68.3796   45.8370   55.1168 C   0  0  0  0  0  0  0  0  0  0  0  0
   69.0648   46.7276   55.9124 C   0  0  0  0  0  0  0  0  0  0  0  0
   69.6954   46.2945   57.0789 C   0  0  0  0  0  0  0  0  0  0  0  0
   70.3239   47.1090   57.8102 O   0  0  0  0  0  0  0  0  0  0  0  0
   69.5908   44.9818   57.3645 N   0  0  0  0  0  0  0  0  0  0  0  0
   69.1042   48.1499   55.4896 C   0  0  0  0  0  0  0  0  0  0  0  0
   69.2291   48.3481   54.0138 C   0  0  0  0  0  0  0  0  0  0  0  0
   68.8475   47.1579   53.1842 C   0  0  0  0  0  0  0  0  0  0  0  0
   67.7418   46.3750   53.8986 C   0  0  0  0  0  0  0  0  0  0  0  0
   68.4715   42.4346   62.6057 C   0  0  0  0  0  0  0  0  0  0  0  0
   69.8309   42.3032   63.2243 C   0  0  0  0  0  0  0  0  0  0  0  0
   69.6577   41.5554   64.4095 O   0  0  0  0  0  0  0  0  0  0  0  0
  1  2  2  0
  2  3  1  0
  2 11  1  0
  3 28  1  0
  3  4  1  0
 28 29  1  0
 29 30  1  0
  4  5  2  0
  4 10  1  0
  5  6  1  0
  6  7  2  0
  7  8  1  0
  8  9  1  0
  8 10  2  0
 10 11  1  0
 11 12  1  0
 11 16  1  0
 12 13  1  0
 13 14  1  0
 14 17  1  0
 14 15  1  0
 17 18  2  0
 17 23  1  0
 18 19  1  0
 19 20  2  0
 19 27  1  0
 20 21  1  0
 20 24  1  0
 21 22  2  0
 21 23  1  0
 24 25  1  0
 25 26  1  0
 26 27  1  0
 15 16  1  0
M  END
>  <minimizedAffinity>  (181) 
-8.86539

$$$$
data/reference_output_2/data/smiles/102644.pdb
     RDKit          3D

 24 26  0  0  0  0  0  0  0  0999 V2000
   72.2056   50.8572   53.9227 N   0  0  0  0  0  0  0  0  0  0  0  0
   72.8295   51.3860   54.9104 C   0  0  0  0  0  0  0  0  0  0  0  0
   72.8779   50.8005   56.2770 C   0  0  0  0  0  0  0  0  0  0  0  0
   72.1041   51.7876   57.1606 C   0  0  0  0  0  0  0  0  0  0  0  0
   72.2185   53.1063   56.7374 N   0  0  0  0  0  0  0  0  0  0  0  0
   73.2984   53.5208   55.9315 C   0  0  0  0  0  0  0  0  0  0  0  0
   73.5698   52.6613   54.7401 C   0  0  0  0  0  0  0  0  0  0  0  0
   69.9893   50.3490   52.3932 O   0  0  0  0  0  0  0  0  0  0  0  0
   70.3527   49.4251   53.2079 C   0  0  0  0  0  0  0  0  0  0  0  0
   71.4799   49.6492   54.0030 N   0  0  0  0  0  0  0  0  0  0  0  0
   69.5490   48.2218   53.2278 C   0  0  0  0  0  0  0  0  0  0  0  0
   68.8006   47.9177   54.3753 C   0  0  0  0  0  0  0  0  0  0  0  0
   68.0400   46.8040   54.4274 C   0  0  0  0  0  0  0  0  0  0  0  0
   67.9547   45.9233   53.3893 C   0  0  0  0  0  0  0  0  0  0  0  0
   68.6729   46.1897   52.2557 C   0  0  0  0  0  0  0  0  0  0  0  0
   69.4649   47.3410   52.1852 C   0  0  0  0  0  0  0  0  0  0  0  0
   70.1593   47.5416   51.0095 O   0  0  0  0  0  0  0  0  0  0  0  0
   71.0344   53.8119   56.4988 C   0  0  0  0  0  0  0  0  0  0  0  0
   69.8379   52.9821   56.2260 C   0  0  0  0  0  0  0  0  0  0  0  0
   69.1549   52.4086   57.3020 C   0  0  0  0  0  0  0  0  0  0  0  0
   68.0531   51.6218   57.0979 C   0  0  0  0  0  0  0  0  0  0  0  0
   67.6107   51.3930   55.8113 C   0  0  0  0  0  0  0  0  0  0  0  0
   68.2653   51.9443   54.7425 C   0  0  0  0  0  0  0  0  0  0  0  0
   69.3741   52.7348   54.9562 C   0  0  0  0  0  0  0  0  0  0  0  0
  8  9  2  0
  9 10  1  0
  9 11  1  0
 10  1  1  0
  1  2  2  0
  2  3  1  0
  2  7  1  0
  3  4  1  0
  4  5  1  0
  5 18  1  0
  5  6  1  0
 18 19  1  0
 19 20  2  0
 19 24  1  0
 20 21  1  0
 21 22  2  0
 22 23  1  0
 23 24  2  0
  6  7  1  0
 11 12  2  0
 11 16  1  0
 12 13  1  0
 13 14  2  0
 14 15  1  0
 15 16  2  0
 16 17  1  0
M  CHG  1   5   1
M  END
>  <minimizedAffinity>  (182) 
-8.73078

$$$$
data/reference_output_2/data/smiles/102782.pdb
     RDKit          3D

 29 32  0  0  0  0  0  0  0  0999 V2000
   67.8201   44.1278   55.3502 N   0  0  0  0  0  0  0  0  0  0  0  0
   68.4088   43.3148   56.3327 C   0  0  0  0  0  0  0  0  0  0  0  0
   69.3727   43.7969   56.9922 O   0  0  0  0  0  0  0  0  0  0  0  0
   70.4755   48.6539   57.2837 C   0  0  0  0  0  0  0  0  0  0  0  0
   69.2120   48.9180   56.4582 C   0  0  1  0  0  0  0  0  0  0  0  0
   69.5898   49.9053   55.4232 C   0  0  0  0  0  0  0  0  0  0  0  0
   69.9355   51.0854   55.6529 O   0  0  0  0  0  0  0  0  0  0  0  0
   69.4947   49.3009   54.1667 N   0  0  0  0  0  0  0  0  0  0  0  0
   69.7260   49.7332   52.7863 C   0  0  0  0  0  0  0  0  0  0  0  0
   70.0737   48.6010   51.8785 C   0  0  0  0  0  0  0  0  0  0  0  0
   69.0865   47.4559   51.9628 C   0  0  0  0  0  0  0  0  0  0  0  0
   68.8617   47.0506   53.3613 C   0  0  0  0  0  0  0  0  0  0  0  0
   68.4420   45.7711   53.7265 C   0  0  0  0  0  0  0  0  0  0  0  0
   68.2487   45.4549   55.0629 C   0  0  0  0  0  0  0  0  0  0  0  0
   68.4742   46.4102   56.0019 C   0  0  0  0  0  0  0  0  0  0  0  0
   68.8935   47.7039   55.7000 C   0  0  0  0  0  0  0  0  0  0  0  0
   69.0716   47.9692   54.3598 C   0  0  0  0  0  0  0  0  0  0  0  0
   67.9725   41.9557   56.6296 C   0  0  0  0  0  0  0  0  0  0  0  0
   66.9222   41.4875   56.1228 O   0  0  0  0  0  0  0  0  0  0  0  0
   68.7025   41.0927   57.4995 N   0  0  0  0  0  0  0  0  0  0  0  0
   68.3190   39.7642   57.8177 C   0  0  0  0  0  0  0  0  0  0  0  0
   69.2197   39.1210   58.8283 C   0  0  0  0  0  0  0  0  0  0  0  0
   70.6405   38.9151   58.4185 C   0  0  0  0  0  0  0  0  0  0  0  0
   71.1846   37.5706   58.4517 C   0  0  0  0  0  0  0  0  0  0  0  0
   70.7502   36.6454   59.4116 C   0  0  0  0  0  0  0  0  0  0  0  0
   71.2562   35.3665   59.4456 C   0  0  0  0  0  0  0  0  0  0  0  0
   72.1961   34.9383   58.5563 C   0  0  0  0  0  0  0  0  0  0  0  0
   72.6415   35.8189   57.6043 C   0  0  0  0  0  0  0  0  0  0  0  0
   72.1490   37.1003   57.5530 C   0  0  0  0  0  0  0  0  0  0  0  0
  5  4  1  1
  5  6  1  0
  5 16  1  0
  6  7  2  0
  6  8  1  0
  8  9  1  0
  8 17  1  0
  9 10  1  0
 10 11  1  0
 11 12  1  0
 12 13  1  0
 12 17  2  0
 13 14  2  0
 14  1  1  0
 14 15  1  0
  1  2  1  0
  2  3  2  0
  2 18  1  0
 18 19  2  0
 18 20  1  0
 20 21  1  0
 21 22  1  0
 22 23  1  0
 23 24  1  0
 24 25  2  0
 24 29  1  0
 25 26  1  0
 26 27  2  0
 27 28  1  0
 28 29  2  0
 15 16  2  0
 16 17  1  0
M  END
>  <minimizedAffinity>  (183) 
-9.56351

$$$$
data/reference_output_2/data/smiles/102791.pdb
     RDKit          3D

 25 27  0  0  0  0  0  0  0  0999 V2000
   67.9415   42.3411   56.5005 C   0  0  0  0  0  0  0  0  0  0  0  0
   67.0872   42.0044   55.6403 O   0  0  0  0  0  0  0  0  0  0  0  0
   68.3698   43.6919   56.4591 N   0  0  0  0  0  0  0  0  0  0  0  0
   68.1520   40.0674   57.4368 C   0  0  0  0  0  0  0  0  0  0  0  0
   68.4248   41.3518   57.4541 C   0  0  0  0  0  0  0  0  0  0  0  0
   69.7464   37.1988   60.2115 C   0  0  0  0  0  0  0  0  0  0  0  0
   70.5401   37.8443   59.2834 C   0  0  0  0  0  0  0  0  0  0  0  0
   69.9882   38.7599   58.4098 C   0  0  0  0  0  0  0  0  0  0  0  0
   68.6463   39.0841   58.4025 C   0  0  0  0  0  0  0  0  0  0  0  0
   67.8529   38.4449   59.3235 C   0  0  0  0  0  0  0  0  0  0  0  0
   68.4088   37.5145   60.2131 C   0  0  0  0  0  0  0  0  0  0  0  0
   70.3062   36.2765   61.0929 O   0  0  0  0  0  0  0  0  0  0  0  0
   71.3186   34.3229   60.0265 C   0  0  0  0  0  0  0  0  0  0  0  0
   70.2469   34.8784   60.9298 C   0  0  0  0  0  0  0  0  0  0  0  0
   67.9088   44.6447   55.5459 N   0  0  0  0  0  0  0  0  0  0  0  0
   68.3577   46.0001   55.5086 C   0  0  0  0  0  0  0  0  0  0  0  0
   68.5311   46.6997   56.6551 N   0  0  0  0  0  0  0  0  0  0  0  0
   68.9367   47.9448   56.6425 N   0  0  0  0  0  0  0  0  0  0  0  0
   69.2070   48.6065   55.5060 C   0  0  0  0  0  0  0  0  0  0  0  0
   69.0486   47.9442   54.3238 C   0  0  0  0  0  0  0  0  0  0  0  0
   69.3028   48.5687   53.1357 C   0  0  0  0  0  0  0  0  0  0  0  0
   69.1314   47.8876   51.9508 C   0  0  0  0  0  0  0  0  0  0  0  0
   68.7030   46.5734   51.9368 C   0  0  0  0  0  0  0  0  0  0  0  0
   68.4453   45.9428   53.1514 C   0  0  0  0  0  0  0  0  0  0  0  0
   68.6218   46.6359   54.3246 C   0  0  0  0  0  0  0  0  0  0  0  0
 13 14  1  0
 14 12  1  0
 12  6  1  0
  6  7  2  0
  6 11  1  0
  7  8  1  0
  8  9  2  0
  9  4  1  0
  9 10  1  0
  4  5  2  0
  5  1  1  0
  1  2  2  0
  1  3  1  0
  3 15  1  0
 15 16  1  0
 16 17  2  0
 16 25  1  0
 17 18  1  0
 18 19  2  0
 19 20  1  0
 20 21  1  0
 20 25  2  0
 21 22  2  0
 22 23  1  0
 23 24  2  0
 24 25  1  0
 10 11  2  0
M  END
>  <minimizedAffinity>  (184) 
-8.96403

$$$$
data/reference_output_2/data/smiles/102845.pdb
     RDKit          3D

 21 23  0  0  0  0  0  0  0  0999 V2000
   68.2667   45.6573   56.1753 N   0  0  0  0  0  0  0  0  0  0  0  0
   68.3688   46.8157   55.6611 C   0  0  0  0  0  0  0  0  0  0  0  0
   68.4024   48.1042   56.4276 C   0  0  0  0  0  0  0  0  0  0  0  0
   69.7565   48.7039   56.0921 C   0  0  0  0  0  0  0  0  0  0  0  0
   69.9671   48.8881   54.6361 C   0  0  0  0  0  0  0  0  0  0  0  0
   69.3083   47.9521   53.7255 C   0  0  0  0  0  0  0  0  0  0  0  0
   69.4661   48.0713   52.3712 C   0  0  0  0  0  0  0  0  0  0  0  0
   68.8109   47.1887   51.5111 C   0  0  0  0  0  0  0  0  0  0  0  0
   67.9953   46.1862   52.0408 C   0  0  0  0  0  0  0  0  0  0  0  0
   67.8232   46.0509   53.4030 C   0  0  0  0  0  0  0  0  0  0  0  0
   68.4826   46.9318   54.2084 C   0  0  0  0  0  0  0  0  0  0  0  0
   68.2364   44.4415   55.5111 N   0  0  0  0  0  0  0  0  0  0  0  0
   68.4990   40.6930   57.5396 C   0  0  0  0  0  0  0  0  0  0  0  0
   67.5119   40.9503   56.6139 C   0  0  0  0  0  0  0  0  0  0  0  0
   67.4330   42.1705   55.9598 C   0  0  0  0  0  0  0  0  0  0  0  0
   68.3341   43.1853   56.1987 C   0  0  0  0  0  0  0  0  0  0  0  0
   69.3251   42.9323   57.1249 C   0  0  0  0  0  0  0  0  0  0  0  0
   69.4052   41.7180   57.7789 C   0  0  0  0  0  0  0  0  0  0  0  0
   69.7236   38.9275   58.4090 O   0  0  0  0  0  0  0  0  0  0  0  0
   68.5811   39.4124   58.2259 C   0  0  0  0  0  0  0  0  0  0  0  0
   67.4955   38.7085   58.6810 O   0  0  0  0  0  0  0  0  0  0  0  0
 19 20  2  0
 20 21  1  0
 20 13  1  0
 13 14  2  0
 13 18  1  0
 14 15  1  0
 15 16  2  0
 16 12  1  0
 16 17  1  0
 12  1  1  0
  1  2  2  0
  2  3  1  0
  2 11  1  0
  3  4  1  0
  4  5  1  0
  5  6  1  0
  6  7  2  0
  6 11  1  0
  7  8  1  0
  8  9  2  0
  9 10  1  0
 10 11  2  0
 17 18  2  0
M  END
>  <minimizedAffinity>  (185) 
-8.55130

$$$$
data/reference_output_2/data/smiles/103132.pdb
     RDKit          3D

 25 26  0  0  0  0  0  0  0  0999 V2000
   70.2236   42.0683   57.8776 N   0  0  0  0  0  0  0  0  0  0  0  0
   69.2857   42.7303   57.3133 C   0  0  0  0  0  0  0  0  0  0  0  0
   67.8669   41.8599   56.6544 S   0  0  0  0  0  0  0  0  0  0  0  0
   72.3545   40.9171   59.0084 C   0  0  0  0  0  0  0  0  0  0  0  0
   71.2175   40.0690   58.5550 C   0  0  0  0  0  0  0  0  0  0  0  0
   70.2156   40.6768   58.0176 N   0  0  0  0  0  0  0  0  0  0  0  0
   71.2446   38.6084   58.7179 C   0  0  0  0  0  0  0  0  0  0  0  0
   72.0418   37.8283   57.9057 C   0  0  0  0  0  0  0  0  0  0  0  0
   72.1001   36.4531   58.0208 C   0  0  0  0  0  0  0  0  0  0  0  0
   71.3128   35.8782   59.0007 C   0  0  0  0  0  0  0  0  0  0  0  0
   70.5198   36.6515   59.8084 C   0  0  0  0  0  0  0  0  0  0  0  0
   70.5078   37.9725   59.6471 N   0  0  0  0  0  0  0  0  0  0  0  0
   69.7050   38.7487   60.4652 O   0  0  0  0  0  0  0  0  0  0  0  0
   69.4110   44.1452   57.2342 N   0  0  0  0  0  0  0  0  0  0  0  0
   68.7474   44.9200   56.2744 N   0  0  0  0  0  0  0  0  0  0  0  0
   68.8411   46.2068   56.2170 C   0  0  0  0  0  0  0  0  0  0  0  0
   69.8536   47.0352   57.4026 S   0  0  0  0  0  0  0  0  0  0  0  0
   68.1153   46.9092   55.1877 N   0  0  0  0  0  0  0  0  0  0  0  0
   68.7469   47.3524   54.0050 C   0  0  0  0  0  0  0  0  0  0  0  0
   69.5329   48.4791   54.0072 C   0  0  0  0  0  0  0  0  0  0  0  0
   70.1661   48.9324   52.8470 C   0  0  0  0  0  0  0  0  0  0  0  0
   70.0013   48.2378   51.6671 C   0  0  0  0  0  0  0  0  0  0  0  0
   69.2179   47.1085   51.6505 C   0  0  0  0  0  0  0  0  0  0  0  0
   68.6023   46.6802   52.8122 C   0  0  0  0  0  0  0  0  0  0  0  0
   67.5988   45.2410   52.8045 Cl  0  0  0  0  0  0  0  0  0  0  0  0
  4  5  1  0
  5  6  2  0
  5  7  1  0
  6  1  1  0
  1  2  2  0
  2  3  1  0
  2 14  1  0
 14 15  1  0
 15 16  2  0
 16 17  1  0
 16 18  1  0
 18 19  1  0
 19 20  2  0
 19 24  1  0
 20 21  1  0
 21 22  2  0
 22 23  1  0
 23 24  2  0
 24 25  1  0
  7  8  2  0
  7 12  1  0
  8  9  1  0
  9 10  2  0
 10 11  1  0
 11 12  2  0
 12 13  1  0
M  CHG  4   1   1  12   1  13  -1  15   1
M  END
>  <minimizedAffinity>  (186) 
-8.65670

$$$$
data/reference_output_2/data/smiles/103211.pdb
     RDKit          3D

 22 23  0  0  0  0  0  0  0  0999 V2000
   69.0152   44.4273   56.5170 O   0  0  0  0  0  0  0  0  0  0  0  0
   68.0823   44.0563   55.7537 C   0  0  0  0  0  0  0  0  0  0  0  0
   67.5083   42.7952   55.9788 N   0  0  0  0  0  0  0  0  0  0  0  0
   67.6908   44.9553   54.7265 N   0  0  0  0  0  0  0  0  0  0  0  0
   68.2878   46.2191   54.5259 C   0  0  0  0  0  0  0  0  0  0  0  0
   68.3782   47.1144   55.5656 C   0  0  0  0  0  0  0  0  0  0  0  0
   68.9691   48.3729   55.3807 C   0  0  0  0  0  0  0  0  0  0  0  0
   69.4696   48.7397   54.1602 C   0  0  0  0  0  0  0  0  0  0  0  0
   69.3866   47.8544   53.1113 C   0  0  0  0  0  0  0  0  0  0  0  0
   68.7938   46.6009   53.3130 C   0  0  0  0  0  0  0  0  0  0  0  0
   69.8979   48.2111   51.8363 N   0  0  0  0  0  0  0  0  0  0  0  0
   70.1305   47.3658   50.9637 O   0  0  0  0  0  0  0  0  0  0  0  0
   70.1408   49.5268   51.5665 O   0  0  0  0  0  0  0  0  0  0  0  0
   67.9037   41.9188   56.9955 N   0  0  0  0  0  0  0  0  0  0  0  0
   68.0193   40.5176   56.8288 C   0  0  0  0  0  0  0  0  0  0  0  0
   67.7402   40.0750   55.6806 O   0  0  0  0  0  0  0  0  0  0  0  0
   68.4274   39.6061   57.8759 C   0  0  0  0  0  0  0  0  0  0  0  0
   69.7630   39.3659   58.0918 C   0  0  0  0  0  0  0  0  0  0  0  0
   70.1966   38.4918   59.0940 C   0  0  0  0  0  0  0  0  0  0  0  0
   69.2790   37.8640   59.8735 N   0  0  0  0  0  0  0  0  0  0  0  0
   67.9704   38.0796   59.6848 C   0  0  0  0  0  0  0  0  0  0  0  0
   67.5343   38.9476   58.6902 C   0  0  0  0  0  0  0  0  0  0  0  0
  1  2  2  0
  2  3  1  0
  2  4  1  0
  3 14  1  0
 14 15  1  0
 15 16  2  0
 15 17  1  0
 17 18  2  0
 17 22  1  0
 18 19  1  0
 19 20  2  0
 20 21  1  0
 21 22  2  0
  4  5  1  0
  5  6  2  0
  5 10  1  0
  6  7  1  0
  7  8  2  0
  8  9  1  0
  9 11  1  0
  9 10  2  0
 11 12  2  0
 11 13  1  0
M  CHG  2  11   1  13  -1
M  END
>  <minimizedAffinity>  (187) 
-8.55974

$$$$
data/reference_output_2/data/smiles/103253.pdb
     RDKit          3D

 28 31  0  0  0  0  0  0  0  0999 V2000
   70.4999   45.6163   58.1631 C   0  0  0  0  0  0  0  0  0  0  0  0
   71.6026   46.1075   58.8288 C   0  0  0  0  0  0  0  0  0  0  0  0
   71.9963   47.4383   58.6847 C   0  0  0  0  0  0  0  0  0  0  0  0
   71.2758   48.2812   57.8660 C   0  0  0  0  0  0  0  0  0  0  0  0
   70.1638   47.8270   57.1807 C   0  0  0  0  0  0  0  0  0  0  0  0
   69.8218   46.5095   57.3589 C   0  0  0  0  0  0  0  0  0  0  0  0
   68.9595   44.1876   56.3734 O   0  0  0  0  0  0  0  0  0  0  0  0
   69.3316   43.5413   57.4070 C   0  0  0  0  0  0  0  0  0  0  0  0
   70.1167   44.2537   58.3280 N   0  0  0  0  0  0  0  0  0  0  0  0
   68.9182   42.1525   57.5376 C   0  0  0  0  0  0  0  0  0  0  0  0
   69.3019   41.3622   58.5973 C   0  0  0  0  0  0  0  0  0  0  0  0
   68.8825   40.0321   58.6848 C   0  0  0  0  0  0  0  0  0  0  0  0
   68.0767   39.4720   57.7190 C   0  0  0  0  0  0  0  0  0  0  0  0
   67.6869   38.2650   57.7837 O   0  0  0  0  0  0  0  0  0  0  0  0
   67.7160   40.2637   56.6937 N   0  0  0  0  0  0  0  0  0  0  0  0
   68.1122   41.5599   56.5886 C   0  0  0  0  0  0  0  0  0  0  0  0
   69.3865   48.7384   56.2802 C   0  0  0  0  0  0  0  0  0  0  0  0
   69.6757   48.5839   54.8650 C   0  0  0  0  0  0  0  0  0  0  0  0
   70.6748   49.3426   54.3561 N   0  0  0  0  0  0  0  0  0  0  0  0
   71.0126   49.2897   53.0791 N   0  0  0  0  0  0  0  0  0  0  0  0
   70.3952   48.4881   52.2041 C   0  0  0  0  0  0  0  0  0  0  0  0
   70.7506   48.4751   51.0070 O   0  0  0  0  0  0  0  0  0  0  0  0
   69.3593   47.6798   52.6539 C   0  0  0  0  0  0  0  0  0  0  0  0
   69.0246   47.7511   53.9907 C   0  0  0  0  0  0  0  0  0  0  0  0
   67.9294   46.8930   54.4907 C   0  0  0  0  0  0  0  0  0  0  0  0
   67.7922   45.6178   53.6916 C   0  0  0  0  0  0  0  0  0  0  0  0
   67.6579   45.8885   52.2158 C   0  0  0  0  0  0  0  0  0  0  0  0
   68.6826   46.8059   51.6791 C   0  0  0  0  0  0  0  0  0  0  0  0
  7  8  2  0
  8  9  1  0
  8 10  1  0
  9  1  1  0
  1  2  2  0
  1  6  1  0
  2  3  1  0
  3  4  2  0
  4  5  1  0
  5 17  1  0
  5  6  2  0
 17 18  1  0
 18 19  2  0
 18 24  1  0
 19 20  1  0
 20 21  1  0
 21 22  2  0
 21 23  1  0
 23 24  2  0
 23 28  1  0
 24 25  1  0
 25 26  1  0
 26 27  1  0
 27 28  1  0
 10 11  1  0
 10 16  2  0
 11 12  2  0
 12 13  1  0
 13 14  2  0
 13 15  1  0
 15 16  1  0
M  END
>  <minimizedAffinity>  (188) 
-9.97238

$$$$
data/reference_output_2/data/smiles/103370.pdb
     RDKit          3D

 32 36  0  0  0  0  0  0  0  0999 V2000
   70.9480   46.1529   58.2297 C   0  0  0  0  0  0  0  0  0  0  0  0
   72.0163   46.9634   58.5693 C   0  0  0  0  0  0  0  0  0  0  0  0
   72.0567   48.2881   58.1602 C   0  0  0  0  0  0  0  0  0  0  0  0
   71.0326   48.8182   57.4099 C   0  0  0  0  0  0  0  0  0  0  0  0
   69.9560   48.0398   57.0550 C   0  0  0  0  0  0  0  0  0  0  0  0
   69.9457   46.7225   57.4784 C   0  0  0  0  0  0  0  0  0  0  0  0
   71.7135   43.9635   58.1395 O   0  0  0  0  0  0  0  0  0  0  0  0
   70.8884   44.7605   58.6508 C   0  0  0  0  0  0  0  0  0  0  0  0
   69.9769   44.2542   59.5852 N   0  0  0  0  0  0  0  0  0  0  0  0
   69.9172   42.8625   60.0070 C   0  0  1  0  0  0  0  0  0  0  0  0
   70.6134   42.7803   61.3476 C   0  0  0  0  0  0  0  0  0  0  0  0
   69.7490   43.2285   62.4200 N   0  0  0  0  0  0  0  0  0  0  0  0
   68.4298   42.7126   62.4462 C   0  0  0  0  0  0  0  0  0  0  0  0
   67.7769   42.6534   63.5455 O   0  0  0  0  0  0  0  0  0  0  0  0
   67.8382   42.2567   61.2047 C   0  0  0  0  0  0  0  0  0  0  0  0
   66.5433   41.7546   61.2545 C   0  0  0  0  0  0  0  0  0  0  0  0
   65.9616   41.3160   60.0871 C   0  0  0  0  0  0  0  0  0  0  0  0
   66.6702   41.3834   58.9042 C   0  0  0  0  0  0  0  0  0  0  0  0
   67.9744   41.8921   58.8757 C   0  0  0  0  0  0  0  0  0  0  0  0
   68.5519   42.3306   60.0451 C   0  0  0  0  0  0  0  0  0  0  0  0
   68.8233   48.5609   56.2457 C   0  0  0  0  0  0  0  0  0  0  0  0
   69.2600   48.5887   54.8290 C   0  0  0  0  0  0  0  0  0  0  0  0
   70.1043   49.5272   54.3680 N   0  0  0  0  0  0  0  0  0  0  0  0
   70.5112   49.5779   53.1120 N   0  0  0  0  0  0  0  0  0  0  0  0
   70.1111   48.6894   52.1906 C   0  0  0  0  0  0  0  0  0  0  0  0
   70.5215   48.7709   50.9993 O   0  0  0  0  0  0  0  0  0  0  0  0
   69.2368   47.6884   52.5916 C   0  0  0  0  0  0  0  0  0  0  0  0
   68.8007   46.7557   51.6766 C   0  0  0  0  0  0  0  0  0  0  0  0
   67.9430   45.7719   52.0692 C   0  0  0  0  0  0  0  0  0  0  0  0
   67.5172   45.7230   53.3955 C   0  0  0  0  0  0  0  0  0  0  0  0
   67.9537   46.6585   54.3156 C   0  0  0  0  0  0  0  0  0  0  0  0
   68.8188   47.6456   53.9049 C   0  0  0  0  0  0  0  0  0  0  0  0
  7  8  2  0
  8  9  1  0
  8  1  1  0
 10  9  1  1
 10 11  1  0
 10 20  1  0
 11 12  1  0
 12 13  1  0
 13 14  2  0
 13 15  1  0
 15 16  2  0
 15 20  1  0
 16 17  1  0
 17 18  2  0
 18 19  1  0
 19 20  2  0
  1  2  2  0
  1  6  1  0
  2  3  1  0
  3  4  2  0
  4  5  1  0
  5 21  1  0
  5  6  2  0
 21 22  1  0
 22 23  2  0
 22 32  1  0
 23 24  1  0
 24 25  1  0
 25 26  2  0
 25 27  1  0
 27 28  1  0
 27 32  2  0
 28 29  2  0
 29 30  1  0
 30 31  2  0
 31 32  1  0
M  END
>  <minimizedAffinity>  (189) 
-10.28934

$$$$
data/reference_output_2/data/smiles/103719.pdb
     RDKit          3D

 27 29  0  0  0  0  0  0  0  0999 V2000
   69.2487   43.7289   56.8587 N   0  0  0  0  0  0  0  0  0  0  0  0
   68.8082   42.5298   56.9918 C   0  0  0  0  0  0  0  0  0  0  0  0
   67.5353   42.0663   56.5145 C   0  0  0  0  0  0  0  0  0  0  0  0
   66.6773   42.7612   55.9028 O   0  0  0  0  0  0  0  0  0  0  0  0
   67.4550   40.6856   56.8724 N   0  0  0  0  0  0  0  0  0  0  0  0
   68.6349   40.2786   57.5555 C   0  0  0  0  0  0  0  0  0  0  0  0
   69.0623   39.0724   58.1063 C   0  0  0  0  0  0  0  0  0  0  0  0
   70.2878   38.9643   58.7263 C   0  0  0  0  0  0  0  0  0  0  0  0
   71.1315   40.0527   58.8180 C   0  0  0  0  0  0  0  0  0  0  0  0
   70.6844   41.2453   58.2609 C   0  0  0  0  0  0  0  0  0  0  0  0
   71.7081   42.6645   58.3455 Cl  0  0  0  0  0  0  0  0  0  0  0  0
   69.4624   41.3789   57.6363 C   0  0  0  0  0  0  0  0  0  0  0  0
   69.0222   46.0871   56.3937 C   0  0  0  0  0  0  0  0  0  0  0  0
   70.0437   46.3263   57.0913 O   0  0  0  0  0  0  0  0  0  0  0  0
   68.5455   44.7566   56.2263 N   0  0  0  0  0  0  0  0  0  0  0  0
   68.4093   48.4866   56.5883 C   0  0  0  0  0  0  0  0  0  0  0  0
   68.3230   47.2494   55.7472 C   0  0  1  0  0  0  0  0  0  0  0  0
   68.8878   47.5368   54.4185 C   0  0  0  0  0  0  0  0  0  0  0  0
   68.6724   46.7601   53.3099 C   0  0  0  0  0  0  0  0  0  0  0  0
   69.2464   47.1133   52.1082 C   0  0  0  0  0  0  0  0  0  0  0  0
   70.0433   48.2251   51.9422 C   0  0  0  0  0  0  0  0  0  0  0  0
   70.6011   48.5584   50.7501 F   0  0  0  0  0  0  0  0  0  0  0  0
   70.2574   49.0072   53.0701 C   0  0  0  0  0  0  0  0  0  0  0  0
   69.6900   48.6647   54.2746 C   0  0  0  0  0  0  0  0  0  0  0  0
   72.4314   39.9707   59.4657 C   0  0  0  0  0  0  0  0  0  0  0  0
   73.3533   39.3068   58.9509 O   0  0  0  0  0  0  0  0  0  0  0  0
   72.6883   40.6171   60.6587 O   0  0  0  0  0  0  0  0  0  0  0  0
 17 16  1  1
 17 13  1  0
 17 18  1  0
 13 14  2  0
 13 15  1  0
 15  1  1  0
  1  2  2  0
  2  3  1  0
  2 12  1  0
  3  4  2  0
  3  5  1  0
  5  6  1  0
  6  7  1  0
  6 12  2  0
  7  8  2  0
  8  9  1  0
  9 25  1  0
  9 10  2  0
 25 26  2  0
 25 27  1  0
 10 11  1  0
 10 12  1  0
 18 19  2  0
 18 24  1  0
 19 20  1  0
 20 21  2  0
 21 22  1  0
 21 23  1  0
 23 24  2  0
M  END
>  <minimizedAffinity>  (190) 
-8.57827

$$$$
data/reference_output_2/data/smiles/103831.pdb
     RDKit          3D

 24 26  0  0  0  0  0  0  0  0999 V2000
   72.3427   51.0331   54.9371 C   0  0  2  0  0  0  0  0  0  0  0  0
   70.5641   49.7939   53.5998 C   0  0  0  0  0  0  0  0  0  0  0  0
   70.2757   50.8634   52.9787 O   0  0  0  0  0  0  0  0  0  0  0  0
   71.5961   49.8567   54.5724 N   0  0  0  0  0  0  0  0  0  0  0  0
   68.0229   45.6744   54.8312 C   0  0  0  0  0  0  0  0  0  0  0  0
   68.5951   46.5871   53.8202 C   0  0  0  0  0  0  0  0  0  0  0  0
   68.4328   46.2973   52.4913 C   0  0  0  0  0  0  0  0  0  0  0  0
   68.9530   47.1287   51.5388 C   0  0  0  0  0  0  0  0  0  0  0  0
   69.6381   48.2531   51.9556 C   0  0  0  0  0  0  0  0  0  0  0  0
   69.8286   48.5880   53.2766 C   0  0  0  0  0  0  0  0  0  0  0  0
   69.2965   47.7382   54.2094 C   0  0  0  0  0  0  0  0  0  0  0  0
   73.7783   51.0012   54.6104 C   0  0  0  0  0  0  0  0  0  0  0  0
   74.1747   50.3376   53.6231 O   0  0  0  0  0  0  0  0  0  0  0  0
   74.7087   51.6737   55.3566 O   0  0  0  0  0  0  0  0  0  0  0  0
   72.0014   51.6180   56.2612 C   0  0  0  0  0  0  0  0  0  0  0  0
   70.6024   51.9549   56.4854 C   0  0  0  0  0  0  0  0  0  0  0  0
   70.0188   53.1904   56.3245 C   0  0  0  0  0  0  0  0  0  0  0  0
   68.7163   53.1185   56.6445 N   0  0  0  0  0  0  0  0  0  0  0  0
   68.4339   51.8534   57.0117 C   0  0  0  0  0  0  0  0  0  0  0  0
   67.2548   51.2637   57.4223 C   0  0  0  0  0  0  0  0  0  0  0  0
   67.1832   49.9280   57.7518 C   0  0  0  0  0  0  0  0  0  0  0  0
   68.3512   49.2056   57.6527 C   0  0  0  0  0  0  0  0  0  0  0  0
   69.5396   49.7617   57.2489 C   0  0  0  0  0  0  0  0  0  0  0  0
   69.6063   51.1102   56.9179 C   0  0  0  0  0  0  0  0  0  0  0  0
  5  6  1  0
  6  7  2  0
  6 11  1  0
  7  8  1  0
  8  9  2  0
  9 10  1  0
 10  2  1  0
 10 11  2  0
  2  3  2  0
  2  4  1  0
  4  1  1  0
  1 15  1  1
  1 12  1  0
 15 16  1  0
 16 17  2  0
 16 24  1  0
 17 18  1  0
 18 19  1  0
 19 20  1  0
 19 24  2  0
 20 21  2  0
 21 22  1  0
 22 23  2  0
 23 24  1  0
 12 13  2  0
 12 14  1  0
M  END
>  <minimizedAffinity>  (191) 
-8.52919

$$$$
data/reference_output_2/data/smiles/103934.pdb
     RDKit          3D

 19 20  0  0  0  0  0  0  0  0999 V2000
   68.8159   47.0078   54.8888 C   0  0  0  0  0  0  0  0  0  0  0  0
   68.0173   46.0549   54.2454 C   0  0  0  0  0  0  0  0  0  0  0  0
   67.8454   45.9932   52.8946 C   0  0  0  0  0  0  0  0  0  0  0  0
   67.0342   45.0072   52.3260 O   0  0  0  0  0  0  0  0  0  0  0  0
   68.4889   46.9176   52.1182 C   0  0  0  0  0  0  0  0  0  0  0  0
   68.3221   46.8662   50.7435 O   0  0  0  0  0  0  0  0  0  0  0  0
   69.2941   47.8890   52.6963 C   0  0  0  0  0  0  0  0  0  0  0  0
   69.4519   47.9286   54.0752 C   0  0  0  0  0  0  0  0  0  0  0  0
   69.9302   48.7953   51.8283 N   0  0  0  0  0  0  0  0  0  0  0  0
   70.6273   48.3870   50.8971 O   0  0  0  0  0  0  0  0  0  0  0  0
   69.7710   50.1387   52.0137 O   0  0  0  0  0  0  0  0  0  0  0  0
   69.1205   45.9338   56.9741 O   0  0  0  0  0  0  0  0  0  0  0  0
   68.9745   46.9796   56.3355 C   0  0  0  0  0  0  0  0  0  0  0  0
   68.9568   48.2669   57.0248 C   0  0  0  0  0  0  0  0  0  0  0  0
   67.7346   48.9254   57.2175 C   0  0  0  0  0  0  0  0  0  0  0  0
   67.6464   50.1699   57.8241 C   0  0  0  0  0  0  0  0  0  0  0  0
   68.8078   50.7732   58.2499 C   0  0  0  0  0  0  0  0  0  0  0  0
   70.0384   50.1553   58.0793 C   0  0  0  0  0  0  0  0  0  0  0  0
   70.0760   48.9290   57.4741 C   0  0  0  0  0  0  0  0  0  0  0  0
 12 13  2  0
 13 14  1  0
 13  1  1  0
 14 15  2  0
 14 19  1  0
 15 16  1  0
 16 17  2  0
 17 18  1  0
 18 19  2  0
  1  2  2  0
  1  8  1  0
  2  3  1  0
  3  4  1  0
  3  5  2  0
  5  6  1  0
  5  7  1  0
  7  9  1  0
  7  8  2  0
  9 10  2  0
  9 11  1  0
M  CHG  2   9   1  11  -1
M  END
>  <minimizedAffinity>  (192) 
-8.50363

$$$$
data/reference_output_2/data/smiles/104024.pdb
     RDKit          3D

 26 28  0  0  0  0  0  0  0  0999 V2000
   70.1258   41.9218   57.8811 C   0  0  0  0  0  0  0  0  0  0  0  0
   70.6194   40.8897   58.6424 C   0  0  0  0  0  0  0  0  0  0  0  0
   70.0052   39.6695   58.7488 C   0  0  0  0  0  0  0  0  0  0  0  0
   68.8342   39.4636   58.0582 C   0  0  0  0  0  0  0  0  0  0  0  0
   68.3065   40.5051   57.2706 C   0  0  0  0  0  0  0  0  0  0  0  0
   68.9476   41.7212   57.1856 C   0  0  0  0  0  0  0  0  0  0  0  0
   68.1452   42.5806   56.3133 C   0  0  0  0  0  0  0  0  0  0  0  0
   68.3867   43.7850   55.9906 N   0  0  0  0  0  0  0  0  0  0  0  0
   67.0004   41.8065   55.8867 C   0  0  0  0  0  0  0  0  0  0  0  0
   66.0506   42.1789   55.1139 O   0  0  0  0  0  0  0  0  0  0  0  0
   67.1299   40.5341   56.4931 N   0  0  0  0  0  0  0  0  0  0  0  0
   70.8469   43.1739   57.7826 C   0  0  0  0  0  0  0  0  0  0  0  0
   70.5843   45.5799   58.4087 C   0  0  0  0  0  0  0  0  0  0  0  0
   70.5965   44.1532   58.9032 C   0  0  0  0  0  0  0  0  0  0  0  0
   71.6727   44.0728   59.9706 C   0  0  0  0  0  0  0  0  0  0  0  0
   67.5882   44.5548   55.1592 N   0  0  0  0  0  0  0  0  0  0  0  0
   68.1628   45.7146   54.5981 C   0  0  0  0  0  0  0  0  0  0  0  0
   68.7002   46.7076   55.4049 C   0  0  0  0  0  0  0  0  0  0  0  0
   69.2609   47.8473   54.8842 C   0  0  0  0  0  0  0  0  0  0  0  0
   69.2921   48.0082   53.5251 C   0  0  0  0  0  0  0  0  0  0  0  0
   68.7722   47.0508   52.6905 C   0  0  0  0  0  0  0  0  0  0  0  0
   68.2049   45.8972   53.2429 C   0  0  0  0  0  0  0  0  0  0  0  0
   69.9934   49.4478   52.8476 S   0  0  0  0  0  0  0  0  0  0  0  0
   69.9005   49.3751   51.1236 N   0  0  0  0  0  0  0  0  0  0  0  0
   71.4794   49.4649   53.1909 O   0  0  0  0  0  0  0  0  0  0  0  0
   69.3637   50.7066   53.3807 O   0  0  0  0  0  0  0  0  0  0  0  0
 13 14  1  0
 14 15  1  0
 14 12  1  0
 12  1  1  0
  1  2  2  0
  1  6  1  0
  2  3  1  0
  3  4  2  0
  4  5  1  0
  5  6  2  0
  5 11  1  0
  6  7  1  0
  7  8  2  0
  7  9  1  0
  8 16  1  0
 16 17  1  0
 17 18  2  0
 17 22  1  0
 18 19  1  0
 19 20  2  0
 20 23  1  0
 20 21  1  0
 23 24  1  0
 23 25  2  0
 23 26  2  0
 21 22  2  0
  9 10  2  0
  9 11  1  0
M  END
>  <minimizedAffinity>  (193) 
-9.27969

$$$$
data/reference_output_2/data/smiles/104172.pdb
     RDKit          3D

 28 30  0  0  0  0  0  0  0  0999 V2000
   68.5329   46.4284   54.1171 C   0  0  0  0  0  0  0  0  0  0  0  0
   68.1508   46.2590   52.7587 C   0  0  0  0  0  0  0  0  0  0  0  0
   68.5494   47.1306   51.8060 C   0  0  0  0  0  0  0  0  0  0  0  0
   69.3483   48.2229   52.1218 C   0  0  0  0  0  0  0  0  0  0  0  0
   69.7442   48.4292   53.4220 C   0  0  0  0  0  0  0  0  0  0  0  0
   69.3220   47.5229   54.3730 C   0  0  0  0  0  0  0  0  0  0  0  0
   70.5938   49.5784   53.7938 C   0  0  0  0  0  0  0  0  0  0  0  0
   71.7795   49.6027   53.4126 O   0  0  0  0  0  0  0  0  0  0  0  0
   70.0776   50.6358   54.5684 N   0  0  0  0  0  0  0  0  0  0  0  0
   68.7166   50.6909   55.0498 C   0  0  0  0  0  0  0  0  0  0  0  0
   68.5189   52.1572   55.3341 C   0  0  2  0  0  0  0  0  0  0  0  0
   68.3172   52.8927   54.1705 O   0  0  0  0  0  0  0  0  0  0  0  0
   69.8537   52.5352   55.9546 C   0  0  2  0  0  0  0  0  0  0  0  0
   70.0482   53.8857   55.9685 F   0  0  0  0  0  0  0  0  0  0  0  0
   70.8004   51.8121   55.0071 C   0  0  0  0  0  0  0  0  0  0  0  0
   68.1394   45.5775   55.0266 O   0  0  0  0  0  0  0  0  0  0  0  0
   68.2114   42.3103   56.7261 C   0  0  0  0  0  0  0  0  0  0  0  0
   67.8386   43.3210   55.8317 C   0  0  0  0  0  0  0  0  0  0  0  0
   68.4059   44.5759   55.8071 C   0  0  0  0  0  0  0  0  0  0  0  0
   69.4052   44.7890   56.7537 N   0  0  0  0  0  0  0  0  0  0  0  0
   69.7954   43.8752   57.6189 C   0  0  0  0  0  0  0  0  0  0  0  0
   69.2088   42.6237   57.6222 C   0  0  0  0  0  0  0  0  0  0  0  0
   70.8862   44.2230   58.5954 C   0  0  0  0  0  0  0  0  0  0  0  0
   70.7697   43.4978   59.7545 F   0  0  0  0  0  0  0  0  0  0  0  0
   70.7960   45.5796   58.8140 F   0  0  0  0  0  0  0  0  0  0  0  0
   72.0794   43.9842   57.9328 F   0  0  0  0  0  0  0  0  0  0  0  0
   67.6213   40.3556   55.4071 N   0  0  0  0  0  0  0  0  0  0  0  0
   67.5513   40.9965   56.6813 C   0  0  0  0  0  0  0  0  0  0  0  0
 27 28  1  0
 28 17  1  0
 17 18  2  0
 17 22  1  0
 18 19  1  0
 19 16  1  0
 19 20  2  0
 16  1  1  0
  1  2  2  0
  1  6  1  0
  2  3  1  0
  3  4  2  0
  4  5  1  0
  5  7  1  0
  5  6  2  0
  7  8  2  0
  7  9  1  0
  9 10  1  0
  9 15  1  0
 10 11  1  0
 11 12  1  6
 11 13  1  0
 13 14  1  6
 13 15  1  0
 20 21  1  0
 21 23  1  0
 21 22  2  0
 23 24  1  0
 23 25  1  0
 23 26  1  0
M  CHG  1  27   1
M  END
>  <minimizedAffinity>  (194) 
-8.75293

$$$$
data/reference_output_2/data/smiles/104190.pdb
     RDKit          3D

 27 28  0  0  0  0  0  0  0  0999 V2000
   71.6047   51.6779   54.7012 C   0  0  2  0  0  0  0  0  0  0  0  0
   69.8498   52.9036   55.8760 C   0  0  0  0  0  0  0  0  0  0  0  0
   71.2204   52.2732   56.0292 C   0  0  0  0  0  0  0  0  0  0  0  0
   71.1123   51.2302   57.1143 C   0  0  0  0  0  0  0  0  0  0  0  0
   70.9900   50.3329   54.6594 N   0  0  0  0  0  0  0  0  0  0  0  0
   70.2564   49.9316   53.5242 C   0  0  0  0  0  0  0  0  0  0  0  0
   70.1865   50.8138   52.5869 O   0  0  0  0  0  0  0  0  0  0  0  0
   69.6003   48.6488   53.3417 C   0  0  0  0  0  0  0  0  0  0  0  0
   68.8314   48.0996   54.3776 C   0  0  0  0  0  0  0  0  0  0  0  0
   68.7068   48.7775   55.5505 F   0  0  0  0  0  0  0  0  0  0  0  0
   68.1907   46.8901   54.2587 C   0  0  0  0  0  0  0  0  0  0  0  0
   68.2791   46.1590   53.0990 C   0  0  0  0  0  0  0  0  0  0  0  0
   69.0278   46.6737   52.0645 C   0  0  0  0  0  0  0  0  0  0  0  0
   69.6794   47.9098   52.1972 C   0  0  0  0  0  0  0  0  0  0  0  0
   70.3750   48.2896   51.1066 F   0  0  0  0  0  0  0  0  0  0  0  0
   73.0707   51.4520   54.6110 C   0  0  0  0  0  0  0  0  0  0  0  0
   73.8245   52.4253   54.2998 O   0  0  0  0  0  0  0  0  0  0  0  0
   73.7109   50.2094   54.8487 N   0  0  0  0  0  0  0  0  0  0  0  0
   75.1194   50.0708   54.7436 N   0  0  0  0  0  0  0  0  0  0  0  0
   75.9650   50.2413   55.8647 C   0  0  0  0  0  0  0  0  0  0  0  0
   75.3901   50.5237   56.9598 O   0  0  0  0  0  0  0  0  0  0  0  0
   77.4106   50.1225   55.8632 C   0  0  0  0  0  0  0  0  0  0  0  0
   78.0504   49.0589   55.2737 C   0  0  0  0  0  0  0  0  0  0  0  0
   79.4477   48.9546   55.2786 C   0  0  0  0  0  0  0  0  0  0  0  0
   80.2254   49.9179   55.8775 C   0  0  0  0  0  0  0  0  0  0  0  0
   79.5877   50.9837   56.4696 C   0  0  0  0  0  0  0  0  0  0  0  0
   78.2108   51.0763   56.4573 C   0  0  0  0  0  0  0  0  0  0  0  0
  2  3  1  0
  3  4  1  0
  3  1  1  0
  1  5  1  1
  1 16  1  0
  5  6  1  0
  6  7  2  0
  6  8  1  0
  8  9  2  0
  8 14  1  0
  9 10  1  0
  9 11  1  0
 11 12  2  0
 12 13  1  0
 13 14  2  0
 14 15  1  0
 16 17  2  0
 16 18  1  0
 18 19  1  0
 19 20  1  0
 20 21  2  0
 20 22  1  0
 22 23  2  0
 22 27  1  0
 23 24  1  0
 24 25  2  0
 25 26  1  0
 26 27  2  0
M  END
>  <minimizedAffinity>  (195) 
-8.82456

$$$$
data/reference_output_2/data/smiles/104363.pdb
     RDKit          3D

 22 24  0  0  0  0  0  0  0  0999 V2000
   70.2194   49.0417   51.0066 O   0  0  0  0  0  0  0  0  0  0  0  0
   70.1330   49.2399   52.5312 S   0  0  0  0  0  0  0  0  0  0  0  0
   71.5985   49.1469   52.9467 O   0  0  0  0  0  0  0  0  0  0  0  0
   69.3039   47.9090   53.2612 C   0  0  0  0  0  0  0  0  0  0  0  0
   68.7393   46.9035   52.4678 C   0  0  0  0  0  0  0  0  0  0  0  0
   68.1277   45.7870   52.9866 C   0  0  0  0  0  0  0  0  0  0  0  0
   68.0555   45.6284   54.3339 C   0  0  0  0  0  0  0  0  0  0  0  0
   67.4356   44.4941   54.8390 O   0  0  0  0  0  0  0  0  0  0  0  0
   68.5998   46.6021   55.1654 C   0  0  0  0  0  0  0  0  0  0  0  0
   68.4821   46.4028   56.4945 N   0  0  0  0  0  0  0  0  0  0  0  0
   68.9618   47.3020   57.3714 C   0  0  0  0  0  0  0  0  0  0  0  0
   69.5779   48.4364   56.8511 C   0  0  0  0  0  0  0  0  0  0  0  0
   69.7083   48.6576   55.5077 C   0  0  0  0  0  0  0  0  0  0  0  0
   69.2107   47.7195   54.6240 C   0  0  0  0  0  0  0  0  0  0  0  0
   69.5655   50.7810   52.9091 N   0  0  0  0  0  0  0  0  0  0  0  0
   69.8127   51.6251   53.9946 C   0  0  0  0  0  0  0  0  0  0  0  0
   71.0907   51.9287   54.3877 C   0  0  0  0  0  0  0  0  0  0  0  0
   71.2919   52.7301   55.4906 C   0  0  0  0  0  0  0  0  0  0  0  0
   70.2220   53.2292   56.2011 C   0  0  0  0  0  0  0  0  0  0  0  0
   68.9388   52.9465   55.8359 C   0  0  0  0  0  0  0  0  0  0  0  0
   68.7514   52.1448   54.7331 C   0  0  0  0  0  0  0  0  0  0  0  0
   67.4584   51.8796   54.3923 F   0  0  0  0  0  0  0  0  0  0  0  0
  1  2  2  0
  2  3  2  0
  2 15  1  0
  2  4  1  0
 15 16  1  0
 16 17  2  0
 16 21  1  0
 17 18  1  0
 18 19  2  0
 19 20  1  0
 20 21  2  0
 21 22  1  0
  4  5  2  0
  4 14  1  0
  5  6  1  0
  6  7  2  0
  7  8  1  0
  7  9  1  0
  9 10  1  0
  9 14  2  0
 10 11  2  0
 11 12  1  0
 12 13  2  0
 13 14  1  0
M  END
>  <minimizedAffinity>  (196) 
-9.10441

$$$$
data/reference_output_2/data/smiles/104426.pdb
     RDKit          3D

 24 25  0  0  0  0  0  0  0  0999 V2000
   73.8544   50.2325   53.8844 O   0  0  0  0  0  0  0  0  0  0  0  0
   73.5958   51.2071   54.4525 C   0  0  0  0  0  0  0  0  0  0  0  0
   74.7309   51.6485   55.6895 N   0  0  0  0  0  0  0  0  0  0  0  0
   75.6117   50.4307   55.5094 C   0  0  0  0  0  0  0  0  0  0  0  0
   75.6556   49.6053   54.7124 O   0  0  0  0  0  0  0  0  0  0  0  0
   76.5638   50.4157   56.6605 N   0  0  0  0  0  0  0  0  0  0  0  0
   77.5560   49.4091   56.6712 C   0  0  0  0  0  0  0  0  0  0  0  0
   78.4626   49.4752   55.4986 C   0  0  0  0  0  0  0  0  0  0  0  0
   79.8934   49.1583   55.9342 C   0  0  0  0  0  0  0  0  0  0  0  0
   79.9511   47.9071   56.7650 C   0  0  0  0  0  0  0  0  0  0  0  0
   79.0326   47.9833   57.9444 C   0  0  0  0  0  0  0  0  0  0  0  0
   78.3705   49.3432   57.9673 C   0  0  0  0  0  0  0  0  0  0  0  0
   72.5250   52.1841   54.4088 C   0  0  0  0  0  0  0  0  0  0  0  0
   71.4643   51.8308   53.5730 O   0  0  0  0  0  0  0  0  0  0  0  0
   70.1778   51.6551   54.0417 C   0  0  0  0  0  0  0  0  0  0  0  0
   69.6694   52.5639   54.7421 O   0  0  0  0  0  0  0  0  0  0  0  0
   69.4603   50.4529   53.7272 C   0  0  0  0  0  0  0  0  0  0  0  0
   69.9359   49.2408   53.7210 C   0  0  0  0  0  0  0  0  0  0  0  0
   69.1970   48.0220   53.3970 C   0  0  0  0  0  0  0  0  0  0  0  0
   68.5950   47.2458   54.3568 C   0  0  0  0  0  0  0  0  0  0  0  0
   67.9090   46.1058   54.0082 C   0  0  0  0  0  0  0  0  0  0  0  0
   67.7922   45.6912   52.7099 C   0  0  0  0  0  0  0  0  0  0  0  0
   68.3901   46.4576   51.7251 C   0  0  0  0  0  0  0  0  0  0  0  0
   69.0690   47.5928   52.0969 C   0  0  0  0  0  0  0  0  0  0  0  0
  1  2  2  0
  2 13  1  0
  2  3  1  0
 13 14  1  0
 14 15  1  0
 15 16  2  0
 15 17  1  0
 17 18  2  0
 18 19  1  0
 19 20  2  0
 19 24  1  0
 20 21  1  0
 21 22  2  0
 22 23  1  0
 23 24  2  0
  3  4  1  0
  4  5  2  0
  4  6  1  0
  6  7  1  0
  7  8  1  0
  7 12  1  0
  8  9  1  0
  9 10  1  0
 10 11  1  0
 11 12  1  0
M  END
>  <minimizedAffinity>  (197) 
-8.65606

$$$$
data/reference_output_2/data/smiles/104439.pdb
     RDKit          3D

 26 27  0  0  0  0  0  0  0  0999 V2000
   69.8488   39.0826   58.6518 C   0  0  0  0  0  0  0  0  0  0  0  0
   68.6578   39.1379   57.9574 C   0  0  0  0  0  0  0  0  0  0  0  0
   68.2153   40.2898   57.3382 C   0  0  0  0  0  0  0  0  0  0  0  0
   68.9422   41.4598   57.3780 C   0  0  0  0  0  0  0  0  0  0  0  0
   70.1341   41.3990   58.0743 C   0  0  0  0  0  0  0  0  0  0  0  0
   70.5801   40.2513   58.6944 C   0  0  0  0  0  0  0  0  0  0  0  0
   71.3568   37.0723   58.7959 C   0  0  0  0  0  0  0  0  0  0  0  0
   71.9020   37.4806   57.7376 O   0  0  0  0  0  0  0  0  0  0  0  0
   70.2933   37.8853   59.2864 N   0  0  0  0  0  0  0  0  0  0  0  0
   72.2287   34.8023   58.3876 C   0  0  0  0  0  0  0  0  0  0  0  0
   71.8248   35.8462   59.4311 C   0  0  0  0  0  0  0  0  0  0  0  0
   70.7211   35.2730   60.2888 C   0  0  0  0  0  0  0  0  0  0  0  0
   73.0278   36.0443   60.3215 C   0  0  0  0  0  0  0  0  0  0  0  0
   68.4982   42.6914   56.7327 C   0  0  0  0  0  0  0  0  0  0  0  0
   67.5221   42.6213   55.9380 O   0  0  0  0  0  0  0  0  0  0  0  0
   69.0718   43.9675   56.9235 N   0  0  0  0  0  0  0  0  0  0  0  0
   68.5995   45.1250   56.2720 N   0  0  0  0  0  0  0  0  0  0  0  0
   69.1376   46.3995   56.4566 C   0  0  0  0  0  0  0  0  0  0  0  0
   70.1068   46.5368   57.2555 O   0  0  0  0  0  0  0  0  0  0  0  0
   68.5464   47.5420   55.7065 C   0  0  0  0  0  0  0  0  0  0  0  0
   68.5801   47.2863   54.2261 C   0  0  0  0  0  0  0  0  0  0  0  0
   69.4152   48.0124   53.4025 C   0  0  0  0  0  0  0  0  0  0  0  0
   69.4392   47.7720   52.0489 C   0  0  0  0  0  0  0  0  0  0  0  0
   68.6253   46.7984   51.5043 C   0  0  0  0  0  0  0  0  0  0  0  0
   67.7763   46.0535   52.3002 C   0  0  0  0  0  0  0  0  0  0  0  0
   67.7797   46.3221   53.6512 C   0  0  0  0  0  0  0  0  0  0  0  0
 10 11  1  0
 11 12  1  0
 11 13  1  0
 11  7  1  0
  7  8  2  0
  7  9  1  0
  9  1  1  0
  1  2  2  0
  1  6  1  0
  2  3  1  0
  3  4  2  0
  4 14  1  0
  4  5  1  0
 14 15  2  0
 14 16  1  0
 16 17  1  0
 17 18  1  0
 18 19  2  0
 18 20  1  0
 20 21  1  0
 21 22  2  0
 21 26  1  0
 22 23  1  0
 23 24  2  0
 24 25  1  0
 25 26  2  0
  5  6  2  0
M  END
>  <minimizedAffinity>  (198) 
-9.31557

$$$$
data/reference_output_2/data/smiles/104441.pdb
     RDKit          3D

 25 27  0  0  0  0  0  0  0  0999 V2000
   70.0834   46.4829   56.8170 N   0  0  0  0  0  0  0  0  0  0  0  0
   68.9972   47.1762   56.2529 C   0  0  0  0  0  0  0  0  0  0  0  0
   67.9267   47.2766   56.8288 O   0  0  0  0  0  0  0  0  0  0  0  0
   69.2446   47.7653   54.9147 C   0  0  0  0  0  0  0  0  0  0  0  0
   69.9602   48.9210   54.7225 C   0  0  0  0  0  0  0  0  0  0  0  0
   70.1548   49.3848   53.4856 O   0  0  0  0  0  0  0  0  0  0  0  0
   69.6938   48.7897   52.4144 C   0  0  0  0  0  0  0  0  0  0  0  0
   69.9230   49.2969   51.2627 O   0  0  0  0  0  0  0  0  0  0  0  0
   68.9650   47.6256   52.5202 C   0  0  0  0  0  0  0  0  0  0  0  0
   68.4769   46.9998   51.3963 C   0  0  0  0  0  0  0  0  0  0  0  0
   67.7546   45.8385   51.5782 C   0  0  0  0  0  0  0  0  0  0  0  0
   67.5351   45.3326   52.8472 C   0  0  0  0  0  0  0  0  0  0  0  0
   68.0338   45.9769   53.9540 C   0  0  0  0  0  0  0  0  0  0  0  0
   68.7506   47.1249   53.7999 C   0  0  0  0  0  0  0  0  0  0  0  0
   70.2089   45.7941   58.0454 C   0  0  0  0  0  0  0  0  0  0  0  0
   71.5442   41.6957   58.1498 C   0  0  0  0  0  0  0  0  0  0  0  0
   72.2935   42.7275   58.6723 C   0  0  0  0  0  0  0  0  0  0  0  0
   71.8643   44.0306   58.6336 C   0  0  0  0  0  0  0  0  0  0  0  0
   70.6268   44.3908   58.0527 C   0  0  0  0  0  0  0  0  0  0  0  0
   69.8879   43.3738   57.5361 C   0  0  0  0  0  0  0  0  0  0  0  0
   70.3437   42.0412   57.5857 C   0  0  0  0  0  0  0  0  0  0  0  0
   71.2078   39.4117   58.8783 C   0  0  0  0  0  0  0  0  0  0  0  0
   71.9759   40.3732   58.1899 O   0  0  0  0  0  0  0  0  0  0  0  0
   68.6553   43.6155   56.9427 O   0  0  0  0  0  0  0  0  0  0  0  0
   67.8945   42.6623   56.2769 C   0  0  0  0  0  0  0  0  0  0  0  0
 22 23  1  0
 23 16  1  0
 16 17  2  0
 16 21  1  0
 17 18  1  0
 18 19  2  0
 19 15  1  0
 19 20  1  0
 15  1  1  0
  1  2  1  0
  2  3  2  0
  2  4  1  0
  4  5  2  0
  4 14  1  0
  5  6  1  0
  6  7  1  0
  7  8  2  0
  7  9  1  0
  9 10  1  0
  9 14  2  0
 10 11  2  0
 11 12  1  0
 12 13  2  0
 13 14  1  0
 20 24  1  0
 20 21  2  0
 24 25  1  0
M  END
>  <minimizedAffinity>  (199) 
-8.63628

$$$$
data/reference_output_2/data/smiles/104556.pdb
     RDKit          3D

 28 32  0  0  0  0  0  0  0  0999 V2000
   75.2981   35.6732   53.5446 N   0  0  0  0  0  0  0  0  0  0  0  0
   74.0423   35.5593   53.0813 C   0  0  0  0  0  0  0  0  0  0  0  0
   73.2890   34.9466   54.0744 C   0  0  0  0  0  0  0  0  0  0  0  0
   74.0953   34.7101   55.0961 N   0  0  0  0  0  0  0  0  0  0  0  0
   75.3239   35.1467   54.7883 C   0  0  0  0  0  0  0  0  0  0  0  0
   76.4269   36.2563   52.8361 C   0  0  0  0  0  0  0  0  0  0  0  0
   77.8463   34.3497   52.8139 O   0  0  0  0  0  0  0  0  0  0  0  0
   77.1720   35.1900   52.1502 C   0  0  0  0  0  0  0  0  0  0  0  0
   77.1664   35.0575   50.7002 C   0  0  0  0  0  0  0  0  0  0  0  0
   78.0577   35.8197   49.9364 C   0  0  0  0  0  0  0  0  0  0  0  0
   78.0784   35.7208   48.5620 C   0  0  0  0  0  0  0  0  0  0  0  0
   77.2368   34.8822   47.8652 C   0  0  0  0  0  0  0  0  0  0  0  0
   77.2540   34.7811   46.4906 C   0  0  0  0  0  0  0  0  0  0  0  0
   76.4040   33.9346   45.7999 C   0  0  0  0  0  0  0  0  0  0  0  0
   75.5174   33.1768   46.5408 C   0  0  0  0  0  0  0  0  0  0  0  0
   75.5068   33.2833   47.9231 C   0  0  0  0  0  0  0  0  0  0  0  0
   76.3556   34.1285   48.6052 C   0  0  0  0  0  0  0  0  0  0  0  0
   76.3276   34.2203   50.0003 C   0  0  0  0  0  0  0  0  0  0  0  0
   73.7352   34.0738   56.3718 C   0  0  0  0  0  0  0  0  0  0  0  0
   72.9346   35.0574   57.1607 C   0  0  0  0  0  0  0  0  0  0  0  0
   72.1857   34.7384   58.2871 C   0  0  0  0  0  0  0  0  0  0  0  0
   71.5991   35.8925   58.7300 C   0  0  0  0  0  0  0  0  0  0  0  0
   70.7554   36.2324   59.7807 C   0  0  0  0  0  0  0  0  0  0  0  0
   70.3178   37.5058   59.9833 C   0  0  0  0  0  0  0  0  0  0  0  0
   70.7230   38.5026   59.1171 C   0  0  0  0  0  0  0  0  0  0  0  0
   71.5621   38.1869   58.0654 C   0  0  0  0  0  0  0  0  0  0  0  0
   72.0107   36.8791   57.8596 C   0  0  0  0  0  0  0  0  0  0  0  0
   72.7915   36.3339   56.9584 O   0  0  0  0  0  0  0  0  0  0  0  0
  7  8  2  0
  8  6  1  0
  8  9  1  0
  6  1  1  0
  1  2  1  0
  1  5  2  0
  2  3  2  0
  3  4  1  0
  4 19  1  0
  4  5  1  0
 19 20  1  0
 20 21  2  0
 20 28  1  0
 21 22  1  0
 22 23  2  0
 22 27  1  0
 23 24  1  0
 24 25  2  0
 25 26  1  0
 26 27  2  0
 27 28  1  0
  9 10  2  0
  9 18  1  0
 10 11  1  0
 11 12  2  0
 12 13  1  0
 12 17  1  0
 13 14  2  0
 14 15  1  0
 15 16  2  0
 16 17  1  0
 17 18  2  0
M  CHG  1   1   1
M  END
>  <minimizedAffinity>  (200) 
-9.45671

$$$$
data/reference_output_2/data/smiles/104615.pdb
     RDKit          3D

 26 29  0  0  0  0  0  0  0  0999 V2000
   71.0009   45.6548   58.2152 C   0  0  0  0  0  0  0  0  0  0  0  0
   71.9822   46.4198   58.7885 C   0  0  0  0  0  0  0  0  0  0  0  0
   72.0229   47.8085   58.5986 C   0  0  0  0  0  0  0  0  0  0  0  0
   71.0509   48.4045   57.8172 C   0  0  0  0  0  0  0  0  0  0  0  0
   70.0598   47.6696   57.2295 C   0  0  0  0  0  0  0  0  0  0  0  0
   70.0650   46.2911   57.4517 C   0  0  0  0  0  0  0  0  0  0  0  0
   72.4005   40.8235   58.6305 C   0  0  0  0  0  0  0  0  0  0  0  0
   71.5365   41.9591   58.4221 N   0  0  0  0  0  0  0  0  0  0  0  0
   70.0901   42.0295   58.5701 C   0  0  0  0  0  0  0  0  0  0  0  0
   69.9833   43.4508   59.0801 C   0  0  0  0  0  0  0  0  0  0  0  0
   69.1706   43.8838   59.9253 O   0  0  0  0  0  0  0  0  0  0  0  0
   70.9865   44.2303   58.4237 N   0  0  0  0  0  0  0  0  0  0  0  0
   71.9619   43.2822   58.0121 C   0  0  0  0  0  0  0  0  0  0  0  0
   73.0413   43.4709   57.3923 O   0  0  0  0  0  0  0  0  0  0  0  0
   68.9781   48.2424   56.3540 C   0  0  0  0  0  0  0  0  0  0  0  0
   69.3521   48.3074   54.9456 C   0  0  0  0  0  0  0  0  0  0  0  0
   70.2290   49.2736   54.5498 N   0  0  0  0  0  0  0  0  0  0  0  0
   70.5990   49.4382   53.3003 N   0  0  0  0  0  0  0  0  0  0  0  0
   70.1388   48.6617   52.3127 C   0  0  0  0  0  0  0  0  0  0  0  0
   70.5044   48.8381   51.1329 O   0  0  0  0  0  0  0  0  0  0  0  0
   69.2472   47.6630   52.6473 C   0  0  0  0  0  0  0  0  0  0  0  0
   68.7601   46.8414   51.6711 C   0  0  0  0  0  0  0  0  0  0  0  0
   67.8798   45.8264   51.9608 C   0  0  0  0  0  0  0  0  0  0  0  0
   67.4847   45.6464   53.2846 C   0  0  0  0  0  0  0  0  0  0  0  0
   67.9878   46.4832   54.2416 C   0  0  0  0  0  0  0  0  0  0  0  0
   68.8609   47.4943   53.9640 C   0  0  0  0  0  0  0  0  0  0  0  0
  7  8  1  0
  8  9  1  0
  8 13  1  0
  9 10  1  0
 10 11  2  0
 10 12  1  0
 12  1  1  0
 12 13  1  0
  1  2  2  0
  1  6  1  0
  2  3  1  0
  3  4  2  0
  4  5  1  0
  5 15  1  0
  5  6  2  0
 15 16  1  0
 16 17  2  0
 16 26  1  0
 17 18  1  0
 18 19  1  0
 19 20  2  0
 19 21  1  0
 21 22  1  0
 21 26  2  0
 22 23  2  0
 23 24  1  0
 24 25  2  0
 25 26  1  0
 13 14  2  0
M  END
>  <minimizedAffinity>  (201) 
-8.91703

$$$$
data/reference_output_2/data/smiles/104677.pdb
     RDKit          3D

 25 28  0  0  0  0  0  0  0  0999 V2000
   70.3535   47.8310   57.3897 O   0  0  0  0  0  0  0  0  0  0  0  0
   70.0985   46.5952   57.3685 C   0  0  0  0  0  0  0  0  0  0  0  0
   70.9346   45.7391   58.0225 C   0  0  0  0  0  0  0  0  0  0  0  0
   70.6179   44.3584   57.9785 C   0  0  0  0  0  0  0  0  0  0  0  0
   69.5031   43.9841   57.2904 C   0  0  0  0  0  0  0  0  0  0  0  0
   68.7300   44.9265   56.6678 N   0  0  0  0  0  0  0  0  0  0  0  0
   69.0038   46.2163   56.6929 N   0  0  0  0  0  0  0  0  0  0  0  0
   69.0553   42.5906   57.2202 C   0  0  0  0  0  0  0  0  0  0  0  0
   67.9608   42.1642   56.5068 C   0  0  0  0  0  0  0  0  0  0  0  0
   67.6024   40.8264   56.4446 C   0  0  0  0  0  0  0  0  0  0  0  0
   68.3751   39.9012   57.1239 C   0  0  0  0  0  0  0  0  0  0  0  0
   69.4702   40.3370   57.8369 C   0  0  0  0  0  0  0  0  0  0  0  0
   69.8252   41.6868   57.8951 C   0  0  0  0  0  0  0  0  0  0  0  0
   70.9867   42.0341   58.7150 C   0  0  0  0  0  0  0  0  0  0  0  0
   71.5080   43.4103   58.6250 C   0  0  0  0  0  0  0  0  0  0  0  0
   68.1676   47.2005   56.0168 C   0  0  0  0  0  0  0  0  0  0  0  0
   68.4000   47.0708   54.5698 C   0  0  0  0  0  0  0  0  0  0  0  0
   67.7690   46.1348   53.7894 C   0  0  0  0  0  0  0  0  0  0  0  0
   68.0217   46.0555   52.4143 C   0  0  0  0  0  0  0  0  0  0  0  0
   68.9077   46.9128   51.8109 C   0  0  0  0  0  0  0  0  0  0  0  0
   69.5427   47.8517   52.5884 C   0  0  0  0  0  0  0  0  0  0  0  0
   69.2813   47.9139   53.9339 C   0  0  0  0  0  0  0  0  0  0  0  0
   70.4608   48.7430   51.9754 N   0  0  0  0  0  0  0  0  0  0  0  0
   70.1787   49.3197   50.9168 O   0  0  0  0  0  0  0  0  0  0  0  0
   71.6951   49.0053   52.5244 O   0  0  0  0  0  0  0  0  0  0  0  0
  1  2  2  0
  2  3  1  0
  2  7  1  0
  3  4  2  0
  4  5  1  0
  4 15  1  0
  5  6  2  0
  5  8  1  0
  6  7  1  0
  7 16  1  0
 16 17  1  0
 17 18  2  0
 17 22  1  0
 18 19  1  0
 19 20  2  0
 20 21  1  0
 21 23  1  0
 21 22  2  0
 23 24  2  0
 23 25  1  0
  8  9  2  0
  8 13  1  0
  9 10  1  0
 10 11  2  0
 11 12  1  0
 12 13  2  0
 13 14  1  0
 14 15  1  0
M  CHG  2  23   1  25  -1
M  END
>  <minimizedAffinity>  (202) 
-9.05694

$$$$
data/reference_output_2/data/smiles/104925.pdb
     RDKit          3D

 23 24  0  0  0  0  0  0  0  0999 V2000
   70.9498   50.8025   53.6208 O   0  0  0  0  0  0  0  0  0  0  0  0
   69.7391   50.3423   53.7018 C   0  0  0  0  0  0  0  0  0  0  0  0
   68.8278   51.2594   54.2822 N   0  0  0  0  0  0  0  0  0  0  0  0
   69.4483   49.0240   53.2250 C   0  0  0  0  0  0  0  0  0  0  0  0
   68.9669   48.1141   54.1656 C   0  0  0  0  0  0  0  0  0  0  0  0
   68.6676   46.8314   53.7769 C   0  0  0  0  0  0  0  0  0  0  0  0
   68.8683   46.4989   52.4293 C   0  0  0  0  0  0  0  0  0  0  0  0
   69.3262   47.3705   51.5453 N   0  0  0  0  0  0  0  0  0  0  0  0
   69.6280   48.6496   51.9137 C   0  0  0  0  0  0  0  0  0  0  0  0
   70.0536   49.4096   51.0254 O   0  0  0  0  0  0  0  0  0  0  0  0
   68.1862   45.8924   54.7000 N   0  0  0  0  0  0  0  0  0  0  0  0
   67.8272   44.7463   54.3546 O   0  0  0  0  0  0  0  0  0  0  0  0
   68.0934   46.2090   56.0296 O   0  0  0  0  0  0  0  0  0  0  0  0
   69.2041   52.5666   54.7248 C   0  0  0  0  0  0  0  0  0  0  0  0
   69.0652   52.9259   56.1579 C   0  0  0  0  0  0  0  0  0  0  0  0
   69.5343   51.8405   57.0552 C   0  0  0  0  0  0  0  0  0  0  0  0
   70.9252   51.7540   57.2578 C   0  0  0  0  0  0  0  0  0  0  0  0
   71.4981   50.7525   57.9963 C   0  0  0  0  0  0  0  0  0  0  0  0
   70.6591   49.8102   58.5473 C   0  0  0  0  0  0  0  0  0  0  0  0
   71.4131   48.5194   59.4900 Cl  0  0  0  0  0  0  0  0  0  0  0  0
   69.3112   49.8625   58.3740 C   0  0  0  0  0  0  0  0  0  0  0  0
   68.7547   50.8893   57.6223 C   0  0  0  0  0  0  0  0  0  0  0  0
   66.9918   50.9604   57.5117 Cl  0  0  0  0  0  0  0  0  0  0  0  0
  1  2  2  0
  2  3  1  0
  2  4  1  0
  3 14  1  0
 14 15  1  0
 15 16  1  0
 16 17  2  0
 16 22  1  0
 17 18  1  0
 18 19  2  0
 19 20  1  0
 19 21  1  0
 21 22  2  0
 22 23  1  0
  4  5  2  0
  4  9  1  0
  5  6  1  0
  6 11  1  0
  6  7  2  0
 11 12  2  0
 11 13  1  0
  7  8  1  0
  8  9  1  0
  9 10  2  0
M  CHG  2  11   1  13  -1
M  END
>  <minimizedAffinity>  (203) 
-8.56946

$$$$
data/reference_output_2/data/smiles/104957.pdb
     RDKit          3D

 30 33  0  0  0  0  0  0  0  0999 V2000
   68.2615   42.6744   58.7074 O   0  0  0  0  0  0  0  0  0  0  0  0
   69.4020   42.3444   59.1003 C   0  0  0  0  0  0  0  0  0  0  0  0
   69.6901   40.9751   59.2866 N   0  0  0  0  0  0  0  0  0  0  0  0
   71.0004   40.5679   59.7413 C   0  0  0  0  0  0  0  0  0  0  0  0
   71.5346   39.5754   58.7337 C   0  0  0  0  0  0  0  0  0  0  0  0
   70.6062   38.4687   58.6813 N   0  0  0  0  0  0  0  0  0  0  0  0
   69.2218   38.7264   58.4034 C   0  0  0  0  0  0  0  0  0  0  0  0
   68.6973   39.9830   59.0301 C   0  0  0  0  0  0  0  0  0  0  0  0
   71.0072   37.1175   58.8960 C   0  0  0  0  0  0  0  0  0  0  0  0
   70.5264   36.4335   60.0167 C   0  0  0  0  0  0  0  0  0  0  0  0
   70.8933   35.1366   60.2463 C   0  0  0  0  0  0  0  0  0  0  0  0
   71.7472   34.4481   59.3924 C   0  0  0  0  0  0  0  0  0  0  0  0
   72.2173   35.1128   58.3000 C   0  0  0  0  0  0  0  0  0  0  0  0
   71.8507   36.4341   58.0525 C   0  0  0  0  0  0  0  0  0  0  0  0
   72.3416   37.0453   56.9616 F   0  0  0  0  0  0  0  0  0  0  0  0
   70.3932   43.4296   59.3498 C   0  0  0  0  0  0  0  0  0  0  0  0
   69.8265   44.7255   59.2283 N   0  0  0  0  0  0  0  0  0  0  0  0
   70.8266   45.9641   58.6821 S   0  0  0  0  0  0  0  0  0  0  0  0
   72.1125   45.3840   58.1425 O   0  0  0  0  0  0  0  0  0  0  0  0
   71.2505   46.7958   59.8898 O   0  0  0  0  0  0  0  0  0  0  0  0
   70.1617   47.0397   57.5070 C   0  0  0  0  0  0  0  0  0  0  0  0
   70.3418   48.3908   57.4507 C   0  0  0  0  0  0  0  0  0  0  0  0
   69.8110   49.2124   56.4781 C   0  0  0  0  0  0  0  0  0  0  0  0
   69.0483   48.6561   55.4897 C   0  0  0  0  0  0  0  0  0  0  0  0
   68.8366   47.2938   55.5022 C   0  0  0  0  0  0  0  0  0  0  0  0
   68.0650   46.6800   54.5123 C   0  0  0  0  0  0  0  0  0  0  0  0
   67.8666   45.3337   54.5408 C   0  0  0  0  0  0  0  0  0  0  0  0
   68.4137   44.5571   55.5271 C   0  0  0  0  0  0  0  0  0  0  0  0
   69.1549   45.1595   56.4737 N   0  0  0  0  0  0  0  0  0  0  0  0
   69.3744   46.4975   56.4790 C   0  0  0  0  0  0  0  0  0  0  0  0
  1  2  2  0
  2 16  1  0
  2  3  1  0
 16 17  1  0
 17 18  1  0
 18 19  2  0
 18 20  2  0
 18 21  1  0
 21 22  2  0
 21 30  1  0
 22 23  1  0
 23 24  2  0
 24 25  1  0
 25 26  1  0
 25 30  2  0
 26 27  2  0
 27 28  1  0
 28 29  2  0
 29 30  1  0
  3  4  1  0
  3  8  1  0
  4  5  1  0
  5  6  1  0
  6  9  1  0
  6  7  1  0
  9 10  2  0
  9 14  1  0
 10 11  1  0
 11 12  2  0
 12 13  1  0
 13 14  2  0
 14 15  1  0
  7  8  1  0
M  END
>  <minimizedAffinity>  (204) 
-8.50020

$$$$
data/reference_output_2/data/smiles/105004.pdb
     RDKit          3D

 26 28  0  0  0  0  0  0  0  0999 V2000
   68.3537   46.6751   53.1319 C   0  0  0  0  0  0  0  0  0  0  0  0
   68.2416   46.8389   54.5279 C   0  0  0  0  0  0  0  0  0  0  0  0
   68.9217   47.7704   55.2516 C   0  0  0  0  0  0  0  0  0  0  0  0
   69.7842   48.6270   54.6200 C   0  0  0  0  0  0  0  0  0  0  0  0
   69.9170   48.4924   53.2515 C   0  0  0  0  0  0  0  0  0  0  0  0
   69.2207   47.5405   52.5181 C   0  0  0  0  0  0  0  0  0  0  0  0
   69.4045   47.4801   51.1923 F   0  0  0  0  0  0  0  0  0  0  0  0
   70.5726   49.6714   55.2893 C   0  0  0  0  0  0  0  0  0  0  0  0
   70.3350   49.7279   56.7770 C   0  0  0  0  0  0  0  0  0  0  0  0
   70.1349   48.2943   57.2495 C   0  0  2  0  0  0  0  0  0  0  0  0
   68.7551   47.8858   56.7111 C   0  0  0  0  0  0  0  0  0  0  0  0
   67.3822   44.5639   53.0885 O   0  0  0  0  0  0  0  0  0  0  0  0
   67.5796   45.6405   52.4821 C   0  0  0  0  0  0  0  0  0  0  0  0
   67.0283   45.7617   51.2036 N   0  0  0  0  0  0  0  0  0  0  0  0
   66.2927   44.7170   50.6478 O   0  0  0  0  0  0  0  0  0  0  0  0
   70.2221   48.1552   58.6600 N   0  0  0  0  0  0  0  0  0  0  0  0
   71.6159   47.2548   59.1129 S   0  0  0  0  0  0  0  0  0  0  0  0
   72.8812   47.9328   58.6796 O   0  0  0  0  0  0  0  0  0  0  0  0
   71.6635   47.2097   60.6336 O   0  0  0  0  0  0  0  0  0  0  0  0
   71.5316   45.6129   58.5590 C   0  0  0  0  0  0  0  0  0  0  0  0
   70.3362   44.9662   58.3387 C   0  0  0  0  0  0  0  0  0  0  0  0
   70.2661   43.6621   57.8973 C   0  0  0  0  0  0  0  0  0  0  0  0
   71.4373   42.9743   57.6661 C   0  0  0  0  0  0  0  0  0  0  0  0
   72.6487   43.5892   57.8753 C   0  0  0  0  0  0  0  0  0  0  0  0
   74.1240   42.6739   57.5664 Cl  0  0  0  0  0  0  0  0  0  0  0  0
   72.6977   44.8900   58.3152 C   0  0  0  0  0  0  0  0  0  0  0  0
 12 13  2  0
 13 14  1  0
 13  1  1  0
 14 15  1  0
  1  2  2  0
  1  6  1  0
  2  3  1  0
  3  4  2  0
  3 11  1  0
  4  5  1  0
  4  8  1  0
  5  6  2  0
  6  7  1  0
  8  9  1  0
  9 10  1  0
 10 16  1  1
 10 11  1  0
 16 17  1  0
 17 18  2  0
 17 19  2  0
 17 20  1  0
 20 21  2  0
 20 26  1  0
 21 22  1  0
 22 23  2  0
 23 24  1  0
 24 25  1  0
 24 26  2  0
M  END
>  <minimizedAffinity>  (205) 
-8.55089

$$$$
data/reference_output_2/data/smiles/105069.pdb
     RDKit          3D

 19 21  0  0  0  0  0  0  0  0999 V2000
   66.7534   45.3565   50.9717 N   0  0  0  0  0  0  0  0  0  0  0  0
   67.6557   46.1270   51.7354 C   0  0  0  0  0  0  0  0  0  0  0  0
   67.7166   46.0331   53.1106 C   0  0  0  0  0  0  0  0  0  0  0  0
   68.6011   46.7915   53.8345 C   0  0  0  0  0  0  0  0  0  0  0  0
   69.4360   47.6541   53.1603 C   0  0  0  0  0  0  0  0  0  0  0  0
   70.3943   48.5149   53.5516 N   0  0  0  0  0  0  0  0  0  0  0  0
   70.8849   49.0992   52.4511 N   0  0  0  0  0  0  0  0  0  0  0  0
   70.2918   48.6562   51.3782 N   0  0  0  0  0  0  0  0  0  0  0  0
   69.3745   47.7445   51.7924 C   0  0  0  0  0  0  0  0  0  0  0  0
   68.4980   46.9913   51.1104 N   0  0  0  0  0  0  0  0  0  0  0  0
   68.6454   46.6306   55.5836 S   0  0  0  0  0  0  0  0  0  0  0  0
   69.4337   47.9749   56.4586 C   0  0  0  0  0  0  0  0  0  0  0  0
   68.5372   49.0735   56.8235 C   0  0  0  0  0  0  0  0  0  0  0  0
   67.4492   48.8255   57.6403 C   0  0  0  0  0  0  0  0  0  0  0  0
   66.5545   49.8137   58.0150 C   0  0  0  0  0  0  0  0  0  0  0  0
   66.7977   51.0826   57.5302 C   0  0  0  0  0  0  0  0  0  0  0  0
   67.8860   51.3357   56.7122 C   0  0  0  0  0  0  0  0  0  0  0  0
   68.7696   50.3306   56.3487 C   0  0  0  0  0  0  0  0  0  0  0  0
   69.8378   50.6355   55.5392 F   0  0  0  0  0  0  0  0  0  0  0  0
  1  2  1  0
  2  3  2  0
  2 10  1  0
  3  4  1  0
  4 11  1  0
  4  5  2  0
 11 12  1  0
 12 13  1  0
 13 14  2  0
 13 18  1  0
 14 15  1  0
 15 16  2  0
 16 17  1  0
 17 18  2  0
 18 19  1  0
  5  6  1  0
  5  9  1  0
  6  7  2  0
  7  8  1  0
  8  9  1  0
  9 10  2  0
M  END
>  <minimizedAffinity>  (206) 
-8.95303

$$$$
data/reference_output_2/data/smiles/105265.pdb
     RDKit          3D

 32 36  0  0  0  0  0  0  0  0999 V2000
   69.2726   39.6279   59.0550 S   0  0  0  0  0  0  0  0  0  0  0  0
   68.3598   39.6604   60.2234 O   0  0  0  0  0  0  0  0  0  0  0  0
   69.0885   38.2686   58.3911 O   0  0  0  0  0  0  0  0  0  0  0  0
   71.2904   39.2064   60.7057 C   0  0  1  0  0  0  0  0  0  0  0  0
   70.8327   37.7600   60.8593 C   0  0  0  0  0  0  0  0  0  0  0  0
   71.3540   37.0131   59.7124 C   0  0  0  0  0  0  0  0  0  0  0  0
   71.4474   35.6249   59.7520 C   0  0  0  0  0  0  0  0  0  0  0  0
   71.9312   34.9160   58.6904 C   0  0  0  0  0  0  0  0  0  0  0  0
   72.3420   35.5658   57.5454 C   0  0  0  0  0  0  0  0  0  0  0  0
   72.2472   36.9409   57.5131 C   0  0  0  0  0  0  0  0  0  0  0  0
   71.7618   37.6612   58.5751 C   0  0  0  0  0  0  0  0  0  0  0  0
   71.7114   39.1460   58.4126 C   0  0  0  0  0  0  0  0  0  0  0  0
   70.9271   39.7710   59.4554 N   0  0  0  0  0  0  0  0  0  0  0  0
   70.9451   41.2879   61.7882 O   0  0  0  0  0  0  0  0  0  0  0  0
   70.8539   40.0355   61.8684 C   0  0  0  0  0  0  0  0  0  0  0  0
   70.3432   39.4826   63.0563 N   0  0  0  0  0  0  0  0  0  0  0  0
   69.9545   40.2744   64.1003 O   0  0  0  0  0  0  0  0  0  0  0  0
   68.7523   40.8180   57.9003 C   0  0  0  0  0  0  0  0  0  0  0  0
   67.7944   40.5110   56.9646 C   0  0  0  0  0  0  0  0  0  0  0  0
   67.4334   41.5058   56.0833 C   0  0  0  0  0  0  0  0  0  0  0  0
   68.0045   42.7590   56.1292 C   0  0  0  0  0  0  0  0  0  0  0  0
   67.8089   43.8590   55.3828 N   0  0  0  0  0  0  0  0  0  0  0  0
   68.6304   44.8119   55.8550 C   0  0  0  0  0  0  0  0  0  0  0  0
   69.3481   44.3466   56.8866 N   0  0  0  0  0  0  0  0  0  0  0  0
   68.9720   43.0691   57.0720 C   0  0  0  0  0  0  0  0  0  0  0  0
   69.3346   42.0670   57.9603 C   0  0  0  0  0  0  0  0  0  0  0  0
   68.7459   46.1673   55.3381 C   0  0  0  0  0  0  0  0  0  0  0  0
   68.5330   46.4199   54.0014 C   0  0  0  0  0  0  0  0  0  0  0  0
   68.6371   47.6989   53.4879 C   0  0  0  0  0  0  0  0  0  0  0  0
   68.9596   48.7534   54.3227 C   0  0  0  0  0  0  0  0  0  0  0  0
   69.1769   48.5220   55.6667 C   0  0  0  0  0  0  0  0  0  0  0  0
   69.0652   47.2371   56.1436 C   0  0  0  0  0  0  0  0  0  0  0  0
 14 15  2  0
 15 16  1  0
  4 15  1  1
 16 17  1  0
  4  5  1  0
  4 13  1  0
  5  6  1  0
  6  7  1  0
  6 11  2  0
  7  8  2  0
  8  9  1  0
  9 10  2  0
 10 11  1  0
 11 12  1  0
 12 13  1  0
 13  1  1  0
  1  2  2  0
  1  3  2  0
  1 18  1  0
 18 19  2  0
 18 26  1  0
 19 20  1  0
 20 21  2  0
 21 22  1  0
 21 25  1  0
 22 23  1  0
 23 27  1  0
 23 24  2  0
 27 28  2  0
 27 32  1  0
 28 29  1  0
 29 30  2  0
 30 31  1  0
 31 32  2  0
 24 25  1  0
 25 26  2  0
M  CHG  1  24   1
M  END
>  <minimizedAffinity>  (207) 
-9.09632

$$$$
data/reference_output_2/data/smiles/105454.pdb
     RDKit          3D

 25 27  0  0  0  0  0  0  0  0999 V2000
   72.1308   50.8649   54.6367 C   0  0  2  0  0  0  0  0  0  0  0  0
   70.1184   50.5638   52.8681 O   0  0  0  0  0  0  0  0  0  0  0  0
   70.3412   49.5327   53.5652 C   0  0  0  0  0  0  0  0  0  0  0  0
   71.3906   49.6855   54.4898 N   0  0  0  0  0  0  0  0  0  0  0  0
   69.5498   48.3110   53.3880 C   0  0  0  0  0  0  0  0  0  0  0  0
   69.1915   47.5230   54.4663 C   0  0  0  0  0  0  0  0  0  0  0  0
   68.4459   46.3762   54.2917 C   0  0  0  0  0  0  0  0  0  0  0  0
   68.0970   45.6068   55.3476 F   0  0  0  0  0  0  0  0  0  0  0  0
   68.0342   45.9796   53.0467 C   0  0  0  0  0  0  0  0  0  0  0  0
   68.3791   46.7495   51.9546 C   0  0  0  0  0  0  0  0  0  0  0  0
   67.9982   46.3989   50.7042 F   0  0  0  0  0  0  0  0  0  0  0  0
   69.1244   47.8903   52.1536 C   0  0  0  0  0  0  0  0  0  0  0  0
   73.5779   50.5166   54.4829 C   0  0  0  0  0  0  0  0  0  0  0  0
   74.0506   50.0805   53.3977 O   0  0  0  0  0  0  0  0  0  0  0  0
   74.4908   50.6561   55.5362 O   0  0  0  0  0  0  0  0  0  0  0  0
   72.0137   51.6964   55.8572 C   0  0  0  0  0  0  0  0  0  0  0  0
   70.6193   52.1042   56.1687 C   0  0  0  0  0  0  0  0  0  0  0  0
   70.0282   53.3356   55.9856 C   0  0  0  0  0  0  0  0  0  0  0  0
   68.7594   53.2773   56.4114 N   0  0  0  0  0  0  0  0  0  0  0  0
   68.5054   52.0400   56.8670 C   0  0  0  0  0  0  0  0  0  0  0  0
   67.3566   51.4471   57.4105 C   0  0  0  0  0  0  0  0  0  0  0  0
   67.3516   50.1260   57.8042 C   0  0  0  0  0  0  0  0  0  0  0  0
   68.5036   49.3812   57.6589 C   0  0  0  0  0  0  0  0  0  0  0  0
   69.6259   49.9640   57.1280 C   0  0  0  0  0  0  0  0  0  0  0  0
   69.6467   51.2916   56.7263 C   0  0  0  0  0  0  0  0  0  0  0  0
  2  3  2  0
  3  4  1  0
  3  5  1  0
  4  1  1  0
  1 16  1  1
  1 13  1  0
 16 17  1  0
 17 18  2  0
 17 25  1  0
 18 19  1  0
 19 20  1  0
 20 21  1  0
 20 25  2  0
 21 22  2  0
 22 23  1  0
 23 24  2  0
 24 25  1  0
 13 14  2  0
 13 15  1  0
  5  6  2  0
  5 12  1  0
  6  7  1  0
  7  8  1  0
  7  9  2  0
  9 10  1  0
 10 11  1  0
 10 12  2  0
M  END
>  <minimizedAffinity>  (208) 
-8.62575

$$$$
data/reference_output_2/data/smiles/105659.pdb
     RDKit          3D

 27 29  0  0  0  0  0  0  0  0999 V2000
   68.7333   43.4004   56.5781 N   0  0  0  0  0  0  0  0  0  0  0  0
   68.1446   42.2418   56.5104 N   0  0  0  0  0  0  0  0  0  0  0  0
   68.6572   41.3612   57.3867 C   0  0  0  0  0  0  0  0  0  0  0  0
   68.2101   39.9423   57.5713 C   0  0  0  0  0  0  0  0  0  0  0  0
   69.6654   42.0085   58.0804 C   0  0  0  0  0  0  0  0  0  0  0  0
   69.6844   43.2877   57.5455 C   0  0  0  0  0  0  0  0  0  0  0  0
   70.5809   44.3756   57.9419 C   0  0  0  0  0  0  0  0  0  0  0  0
   68.7092   48.2568   56.2071 C   0  0  0  0  0  0  0  0  0  0  0  0
   68.4477   46.9197   55.6186 C   0  0  0  0  0  0  0  0  0  0  0  0
   67.9485   46.8577   54.3357 C   0  0  0  0  0  0  0  0  0  0  0  0
   67.7129   45.5956   53.8112 C   0  0  0  0  0  0  0  0  0  0  0  0
   67.2584   45.5413   52.6442 O   0  0  0  0  0  0  0  0  0  0  0  0
   67.9760   44.5122   54.5580 N   0  0  0  0  0  0  0  0  0  0  0  0
   68.4637   44.5671   55.8095 C   0  0  0  0  0  0  0  0  0  0  0  0
   68.6890   45.7934   56.3120 N   0  0  0  0  0  0  0  0  0  0  0  0
   70.5190   41.4227   59.1499 C   0  0  0  0  0  0  0  0  0  0  0  0
   71.8285   41.0821   58.5267 C   0  0  0  0  0  0  0  0  0  0  0  0
   72.1816   39.6352   58.6172 C   0  0  0  0  0  0  0  0  0  0  0  0
   73.2384   39.3944   59.2167 O   0  0  0  0  0  0  0  0  0  0  0  0
   71.3868   38.6245   58.0706 N   0  0  0  0  0  0  0  0  0  0  0  0
   71.6965   37.2512   58.1407 C   0  0  0  0  0  0  0  0  0  0  0  0
   72.5478   36.5502   57.3330 C   0  0  0  0  0  0  0  0  0  0  0  0
   72.8060   35.1869   57.4637 C   0  0  0  0  0  0  0  0  0  0  0  0
   72.1864   34.4751   58.4513 C   0  0  0  0  0  0  0  0  0  0  0  0
   71.3206   35.1317   59.2921 C   0  0  0  0  0  0  0  0  0  0  0  0
   71.0792   36.4728   59.1485 C   0  0  0  0  0  0  0  0  0  0  0  0
   70.2177   37.0656   60.0035 F   0  0  0  0  0  0  0  0  0  0  0  0
  8  9  1  0
  9 10  2  0
  9 15  1  0
 10 11  1  0
 11 12  2  0
 11 13  1  0
 13 14  1  0
 14  1  1  0
 14 15  2  0
  1  2  1  0
  1  6  1  0
  2  3  2  0
  3  4  1  0
  3  5  1  0
  5 16  1  0
  5  6  2  0
 16 17  1  0
 17 18  1  0
 18 19  2  0
 18 20  1  0
 20 21  1  0
 21 22  2  0
 21 26  1  0
 22 23  1  0
 23 24  2  0
 24 25  1  0
 25 26  2  0
 26 27  1  0
  6  7  1  0
M  END
>  <minimizedAffinity>  (209) 
-9.05705

$$$$
data/reference_output_2/data/smiles/105748.pdb
     RDKit          3D

 30 33  0  0  0  0  0  0  0  0999 V2000
   69.7552   50.2766   53.9562 N   0  0  0  0  0  0  0  0  0  0  0  0
   69.4216   49.3806   55.0130 C   0  0  0  0  0  0  0  0  0  0  0  0
   69.0225   48.1184   54.3790 C   0  0  0  0  0  0  0  0  0  0  0  0
   68.5753   46.9065   54.9572 C   0  0  0  0  0  0  0  0  0  0  0  0
   68.2694   45.8520   54.1591 C   0  0  0  0  0  0  0  0  0  0  0  0
   68.4043   45.9924   52.7969 C   0  0  0  0  0  0  0  0  0  0  0  0
   68.8366   47.1598   52.2101 C   0  0  0  0  0  0  0  0  0  0  0  0
   69.1500   48.2428   53.0317 C   0  0  0  0  0  0  0  0  0  0  0  0
   69.6127   49.5959   52.7285 C   0  0  0  0  0  0  0  0  0  0  0  0
   69.8391   50.0538   51.5678 O   0  0  0  0  0  0  0  0  0  0  0  0
   70.8302   51.7451   58.0958 O   0  0  0  0  0  0  0  0  0  0  0  0
   70.6792   51.9902   56.8709 C   0  0  0  0  0  0  0  0  0  0  0  0
   69.3543   52.3909   56.4021 C   0  0  0  0  0  0  0  0  0  0  0  0
   69.1720   52.4410   54.9240 C   0  0  0  0  0  0  0  0  0  0  0  0
   70.1757   51.6924   54.1261 C   0  0  1  0  0  0  0  0  0  0  0  0
   71.5637   51.7734   54.6410 C   0  0  0  0  0  0  0  0  0  0  0  0
   72.5698   51.7706   53.8542 O   0  0  0  0  0  0  0  0  0  0  0  0
   71.8186   51.8575   56.0309 N   0  0  0  0  0  0  0  0  0  0  0  0
   67.8078   44.5905   54.6992 C   0  0  0  0  0  0  0  0  0  0  0  0
   68.1746   44.2304   56.0106 N   0  0  0  0  0  0  0  0  0  0  0  0
   68.1229   42.9286   56.5230 C   0  0  0  0  0  0  0  0  0  0  0  0
   67.7324   42.0224   55.7832 O   0  0  0  0  0  0  0  0  0  0  0  0
   68.4982   42.5937   57.8615 N   0  0  0  0  0  0  0  0  0  0  0  0
   68.4100   41.2430   58.2658 C   0  0  0  0  0  0  0  0  0  0  0  0
   67.3178   40.6289   58.7949 C   0  0  0  0  0  0  0  0  0  0  0  0
   67.3522   39.2946   59.1639 C   0  0  0  0  0  0  0  0  0  0  0  0
   68.4885   38.5567   59.0041 C   0  0  0  0  0  0  0  0  0  0  0  0
   69.6061   39.1489   58.4729 C   0  0  0  0  0  0  0  0  0  0  0  0
   71.0458   38.1552   58.2883 Cl  0  0  0  0  0  0  0  0  0  0  0  0
   69.5631   40.4647   58.1119 C   0  0  0  0  0  0  0  0  0  0  0  0
 11 12  2  0
 12 13  1  0
 12 18  1  0
 13 14  1  0
 14 15  1  0
 15  1  1  1
 15 16  1  0
  1  2  1  0
  1  9  1  0
  2  3  1  0
  3  4  1  0
  3  8  2  0
  4  5  2  0
  5 19  1  0
  5  6  1  0
 19 20  1  0
 20 21  1  0
 21 22  2  0
 21 23  1  0
 23 24  1  0
 24 25  2  0
 24 30  1  0
 25 26  1  0
 26 27  2  0
 27 28  1  0
 28 29  1  0
 28 30  2  0
  6  7  2  0
  7  8  1  0
  8  9  1  0
  9 10  2  0
 16 17  2  0
 16 18  1  0
M  END
>  <minimizedAffinity>  (210) 
-8.78029

$$$$
data/reference_output_2/data/smiles/106017.pdb
     RDKit          3D

 26 28  0  0  0  0  0  0  0  0999 V2000
   70.7554   44.8706   58.1020 C   0  0  0  0  0  0  0  0  0  0  0  0
   70.1088   43.8151   57.5756 C   0  0  0  0  0  0  0  0  0  0  0  0
   69.2076   44.3522   56.6627 N   0  0  0  0  0  0  0  0  0  0  0  0
   69.2921   45.6650   56.6165 C   0  0  0  0  0  0  0  0  0  0  0  0
   70.2800   46.0525   57.5292 C   0  0  0  0  0  0  0  0  0  0  0  0
   70.6818   47.3792   57.7874 N   0  0  0  0  0  0  0  0  0  0  0  0
   70.1764   42.3872   57.8231 C   0  0  0  0  0  0  0  0  0  0  0  0
   71.2942   41.6763   58.1106 C   0  0  0  0  0  0  0  0  0  0  0  0
   71.2521   40.3053   58.4249 C   0  0  0  0  0  0  0  0  0  0  0  0
   70.0699   39.6042   58.4557 C   0  0  0  0  0  0  0  0  0  0  0  0
   70.0556   38.2221   58.7754 N   0  0  0  0  0  0  0  0  0  0  0  0
   68.9264   40.3127   58.1633 C   0  0  0  0  0  0  0  0  0  0  0  0
   68.9734   41.6481   57.8588 C   0  0  0  0  0  0  0  0  0  0  0  0
   71.5244   45.0217   60.5209 N   0  0  0  0  0  0  0  0  0  0  0  0
   71.7599   44.9145   59.1423 C   0  0  0  0  0  0  0  0  0  0  0  0
   72.9897   44.8600   58.7921 O   0  0  0  0  0  0  0  0  0  0  0  0
   68.4941   46.6010   55.8423 C   0  0  0  0  0  0  0  0  0  0  0  0
   67.6000   47.2727   56.4621 O   0  0  0  0  0  0  0  0  0  0  0  0
   68.6156   46.8437   54.4288 C   0  0  0  0  0  0  0  0  0  0  0  0
   69.3387   47.9838   54.0313 C   0  0  0  0  0  0  0  0  0  0  0  0
   69.8373   48.8159   54.9894 F   0  0  0  0  0  0  0  0  0  0  0  0
   69.5559   48.2836   52.7176 C   0  0  0  0  0  0  0  0  0  0  0  0
   69.0685   47.4682   51.7080 C   0  0  0  0  0  0  0  0  0  0  0  0
   68.3586   46.3453   52.0683 C   0  0  0  0  0  0  0  0  0  0  0  0
   68.1435   46.0488   53.4199 C   0  0  0  0  0  0  0  0  0  0  0  0
   67.4877   44.9024   53.7047 F   0  0  0  0  0  0  0  0  0  0  0  0
 14 15  1  0
 15 16  2  0
 15  1  1  0
  1  2  2  0
  1  5  1  0
  2  7  1  0
  2  3  1  0
  7  8  2  0
  7 13  1  0
  8  9  1  0
  9 10  2  0
 10 11  1  0
 10 12  1  0
 12 13  2  0
  3  4  1  0
  4 17  1  0
  4  5  2  0
 17 18  2  0
 17 19  1  0
 19 20  2  0
 19 25  1  0
 20 21  1  0
 20 22  1  0
 22 23  2  0
 23 24  1  0
 24 25  2  0
 25 26  1  0
  5  6  1  0
M  END
>  <minimizedAffinity>  (211) 
-8.59665

$$$$
data/reference_output_2/data/smiles/106134.pdb
     RDKit          3D

 19 20  0  0  0  0  0  0  0  0999 V2000
   69.2632   47.7714   52.6578 C   0  0  0  0  0  0  0  0  0  0  0  0
   69.4522   47.7806   54.0382 C   0  0  0  0  0  0  0  0  0  0  0  0
   68.8119   46.8548   54.8530 C   0  0  0  0  0  0  0  0  0  0  0  0
   67.9790   45.9173   54.2776 C   0  0  0  0  0  0  0  0  0  0  0  0
   67.7976   45.9158   52.9068 C   0  0  0  0  0  0  0  0  0  0  0  0
   66.9531   44.9600   52.3575 O   0  0  0  0  0  0  0  0  0  0  0  0
   68.4314   46.8342   52.0887 C   0  0  0  0  0  0  0  0  0  0  0  0
   68.2627   46.8500   50.7126 O   0  0  0  0  0  0  0  0  0  0  0  0
   70.6244   48.2784   50.8918 O   0  0  0  0  0  0  0  0  0  0  0  0
   69.9040   48.7030   51.8063 N   0  0  0  0  0  0  0  0  0  0  0  0
   69.7572   50.0519   51.9583 O   0  0  0  0  0  0  0  0  0  0  0  0
   68.9964   46.8426   56.3245 C   0  0  0  0  0  0  0  0  0  0  0  0
   69.5912   48.1252   56.8374 C   0  0  0  0  0  0  0  0  0  0  0  0
   68.5962   49.1855   57.0663 C   0  0  0  0  0  0  0  0  0  0  0  0
   67.4538   48.8748   57.7651 C   0  0  0  0  0  0  0  0  0  0  0  0
   66.4853   49.8254   58.0099 C   0  0  0  0  0  0  0  0  0  0  0  0
   66.7024   51.1175   57.5235 C   0  0  0  0  0  0  0  0  0  0  0  0
   67.8467   51.4329   56.8220 C   0  0  0  0  0  0  0  0  0  0  0  0
   68.7959   50.4713   56.5905 C   0  0  0  0  0  0  0  0  0  0  0  0
  9 10  2  0
 10 11  1  0
 10  1  1  0
  1  2  2  0
  1  7  1  0
  2  3  1  0
  3 12  1  0
  3  4  2  0
 12 13  1  0
 13 14  1  0
 14 15  2  0
 14 19  1  0
 15 16  1  0
 16 17  2  0
 17 18  1  0
 18 19  2  0
  4  5  1  0
  5  6  1  0
  5  7  2  0
  7  8  1  0
M  CHG  2  10   1  11  -1
M  END
>  <minimizedAffinity>  (212) 
-8.83793

$$$$
data/reference_output_2/data/smiles/106157.pdb
     RDKit          3D

 21 23  0  0  0  0  0  0  0  0999 V2000
   66.4649   42.3378   55.6312 O   0  0  0  0  0  0  0  0  0  0  0  0
   67.4260   41.8925   56.3120 C   0  0  0  0  0  0  0  0  0  0  0  0
   67.6123   40.5842   56.8376 N   0  0  0  0  0  0  0  0  0  0  0  0
   68.8477   40.5520   57.5387 C   0  0  0  0  0  0  0  0  0  0  0  0
   69.4959   39.5280   58.2309 C   0  0  0  0  0  0  0  0  0  0  0  0
   70.7174   39.7546   58.8402 C   0  0  0  0  0  0  0  0  0  0  0  0
   71.3306   40.9815   58.7860 C   0  0  0  0  0  0  0  0  0  0  0  0
   70.6827   41.9839   58.1000 C   0  0  0  0  0  0  0  0  0  0  0  0
   69.4571   41.7863   57.4798 C   0  0  0  0  0  0  0  0  0  0  0  0
   68.5795   42.6739   56.7028 C   0  0  0  0  0  0  0  0  0  0  0  0
   68.8667   43.9104   56.4640 N   0  0  0  0  0  0  0  0  0  0  0  0
   67.9875   44.6735   55.7267 N   0  0  0  0  0  0  0  0  0  0  0  0
   68.3877   45.8754   55.0621 C   0  0  0  0  0  0  0  0  0  0  0  0
   68.6796   47.0252   55.7613 C   0  0  0  0  0  0  0  0  0  0  0  0
   69.0667   48.1839   55.1178 C   0  0  0  0  0  0  0  0  0  0  0  0
   69.1620   48.1865   53.7194 C   0  0  0  0  0  0  0  0  0  0  0  0
   68.8737   47.0454   53.0010 C   0  0  0  0  0  0  0  0  0  0  0  0
   68.4926   45.9131   53.6896 C   0  0  0  0  0  0  0  0  0  0  0  0
   68.9758   47.0628   51.5734 N   0  0  0  0  0  0  0  0  0  0  0  0
   68.0101   46.7966   50.8481 O   0  0  0  0  0  0  0  0  0  0  0  0
   70.1603   47.3774   50.9532 O   0  0  0  0  0  0  0  0  0  0  0  0
  1  2  2  0
  2  3  1  0
  2 10  1  0
  3  4  1  0
  4  5  2  0
  4  9  1  0
  5  6  1  0
  6  7  2  0
  7  8  1  0
  8  9  2  0
  9 10  1  0
 10 11  2  0
 11 12  1  0
 12 13  1  0
 13 14  2  0
 13 18  1  0
 14 15  1  0
 15 16  2  0
 16 17  1  0
 17 19  1  0
 17 18  2  0
 19 20  2  0
 19 21  1  0
M  CHG  2  19   1  21  -1
M  END
>  <minimizedAffinity>  (213) 
-8.53895

$$$$
data/reference_output_2/data/smiles/106218.pdb
     RDKit          3D

 32 35  0  0  0  0  0  0  0  0999 V2000
   71.4263   47.1528   58.5238 C   0  0  0  0  0  0  0  0  0  0  0  0
   72.5016   47.5972   58.0568 O   0  0  0  0  0  0  0  0  0  0  0  0
   70.2157   47.4973   57.8758 N   0  0  0  0  0  0  0  0  0  0  0  0
   70.1793   48.3296   56.7135 C   0  0  2  0  0  0  0  0  0  0  0  0
   69.5146   49.6280   56.9701 C   0  0  0  0  0  0  0  0  0  0  0  0
   69.3990   49.9487   58.1657 O   0  0  0  0  0  0  0  0  0  0  0  0
   68.9862   50.5684   56.0621 N   0  0  0  0  0  0  0  0  0  0  0  0
   68.2824   51.7433   56.5398 C   0  0  0  0  0  0  0  0  0  0  0  0
   68.9756   52.8199   55.6923 C   0  0  0  0  0  0  0  0  0  0  0  0
   69.4419   52.0110   54.4737 C   0  0  0  0  0  0  0  0  0  0  0  0
   68.9502   50.6923   54.6940 N   0  0  0  0  0  0  0  0  0  0  0  0
   69.5391   49.6746   53.9220 C   0  0  0  0  0  0  0  0  0  0  0  0
   69.1572   48.2905   54.3934 C   0  0  0  0  0  0  0  0  0  0  0  0
   68.4498   47.6129   53.4206 C   0  0  0  0  0  0  0  0  0  0  0  0
   68.0249   46.3446   53.6788 C   0  0  0  0  0  0  0  0  0  0  0  0
   68.2865   45.7201   54.8929 C   0  0  0  0  0  0  0  0  0  0  0  0
   69.0015   46.4257   55.8545 C   0  0  0  0  0  0  0  0  0  0  0  0
   69.4306   47.6996   55.5993 C   0  0  0  0  0  0  0  0  0  0  0  0
   72.6365   46.7608   60.6395 C   0  0  0  0  0  0  0  0  0  0  0  0
   71.4865   46.2895   59.7315 C   0  0  2  0  0  0  0  0  0  0  0  0
   71.8536   44.8940   59.3008 C   0  0  0  0  0  0  0  0  0  0  0  0
   70.6247   44.1082   58.9275 C   0  0  0  0  0  0  0  0  0  0  0  0
   69.6123   44.2527   59.6208 O   0  0  0  0  0  0  0  0  0  0  0  0
   70.6059   43.2340   57.8291 N   0  0  0  0  0  0  0  0  0  0  0  0
   69.5391   42.4450   57.3696 C   0  0  0  0  0  0  0  0  0  0  0  0
   68.5400   42.8536   56.5387 C   0  0  0  0  0  0  0  0  0  0  0  0
   67.5115   42.0249   56.1185 C   0  0  0  0  0  0  0  0  0  0  0  0
   66.5660   42.5305   55.2919 F   0  0  0  0  0  0  0  0  0  0  0  0
   67.4558   40.7239   56.5333 C   0  0  0  0  0  0  0  0  0  0  0  0
   68.4562   40.2950   57.3728 C   0  0  0  0  0  0  0  0  0  0  0  0
   68.4147   39.0094   57.7919 F   0  0  0  0  0  0  0  0  0  0  0  0
   69.4780   41.1082   57.7930 C   0  0  0  0  0  0  0  0  0  0  0  0
 20 19  1  1
 20 21  1  0
 20  1  1  0
 21 22  1  0
 22 23  2  0
 22 24  1  0
 24 25  1  0
 25 26  2  0
 25 32  1  0
 26 27  1  0
 27 28  1  0
 27 29  2  0
 29 30  1  0
 30 31  1  0
 30 32  2  0
  1  2  2  0
  1  3  1  0
  4  3  1  1
  4  5  1  0
  4 18  1  0
  5  6  2  0
  5  7  1  0
  7  8  1  0
  8  9  1  0
  9 10  1  0
 10 11  1  0
 11  7  1  0
 11 12  1  0
 12 13  1  0
 13 14  1  0
 13 18  2  0
 14 15  2  0
 15 16  1  0
 16 17  2  0
 17 18  1  0
M  END
>  <minimizedAffinity>  (214) 
-8.56801

$$$$
data/reference_output_2/data/smiles/106223.pdb
     RDKit          3D

 29 33  0  0  0  0  0  0  0  0999 V2000
   69.7436   42.2759   61.9446 N   0  0  0  0  0  0  0  0  0  0  0  0
   70.9626   42.4881   61.2612 C   0  0  0  0  0  0  0  0  0  0  0  0
   70.7491   43.0639   59.8910 C   0  0  2  0  0  0  0  0  0  0  0  0
   69.4911   43.8368   59.8298 N   0  0  0  0  0  0  0  0  0  0  0  0
   68.8377   42.5066   59.6936 C   0  0  2  0  0  0  0  0  0  0  0  0
   68.5981   42.1195   61.1052 C   0  0  0  0  0  0  0  0  0  0  0  0
   69.9909   42.1072   58.9581 C   0  0  2  0  0  0  0  0  0  0  0  0
   70.5303   40.7913   58.7569 C   0  0  0  0  0  0  0  0  0  0  0  0
   69.6449   39.7239   58.5275 C   0  0  0  0  0  0  0  0  0  0  0  0
   70.0773   38.4322   58.3343 C   0  0  0  0  0  0  0  0  0  0  0  0
   71.4174   38.1110   58.3547 C   0  0  0  0  0  0  0  0  0  0  0  0
   72.3111   39.1334   58.5771 C   0  0  0  0  0  0  0  0  0  0  0  0
   71.8580   40.4235   58.7696 C   0  0  0  0  0  0  0  0  0  0  0  0
   71.8490   36.7285   58.1454 C   0  0  0  0  0  0  0  0  0  0  0  0
   72.6153   36.3947   57.0375 C   0  0  0  0  0  0  0  0  0  0  0  0
   73.0445   35.1101   56.7979 C   0  0  0  0  0  0  0  0  0  0  0  0
   72.7082   34.1007   57.6861 C   0  0  0  0  0  0  0  0  0  0  0  0
   71.9512   34.4285   58.7829 C   0  0  0  0  0  0  0  0  0  0  0  0
   71.5247   35.7162   59.0153 C   0  0  0  0  0  0  0  0  0  0  0  0
   70.7778   36.0289   60.1010 F   0  0  0  0  0  0  0  0  0  0  0  0
   69.7556   41.4460   63.3972 S   0  0  0  0  0  0  0  0  0  0  0  0
   68.5023   41.8627   64.1645 O   0  0  0  0  0  0  0  0  0  0  0  0
   69.6238   39.9504   63.2356 O   0  0  0  0  0  0  0  0  0  0  0  0
   74.4370   42.9932   65.2875 C   0  0  0  0  0  0  0  0  0  0  0  0
   73.1014   42.4483   65.2444 N   0  0  0  0  0  0  0  0  0  0  0  0
   72.3652   41.9479   66.2342 C   0  0  0  0  0  0  0  0  0  0  0  0
   71.1738   41.5424   65.7864 N   0  0  0  0  0  0  0  0  0  0  0  0
   71.1133   41.7831   64.4436 C   0  0  0  0  0  0  0  0  0  0  0  0
   72.3266   42.3467   64.1328 C   0  0  0  0  0  0  0  0  0  0  0  0
 24 25  1  0
 25 26  1  0
 25 29  1  0
 26 27  2  0
 27 28  1  0
 28 21  1  0
 28 29  2  0
 21 22  2  0
 21 23  2  0
 21  1  1  0
  1  2  1  0
  1  6  1  0
  3  2  1  1
  3  4  1  0
  3  7  1  0
  4  5  1  0
  5  6  1  1
  5  7  1  0
  7  8  1  1
  8  9  2  0
  8 13  1  0
  9 10  1  0
 10 11  2  0
 11 14  1  0
 11 12  1  0
 14 15  2  0
 14 19  1  0
 15 16  1  0
 16 17  2  0
 17 18  1  0
 18 19  2  0
 19 20  1  0
 12 13  2  0
M  CHG  1   4   1
M  END
>  <minimizedAffinity>  (215) 
-8.60031

$$$$
data/reference_output_2/data/smiles/106305.pdb
     RDKit          3D

 26 30  0  0  0  0  0  0  0  0999 V2000
   78.3170   35.4800   54.9575 O   0  0  0  0  0  0  0  0  0  0  0  0
   77.3591   35.3623   54.1635 C   0  0  0  0  0  0  0  0  0  0  0  0
   77.6377   35.2996   52.7908 C   0  0  0  0  0  0  0  0  0  0  0  0
   76.6182   35.1686   51.8719 C   0  0  0  0  0  0  0  0  0  0  0  0
   75.3806   35.1092   52.3837 N   0  0  0  0  0  0  0  0  0  0  0  0
   75.1217   35.1718   53.7266 C   0  0  0  0  0  0  0  0  0  0  0  0
   73.9786   35.1311   54.4388 N   0  0  0  0  0  0  0  0  0  0  0  0
   74.2302   35.2288   55.7518 C   0  0  0  0  0  0  0  0  0  0  0  0
   75.5662   35.3332   55.8557 N   0  0  0  0  0  0  0  0  0  0  0  0
   76.1040   35.2982   54.6285 N   0  0  0  0  0  0  0  0  0  0  0  0
   76.8882   35.1023   50.4365 C   0  0  0  0  0  0  0  0  0  0  0  0
   77.8776   35.8719   49.8652 C   0  0  0  0  0  0  0  0  0  0  0  0
   78.1637   35.8343   48.4908 C   0  0  0  0  0  0  0  0  0  0  0  0
   77.4507   35.0129   47.6563 C   0  0  0  0  0  0  0  0  0  0  0  0
   77.4785   34.7518   46.3210 N   0  0  0  0  0  0  0  0  0  0  0  0
   76.5574   33.8597   46.0346 N   0  0  0  0  0  0  0  0  0  0  0  0
   75.9113   33.5199   47.1584 C   0  0  0  0  0  0  0  0  0  0  0  0
   76.4587   34.2366   48.2020 C   0  0  0  0  0  0  0  0  0  0  0  0
   76.1942   34.2930   49.5735 C   0  0  0  0  0  0  0  0  0  0  0  0
   73.2760   35.2271   56.8671 C   0  0  0  0  0  0  0  0  0  0  0  0
   72.6718   36.4081   57.2812 C   0  0  0  0  0  0  0  0  0  0  0  0
   71.7725   36.4524   58.3208 C   0  0  0  0  0  0  0  0  0  0  0  0
   71.4354   35.2985   59.0003 C   0  0  0  0  0  0  0  0  0  0  0  0
   70.5483   35.3161   60.0329 F   0  0  0  0  0  0  0  0  0  0  0  0
   72.0373   34.1285   58.5868 C   0  0  0  0  0  0  0  0  0  0  0  0
   72.9391   34.0851   57.5442 C   0  0  0  0  0  0  0  0  0  0  0  0
  1  2  2  0
  2  3  1  0
  2 10  1  0
  3  4  2  0
  4 11  1  0
  4  5  1  0
 11 12  2  0
 11 19  1  0
 12 13  1  0
 13 14  2  0
 14 15  1  0
 14 18  1  0
 15 16  1  0
 16 17  2  0
 17 18  1  0
 18 19  2  0
  5  6  1  0
  6  7  2  0
  6 10  1  0
  7  8  1  0
  8 20  1  0
  8  9  2  0
 20 21  2  0
 20 26  1  0
 21 22  1  0
 22 23  2  0
 23 24  1  0
 23 25  1  0
 25 26  2  0
  9 10  1  0
M  END
>  <minimizedAffinity>  (216) 
-9.04212

$$$$
data/reference_output_2/data/smiles/106405.pdb
     RDKit          3D

 27 31  0  0  0  0  0  0  0  0999 V2000
   70.8873   46.0011   58.4450 C   0  0  0  0  0  0  0  0  0  0  0  0
   70.0015   46.5639   57.5391 C   0  0  0  0  0  0  0  0  0  0  0  0
   69.8155   47.9018   57.3435 C   0  0  0  0  0  0  0  0  0  0  0  0
   70.5787   48.7775   58.1183 C   0  0  0  0  0  0  0  0  0  0  0  0
   71.4717   48.2760   59.0296 C   0  0  0  0  0  0  0  0  0  0  0  0
   71.6191   46.8988   59.1862 C   0  0  0  0  0  0  0  0  0  0  0  0
   72.5207   46.4936   60.0920 F   0  0  0  0  0  0  0  0  0  0  0  0
   69.2580   43.8451   59.9786 O   0  0  0  0  0  0  0  0  0  0  0  0
   70.2992   43.6539   59.3485 C   0  0  0  0  0  0  0  0  0  0  0  0
   71.0855   42.3737   59.2789 C   0  0  2  0  0  0  0  0  0  0  0  0
   72.4461   42.6320   59.8072 C   0  0  0  0  0  0  0  0  0  0  0  0
   73.0866   43.5268   58.7630 C   0  0  0  0  0  0  0  0  0  0  0  0
   71.9598   43.8129   57.7845 C   0  0  1  0  0  0  0  0  0  0  0  0
   71.3324   42.4125   57.7593 C   0  0  0  0  0  0  0  0  0  0  0  0
   70.9993   44.5873   58.5405 N   0  0  0  0  0  0  0  0  0  0  0  0
   68.8892   48.5335   56.3966 C   0  0  0  0  0  0  0  0  0  0  0  0
   69.2866   48.5229   54.9876 C   0  0  0  0  0  0  0  0  0  0  0  0
   70.1334   49.5219   54.5484 N   0  0  0  0  0  0  0  0  0  0  0  0
   70.5685   49.5935   53.3146 N   0  0  0  0  0  0  0  0  0  0  0  0
   70.2323   48.7091   52.3691 C   0  0  0  0  0  0  0  0  0  0  0  0
   70.6595   48.7950   51.1960 O   0  0  0  0  0  0  0  0  0  0  0  0
   69.3794   47.6840   52.7662 C   0  0  0  0  0  0  0  0  0  0  0  0
   68.9053   47.5830   54.0626 C   0  0  0  0  0  0  0  0  0  0  0  0
   67.9735   46.5106   54.4914 C   0  0  0  0  0  0  0  0  0  0  0  0
   67.8884   45.4478   53.4156 C   0  0  0  0  0  0  0  0  0  0  0  0
   67.6304   46.1592   52.1066 C   0  0  0  0  0  0  0  0  0  0  0  0
   68.9927   46.7123   51.6907 C   0  0  0  0  0  0  0  0  0  0  0  0
  8  9  2  0
  9 10  1  0
  9 15  1  0
 10 11  1  1
 10 14  1  0
 11 12  1  0
 13 12  1  1
 13 14  1  0
 13 15  1  0
 15  1  1  0
  1  2  2  0
  1  6  1  0
  2  3  1  0
  3 16  1  0
  3  4  2  0
 16 17  1  0
 17 18  2  0
 17 23  1  0
 18 19  1  0
 19 20  1  0
 20 21  2  0
 20 22  1  0
 22 23  2  0
 22 27  1  0
 23 24  1  0
 24 25  1  0
 25 26  1  0
 26 27  1  0
  4  5  1  0
  5  6  2  0
  6  7  1  0
M  END
>  <minimizedAffinity>  (217) 
-8.88045

$$$$
data/reference_output_2/data/smiles/106427.pdb
     RDKit          3D

 28 30  0  0  0  0  0  0  0  0999 V2000
   68.4245   46.4253   53.7425 C   0  0  0  0  0  0  0  0  0  0  0  0
   68.7185   47.0668   54.9412 C   0  0  0  0  0  0  0  0  0  0  0  0
   69.4175   48.2693   54.9910 C   0  0  0  0  0  0  0  0  0  0  0  0
   69.8539   48.8963   53.8651 C   0  0  0  0  0  0  0  0  0  0  0  0
   69.5858   48.2901   52.6623 C   0  0  0  0  0  0  0  0  0  0  0  0
   68.8713   47.0644   52.6325 C   0  0  0  0  0  0  0  0  0  0  0  0
   66.9586   44.7966   52.7785 O   0  0  0  0  0  0  0  0  0  0  0  0
   67.6196   45.1834   53.7191 C   0  0  0  0  0  0  0  0  0  0  0  0
   67.6039   44.3611   54.8854 N   0  0  0  0  0  0  0  0  0  0  0  0
   67.0170   43.1966   55.2007 N   0  0  0  0  0  0  0  0  0  0  0  0
   67.5608   42.3875   56.1808 C   0  0  0  0  0  0  0  0  0  0  0  0
   68.6872   42.9839   56.7069 C   0  0  0  0  0  0  0  0  0  0  0  0
   69.7314   43.5357   57.1956 C   0  0  0  0  0  0  0  0  0  0  0  0
   70.8285   43.4326   57.8906 C   0  0  0  0  0  0  0  0  0  0  0  0
   71.9110   44.7483   58.2448 Cl  0  0  0  0  0  0  0  0  0  0  0  0
   71.1428   42.1725   58.4201 C   0  0  0  0  0  0  0  0  0  0  0  0
   70.1899   41.2886   58.0773 C   0  0  0  0  0  0  0  0  0  0  0  0
   69.1161   41.4455   57.3801 C   0  0  0  0  0  0  0  0  0  0  0  0
   68.2584   40.4666   57.1211 O   0  0  0  0  0  0  0  0  0  0  0  0
   70.7122   50.4526   53.9990 S   0  0  0  0  0  0  0  0  0  0  0  0
   70.3180   51.3545   52.8459 O   0  0  0  0  0  0  0  0  0  0  0  0
   72.1902   50.1684   53.8599 O   0  0  0  0  0  0  0  0  0  0  0  0
   70.4089   51.1640   55.5063 N   0  0  0  0  0  0  0  0  0  0  0  0
   69.2795   51.9773   55.5468 C   0  0  0  0  0  0  0  0  0  0  0  0
   68.7279   52.1479   56.9619 C   0  0  0  0  0  0  0  0  0  0  0  0
   69.4958   51.2117   57.8401 C   0  0  0  0  0  0  0  0  0  0  0  0
   70.9452   51.5900   57.7787 C   0  0  0  0  0  0  0  0  0  0  0  0
   71.5063   51.3919   56.3670 C   0  0  0  0  0  0  0  0  0  0  0  0
  7  8  2  0
  8  9  1  0
  8  1  1  0
  9 10  1  0
 10 11  2  0
 11 12  1  0
 12 13  2  0
 12 18  1  0
 13 14  1  0
 14 15  1  0
 14 16  2  0
 16 17  1  0
 17 18  2  0
 18 19  1  0
  1  2  2  0
  1  6  1  0
  2  3  1  0
  3  4  2  0
  4 20  1  0
  4  5  1  0
 20 21  2  0
 20 22  2  0
 20 23  1  0
 23 24  1  0
 23 28  1  0
 24 25  1  0
 25 26  1  0
 26 27  1  0
 27 28  1  0
  5  6  2  0
M  END
>  <minimizedAffinity>  (218) 
-8.55448

$$$$
data/reference_output_2/data/smiles/106433.pdb
     RDKit          3D

 24 26  0  0  0  0  0  0  0  0999 V2000
   69.5237   47.0533   56.5550 N   0  0  0  0  0  0  0  0  0  0  0  0
   68.7962   46.1190   55.7542 C   0  0  0  0  0  0  0  0  0  0  0  0
   68.3079   45.0768   56.2555 O   0  0  0  0  0  0  0  0  0  0  0  0
   68.5927   46.3389   54.3176 C   0  0  0  0  0  0  0  0  0  0  0  0
   67.9017   45.4696   53.5028 C   0  0  0  0  0  0  0  0  0  0  0  0
   67.7167   45.6852   52.1563 C   0  0  0  0  0  0  0  0  0  0  0  0
   68.2512   46.8319   51.5948 C   0  0  0  0  0  0  0  0  0  0  0  0
   68.9467   47.7125   52.4011 C   0  0  0  0  0  0  0  0  0  0  0  0
   69.1258   47.4811   53.7581 C   0  0  0  0  0  0  0  0  0  0  0  0
   69.8546   48.4109   54.5879 N   0  0  0  0  0  0  0  0  0  0  0  0
   69.7724   48.3762   56.0277 C   0  0  1  0  0  0  0  0  0  0  0  0
   68.7352   49.3165   56.5635 C   0  0  0  0  0  0  0  0  0  0  0  0
   68.7414   50.6320   56.1703 C   0  0  0  0  0  0  0  0  0  0  0  0
   67.7923   51.5421   56.6432 C   0  0  0  0  0  0  0  0  0  0  0  0
   66.8145   51.1436   57.5247 C   0  0  0  0  0  0  0  0  0  0  0  0
   66.7999   49.8233   57.9250 C   0  0  0  0  0  0  0  0  0  0  0  0
   67.7525   48.9210   57.4473 C   0  0  0  0  0  0  0  0  0  0  0  0
   69.9346   46.7108   57.8690 C   0  0  0  0  0  0  0  0  0  0  0  0
   71.2877   46.2053   58.1396 C   0  0  0  0  0  0  0  0  0  0  0  0
   71.4379   44.9746   58.9618 C   0  0  0  0  0  0  0  0  0  0  0  0
   68.3746   42.8407   59.6572 N   0  0  0  0  0  0  0  0  0  0  0  0
   69.3827   43.8005   59.7455 N   0  0  0  0  0  0  0  0  0  0  0  0
   70.4208   43.9262   58.7727 C   0  0  0  0  0  0  0  0  0  0  0  0
   70.3765   43.1208   57.8240 O   0  0  0  0  0  0  0  0  0  0  0  0
 21 22  1  0
 22 23  1  0
 23 24  2  0
 23 20  1  0
 20 19  1  0
 19 18  1  0
 18  1  1  0
  1  2  1  0
  1 11  1  0
  2  3  2  0
  2  4  1  0
  4  5  1  0
  4  9  2  0
  5  6  2  0
  6  7  1  0
  7  8  2  0
  8  9  1  0
  9 10  1  0
 10 11  1  0
 11 12  1  6
 12 13  2  0
 12 17  1  0
 13 14  1  0
 14 15  2  0
 15 16  1  0
 16 17  2  0
M  END
>  <minimizedAffinity>  (219) 
-8.58415

$$$$
data/reference_output_2/data/smiles/106455.pdb
     RDKit          3D

 24 26  0  0  0  0  0  0  0  0999 V2000
   68.2885   46.9028   56.3945 O   0  0  0  0  0  0  0  0  0  0  0  0
   69.3807   47.7976   52.9994 C   0  0  0  0  0  0  0  0  0  0  0  0
   68.7884   46.8287   52.2203 C   0  0  0  0  0  0  0  0  0  0  0  0
   68.9652   46.8226   50.8603 F   0  0  0  0  0  0  0  0  0  0  0  0
   68.0203   45.8724   52.8302 C   0  0  0  0  0  0  0  0  0  0  0  0
   67.8414   45.8788   54.2118 C   0  0  0  0  0  0  0  0  0  0  0  0
   68.4078   46.8235   55.0323 C   0  0  0  0  0  0  0  0  0  0  0  0
   69.1887   47.7824   54.3499 C   0  0  0  0  0  0  0  0  0  0  0  0
   69.7686   48.7368   55.1427 F   0  0  0  0  0  0  0  0  0  0  0  0
   69.7029   49.5744   51.2838 N   0  0  0  0  0  0  0  0  0  0  0  0
   70.1932   48.8103   52.3625 C   0  0  0  0  0  0  0  0  0  0  0  0
   71.3532   49.0150   52.7723 O   0  0  0  0  0  0  0  0  0  0  0  0
   69.3230   46.7977   57.2960 C   0  0  0  0  0  0  0  0  0  0  0  0
   70.0558   45.4918   57.2284 C   0  0  1  0  0  0  0  0  0  0  0  0
   70.8947   45.2382   58.4569 C   0  0  0  0  0  0  0  0  0  0  0  0
   71.0854   43.8901   58.7448 O   0  0  0  0  0  0  0  0  0  0  0  0
   70.3080   42.8526   58.2843 C   0  0  0  0  0  0  0  0  0  0  0  0
   70.5472   41.5559   58.7040 C   0  0  0  0  0  0  0  0  0  0  0  0
   69.7481   40.5631   58.2175 C   0  0  0  0  0  0  0  0  0  0  0  0
   68.7147   40.8115   57.3258 C   0  0  0  0  0  0  0  0  0  0  0  0
   67.9301   39.8041   56.8540 F   0  0  0  0  0  0  0  0  0  0  0  0
   68.4967   42.1102   56.9236 C   0  0  0  0  0  0  0  0  0  0  0  0
   69.2981   43.1459   57.4035 C   0  0  0  0  0  0  0  0  0  0  0  0
   69.1053   44.4441   57.0223 O   0  0  0  0  0  0  0  0  0  0  0  0
 10 11  1  0
 11 12  2  0
 11  2  1  0
  2  3  2  0
  2  8  1  0
  3  4  1  0
  3  5  1  0
  5  6  2  0
  6  7  1  0
  7  1  1  0
  7  8  2  0
  1 13  1  0
 14 13  1  1
 14 15  1  0
 14 24  1  0
 15 16  1  0
 16 17  1  0
 17 18  2  0
 17 23  1  0
 18 19  1  0
 19 20  2  0
 20 21  1  0
 20 22  1  0
 22 23  2  0
 23 24  1  0
  8  9  1  0
M  END
>  <minimizedAffinity>  (220) 
-8.58646

$$$$
data/reference_output_2/data/smiles/106585.pdb
     RDKit          3D

 23 25  0  0  0  0  0  0  0  0999 V2000
   70.3061   52.0367   54.7739 C   0  0  0  0  0  0  0  0  0  0  0  0
   71.1142   50.8479   54.5859 N   0  0  0  0  0  0  0  0  0  0  0  0
   70.5185   49.7488   53.9164 C   0  0  0  0  0  0  0  0  0  0  0  0
   69.6788   48.9015   54.5358 N   0  0  0  0  0  0  0  0  0  0  0  0
   69.0898   47.8512   53.9573 C   0  0  0  0  0  0  0  0  0  0  0  0
   68.2343   46.9975   54.6090 C   0  0  0  0  0  0  0  0  0  0  0  0
   67.6475   45.9128   53.9480 C   0  0  0  0  0  0  0  0  0  0  0  0
   67.9163   45.6743   52.6154 C   0  0  0  0  0  0  0  0  0  0  0  0
   68.7767   46.5298   51.9552 C   0  0  0  0  0  0  0  0  0  0  0  0
   69.3550   47.6061   52.6206 C   0  0  0  0  0  0  0  0  0  0  0  0
   70.2181   48.4843   52.0005 C   0  0  0  0  0  0  0  0  0  0  0  0
   70.4686   48.2698   50.7772 O   0  0  0  0  0  0  0  0  0  0  0  0
   70.7601   49.4965   52.6353 O   0  0  0  0  0  0  0  0  0  0  0  0
   72.7136   50.8502   55.1760 S   0  0  0  0  0  0  0  0  0  0  0  0
   72.8478   49.6827   56.1338 O   0  0  0  0  0  0  0  0  0  0  0  0
   73.6732   50.6796   54.0144 O   0  0  0  0  0  0  0  0  0  0  0  0
   73.1138   52.3131   56.0354 C   0  0  0  0  0  0  0  0  0  0  0  0
   72.9886   52.3857   57.4026 C   0  0  0  0  0  0  0  0  0  0  0  0
   73.3157   53.5703   58.0658 C   0  0  0  0  0  0  0  0  0  0  0  0
   73.7600   54.6659   57.3826 C   0  0  0  0  0  0  0  0  0  0  0  0
   73.8891   54.6023   56.0118 C   0  0  0  0  0  0  0  0  0  0  0  0
   73.5625   53.4216   55.3541 C   0  0  0  0  0  0  0  0  0  0  0  0
   73.7539   53.3734   53.4648 Br  0  0  0  0  0  0  0  0  0  0  0  0
  1  2  1  0
  2  3  1  0
  2 14  1  0
  3  4  2  0
  3 13  1  0
  4  5  1  0
  5  6  2  0
  5 10  1  0
  6  7  1  0
  7  8  2  0
  8  9  1  0
  9 10  2  0
 10 11  1  0
 11 12  2  0
 11 13  1  0
 14 15  2  0
 14 16  2  0
 14 17  1  0
 17 18  2  0
 17 22  1  0
 18 19  1  0
 19 20  2  0
 20 21  1  0
 21 22  2  0
 22 23  1  0
M  END
>  <minimizedAffinity>  (221) 
-8.69909

$$$$
data/reference_output_2/data/smiles/106594.pdb
     RDKit          3D

 23 24  0  0  0  0  0  0  0  0999 V2000
   68.2913   46.0430   56.2266 O   0  0  0  0  0  0  0  0  0  0  0  0
   68.1541   45.3655   55.1748 C   0  0  0  0  0  0  0  0  0  0  0  0
   67.8593   43.9995   55.3516 N   0  0  0  0  0  0  0  0  0  0  0  0
   68.3027   46.0096   53.8717 C   0  0  0  0  0  0  0  0  0  0  0  0
   67.6292   45.4955   52.7816 C   0  0  0  0  0  0  0  0  0  0  0  0
   67.7307   46.0626   51.5178 C   0  0  0  0  0  0  0  0  0  0  0  0
   68.5108   47.1636   51.3142 C   0  0  0  0  0  0  0  0  0  0  0  0
   69.1927   47.6916   52.3997 C   0  0  0  0  0  0  0  0  0  0  0  0
   69.0796   47.1128   53.6511 C   0  0  0  0  0  0  0  0  0  0  0  0
   70.0326   48.8907   52.1393 C   0  0  0  0  0  0  0  0  0  0  0  0
   69.2741   50.0169   51.8941 F   0  0  0  0  0  0  0  0  0  0  0  0
   70.9349   49.0765   53.1517 F   0  0  0  0  0  0  0  0  0  0  0  0
   70.7847   48.5847   50.9955 F   0  0  0  0  0  0  0  0  0  0  0  0
   67.7174   43.3841   56.6012 N   0  0  0  0  0  0  0  0  0  0  0  0
   67.2439   42.0469   56.7118 C   0  0  0  0  0  0  0  0  0  0  0  0
   66.9727   41.4778   55.6379 O   0  0  0  0  0  0  0  0  0  0  0  0
   67.0904   41.3876   58.0153 C   0  0  0  0  0  0  0  0  0  0  0  0
   66.5528   42.0174   59.0487 N   0  0  0  0  0  0  0  0  0  0  0  0
   66.3840   41.4688   60.2694 C   0  0  0  0  0  0  0  0  0  0  0  0
   66.8031   40.1646   60.4359 C   0  0  0  0  0  0  0  0  0  0  0  0
   67.3666   39.4617   59.4014 C   0  0  0  0  0  0  0  0  0  0  0  0
   67.5127   40.0900   58.1634 C   0  0  0  0  0  0  0  0  0  0  0  0
   68.0806   39.4054   57.0916 O   0  0  0  0  0  0  0  0  0  0  0  0
  1  2  2  0
  2  3  1  0
  2  4  1  0
  3 14  1  0
 14 15  1  0
 15 16  2  0
 15 17  1  0
 17 18  2  0
 17 22  1  0
 18 19  1  0
 19 20  2  0
 20 21  1  0
 21 22  2  0
 22 23  1  0
  4  5  2  0
  4  9  1  0
  5  6  1  0
  6  7  2  0
  7  8  1  0
  8 10  1  0
  8  9  2  0
 10 11  1  0
 10 12  1  0
 10 13  1  0
M  END
>  <minimizedAffinity>  (222) 
-8.55793

$$$$
data/reference_output_2/data/smiles/106617.pdb
     RDKit          3D

 26 28  0  0  0  0  0  0  0  0999 V2000
   70.4274   44.2397   57.7221 C   0  0  0  0  0  0  0  0  0  0  0  0
   69.5709   44.9637   56.8694 C   0  0  0  0  0  0  0  0  0  0  0  0
   69.6105   46.2657   57.1136 N   0  0  0  0  0  0  0  0  0  0  0  0
   70.4656   46.4532   58.1046 C   0  0  0  0  0  0  0  0  0  0  0  0
   70.8911   47.5917   58.7515 C   0  0  0  0  0  0  0  0  0  0  0  0
   71.8045   47.5993   59.7765 C   0  0  0  0  0  0  0  0  0  0  0  0
   72.2955   46.3727   60.1422 C   0  0  0  0  0  0  0  0  0  0  0  0
   71.8945   45.1865   59.5149 C   0  0  0  0  0  0  0  0  0  0  0  0
   70.9916   45.2181   58.5073 C   0  0  0  0  0  0  0  0  0  0  0  0
   68.6791   47.4644   56.2671 S   0  0  0  0  0  0  0  0  0  0  0  0
   69.3528   48.7979   56.3468 O   0  0  0  0  0  0  0  0  0  0  0  0
   67.3305   47.6112   56.9142 O   0  0  0  0  0  0  0  0  0  0  0  0
   68.5541   47.0419   54.5778 C   0  0  0  0  0  0  0  0  0  0  0  0
   67.8353   45.9993   54.0786 C   0  0  0  0  0  0  0  0  0  0  0  0
   67.7933   45.7266   52.7308 C   0  0  0  0  0  0  0  0  0  0  0  0
   68.4834   46.5075   51.8276 C   0  0  0  0  0  0  0  0  0  0  0  0
   69.2022   47.5542   52.3446 C   0  0  0  0  0  0  0  0  0  0  0  0
   69.2489   47.8284   53.6755 C   0  0  0  0  0  0  0  0  0  0  0  0
   70.5389   42.8000   57.6254 C   0  0  0  0  0  0  0  0  0  0  0  0
   69.6185   41.9952   57.5435 N   0  0  0  0  0  0  0  0  0  0  0  0
   72.1158   41.2091   58.6700 C   0  0  0  0  0  0  0  0  0  0  0  0
   71.9798   42.2616   57.6225 C   0  0  0  0  0  0  0  0  0  0  0  0
   68.3166   41.9475   57.5075 N   0  0  0  0  0  0  0  0  0  0  0  0
   67.6149   41.7286   56.2514 C   0  0  0  0  0  0  0  0  0  0  0  0
   66.9996   42.7489   55.7571 N   0  0  0  0  0  0  0  0  0  0  0  0
   67.6035   40.4776   55.6046 N   0  0  0  0  0  0  0  0  0  0  0  0
 21 22  1  0
 22 19  1  0
 19 20  2  0
 19  1  1  0
 20 23  1  0
 23 24  1  0
 24 25  2  0
 24 26  1  0
  1  2  2  0
  1  9  1  0
  2  3  1  0
  3 10  1  0
  3  4  1  0
 10 11  2  0
 10 12  2  0
 10 13  1  0
 13 14  2  0
 13 18  1  0
 14 15  1  0
 15 16  2  0
 16 17  1  0
 17 18  2  0
  4  5  1  0
  4  9  2  0
  5  6  2  0
  6  7  1  0
  7  8  2  0
  8  9  1  0
M  CHG  1  25   1
M  END
>  <minimizedAffinity>  (223) 
-9.01657

$$$$
data/reference_output_2/data/smiles/106623.pdb
     RDKit          3D

 29 32  0  0  0  0  0  0  0  0999 V2000
   68.6710   46.9407   54.3865 C   0  0  0  0  0  0  0  0  0  0  0  0
   68.8023   47.9214   55.3359 C   0  0  0  0  0  0  0  0  0  0  0  0
   69.1285   49.2217   54.9760 C   0  0  0  0  0  0  0  0  0  0  0  0
   69.3313   49.5834   53.6740 C   0  0  0  0  0  0  0  0  0  0  0  0
   69.2020   48.6037   52.7014 C   0  0  0  0  0  0  0  0  0  0  0  0
   68.8791   47.3267   53.0804 C   0  0  0  0  0  0  0  0  0  0  0  0
   68.6590   44.9147   55.8967 N   0  0  0  0  0  0  0  0  0  0  0  0
   68.3377   45.5435   54.6740 C   0  0  0  0  0  0  0  0  0  0  0  0
   67.7412   44.8763   53.7950 O   0  0  0  0  0  0  0  0  0  0  0  0
   69.2171   42.9632   57.2190 C   0  0  0  0  0  0  0  0  0  0  0  0
   69.0403   41.6684   57.6458 C   0  0  0  0  0  0  0  0  0  0  0  0
   68.0219   40.8860   57.1582 C   0  0  0  0  0  0  0  0  0  0  0  0
   67.1944   41.4647   56.2282 C   0  0  0  0  0  0  0  0  0  0  0  0
   67.3758   42.7884   55.7945 C   0  0  0  0  0  0  0  0  0  0  0  0
   68.3891   43.5802   56.2720 C   0  0  0  0  0  0  0  0  0  0  0  0
   71.1689   44.4012   58.2001 N   0  0  0  0  0  0  0  0  0  0  0  0
   70.3035   43.7556   57.7574 C   0  0  0  0  0  0  0  0  0  0  0  0
   69.6693   50.9794   53.3169 C   0  0  0  0  0  0  0  0  0  0  0  0
   69.8581   51.8825   54.4570 C   0  0  0  0  0  0  0  0  0  0  0  0
   68.8142   52.5238   55.1362 C   0  0  0  0  0  0  0  0  0  0  0  0
   69.3269   53.2423   56.1281 N   0  0  0  0  0  0  0  0  0  0  0  0
   70.6535   53.1376   56.1763 C   0  0  0  0  0  0  0  0  0  0  0  0
   71.5980   53.6616   56.9682 N   0  0  0  0  0  0  0  0  0  0  0  0
   72.9161   53.3872   56.7845 C   0  0  0  0  0  0  0  0  0  0  0  0
   73.8971   53.9538   57.6354 N   0  0  0  0  0  0  0  0  0  0  0  0
   73.2443   52.5609   55.7676 N   0  0  0  0  0  0  0  0  0  0  0  0
   72.3271   52.0160   54.9527 C   0  0  0  0  0  0  0  0  0  0  0  0
   72.6899   51.2582   54.0243 O   0  0  0  0  0  0  0  0  0  0  0  0
   70.9868   52.2835   55.1254 C   0  0  0  0  0  0  0  0  0  0  0  0
 16 17  3  0
 17 10  1  0
 10 11  2  0
 10 15  1  0
 11 12  1  0
 12 13  2  0
 13 14  1  0
 14 15  2  0
 15  7  1  0
  7  8  1  0
  8  9  2  0
  8  1  1  0
  1  2  2  0
  1  6  1  0
  2  3  1  0
  3  4  2  0
  4 18  1  0
  4  5  1  0
 18 19  1  0
 19 20  2  0
 19 29  1  0
 20 21  1  0
 21 22  1  0
 22 23  1  0
 22 29  2  0
 23 24  2  0
 24 25  1  0
 24 26  1  0
 26 27  1  0
 27 28  2  0
 27 29  1  0
  5  6  2  0
M  END
>  <minimizedAffinity>  (224) 
-8.53661

$$$$
data/reference_output_2/data/smiles/106895.pdb
     RDKit          3D

 27 30  0  0  0  0  0  0  0  0999 V2000
   69.7116   49.5932   53.3416 C   0  0  0  0  0  0  0  0  0  0  0  0
   69.3258   48.3680   53.9584 N   0  0  0  0  0  0  0  0  0  0  0  0
   68.7240   47.3508   53.3188 C   0  0  0  0  0  0  0  0  0  0  0  0
   68.4477   47.4413   51.9643 C   0  0  0  0  0  0  0  0  0  0  0  0
   67.8310   46.4017   51.2898 C   0  0  0  0  0  0  0  0  0  0  0  0
   67.4628   45.2407   51.9172 C   0  0  0  0  0  0  0  0  0  0  0  0
   67.7450   45.1555   53.2868 C   0  0  0  0  0  0  0  0  0  0  0  0
   68.3613   46.1759   53.9909 C   0  0  0  0  0  0  0  0  0  0  0  0
   68.6337   46.0776   55.3328 C   0  0  0  0  0  0  0  0  0  0  0  0
   68.3568   45.0924   56.0144 N   0  0  0  0  0  0  0  0  0  0  0  0
   69.2707   47.1510   56.0133 C   0  0  0  0  0  0  0  0  0  0  0  0
   69.5363   47.0159   57.3744 C   0  0  0  0  0  0  0  0  0  0  0  0
   70.1566   48.0537   58.0366 C   0  0  0  0  0  0  0  0  0  0  0  0
   70.5024   49.1974   57.3485 C   0  0  0  0  0  0  0  0  0  0  0  0
   70.2233   49.3028   55.9817 C   0  0  0  0  0  0  0  0  0  0  0  0
   69.5935   48.2564   55.2990 C   0  0  0  0  0  0  0  0  0  0  0  0
   67.8122   43.8941   55.9620 N   0  0  0  0  0  0  0  0  0  0  0  0
   68.3249   42.7275   56.6484 C   0  0  0  0  0  0  0  0  0  0  0  0
   67.6766   41.5170   56.6144 C   0  0  0  0  0  0  0  0  0  0  0  0
   68.1667   40.4117   57.2666 C   0  0  0  0  0  0  0  0  0  0  0  0
   69.3385   40.4887   57.9853 C   0  0  0  0  0  0  0  0  0  0  0  0
   69.9773   41.7182   58.0069 C   0  0  0  0  0  0  0  0  0  0  0  0
   69.5016   42.8218   57.3642 C   0  0  0  0  0  0  0  0  0  0  0  0
   70.0358   39.1554   58.8398 S   0  0  0  0  0  0  0  0  0  0  0  0
   71.2186   38.3097   57.9128 N   0  0  0  0  0  0  0  0  0  0  0  0
   68.9353   38.1545   59.1558 O   0  0  0  0  0  0  0  0  0  0  0  0
   70.6674   39.6404   60.1211 O   0  0  0  0  0  0  0  0  0  0  0  0
  1  2  1  0
  2  3  1  0
  2 16  1  0
  3  4  2  0
  3  8  1  0
  4  5  1  0
  5  6  2  0
  6  7  1  0
  7  8  2  0
  8  9  1  0
  9 10  2  0
  9 11  1  0
 10 17  1  0
 17 18  1  0
 18 19  2  0
 18 23  1  0
 19 20  1  0
 20 21  2  0
 21 24  1  0
 21 22  1  0
 24 25  1  0
 24 26  2  0
 24 27  2  0
 22 23  2  0
 11 12  1  0
 11 16  2  0
 12 13  2  0
 13 14  1  0
 14 15  2  0
 15 16  1  0
M  END
>  <minimizedAffinity>  (225) 
-9.04643

$$$$
data/reference_output_2/data/smiles/106934.pdb
     RDKit          3D

 27 29  0  0  0  0  0  0  0  0999 V2000
   69.0609   41.8036   57.3144 C   0  0  0  0  0  0  0  0  0  0  0  0
   68.0026   41.9309   56.4615 C   0  0  0  0  0  0  0  0  0  0  0  0
   67.7187   43.1470   55.7920 C   0  0  0  0  0  0  0  0  0  0  0  0
   68.4719   44.2622   55.9498 C   0  0  0  0  0  0  0  0  0  0  0  0
   69.5718   44.1089   56.8437 C   0  0  0  0  0  0  0  0  0  0  0  0
   69.8335   42.9311   57.4818 C   0  0  0  0  0  0  0  0  0  0  0  0
   70.0808   38.1875   59.3509 C   0  0  0  0  0  0  0  0  0  0  0  0
   71.0132   39.1398   59.0421 C   0  0  0  0  0  0  0  0  0  0  0  0
   70.6886   40.3280   58.3749 C   0  0  0  0  0  0  0  0  0  0  0  0
   69.3898   40.5641   58.0096 C   0  0  0  0  0  0  0  0  0  0  0  0
   68.4479   39.6086   58.3190 C   0  0  0  0  0  0  0  0  0  0  0  0
   68.7584   38.4370   58.9743 C   0  0  0  0  0  0  0  0  0  0  0  0
   71.7359   36.9204   61.3223 N   0  0  0  0  0  0  0  0  0  0  0  0
   70.4427   36.6931   60.1708 S   0  0  0  0  0  0  0  0  0  0  0  0
   70.9953   35.7021   59.1585 O   0  0  0  0  0  0  0  0  0  0  0  0
   69.2454   36.0512   60.7916 O   0  0  0  0  0  0  0  0  0  0  0  0
   68.2863   45.5634   55.3519 C   0  0  0  0  0  0  0  0  0  0  0  0
   68.0569   46.5539   56.1767 O   0  0  0  0  0  0  0  0  0  0  0  0
   68.3027   45.9559   53.9634 C   0  0  0  0  0  0  0  0  0  0  0  0
   67.5791   45.4342   52.9496 C   0  0  0  0  0  0  0  0  0  0  0  0
   67.6670   45.9676   51.6672 C   0  0  0  0  0  0  0  0  0  0  0  0
   68.4737   47.0240   51.3614 C   0  0  0  0  0  0  0  0  0  0  0  0
   69.2171   47.5624   52.3897 C   0  0  0  0  0  0  0  0  0  0  0  0
   69.1362   47.0481   53.6468 C   0  0  0  0  0  0  0  0  0  0  0  0
   70.1037   48.7046   52.0826 C   0  0  0  0  0  0  0  0  0  0  0  0
   71.1279   48.8456   52.7860 O   0  0  0  0  0  0  0  0  0  0  0  0
   69.8578   49.6104   51.0734 O   0  0  0  0  0  0  0  0  0  0  0  0
 13 14  1  0
 14 15  2  0
 14 16  2  0
 14  7  1  0
  7  8  2  0
  7 12  1  0
  8  9  1  0
  9 10  2  0
 10  1  1  0
 10 11  1  0
  1  2  2  0
  1  6  1  0
  2  3  1  0
  3  4  2  0
  4 17  1  0
  4  5  1  0
 17 18  2  0
 17 19  1  0
 19 20  2  0
 19 24  1  0
 20 21  1  0
 21 22  2  0
 22 23  1  0
 23 25  1  0
 23 24  2  0
 25 26  2  0
 25 27  1  0
  5  6  2  0
 11 12  2  0
M  END
>  <minimizedAffinity>  (226) 
-9.12679

$$$$
data/reference_output_2/data/smiles/106950.pdb
     RDKit          3D

 31 34  0  0  0  0  0  0  0  0999 V2000
   74.2546   50.4009   56.5444 C   0  0  0  0  0  0  0  0  0  0  0  0
   74.6471   49.1639   57.1944 C   0  0  0  0  0  0  0  0  0  0  0  0
   75.9076   48.8553   56.8749 O   0  0  0  0  0  0  0  0  0  0  0  0
   73.9931   48.2749   58.0491 N   0  0  0  0  0  0  0  0  0  0  0  0
   74.7795   47.0992   58.5137 C   0  0  0  0  0  0  0  0  0  0  0  0
   74.0689   45.8263   58.2488 C   0  0  0  0  0  0  0  0  0  0  0  0
   72.6511   45.9505   58.5864 N   0  0  0  0  0  0  0  0  0  0  0  0
   72.2650   47.1215   59.3184 C   0  0  0  0  0  0  0  0  0  0  0  0
   72.6316   48.3892   58.5157 C   0  0  0  0  0  0  0  0  0  0  0  0
   71.7718   44.9068   58.1661 C   0  0  0  0  0  0  0  0  0  0  0  0
   72.2317   43.5974   58.1129 C   0  0  0  0  0  0  0  0  0  0  0  0
   71.4324   42.5509   57.7118 C   0  0  0  0  0  0  0  0  0  0  0  0
   70.1262   42.7935   57.3491 C   0  0  0  0  0  0  0  0  0  0  0  0
   69.3339   41.7574   56.9524 F   0  0  0  0  0  0  0  0  0  0  0  0
   69.6172   44.0705   57.3832 C   0  0  0  0  0  0  0  0  0  0  0  0
   70.4638   45.1001   57.7945 C   0  0  0  0  0  0  0  0  0  0  0  0
   73.3438   50.3288   53.9084 O   0  0  0  0  0  0  0  0  0  0  0  0
   72.4922   50.5944   54.8064 C   0  0  0  0  0  0  0  0  0  0  0  0
   72.9086   50.6476   56.1986 N   0  0  0  0  0  0  0  0  0  0  0  0
   71.0951   50.8452   54.4126 C   0  0  0  0  0  0  0  0  0  0  0  0
   70.3270   49.6137   54.4249 N   0  0  0  0  0  0  0  0  0  0  0  0
   69.9535   49.0533   55.6015 C   0  0  0  0  0  0  0  0  0  0  0  0
   69.2177   47.8921   55.6056 C   0  0  0  0  0  0  0  0  0  0  0  0
   68.8484   47.2831   54.4122 C   0  0  0  0  0  0  0  0  0  0  0  0
   68.1128   46.1231   54.3542 C   0  0  0  0  0  0  0  0  0  0  0  0
   67.7915   45.5877   53.1356 C   0  0  0  0  0  0  0  0  0  0  0  0
   68.1806   46.1732   51.9433 C   0  0  0  0  0  0  0  0  0  0  0  0
   68.9177   47.3350   52.0019 C   0  0  0  0  0  0  0  0  0  0  0  0
   69.2468   47.8840   53.2460 C   0  0  0  0  0  0  0  0  0  0  0  0
   69.9835   49.0455   53.2762 C   0  0  0  0  0  0  0  0  0  0  0  0
   70.3518   49.5969   52.1771 O   0  0  0  0  0  0  0  0  0  0  0  0
 17 18  2  0
 18 20  1  0
 18 19  1  0
 20 21  1  0
 21 22  1  0
 21 30  1  0
 22 23  2  0
 23 24  1  0
 24 25  2  0
 24 29  1  0
 25 26  1  0
 26 27  2  0
 27 28  1  0
 28 29  2  0
 29 30  1  0
 30 31  2  0
 19  1  1  0
  1  2  1  0
  2  3  2  0
  2  4  1  0
  4  5  1  0
  4  9  1  0
  5  6  1  0
  6  7  1  0
  7 10  1  0
  7  8  1  0
 10 11  2  0
 10 16  1  0
 11 12  1  0
 12 13  2  0
 13 14  1  0
 13 15  1  0
 15 16  2  0
  8  9  1  0
M  END
>  <minimizedAffinity>  (227) 
-8.85150

$$$$
data/reference_output_2/data/smiles/106957.pdb
     RDKit          3D

 33 36  0  0  0  0  0  0  0  0999 V2000
   65.6457   40.0705   60.9074 C   0  0  0  0  0  0  0  0  0  0  0  0
   66.5066   40.5914   60.0389 C   0  0  0  0  0  0  0  0  0  0  0  0
   67.0324   39.7818   59.1082 N   0  0  0  0  0  0  0  0  0  0  0  0
   67.9051   40.2803   58.2111 C   0  0  0  0  0  0  0  0  0  0  0  0
   68.4067   39.5411   57.3342 O   0  0  0  0  0  0  0  0  0  0  0  0
   68.2737   41.6266   58.2331 C   0  0  0  0  0  0  0  0  0  0  0  0
   69.1431   42.1164   57.3444 C   0  0  0  0  0  0  0  0  0  0  0  0
   67.7495   42.4354   59.1621 N   0  0  0  0  0  0  0  0  0  0  0  0
   66.8732   41.9407   60.0636 C   0  0  0  0  0  0  0  0  0  0  0  0
   66.3736   42.6644   60.9333 O   0  0  0  0  0  0  0  0  0  0  0  0
   69.5660   43.5026   57.3133 C   0  0  0  0  0  0  0  0  0  0  0  0
   70.6702   43.9687   57.9913 C   0  0  0  0  0  0  0  0  0  0  0  0
   71.0594   45.2934   57.9387 C   0  0  0  0  0  0  0  0  0  0  0  0
   70.3161   46.1860   57.1795 C   0  0  0  0  0  0  0  0  0  0  0  0
   69.1859   45.7509   56.4749 C   0  0  0  0  0  0  0  0  0  0  0  0
   68.8518   44.4179   56.5696 C   0  0  0  0  0  0  0  0  0  0  0  0
   68.4104   46.7100   55.7039 C   0  0  0  0  0  0  0  0  0  0  0  0
   67.6321   47.5098   56.2756 O   0  0  0  0  0  0  0  0  0  0  0  0
   68.5130   46.7653   54.2639 C   0  0  0  0  0  0  0  0  0  0  0  0
   67.8147   45.8680   53.4972 C   0  0  0  0  0  0  0  0  0  0  0  0
   67.8720   45.9077   52.0995 C   0  0  0  0  0  0  0  0  0  0  0  0
   68.6313   46.8472   51.4637 C   0  0  0  0  0  0  0  0  0  0  0  0
   69.3409   47.7564   52.2188 C   0  0  0  0  0  0  0  0  0  0  0  0
   69.2793   47.7128   53.6174 C   0  0  0  0  0  0  0  0  0  0  0  0
   65.6380   37.7614   61.8459 C   0  0  0  0  0  0  0  0  0  0  0  0
   65.1246   36.5947   61.4666 O   0  0  0  0  0  0  0  0  0  0  0  0
   64.4860   36.7135   60.3481 C   0  0  0  0  0  0  0  0  0  0  0  0
   64.5691   37.9903   59.9621 N   0  0  0  0  0  0  0  0  0  0  0  0
   65.2691   38.6511   60.8615 C   0  0  0  0  0  0  0  0  0  0  0  0
   65.9329   37.1747   64.2618 C   0  0  0  0  0  0  0  0  0  0  0  0
   66.4414   37.9930   63.0939 C   0  0  0  0  0  0  0  0  0  0  0  0
   66.6187   39.4400   63.4169 C   0  0  0  0  0  0  0  0  0  0  0  0
   67.8546   37.4479   62.8246 C   0  0  0  0  0  0  0  0  0  0  0  0
 30 31  1  0
 31 32  1  0
 31 33  1  0
 31 25  1  0
 25 26  1  0
 25 29  2  0
 26 27  1  0
 27 28  2  0
 28 29  1  0
 29  1  1  0
  1  2  2  0
  2  3  1  0
  2  9  1  0
  3  4  1  0
  4  5  2  0
  4  6  1  0
  6  7  2  0
  6  8  1  0
  7 11  1  0
 11 12  2  0
 11 16  1  0
 12 13  1  0
 13 14  2  0
 14 15  1  0
 15 17  1  0
 15 16  2  0
 17 18  2  0
 17 19  1  0
 19 20  2  0
 19 24  1  0
 20 21  1  0
 21 22  2  0
 22 23  1  0
 23 24  2  0
  8  9  1  0
  9 10  2  0
M  END
>  <minimizedAffinity>  (228) 
-9.40530

$$$$
data/reference_output_2/data/smiles/107119.pdb
     RDKit          3D

 32 36  0  0  0  0  0  0  0  0999 V2000
   70.5766   37.0804   60.1910 C   0  0  0  0  0  0  0  0  0  0  0  0
   70.2967   38.4668   60.1807 C   0  0  0  0  0  0  0  0  0  0  0  0
   70.7668   39.2027   59.1204 C   0  0  0  0  0  0  0  0  0  0  0  0
   71.4931   38.6492   58.0783 C   0  0  0  0  0  0  0  0  0  0  0  0
   71.7567   37.2961   58.1053 C   0  0  0  0  0  0  0  0  0  0  0  0
   72.4244   36.5194   57.2427 N   0  0  0  0  0  0  0  0  0  0  0  0
   72.4368   35.2436   57.6723 C   0  0  0  0  0  0  0  0  0  0  0  0
   72.9732   34.0809   57.1742 C   0  0  0  0  0  0  0  0  0  0  0  0
   72.7922   32.9559   57.8811 N   0  0  0  0  0  0  0  0  0  0  0  0
   72.1106   32.9381   59.0474 C   0  0  0  0  0  0  0  0  0  0  0  0
   71.6022   34.0835   59.5053 N   0  0  0  0  0  0  0  0  0  0  0  0
   71.7235   35.2597   58.8809 C   0  0  0  0  0  0  0  0  0  0  0  0
   71.2952   36.5370   59.1586 C   0  0  0  0  0  0  0  0  0  0  0  0
   73.6850   34.1356   55.9410 N   0  0  0  0  0  0  0  0  0  0  0  0
   73.1075   34.1455   54.6533 C   0  0  0  0  0  0  0  0  0  0  0  0
   73.7345   35.1669   53.7495 C   0  0  0  0  0  0  0  0  0  0  0  0
   75.0866   35.4708   54.0535 N   0  0  0  0  0  0  0  0  0  0  0  0
   75.8017   34.4590   54.7532 C   0  0  0  0  0  0  0  0  0  0  0  0
   75.1393   34.1693   56.0702 C   0  0  0  0  0  0  0  0  0  0  0  0
   75.8153   36.2378   53.1190 C   0  0  0  0  0  0  0  0  0  0  0  0
   77.0529   35.6162   52.5601 C   0  0  0  0  0  0  0  0  0  0  0  0
   76.9147   35.2159   51.1262 C   0  0  0  0  0  0  0  0  0  0  0  0
   75.8782   34.3772   50.7248 C   0  0  0  0  0  0  0  0  0  0  0  0
   75.7550   34.0170   49.4042 C   0  0  0  0  0  0  0  0  0  0  0  0
   76.6733   34.5020   48.4954 C   0  0  0  0  0  0  0  0  0  0  0  0
   76.5274   34.1281   47.1862 F   0  0  0  0  0  0  0  0  0  0  0  0
   77.7040   35.3299   48.8611 C   0  0  0  0  0  0  0  0  0  0  0  0
   78.6063   35.8010   47.9394 F   0  0  0  0  0  0  0  0  0  0  0  0
   77.8064   35.6790   50.2020 C   0  0  0  0  0  0  0  0  0  0  0  0
   70.5136   36.4374   62.6546 N   0  0  0  0  0  0  0  0  0  0  0  0
   70.0678   36.3377   61.3207 C   0  0  0  0  0  0  0  0  0  0  0  0
   69.1136   35.4916   61.1317 O   0  0  0  0  0  0  0  0  0  0  0  0
 30 31  1  0
 31 32  2  0
 31  1  1  0
  1  2  2  0
  1 13  1  0
  2  3  1  0
  3  4  2  0
  4  5  1  0
  5  6  1  0
  5 13  2  0
  6  7  1  0
  7  8  1  0
  7 12  2  0
  8 14  1  0
  8  9  2  0
 14 15  1  0
 14 19  1  0
 15 16  1  0
 16 17  1  0
 17 20  1  0
 17 18  1  0
 20 21  1  0
 21 22  1  0
 22 23  2  0
 22 29  1  0
 23 24  1  0
 24 25  2  0
 25 26  1  0
 25 27  1  0
 27 28  1  0
 27 29  2  0
 18 19  1  0
  9 10  1  0
 10 11  2  0
 11 12  1  0
 12 13  1  0
M  CHG  1  17   1
M  END
>  <minimizedAffinity>  (229) 
-8.52925

$$$$
data/reference_output_2/data/smiles/107132.pdb
     RDKit          3D

 28 31  0  0  0  0  0  0  0  0999 V2000
   69.6910   46.7259   57.1613 C   0  0  0  0  0  0  0  0  0  0  0  0
   70.6876   47.1389   57.7771 O   0  0  0  0  0  0  0  0  0  0  0  0
   69.4416   45.3813   56.9857 N   0  0  0  0  0  0  0  0  0  0  0  0
   70.1670   44.3071   57.4013 N   0  0  0  0  0  0  0  0  0  0  0  0
   70.2462   43.7404   58.6846 C   0  0  0  0  0  0  0  0  0  0  0  0
   69.6210   44.1987   59.6452 O   0  0  0  0  0  0  0  0  0  0  0  0
   71.1345   42.5257   58.8738 C   0  0  0  0  0  0  0  0  0  0  0  0
   70.3391   41.3164   58.6049 C   0  0  0  0  0  0  0  0  0  0  0  0
   69.0045   41.3203   58.2851 C   0  0  0  0  0  0  0  0  0  0  0  0
   68.3107   40.1336   58.0345 C   0  0  0  0  0  0  0  0  0  0  0  0
   68.9723   38.9322   58.1085 C   0  0  0  0  0  0  0  0  0  0  0  0
   70.3106   38.9024   58.4264 C   0  0  0  0  0  0  0  0  0  0  0  0
   70.9771   37.6848   58.5056 C   0  0  0  0  0  0  0  0  0  0  0  0
   72.3118   37.6290   58.8274 C   0  0  0  0  0  0  0  0  0  0  0  0
   72.9886   38.7983   59.0714 C   0  0  0  0  0  0  0  0  0  0  0  0
   72.3282   40.0175   58.9944 C   0  0  0  0  0  0  0  0  0  0  0  0
   70.9854   40.0977   58.6737 C   0  0  0  0  0  0  0  0  0  0  0  0
   68.7524   47.7864   56.6060 C   0  0  0  0  0  0  0  0  0  0  0  0
   70.5416   50.0720   55.6604 C   0  0  0  0  0  0  0  0  0  0  0  0
   69.9042   49.0694   54.7722 C   0  0  0  0  0  0  0  0  0  0  0  0
   69.9816   48.9718   53.4333 N   0  0  0  0  0  0  0  0  0  0  0  0
   69.2484   47.9207   52.9983 C   0  0  0  0  0  0  0  0  0  0  0  0
   69.0175   47.4113   51.7337 C   0  0  0  0  0  0  0  0  0  0  0  0
   68.2063   46.3000   51.6372 C   0  0  0  0  0  0  0  0  0  0  0  0
   67.6511   45.7280   52.7875 C   0  0  0  0  0  0  0  0  0  0  0  0
   67.9007   46.2565   54.0263 C   0  0  0  0  0  0  0  0  0  0  0  0
   68.7103   47.3699   54.1455 C   0  0  0  0  0  0  0  0  0  0  0  0
   69.1059   48.0661   55.2402 N   0  0  0  0  0  0  0  0  0  0  0  0
 19 20  1  0
 20 21  2  0
 20 28  1  0
 21 22  1  0
 22 23  2  0
 22 27  1  0
 23 24  1  0
 24 25  2  0
 25 26  1  0
 26 27  2  0
 27 28  1  0
 28 18  1  0
 18  1  1  0
  1  2  2  0
  1  3  1  0
  3  4  1  0
  4  5  1  0
  5  6  2  0
  5  7  1  0
  7  8  1  0
  8  9  2  0
  8 17  1  0
  9 10  1  0
 10 11  2  0
 11 12  1  0
 12 13  1  0
 12 17  2  0
 13 14  2  0
 14 15  1  0
 15 16  2  0
 16 17  1  0
M  END
>  <minimizedAffinity>  (230) 
-8.87904

$$$$
data/reference_output_2/data/smiles/107196.pdb
     RDKit          3D

 29 31  0  0  0  0  0  0  0  0999 V2000
   67.3260   41.4475   56.9703 C   0  0  0  0  0  0  0  0  0  0  0  0
   68.1963   40.2982   56.5687 C   0  0  0  0  0  0  0  0  0  0  0  0
   68.5293   39.3751   57.7149 C   0  0  0  0  0  0  0  0  0  0  0  0
   69.0016   40.2206   58.7943 N   0  0  0  0  0  0  0  0  0  0  0  0
   67.8759   40.8772   59.3696 C   0  0  0  0  0  0  0  0  0  0  0  0
   66.8786   41.4143   58.4002 C   0  0  0  0  0  0  0  0  0  0  0  0
   67.5296   43.5839   55.5694 N   0  0  0  0  0  0  0  0  0  0  0  0
   67.9160   42.7735   56.6480 C   0  0  0  0  0  0  0  0  0  0  0  0
   68.8413   43.2337   57.3891 O   0  0  0  0  0  0  0  0  0  0  0  0
   67.9786   45.4797   54.0268 C   0  0  0  0  0  0  0  0  0  0  0  0
   67.3274   44.8786   53.1368 O   0  0  0  0  0  0  0  0  0  0  0  0
   68.0899   44.8367   55.2695 N   0  0  0  0  0  0  0  0  0  0  0  0
   70.2529   50.6980   52.9825 C   0  0  0  0  0  0  0  0  0  0  0  0
   69.6690   49.3404   53.2295 C   0  0  0  0  0  0  0  0  0  0  0  0
   69.2455   48.9703   54.4873 C   0  0  0  0  0  0  0  0  0  0  0  0
   68.7072   47.7191   54.7101 C   0  0  0  0  0  0  0  0  0  0  0  0
   68.5607   46.7799   53.7113 C   0  0  0  0  0  0  0  0  0  0  0  0
   68.9847   47.1531   52.4537 C   0  0  0  0  0  0  0  0  0  0  0  0
   69.5308   48.4146   52.2201 C   0  0  0  0  0  0  0  0  0  0  0  0
   69.7094   39.2405   60.0256 S   0  0  0  0  0  0  0  0  0  0  0  0
   68.6749   38.7041   60.9684 O   0  0  0  0  0  0  0  0  0  0  0  0
   70.6893   40.1369   60.7698 O   0  0  0  0  0  0  0  0  0  0  0  0
   70.6593   37.9731   59.2991 C   0  0  0  0  0  0  0  0  0  0  0  0
   70.5641   36.6515   59.7076 C   0  0  0  0  0  0  0  0  0  0  0  0
   71.3083   35.6531   59.1280 C   0  0  0  0  0  0  0  0  0  0  0  0
   72.1833   35.9204   58.1123 C   0  0  0  0  0  0  0  0  0  0  0  0
   72.9868   34.8623   57.4817 C   0  0  0  0  0  0  0  0  0  0  0  0
   72.2809   37.2383   57.7012 C   0  0  0  0  0  0  0  0  0  0  0  0
   71.5468   38.2423   58.2690 C   0  0  0  0  0  0  0  0  0  0  0  0
 13 14  1  0
 14 15  2  0
 14 19  1  0
 15 16  1  0
 16 17  2  0
 17 10  1  0
 17 18  1  0
 10 11  2  0
 10 12  1  0
 12  7  1  0
  7  8  1  0
  8  9  2  0
  8  1  1  0
  1  2  1  0
  1  6  1  0
  2  3  1  0
  3  4  1  0
  4 20  1  0
  4  5  1  0
 20 21  2  0
 20 22  2  0
 20 23  1  0
 23 24  2  0
 23 29  1  0
 24 25  1  0
 25 26  2  0
 26 27  1  0
 26 28  1  0
 28 29  2  0
  5  6  1  0
 18 19  2  0
M  END
>  <minimizedAffinity>  (231) 
-8.77766

$$$$
data/reference_output_2/data/smiles/107318.pdb
     RDKit          3D

 25 27  0  0  0  0  0  0  0  0999 V2000
   69.5362   48.0657   57.3357 C   0  0  0  0  0  0  0  0  0  0  0  0
   68.2727   48.5801   57.5208 C   0  0  0  0  0  0  0  0  0  0  0  0
   67.9072   49.7936   56.9906 C   0  0  0  0  0  0  0  0  0  0  0  0
   68.8029   50.5687   56.2355 C   0  0  0  0  0  0  0  0  0  0  0  0
   70.0540   50.0214   56.0730 C   0  0  0  0  0  0  0  0  0  0  0  0
   70.4356   48.8067   56.5971 C   0  0  0  0  0  0  0  0  0  0  0  0
   71.0333   50.8328   55.2552 C   0  0  0  0  0  0  0  0  0  0  0  0
   70.1504   51.3244   54.0974 C   0  0  2  0  0  0  0  0  0  0  0  0
   69.3159   52.4228   54.7036 C   0  0  0  0  0  0  0  0  0  0  0  0
   68.3479   51.8707   55.7014 C   0  0  0  0  0  0  0  0  0  0  0  0
   69.6740   45.7027   57.2686 O   0  0  0  0  0  0  0  0  0  0  0  0
   69.9560   46.7794   57.8847 C   0  0  0  0  0  0  0  0  0  0  0  0
   70.6792   46.6300   59.0936 N   0  0  0  0  0  0  0  0  0  0  0  0
   71.0530   45.4087   59.5700 O   0  0  0  0  0  0  0  0  0  0  0  0
   69.2853   50.3468   53.5732 N   0  0  0  0  0  0  0  0  0  0  0  0
   69.9568   49.2119   52.5028 S   0  0  0  0  0  0  0  0  0  0  0  0
   69.7643   49.7068   51.0959 O   0  0  0  0  0  0  0  0  0  0  0  0
   71.3983   48.9167   52.7792 O   0  0  0  0  0  0  0  0  0  0  0  0
   69.0661   47.7228   52.6757 C   0  0  0  0  0  0  0  0  0  0  0  0
   68.5500   47.1162   51.5551 C   0  0  0  0  0  0  0  0  0  0  0  0
   67.8327   45.9377   51.6045 C   0  0  0  0  0  0  0  0  0  0  0  0
   67.6238   45.3460   52.8083 C   0  0  0  0  0  0  0  0  0  0  0  0
   68.1191   45.9123   53.9612 C   0  0  0  0  0  0  0  0  0  0  0  0
   67.8959   45.2989   55.1509 F   0  0  0  0  0  0  0  0  0  0  0  0
   68.8442   47.1081   53.8864 C   0  0  0  0  0  0  0  0  0  0  0  0
 11 12  2  0
 12 13  1  0
 12  1  1  0
 13 14  1  0
  1  2  2  0
  1  6  1  0
  2  3  1  0
  3  4  2  0
  4  5  1  0
  4 10  1  0
  5  6  2  0
  5  7  1  0
  7  8  1  0
  8 15  1  1
  8  9  1  0
 15 16  1  0
 16 17  2  0
 16 18  2  0
 16 19  1  0
 19 20  2  0
 19 25  1  0
 20 21  1  0
 21 22  2  0
 22 23  1  0
 23 24  1  0
 23 25  2  0
  9 10  1  0
M  END
>  <minimizedAffinity>  (232) 
-9.11906

$$$$
data/reference_output_2/data/smiles/107383.pdb
     RDKit          3D

 21 23  0  0  0  0  0  0  0  0999 V2000
   70.9382   50.9379   53.7922 S   0  0  0  0  0  0  0  0  0  0  0  0
   72.2416   51.6881   53.9716 O   0  0  0  0  0  0  0  0  0  0  0  0
   70.2073   51.7915   52.7296 O   0  0  0  0  0  0  0  0  0  0  0  0
   69.7421   50.6140   57.5694 C   0  0  0  0  0  0  0  0  0  0  0  0
   68.4444   51.1080   57.5003 C   0  0  0  0  0  0  0  0  0  0  0  0
   67.9313   51.5181   56.3049 C   0  0  0  0  0  0  0  0  0  0  0  0
   68.6848   51.4451   55.1740 C   0  0  0  0  0  0  0  0  0  0  0  0
   69.9920   50.9473   55.2433 C   0  0  0  0  0  0  0  0  0  0  0  0
   70.5102   50.5373   56.4317 C   0  0  0  0  0  0  0  0  0  0  0  0
   71.0935   49.1207   58.8781 C   0  0  0  0  0  0  0  0  0  0  0  0
   70.2114   50.2112   58.8133 O   0  0  0  0  0  0  0  0  0  0  0  0
   71.2357   49.4124   53.1459 N   0  0  0  0  0  0  0  0  0  0  0  0
   70.3900   48.4427   52.5975 C   0  0  0  0  0  0  0  0  0  0  0  0
   70.4140   48.0818   51.2485 N   0  0  0  0  0  0  0  0  0  0  0  0
   69.5548   47.1598   51.0241 O   0  0  0  0  0  0  0  0  0  0  0  0
   68.9165   46.8277   52.0951 C   0  0  0  0  0  0  0  0  0  0  0  0
   67.9120   45.9019   52.3796 C   0  0  0  0  0  0  0  0  0  0  0  0
   67.4321   45.7816   53.6663 C   0  0  0  0  0  0  0  0  0  0  0  0
   67.9218   46.5576   54.6834 C   0  0  0  0  0  0  0  0  0  0  0  0
   68.9287   47.4791   54.3749 C   0  0  0  0  0  0  0  0  0  0  0  0
   69.4228   47.6209   53.1091 C   0  0  0  0  0  0  0  0  0  0  0  0
 10 11  1  0
 11  4  1  0
  4  5  2  0
  4  9  1  0
  5  6  1  0
  6  7  2  0
  7  8  1  0
  8  1  1  0
  8  9  2  0
  1  2  2  0
  1  3  2  0
  1 12  1  0
 12 13  1  0
 13 14  2  0
 13 21  1  0
 14 15  1  0
 15 16  1  0
 16 17  1  0
 16 21  2  0
 17 18  2  0
 18 19  1  0
 19 20  2  0
 20 21  1  0
M  END
>  <minimizedAffinity>  (233) 
-8.62865

$$$$
data/reference_output_2/data/smiles/107626.pdb
     RDKit          3D

 22 24  0  0  0  0  0  0  0  0999 V2000
   69.9340   50.9647   55.3465 C   0  0  2  0  0  0  0  0  0  0  0  0
   71.1865   50.4818   55.7705 O   0  0  0  0  0  0  0  0  0  0  0  0
   69.9719   52.4198   55.5721 C   0  0  0  0  0  0  0  0  0  0  0  0
   70.8554   53.2171   55.1351 O   0  0  0  0  0  0  0  0  0  0  0  0
   68.8631   52.7770   56.3557 N   0  0  0  0  0  0  0  0  0  0  0  0
   68.2217   51.5593   56.7538 C   0  0  0  0  0  0  0  0  0  0  0  0
   67.1226   51.3771   57.6076 C   0  0  0  0  0  0  0  0  0  0  0  0
   66.7224   50.0997   57.9265 C   0  0  0  0  0  0  0  0  0  0  0  0
   67.3948   49.0107   57.4138 C   0  0  0  0  0  0  0  0  0  0  0  0
   66.9836   47.7204   57.7438 O   0  0  0  0  0  0  0  0  0  0  0  0
   68.4638   49.1773   56.5830 C   0  0  0  0  0  0  0  0  0  0  0  0
   68.8779   50.4791   56.2498 C   0  0  0  0  0  0  0  0  0  0  0  0
   69.6961   50.6655   53.8847 C   0  0  0  0  0  0  0  0  0  0  0  0
   71.4755   49.2915   53.2504 O   0  0  0  0  0  0  0  0  0  0  0  0
   70.2217   49.4004   53.4242 C   0  0  0  0  0  0  0  0  0  0  0  0
   69.4285   48.1913   53.1282 C   0  0  0  0  0  0  0  0  0  0  0  0
   68.8719   47.4391   54.1420 C   0  0  0  0  0  0  0  0  0  0  0  0
   68.1217   46.3109   53.9146 C   0  0  0  0  0  0  0  0  0  0  0  0
   67.9132   45.9071   52.6167 C   0  0  0  0  0  0  0  0  0  0  0  0
   67.1762   44.7936   52.3321 F   0  0  0  0  0  0  0  0  0  0  0  0
   68.4701   46.6592   51.5905 C   0  0  0  0  0  0  0  0  0  0  0  0
   69.2135   47.7799   51.8368 C   0  0  0  0  0  0  0  0  0  0  0  0
 14 15  2  0
 15 13  1  0
 15 16  1  0
 13  1  1  0
  1  2  1  1
  1  3  1  0
  1 12  1  0
  3  4  2  0
  3  5  1  0
  5  6  1  0
  6  7  1  0
  6 12  2  0
  7  8  2  0
  8  9  1  0
  9 10  1  0
  9 11  2  0
 11 12  1  0
 16 17  2  0
 16 22  1  0
 17 18  1  0
 18 19  2  0
 19 20  1  0
 19 21  1  0
 21 22  2  0
M  END
>  <minimizedAffinity>  (234) 
-8.52170

$$$$
data/reference_output_2/data/smiles/107648.pdb
     RDKit          3D

 27 30  0  0  0  0  0  0  0  0999 V2000
   72.2888   47.3354   59.9498 C   0  0  0  0  0  0  0  0  0  0  0  0
   72.2902   45.9728   59.7509 C   0  0  0  0  0  0  0  0  0  0  0  0
   71.4319   45.4164   58.7997 C   0  0  0  0  0  0  0  0  0  0  0  0
   70.6012   46.1838   58.0703 N   0  0  0  0  0  0  0  0  0  0  0  0
   69.7121   45.8992   57.1341 N   0  0  0  0  0  0  0  0  0  0  0  0
   69.1005   47.0011   56.6811 C   0  0  0  0  0  0  0  0  0  0  0  0
   69.6871   48.0346   57.4230 C   0  0  0  0  0  0  0  0  0  0  0  0
   70.6171   47.5160   58.2828 C   0  0  0  0  0  0  0  0  0  0  0  0
   71.4499   48.0733   59.2085 N   0  0  0  0  0  0  0  0  0  0  0  0
   71.4486   43.9852   58.6100 C   0  0  0  0  0  0  0  0  0  0  0  0
   70.4326   43.1831   59.0801 C   0  0  0  0  0  0  0  0  0  0  0  0
   70.4394   41.8071   58.9086 C   0  0  0  0  0  0  0  0  0  0  0  0
   71.4860   41.2112   58.2499 C   0  0  0  0  0  0  0  0  0  0  0  0
   71.5052   39.8510   58.0731 F   0  0  0  0  0  0  0  0  0  0  0  0
   72.5014   41.9733   57.7741 C   0  0  0  0  0  0  0  0  0  0  0  0
   72.4808   43.3502   57.9537 C   0  0  0  0  0  0  0  0  0  0  0  0
   74.3923   48.5909   60.5897 N   0  0  0  0  0  0  0  0  0  0  0  0
   73.1798   47.9604   60.9454 C   0  0  0  0  0  0  0  0  0  0  0  0
   72.8419   47.9258   62.1405 O   0  0  0  0  0  0  0  0  0  0  0  0
   68.0490   47.2101   55.6673 C   0  0  0  0  0  0  0  0  0  0  0  0
   68.1907   46.4238   54.4292 C   0  0  0  0  0  0  0  0  0  0  0  0
   68.8965   47.1683   53.3724 C   0  0  0  0  0  0  0  0  0  0  0  0
   69.2855   48.4916   53.6237 C   0  0  0  0  0  0  0  0  0  0  0  0
   69.9110   49.2128   52.6350 C   0  0  0  0  0  0  0  0  0  0  0  0
   70.1461   48.6242   51.4145 C   0  0  0  0  0  0  0  0  0  0  0  0
   69.7667   47.3648   51.2017 N   0  0  0  0  0  0  0  0  0  0  0  0
   69.1482   46.6235   52.1504 C   0  0  0  0  0  0  0  0  0  0  0  0
 17 18  1  0
 18 19  2  0
 18  1  1  0
  1  2  1  0
  1  9  2  0
  2  3  2  0
  3 10  1  0
  3  4  1  0
 10 11  2  0
 10 16  1  0
 11 12  1  0
 12 13  2  0
 13 14  1  0
 13 15  1  0
 15 16  2  0
  4  5  1  0
  4  8  1  0
  5  6  2  0
  6 20  1  0
  6  7  1  0
 20 21  1  0
 21 22  1  0
 22 23  2  0
 22 27  1  0
 23 24  1  0
 24 25  2  0
 25 26  1  0
 26 27  2  0
  7  8  2  0
  8  9  1  0
M  END
>  <minimizedAffinity>  (235) 
-8.68942

$$$$
data/reference_output_2/data/smiles/107860.pdb
     RDKit          3D

 27 30  0  0  0  0  0  0  0  0999 V2000
   69.0369   46.2082   56.0743 N   0  0  0  0  0  0  0  0  0  0  0  0
   68.4209   44.9992   56.1001 N   0  0  0  0  0  0  0  0  0  0  0  0
   67.8844   44.6728   54.9419 C   0  0  0  0  0  0  0  0  0  0  0  0
   68.1532   45.7169   54.0908 C   0  0  0  0  0  0  0  0  0  0  0  0
   67.8590   45.9784   52.7677 C   0  0  0  0  0  0  0  0  0  0  0  0
   67.2018   45.0962   52.1266 O   0  0  0  0  0  0  0  0  0  0  0  0
   68.2464   47.0881   52.2096 O   0  0  0  0  0  0  0  0  0  0  0  0
   68.9235   48.0094   52.8470 C   0  0  0  0  0  0  0  0  0  0  0  0
   69.3174   49.1827   52.2155 C   0  0  0  0  0  0  0  0  0  0  0  0
   70.0259   50.1140   52.9393 C   0  0  0  0  0  0  0  0  0  0  0  0
   70.3449   49.9046   54.2553 C   0  0  0  0  0  0  0  0  0  0  0  0
   69.9541   48.7291   54.9000 C   0  0  0  0  0  0  0  0  0  0  0  0
   69.2520   47.8044   54.1854 C   0  0  0  0  0  0  0  0  0  0  0  0
   68.8630   46.6338   54.8352 C   0  0  0  0  0  0  0  0  0  0  0  0
   69.6836   46.6923   57.2474 C   0  0  0  0  0  0  0  0  0  0  0  0
   71.6205   45.1150   57.7401 N   0  0  0  0  0  0  0  0  0  0  0  0
   70.3668   45.6612   58.0605 C   0  0  0  0  0  0  0  0  0  0  0  0
   69.7956   45.2186   59.1417 O   0  0  0  0  0  0  0  0  0  0  0  0
   72.2717   44.1059   58.5583 C   0  0  0  0  0  0  0  0  0  0  0  0
   72.5335   42.8153   57.8445 C   0  0  0  0  0  0  0  0  0  0  0  0
   68.1646   39.1508   58.2903 C   0  0  0  0  0  0  0  0  0  0  0  0
   69.2853   40.1309   58.1602 C   0  0  0  0  0  0  0  0  0  0  0  0
   70.5323   39.7629   58.6123 C   0  0  0  0  0  0  0  0  0  0  0  0
   71.6101   40.6366   58.5172 C   0  0  0  0  0  0  0  0  0  0  0  0
   71.3891   41.8736   57.9593 C   0  0  0  0  0  0  0  0  0  0  0  0
   70.1451   42.2346   57.5112 C   0  0  0  0  0  0  0  0  0  0  0  0
   69.0841   41.3796   57.6040 C   0  0  0  0  0  0  0  0  0  0  0  0
 21 22  1  0
 22 23  2  0
 22 27  1  0
 23 24  1  0
 24 25  2  0
 25 20  1  0
 25 26  1  0
 20 19  1  0
 19 16  1  0
 16 17  1  0
 17 18  2  0
 17 15  1  0
 15  1  1  0
  1  2  1  0
  1 14  1  0
  2  3  2  0
  3  4  1  0
  4  5  1  0
  4 14  2  0
  5  6  2  0
  5  7  1  0
  7  8  1  0
  8  9  1  0
  8 13  2  0
  9 10  2  0
 10 11  1  0
 11 12  2  0
 12 13  1  0
 13 14  1  0
 26 27  2  0
M  END
>  <minimizedAffinity>  (236) 
-8.88767

$$$$
data/reference_output_2/data/smiles/107861.pdb
     RDKit          3D

 23 26  0  0  0  0  0  0  0  0999 V2000
   71.0435   52.8288   55.5296 C   0  0  0  0  0  0  0  0  0  0  0  0
   70.8797   51.7342   54.7129 C   0  0  0  0  0  0  0  0  0  0  0  0
   69.6264   51.1935   54.3947 C   0  0  0  0  0  0  0  0  0  0  0  0
   68.5248   51.7916   54.9274 C   0  0  0  0  0  0  0  0  0  0  0  0
   68.6774   52.8886   55.7473 C   0  0  0  0  0  0  0  0  0  0  0  0
   69.9051   53.4276   56.0663 C   0  0  0  0  0  0  0  0  0  0  0  0
   70.0433   54.5077   56.8751 F   0  0  0  0  0  0  0  0  0  0  0  0
   69.5886   50.0400   53.5094 C   0  0  0  0  0  0  0  0  0  0  0  0
   70.0649   50.1697   52.2634 N   0  0  0  0  0  0  0  0  0  0  0  0
   70.0529   49.1463   51.4148 N   0  0  0  0  0  0  0  0  0  0  0  0
   69.5699   47.9426   51.7545 C   0  0  0  0  0  0  0  0  0  0  0  0
   69.5590   46.9635   50.9410 O   0  0  0  0  0  0  0  0  0  0  0  0
   69.0606   47.7296   53.0220 C   0  0  0  0  0  0  0  0  0  0  0  0
   69.0884   48.8260   53.8914 C   0  0  0  0  0  0  0  0  0  0  0  0
   68.5723   48.6301   55.2440 C   0  0  0  0  0  0  0  0  0  0  0  0
   68.9725   47.2456   55.7154 C   0  0  0  0  0  0  0  0  0  0  0  0
   68.4391   46.1590   54.8565 C   0  0  0  0  0  0  0  0  0  0  0  0
   68.5256   46.4101   53.3947 C   0  0  0  0  0  0  0  0  0  0  0  0
   73.1175   53.2343   58.1697 O   0  0  0  0  0  0  0  0  0  0  0  0
   73.0887   53.6204   56.9747 C   0  0  0  0  0  0  0  0  0  0  0  0
   73.8874   54.5938   56.1899 C   0  0  0  0  0  0  0  0  0  0  0  0
   73.4135   53.8115   55.0120 C   0  0  0  0  0  0  0  0  0  0  0  0
   72.3224   53.3415   55.8253 N   0  0  0  0  0  0  0  0  0  0  0  0
 19 20  2  0
 20 21  1  0
 20 23  1  0
 21 22  1  0
 22 23  1  0
 23  1  1  0
  1  2  2  0
  1  6  1  0
  2  3  1  0
  3  8  1  0
  3  4  2  0
  8  9  2  0
  8 14  1  0
  9 10  1  0
 10 11  1  0
 11 12  2  0
 11 13  1  0
 13 14  2  0
 13 18  1  0
 14 15  1  0
 15 16  1  0
 16 17  1  0
 17 18  1  0
  4  5  1  0
  5  6  2  0
  6  7  1  0
M  END
>  <minimizedAffinity>  (237) 
-8.87503

$$$$
data/reference_output_2/data/smiles/108063.pdb
     RDKit          3D

 23 25  0  0  0  0  0  0  0  0999 V2000
   69.9187   47.0060   57.8051 C   0  0  0  0  0  0  0  0  0  0  0  0
   70.7064   48.1012   58.1040 C   0  0  0  0  0  0  0  0  0  0  0  0
   71.6303   48.0621   59.1468 C   0  0  0  0  0  0  0  0  0  0  0  0
   71.7906   46.9302   59.9186 C   0  0  0  0  0  0  0  0  0  0  0  0
   70.9929   45.8874   59.5816 N   0  0  0  0  0  0  0  0  0  0  0  0
   70.1212   45.9337   58.5918 N   0  0  0  0  0  0  0  0  0  0  0  0
   72.7395   46.8332   61.0209 C   0  0  0  0  0  0  0  0  0  0  0  0
   73.4401   45.7051   61.3697 C   0  0  0  0  0  0  0  0  0  0  0  0
   74.3305   45.6782   62.4287 C   0  0  0  0  0  0  0  0  0  0  0  0
   74.5233   46.8283   63.1626 C   0  0  0  0  0  0  0  0  0  0  0  0
   73.8169   47.9591   62.8066 C   0  0  0  0  0  0  0  0  0  0  0  0
   72.9658   47.9248   61.7685 N   0  0  0  0  0  0  0  0  0  0  0  0
   68.7472   46.9710   56.5238 S   0  0  0  0  0  0  0  0  0  0  0  0
   68.4402   45.5281   56.1328 O   0  0  0  0  0  0  0  0  0  0  0  0
   67.4371   47.5461   56.9927 O   0  0  0  0  0  0  0  0  0  0  0  0
   69.2349   47.8156   55.0493 C   0  0  0  0  0  0  0  0  0  0  0  0
   70.1692   48.8000   52.4168 C   0  0  0  0  0  0  0  0  0  0  0  0
   69.2293   47.6709   52.5859 C   0  0  0  0  0  0  0  0  0  0  0  0
   68.7760   47.0500   51.4424 C   0  0  0  0  0  0  0  0  0  0  0  0
   67.8559   46.0063   51.4638 C   0  0  0  0  0  0  0  0  0  0  0  0
   67.3948   45.5926   52.6826 C   0  0  0  0  0  0  0  0  0  0  0  0
   67.8407   46.2050   53.8334 C   0  0  0  0  0  0  0  0  0  0  0  0
   68.7528   47.2389   53.8057 C   0  0  0  0  0  0  0  0  0  0  0  0
 17 18  1  0
 18 19  2  0
 18 23  1  0
 19 20  1  0
 20 21  2  0
 21 22  1  0
 22 23  2  0
 23 16  1  0
 16 13  1  0
 13 14  2  0
 13 15  2  0
 13  1  1  0
  1  2  2  0
  1  6  1  0
  2  3  1  0
  3  4  2  0
  4  7  1  0
  4  5  1  0
  7  8  2  0
  7 12  1  0
  8  9  1  0
  9 10  2  0
 10 11  1  0
 11 12  2  0
  5  6  2  0
M  END
>  <minimizedAffinity>  (238) 
-8.85366

$$$$
data/reference_output_2/data/smiles/108095.pdb
     RDKit          3D

 26 28  0  0  0  0  0  0  0  0999 V2000
   69.6377   47.3130   57.1203 C   0  0  0  0  0  0  0  0  0  0  0  0
   70.5249   46.6909   57.9267 C   0  0  0  0  0  0  0  0  0  0  0  0
   71.1485   47.6206   58.7062 N   0  0  0  0  0  0  0  0  0  0  0  0
   70.6817   48.8465   58.4248 C   0  0  0  0  0  0  0  0  0  0  0  0
   71.0125   50.1032   58.9578 C   0  0  0  0  0  0  0  0  0  0  0  0
   70.3500   51.1926   58.4557 C   0  0  0  0  0  0  0  0  0  0  0  0
   69.4021   51.0460   57.4699 C   0  0  0  0  0  0  0  0  0  0  0  0
   68.5637   52.4660   56.8406 Cl  0  0  0  0  0  0  0  0  0  0  0  0
   69.0867   49.8088   56.9550 C   0  0  0  0  0  0  0  0  0  0  0  0
   69.7453   48.6808   57.4460 C   0  0  0  0  0  0  0  0  0  0  0  0
   68.5649   46.7539   55.8604 S   0  0  0  0  0  0  0  0  0  0  0  0
   67.2089   47.3829   56.2096 O   0  0  0  0  0  0  0  0  0  0  0  0
   68.2925   45.2755   55.9384 O   0  0  0  0  0  0  0  0  0  0  0  0
   67.6631   45.5574   53.1622 C   0  0  0  0  0  0  0  0  0  0  0  0
   68.5930   46.7026   53.1177 C   0  0  0  0  0  0  0  0  0  0  0  0
   69.0188   47.1866   51.8655 C   0  0  0  0  0  0  0  0  0  0  0  0
   69.8628   48.2622   51.7679 C   0  0  0  0  0  0  0  0  0  0  0  0
   70.2733   48.8462   52.9403 C   0  0  0  0  0  0  0  0  0  0  0  0
   69.8628   48.3811   54.1678 C   0  0  0  0  0  0  0  0  0  0  0  0
   68.9966   47.2768   54.2870 C   0  0  0  0  0  0  0  0  0  0  0  0
   70.7751   45.2642   58.0189 C   0  0  0  0  0  0  0  0  0  0  0  0
   71.8872   44.7874   57.7583 O   0  0  0  0  0  0  0  0  0  0  0  0
   69.7517   44.3606   58.4130 N   0  0  0  0  0  0  0  0  0  0  0  0
   69.9799   42.9314   58.5125 C   0  0  0  0  0  0  0  0  0  0  0  0
   69.2668   42.4491   59.7409 C   0  0  0  0  0  0  0  0  0  0  0  0
   68.6675   43.5422   60.3939 O   0  0  0  0  0  0  0  0  0  0  0  0
 14 15  1  0
 15 16  2  0
 15 20  1  0
 16 17  1  0
 17 18  2  0
 18 19  1  0
 19 20  2  0
 20 11  1  0
 11 12  2  0
 11 13  2  0
 11  1  1  0
  1  2  2  0
  1 10  1  0
  2 21  1  0
  2  3  1  0
 21 22  2  0
 21 23  1  0
 23 24  1  0
 24 25  1  0
 25 26  1  0
  3  4  1  0
  4  5  1  0
  4 10  2  0
  5  6  2  0
  6  7  1  0
  7  8  1  0
  7  9  2  0
  9 10  1  0
M  END
>  <minimizedAffinity>  (239) 
-8.70311

$$$$
data/reference_output_2/data/smiles/108139.pdb
     RDKit          3D

 25 27  0  0  0  0  0  0  0  0999 V2000
   67.7710   41.4327   57.2395 C   0  0  0  0  0  0  0  0  0  0  0  0
   68.2149   40.1320   57.1701 C   0  0  0  0  0  0  0  0  0  0  0  0
   67.8539   39.2153   58.1342 C   0  0  0  0  0  0  0  0  0  0  0  0
   67.0293   39.6192   59.1895 C   0  0  0  0  0  0  0  0  0  0  0  0
   66.5739   40.9187   59.2762 C   0  0  0  0  0  0  0  0  0  0  0  0
   66.9614   41.8077   58.2848 C   0  0  0  0  0  0  0  0  0  0  0  0
   67.5319   43.4479   55.9400 N   0  0  0  0  0  0  0  0  0  0  0  0
   68.1788   42.3764   56.1927 C   0  0  0  0  0  0  0  0  0  0  0  0
   68.4618   46.0196   56.4115 O   0  0  0  0  0  0  0  0  0  0  0  0
   68.3527   45.6658   55.2041 C   0  0  0  0  0  0  0  0  0  0  0  0
   67.8861   44.3726   54.9509 N   0  0  0  0  0  0  0  0  0  0  0  0
   68.7216   46.6317   54.1781 C   0  0  0  0  0  0  0  0  0  0  0  0
   69.2461   47.8743   54.4663 C   0  0  0  0  0  0  0  0  0  0  0  0
   69.5931   48.7830   53.5050 C   0  0  0  0  0  0  0  0  0  0  0  0
   69.4349   48.4948   52.2226 N   0  0  0  0  0  0  0  0  0  0  0  0
   69.7856   49.4141   51.2405 O   0  0  0  0  0  0  0  0  0  0  0  0
   68.9245   47.2885   51.8846 C   0  0  0  0  0  0  0  0  0  0  0  0
   68.5666   46.3561   52.8333 C   0  0  0  0  0  0  0  0  0  0  0  0
   65.7562   41.3013   60.3303 O   0  0  0  0  0  0  0  0  0  0  0  0
   66.3484   41.5763   61.5414 C   0  0  0  0  0  0  0  0  0  0  0  0
   66.0768   40.8263   62.6579 C   0  0  0  0  0  0  0  0  0  0  0  0
   66.6697   41.0975   63.8839 C   0  0  0  0  0  0  0  0  0  0  0  0
   67.5500   42.1352   64.0002 C   0  0  0  0  0  0  0  0  0  0  0  0
   67.8403   42.9023   62.9012 C   0  0  0  0  0  0  0  0  0  0  0  0
   67.2355   42.6169   61.6772 C   0  0  0  0  0  0  0  0  0  0  0  0
  9 10  2  0
 10 11  1  0
 10 12  1  0
 11  7  1  0
  7  8  2  0
  8  1  1  0
  1  2  2  0
  1  6  1  0
  2  3  1  0
  3  4  2  0
  4  5  1  0
  5 19  1  0
  5  6  2  0
 19 20  1  0
 20 21  2  0
 20 25  1  0
 21 22  1  0
 22 23  2  0
 23 24  1  0
 24 25  2  0
 12 13  2  0
 12 18  1  0
 13 14  1  0
 14 15  2  0
 15 16  1  0
 15 17  1  0
 17 18  2  0
M  CHG  2  15   1  16  -1
M  END
>  <minimizedAffinity>  (240) 
-8.57648

$$$$
data/reference_output_2/data/smiles/108178.pdb
     RDKit          3D

 28 31  0  0  0  0  0  0  0  0999 V2000
   71.5556   47.3681   58.9111 C   0  0  0  0  0  0  0  0  0  0  0  0
   70.4901   47.9169   58.2175 C   0  0  0  0  0  0  0  0  0  0  0  0
   69.6985   47.1196   57.4314 C   0  0  0  0  0  0  0  0  0  0  0  0
   70.0118   45.7659   57.3651 C   0  0  0  0  0  0  0  0  0  0  0  0
   71.0586   45.2097   58.0422 C   0  0  0  0  0  0  0  0  0  0  0  0
   71.8282   46.0382   58.8188 C   0  0  0  0  0  0  0  0  0  0  0  0
   72.8838   45.4892   59.5044 F   0  0  0  0  0  0  0  0  0  0  0  0
   72.3164   48.0379   61.0131 O   0  0  0  0  0  0  0  0  0  0  0  0
   72.4478   48.1656   59.7637 C   0  0  0  0  0  0  0  0  0  0  0  0
   73.4208   49.0477   59.2669 N   0  0  0  0  0  0  0  0  0  0  0  0
   73.5658   49.1855   57.8205 C   0  0  0  0  0  0  0  0  0  0  0  0
   74.9148   48.6504   57.4401 C   0  0  0  0  0  0  0  0  0  0  0  0
   75.9730   49.2866   58.3142 C   0  0  0  0  0  0  0  0  0  0  0  0
   75.7628   50.6580   58.6064 N   0  0  0  0  0  0  0  0  0  0  0  0
   74.8572   50.9550   59.6589 C   0  0  0  0  0  0  0  0  0  0  0  0
   74.1906   49.7420   60.2578 C   0  0  0  0  0  0  0  0  0  0  0  0
   68.5204   47.6368   56.6547 C   0  0  0  0  0  0  0  0  0  0  0  0
   68.9321   48.1930   55.3475 C   0  0  0  0  0  0  0  0  0  0  0  0
   69.3581   49.4816   55.2389 N   0  0  0  0  0  0  0  0  0  0  0  0
   69.7814   50.0117   54.1086 N   0  0  0  0  0  0  0  0  0  0  0  0
   69.8087   49.2753   52.9845 C   0  0  0  0  0  0  0  0  0  0  0  0
   70.2100   49.7462   51.8709 O   0  0  0  0  0  0  0  0  0  0  0  0
   69.3910   47.9661   53.0202 C   0  0  0  0  0  0  0  0  0  0  0  0
   68.9451   47.4257   54.2315 C   0  0  0  0  0  0  0  0  0  0  0  0
   68.4643   46.0300   54.1849 C   0  0  0  0  0  0  0  0  0  0  0  0
   67.4381   46.0128   53.0302 C   0  0  0  0  0  0  0  0  0  0  0  0
   68.0478   46.3703   51.7201 C   0  0  0  0  0  0  0  0  0  0  0  0
   69.3874   47.0511   51.8564 C   0  0  0  0  0  0  0  0  0  0  0  0
  8  9  2  0
  9  1  1  0
  9 10  1  0
  1  2  2  0
  1  6  1  0
  2  3  1  0
  3 17  1  0
  3  4  2  0
 17 18  1  0
 18 19  2  0
 18 24  1  0
 19 20  1  0
 20 21  1  0
 21 22  2  0
 21 23  1  0
 23 24  2  0
 23 28  1  0
 24 25  1  0
 25 26  1  0
 26 27  1  0
 27 28  1  0
  4  5  1  0
  5  6  2  0
  6  7  1  0
 10 11  1  0
 10 16  1  0
 11 12  1  0
 12 13  1  0
 13 14  1  0
 14 15  1  0
 15 16  1  0
M  CHG  1  14   1
M  END
>  <minimizedAffinity>  (241) 
-8.56752

$$$$
data/reference_output_2/data/smiles/108201.pdb
     RDKit          3D

 22 24  0  0  0  0  0  0  0  0999 V2000
   71.1820   50.2723   54.9258 C   0  0  0  0  0  0  0  0  0  0  0  0
   72.1005   49.6240   55.5871 O   0  0  0  0  0  0  0  0  0  0  0  0
   70.1716   50.9635   55.6718 C   0  0  0  0  0  0  0  0  0  0  0  0
   70.2015   52.3581   55.6817 C   0  0  0  0  0  0  0  0  0  0  0  0
   69.2366   53.0886   56.3784 C   0  0  0  0  0  0  0  0  0  0  0  0
   68.2595   52.4297   57.0515 C   0  0  0  0  0  0  0  0  0  0  0  0
   68.2014   51.0375   57.0616 C   0  0  0  0  0  0  0  0  0  0  0  0
   67.1877   50.4306   57.7663 C   0  0  0  0  0  0  0  0  0  0  0  0
   67.1053   49.0601   57.7968 C   0  0  0  0  0  0  0  0  0  0  0  0
   68.0466   48.3380   57.1183 C   0  0  0  0  0  0  0  0  0  0  0  0
   69.0596   48.9616   56.4144 C   0  0  0  0  0  0  0  0  0  0  0  0
   69.1782   50.3360   56.3574 C   0  0  0  0  0  0  0  0  0  0  0  0
   71.3769   50.1569   53.5771 O   0  0  0  0  0  0  0  0  0  0  0  0
   71.2400   48.9698   52.9037 N   0  0  0  0  0  0  0  0  0  0  0  0
   69.8522   49.3942   51.1266 N   0  0  0  0  0  0  0  0  0  0  0  0
   70.0773   48.7108   52.0756 C   0  0  0  0  0  0  0  0  0  0  0  0
   69.1823   47.5760   52.4527 C   0  0  0  0  0  0  0  0  0  0  0  0
   69.0161   47.2134   53.7625 C   0  0  0  0  0  0  0  0  0  0  0  0
   68.1592   46.1430   54.0983 C   0  0  0  0  0  0  0  0  0  0  0  0
   67.5212   45.4967   53.1131 N   0  0  0  0  0  0  0  0  0  0  0  0
   67.6522   45.8130   51.8247 C   0  0  0  0  0  0  0  0  0  0  0  0
   68.5086   46.8855   51.4844 C   0  0  0  0  0  0  0  0  0  0  0  0
 15 16  2  0
 16 14  1  0
 16 17  1  0
 14 13  1  0
 13  1  1  0
  1  2  2  0
  1  3  1  0
  3  4  2  0
  3 12  1  0
  4  5  1  0
  5  6  2  0
  6  7  1  0
  7  8  1  0
  7 12  2  0
  8  9  2  0
  9 10  1  0
 10 11  2  0
 11 12  1  0
 17 18  2  0
 17 22  1  0
 18 19  1  0
 19 20  2  0
 20 21  1  0
 21 22  2  0
M  CHG  1  15   1
M  END
>  <minimizedAffinity>  (242) 
-8.83050

$$$$
data/reference_output_2/data/smiles/108269.pdb
     RDKit          3D

 29 31  0  0  0  0  0  0  0  0999 V2000
   68.7099   46.5318   54.2818 C   0  0  0  0  0  0  0  0  0  0  0  0
   68.3748   46.1987   52.9722 C   0  0  0  0  0  0  0  0  0  0  0  0
   68.6956   47.0691   51.9628 C   0  0  0  0  0  0  0  0  0  0  0  0
   69.3512   48.2785   52.2447 C   0  0  0  0  0  0  0  0  0  0  0  0
   69.8080   49.2984   50.9003 Cl  0  0  0  0  0  0  0  0  0  0  0  0
   69.6931   48.6397   53.5142 C   0  0  0  0  0  0  0  0  0  0  0  0
   69.3430   47.7102   54.5136 C   0  0  0  0  0  0  0  0  0  0  0  0
   68.4613   45.9222   56.5668 O   0  0  0  0  0  0  0  0  0  0  0  0
   68.3587   45.5843   55.3431 C   0  0  0  0  0  0  0  0  0  0  0  0
   67.8987   44.2768   55.0884 N   0  0  0  0  0  0  0  0  0  0  0  0
   67.5826   43.4258   56.1374 N   0  0  0  0  0  0  0  0  0  0  0  0
   68.5485   42.6713   56.8369 C   0  0  0  0  0  0  0  0  0  0  0  0
   69.7501   42.8129   56.4512 O   0  0  0  0  0  0  0  0  0  0  0  0
   68.2397   41.7735   57.9390 C   0  0  0  0  0  0  0  0  0  0  0  0
   68.2346   42.1727   59.2557 C   0  0  0  0  0  0  0  0  0  0  0  0
   67.9416   41.3230   60.3042 C   0  0  0  0  0  0  0  0  0  0  0  0
   67.6404   40.0070   60.0010 C   0  0  0  0  0  0  0  0  0  0  0  0
   67.6315   39.5549   58.6950 C   0  0  0  0  0  0  0  0  0  0  0  0
   67.9335   40.4540   57.6793 C   0  0  0  0  0  0  0  0  0  0  0  0
   67.9213   39.9882   56.3740 O   0  0  0  0  0  0  0  0  0  0  0  0
   70.4290   50.1522   53.9590 S   0  0  0  0  0  0  0  0  0  0  0  0
   70.1742   51.2106   52.9059 O   0  0  0  0  0  0  0  0  0  0  0  0
   71.9421   49.9284   53.9324 O   0  0  0  0  0  0  0  0  0  0  0  0
   69.9267   50.6455   55.4895 N   0  0  0  0  0  0  0  0  0  0  0  0
   68.6089   51.0177   55.7236 C   0  0  0  0  0  0  0  0  0  0  0  0
   68.3840   51.6218   57.1114 C   0  0  0  0  0  0  0  0  0  0  0  0
   68.7722   50.5750   58.1093 C   0  0  0  0  0  0  0  0  0  0  0  0
   70.2607   50.3477   57.9384 C   0  0  0  0  0  0  0  0  0  0  0  0
   70.6585   50.0174   56.5595 C   0  0  0  0  0  0  0  0  0  0  0  0
  8  9  2  0
  9 10  1  0
  9  1  1  0
 10 11  1  0
 11 12  1  0
 12 13  2  0
 12 14  1  0
 14 15  2  0
 14 19  1  0
 15 16  1  0
 16 17  2  0
 17 18  1  0
 18 19  2  0
 19 20  1  0
  1  2  2  0
  1  7  1  0
  2  3  1  0
  3  4  2  0
  4  5  1  0
  4  6  1  0
  6 21  1  0
  6  7  2  0
 21 22  2  0
 21 23  2  0
 21 24  1  0
 24 25  1  0
 24 29  1  0
 25 26  1  0
 26 27  1  0
 27 28  1  0
 28 29  1  0
M  END
>  <minimizedAffinity>  (243) 
-8.62926

$$$$
data/reference_output_2/data/smiles/108283.pdb
     RDKit          3D

 25 26  0  0  0  0  0  0  0  0999 V2000
   67.7372   41.3520   55.7731 O   0  0  0  0  0  0  0  0  0  0  0  0
   67.6474   42.0689   56.8297 C   0  0  0  0  0  0  0  0  0  0  0  0
   67.7512   43.4538   56.6275 N   0  0  0  0  0  0  0  0  0  0  0  0
   67.9453   44.0621   55.3810 N   0  0  0  0  0  0  0  0  0  0  0  0
   68.1892   45.4185   55.1886 C   0  0  0  0  0  0  0  0  0  0  0  0
   68.2305   46.1215   56.2613 O   0  0  0  0  0  0  0  0  0  0  0  0
   68.4004   46.1190   53.9342 C   0  0  0  0  0  0  0  0  0  0  0  0
   69.2081   47.2665   53.9076 C   0  0  0  0  0  0  0  0  0  0  0  0
   69.4487   47.9759   52.7570 C   0  0  0  0  0  0  0  0  0  0  0  0
   68.9066   47.6000   51.5487 C   0  0  0  0  0  0  0  0  0  0  0  0
   68.1112   46.4808   51.5456 C   0  0  0  0  0  0  0  0  0  0  0  0
   67.8658   45.7546   52.7240 C   0  0  0  0  0  0  0  0  0  0  0  0
   67.0693   44.6528   52.6578 F   0  0  0  0  0  0  0  0  0  0  0  0
   67.4498   41.3570   58.0888 C   0  0  0  0  0  0  0  0  0  0  0  0
   67.8799   40.0331   58.1263 O   0  0  0  0  0  0  0  0  0  0  0  0
   69.1074   39.7015   58.6767 C   0  0  0  0  0  0  0  0  0  0  0  0
   69.6421   40.4044   59.5840 O   0  0  0  0  0  0  0  0  0  0  0  0
   69.8431   38.5191   58.2320 C   0  0  0  0  0  0  0  0  0  0  0  0
   70.7549   37.9300   58.9516 C   0  0  0  0  0  0  0  0  0  0  0  0
   71.5106   36.7492   58.5440 C   0  0  0  0  0  0  0  0  0  0  0  0
   72.4046   36.7471   57.4968 C   0  0  0  0  0  0  0  0  0  0  0  0
   73.1126   35.6232   57.1219 C   0  0  0  0  0  0  0  0  0  0  0  0
   72.9489   34.4341   57.7951 C   0  0  0  0  0  0  0  0  0  0  0  0
   72.0594   34.4117   58.8477 C   0  0  0  0  0  0  0  0  0  0  0  0
   71.3567   35.5383   59.2142 C   0  0  0  0  0  0  0  0  0  0  0  0
  1  2  2  0
  2 14  1  0
  2  3  1  0
 14 15  1  0
 15 16  1  0
 16 17  2  0
 16 18  1  0
 18 19  2  0
 19 20  1  0
 20 21  2  0
 20 25  1  0
 21 22  1  0
 22 23  2  0
 23 24  1  0
 24 25  2  0
  3  4  1  0
  4  5  1  0
  5  6  2  0
  5  7  1  0
  7  8  2  0
  7 12  1  0
  8  9  1  0
  9 10  2  0
 10 11  1  0
 11 12  2  0
 12 13  1  0
M  END
>  <minimizedAffinity>  (244) 
-9.02567

$$$$
data/reference_output_2/data/smiles/108341.pdb
     RDKit          3D

 31 34  0  0  0  0  0  0  0  0999 V2000
   72.4326   47.8583   59.4458 C   0  0  0  0  0  0  0  0  0  0  0  0
   71.9202   48.1175   60.5944 O   0  0  0  0  0  0  0  0  0  0  0  0
   73.0213   48.9018   58.7720 N   0  0  0  0  0  0  0  0  0  0  0  0
   73.7558   48.8313   57.5243 C   0  0  0  0  0  0  0  0  0  0  0  0
   73.1453   49.9279   56.6114 C   0  0  0  0  0  0  0  0  0  0  0  0
   71.7740   50.0902   57.0209 N   0  0  0  0  0  0  0  0  0  0  0  0
   71.6131   50.7115   58.2892 C   0  0  0  0  0  0  0  0  0  0  0  0
   72.7853   50.2853   59.2213 C   0  0  0  0  0  0  0  0  0  0  0  0
   70.9213   44.7778   58.0272 C   0  0  0  0  0  0  0  0  0  0  0  0
   72.0149   43.9576   57.9213 C   0  0  0  0  0  0  0  0  0  0  0  0
   73.2714   44.3748   58.3287 C   0  0  0  0  0  0  0  0  0  0  0  0
   73.3905   45.6627   58.8508 C   0  0  0  0  0  0  0  0  0  0  0  0
   72.3286   46.4836   58.9602 C   0  0  0  0  0  0  0  0  0  0  0  0
   71.0530   46.0512   58.5466 C   0  0  0  0  0  0  0  0  0  0  0  0
   68.1712   42.3834   56.7363 C   0  0  0  0  0  0  0  0  0  0  0  0
   69.4558   42.9484   57.2264 C   0  0  0  0  0  0  0  0  0  0  0  0
   70.4833   42.2052   57.3680 O   0  0  0  0  0  0  0  0  0  0  0  0
   69.6489   44.3205   57.5655 N   0  0  0  0  0  0  0  0  0  0  0  0
   70.6546   50.3958   55.8131 S   0  0  0  0  0  0  0  0  0  0  0  0
   69.6137   51.3815   56.2828 O   0  0  0  0  0  0  0  0  0  0  0  0
   71.3507   51.0369   54.6466 O   0  0  0  0  0  0  0  0  0  0  0  0
   69.8877   48.9435   55.2151 C   0  0  0  0  0  0  0  0  0  0  0  0
   69.3346   48.0355   56.0813 C   0  0  0  0  0  0  0  0  0  0  0  0
   68.6355   46.9280   55.6228 C   0  0  0  0  0  0  0  0  0  0  0  0
   68.5012   46.7555   54.2732 C   0  0  0  0  0  0  0  0  0  0  0  0
   67.7874   45.6791   53.7399 C   0  0  0  0  0  0  0  0  0  0  0  0
   67.6216   45.5054   52.3859 C   0  0  0  0  0  0  0  0  0  0  0  0
   68.1825   46.4302   51.5251 C   0  0  0  0  0  0  0  0  0  0  0  0
   68.8820   47.4811   52.0327 C   0  0  0  0  0  0  0  0  0  0  0  0
   69.0428   47.6458   53.3840 C   0  0  0  0  0  0  0  0  0  0  0  0
   69.7448   48.7514   53.8689 C   0  0  0  0  0  0  0  0  0  0  0  0
 15 16  1  0
 16 17  2  0
 16 18  1  0
 18  9  1  0
  9 10  2  0
  9 14  1  0
 10 11  1  0
 11 12  2  0
 12 13  1  0
 13  1  1  0
 13 14  2  0
  1  2  2  0
  1  3  1  0
  3  4  1  0
  3  8  1  0
  4  5  1  0
  5  6  1  0
  6 19  1  0
  6  7  1  0
 19 20  2  0
 19 21  2  0
 19 22  1  0
 22 23  2  0
 22 31  1  0
 23 24  1  0
 24 25  2  0
 25 26  1  0
 25 30  1  0
 26 27  2  0
 27 28  1  0
 28 29  2  0
 29 30  1  0
 30 31  2  0
  7  8  1  0
M  END
>  <minimizedAffinity>  (245) 
-8.66537

$$$$
data/reference_output_2/data/smiles/108410.pdb
     RDKit          3D

 28 30  0  0  0  0  0  0  0  0999 V2000
   66.6116   42.0799   55.2487 O   0  0  0  0  0  0  0  0  0  0  0  0
   67.3846   41.6767   56.1556 C   0  0  0  0  0  0  0  0  0  0  0  0
   67.2742   40.3509   56.6925 N   0  0  0  0  0  0  0  0  0  0  0  0
   68.1340   39.8675   57.7185 C   0  0  0  0  0  0  0  0  0  0  0  0
   68.0118   38.6826   58.1759 O   0  0  0  0  0  0  0  0  0  0  0  0
   69.1751   40.6793   58.2868 N   0  0  0  0  0  0  0  0  0  0  0  0
   69.3092   42.0006   57.7737 C   0  0  0  0  0  0  0  0  0  0  0  0
   70.2038   42.7671   58.2282 O   0  0  0  0  0  0  0  0  0  0  0  0
   68.4233   42.5144   56.7102 C   0  0  0  0  0  0  0  0  0  0  0  0
   68.5544   43.7405   56.2386 C   0  0  0  0  0  0  0  0  0  0  0  0
   70.0140   40.1414   59.3180 C   0  0  0  0  0  0  0  0  0  0  0  0
   70.5998   38.8258   59.0199 C   0  0  0  0  0  0  0  0  0  0  0  0
   70.2414   37.7435   59.8273 C   0  0  0  0  0  0  0  0  0  0  0  0
   70.7757   36.4990   59.5699 C   0  0  0  0  0  0  0  0  0  0  0  0
   71.6637   36.2483   58.5402 C   0  0  0  0  0  0  0  0  0  0  0  0
   72.1720   35.0113   58.3117 F   0  0  0  0  0  0  0  0  0  0  0  0
   72.0006   37.3334   57.7590 C   0  0  0  0  0  0  0  0  0  0  0  0
   71.4764   38.5821   58.0030 C   0  0  0  0  0  0  0  0  0  0  0  0
   67.7401   44.3008   55.2166 N   0  0  0  0  0  0  0  0  0  0  0  0
   68.2056   45.4298   54.5036 C   0  0  0  0  0  0  0  0  0  0  0  0
   68.1237   45.5327   53.1253 C   0  0  0  0  0  0  0  0  0  0  0  0
   68.5831   46.6458   52.4553 C   0  0  0  0  0  0  0  0  0  0  0  0
   69.1387   47.6928   53.1472 C   0  0  0  0  0  0  0  0  0  0  0  0
   69.2216   47.5966   54.5128 C   0  0  0  0  0  0  0  0  0  0  0  0
   68.7606   46.4745   55.2026 C   0  0  0  0  0  0  0  0  0  0  0  0
   69.6322   48.8905   52.4304 C   0  0  0  0  0  0  0  0  0  0  0  0
   69.3645   50.0344   52.8783 O   0  0  0  0  0  0  0  0  0  0  0  0
   70.3792   48.7865   51.2804 O   0  0  0  0  0  0  0  0  0  0  0  0
  1  2  2  0
  2  3  1  0
  2  9  1  0
  3  4  1  0
  4  5  2  0
  4  6  1  0
  6 11  1  0
  6  7  1  0
 11 12  1  0
 12 13  2  0
 12 18  1  0
 13 14  1  0
 14 15  2  0
 15 16  1  0
 15 17  1  0
 17 18  2  0
  7  8  2  0
  7  9  1  0
  9 10  2  0
 10 19  1  0
 19 20  1  0
 20 21  2  0
 20 25  1  0
 21 22  1  0
 22 23  2  0
 23 26  1  0
 23 24  1  0
 26 27  2  0
 26 28  1  0
 24 25  2  0
M  END
>  <minimizedAffinity>  (246) 
-9.21222

$$$$
data/reference_output_2/data/smiles/108416.pdb
     RDKit          3D

 27 30  0  0  0  0  0  0  0  0999 V2000
   68.1614   43.5363   55.8477 C   0  0  0  0  0  0  0  0  0  0  0  0
   69.0671   43.5031   56.4813 N   0  0  0  0  0  0  0  0  0  0  0  0
   69.5573   42.6026   57.3155 N   0  0  0  0  0  0  0  0  0  0  0  0
   68.7945   41.5029   57.4113 C   0  0  0  0  0  0  0  0  0  0  0  0
   67.4125   41.8444   56.2813 S   0  0  0  0  0  0  0  0  0  0  0  0
   68.8670   40.2530   58.1527 C   0  0  0  0  0  0  0  0  0  0  0  0
   67.7914   39.8386   58.9366 C   0  0  0  0  0  0  0  0  0  0  0  0
   67.8727   38.6721   59.6450 C   0  0  0  0  0  0  0  0  0  0  0  0
   68.9948   37.8545   59.6258 C   0  0  0  0  0  0  0  0  0  0  0  0
   70.0617   38.2563   58.8543 C   0  0  0  0  0  0  0  0  0  0  0  0
   71.2706   37.4081   58.8177 C   0  0  0  0  0  0  0  0  0  0  0  0
   69.9483   39.4632   58.1361 C   0  0  0  0  0  0  0  0  0  0  0  0
   70.8119   42.7958   58.0294 C   0  0  0  0  0  0  0  0  0  0  0  0
   72.0217   42.3979   57.5190 C   0  0  0  0  0  0  0  0  0  0  0  0
   73.1989   42.5549   58.2164 C   0  0  0  0  0  0  0  0  0  0  0  0
   73.2119   43.1259   59.4719 C   0  0  0  0  0  0  0  0  0  0  0  0
   72.0040   43.5302   59.9968 C   0  0  0  0  0  0  0  0  0  0  0  0
   70.8158   43.3730   59.2955 C   0  0  0  0  0  0  0  0  0  0  0  0
   67.3498   44.3314   54.8752 N   0  0  0  0  0  0  0  0  0  0  0  0
   69.1544   47.6545   53.0314 C   0  0  0  0  0  0  0  0  0  0  0  0
   69.1070   47.5454   54.3922 C   0  0  0  0  0  0  0  0  0  0  0  0
   68.5085   46.4513   54.9896 C   0  0  0  0  0  0  0  0  0  0  0  0
   67.9441   45.4418   54.2569 C   0  0  0  0  0  0  0  0  0  0  0  0
   67.9880   45.5454   52.8929 C   0  0  0  0  0  0  0  0  0  0  0  0
   68.5874   46.6418   52.2598 C   0  0  0  0  0  0  0  0  0  0  0  0
   69.6445   50.1032   53.0667 C   0  0  0  0  0  0  0  0  0  0  0  0
   69.7761   48.8098   52.3029 C   0  0  0  0  0  0  0  0  0  0  0  0
 26 27  1  0
 27 20  1  0
 20 21  2  0
 20 25  1  0
 21 22  1  0
 22 23  2  0
 23 19  1  0
 23 24  1  0
 19  1  1  0
  1  2  2  0
  1  5  1  0
  2  3  1  0
  3 13  1  0
  3  4  2  0
 13 14  2  0
 13 18  1  0
 14 15  1  0
 15 16  2  0
 16 17  1  0
 17 18  2  0
  4  6  1  0
  4  5  1  0
  6  7  2  0
  6 12  1  0
  7  8  1  0
  8  9  2  0
  9 10  1  0
 10 11  1  0
 10 12  2  0
 24 25  2  0
M  CHG  1   3   1
M  END
>  <minimizedAffinity>  (247) 
-8.81710

$$$$
data/reference_output_2/data/smiles/108436.pdb
     RDKit          3D

 23 24  0  0  0  0  0  0  0  0999 V2000
   70.7264   44.6137   58.5270 S   0  0  0  0  0  0  0  0  0  0  0  0
   72.0604   44.5451   57.8147 O   0  0  0  0  0  0  0  0  0  0  0  0
   70.9826   44.8453   59.9888 O   0  0  0  0  0  0  0  0  0  0  0  0
   68.0728   39.1916   57.9576 C   0  0  0  0  0  0  0  0  0  0  0  0
   68.7260   40.5190   58.1019 C   0  0  0  0  0  0  0  0  0  0  0  0
   69.6544   40.7716   59.1023 C   0  0  0  0  0  0  0  0  0  0  0  0
   70.2478   42.0118   59.2169 C   0  0  0  0  0  0  0  0  0  0  0  0
   69.9540   43.0518   58.3543 C   0  0  0  0  0  0  0  0  0  0  0  0
   69.0333   42.8053   57.3595 C   0  0  0  0  0  0  0  0  0  0  0  0
   68.4269   41.5506   57.2378 C   0  0  0  0  0  0  0  0  0  0  0  0
   67.4727   41.3229   56.1931 N   0  0  0  0  0  0  0  0  0  0  0  0
   66.4553   42.0147   56.0425 O   0  0  0  0  0  0  0  0  0  0  0  0
   67.6958   40.2880   55.3184 O   0  0  0  0  0  0  0  0  0  0  0  0
   69.7397   45.8652   57.8656 N   0  0  0  0  0  0  0  0  0  0  0  0
   69.5881   45.9122   56.4768 N   0  0  0  0  0  0  0  0  0  0  0  0
   68.7650   46.6885   55.8683 C   0  0  0  0  0  0  0  0  0  0  0  0
   68.6401   46.7030   54.4067 C   0  0  0  0  0  0  0  0  0  0  0  0
   69.1321   47.7378   53.6436 C   0  0  0  0  0  0  0  0  0  0  0  0
   69.0135   47.7496   52.2665 C   0  0  0  0  0  0  0  0  0  0  0  0
   68.3888   46.7107   51.6069 C   0  0  0  0  0  0  0  0  0  0  0  0
   67.8925   45.6702   52.3650 C   0  0  0  0  0  0  0  0  0  0  0  0
   68.0152   45.6634   53.7541 C   0  0  0  0  0  0  0  0  0  0  0  0
   67.5232   44.6365   54.4785 F   0  0  0  0  0  0  0  0  0  0  0  0
  4  5  1  0
  5  6  2  0
  5 10  1  0
  6  7  1  0
  7  8  2  0
  8  1  1  0
  8  9  1  0
  1  2  2  0
  1  3  2  0
  1 14  1  0
 14 15  1  0
 15 16  2  0
 16 17  1  0
 17 18  2  0
 17 22  1  0
 18 19  1  0
 19 20  2  0
 20 21  1  0
 21 22  2  0
 22 23  1  0
  9 10  2  0
 10 11  1  0
 11 12  2  0
 11 13  1  0
M  CHG  2  11   1  13  -1
M  END
>  <minimizedAffinity>  (248) 
-8.57484

$$$$
data/reference_output_2/data/smiles/108558.pdb
     RDKit          3D

 21 23  0  0  0  0  0  0  0  0999 V2000
   70.4102   49.0185   51.0586 O   0  0  0  0  0  0  0  0  0  0  0  0
   70.0722   48.6719   52.2179 C   0  0  0  0  0  0  0  0  0  0  0  0
   70.4786   49.1628   53.4107 N   0  0  0  0  0  0  0  0  0  0  0  0
   69.8951   48.5334   54.4163 N   0  0  0  0  0  0  0  0  0  0  0  0
   69.0809   47.6009   53.8427 C   0  0  0  0  0  0  0  0  0  0  0  0
   68.2418   46.6715   54.3903 C   0  0  0  0  0  0  0  0  0  0  0  0
   67.5142   45.8300   53.5794 C   0  0  0  0  0  0  0  0  0  0  0  0
   67.5875   45.8727   52.2022 C   0  0  0  0  0  0  0  0  0  0  0  0
   68.4378   46.8142   51.6487 C   0  0  0  0  0  0  0  0  0  0  0  0
   69.1651   47.6568   52.4667 C   0  0  0  0  0  0  0  0  0  0  0  0
   66.8189   44.9842   51.4008 N   0  0  0  0  0  0  0  0  0  0  0  0
   66.6454   43.8239   51.7759 O   0  0  0  0  0  0  0  0  0  0  0  0
   66.2774   45.4201   50.2190 O   0  0  0  0  0  0  0  0  0  0  0  0
   70.0344   48.7408   55.8493 C   0  0  0  0  0  0  0  0  0  0  0  0
   68.9138   49.4938   56.4516 C   0  0  0  0  0  0  0  0  0  0  0  0
   68.7147   50.8531   56.1786 C   0  0  0  0  0  0  0  0  0  0  0  0
   67.6402   51.5084   56.7661 C   0  0  0  0  0  0  0  0  0  0  0  0
   66.7538   50.8864   57.6094 C   0  0  0  0  0  0  0  0  0  0  0  0
   66.9471   49.5491   57.8795 C   0  0  0  0  0  0  0  0  0  0  0  0
   68.0274   48.8717   57.2949 C   0  0  0  0  0  0  0  0  0  0  0  0
   68.2110   47.5251   57.5750 O   0  0  0  0  0  0  0  0  0  0  0  0
  1  2  2  0
  2  3  1  0
  2 10  1  0
  3  4  1  0
  4 14  1  0
  4  5  1  0
 14 15  1  0
 15 16  2  0
 15 20  1  0
 16 17  1  0
 17 18  2  0
 18 19  1  0
 19 20  2  0
 20 21  1  0
  5  6  1  0
  5 10  2  0
  6  7  2  0
  7  8  1  0
  8 11  1  0
  8  9  2  0
 11 12  2  0
 11 13  1  0
  9 10  1  0
M  CHG  2  11   1  13  -1
M  END
>  <minimizedAffinity>  (249) 
-8.77969

$$$$
data/reference_output_2/data/smiles/108643.pdb
     RDKit          3D

 28 31  0  0  0  0  0  0  0  0999 V2000
   68.6708   47.2113   53.8199 C   0  0  0  0  0  0  0  0  0  0  0  0
   69.0745   46.7286   52.5868 C   0  0  0  0  0  0  0  0  0  0  0  0
   69.7127   47.5462   51.6833 C   0  0  0  0  0  0  0  0  0  0  0  0
   69.9306   48.8546   52.0573 C   0  0  0  0  0  0  0  0  0  0  0  0
   69.5366   49.3499   53.2764 C   0  0  0  0  0  0  0  0  0  0  0  0
   69.7890   50.6698   53.5785 C   0  0  0  0  0  0  0  0  0  0  0  0
   70.3674   51.4591   52.7949 O   0  0  0  0  0  0  0  0  0  0  0  0
   69.3833   51.1415   54.8095 C   0  0  0  0  0  0  0  0  0  0  0  0
   69.6130   52.4711   55.1699 C   0  0  0  0  0  0  0  0  0  0  0  0
   69.2134   52.9579   56.3936 C   0  0  0  0  0  0  0  0  0  0  0  0
   68.5769   52.0874   57.2547 C   0  0  0  0  0  0  0  0  0  0  0  0
   68.3532   50.7750   56.8933 C   0  0  0  0  0  0  0  0  0  0  0  0
   68.7474   50.2662   55.6654 C   0  0  0  0  0  0  0  0  0  0  0  0
   68.5201   49.0038   55.3440 O   0  0  0  0  0  0  0  0  0  0  0  0
   68.8941   48.5262   54.1847 C   0  0  0  0  0  0  0  0  0  0  0  0
   67.9985   46.2850   54.7310 C   0  0  0  0  0  0  0  0  0  0  0  0
   68.8191   44.7270   56.2893 O   0  0  0  0  0  0  0  0  0  0  0  0
   68.8558   45.9137   55.9092 C   0  0  0  0  0  0  0  0  0  0  0  0
   69.6760   46.8169   56.5854 N   0  0  0  0  0  0  0  0  0  0  0  0
   70.6396   46.3319   57.9315 S   0  0  0  0  0  0  0  0  0  0  0  0
   69.7058   45.8337   59.0297 O   0  0  0  0  0  0  0  0  0  0  0  0
   71.5086   45.1607   57.5864 O   0  0  0  0  0  0  0  0  0  0  0  0
   71.5900   47.6596   58.5431 C   0  0  0  0  0  0  0  0  0  0  0  0
   71.5505   48.8771   57.9085 C   0  0  0  0  0  0  0  0  0  0  0  0
   72.2931   49.9639   58.3610 C   0  0  0  0  0  0  0  0  0  0  0  0
   73.0980   49.8505   59.4693 C   0  0  0  0  0  0  0  0  0  0  0  0
   73.1450   48.6361   60.1136 C   0  0  0  0  0  0  0  0  0  0  0  0
   72.3938   47.5436   59.6530 C   0  0  0  0  0  0  0  0  0  0  0  0
 17 18  2  0
 18 16  1  0
 18 19  1  0
 16  1  1  0
  1  2  2  0
  1 15  1  0
  2  3  1  0
  3  4  2  0
  4  5  1  0
  5  6  1  0
  5 15  2  0
  6  7  2  0
  6  8  1  0
  8  9  1  0
  8 13  2  0
  9 10  2  0
 10 11  1  0
 11 12  2  0
 12 13  1  0
 13 14  1  0
 14 15  1  0
 19 20  1  0
 20 21  2  0
 20 22  2  0
 20 23  1  0
 23 24  2  0
 23 28  1  0
 24 25  1  0
 25 26  2  0
 26 27  1  0
 27 28  2  0
M  END
>  <minimizedAffinity>  (250) 
-8.65895

$$$$
data/reference_output_2/data/smiles/108960.pdb
     RDKit          3D

 28 30  0  0  0  0  0  0  0  0999 V2000
   70.0191   48.9343   56.9709 C   0  0  0  0  0  0  0  0  0  0  0  0
   69.1015   49.5049   57.6378 O   0  0  0  0  0  0  0  0  0  0  0  0
   69.7064   48.4879   55.6332 C   0  0  0  0  0  0  0  0  0  0  0  0
   70.1794   49.1831   54.5457 C   0  0  0  0  0  0  0  0  0  0  0  0
   71.0324   50.4218   54.6839 C   0  0  0  0  0  0  0  0  0  0  0  0
   69.8543   48.7214   53.3193 N   0  0  0  0  0  0  0  0  0  0  0  0
   70.3267   49.4181   52.2259 O   0  0  0  0  0  0  0  0  0  0  0  0
   69.1055   47.6364   53.1217 C   0  0  0  0  0  0  0  0  0  0  0  0
   68.8351   47.2545   51.8201 C   0  0  0  0  0  0  0  0  0  0  0  0
   68.0610   46.1321   51.6356 C   0  0  0  0  0  0  0  0  0  0  0  0
   67.5731   45.4140   52.7105 C   0  0  0  0  0  0  0  0  0  0  0  0
   67.8614   45.8235   53.9967 C   0  0  0  0  0  0  0  0  0  0  0  0
   68.6401   46.9519   54.1982 C   0  0  0  0  0  0  0  0  0  0  0  0
   68.9514   47.3938   55.4334 N   0  0  0  0  0  0  0  0  0  0  0  0
   68.4323   46.6358   56.4801 O   0  0  0  0  0  0  0  0  0  0  0  0
   71.3762   48.7406   57.5776 C   0  0  0  0  0  0  0  0  0  0  0  0
   71.2302   47.9384   58.8106 C   0  0  0  0  0  0  0  0  0  0  0  0
   71.2784   48.4877   59.9211 O   0  0  0  0  0  0  0  0  0  0  0  0
   72.0080   45.6380   58.1240 N   0  0  0  0  0  0  0  0  0  0  0  0
   71.0318   46.5130   58.6944 C   0  0  0  0  0  0  0  0  0  0  0  0
   69.9662   45.9488   59.0970 O   0  0  0  0  0  0  0  0  0  0  0  0
   74.2575   43.9175   58.4566 C   0  0  0  0  0  0  0  0  0  0  0  0
   72.8846   43.4184   58.1752 C   0  0  0  0  0  0  0  0  0  0  0  0
   72.7110   42.0496   58.0729 C   0  0  0  0  0  0  0  0  0  0  0  0
   71.4731   41.4814   57.8126 C   0  0  0  0  0  0  0  0  0  0  0  0
   70.3775   42.3098   57.6486 C   0  0  0  0  0  0  0  0  0  0  0  0
   70.5737   43.6654   57.7549 C   0  0  0  0  0  0  0  0  0  0  0  0
   71.8037   44.2335   58.0142 C   0  0  0  0  0  0  0  0  0  0  0  0
 22 23  1  0
 23 24  2  0
 23 28  1  0
 24 25  1  0
 25 26  2  0
 26 27  1  0
 27 28  2  0
 28 19  1  0
 19 20  1  0
 20 21  2  0
 20 17  1  0
 17 18  2  0
 17 16  1  0
 16  1  1  0
  1  2  2  0
  1  3  1  0
  3  4  2  0
  3 14  1  0
  4  5  1  0
  4  6  1  0
  6  7  1  0
  6  8  2  0
  8  9  1  0
  8 13  1  0
  9 10  2  0
 10 11  1  0
 11 12  2  0
 12 13  1  0
 13 14  2  0
 14 15  1  0
M  CHG  4   6   1   7  -1  14   1  15  -1
M  END
>  <minimizedAffinity>  (251) 
-8.77326

$$$$
data/reference_output_2/data/smiles/108976.pdb
     RDKit          3D

 27 29  0  0  0  0  0  0  0  0999 V2000
   73.5019   35.1425   53.3395 C   0  0  0  0  0  0  0  0  0  0  0  0
   72.7532   35.3847   54.4957 C   0  0  0  0  0  0  0  0  0  0  0  0
   73.3864   35.4358   55.7094 C   0  0  0  0  0  0  0  0  0  0  0  0
   74.7573   35.2451   55.7602 C   0  0  0  0  0  0  0  0  0  0  0  0
   75.4680   35.0084   54.6043 C   0  0  0  0  0  0  0  0  0  0  0  0
   74.8598   34.9517   53.3712 C   0  0  0  0  0  0  0  0  0  0  0  0
   72.6334   35.6896   56.9536 C   0  0  0  0  0  0  0  0  0  0  0  0
   72.2872   36.9613   57.2789 N   0  0  0  0  0  0  0  0  0  0  0  0
   71.6041   37.2741   58.3950 C   0  0  0  0  0  0  0  0  0  0  0  0
   71.2190   36.2839   59.2747 C   0  0  0  0  0  0  0  0  0  0  0  0
   71.5703   34.9961   58.9432 C   0  0  0  0  0  0  0  0  0  0  0  0
   71.2328   34.0875   59.7235 O   0  0  0  0  0  0  0  0  0  0  0  0
   72.2685   34.7245   57.7944 N   0  0  0  0  0  0  0  0  0  0  0  0
   70.4778   36.6097   60.4897 C   0  0  0  0  0  0  0  0  0  0  0  0
   69.2411   36.5592   60.5618 O   0  0  0  0  0  0  0  0  0  0  0  0
   71.1648   37.0001   61.6436 O   0  0  0  0  0  0  0  0  0  0  0  0
   72.3585   35.0489   50.9936 N   0  0  0  0  0  0  0  0  0  0  0  0
   72.8678   35.0835   52.0485 C   0  0  0  0  0  0  0  0  0  0  0  0
   75.5881   34.7176   52.2640 O   0  0  0  0  0  0  0  0  0  0  0  0
   76.8605   35.1018   51.9214 C   0  0  0  0  0  0  0  0  0  0  0  0
   76.9792   35.0450   50.4221 C   0  0  0  0  0  0  0  0  0  0  0  0
   77.9077   35.8441   49.7717 C   0  0  0  0  0  0  0  0  0  0  0  0
   78.0463   35.8215   48.4005 C   0  0  0  0  0  0  0  0  0  0  0  0
   77.2519   34.9885   47.6380 C   0  0  0  0  0  0  0  0  0  0  0  0
   77.4269   35.0011   46.2937 F   0  0  0  0  0  0  0  0  0  0  0  0
   76.3290   34.1912   48.2666 C   0  0  0  0  0  0  0  0  0  0  0  0
   76.1958   34.2217   49.6523 C   0  0  0  0  0  0  0  0  0  0  0  0
 17 18  3  0
 18  1  1  0
  1  2  2  0
  1  6  1  0
  2  3  1  0
  3  7  1  0
  3  4  2  0
  7  8  2  0
  7 13  1  0
  8  9  1  0
  9 10  2  0
 10 14  1  0
 10 11  1  0
 14 15  2  0
 14 16  1  0
 11 12  2  0
 11 13  1  0
  4  5  1  0
  5  6  2  0
  6 19  1  0
 19 20  1  0
 20 21  1  0
 21 22  2  0
 21 27  1  0
 22 23  1  0
 23 24  2  0
 24 25  1  0
 24 26  1  0
 26 27  2  0
M  END
>  <minimizedAffinity>  (252) 
-8.68768

$$$$
data/reference_output_2/data/smiles/109010.pdb
     RDKit          3D

 22 23  0  0  0  0  0  0  0  0999 V2000
   68.2846   42.5732   56.7652 C   0  0  0  0  0  0  0  0  0  0  0  0
   68.9446   43.6813   56.7377 N   0  0  0  0  0  0  0  0  0  0  0  0
   70.0372   41.3555   57.9345 C   0  0  0  0  0  0  0  0  0  0  0  0
   70.5478   40.2085   58.5553 C   0  0  0  0  0  0  0  0  0  0  0  0
   69.7867   39.0511   58.6443 C   0  0  0  0  0  0  0  0  0  0  0  0
   70.2558   37.8997   59.2487 O   0  0  0  0  0  0  0  0  0  0  0  0
   68.5151   39.0537   58.1085 C   0  0  0  0  0  0  0  0  0  0  0  0
   68.0141   40.2062   57.4890 C   0  0  0  0  0  0  0  0  0  0  0  0
   68.7678   41.3548   57.4006 C   0  0  0  0  0  0  0  0  0  0  0  0
   72.1837   42.5469   57.7075 C   0  0  0  0  0  0  0  0  0  0  0  0
   70.7872   42.4963   57.8466 O   0  0  0  0  0  0  0  0  0  0  0  0
   68.5003   44.8464   56.1379 N   0  0  0  0  0  0  0  0  0  0  0  0
   69.0968   46.1203   56.3217 C   0  0  0  0  0  0  0  0  0  0  0  0
   70.0975   46.1218   57.0977 O   0  0  0  0  0  0  0  0  0  0  0  0
   68.5899   47.3509   55.6595 C   0  0  0  0  0  0  0  0  0  0  0  0
   68.6728   47.2525   54.1801 C   0  0  0  0  0  0  0  0  0  0  0  0
   67.9220   46.3308   53.4757 C   0  0  0  0  0  0  0  0  0  0  0  0
   67.9681   46.2060   52.1076 C   0  0  0  0  0  0  0  0  0  0  0  0
   68.8000   47.0368   51.4051 C   0  0  0  0  0  0  0  0  0  0  0  0
   69.5816   47.9850   52.0587 C   0  0  0  0  0  0  0  0  0  0  0  0
   70.4083   48.8030   51.3005 O   0  0  0  0  0  0  0  0  0  0  0  0
   69.4998   48.0713   53.4240 C   0  0  0  0  0  0  0  0  0  0  0  0
 10 11  1  0
 11  3  1  0
  3  4  2  0
  3  9  1  0
  4  5  1  0
  5  6  1  0
  5  7  2  0
  7  8  1  0
  8  9  2  0
  9  1  1  0
  1  2  2  0
  2 12  1  0
 12 13  1  0
 13 14  2  0
 13 15  1  0
 15 16  1  0
 16 17  2  0
 16 22  1  0
 17 18  1  0
 18 19  2  0
 19 20  1  0
 20 21  1  0
 20 22  2  0
M  END
>  <minimizedAffinity>  (253) 
-8.57312

$$$$
data/reference_output_2/data/smiles/109179.pdb
     RDKit          3D

 29 32  0  0  0  0  0  0  0  0999 V2000
   72.0222   43.2153   58.6336 C   0  0  0  0  0  0  0  0  0  0  0  0
   70.7703   42.9276   57.8976 C   0  0  0  0  0  0  0  0  0  0  0  0
   70.0565   43.7335   57.1114 N   0  0  0  0  0  0  0  0  0  0  0  0
   68.9850   43.0593   56.6428 C   0  0  0  0  0  0  0  0  0  0  0  0
   67.9517   43.5125   55.7886 C   0  0  0  0  0  0  0  0  0  0  0  0
   66.9475   42.6078   55.4704 C   0  0  0  0  0  0  0  0  0  0  0  0
   67.0308   41.3684   55.9979 C   0  0  0  0  0  0  0  0  0  0  0  0
   68.0558   40.9488   56.8338 C   0  0  0  0  0  0  0  0  0  0  0  0
   69.0526   41.8245   57.1550 N   0  0  0  0  0  0  0  0  0  0  0  0
   70.1321   41.6682   57.9415 C   0  0  0  0  0  0  0  0  0  0  0  0
   70.6011   40.5480   58.7164 C   0  0  0  0  0  0  0  0  0  0  0  0
   70.2163   40.4965   59.9508 O   0  0  0  0  0  0  0  0  0  0  0  0
   71.4267   39.4852   58.3487 N   0  0  0  0  0  0  0  0  0  0  0  0
   71.8167   38.4058   59.2428 C   0  0  1  0  0  0  0  0  0  0  0  0
   71.4257   37.0600   58.7428 C   0  0  0  0  0  0  0  0  0  0  0  0
   72.4622   36.6011   57.7167 C   0  0  0  0  0  0  0  0  0  0  0  0
   73.8028   36.3772   58.3927 C   0  0  0  0  0  0  0  0  0  0  0  0
   73.9070   37.1631   59.6113 N   0  0  0  0  0  0  0  0  0  0  0  0
   73.3209   38.4607   59.3569 C   0  0  0  0  0  0  0  0  0  0  0  0
   68.0149   44.7406   55.3621 O   0  0  0  0  0  0  0  0  0  0  0  0
   68.2624   46.0285   55.3888 C   0  0  0  0  0  0  0  0  0  0  0  0
   68.6803   46.7618   54.1913 C   0  0  0  0  0  0  0  0  0  0  0  0
   68.3873   46.2858   52.9409 C   0  0  0  0  0  0  0  0  0  0  0  0
   67.6655   45.1598   52.7262 F   0  0  0  0  0  0  0  0  0  0  0  0
   68.7952   46.9469   51.7868 C   0  0  0  0  0  0  0  0  0  0  0  0
   69.5092   48.1070   51.8954 C   0  0  0  0  0  0  0  0  0  0  0  0
   69.8080   48.5949   53.1471 C   0  0  0  0  0  0  0  0  0  0  0  0
   69.3987   47.9293   54.2911 C   0  0  0  0  0  0  0  0  0  0  0  0
   69.7339   48.4772   55.4967 F   0  0  0  0  0  0  0  0  0  0  0  0
  1  2  1  0
  2  3  1  0
  2 10  2  0
  3  4  2  0
  4  5  1  0
  4  9  1  0
  5 20  1  0
  5  6  2  0
 20 21  1  0
 21 22  1  0
 22 23  2  0
 22 28  1  0
 23 24  1  0
 23 25  1  0
 25 26  2  0
 26 27  1  0
 27 28  2  0
 28 29  1  0
  6  7  1  0
  7  8  2  0
  8  9  1  0
  9 10  1  0
 10 11  1  0
 11 12  2  0
 11 13  1  0
 14 13  1  6
 14 15  1  0
 14 19  1  0
 15 16  1  0
 16 17  1  0
 17 18  1  0
 18 19  1  0
M  CHG  1  18   1
M  END
>  <minimizedAffinity>  (254) 
-8.75953

$$$$
data/reference_output_2/data/smiles/109345.pdb
     RDKit          3D

 23 24  0  0  0  0  0  0  0  0999 V2000
   70.1981   45.9333   58.0325 C   0  0  0  0  0  0  0  0  0  0  0  0
   71.0836   47.2846   58.6060 S   0  0  0  0  0  0  0  0  0  0  0  0
   68.7771   46.6077   56.0745 C   0  0  0  0  0  0  0  0  0  0  0  0
   67.8895   47.1252   56.7820 O   0  0  0  0  0  0  0  0  0  0  0  0
   69.9109   46.0255   56.6653 N   0  0  0  0  0  0  0  0  0  0  0  0
   69.9246   48.8495   51.8075 C   0  0  0  0  0  0  0  0  0  0  0  0
   69.2156   47.7464   52.5445 C   0  0  0  0  0  0  0  0  0  0  0  0
   68.4971   46.8466   51.8217 C   0  0  0  0  0  0  0  0  0  0  0  0
   67.8463   45.8342   52.4932 C   0  0  0  0  0  0  0  0  0  0  0  0
   67.9082   45.7134   53.8921 C   0  0  0  0  0  0  0  0  0  0  0  0
   68.6238   46.6128   54.5934 C   0  0  0  0  0  0  0  0  0  0  0  0
   69.2862   47.6421   53.9134 C   0  0  0  0  0  0  0  0  0  0  0  0
   69.9557   44.9866   59.0048 N   0  0  0  0  0  0  0  0  0  0  0  0
   70.3622   43.6670   59.0734 N   0  0  0  0  0  0  0  0  0  0  0  0
   69.6421   42.6712   58.3301 C   0  0  0  0  0  0  0  0  0  0  0  0
   68.6609   43.0749   57.6450 O   0  0  0  0  0  0  0  0  0  0  0  0
   70.0164   41.2788   58.3597 C   0  0  0  0  0  0  0  0  0  0  0  0
   71.3662   40.9383   58.4957 C   0  0  0  0  0  0  0  0  0  0  0  0
   71.8019   39.6473   58.5317 C   0  0  0  0  0  0  0  0  0  0  0  0
   70.8561   38.6566   58.4285 C   0  0  0  0  0  0  0  0  0  0  0  0
   71.3594   36.9777   58.4690 Cl  0  0  0  0  0  0  0  0  0  0  0  0
   69.5366   38.9468   58.2956 C   0  0  0  0  0  0  0  0  0  0  0  0
   69.1036   40.2679   58.2596 C   0  0  0  0  0  0  0  0  0  0  0  0
  6  7  1  0
  7  8  2  0
  7 12  1  0
  8  9  1  0
  9 10  2  0
 10 11  1  0
 11  3  1  0
 11 12  2  0
  3  4  2  0
  3  5  1  0
  5  1  1  0
  1  2  2  0
  1 13  1  0
 13 14  1  0
 14 15  1  0
 15 16  2  0
 15 17  1  0
 17 18  2  0
 17 23  1  0
 18 19  1  0
 19 20  2  0
 20 21  1  0
 20 22  1  0
 22 23  2  0
M  END
>  <minimizedAffinity>  (255) 
-8.54309

$$$$
data/reference_output_2/data/smiles/109389.pdb
     RDKit          3D

 27 30  0  0  0  0  0  0  0  0999 V2000
   70.7786   45.0506   58.1038 C   0  0  0  0  0  0  0  0  0  0  0  0
   71.8491   45.5726   58.8109 C   0  0  0  0  0  0  0  0  0  0  0  0
   72.1244   46.9238   58.7880 C   0  0  0  0  0  0  0  0  0  0  0  0
   71.3170   47.7901   58.0450 C   0  0  0  0  0  0  0  0  0  0  0  0
   70.2525   47.2988   57.3383 C   0  0  0  0  0  0  0  0  0  0  0  0
   70.0108   45.9438   57.3855 C   0  0  0  0  0  0  0  0  0  0  0  0
   69.6520   43.0294   59.0789 C   0  0  0  0  0  0  0  0  0  0  0  0
   69.1586   43.7437   59.9863 O   0  0  0  0  0  0  0  0  0  0  0  0
   70.4756   43.6612   58.1122 N   0  0  0  0  0  0  0  0  0  0  0  0
   67.7662   38.9209   57.4964 O   0  0  0  0  0  0  0  0  0  0  0  0
   68.5882   39.7707   57.9105 C   0  0  0  0  0  0  0  0  0  0  0  0
   69.9693   39.4256   58.3725 C   0  0  0  0  0  0  0  0  0  0  0  0
   70.5754   40.7507   58.7878 C   0  0  0  0  0  0  0  0  0  0  0  0
   69.3482   41.5876   59.0739 C   0  0  2  0  0  0  0  0  0  0  0  0
   68.4414   41.1943   58.0438 N   0  0  0  0  0  0  0  0  0  0  0  0
   69.3938   48.1802   56.5573 C   0  0  0  0  0  0  0  0  0  0  0  0
   69.6893   48.2951   55.1220 C   0  0  0  0  0  0  0  0  0  0  0  0
   70.6346   49.2085   54.7169 N   0  0  0  0  0  0  0  0  0  0  0  0
   70.9373   49.3600   53.4483 N   0  0  0  0  0  0  0  0  0  0  0  0
   70.3636   48.6525   52.4684 C   0  0  0  0  0  0  0  0  0  0  0  0
   70.6456   48.7884   51.2480 O   0  0  0  0  0  0  0  0  0  0  0  0
   69.3931   47.7025   52.7904 C   0  0  0  0  0  0  0  0  0  0  0  0
   69.0850   47.5538   54.1335 C   0  0  0  0  0  0  0  0  0  0  0  0
   68.0644   46.5602   54.5869 C   0  0  0  0  0  0  0  0  0  0  0  0
   67.2176   46.1017   53.4099 C   0  0  0  0  0  0  0  0  0  0  0  0
   68.1483   45.6722   52.2702 C   0  0  0  0  0  0  0  0  0  0  0  0
   68.7345   46.9270   51.7154 C   0  0  0  0  0  0  0  0  0  0  0  0
 10 11  2  0
 11 12  1  0
 11 15  1  0
 12 13  1  0
 13 14  1  0
 14  7  1  6
 14 15  1  0
  7  8  2  0
  7  9  1  0
  9  1  1  0
  1  2  2  0
  1  6  1  0
  2  3  1  0
  3  4  2  0
  4  5  1  0
  5 16  1  0
  5  6  2  0
 16 17  1  0
 17 18  2  0
 17 23  1  0
 18 19  1  0
 19 20  1  0
 20 21  2  0
 20 22  1  0
 22 23  2  0
 22 27  1  0
 23 24  1  0
 24 25  1  0
 25 26  1  0
 26 27  1  0
M  END
>  <minimizedAffinity>  (256) 
-8.56160

$$$$
data/reference_output_2/data/smiles/109401.pdb
     RDKit          3D

 31 34  0  0  0  0  0  0  0  0999 V2000
   70.0312   44.6416   57.5176 C   0  0  0  0  0  0  0  0  0  0  0  0
   69.6830   43.3347   57.1445 C   0  0  0  0  0  0  0  0  0  0  0  0
   70.3093   42.2184   57.6531 C   0  0  0  0  0  0  0  0  0  0  0  0
   71.3240   42.3542   58.5681 C   0  0  0  0  0  0  0  0  0  0  0  0
   71.6877   43.6269   58.9476 C   0  0  0  0  0  0  0  0  0  0  0  0
   71.0457   44.7602   58.4256 C   0  0  0  0  0  0  0  0  0  0  0  0
   70.8471   47.3224   57.5329 O   0  0  0  0  0  0  0  0  0  0  0  0
   69.7629   47.0617   56.9670 C   0  0  0  0  0  0  0  0  0  0  0  0
   69.3085   45.7129   56.9404 N   0  0  0  0  0  0  0  0  0  0  0  0
   68.8996   48.1102   56.3110 C   0  0  0  0  0  0  0  0  0  0  0  0
   69.2987   48.3212   54.8996 C   0  0  0  0  0  0  0  0  0  0  0  0
   70.1853   49.2901   54.5723 N   0  0  0  0  0  0  0  0  0  0  0  0
   70.6119   49.4825   53.3342 N   0  0  0  0  0  0  0  0  0  0  0  0
   70.1686   48.7003   52.3264 C   0  0  0  0  0  0  0  0  0  0  0  0
   70.5413   48.8380   51.1375 O   0  0  0  0  0  0  0  0  0  0  0  0
   69.2625   47.6909   52.5860 C   0  0  0  0  0  0  0  0  0  0  0  0
   68.7902   46.8907   51.5580 C   0  0  0  0  0  0  0  0  0  0  0  0
   67.8668   45.8916   51.8393 C   0  0  0  0  0  0  0  0  0  0  0  0
   67.4088   45.6766   53.1053 C   0  0  0  0  0  0  0  0  0  0  0  0
   67.8990   46.4926   54.1207 C   0  0  0  0  0  0  0  0  0  0  0  0
   68.8217   47.5044   53.9055 C   0  0  0  0  0  0  0  0  0  0  0  0
   72.1015   40.9593   59.3356 S   0  0  0  0  0  0  0  0  0  0  0  0
   73.4589   40.8240   58.7212 O   0  0  0  0  0  0  0  0  0  0  0  0
   72.1827   41.0810   60.8051 O   0  0  0  0  0  0  0  0  0  0  0  0
   71.2085   39.5081   58.8535 N   0  0  0  0  0  0  0  0  0  0  0  0
   70.4990   39.0894   60.0769 C   0  0  0  0  0  0  0  0  0  0  0  0
   69.6260   37.9245   59.7210 C   0  0  0  0  0  0  0  0  0  0  0  0
   70.2217   36.6046   60.1599 C   0  0  0  0  0  0  0  0  0  0  0  0
   71.5308   36.3173   59.5083 C   0  0  0  0  0  0  0  0  0  0  0  0
   71.7770   37.1562   58.2694 C   0  0  0  0  0  0  0  0  0  0  0  0
   72.2461   38.5391   58.5489 C   0  0  0  0  0  0  0  0  0  0  0  0
  7  8  2  0
  8 10  1  0
  8  9  1  0
 10 11  1  0
 11 12  2  0
 11 21  1  0
 12 13  1  0
 13 14  1  0
 14 15  2  0
 14 16  1  0
 16 17  1  0
 16 21  2  0
 17 18  2  0
 18 19  1  0
 19 20  2  0
 20 21  1  0
  9  1  1  0
  1  2  2  0
  1  6  1  0
  2  3  1  0
  3  4  2  0
  4 22  1  0
  4  5  1  0
 22 23  2  0
 22 24  2  0
 22 25  1  0
 25 26  1  0
 25 31  1  0
 26 27  1  0
 27 28  1  0
 28 29  1  0
 29 30  1  0
 30 31  1  0
  5  6  2  0
M  END
>  <minimizedAffinity>  (257) 
-9.66824

$$$$
data/reference_output_2/data/smiles/109453.pdb
     RDKit          3D

 28 31  0  0  0  0  0  0  0  0999 V2000
   71.3190   46.6195   58.8308 C   0  0  0  0  0  0  0  0  0  0  0  0
   70.7808   47.7952   58.3772 C   0  0  0  0  0  0  0  0  0  0  0  0
   69.8514   47.7495   57.3565 C   0  0  0  0  0  0  0  0  0  0  0  0
   69.4542   46.5809   56.7867 C   0  0  0  0  0  0  0  0  0  0  0  0
   69.9885   45.3895   57.2338 C   0  0  0  0  0  0  0  0  0  0  0  0
   70.9212   45.4257   58.2585 C   0  0  0  0  0  0  0  0  0  0  0  0
   68.2575   46.6052   55.4846 S   0  0  0  0  0  0  0  0  0  0  0  0
   67.8675   45.1727   55.1613 O   0  0  0  0  0  0  0  0  0  0  0  0
   67.0759   47.3711   55.9449 O   0  0  0  0  0  0  0  0  0  0  0  0
   68.9655   47.3664   54.0775 C   0  0  0  0  0  0  0  0  0  0  0  0
   69.0156   46.7506   52.8422 C   0  0  0  0  0  0  0  0  0  0  0  0
   69.5721   47.3559   51.7375 C   0  0  0  0  0  0  0  0  0  0  0  0
   70.0999   48.6232   51.8658 C   0  0  0  0  0  0  0  0  0  0  0  0
   70.0706   49.2752   53.0776 C   0  0  0  0  0  0  0  0  0  0  0  0
   69.5101   48.6451   54.1546 C   0  0  0  0  0  0  0  0  0  0  0  0
   72.3255   46.6383   59.9154 C   0  0  0  0  0  0  0  0  0  0  0  0
   73.6129   44.1728   60.5869 O   0  0  0  0  0  0  0  0  0  0  0  0
   72.6125   44.5072   61.2646 C   0  0  0  0  0  0  0  0  0  0  0  0
   71.9633   45.7234   60.9480 N   0  0  0  0  0  0  0  0  0  0  0  0
   72.1247   43.6479   62.3669 C   0  0  0  0  0  0  0  0  0  0  0  0
   70.8872   43.0500   62.3118 C   0  0  0  0  0  0  0  0  0  0  0  0
   70.4469   42.2416   63.3649 C   0  0  0  0  0  0  0  0  0  0  0  0
   71.2425   42.0330   64.4682 C   0  0  0  0  0  0  0  0  0  0  0  0
   71.0774   41.3197   65.6019 N   0  0  0  0  0  0  0  0  0  0  0  0
   72.1865   41.4709   66.3426 N   0  0  0  0  0  0  0  0  0  0  0  0
   73.0437   42.2691   65.6868 C   0  0  0  0  0  0  0  0  0  0  0  0
   72.4878   42.6540   64.4878 C   0  0  0  0  0  0  0  0  0  0  0  0
   72.8787   43.4249   63.4559 N   0  0  0  0  0  0  0  0  0  0  0  0
 17 18  2  0
 18 19  1  0
 18 20  1  0
 19 16  1  0
 16  1  1  0
  1  2  2  0
  1  6  1  0
  2  3  1  0
  3  4  2  0
  4  7  1  0
  4  5  1  0
  7  8  2  0
  7  9  2  0
  7 10  1  0
 10 11  2  0
 10 15  1  0
 11 12  1  0
 12 13  2  0
 13 14  1  0
 14 15  2  0
  5  6  2  0
 20 21  2  0
 20 28  1  0
 21 22  1  0
 22 23  2  0
 23 24  1  0
 23 27  1  0
 24 25  1  0
 25 26  2  0
 26 27  1  0
 27 28  2  0
M  END
>  <minimizedAffinity>  (258) 
-8.78659

$$$$
data/reference_output_2/data/smiles/109483.pdb
     RDKit          3D

 22 23  0  0  0  0  0  0  0  0999 V2000
   70.1535   49.2987   55.8056 N   0  0  0  0  0  0  0  0  0  0  0  0
   68.3029   48.6133   57.2606 C   0  0  0  0  0  0  0  0  0  0  0  0
   67.1834   49.0155   57.9292 C   0  0  0  0  0  0  0  0  0  0  0  0
   66.6679   50.2980   57.9267 C   0  0  0  0  0  0  0  0  0  0  0  0
   67.3085   51.2491   57.2120 C   0  0  0  0  0  0  0  0  0  0  0  0
   68.4676   50.8954   56.5043 C   0  0  0  0  0  0  0  0  0  0  0  0
   68.9690   49.6194   56.5137 C   0  0  0  0  0  0  0  0  0  0  0  0
   70.4750   45.4730   57.8017 C   0  0  0  0  0  0  0  0  0  0  0  0
   70.0200   46.9189   57.9216 C   0  0  0  0  0  0  0  0  0  0  0  0
   70.6907   47.7150   58.6133 O   0  0  0  0  0  0  0  0  0  0  0  0
   68.8469   47.3199   57.2445 N   0  0  0  0  0  0  0  0  0  0  0  0
   70.2325   49.5419   54.1031 S   0  0  0  0  0  0  0  0  0  0  0  0
   71.6798   49.5688   53.6403 O   0  0  0  0  0  0  0  0  0  0  0  0
   69.5376   50.8016   53.7433 O   0  0  0  0  0  0  0  0  0  0  0  0
   69.3925   48.1969   53.3442 C   0  0  0  0  0  0  0  0  0  0  0  0
   68.6134   47.3407   54.1077 C   0  0  0  0  0  0  0  0  0  0  0  0
   67.9399   46.2678   53.5395 C   0  0  0  0  0  0  0  0  0  0  0  0
   68.0197   46.0137   52.1891 C   0  0  0  0  0  0  0  0  0  0  0  0
   68.7908   46.8587   51.4192 C   0  0  0  0  0  0  0  0  0  0  0  0
   69.4643   47.9323   51.9931 C   0  0  0  0  0  0  0  0  0  0  0  0
   70.2570   48.8028   51.1918 N   0  0  0  0  0  0  0  0  0  0  0  0
   69.6879   49.9612   50.7271 O   0  0  0  0  0  0  0  0  0  0  0  0
  8  9  1  0
  9 10  2  0
  9 11  1  0
 11  2  1  0
  2  3  2  0
  2  7  1  0
  3  4  1  0
  4  5  2  0
  5  6  1  0
  6  7  2  0
  7  1  1  0
  1 12  1  0
 12 13  2  0
 12 14  2  0
 12 15  1  0
 15 16  2  0
 15 20  1  0
 16 17  1  0
 17 18  2  0
 18 19  1  0
 19 20  2  0
 20 21  1  0
 21 22  1  0
M  END
>  <minimizedAffinity>  (259) 
-9.18917

$$$$
data/reference_output_2/data/smiles/109583.pdb
     RDKit          3D

 28 31  0  0  0  0  0  0  0  0999 V2000
   70.8144   46.4483   58.5143 C   0  0  0  0  0  0  0  0  0  0  0  0
   71.5320   47.3583   59.2722 C   0  0  0  0  0  0  0  0  0  0  0  0
   71.4334   48.7155   59.0753 C   0  0  0  0  0  0  0  0  0  0  0  0
   70.5811   49.1374   58.0806 C   0  0  0  0  0  0  0  0  0  0  0  0
   69.8579   48.2768   57.3142 C   0  0  0  0  0  0  0  0  0  0  0  0
   69.9856   46.9333   57.5440 C   0  0  0  0  0  0  0  0  0  0  0  0
   70.8157   44.6219   59.9791 O   0  0  0  0  0  0  0  0  0  0  0  0
   70.9893   45.0268   58.8043 C   0  0  0  0  0  0  0  0  0  0  0  0
   71.3454   44.0706   57.8422 N   0  0  0  0  0  0  0  0  0  0  0  0
   71.5195   42.6538   58.1217 C   0  0  0  0  0  0  0  0  0  0  0  0
   70.3000   41.8589   57.8305 C   0  0  0  0  0  0  0  0  0  0  0  0
   69.3022   42.4467   57.0437 C   0  0  0  0  0  0  0  0  0  0  0  0
   68.1499   41.7601   56.7289 C   0  0  0  0  0  0  0  0  0  0  0  0
   67.9646   40.4743   57.1888 C   0  0  0  0  0  0  0  0  0  0  0  0
   68.9381   39.9379   57.9399 N   0  0  0  0  0  0  0  0  0  0  0  0
   70.0817   40.5746   58.2710 C   0  0  0  0  0  0  0  0  0  0  0  0
   68.9753   48.7833   56.2814 C   0  0  0  0  0  0  0  0  0  0  0  0
   69.3155   48.6811   54.8997 C   0  0  0  0  0  0  0  0  0  0  0  0
   70.0496   49.6975   54.3486 N   0  0  0  0  0  0  0  0  0  0  0  0
   70.4323   49.7414   53.1088 N   0  0  0  0  0  0  0  0  0  0  0  0
   70.1204   48.7526   52.2524 C   0  0  0  0  0  0  0  0  0  0  0  0
   70.5215   48.8467   51.0464 O   0  0  0  0  0  0  0  0  0  0  0  0
   69.3907   47.7005   52.7164 C   0  0  0  0  0  0  0  0  0  0  0  0
   68.9800   47.6591   54.0631 C   0  0  0  0  0  0  0  0  0  0  0  0
   68.1918   46.5423   54.6058 C   0  0  0  0  0  0  0  0  0  0  0  0
   67.8906   45.5180   53.5399 C   0  0  0  0  0  0  0  0  0  0  0  0
   67.6390   46.1633   52.2168 C   0  0  0  0  0  0  0  0  0  0  0  0
   69.0311   46.6304   51.7472 C   0  0  0  0  0  0  0  0  0  0  0  0
  7  8  2  0
  8  9  1  0
  8  1  1  0
  9 10  1  0
 10 11  1  0
 11 12  2  0
 11 16  1  0
 12 13  1  0
 13 14  2  0
 14 15  1  0
 15 16  2  0
  1  2  2  0
  1  6  1  0
  2  3  1  0
  3  4  2  0
  4  5  1  0
  5 17  1  0
  5  6  2  0
 17 18  1  0
 18 19  2  0
 18 24  1  0
 19 20  1  0
 20 21  1  0
 21 22  2  0
 21 23  1  0
 23 24  2  0
 23 28  1  0
 24 25  1  0
 25 26  1  0
 26 27  1  0
 27 28  1  0
M  END
>  <minimizedAffinity>  (260) 
-9.68891

$$$$
data/reference_output_2/data/smiles/109645.pdb
     RDKit          3D

 24 26  0  0  0  0  0  0  0  0999 V2000
   69.9019   48.6826   54.0852 C   0  0  0  0  0  0  0  0  0  0  0  0
   69.9884   48.6750   55.4468 N   0  0  0  0  0  0  0  0  0  0  0  0
   69.4138   47.7517   56.1892 N   0  0  0  0  0  0  0  0  0  0  0  0
   68.7018   46.7555   55.6137 C   0  0  0  0  0  0  0  0  0  0  0  0
   68.1598   45.8841   56.3153 O   0  0  0  0  0  0  0  0  0  0  0  0
   68.5920   46.7309   54.2445 C   0  0  0  0  0  0  0  0  0  0  0  0
   67.8624   45.7117   53.6508 C   0  0  0  0  0  0  0  0  0  0  0  0
   67.7167   45.6309   52.2951 C   0  0  0  0  0  0  0  0  0  0  0  0
   68.3083   46.5847   51.5088 C   0  0  0  0  0  0  0  0  0  0  0  0
   69.0441   47.6133   52.1024 C   0  0  0  0  0  0  0  0  0  0  0  0
   69.2000   47.7077   53.4532 C   0  0  0  0  0  0  0  0  0  0  0  0
   70.0595   50.5646   52.5889 O   0  0  0  0  0  0  0  0  0  0  0  0
   70.5602   49.7291   53.3583 C   0  0  0  0  0  0  0  0  0  0  0  0
   71.9598   49.8501   53.5169 O   0  0  0  0  0  0  0  0  0  0  0  0
   69.4790   47.7536   57.6157 C   0  0  0  0  0  0  0  0  0  0  0  0
   70.6910   47.1254   58.2412 C   0  0  0  0  0  0  0  0  0  0  0  0
   70.6901   45.8281   58.5453 O   0  0  0  0  0  0  0  0  0  0  0  0
   71.1512   44.6279   58.2283 C   0  0  0  0  0  0  0  0  0  0  0  0
   70.1820   43.6428   57.9207 C   0  0  0  0  0  0  0  0  0  0  0  0
   70.5679   42.3740   57.5784 C   0  0  0  0  0  0  0  0  0  0  0  0
   71.8888   41.9918   57.5144 C   0  0  0  0  0  0  0  0  0  0  0  0
   72.8330   42.9416   57.8104 C   0  0  0  0  0  0  0  0  0  0  0  0
   74.5500   42.5554   57.7577 Cl  0  0  0  0  0  0  0  0  0  0  0  0
   72.4580   44.2242   58.1567 C   0  0  0  0  0  0  0  0  0  0  0  0
 12 13  2  0
 13 14  1  0
 13  1  1  0
  1  2  2  0
  1 11  1  0
  2  3  1  0
  3 15  1  0
  3  4  1  0
 15 16  1  0
 16 17  1  0
 17 18  1  0
 18 19  2  0
 18 24  1  0
 19 20  1  0
 20 21  2  0
 21 22  1  0
 22 23  1  0
 22 24  2  0
  4  5  2  0
  4  6  1  0
  6  7  1  0
  6 11  2  0
  7  8  2  0
  8  9  1  0
  9 10  2  0
 10 11  1  0
M  END
>  <minimizedAffinity>  (261) 
-8.63469

$$$$
data/reference_output_2/data/smiles/109732.pdb
     RDKit          3D

 24 26  0  0  0  0  0  0  0  0999 V2000
   68.1383   46.9310   56.3459 N   0  0  0  0  0  0  0  0  0  0  0  0
   69.2779   46.8491   57.1682 C   0  0  0  0  0  0  0  0  0  0  0  0
   69.9374   45.6906   57.3750 N   0  0  0  0  0  0  0  0  0  0  0  0
   71.0181   45.6327   58.1657 C   0  0  0  0  0  0  0  0  0  0  0  0
   71.4618   46.7394   58.7709 N   0  0  0  0  0  0  0  0  0  0  0  0
   70.8701   47.9311   58.6224 C   0  0  0  0  0  0  0  0  0  0  0  0
   71.1015   49.1688   59.1046 N   0  0  0  0  0  0  0  0  0  0  0  0
   70.1744   49.9919   58.6187 C   0  0  0  0  0  0  0  0  0  0  0  0
   69.2998   49.2910   57.7899 C   0  0  0  0  0  0  0  0  0  0  0  0
   69.7387   47.9878   57.7925 C   0  0  0  0  0  0  0  0  0  0  0  0
   68.1535   49.8290   57.0628 C   0  0  0  0  0  0  0  0  0  0  0  0
   68.2823   51.2899   56.7116 C   0  0  0  0  0  0  0  0  0  0  0  0
   66.9527   49.7392   58.0228 C   0  0  0  0  0  0  0  0  0  0  0  0
   69.3019   47.7749   52.9338 C   0  0  0  0  0  0  0  0  0  0  0  0
   68.6939   46.8108   52.1518 C   0  0  0  0  0  0  0  0  0  0  0  0
   67.8978   45.8836   52.7725 C   0  0  0  0  0  0  0  0  0  0  0  0
   67.7012   45.9026   54.1344 C   0  0  0  0  0  0  0  0  0  0  0  0
   68.3041   46.8655   54.9459 C   0  0  0  0  0  0  0  0  0  0  0  0
   69.0996   47.7881   54.3139 C   0  0  0  0  0  0  0  0  0  0  0  0
   70.3263   48.9777   52.1918 S   0  0  0  0  0  0  0  0  0  0  0  0
   70.6859   48.5382   50.8195 O   0  0  0  0  0  0  0  0  0  0  0  0
   71.6040   49.1600   52.9898 O   0  0  0  0  0  0  0  0  0  0  0  0
   69.9991   51.2615   53.3005 C   0  0  0  0  0  0  0  0  0  0  0  0
   69.5681   50.5164   52.1123 N   0  0  0  0  0  0  0  0  0  0  0  0
 23 24  1  0
 24 20  1  0
 20 21  2  0
 20 22  2  0
 20 14  1  0
 14 15  2  0
 14 19  1  0
 15 16  1  0
 16 17  2  0
 17 18  1  0
 18  1  1  0
 18 19  2  0
  1  2  1  0
  2  3  2  0
  2 10  1  0
  3  4  1  0
  4  5  2  0
  5  6  1  0
  6  7  1  0
  6 10  2  0
  7  8  1  0
  8  9  2  0
  9 11  1  0
  9 10  1  0
 11 12  1  0
 11 13  1  0
M  END
>  <minimizedAffinity>  (262) 
-8.95337

$$$$
data/reference_output_2/data/smiles/109793.pdb
     RDKit          3D

 32 36  0  0  0  0  0  0  0  0999 V2000
   71.9282   46.7755   59.3704 C   0  0  0  0  0  0  0  0  0  0  0  0
   71.0296   47.5436   58.6308 C   0  0  0  0  0  0  0  0  0  0  0  0
   70.1919   46.9737   57.7309 C   0  0  0  0  0  0  0  0  0  0  0  0
   70.2715   45.5831   57.5785 C   0  0  0  0  0  0  0  0  0  0  0  0
   71.1372   44.7925   58.2827 C   0  0  0  0  0  0  0  0  0  0  0  0
   71.9718   45.4099   59.1876 C   0  0  0  0  0  0  0  0  0  0  0  0
   72.8422   44.6631   59.9040 F   0  0  0  0  0  0  0  0  0  0  0  0
   72.3978   47.7425   61.4613 O   0  0  0  0  0  0  0  0  0  0  0  0
   72.8123   47.4109   60.3255 C   0  0  0  0  0  0  0  0  0  0  0  0
   74.1557   47.6688   59.9971 N   0  0  0  0  0  0  0  0  0  0  0  0
   75.0872   48.3025   60.9092 C   0  0  0  0  0  0  0  0  0  0  0  0
   75.8221   49.3408   60.0851 C   0  0  0  0  0  0  0  0  0  0  0  0
   76.7016   48.6233   59.1793 N   0  0  0  0  0  0  0  0  0  0  0  0
   76.1943   47.3314   58.8372 C   0  0  0  0  0  0  0  0  0  0  0  0
   74.6852   47.3031   58.6951 C   0  0  0  0  0  0  0  0  0  0  0  0
   77.0503   49.4386   58.0274 C   0  0  0  0  0  0  0  0  0  0  0  0
   77.7507   50.7015   58.5334 C   0  0  0  0  0  0  0  0  0  0  0  0
   79.1016   50.1853   59.0379 C   0  0  0  0  0  0  0  0  0  0  0  0
   79.1703   48.7194   58.6056 C   0  0  0  0  0  0  0  0  0  0  0  0
   78.2474   48.7648   57.3802 C   0  0  0  0  0  0  0  0  0  0  0  0
   69.2002   47.6468   56.8792 C   0  0  0  0  0  0  0  0  0  0  0  0
   68.7326   46.9045   55.7160 C   0  0  0  0  0  0  0  0  0  0  0  0
   68.1437   45.7004   55.8407 N   0  0  0  0  0  0  0  0  0  0  0  0
   67.7268   44.9998   54.7936 N   0  0  0  0  0  0  0  0  0  0  0  0
   67.8537   45.4269   53.5273 C   0  0  0  0  0  0  0  0  0  0  0  0
   67.4560   44.7576   52.5377 O   0  0  0  0  0  0  0  0  0  0  0  0
   68.4502   46.6549   53.3294 C   0  0  0  0  0  0  0  0  0  0  0  0
   68.8832   47.3823   54.4316 C   0  0  0  0  0  0  0  0  0  0  0  0
   69.4773   48.6664   54.1864 N   0  0  0  0  0  0  0  0  0  0  0  0
   70.2217   48.9387   53.0011 C   0  0  0  0  0  0  0  0  0  0  0  0
   70.0479   47.8667   51.9749 C   0  0  0  0  0  0  0  0  0  0  0  0
   68.6550   47.2451   51.9909 C   0  0  0  0  0  0  0  0  0  0  0  0
  8  9  2  0
  9  1  1  0
  9 10  1  0
  1  2  2  0
  1  6  1  0
  2  3  1  0
  3 21  1  0
  3  4  2  0
 21 22  1  0
 22 23  2  0
 22 28  1  0
 23 24  1  0
 24 25  1  0
 25 26  2  0
 25 27  1  0
 27 28  2  0
 27 32  1  0
 28 29  1  0
 29 30  1  0
 30 31  1  0
 31 32  1  0
  4  5  1  0
  5  6  2  0
  6  7  1  0
 10 11  1  0
 10 15  1  0
 11 12  1  0
 12 13  1  0
 13 16  1  0
 13 14  1  0
 16 17  1  0
 16 20  1  0
 17 18  1  0
 18 19  1  0
 19 20  1  0
 14 15  1  0
M  CHG  1  13   1
M  END
>  <minimizedAffinity>  (263) 
-9.06926

$$$$
data/reference_output_2/data/smiles/109850.pdb
     RDKit          3D

 23 24  0  0  0  0  0  0  0  0999 V2000
   69.5441   51.1365   54.7589 C   0  0  0  0  0  0  0  0  0  0  0  0
   69.0189   52.2636   55.4281 C   0  0  0  0  0  0  0  0  0  0  0  0
   68.3268   52.1116   56.6060 C   0  0  0  0  0  0  0  0  0  0  0  0
   68.1514   50.8573   57.1202 C   0  0  0  0  0  0  0  0  0  0  0  0
   68.6654   49.7720   56.4589 C   0  0  0  0  0  0  0  0  0  0  0  0
   69.3738   49.8828   55.2609 C   0  0  0  0  0  0  0  0  0  0  0  0
   70.3294   51.3824   53.5561 C   0  0  0  0  0  0  0  0  0  0  0  0
   69.8998   51.0281   52.4127 O   0  0  0  0  0  0  0  0  0  0  0  0
   71.5583   52.0039   53.5934 O   0  0  0  0  0  0  0  0  0  0  0  0
   72.3290   52.1038   54.7413 C   0  0  0  0  0  0  0  0  0  0  0  0
   76.7095   50.3775   56.5139 N   0  0  0  0  0  0  0  0  0  0  0  0
   75.6519   50.2924   55.5629 C   0  0  0  0  0  0  0  0  0  0  0  0
   75.6328   49.4369   54.6413 O   0  0  0  0  0  0  0  0  0  0  0  0
   74.5586   51.2270   55.6599 N   0  0  0  0  0  0  0  0  0  0  0  0
   73.4823   51.1828   54.7364 C   0  0  0  0  0  0  0  0  0  0  0  0
   73.5170   50.2689   53.8331 O   0  0  0  0  0  0  0  0  0  0  0  0
   69.8375   48.7582   54.6876 O   0  0  0  0  0  0  0  0  0  0  0  0
   69.2383   47.8454   53.8798 C   0  0  0  0  0  0  0  0  0  0  0  0
   69.2924   47.7987   52.4991 C   0  0  0  0  0  0  0  0  0  0  0  0
   68.6387   46.8176   51.7864 C   0  0  0  0  0  0  0  0  0  0  0  0
   67.9017   45.8393   52.4171 C   0  0  0  0  0  0  0  0  0  0  0  0
   67.8323   45.8642   53.7907 C   0  0  0  0  0  0  0  0  0  0  0  0
   68.4861   46.8431   54.4870 C   0  0  0  0  0  0  0  0  0  0  0  0
 11 12  1  0
 12 13  2  0
 12 14  1  0
 14 15  1  0
 15 16  2  0
 15 10  1  0
 10  9  1  0
  9  7  1  0
  7  8  2  0
  7  1  1  0
  1  2  2  0
  1  6  1  0
  2  3  1  0
  3  4  2  0
  4  5  1  0
  5  6  2  0
  6 17  1  0
 17 18  1  0
 18 19  2  0
 18 23  1  0
 19 20  1  0
 20 21  2  0
 21 22  1  0
 22 23  2  0
M  END
>  <minimizedAffinity>  (264) 
-8.76476

$$$$
data/reference_output_2/data/smiles/110051.pdb
     RDKit          3D

 21 22  0  0  0  0  0  0  0  0999 V2000
   69.0294   46.5799   57.0430 N   0  0  0  0  0  0  0  0  0  0  0  0
   68.2835   47.0431   56.1667 C   0  0  0  0  0  0  0  0  0  0  0  0
   68.4375   46.9958   54.7026 C   0  0  0  0  0  0  0  0  0  0  0  0
   67.7241   46.1125   53.9309 C   0  0  0  0  0  0  0  0  0  0  0  0
   67.9100   46.1139   52.5630 C   0  0  0  0  0  0  0  0  0  0  0  0
   68.7800   46.9606   51.9307 C   0  0  0  0  0  0  0  0  0  0  0  0
   69.4923   47.8427   52.7135 C   0  0  0  0  0  0  0  0  0  0  0  0
   69.3207   47.8552   54.0705 C   0  0  0  0  0  0  0  0  0  0  0  0
   70.4154   48.7450   52.0753 N   0  0  0  0  0  0  0  0  0  0  0  0
   70.1877   49.2060   50.9646 O   0  0  0  0  0  0  0  0  0  0  0  0
   71.5572   49.0750   52.7462 O   0  0  0  0  0  0  0  0  0  0  0  0
   70.5933   45.0976   58.1335 C   0  0  0  0  0  0  0  0  0  0  0  0
   69.7935   45.0561   59.1285 O   0  0  0  0  0  0  0  0  0  0  0  0
   70.2086   45.8884   57.0369 N   0  0  0  0  0  0  0  0  0  0  0  0
   75.5242   42.2361   58.3466 N   0  0  0  0  0  0  0  0  0  0  0  0
   74.2958   42.9608   58.2950 C   0  0  0  0  0  0  0  0  0  0  0  0
   74.2375   44.3154   58.5462 C   0  0  0  0  0  0  0  0  0  0  0  0
   73.0191   44.9824   58.4856 C   0  0  0  0  0  0  0  0  0  0  0  0
   71.8355   44.3430   58.1803 C   0  0  0  0  0  0  0  0  0  0  0  0
   71.8935   42.9989   57.9317 C   0  0  0  0  0  0  0  0  0  0  0  0
   73.1145   42.3194   57.9907 C   0  0  0  0  0  0  0  0  0  0  0  0
 15 16  1  0
 16 17  2  0
 16 21  1  0
 17 18  1  0
 18 19  2  0
 19 12  1  0
 19 20  1  0
 12 13  2  0
 12 14  1  0
 14  1  1  0
  1  2  2  0
  2  3  1  0
  3  4  2  0
  3  8  1  0
  4  5  1  0
  5  6  2  0
  6  7  1  0
  7  9  1  0
  7  8  2  0
  9 10  2  0
  9 11  1  0
 20 21  2  0
M  CHG  2   9   1  11  -1
M  END
>  <minimizedAffinity>  (265) 
-8.50180

$$$$
data/reference_output_2/data/smiles/110072.pdb
     RDKit          3D

 27 30  0  0  0  0  0  0  0  0999 V2000
   71.1765   47.5422   57.7230 O   0  0  0  0  0  0  0  0  0  0  0  0
   71.1685   46.4527   58.5180 C   0  0  0  0  0  0  0  0  0  0  0  0
   71.1413   46.7126   59.7860 O   0  0  0  0  0  0  0  0  0  0  0  0
   68.6452   42.4357   57.0198 C   0  0  0  0  0  0  0  0  0  0  0  0
   69.9463   43.0904   57.4027 C   0  0  0  0  0  0  0  0  0  0  0  0
   70.0140   44.3995   57.7738 C   0  0  0  0  0  0  0  0  0  0  0  0
   71.1878   45.0641   58.1395 C   0  0  0  0  0  0  0  0  0  0  0  0
   72.3356   44.3319   58.1165 C   0  0  0  0  0  0  0  0  0  0  0  0
   73.5660   44.8451   58.4498 C   0  0  0  0  0  0  0  0  0  0  0  0
   74.7158   44.0615   58.4124 C   0  0  0  0  0  0  0  0  0  0  0  0
   74.6642   42.7492   58.0428 C   0  0  0  0  0  0  0  0  0  0  0  0
   73.4257   42.2429   57.7109 C   0  0  0  0  0  0  0  0  0  0  0  0
   72.2700   42.9869   57.7356 C   0  0  0  0  0  0  0  0  0  0  0  0
   71.0956   42.3963   57.3903 N   0  0  0  0  0  0  0  0  0  0  0  0
   70.8338   48.8645   58.0315 C   0  0  0  0  0  0  0  0  0  0  0  0
   69.6104   49.3327   57.2916 C   0  0  0  0  0  0  0  0  0  0  0  0
   69.3558   48.6580   56.0567 N   0  0  0  0  0  0  0  0  0  0  0  0
   68.5292   47.4860   55.8764 C   0  0  0  0  0  0  0  0  0  0  0  0
   67.9401   46.9242   56.8476 O   0  0  0  0  0  0  0  0  0  0  0  0
   68.5206   47.1251   54.4751 C   0  0  0  0  0  0  0  0  0  0  0  0
   67.8969   46.1072   53.8004 C   0  0  0  0  0  0  0  0  0  0  0  0
   68.0578   45.9923   52.4541 C   0  0  0  0  0  0  0  0  0  0  0  0
   68.8328   46.8689   51.7280 C   0  0  0  0  0  0  0  0  0  0  0  0
   69.4571   47.8892   52.4031 C   0  0  0  0  0  0  0  0  0  0  0  0
   69.2993   48.0120   53.7629 C   0  0  0  0  0  0  0  0  0  0  0  0
   69.8242   48.9758   54.7595 C   0  0  0  0  0  0  0  0  0  0  0  0
   70.5844   49.9307   54.4184 O   0  0  0  0  0  0  0  0  0  0  0  0
  4  5  1  0
  5  6  2  0
  5 14  1  0
  6  7  1  0
  7  2  1  0
  7  8  2  0
  2  3  2  0
  2  1  1  0
  1 15  1  0
 15 16  1  0
 16 17  1  0
 17 18  1  0
 17 26  1  0
 18 19  2  0
 18 20  1  0
 20 21  1  0
 20 25  2  0
 21 22  2  0
 22 23  1  0
 23 24  2  0
 24 25  1  0
 25 26  1  0
 26 27  2  0
  8  9  1  0
  8 13  1  0
  9 10  2  0
 10 11  1  0
 11 12  2  0
 12 13  1  0
 13 14  2  0
M  END
>  <minimizedAffinity>  (266) 
-8.55851

$$$$
data/reference_output_2/data/smiles/110093.pdb
     RDKit          3D

 25 27  0  0  0  0  0  0  0  0999 V2000
   68.5344   42.4445   57.0161 C   0  0  0  0  0  0  0  0  0  0  0  0
   69.7927   42.5697   56.8434 O   0  0  0  0  0  0  0  0  0  0  0  0
   67.7340   43.4078   56.3731 N   0  0  0  0  0  0  0  0  0  0  0  0
   67.0074   39.2091   59.3777 C   0  0  0  0  0  0  0  0  0  0  0  0
   66.5543   40.4976   59.5761 C   0  0  0  0  0  0  0  0  0  0  0  0
   67.0479   41.5470   58.8119 C   0  0  0  0  0  0  0  0  0  0  0  0
   67.9973   41.3564   57.8366 C   0  0  0  0  0  0  0  0  0  0  0  0
   68.4512   40.0699   57.6372 C   0  0  0  0  0  0  0  0  0  0  0  0
   67.9601   39.0216   58.3987 C   0  0  0  0  0  0  0  0  0  0  0  0
   65.7251   38.6045   61.4123 C   0  0  0  0  0  0  0  0  0  0  0  0
   66.4718   38.0881   60.2035 C   0  0  0  0  0  0  0  0  0  0  0  0
   67.6576   37.2751   60.6652 C   0  0  0  0  0  0  0  0  0  0  0  0
   65.5986   37.1761   59.3616 C   0  0  0  0  0  0  0  0  0  0  0  0
   68.3121   44.4382   55.5925 N   0  0  0  0  0  0  0  0  0  0  0  0
   67.7400   44.9305   54.5612 C   0  0  0  0  0  0  0  0  0  0  0  0
   68.2871   45.9826   53.7309 C   0  0  0  0  0  0  0  0  0  0  0  0
   68.1462   45.9482   52.3590 C   0  0  0  0  0  0  0  0  0  0  0  0
   68.6503   46.9276   51.5347 C   0  0  0  0  0  0  0  0  0  0  0  0
   69.3295   48.0024   52.0580 C   0  0  0  0  0  0  0  0  0  0  0  0
   69.9271   49.0909   51.5624 N   0  0  0  0  0  0  0  0  0  0  0  0
   70.4324   49.8043   52.5248 O   0  0  0  0  0  0  0  0  0  0  0  0
   70.1794   49.2075   53.6529 N   0  0  0  0  0  0  0  0  0  0  0  0
   70.5612   49.6735   54.8889 O   0  0  0  0  0  0  0  0  0  0  0  0
   69.4846   48.0617   53.4251 C   0  0  0  0  0  0  0  0  0  0  0  0
   68.9734   47.0724   54.2419 C   0  0  0  0  0  0  0  0  0  0  0  0
 10 11  1  0
 11 12  1  0
 11 13  1  0
 11  4  1  0
  4  5  2  0
  4  9  1  0
  5  6  1  0
  6  7  2  0
  7  1  1  0
  7  8  1  0
  1  2  2  0
  1  3  1  0
  3 14  1  0
 14 15  2  0
 15 16  1  0
 16 17  1  0
 16 25  2  0
 17 18  2  0
 18 19  1  0
 19 20  2  0
 19 24  1  0
 20 21  1  0
 21 22  1  0
 22 23  1  0
 22 24  2  0
 24 25  1  0
  8  9  2  0
M  CHG  2  22   1  23  -1
M  END
>  <minimizedAffinity>  (267) 
-8.70710

$$$$
data/reference_output_2/data/smiles/110283.pdb
     RDKit          3D

 28 31  0  0  0  0  0  0  0  0999 V2000
   71.7218   47.1621   58.9529 C   0  0  0  0  0  0  0  0  0  0  0  0
   70.7392   47.8401   58.2203 C   0  0  0  0  0  0  0  0  0  0  0  0
   69.8497   47.2340   57.3910 C   0  0  0  0  0  0  0  0  0  0  0  0
   69.9561   45.8322   57.2887 C   0  0  0  0  0  0  0  0  0  0  0  0
   70.9004   45.1218   57.9832 C   0  0  0  0  0  0  0  0  0  0  0  0
   71.7706   45.7966   58.8057 C   0  0  0  0  0  0  0  0  0  0  0  0
   72.7348   45.1491   59.5264 F   0  0  0  0  0  0  0  0  0  0  0  0
   72.9744   51.1949   58.4068 C   0  0  0  0  0  0  0  0  0  0  0  0
   74.3146   50.7092   58.3196 N   0  0  0  0  0  0  0  0  0  0  0  0
   74.5385   49.6770   57.3578 C   0  0  0  0  0  0  0  0  0  0  0  0
   74.2782   48.2846   57.9525 C   0  0  0  0  0  0  0  0  0  0  0  0
   73.8422   48.4197   59.3367 N   0  0  0  0  0  0  0  0  0  0  0  0
   72.6350   47.8928   59.8292 C   0  0  0  0  0  0  0  0  0  0  0  0
   72.3572   48.0649   61.0464 O   0  0  0  0  0  0  0  0  0  0  0  0
   74.7611   49.1581   60.1949 C   0  0  0  0  0  0  0  0  0  0  0  0
   74.9785   50.5275   59.5707 C   0  0  0  0  0  0  0  0  0  0  0  0
   68.7827   47.8909   56.5950 C   0  0  0  0  0  0  0  0  0  0  0  0
   69.2140   48.1001   55.2191 C   0  0  0  0  0  0  0  0  0  0  0  0
   70.1521   49.0805   55.0457 N   0  0  0  0  0  0  0  0  0  0  0  0
   70.6788   49.3604   53.8776 N   0  0  0  0  0  0  0  0  0  0  0  0
   70.3168   48.6875   52.7785 C   0  0  0  0  0  0  0  0  0  0  0  0
   70.8174   48.9465   51.6446 O   0  0  0  0  0  0  0  0  0  0  0  0
   69.3800   47.6888   52.8662 C   0  0  0  0  0  0  0  0  0  0  0  0
   68.9784   46.9859   51.7350 C   0  0  0  0  0  0  0  0  0  0  0  0
   68.0257   46.0123   51.9009 C   0  0  0  0  0  0  0  0  0  0  0  0
   67.4796   45.7280   53.1266 C   0  0  0  0  0  0  0  0  0  0  0  0
   67.8876   46.4350   54.2503 C   0  0  0  0  0  0  0  0  0  0  0  0
   68.8355   47.4078   54.1050 C   0  0  0  0  0  0  0  0  0  0  0  0
  8  9  1  0
  9 10  1  0
  9 16  1  0
 10 11  1  0
 11 12  1  0
 12 13  1  0
 12 15  1  0
 13 14  2  0
 13  1  1  0
  1  2  2  0
  1  6  1  0
  2  3  1  0
  3 17  1  0
  3  4  2  0
 17 18  1  0
 18 19  2  0
 18 28  1  0
 19 20  1  0
 20 21  1  0
 21 22  2  0
 21 23  1  0
 23 24  1  0
 23 28  2  0
 24 25  2  0
 25 26  1  0
 26 27  2  0
 27 28  1  0
  4  5  1  0
  5  6  2  0
  6  7  1  0
 15 16  1  0
M  CHG  1   9   1
M  END
>  <minimizedAffinity>  (268) 
-8.90172

$$$$
data/reference_output_2/data/smiles/110310.pdb
     RDKit          3D

 25 27  0  0  0  0  0  0  0  0999 V2000
   71.0628   43.9863   57.7711 O   0  0  0  0  0  0  0  0  0  0  0  0
   69.8803   43.8865   57.3298 C   0  0  0  0  0  0  0  0  0  0  0  0
   69.2421   45.0897   56.9470 N   0  0  0  0  0  0  0  0  0  0  0  0
   69.2330   42.5803   57.2338 C   0  0  0  0  0  0  0  0  0  0  0  0
   68.0380   42.4440   56.5235 C   0  0  0  0  0  0  0  0  0  0  0  0
   67.4283   41.2169   56.4330 C   0  0  0  0  0  0  0  0  0  0  0  0
   67.9866   40.1147   57.0375 C   0  0  0  0  0  0  0  0  0  0  0  0
   69.1706   40.2269   57.7460 C   0  0  0  0  0  0  0  0  0  0  0  0
   69.7606   41.4704   57.8214 C   0  0  0  0  0  0  0  0  0  0  0  0
   69.7840   39.0750   58.3971 C   0  0  0  0  0  0  0  0  0  0  0  0
   69.3094   38.3664   59.4802 C   0  0  0  0  0  0  0  0  0  0  0  0
   70.2105   37.3449   59.7710 C   0  0  0  0  0  0  0  0  0  0  0  0
   71.1998   37.5004   58.8237 C   0  0  0  0  0  0  0  0  0  0  0  0
   70.9107   38.5200   58.0443 O   0  0  0  0  0  0  0  0  0  0  0  0
   69.8908   46.3356   57.0504 N   0  0  0  0  0  0  0  0  0  0  0  0
   68.9106   47.5244   56.3050 S   0  0  0  0  0  0  0  0  0  0  0  0
   69.2901   48.9123   56.7019 O   0  0  0  0  0  0  0  0  0  0  0  0
   67.4960   47.3010   56.7585 O   0  0  0  0  0  0  0  0  0  0  0  0
   68.9181   47.3472   54.5479 C   0  0  0  0  0  0  0  0  0  0  0  0
   69.5164   48.2826   53.7283 C   0  0  0  0  0  0  0  0  0  0  0  0
   69.5431   48.1795   52.3528 C   0  0  0  0  0  0  0  0  0  0  0  0
   68.9263   47.0639   51.8209 C   0  0  0  0  0  0  0  0  0  0  0  0
   68.3164   46.1019   52.5875 C   0  0  0  0  0  0  0  0  0  0  0  0
   68.3180   46.2540   53.9531 C   0  0  0  0  0  0  0  0  0  0  0  0
   67.7419   45.3570   54.7852 F   0  0  0  0  0  0  0  0  0  0  0  0
  1  2  2  0
  2  3  1  0
  2  4  1  0
  3 15  1  0
 15 16  1  0
 16 17  2  0
 16 18  2  0
 16 19  1  0
 19 20  2  0
 19 24  1  0
 20 21  1  0
 21 22  2  0
 22 23  1  0
 23 24  2  0
 24 25  1  0
  4  5  2  0
  4  9  1  0
  5  6  1  0
  6  7  2  0
  7  8  1  0
  8 10  1  0
  8  9  2  0
 10 11  2  0
 10 14  1  0
 11 12  1  0
 12 13  2  0
 13 14  1  0
M  END
>  <minimizedAffinity>  (269) 
-8.78881

$$$$
data/reference_output_2/data/smiles/110336.pdb
     RDKit          3D

 26 29  0  0  0  0  0  0  0  0999 V2000
   70.2102   48.6078   57.2986 N   0  0  0  0  0  0  0  0  0  0  0  0
   70.5265   49.2867   56.1992 N   0  0  0  0  0  0  0  0  0  0  0  0
   70.1277   48.9173   54.9651 C   0  0  0  0  0  0  0  0  0  0  0  0
   69.3543   47.7927   54.7749 C   0  0  0  0  0  0  0  0  0  0  0  0
   69.0110   47.0697   55.9000 C   0  0  0  0  0  0  0  0  0  0  0  0
   68.2709   46.0410   55.4609 N   0  0  0  0  0  0  0  0  0  0  0  0
   68.1177   46.0578   54.1216 C   0  0  0  0  0  0  0  0  0  0  0  0
   67.4608   45.2430   53.2112 C   0  0  0  0  0  0  0  0  0  0  0  0
   67.4733   45.5121   51.8610 C   0  0  0  0  0  0  0  0  0  0  0  0
   68.1637   46.6297   51.4218 C   0  0  0  0  0  0  0  0  0  0  0  0
   68.8232   47.4523   52.3141 C   0  0  0  0  0  0  0  0  0  0  0  0
   68.8057   47.1730   53.6761 C   0  0  0  0  0  0  0  0  0  0  0  0
   69.4580   47.5105   57.1327 C   0  0  0  0  0  0  0  0  0  0  0  0
   69.1395   46.8403   58.1668 O   0  0  0  0  0  0  0  0  0  0  0  0
   70.6790   49.0556   58.6128 C   0  0  0  0  0  0  0  0  0  0  0  0
   71.6579   47.8896   60.4173 O   0  0  0  0  0  0  0  0  0  0  0  0
   71.6447   48.0877   59.1908 C   0  0  0  0  0  0  0  0  0  0  0  0
   72.5254   47.4127   58.3391 N   0  0  0  0  0  0  0  0  0  0  0  0
   73.4821   46.4618   58.8230 C   0  0  0  0  0  0  0  0  0  0  0  0
   73.0915   45.1119   58.3691 C   0  0  0  0  0  0  0  0  0  0  0  0
   74.0982   44.1553   58.1770 C   0  0  0  0  0  0  0  0  0  0  0  0
   73.8095   42.8718   57.7687 C   0  0  0  0  0  0  0  0  0  0  0  0
   72.5192   42.4678   57.5294 C   0  0  0  0  0  0  0  0  0  0  0  0
   71.5168   43.3916   57.7128 C   0  0  0  0  0  0  0  0  0  0  0  0
   69.8722   42.8752   57.4074 Cl  0  0  0  0  0  0  0  0  0  0  0  0
   71.8072   44.6958   58.1280 C   0  0  0  0  0  0  0  0  0  0  0  0
 16 17  2  0
 17 15  1  0
 17 18  1  0
 15  1  1  0
  1  2  1  0
  1 13  1  0
  2  3  2  0
  3  4  1  0
  4  5  2  0
  4 12  1  0
  5  6  1  0
  5 13  1  0
  6  7  1  0
  7  8  1  0
  7 12  2  0
  8  9  2  0
  9 10  1  0
 10 11  2  0
 11 12  1  0
 13 14  2  0
 18 19  1  0
 19 20  1  0
 20 21  2  0
 20 26  1  0
 21 22  1  0
 22 23  2  0
 23 24  1  0
 24 25  1  0
 24 26  2  0
M  END
>  <minimizedAffinity>  (270) 
-8.52732

$$$$
data/reference_output_2/data/smiles/110444.pdb
     RDKit          3D

 25 28  0  0  0  0  0  0  0  0999 V2000
   68.5436   47.0955   56.0101 C   0  0  2  0  0  0  0  0  0  0  0  0
   68.4047   45.7320   55.9227 O   0  0  0  0  0  0  0  0  0  0  0  0
   66.7735   45.1549   50.6686 O   0  0  0  0  0  0  0  0  0  0  0  0
   67.4452   45.8904   51.4469 C   0  0  0  0  0  0  0  0  0  0  0  0
   68.3386   46.8653   51.2549 N   0  0  0  0  0  0  0  0  0  0  0  0
   68.8795   47.4573   52.2924 C   0  0  0  0  0  0  0  0  0  0  0  0
   69.8372   48.5006   52.2324 C   0  0  0  0  0  0  0  0  0  0  0  0
   70.3087   49.0131   51.0327 O   0  0  0  0  0  0  0  0  0  0  0  0
   70.3390   49.0463   53.3837 C   0  0  0  0  0  0  0  0  0  0  0  0
   69.9712   48.6465   54.6507 C   0  0  0  0  0  0  0  0  0  0  0  0
   69.0458   47.6386   54.7250 C   0  0  0  0  0  0  0  0  0  0  0  0
   68.5320   47.0789   53.5259 C   0  0  0  0  0  0  0  0  0  0  0  0
   67.3729   45.8132   53.2774 S   0  0  0  0  0  0  0  0  0  0  0  0
   69.4484   47.5026   57.1705 C   0  0  0  0  0  0  0  0  0  0  0  0
   69.5098   46.4787   58.1592 N   0  0  0  0  0  0  0  0  0  0  0  0
   70.8105   46.1729   58.6604 C   0  0  2  0  0  0  0  0  0  0  0  0
   71.8183   47.0760   57.9493 C   0  0  0  0  0  0  0  0  0  0  0  0
   73.1822   46.9568   58.5963 C   0  0  0  0  0  0  0  0  0  0  0  0
   73.3175   45.6928   59.4244 C   0  0  0  0  0  0  0  0  0  0  0  0
   72.5919   44.5550   58.7492 C   0  0  0  0  0  0  0  0  0  0  0  0
   73.1453   43.3394   58.5141 C   0  0  0  0  0  0  0  0  0  0  0  0
   72.4207   42.3609   57.8648 C   0  0  0  0  0  0  0  0  0  0  0  0
   71.1267   42.6159   57.4499 C   0  0  0  0  0  0  0  0  0  0  0  0
   70.5328   43.8664   57.6819 C   0  0  0  0  0  0  0  0  0  0  0  0
   71.2790   44.7980   58.3232 C   0  0  0  0  0  0  0  0  0  0  0  0
  3  4  2  0
  4  5  1  0
  4 13  1  0
  5  6  1  0
  6  7  2  0
  6 12  1  0
  7  8  1  0
  7  9  1  0
  9 10  2  0
 10 11  1  0
 11  1  1  0
 11 12  2  0
  1  2  1  6
  1 14  1  0
 14 15  1  0
 16 15  1  6
 16 17  1  0
 16 25  1  0
 17 18  1  0
 18 19  1  0
 19 20  1  0
 20 21  2  0
 20 25  1  0
 21 22  1  0
 22 23  2  0
 23 24  1  0
 24 25  2  0
 12 13  1  0
M  CHG  1  15   1
M  END
>  <minimizedAffinity>  (271) 
-8.51037

$$$$
data/reference_output_2/data/smiles/110485.pdb
     RDKit          3D

 24 26  0  0  0  0  0  0  0  0999 V2000
   71.1753   48.8048   58.0891 C   0  0  0  0  0  0  0  0  0  0  0  0
   70.8602   47.3829   57.9104 C   0  0  0  0  0  0  0  0  0  0  0  0
   71.5469   46.3011   58.4360 C   0  0  0  0  0  0  0  0  0  0  0  0
   70.9369   45.1286   58.0393 C   0  0  0  0  0  0  0  0  0  0  0  0
   71.1965   43.7931   58.2691 C   0  0  0  0  0  0  0  0  0  0  0  0
   70.3774   42.8224   57.7168 C   0  0  0  0  0  0  0  0  0  0  0  0
   69.3226   43.2796   56.9504 C   0  0  0  0  0  0  0  0  0  0  0  0
   69.0785   44.5821   56.7344 N   0  0  0  0  0  0  0  0  0  0  0  0
   69.8586   45.5431   57.2582 C   0  0  0  0  0  0  0  0  0  0  0  0
   69.8324   46.8915   57.1948 N   0  0  0  0  0  0  0  0  0  0  0  0
   68.6580   47.8023   56.3281 S   0  0  0  0  0  0  0  0  0  0  0  0
   67.2632   47.4628   56.7676 O   0  0  0  0  0  0  0  0  0  0  0  0
   68.8405   49.2881   56.5580 O   0  0  0  0  0  0  0  0  0  0  0  0
   68.7391   47.5176   54.6020 C   0  0  0  0  0  0  0  0  0  0  0  0
   69.5093   48.3074   53.7943 C   0  0  0  0  0  0  0  0  0  0  0  0
   69.5823   48.0941   52.4440 C   0  0  0  0  0  0  0  0  0  0  0  0
   68.8644   47.0550   51.8615 C   0  0  0  0  0  0  0  0  0  0  0  0
   68.0942   46.2716   52.6977 C   0  0  0  0  0  0  0  0  0  0  0  0
   67.1906   44.9636   51.9700 Cl  0  0  0  0  0  0  0  0  0  0  0  0
   68.0189   46.4836   54.0559 C   0  0  0  0  0  0  0  0  0  0  0  0
   72.7529   46.4200   59.2892 C   0  0  0  0  0  0  0  0  0  0  0  0
   72.3462   46.4659   60.7176 C   0  0  0  0  0  0  0  0  0  0  0  0
   71.8728   45.4408   61.2823 O   0  0  0  0  0  0  0  0  0  0  0  0
   72.4729   47.6216   61.4673 O   0  0  0  0  0  0  0  0  0  0  0  0
  1  2  1  0
  2  3  2  0
  2 10  1  0
  3 21  1  0
  3  4  1  0
 21 22  1  0
 22 23  2  0
 22 24  1  0
  4  5  2  0
  4  9  1  0
  5  6  1  0
  6  7  2  0
  7  8  1  0
  8  9  2  0
  9 10  1  0
 10 11  1  0
 11 12  2  0
 11 13  2  0
 11 14  1  0
 14 15  2  0
 14 20  1  0
 15 16  1  0
 16 17  2  0
 17 18  1  0
 18 19  1  0
 18 20  2  0
M  END
>  <minimizedAffinity>  (272) 
-8.62900

$$$$
data/reference_output_2/data/smiles/110566.pdb
     RDKit          3D

 28 32  0  0  0  0  0  0  0  0999 V2000
   68.3986   42.2558   56.5335 C   0  0  0  0  0  0  0  0  0  0  0  0
   69.2019   42.3180   57.6322 C   0  0  0  0  0  0  0  0  0  0  0  0
   69.3899   41.2290   58.4688 C   0  0  0  0  0  0  0  0  0  0  0  0
   68.7686   40.0201   58.2306 C   0  0  0  0  0  0  0  0  0  0  0  0
   67.9540   39.9513   57.1209 C   0  0  0  0  0  0  0  0  0  0  0  0
   67.7738   41.0484   56.2881 C   0  0  0  0  0  0  0  0  0  0  0  0
   69.1676   44.7775   57.0544 O   0  0  0  0  0  0  0  0  0  0  0  0
   68.5598   44.6665   55.9337 C   0  0  0  0  0  0  0  0  0  0  0  0
   68.1402   43.3350   55.6327 N   0  0  0  0  0  0  0  0  0  0  0  0
   68.3341   45.7639   55.0902 N   0  0  0  0  0  0  0  0  0  0  0  0
   68.7223   47.1175   55.3645 C   0  0  0  0  0  0  0  0  0  0  0  0
   69.1480   47.6008   54.0260 C   0  0  0  0  0  0  0  0  0  0  0  0
   69.9811   48.6372   53.6679 C   0  0  0  0  0  0  0  0  0  0  0  0
   70.2027   48.8699   52.3298 C   0  0  0  0  0  0  0  0  0  0  0  0
   69.5986   48.0784   51.4003 N   0  0  0  0  0  0  0  0  0  0  0  0
   68.7827   47.0636   51.7724 C   0  0  0  0  0  0  0  0  0  0  0  0
   68.5316   46.7921   53.0981 C   0  0  0  0  0  0  0  0  0  0  0  0
   67.6950   45.7594   53.8092 C   0  0  0  0  0  0  0  0  0  0  0  0
   68.9724   38.8847   59.1283 C   0  0  0  0  0  0  0  0  0  0  0  0
   68.0323   38.5429   59.8854 O   0  0  0  0  0  0  0  0  0  0  0  0
   70.1962   38.1652   59.1643 N   0  0  0  0  0  0  0  0  0  0  0  0
   70.5175   37.0481   59.9897 C   0  0  0  0  0  0  0  0  0  0  0  0
   71.8877   36.5858   59.6229 C   0  0  1  0  0  0  0  0  0  0  0  0
   71.9329   35.1805   59.1120 C   0  0  0  0  0  0  0  0  0  0  0  0
   72.1882   35.1759   57.7734 O   0  0  0  0  0  0  0  0  0  0  0  0
   72.3698   36.4470   57.3229 C   0  0  0  0  0  0  0  0  0  0  0  0
   72.3344   37.3995   58.4633 C   0  0  1  0  0  0  0  0  0  0  0  0
   71.3364   38.5003   58.3136 C   0  0  0  0  0  0  0  0  0  0  0  0
  7  8  2  0
  8  9  1  0
  8 10  1  0
  9  1  1  0
  1  2  2  0
  1  6  1  0
  2  3  1  0
  3  4  2  0
  4 19  1  0
  4  5  1  0
 19 20  2  0
 19 21  1  0
 21 22  1  0
 21 28  1  0
 23 22  1  6
 23 24  1  0
 23 27  1  0
 24 25  1  0
 25 26  1  0
 27 26  1  6
 27 28  1  0
  5  6  2  0
 10 11  1  0
 10 18  1  0
 11 12  1  0
 12 13  1  0
 12 17  2  0
 13 14  2  0
 14 15  1  0
 15 16  2  0
 16 17  1  0
 17 18  1  0
M  END
>  <minimizedAffinity>  (273) 
-8.85863

$$$$
data/reference_output_2/data/smiles/110675.pdb
     RDKit          3D

 24 26  0  0  0  0  0  0  0  0999 V2000
   70.5447   44.4394   58.0782 C   0  0  0  0  0  0  0  0  0  0  0  0
   71.7416   44.5752   57.7060 O   0  0  0  0  0  0  0  0  0  0  0  0
   69.8523   45.5892   58.4720 N   0  0  0  0  0  0  0  0  0  0  0  0
   68.1811   39.1484   58.0019 C   0  0  0  0  0  0  0  0  0  0  0  0
   68.7893   40.5130   58.0184 C   0  0  0  0  0  0  0  0  0  0  0  0
   69.7487   40.8680   58.9426 C   0  0  0  0  0  0  0  0  0  0  0  0
   70.3237   42.1218   58.9790 C   0  0  0  0  0  0  0  0  0  0  0  0
   69.9602   43.0957   58.0750 C   0  0  0  0  0  0  0  0  0  0  0  0
   68.9972   42.7481   57.1426 C   0  0  0  0  0  0  0  0  0  0  0  0
   68.4224   41.4848   57.1120 C   0  0  0  0  0  0  0  0  0  0  0  0
   67.4369   41.1493   56.1479 N   0  0  0  0  0  0  0  0  0  0  0  0
   67.6750   40.2224   55.3629 O   0  0  0  0  0  0  0  0  0  0  0  0
   66.2582   41.8360   56.0937 O   0  0  0  0  0  0  0  0  0  0  0  0
   70.4796   46.8867   58.4564 C   0  0  0  0  0  0  0  0  0  0  0  0
   69.7461   47.9239   57.6847 C   0  0  0  0  0  0  0  0  0  0  0  0
   69.3334   47.5048   56.3364 C   0  0  0  0  0  0  0  0  0  0  0  0
   68.5594   46.4247   56.0972 N   0  0  0  0  0  0  0  0  0  0  0  0
   68.3522   46.3000   54.7837 C   0  0  0  0  0  0  0  0  0  0  0  0
   67.6612   45.4129   53.9739 C   0  0  0  0  0  0  0  0  0  0  0  0
   67.6235   45.5401   52.6016 C   0  0  0  0  0  0  0  0  0  0  0  0
   68.3008   46.5942   51.9810 C   0  0  0  0  0  0  0  0  0  0  0  0
   68.9870   47.4742   52.7867 C   0  0  0  0  0  0  0  0  0  0  0  0
   69.0095   47.3276   54.1522 C   0  0  0  0  0  0  0  0  0  0  0  0
   69.5961   48.0388   55.1485 N   0  0  0  0  0  0  0  0  0  0  0  0
  4  5  1  0
  5  6  2  0
  5 10  1  0
  6  7  1  0
  7  8  2  0
  8  1  1  0
  8  9  1  0
  1  2  2  0
  1  3  1  0
  3 14  1  0
 14 15  1  0
 15 16  1  0
 16 17  2  0
 16 24  1  0
 17 18  1  0
 18 19  2  0
 18 23  1  0
 19 20  1  0
 20 21  2  0
 21 22  1  0
 22 23  2  0
 23 24  1  0
  9 10  2  0
 10 11  1  0
 11 12  2  0
 11 13  1  0
M  CHG  3  11   1  13  -1  17   1
M  END
>  <minimizedAffinity>  (274) 
-8.58938

$$$$
data/reference_output_2/data/smiles/111028.pdb
     RDKit          3D

 29 33  0  0  0  0  0  0  0  0999 V2000
   68.6925   44.1654   56.2669 C   0  0  0  0  0  0  0  0  0  0  0  0
   69.2235   45.2504   56.9227 N   0  0  0  0  0  0  0  0  0  0  0  0
   69.0960   46.3672   56.2076 C   0  0  0  0  0  0  0  0  0  0  0  0
   69.4607   47.7017   56.4178 C   0  0  0  0  0  0  0  0  0  0  0  0
   69.2078   48.6909   55.4953 C   0  0  0  0  0  0  0  0  0  0  0  0
   68.5695   48.3140   54.3340 C   0  0  0  0  0  0  0  0  0  0  0  0
   68.2002   46.9852   54.1109 C   0  0  0  0  0  0  0  0  0  0  0  0
   68.4629   46.0110   55.0467 C   0  0  0  0  0  0  0  0  0  0  0  0
   68.2359   44.6698   55.1227 N   0  0  0  0  0  0  0  0  0  0  0  0
   72.1258   41.0941   58.7124 C   0  0  0  0  0  0  0  0  0  0  0  0
   70.8121   40.4001   58.5263 C   0  0  0  0  0  0  0  0  0  0  0  0
   70.6325   39.1033   58.9981 C   0  0  0  0  0  0  0  0  0  0  0  0
   69.4696   38.3895   58.8845 C   0  0  0  0  0  0  0  0  0  0  0  0
   68.4118   38.9915   58.2663 C   0  0  0  0  0  0  0  0  0  0  0  0
   68.5369   40.2661   57.7843 C   0  0  0  0  0  0  0  0  0  0  0  0
   67.4536   40.8076   57.1848 N   0  0  0  0  0  0  0  0  0  0  0  0
   67.5184   42.0467   56.7004 C   0  0  0  0  0  0  0  0  0  0  0  0
   66.5300   42.5597   56.1449 O   0  0  0  0  0  0  0  0  0  0  0  0
   68.6946   42.8054   56.7993 C   0  0  0  0  0  0  0  0  0  0  0  0
   69.7759   42.2609   57.3989 C   0  0  0  0  0  0  0  0  0  0  0  0
   70.9640   42.9862   57.4892 N   0  0  0  0  0  0  0  0  0  0  0  0
   69.7274   40.9816   57.9071 C   0  0  0  0  0  0  0  0  0  0  0  0
   69.5830   50.0440   55.7050 N   0  0  0  0  0  0  0  0  0  0  0  0
   69.0160   51.1690   54.9797 C   0  0  0  0  0  0  0  0  0  0  0  0
   68.8099   52.2749   56.0006 C   0  0  0  0  0  0  0  0  0  0  0  0
   68.6451   51.7179   57.3377 N   0  0  0  0  0  0  0  0  0  0  0  0
   67.5215   50.8194   57.3559 C   0  0  0  0  0  0  0  0  0  0  0  0
   69.8520   51.0748   57.8264 C   0  0  0  0  0  0  0  0  0  0  0  0
   70.5869   50.4230   56.6772 C   0  0  0  0  0  0  0  0  0  0  0  0
 10 11  1  0
 11 12  2  0
 11 22  1  0
 12 13  1  0
 13 14  2  0
 14 15  1  0
 15 16  1  0
 15 22  2  0
 16 17  1  0
 17 18  2  0
 17 19  1  0
 19  1  1  0
 19 20  2  0
  1  2  2  0
  1  9  1  0
  2  3  1  0
  3  4  2  0
  3  8  1  0
  4  5  1  0
  5 23  1  0
  5  6  2  0
 23 24  1  0
 23 29  1  0
 24 25  1  0
 25 26  1  0
 26 27  1  0
 26 28  1  0
 28 29  1  0
  6  7  1  0
  7  8  2  0
  8  9  1  0
 20 21  1  0
 20 22  1  0
M  CHG  2   2   1  26   1
M  END
>  <minimizedAffinity>  (275) 
-8.59488

$$$$
data/reference_output_2/data/smiles/111045.pdb
     RDKit          3D

 31 33  0  0  0  0  0  0  0  0999 V2000
   68.3733   40.7389   60.3464 C   0  0  0  0  0  0  0  0  0  0  0  0
   68.4406   41.3219   59.0994 C   0  0  0  0  0  0  0  0  0  0  0  0
   69.2373   42.4283   58.8672 C   0  0  0  0  0  0  0  0  0  0  0  0
   69.9781   42.9709   59.8707 C   0  0  0  0  0  0  0  0  0  0  0  0
   69.8993   42.3721   61.1196 C   0  0  0  0  0  0  0  0  0  0  0  0
   69.1164   41.2756   61.3721 C   0  0  0  0  0  0  0  0  0  0  0  0
   65.4773   40.9234   61.2937 C   0  0  0  0  0  0  0  0  0  0  0  0
   66.2805   39.6949   61.0267 C   0  0  0  0  0  0  0  0  0  0  0  0
   65.8171   38.4023   61.1722 C   0  0  0  0  0  0  0  0  0  0  0  0
   66.8152   37.5269   60.8426 C   0  0  0  0  0  0  0  0  0  0  0  0
   67.8996   38.2994   60.4910 C   0  0  0  0  0  0  0  0  0  0  0  0
   69.2209   37.7581   60.0571 C   0  0  0  0  0  0  0  0  0  0  0  0
   67.5608   39.6010   60.6074 N   0  0  0  0  0  0  0  0  0  0  0  0
   69.2454   42.9806   57.5092 C   0  0  0  0  0  0  0  0  0  0  0  0
   70.3220   43.0233   56.8309 O   0  0  0  0  0  0  0  0  0  0  0  0
   68.0951   43.4971   56.8582 N   0  0  0  0  0  0  0  0  0  0  0  0
   68.1803   44.0104   55.5562 N   0  0  0  0  0  0  0  0  0  0  0  0
   68.2755   45.4052   55.2990 C   0  0  0  0  0  0  0  0  0  0  0  0
   68.2759   46.1435   56.3329 O   0  0  0  0  0  0  0  0  0  0  0  0
   68.3658   45.9758   53.9607 C   0  0  0  0  0  0  0  0  0  0  0  0
   67.6028   45.4231   52.9571 C   0  0  0  0  0  0  0  0  0  0  0  0
   67.6550   45.9372   51.6540 C   0  0  0  0  0  0  0  0  0  0  0  0
   68.4840   47.0063   51.3967 C   0  0  0  0  0  0  0  0  0  0  0  0
   69.2585   47.5807   52.3774 C   0  0  0  0  0  0  0  0  0  0  0  0
   69.1719   47.0384   53.6417 C   0  0  0  0  0  0  0  0  0  0  0  0
   70.1250   48.7106   52.0706 C   0  0  0  0  0  0  0  0  0  0  0  0
   69.8579   49.4573   51.1006 O   0  0  0  0  0  0  0  0  0  0  0  0
   71.2503   48.9950   52.8214 O   0  0  0  0  0  0  0  0  0  0  0  0
   69.0845   40.7001   62.7141 C   0  0  0  0  0  0  0  0  0  0  0  0
   68.3943   41.2121   63.6327 O   0  0  0  0  0  0  0  0  0  0  0  0
   69.8242   39.5633   63.0028 O   0  0  0  0  0  0  0  0  0  0  0  0
  7  8  1  0
  8  9  2  0
  8 13  1  0
  9 10  1  0
 10 11  2  0
 11 12  1  0
 11 13  1  0
 13  1  1  0
  1  2  2  0
  1  6  1  0
  2  3  1  0
  3 14  1  0
  3  4  2  0
 14 15  2  0
 14 16  1  0
 16 17  1  0
 17 18  1  0
 18 19  2  0
 18 20  1  0
 20 21  2  0
 20 25  1  0
 21 22  1  0
 22 23  2  0
 23 24  1  0
 24 26  1  0
 24 25  2  0
 26 27  2  0
 26 28  1  0
  4  5  1  0
  5  6  2  0
  6 29  1  0
 29 30  2  0
 29 31  1  0
M  END
>  <minimizedAffinity>  (276) 
-8.54271

$$$$
data/reference_output_2/data/smiles/111484.pdb
     RDKit          3D

 19 20  0  0  0  0  0  0  0  0999 V2000
   68.8348   46.5729   55.8582 C   0  0  0  0  0  0  0  0  0  0  0  0
   68.5940   45.4969   56.4980 N   0  0  0  0  0  0  0  0  0  0  0  0
   68.1844   44.3424   55.8874 O   0  0  0  0  0  0  0  0  0  0  0  0
   69.2712   47.7987   52.3399 C   0  0  0  0  0  0  0  0  0  0  0  0
   68.4600   46.9591   51.6210 C   0  0  0  0  0  0  0  0  0  0  0  0
   67.7595   45.9734   52.2968 C   0  0  0  0  0  0  0  0  0  0  0  0
   67.8859   45.8499   53.6773 C   0  0  0  0  0  0  0  0  0  0  0  0
   68.7004   46.6883   54.4117 C   0  0  0  0  0  0  0  0  0  0  0  0
   69.3819   47.6568   53.7170 C   0  0  0  0  0  0  0  0  0  0  0  0
   70.7998   48.5447   50.7416 O   0  0  0  0  0  0  0  0  0  0  0  0
   69.9863   48.8094   51.6331 N   0  0  0  0  0  0  0  0  0  0  0  0
   69.7579   50.1200   51.9598 O   0  0  0  0  0  0  0  0  0  0  0  0
   69.2577   47.6916   56.6586 N   0  0  0  0  0  0  0  0  0  0  0  0
   68.4227   48.7875   56.9776 C   0  0  0  0  0  0  0  0  0  0  0  0
   67.2873   48.7454   57.7388 C   0  0  0  0  0  0  0  0  0  0  0  0
   66.5072   49.8529   58.0148 C   0  0  0  0  0  0  0  0  0  0  0  0
   66.8850   51.0765   57.4981 C   0  0  0  0  0  0  0  0  0  0  0  0
   68.0243   51.1615   56.7256 C   0  0  0  0  0  0  0  0  0  0  0  0
   68.7779   50.0307   56.4721 C   0  0  0  0  0  0  0  0  0  0  0  0
 10 11  2  0
 11 12  1  0
 11  4  1  0
  4  5  2  0
  4  9  1  0
  5  6  1  0
  6  7  2  0
  7  8  1  0
  8  1  1  0
  8  9  2  0
  1  2  2  0
  1 13  1  0
  2  3  1  0
 13 14  1  0
 14 15  2  0
 14 19  1  0
 15 16  1  0
 16 17  2  0
 17 18  1  0
 18 19  2  0
M  CHG  3   2   1  11   1  12  -1
M  END
>  <minimizedAffinity>  (277) 
-8.75753

$$$$
data/reference_output_2/data/smiles/111510.pdb
     RDKit          3D

 26 28  0  0  0  0  0  0  0  0999 V2000
   69.7561   44.7614   59.0961 O   0  0  0  0  0  0  0  0  0  0  0  0
   70.6782   44.7202   58.2742 C   0  0  0  0  0  0  0  0  0  0  0  0
   70.7214   45.7375   57.2607 N   0  0  0  0  0  0  0  0  0  0  0  0
   71.6947   43.6850   58.3131 C   0  0  0  0  0  0  0  0  0  0  0  0
   73.0512   44.0283   58.1738 C   0  0  0  0  0  0  0  0  0  0  0  0
   74.0159   43.0997   58.2047 N   0  0  0  0  0  0  0  0  0  0  0  0
   73.7333   41.7953   58.3694 C   0  0  0  0  0  0  0  0  0  0  0  0
   72.4324   41.3654   58.5146 C   0  0  0  0  0  0  0  0  0  0  0  0
   71.4438   42.3548   58.4785 C   0  0  0  0  0  0  0  0  0  0  0  0
   72.1096   39.9545   58.6937 C   0  0  0  0  0  0  0  0  0  0  0  0
   70.8418   39.4769   58.4287 C   0  0  0  0  0  0  0  0  0  0  0  0
   70.5083   38.1454   58.5895 C   0  0  0  0  0  0  0  0  0  0  0  0
   71.4544   37.2396   59.0296 C   0  0  0  0  0  0  0  0  0  0  0  0
   72.7216   37.6962   59.2999 C   0  0  0  0  0  0  0  0  0  0  0  0
   73.0371   39.0309   59.1325 C   0  0  0  0  0  0  0  0  0  0  0  0
   69.8088   46.7297   57.1645 N   0  0  0  0  0  0  0  0  0  0  0  0
   68.6336   46.5736   55.9967 S   0  0  0  0  0  0  0  0  0  0  0  0
   68.1069   45.1537   55.9071 O   0  0  0  0  0  0  0  0  0  0  0  0
   67.4055   47.3714   56.4875 O   0  0  0  0  0  0  0  0  0  0  0  0
   68.9568   47.1513   54.4024 C   0  0  0  0  0  0  0  0  0  0  0  0
   69.6264   48.3895   54.3297 C   0  0  0  0  0  0  0  0  0  0  0  0
   69.9151   48.9966   53.1346 C   0  0  0  0  0  0  0  0  0  0  0  0
   69.5467   48.3936   51.9414 C   0  0  0  0  0  0  0  0  0  0  0  0
   68.8960   47.1895   52.0105 C   0  0  0  0  0  0  0  0  0  0  0  0
   68.6123   46.5891   53.2217 C   0  0  0  0  0  0  0  0  0  0  0  0
   68.0000   45.3735   53.2142 F   0  0  0  0  0  0  0  0  0  0  0  0
  1  2  2  0
  2  3  1  0
  2  4  1  0
  3 16  1  0
 16 17  1  0
 17 18  2  0
 17 19  2  0
 17 20  1  0
 20 21  2  0
 20 25  1  0
 21 22  1  0
 22 23  2  0
 23 24  1  0
 24 25  2  0
 25 26  1  0
  4  5  2  0
  4  9  1  0
  5  6  1  0
  6  7  2  0
  7  8  1  0
  8 10  1  0
  8  9  2  0
 10 11  2  0
 10 15  1  0
 11 12  1  0
 12 13  2  0
 13 14  1  0
 14 15  2  0
M  END
>  <minimizedAffinity>  (278) 
-8.61515

$$$$
data/reference_output_2/data/smiles/111582.pdb
     RDKit          3D

 21 22  0  0  0  0  0  0  0  0999 V2000
   68.7550   47.3908   56.6437 S   0  0  0  0  0  0  0  0  0  0  0  0
   69.7122   48.4670   57.0319 O   0  0  0  0  0  0  0  0  0  0  0  0
   67.3751   47.5757   57.2067 O   0  0  0  0  0  0  0  0  0  0  0  0
   69.3126   47.8555   52.6519 C   0  0  0  0  0  0  0  0  0  0  0  0
   68.5458   46.8299   52.1539 C   0  0  0  0  0  0  0  0  0  0  0  0
   67.8604   45.9850   53.0291 C   0  0  0  0  0  0  0  0  0  0  0  0
   67.9400   46.1621   54.3860 C   0  0  0  0  0  0  0  0  0  0  0  0
   68.7185   47.2043   54.9004 C   0  0  0  0  0  0  0  0  0  0  0  0
   69.3753   48.0117   54.0237 C   0  0  0  0  0  0  0  0  0  0  0  0
   70.6646   48.2899   50.7435 O   0  0  0  0  0  0  0  0  0  0  0  0
   70.0051   48.7037   51.7016 C   0  0  0  0  0  0  0  0  0  0  0  0
   69.9424   50.1012   51.8518 O   0  0  0  0  0  0  0  0  0  0  0  0
   69.3563   45.8661   57.2588 N   0  0  0  0  0  0  0  0  0  0  0  0
   69.1509   44.8420   56.3502 N   0  0  0  0  0  0  0  0  0  0  0  0
   68.9598   43.5015   56.7569 C   0  0  0  0  0  0  0  0  0  0  0  0
   69.7917   42.8918   57.6832 C   0  0  0  0  0  0  0  0  0  0  0  0
   69.5748   41.5945   58.1043 C   0  0  0  0  0  0  0  0  0  0  0  0
   68.5267   40.8487   57.6228 C   0  0  0  0  0  0  0  0  0  0  0  0
   68.2375   39.0480   58.2268 Br  0  0  0  0  0  0  0  0  0  0  0  0
   67.6889   41.4342   56.7020 C   0  0  0  0  0  0  0  0  0  0  0  0
   67.9105   42.7434   56.2795 C   0  0  0  0  0  0  0  0  0  0  0  0
 10 11  2  0
 11 12  1  0
 11  4  1  0
  4  5  2  0
  4  9  1  0
  5  6  1  0
  6  7  2  0
  7  8  1  0
  8  1  1  0
  8  9  2  0
  1  2  2  0
  1  3  2  0
  1 13  1  0
 13 14  1  0
 14 15  1  0
 15 16  2  0
 15 21  1  0
 16 17  1  0
 17 18  2  0
 18 19  1  0
 18 20  1  0
 20 21  2  0
M  END
>  <minimizedAffinity>  (279) 
-8.66897

$$$$
data/reference_output_2/data/smiles/111695.pdb
     RDKit          3D

 26 28  0  0  0  0  0  0  0  0999 V2000
   67.4049   41.1874   55.5859 O   0  0  0  0  0  0  0  0  0  0  0  0
   67.4465   41.8389   56.6589 C   0  0  0  0  0  0  0  0  0  0  0  0
   67.6686   43.2320   56.5459 N   0  0  0  0  0  0  0  0  0  0  0  0
   67.2668   41.1308   57.9257 C   0  0  0  0  0  0  0  0  0  0  0  0
   66.5236   41.7001   58.9422 C   0  0  0  0  0  0  0  0  0  0  0  0
   66.3217   41.0785   60.1571 C   0  0  0  0  0  0  0  0  0  0  0  0
   66.8639   39.8358   60.4126 C   0  0  0  0  0  0  0  0  0  0  0  0
   67.6087   39.2484   59.4132 C   0  0  0  0  0  0  0  0  0  0  0  0
   67.8075   39.8891   58.1842 C   0  0  0  0  0  0  0  0  0  0  0  0
   66.6363   39.2225   61.6755 N   0  0  0  0  0  0  0  0  0  0  0  0
   66.9615   39.7778   62.8520 C   0  0  0  0  0  0  0  0  0  0  0  0
   66.6129   38.9348   63.8908 C   0  0  0  0  0  0  0  0  0  0  0  0
   66.0493   37.8132   63.3186 C   0  0  0  0  0  0  0  0  0  0  0  0
   66.0829   38.0300   61.9584 C   0  0  0  0  0  0  0  0  0  0  0  0
   67.8402   43.9073   55.3354 N   0  0  0  0  0  0  0  0  0  0  0  0
   68.2326   45.2700   55.3146 C   0  0  0  0  0  0  0  0  0  0  0  0
   68.4167   45.8349   56.4334 O   0  0  0  0  0  0  0  0  0  0  0  0
   68.4304   46.0382   54.0957 C   0  0  0  0  0  0  0  0  0  0  0  0
   67.8570   45.6011   52.9025 C   0  0  0  0  0  0  0  0  0  0  0  0
   67.9977   46.2706   51.7116 C   0  0  0  0  0  0  0  0  0  0  0  0
   68.7424   47.4312   51.6937 C   0  0  0  0  0  0  0  0  0  0  0  0
   69.3300   47.9090   52.8383 C   0  0  0  0  0  0  0  0  0  0  0  0
   69.1608   47.1950   54.0274 C   0  0  0  0  0  0  0  0  0  0  0  0
   70.0850   49.0886   52.8139 N   0  0  0  0  0  0  0  0  0  0  0  0
   71.3235   49.0294   52.8633 O   0  0  0  0  0  0  0  0  0  0  0  0
   69.4849   50.3091   52.7360 O   0  0  0  0  0  0  0  0  0  0  0  0
  1  2  2  0
  2  3  1  0
  2  4  1  0
  3 15  1  0
 15 16  1  0
 16 17  2  0
 16 18  1  0
 18 19  2  0
 18 23  1  0
 19 20  1  0
 20 21  2  0
 21 22  1  0
 22 24  1  0
 22 23  2  0
 24 25  2  0
 24 26  1  0
  4  5  2  0
  4  9  1  0
  5  6  1  0
  6  7  2  0
  7 10  1  0
  7  8  1  0
 10 11  1  0
 10 14  1  0
 11 12  2  0
 12 13  1  0
 13 14  2  0
  8  9  2  0
M  CHG  2  24   1  26  -1
M  END
>  <minimizedAffinity>  (280) 
-8.65609

$$$$
data/reference_output_2/data/smiles/111697.pdb
     RDKit          3D

 28 30  0  0  0  0  0  0  0  0999 V2000
   68.5895   39.5387   58.4693 C   0  0  0  0  0  0  0  0  0  0  0  0
   67.7391   38.8534   57.7791 O   0  0  0  0  0  0  0  0  0  0  0  0
   68.5537   40.9341   58.2726 N   0  0  0  0  0  0  0  0  0  0  0  0
   67.5660   41.4577   57.2967 C   0  0  0  0  0  0  0  0  0  0  0  0
   68.1921   42.4956   56.4147 C   0  0  0  0  0  0  0  0  0  0  0  0
   69.2452   43.2545   57.0426 N   0  0  0  0  0  0  0  0  0  0  0  0
   69.3762   44.6643   56.9431 C   0  0  0  0  0  0  0  0  0  0  0  0
   70.3025   45.3069   57.4968 O   0  0  0  0  0  0  0  0  0  0  0  0
   70.2269   42.5305   57.8218 C   0  0  0  0  0  0  0  0  0  0  0  0
   69.4006   41.8661   58.9486 C   0  0  0  0  0  0  0  0  0  0  0  0
   69.4439   38.7899   59.3329 C   0  0  0  0  0  0  0  0  0  0  0  0
   69.3603   39.0120   60.5867 O   0  0  0  0  0  0  0  0  0  0  0  0
   71.4627   35.6231   59.1199 C   0  0  0  0  0  0  0  0  0  0  0  0
   72.3956   35.8978   58.1572 C   0  0  0  0  0  0  0  0  0  0  0  0
   72.3217   37.1622   57.5930 C   0  0  0  0  0  0  0  0  0  0  0  0
   71.3770   38.0638   57.9807 C   0  0  0  0  0  0  0  0  0  0  0  0
   70.4313   37.7738   58.9621 C   0  0  0  0  0  0  0  0  0  0  0  0
   70.4860   36.5290   59.5338 C   0  0  0  0  0  0  0  0  0  0  0  0
   71.4856   33.2720   60.2548 N   0  0  0  0  0  0  0  0  0  0  0  0
   71.4869   34.3154   59.7496 C   0  0  0  0  0  0  0  0  0  0  0  0
   68.4658   45.4400   56.2072 O   0  0  0  0  0  0  0  0  0  0  0  0
   68.8377   46.7267   55.7109 C   0  0  0  0  0  0  0  0  0  0  0  0
   68.6310   46.6771   54.2399 C   0  0  0  0  0  0  0  0  0  0  0  0
   69.2185   47.5903   53.3846 C   0  0  0  0  0  0  0  0  0  0  0  0
   69.0231   47.5383   52.0208 C   0  0  0  0  0  0  0  0  0  0  0  0
   68.2297   46.5691   51.4474 C   0  0  0  0  0  0  0  0  0  0  0  0
   67.6368   45.6514   52.2893 C   0  0  0  0  0  0  0  0  0  0  0  0
   67.8380   45.7097   53.6589 C   0  0  0  0  0  0  0  0  0  0  0  0
 19 20  3  0
 20 13  1  0
 13 14  2  0
 13 18  1  0
 14 15  1  0
 15 16  2  0
 16 17  1  0
 17 11  1  0
 17 18  2  0
 11 12  2  0
 11  1  1  0
  1  2  2  0
  1  3  1  0
  3  4  1  0
  3 10  1  0
  4  5  1  0
  5  6  1  0
  6  7  1  0
  6  9  1  0
  7  8  2  0
  7 21  1  0
 21 22  1  0
 22 23  1  0
 23 24  2  0
 23 28  1  0
 24 25  1  0
 25 26  2  0
 26 27  1  0
 27 28  2  0
  9 10  1  0
M  END
>  <minimizedAffinity>  (281) 
-8.66343

$$$$
data/reference_output_2/data/smiles/111755.pdb
     RDKit          3D

 25 27  0  0  0  0  0  0  0  0999 V2000
   68.3103   42.7100   57.8873 O   0  0  0  0  0  0  0  0  0  0  0  0
   69.4527   43.0606   57.4193 C   0  0  0  0  0  0  0  0  0  0  0  0
   69.4284   44.1461   56.5474 N   0  0  0  0  0  0  0  0  0  0  0  0
   70.6130   42.2972   57.8437 C   0  0  0  0  0  0  0  0  0  0  0  0
   70.4984   40.9287   58.1131 C   0  0  0  0  0  0  0  0  0  0  0  0
   71.5211   40.1139   58.5069 C   0  0  0  0  0  0  0  0  0  0  0  0
   72.7695   40.7014   58.6484 C   0  0  0  0  0  0  0  0  0  0  0  0
   72.9606   42.0393   58.4019 C   0  0  0  0  0  0  0  0  0  0  0  0
   71.8666   42.8277   57.9984 C   0  0  0  0  0  0  0  0  0  0  0  0
   72.1021   44.1492   57.7732 F   0  0  0  0  0  0  0  0  0  0  0  0
   71.3403   38.6867   58.7739 C   0  0  0  0  0  0  0  0  0  0  0  0
   71.8789   37.6154   58.1011 C   0  0  0  0  0  0  0  0  0  0  0  0
   71.4350   36.4440   58.7001 C   0  0  0  0  0  0  0  0  0  0  0  0
   70.6303   36.8676   59.7333 C   0  0  0  0  0  0  0  0  0  0  0  0
   70.6095   38.1809   59.7300 O   0  0  0  0  0  0  0  0  0  0  0  0
   68.2313   44.8321   56.1911 N   0  0  0  0  0  0  0  0  0  0  0  0
   68.6260   46.5232   56.0105 S   0  0  0  0  0  0  0  0  0  0  0  0
   67.5776   47.3906   56.5962 O   0  0  0  0  0  0  0  0  0  0  0  0
   69.9278   46.8141   56.7077 O   0  0  0  0  0  0  0  0  0  0  0  0
   68.7670   46.9063   54.3148 C   0  0  0  0  0  0  0  0  0  0  0  0
   68.1967   46.0654   53.3986 C   0  0  0  0  0  0  0  0  0  0  0  0
   68.2671   46.3061   52.0423 C   0  0  0  0  0  0  0  0  0  0  0  0
   68.9250   47.4226   51.5571 C   0  0  0  0  0  0  0  0  0  0  0  0
   69.5001   48.2696   52.4900 C   0  0  0  0  0  0  0  0  0  0  0  0
   69.4266   48.0233   53.8424 C   0  0  0  0  0  0  0  0  0  0  0  0
  1  2  2  0
  2  3  1  0
  2  4  1  0
  3 16  1  0
 16 17  1  0
 17 18  2  0
 17 19  2  0
 17 20  1  0
 20 21  2  0
 20 25  1  0
 21 22  1  0
 22 23  2  0
 23 24  1  0
 24 25  2  0
  4  5  2  0
  4  9  1  0
  5  6  1  0
  6 11  1  0
  6  7  2  0
 11 12  2  0
 11 15  1  0
 12 13  1  0
 13 14  2  0
 14 15  1  0
  7  8  1  0
  8  9  2  0
  9 10  1  0
M  END
>  <minimizedAffinity>  (282) 
-8.53077

$$$$
data/reference_output_2/data/smiles/111835.pdb
     RDKit          3D

 29 34  0  0  0  0  0  0  0  0999 V2000
   70.4634   52.4121   57.1569 C   0  0  0  0  0  0  0  0  0  0  0  0
   69.8345   51.3015   57.6214 C   0  0  0  0  0  0  0  0  0  0  0  0
   70.7852   50.6538   58.5302 C   0  0  0  0  0  0  0  0  0  0  0  0
   71.3022   49.4892   57.7661 N   0  0  1  0  0  0  0  0  0  0  0  0
   72.6537   49.1941   58.3658 C   0  0  0  0  0  0  0  0  0  0  0  0
   70.4843   48.3182   58.1324 C   0  0  0  0  0  0  0  0  0  0  0  0
   70.0975   47.5235   56.9281 C   0  0  0  0  0  0  0  0  0  0  0  0
   69.0661   48.2906   56.0900 C   0  0  2  0  0  0  0  0  0  0  0  0
   67.9231   48.5463   57.0427 C   0  0  0  0  0  0  0  0  0  0  0  0
   67.1150   47.6474   57.1667 O   0  0  0  0  0  0  0  0  0  0  0  0
   67.7728   49.8351   57.8038 C   0  0  0  0  0  0  0  0  0  0  0  0
   68.5063   50.9512   57.1880 C   0  0  2  0  0  0  0  0  0  0  0  0
   68.5386   50.6602   55.6692 C   0  0  1  0  0  0  0  0  0  0  0  0
   68.8836   51.8580   54.8552 C   0  0  2  0  0  0  0  0  0  0  0  0
   70.1068   51.6655   53.9833 C   0  0  0  0  0  0  0  0  0  0  0  0
   69.8820   50.3868   53.2096 C   0  0  0  0  0  0  0  0  0  0  0  0
   70.0407   50.2642   51.9931 O   0  0  0  0  0  0  0  0  0  0  0  0
   69.4562   49.2798   54.0095 N   0  0  0  0  0  0  0  0  0  0  0  0
   68.9468   48.0009   53.7707 C   0  0  0  0  0  0  0  0  0  0  0  0
   68.7007   47.3827   52.5625 C   0  0  0  0  0  0  0  0  0  0  0  0
   68.1698   46.1105   52.5321 C   0  0  0  0  0  0  0  0  0  0  0  0
   67.8947   45.4778   53.7162 C   0  0  0  0  0  0  0  0  0  0  0  0
   68.1488   46.1108   54.9083 C   0  0  0  0  0  0  0  0  0  0  0  0
   68.6792   47.3836   54.9802 C   0  0  0  0  0  0  0  0  0  0  0  0
   69.5524   49.5177   55.4502 C   0  0  2  0  0  0  0  0  0  0  0  0
   68.8486   53.0390   55.5413 O   0  0  0  0  0  0  0  0  0  0  0  0
   69.9744   53.4218   56.2037 C   0  0  0  0  0  0  0  0  0  0  0  0
   72.5038   53.6622   57.0324 C   0  0  0  0  0  0  0  0  0  0  0  0
   71.7331   52.6290   57.6404 O   0  0  0  0  0  0  0  0  0  0  0  0
 28 29  1  0
 29  1  1  0
  1  2  2  0
  1 27  1  0
  2  3  1  0
  2 12  1  0
  3  4  1  0
  4  5  1  1
  4  6  1  0
  6  7  1  0
  7  8  1  0
  8  9  1  0
  8 24  1  6
  8 25  1  0
  9 10  2  0
  9 11  1  0
 12 11  1  1
 12 13  1  0
 13 14  1  6
 13 25  1  0
 14 15  1  1
 14 26  1  0
 15 16  1  0
 16 17  2  0
 16 18  1  0
 18 19  1  0
 25 18  1  6
 19 20  1  0
 19 24  2  0
 20 21  2  0
 21 22  1  0
 22 23  2  0
 23 24  1  0
 26 27  1  0
M  CHG  1   4   1
M  END
>  <minimizedAffinity>  (283) 
-8.59704

$$$$
data/reference_output_2/data/smiles/111889.pdb
     RDKit          3D

 25 27  0  0  0  0  0  0  0  0999 V2000
   67.6066   41.9299   56.3443 O   0  0  0  0  0  0  0  0  0  0  0  0
   68.4275   42.5360   57.1125 C   0  0  0  0  0  0  0  0  0  0  0  0
   68.8357   43.8181   56.7044 N   0  0  0  0  0  0  0  0  0  0  0  0
   68.1211   44.5742   55.9730 N   0  0  0  0  0  0  0  0  0  0  0  0
   68.5915   45.8619   55.5938 C   0  0  0  0  0  0  0  0  0  0  0  0
   69.0821   46.8745   56.3936 C   0  0  0  0  0  0  0  0  0  0  0  0
   69.1925   46.7677   57.7729 O   0  0  0  0  0  0  0  0  0  0  0  0
   69.4175   47.9289   55.6296 N   0  0  0  0  0  0  0  0  0  0  0  0
   69.1633   47.6528   54.3292 C   0  0  0  0  0  0  0  0  0  0  0  0
   69.3150   48.3617   53.1521 C   0  0  0  0  0  0  0  0  0  0  0  0
   68.9664   47.8262   51.9249 C   0  0  0  0  0  0  0  0  0  0  0  0
   68.4519   46.5460   51.8770 C   0  0  0  0  0  0  0  0  0  0  0  0
   68.3074   45.8528   53.0604 C   0  0  0  0  0  0  0  0  0  0  0  0
   68.6491   46.3675   54.2982 C   0  0  0  0  0  0  0  0  0  0  0  0
   68.8572   41.8443   58.3301 C   0  0  0  0  0  0  0  0  0  0  0  0
   69.2567   40.4804   58.0370 N   0  0  0  0  0  0  0  0  0  0  0  0
   70.2668   39.8030   58.7707 C   0  0  0  0  0  0  0  0  0  0  0  0
   70.8333   40.4032   59.7062 O   0  0  0  0  0  0  0  0  0  0  0  0
   70.6255   38.4198   58.4227 C   0  0  0  0  0  0  0  0  0  0  0  0
   71.8614   38.0268   58.2497 C   0  0  0  0  0  0  0  0  0  0  0  0
   72.2004   36.6358   57.9008 C   0  0  0  0  0  0  0  0  0  0  0  0
   72.1127   35.5449   58.7399 C   0  0  0  0  0  0  0  0  0  0  0  0
   72.5206   34.4415   58.0273 C   0  0  0  0  0  0  0  0  0  0  0  0
   72.8453   34.8958   56.7706 C   0  0  0  0  0  0  0  0  0  0  0  0
   72.6396   36.1852   56.7533 O   0  0  0  0  0  0  0  0  0  0  0  0
  1  2  2  0
  2 15  1  0
  2  3  1  0
 15 16  1  0
 16 17  1  0
 17 18  2  0
 17 19  1  0
 19 20  2  0
 20 21  1  0
 21 22  2  0
 21 25  1  0
 22 23  1  0
 23 24  2  0
 24 25  1  0
  3  4  2  0
  4  5  1  0
  5  6  2  0
  5 14  1  0
  6  7  1  0
  6  8  1  0
  8  9  1  0
  9 10  1  0
  9 14  2  0
 10 11  2  0
 11 12  1  0
 12 13  2  0
 13 14  1  0
M  END
>  <minimizedAffinity>  (284) 
-9.10044

$$$$
data/reference_output_2/data/smiles/111987.pdb
     RDKit          3D

 30 33  0  0  0  0  0  0  0  0999 V2000
   73.2347   42.2700   58.3625 C   0  0  0  0  0  0  0  0  0  0  0  0
   71.8096   42.4110   58.0648 N   0  0  0  0  0  0  0  0  0  0  0  0
   71.2821   43.6034   57.7427 C   0  0  0  0  0  0  0  0  0  0  0  0
   69.9156   43.7779   57.4503 C   0  0  0  0  0  0  0  0  0  0  0  0
   69.1770   42.6313   57.5237 C   0  0  0  0  0  0  0  0  0  0  0  0
   67.9678   42.6712   57.2859 O   0  0  0  0  0  0  0  0  0  0  0  0
   69.7425   41.3954   57.8606 C   0  0  0  0  0  0  0  0  0  0  0  0
   68.9768   40.2538   57.9288 C   0  0  0  0  0  0  0  0  0  0  0  0
   67.6573   40.3627   57.6570 F   0  0  0  0  0  0  0  0  0  0  0  0
   69.5383   39.0180   58.2646 C   0  0  0  0  0  0  0  0  0  0  0  0
   70.8755   38.8809   58.5440 C   0  0  0  0  0  0  0  0  0  0  0  0
   71.6334   40.0617   58.4689 C   0  0  0  0  0  0  0  0  0  0  0  0
   71.0824   41.2822   58.1372 C   0  0  0  0  0  0  0  0  0  0  0  0
   71.5155   37.6665   58.8967 N   0  0  0  0  0  0  0  0  0  0  0  0
   71.5141   37.1574   60.2379 C   0  0  0  0  0  0  0  0  0  0  0  0
   70.7957   35.7985   60.1730 C   0  0  0  0  0  0  0  0  0  0  0  0
   71.1048   35.0901   59.0402 O   0  0  0  0  0  0  0  0  0  0  0  0
   72.3302   35.4494   58.4845 C   0  0  0  0  0  0  0  0  0  0  0  0
   72.2175   36.8466   57.9145 C   0  0  0  0  0  0  0  0  0  0  0  0
   69.4459   45.1061   57.1133 C   0  0  0  0  0  0  0  0  0  0  0  0
   69.7628   46.1018   57.8725 O   0  0  0  0  0  0  0  0  0  0  0  0
   68.6556   45.4461   56.0152 N   0  0  0  0  0  0  0  0  0  0  0  0
   68.2080   46.8240   55.7160 C   0  0  0  0  0  0  0  0  0  0  0  0
   68.7899   47.2412   54.4161 C   0  0  0  0  0  0  0  0  0  0  0  0
   68.6290   46.5743   53.2292 C   0  0  0  0  0  0  0  0  0  0  0  0
   69.2018   47.0480   52.0537 C   0  0  0  0  0  0  0  0  0  0  0  0
   69.9528   48.1979   52.0217 C   0  0  0  0  0  0  0  0  0  0  0  0
   70.5191   48.6748   50.8878 F   0  0  0  0  0  0  0  0  0  0  0  0
   70.1262   48.8780   53.1952 C   0  0  0  0  0  0  0  0  0  0  0  0
   69.5556   48.4035   54.3540 C   0  0  0  0  0  0  0  0  0  0  0  0
  1  2  1  0
  2  3  1  0
  2 13  1  0
  3  4  2  0
  4 20  1  0
  4  5  1  0
 20 21  2  0
 20 22  1  0
 22 23  1  0
 23 24  1  0
 24 25  2  0
 24 30  1  0
 25 26  1  0
 26 27  2  0
 27 28  1  0
 27 29  1  0
 29 30  2  0
  5  6  2  0
  5  7  1  0
  7  8  1  0
  7 13  2  0
  8  9  1  0
  8 10  2  0
 10 11  1  0
 11 14  1  0
 11 12  2  0
 14 15  1  0
 14 19  1  0
 15 16  1  0
 16 17  1  0
 17 18  1  0
 18 19  1  0
 12 13  1  0
M  END
>  <minimizedAffinity>  (285) 
-8.63465

$$$$
data/reference_output_2/data/smiles/112226.pdb
     RDKit          3D

 26 28  0  0  0  0  0  0  0  0999 V2000
   70.4089   43.9849   58.5150 O   0  0  0  0  0  0  0  0  0  0  0  0
   69.5585   43.8491   57.5790 C   0  0  0  0  0  0  0  0  0  0  0  0
   69.1791   45.0125   56.8893 N   0  0  0  0  0  0  0  0  0  0  0  0
   69.0347   42.5219   57.2783 C   0  0  0  0  0  0  0  0  0  0  0  0
   68.1019   42.2787   56.2990 C   0  0  0  0  0  0  0  0  0  0  0  0
   67.6094   41.0012   56.0215 C   0  0  0  0  0  0  0  0  0  0  0  0
   66.6835   40.8137   55.0384 F   0  0  0  0  0  0  0  0  0  0  0  0
   68.0897   39.9613   56.7698 C   0  0  0  0  0  0  0  0  0  0  0  0
   69.0400   40.1541   57.7785 C   0  0  0  0  0  0  0  0  0  0  0  0
   69.4915   41.4255   58.0109 C   0  0  0  0  0  0  0  0  0  0  0  0
   69.5200   38.9877   58.5507 C   0  0  0  0  0  0  0  0  0  0  0  0
   70.7433   38.4303   58.3503 C   0  0  0  0  0  0  0  0  0  0  0  0
   71.1534   37.3488   59.0863 C   0  0  0  0  0  0  0  0  0  0  0  0
   70.2982   36.8381   60.0387 C   0  0  0  0  0  0  0  0  0  0  0  0
   69.0687   37.3959   60.2435 C   0  0  0  0  0  0  0  0  0  0  0  0
   68.7134   38.4493   59.4997 N   0  0  0  0  0  0  0  0  0  0  0  0
   69.7026   46.2650   57.2072 N   0  0  0  0  0  0  0  0  0  0  0  0
   68.8084   47.5371   56.4422 S   0  0  0  0  0  0  0  0  0  0  0  0
   69.5829   48.8097   56.6487 O   0  0  0  0  0  0  0  0  0  0  0  0
   67.4368   47.6707   57.0305 O   0  0  0  0  0  0  0  0  0  0  0  0
   68.7119   47.2164   54.7258 C   0  0  0  0  0  0  0  0  0  0  0  0
   67.9976   46.1527   54.2202 C   0  0  0  0  0  0  0  0  0  0  0  0
   67.9355   45.9215   52.8652 C   0  0  0  0  0  0  0  0  0  0  0  0
   68.6053   46.7803   52.0284 C   0  0  0  0  0  0  0  0  0  0  0  0
   69.3262   47.8506   52.5159 C   0  0  0  0  0  0  0  0  0  0  0  0
   69.3730   48.0617   53.8631 C   0  0  0  0  0  0  0  0  0  0  0  0
  1  2  2  0
  2  3  1  0
  2  4  1  0
  3 17  1  0
 17 18  1  0
 18 19  2  0
 18 20  2  0
 18 21  1  0
 21 22  2  0
 21 26  1  0
 22 23  1  0
 23 24  2  0
 24 25  1  0
 25 26  2  0
  4  5  2  0
  4 10  1  0
  5  6  1  0
  6  7  1  0
  6  8  2  0
  8  9  1  0
  9 11  1  0
  9 10  2  0
 11 12  2  0
 11 16  1  0
 12 13  1  0
 13 14  2  0
 14 15  1  0
 15 16  2  0
M  END
>  <minimizedAffinity>  (286) 
-8.98267

$$$$
data/reference_output_2/data/smiles/112240.pdb
     RDKit          3D

 29 31  0  0  0  0  0  0  0  0999 V2000
   69.7801   46.1673   57.2110 C   0  0  0  0  0  0  0  0  0  0  0  0
   70.9527   46.0396   57.9244 C   0  0  0  0  0  0  0  0  0  0  0  0
   71.5410   44.8060   58.1456 C   0  0  0  0  0  0  0  0  0  0  0  0
   70.9828   43.6384   57.6637 C   0  0  0  0  0  0  0  0  0  0  0  0
   69.8067   43.7834   56.9502 C   0  0  0  0  0  0  0  0  0  0  0  0
   69.2146   45.0072   56.7244 C   0  0  0  0  0  0  0  0  0  0  0  0
   69.0310   47.7299   56.9271 S   0  0  0  0  0  0  0  0  0  0  0  0
   69.4877   48.6949   58.0129 O   0  0  0  0  0  0  0  0  0  0  0  0
   67.5580   47.5547   57.1192 O   0  0  0  0  0  0  0  0  0  0  0  0
   70.1626   49.5945   55.2954 C   0  0  0  0  0  0  0  0  0  0  0  0
   69.4322   48.3639   55.3992 N   0  0  0  0  0  0  0  0  0  0  0  0
   69.0416   47.6700   54.2261 C   0  0  0  0  0  0  0  0  0  0  0  0
   69.5938   47.9176   52.9883 C   0  0  0  0  0  0  0  0  0  0  0  0
   69.2015   47.2328   51.8577 C   0  0  0  0  0  0  0  0  0  0  0  0
   68.2221   46.2606   51.9424 C   0  0  0  0  0  0  0  0  0  0  0  0
   67.6567   45.9980   53.1729 C   0  0  0  0  0  0  0  0  0  0  0  0
   68.0563   46.6875   54.2964 C   0  0  0  0  0  0  0  0  0  0  0  0
   71.5815   42.3234   57.8823 C   0  0  0  0  0  0  0  0  0  0  0  0
   72.8292   42.2311   57.7694 O   0  0  0  0  0  0  0  0  0  0  0  0
   70.8661   41.1537   58.2087 N   0  0  0  0  0  0  0  0  0  0  0  0
   71.4510   39.8895   58.4172 N   0  0  0  0  0  0  0  0  0  0  0  0
   70.6841   38.7005   58.4290 C   0  0  0  0  0  0  0  0  0  0  0  0
   69.4294   38.8688   58.2383 O   0  0  0  0  0  0  0  0  0  0  0  0
   71.1742   37.3558   58.6320 C   0  0  0  0  0  0  0  0  0  0  0  0
   72.1599   36.8551   57.8126 C   0  0  0  0  0  0  0  0  0  0  0  0
   72.6579   35.5657   57.9763 C   0  0  0  0  0  0  0  0  0  0  0  0
   72.1671   34.7594   58.9725 C   0  0  0  0  0  0  0  0  0  0  0  0
   71.1802   35.2350   59.8062 C   0  0  0  0  0  0  0  0  0  0  0  0
   70.7132   36.5118   59.6162 C   0  0  0  0  0  0  0  0  0  0  0  0
 10 11  1  0
 11 12  1  0
 11  7  1  0
 12 13  2  0
 12 17  1  0
 13 14  1  0
 14 15  2  0
 15 16  1  0
 16 17  2  0
  7  8  2  0
  7  9  2  0
  7  1  1  0
  1  2  2  0
  1  6  1  0
  2  3  1  0
  3  4  2  0
  4 18  1  0
  4  5  1  0
 18 19  2  0
 18 20  1  0
 20 21  1  0
 21 22  1  0
 22 23  2  0
 22 24  1  0
 24 25  2  0
 24 29  1  0
 25 26  1  0
 26 27  2  0
 27 28  1  0
 28 29  2  0
  5  6  2  0
M  END
>  <minimizedAffinity>  (287) 
-8.79129

$$$$
data/reference_output_2/data/smiles/112256.pdb
     RDKit          3D

 31 34  0  0  0  0  0  0  0  0999 V2000
   71.3634   46.7828   58.8788 C   0  0  0  0  0  0  0  0  0  0  0  0
   70.4345   47.4713   58.1374 C   0  0  0  0  0  0  0  0  0  0  0  0
   69.5899   46.8609   57.1963 C   0  0  0  0  0  0  0  0  0  0  0  0
   69.7199   45.5124   57.0291 C   0  0  0  0  0  0  0  0  0  0  0  0
   70.6578   44.7869   57.7702 C   0  0  0  0  0  0  0  0  0  0  0  0
   71.4668   45.4195   58.6809 C   0  0  0  0  0  0  0  0  0  0  0  0
   72.3918   44.7506   59.4213 F   0  0  0  0  0  0  0  0  0  0  0  0
   71.8547   47.4520   61.0424 O   0  0  0  0  0  0  0  0  0  0  0  0
   72.2234   47.4768   59.8484 C   0  0  0  0  0  0  0  0  0  0  0  0
   73.4132   48.1497   59.4946 N   0  0  0  0  0  0  0  0  0  0  0  0
   74.0979   48.7525   60.5794 C   0  0  0  0  0  0  0  0  0  0  0  0
   75.1561   49.7152   60.2878 C   0  0  0  0  0  0  0  0  0  0  0  0
   75.3197   50.1438   58.8662 C   0  0  0  0  0  0  0  0  0  0  0  0
   75.8565   49.1714   57.9943 N   0  0  1  0  0  0  0  0  0  0  0  0
   75.1956   47.9279   57.9184 C   0  0  0  0  0  0  0  0  0  0  0  0
   73.7290   48.1108   58.0855 C   0  0  0  0  0  0  0  0  0  0  0  0
   76.4040   49.7085   56.8050 C   0  0  0  0  0  0  0  0  0  0  0  0
   75.4347   50.1937   55.7840 C   0  0  0  0  0  0  0  0  0  0  0  0
   75.4269   49.4197   54.6262 O   0  0  0  0  0  0  0  0  0  0  0  0
   68.6199   47.7322   56.4906 C   0  0  0  0  0  0  0  0  0  0  0  0
   69.1497   48.0358   55.1371 C   0  0  0  0  0  0  0  0  0  0  0  0
   70.1026   48.9968   55.0003 N   0  0  0  0  0  0  0  0  0  0  0  0
   70.6412   49.2700   53.8317 N   0  0  0  0  0  0  0  0  0  0  0  0
   70.2828   48.6198   52.7098 C   0  0  0  0  0  0  0  0  0  0  0  0
   70.8374   48.9305   51.6299 O   0  0  0  0  0  0  0  0  0  0  0  0
   69.3224   47.6304   52.7568 C   0  0  0  0  0  0  0  0  0  0  0  0
   68.9149   46.9480   51.6330 C   0  0  0  0  0  0  0  0  0  0  0  0
   67.9450   45.9770   51.7007 C   0  0  0  0  0  0  0  0  0  0  0  0
   67.3744   45.6879   52.9177 C   0  0  0  0  0  0  0  0  0  0  0  0
   67.7953   46.3821   54.0408 C   0  0  0  0  0  0  0  0  0  0  0  0
   68.7689   47.3638   54.0135 C   0  0  0  0  0  0  0  0  0  0  0  0
  8  9  2  0
  9  1  1  0
  9 10  1  0
  1  2  2  0
  1  6  1  0
  2  3  1  0
  3 20  1  0
  3  4  2  0
 20 21  1  0
 21 22  2  0
 21 31  1  0
 22 23  1  0
 23 24  1  0
 24 25  2  0
 24 26  1  0
 26 27  1  0
 26 31  2  0
 27 28  2  0
 28 29  1  0
 29 30  2  0
 30 31  1  0
  4  5  1  0
  5  6  2  0
  6  7  1  0
 10 11  1  0
 10 16  1  0
 11 12  1  0
 12 13  1  0
 13 14  1  0
 14 17  1  6
 14 15  1  0
 17 18  1  0
 18 19  1  0
 15 16  1  0
M  CHG  1  14   1
M  END
>  <minimizedAffinity>  (288) 
-9.74793

$$$$
data/reference_output_2/data/smiles/112298.pdb
     RDKit          3D

 23 24  0  0  0  0  0  0  0  0999 V2000
   67.3994   42.0669   56.4811 C   0  0  0  0  0  0  0  0  0  0  0  0
   67.1762   41.4679   55.3930 O   0  0  0  0  0  0  0  0  0  0  0  0
   67.7922   43.4347   56.4876 N   0  0  0  0  0  0  0  0  0  0  0  0
   67.9115   44.0556   55.2334 N   0  0  0  0  0  0  0  0  0  0  0  0
   68.1683   45.4260   55.0585 C   0  0  0  0  0  0  0  0  0  0  0  0
   68.2987   46.1286   56.0939 O   0  0  0  0  0  0  0  0  0  0  0  0
   68.2935   46.0738   53.7540 C   0  0  0  0  0  0  0  0  0  0  0  0
   67.6549   45.6033   52.6272 C   0  0  0  0  0  0  0  0  0  0  0  0
   67.8233   46.2777   51.4200 C   0  0  0  0  0  0  0  0  0  0  0  0
   68.5900   47.3735   51.3199 N   0  0  0  0  0  0  0  0  0  0  0  0
   69.2341   47.8678   52.4034 C   0  0  0  0  0  0  0  0  0  0  0  0
   69.0689   47.2036   53.5967 C   0  0  0  0  0  0  0  0  0  0  0  0
   68.3027   40.2140   57.7300 C   0  0  0  0  0  0  0  0  0  0  0  0
   67.2339   41.2831   57.7564 C   0  0  1  0  0  0  0  0  0  0  0  0
   67.3634   42.1730   58.8091 O   0  0  0  0  0  0  0  0  0  0  0  0
   67.0934   41.9537   60.1309 C   0  0  0  0  0  0  0  0  0  0  0  0
   65.8901   41.4844   60.6238 C   0  0  0  0  0  0  0  0  0  0  0  0
   65.6826   41.2828   61.9828 C   0  0  0  0  0  0  0  0  0  0  0  0
   66.6855   41.5472   62.8915 C   0  0  0  0  0  0  0  0  0  0  0  0
   66.4055   41.2856   64.6086 Cl  0  0  0  0  0  0  0  0  0  0  0  0
   67.8931   42.0156   62.4203 C   0  0  0  0  0  0  0  0  0  0  0  0
   68.0857   42.2129   61.0556 C   0  0  0  0  0  0  0  0  0  0  0  0
   69.6418   42.8119   60.4909 Cl  0  0  0  0  0  0  0  0  0  0  0  0
 14 13  1  1
 14 15  1  0
 14  1  1  0
 15 16  1  0
 16 17  2  0
 16 22  1  0
 17 18  1  0
 18 19  2  0
 19 20  1  0
 19 21  1  0
 21 22  2  0
 22 23  1  0
  1  2  2  0
  1  3  1  0
  3  4  1  0
  4  5  1  0
  5  6  2  0
  5  7  1  0
  7  8  2  0
  7 12  1  0
  8  9  1  0
  9 10  2  0
 10 11  1  0
 11 12  2  0
M  END
>  <minimizedAffinity>  (289) 
-8.50941

$$$$
data/reference_output_2/data/smiles/112350.pdb
     RDKit          3D

 27 30  0  0  0  0  0  0  0  0999 V2000
   69.5641   43.1247   57.3354 C   0  0  0  0  0  0  0  0  0  0  0  0
   68.3396   42.6928   56.6229 C   0  0  0  0  0  0  0  0  0  0  0  0
   67.6819   41.4802   56.8103 C   0  0  0  0  0  0  0  0  0  0  0  0
   66.6140   41.5367   55.9363 C   0  0  0  0  0  0  0  0  0  0  0  0
   66.6774   42.7170   55.2987 N   0  0  0  0  0  0  0  0  0  0  0  0
   67.7154   43.4314   55.7015 N   0  0  0  0  0  0  0  0  0  0  0  0
   68.1072   44.7347   55.2510 C   0  0  0  0  0  0  0  0  0  0  0  0
   68.1069   45.0187   53.9341 N   0  0  0  0  0  0  0  0  0  0  0  0
   68.4707   46.2414   53.4543 C   0  0  0  0  0  0  0  0  0  0  0  0
   68.8533   47.2344   54.3240 C   0  0  0  0  0  0  0  0  0  0  0  0
   68.8522   46.9414   55.6689 C   0  0  0  0  0  0  0  0  0  0  0  0
   69.2002   47.8368   56.4978 O   0  0  0  0  0  0  0  0  0  0  0  0
   68.4820   45.7166   56.0705 N   0  0  0  0  0  0  0  0  0  0  0  0
   69.2111   48.4730   53.5576 C   0  0  0  0  0  0  0  0  0  0  0  0
   69.6598   47.8287   52.2323 C   0  0  0  0  0  0  0  0  0  0  0  0
   68.5524   46.8103   52.0932 C   0  0  0  0  0  0  0  0  0  0  0  0
   68.0724   40.4248   57.7329 C   0  0  0  0  0  0  0  0  0  0  0  0
   68.9866   39.6393   57.3935 O   0  0  0  0  0  0  0  0  0  0  0  0
   67.4615   40.2532   58.9976 N   0  0  0  0  0  0  0  0  0  0  0  0
   66.3943   41.1088   59.4842 C   0  0  0  0  0  0  0  0  0  0  0  0
   66.1737   40.7476   60.9280 C   0  0  0  0  0  0  0  0  0  0  0  0
   66.6854   39.3132   60.9922 C   0  0  2  0  0  0  0  0  0  0  0  0
   67.7814   39.2450   59.9684 C   0  0  0  0  0  0  0  0  0  0  0  0
   65.5517   38.3863   60.5888 C   0  0  0  0  0  0  0  0  0  0  0  0
   65.8475   37.7759   59.3998 F   0  0  0  0  0  0  0  0  0  0  0  0
   65.4588   37.4157   61.5762 F   0  0  0  0  0  0  0  0  0  0  0  0
   64.3841   39.1235   60.5220 F   0  0  0  0  0  0  0  0  0  0  0  0
  1  2  1  0
  2  3  2  0
  2  6  1  0
  3 17  1  0
  3  4  1  0
 17 18  2  0
 17 19  1  0
 19 20  1  0
 19 23  1  0
 20 21  1  0
 21 22  1  0
 22 24  1  6
 22 23  1  0
 24 25  1  0
 24 26  1  0
 24 27  1  0
  4  5  2  0
  5  6  1  0
  6  7  1  0
  7  8  2  0
  7 13  1  0
  8  9  1  0
  9 10  2  0
  9 16  1  0
 10 11  1  0
 10 14  1  0
 11 12  2  0
 11 13  1  0
 14 15  1  0
 15 16  1  0
M  END
>  <minimizedAffinity>  (290) 
-8.53312

$$$$
data/reference_output_2/data/smiles/112603.pdb
     RDKit          3D

 23 24  0  0  0  0  0  0  0  0999 V2000
   67.8119   41.8802   56.8178 C   0  0  0  0  0  0  0  0  0  0  0  0
   67.9130   41.1887   55.7413 O   0  0  0  0  0  0  0  0  0  0  0  0
   67.7299   43.2764   56.5961 N   0  0  0  0  0  0  0  0  0  0  0  0
   67.7532   43.8415   55.2971 N   0  0  0  0  0  0  0  0  0  0  0  0
   68.1431   45.1866   55.0647 C   0  0  0  0  0  0  0  0  0  0  0  0
   68.4663   45.8362   56.1086 O   0  0  0  0  0  0  0  0  0  0  0  0
   68.1874   45.8169   53.7664 C   0  0  0  0  0  0  0  0  0  0  0  0
   67.5122   45.3520   52.6665 C   0  0  0  0  0  0  0  0  0  0  0  0
   67.6041   46.0216   51.4339 C   0  0  0  0  0  0  0  0  0  0  0  0
   68.3484   47.1174   51.3163 N   0  0  0  0  0  0  0  0  0  0  0  0
   69.0231   47.6023   52.3680 C   0  0  0  0  0  0  0  0  0  0  0  0
   68.9455   46.9520   53.6059 C   0  0  0  0  0  0  0  0  0  0  0  0
   67.7961   41.1614   58.0757 C   0  0  0  0  0  0  0  0  0  0  0  0
   68.9913   40.7820   58.6418 O   0  0  0  0  0  0  0  0  0  0  0  0
   72.2030   37.1695   57.9662 C   0  0  0  0  0  0  0  0  0  0  0  0
   70.9922   37.7189   58.6488 C   0  0  0  0  0  0  0  0  0  0  0  0
   70.5607   38.9865   58.3275 C   0  0  0  0  0  0  0  0  0  0  0  0
   69.4481   39.5225   58.9393 C   0  0  0  0  0  0  0  0  0  0  0  0
   68.8056   38.7143   59.8798 C   0  0  0  0  0  0  0  0  0  0  0  0
   69.2397   37.4523   60.1970 C   0  0  0  0  0  0  0  0  0  0  0  0
   68.4955   36.6618   61.2116 C   0  0  0  0  0  0  0  0  0  0  0  0
   70.3539   36.9267   59.5792 C   0  0  0  0  0  0  0  0  0  0  0  0
   70.9250   35.3121   59.9709 Cl  0  0  0  0  0  0  0  0  0  0  0  0
 15 16  1  0
 16 17  2  0
 16 22  1  0
 17 18  1  0
 18 14  1  0
 18 19  2  0
 14 13  1  0
 13  1  1  0
  1  2  2  0
  1  3  1  0
  3  4  1  0
  4  5  1  0
  5  6  2  0
  5  7  1  0
  7  8  2  0
  7 12  1  0
  8  9  1  0
  9 10  2  0
 10 11  1  0
 11 12  2  0
 19 20  1  0
 20 21  1  0
 20 22  2  0
 22 23  1  0
M  END
>  <minimizedAffinity>  (291) 
-8.64721

$$$$
data/reference_output_2/data/smiles/112651.pdb
     RDKit          3D

 27 29  0  0  0  0  0  0  0  0999 V2000
   70.2280   43.6239   58.7865 S   0  0  0  0  0  0  0  0  0  0  0  0
   71.5278   44.2096   59.3935 O   0  0  0  0  0  0  0  0  0  0  0  0
   69.1906   43.8581   59.8664 O   0  0  0  0  0  0  0  0  0  0  0  0
   71.2027   39.1760   58.4172 C   0  0  0  0  0  0  0  0  0  0  0  0
   69.9272   39.6367   58.1569 C   0  0  0  0  0  0  0  0  0  0  0  0
   69.6308   40.9837   58.2688 C   0  0  0  0  0  0  0  0  0  0  0  0
   70.5636   41.9261   58.6365 C   0  0  0  0  0  0  0  0  0  0  0  0
   71.8540   41.4559   58.8999 C   0  0  0  0  0  0  0  0  0  0  0  0
   72.1432   40.1143   58.7870 C   0  0  0  0  0  0  0  0  0  0  0  0
   73.1692   34.9350   56.6845 C   0  0  0  0  0  0  0  0  0  0  0  0
   72.3966   35.9060   57.5401 C   0  0  0  0  0  0  0  0  0  0  0  0
   71.6646   35.5890   58.6648 C   0  0  0  0  0  0  0  0  0  0  0  0
   71.1377   36.7809   59.1144 C   0  0  0  0  0  0  0  0  0  0  0  0
   70.2629   36.9743   60.3137 C   0  0  0  0  0  0  0  0  0  0  0  0
   71.5262   37.7861   58.3066 N   0  0  0  0  0  0  0  0  0  0  0  0
   72.2786   37.2272   57.3748 N   0  0  0  0  0  0  0  0  0  0  0  0
   69.8912   44.4708   57.3691 N   0  0  0  0  0  0  0  0  0  0  0  0
   69.4886   45.7561   57.0732 C   0  0  0  0  0  0  0  0  0  0  0  0
   70.3961   46.9775   57.8160 S   0  0  0  0  0  0  0  0  0  0  0  0
   68.4739   46.2576   56.2759 N   0  0  0  0  0  0  0  0  0  0  0  0
   68.2075   45.8571   54.9296 C   0  0  0  0  0  0  0  0  0  0  0  0
   68.7417   46.7929   53.9257 C   0  0  0  0  0  0  0  0  0  0  0  0
   69.1830   48.0370   54.3010 C   0  0  0  0  0  0  0  0  0  0  0  0
   69.6928   48.9346   53.3626 C   0  0  0  0  0  0  0  0  0  0  0  0
   69.7551   48.5675   52.0307 C   0  0  0  0  0  0  0  0  0  0  0  0
   69.3211   47.3368   51.6490 C   0  0  0  0  0  0  0  0  0  0  0  0
   68.8116   46.4451   52.6018 C   0  0  0  0  0  0  0  0  0  0  0  0
 10 11  1  0
 11 12  1  0
 11 16  2  0
 12 13  2  0
 13 14  1  0
 13 15  1  0
 15  4  1  0
 15 16  1  0
  4  5  2  0
  4  9  1  0
  5  6  1  0
  6  7  2  0
  7  1  1  0
  7  8  1  0
  1  2  2  0
  1  3  2  0
  1 17  1  0
 17 18  1  0
 18 19  2  0
 18 20  1  0
 20 21  1  0
 21 22  1  0
 22 23  2  0
 22 27  1  0
 23 24  1  0
 24 25  2  0
 25 26  1  0
 26 27  2  0
  8  9  2  0
M  END
>  <minimizedAffinity>  (292) 
-8.73634

$$$$
data/reference_output_2/data/smiles/112663.pdb
     RDKit          3D

 29 31  0  0  0  0  0  0  0  0999 V2000
   67.8241   51.4424   57.0436 C   0  0  0  0  0  0  0  0  0  0  0  0
   68.4466   50.1555   57.5349 C   0  0  1  0  0  0  0  0  0  0  0  0
   68.4607   49.2266   56.4224 N   0  0  0  0  0  0  0  0  0  0  0  0
   69.1129   48.1175   56.1923 C   0  0  0  0  0  0  0  0  0  0  0  0
   69.9783   47.5159   57.2096 C   0  0  0  0  0  0  0  0  0  0  0  0
   69.9334   46.1375   57.2050 C   0  0  0  0  0  0  0  0  0  0  0  0
   70.7034   45.3718   58.0531 C   0  0  0  0  0  0  0  0  0  0  0  0
   71.5454   46.0273   58.9374 C   0  0  0  0  0  0  0  0  0  0  0  0
   71.6006   47.4246   58.9597 C   0  0  0  0  0  0  0  0  0  0  0  0
   70.8137   48.1499   58.0965 C   0  0  0  0  0  0  0  0  0  0  0  0
   70.8922   49.5854   58.3045 N   0  0  0  0  0  0  0  0  0  0  0  0
   72.1251   50.0439   58.8739 C   0  0  0  0  0  0  0  0  0  0  0  0
   69.8252   50.4789   57.9965 C   0  0  0  0  0  0  0  0  0  0  0  0
   70.0850   51.6770   58.1338 O   0  0  0  0  0  0  0  0  0  0  0  0
   68.9137   47.4056   54.9616 C   0  0  0  0  0  0  0  0  0  0  0  0
   68.1469   46.2366   54.9997 C   0  0  0  0  0  0  0  0  0  0  0  0
   67.7957   45.5522   53.8643 C   0  0  0  0  0  0  0  0  0  0  0  0
   68.2192   46.0430   52.6546 C   0  0  0  0  0  0  0  0  0  0  0  0
   68.9705   47.1851   52.5799 C   0  0  0  0  0  0  0  0  0  0  0  0
   69.3127   47.8637   53.7549 C   0  0  0  0  0  0  0  0  0  0  0  0
   70.6222   43.9206   57.9986 C   0  0  0  0  0  0  0  0  0  0  0  0
   70.5449   42.7197   57.9717 C   0  0  0  0  0  0  0  0  0  0  0  0
   70.4309   41.2872   57.9500 C   0  0  0  0  0  0  0  0  0  0  0  0
   69.2673   40.6351   58.5687 C   0  0  0  0  0  0  0  0  0  0  0  0
   68.2040   40.0624   57.7316 C   0  0  0  0  0  0  0  0  0  0  0  0
   67.7323   40.8141   56.5676 C   0  0  0  0  0  0  0  0  0  0  0  0
   67.7466   40.2904   55.4188 O   0  0  0  0  0  0  0  0  0  0  0  0
   67.2599   42.1418   56.7592 N   0  0  0  0  0  0  0  0  0  0  0  0
   66.8260   42.8409   55.7098 O   0  0  0  0  0  0  0  0  0  0  0  0
  2  1  1  6
  2  3  1  0
  2 13  1  0
  3  4  2  0
  4 15  1  0
  4  5  1  0
 15 16  2  0
 15 20  1  0
 16 17  1  0
 17 18  2  0
 18 19  1  0
 19 20  2  0
  5  6  2  0
  5 10  1  0
  6  7  1  0
  7 21  1  0
  7  8  2  0
 21 22  3  0
 22 23  1  0
 23 24  1  0
 24 25  1  0
 25 26  1  0
 26 27  2  0
 26 28  1  0
 28 29  1  0
  8  9  1  0
  9 10  2  0
 10 11  1  0
 11 12  1  0
 11 13  1  0
 13 14  2  0
M  END
>  <minimizedAffinity>  (293) 
-8.93775

$$$$
data/reference_output_2/data/smiles/112683.pdb
     RDKit          3D

 30 33  0  0  0  0  0  0  0  0999 V2000
   71.1737   46.4841   58.7643 C   0  0  0  0  0  0  0  0  0  0  0  0
   70.5299   47.4427   58.0256 C   0  0  0  0  0  0  0  0  0  0  0  0
   69.6788   47.1649   56.9430 C   0  0  0  0  0  0  0  0  0  0  0  0
   69.5048   45.8662   56.6349 C   0  0  0  0  0  0  0  0  0  0  0  0
   70.1230   44.8581   57.3387 C   0  0  0  0  0  0  0  0  0  0  0  0
   70.9611   45.1605   58.4074 C   0  0  0  0  0  0  0  0  0  0  0  0
   71.5905   44.2111   59.1296 F   0  0  0  0  0  0  0  0  0  0  0  0
   75.0996   51.4950   59.7215 C   0  0  0  0  0  0  0  0  0  0  0  0
   74.9613   50.4475   58.6776 C   0  0  0  0  0  0  0  0  0  0  0  0
   74.8093   50.8183   57.4916 O   0  0  0  0  0  0  0  0  0  0  0  0
   74.9946   49.0630   58.9652 N   0  0  0  0  0  0  0  0  0  0  0  0
   74.8528   48.1198   57.8897 C   0  0  0  0  0  0  0  0  0  0  0  0
   73.9544   46.9661   58.2471 C   0  0  0  0  0  0  0  0  0  0  0  0
   73.4289   47.0598   59.6112 N   0  0  0  0  0  0  0  0  0  0  0  0
   72.0575   46.8222   59.8630 C   0  0  0  0  0  0  0  0  0  0  0  0
   71.6139   46.9039   61.0196 O   0  0  0  0  0  0  0  0  0  0  0  0
   74.3529   47.3958   60.6490 C   0  0  0  0  0  0  0  0  0  0  0  0
   75.1689   48.6283   60.3376 C   0  0  0  0  0  0  0  0  0  0  0  0
   69.1131   48.3541   56.2570 C   0  0  0  0  0  0  0  0  0  0  0  0
   69.5121   48.3212   54.8379 C   0  0  0  0  0  0  0  0  0  0  0  0
   70.5700   49.0872   54.4210 N   0  0  0  0  0  0  0  0  0  0  0  0
   70.9352   49.1285   53.1632 N   0  0  0  0  0  0  0  0  0  0  0  0
   70.3131   48.4361   52.1928 C   0  0  0  0  0  0  0  0  0  0  0  0
   70.6813   48.4938   51.0006 O   0  0  0  0  0  0  0  0  0  0  0  0
   69.2264   47.6330   52.5396 C   0  0  0  0  0  0  0  0  0  0  0  0
   68.8648   47.6039   53.8537 C   0  0  0  0  0  0  0  0  0  0  0  0
   67.8005   46.7483   54.2258 N   0  0  0  0  0  0  0  0  0  0  0  0
   67.4765   45.6037   53.4406 C   0  0  0  0  0  0  0  0  0  0  0  0
   67.7310   45.7109   51.9880 C   0  0  0  0  0  0  0  0  0  0  0  0
   68.5147   46.8669   51.5059 C   0  0  0  0  0  0  0  0  0  0  0  0
  8  9  1  0
  9 10  2  0
  9 11  1  0
 11 12  1  0
 11 18  1  0
 12 13  1  0
 13 14  1  0
 14 15  1  0
 14 17  1  0
 15 16  2  0
 15  1  1  0
  1  2  2  0
  1  6  1  0
  2  3  1  0
  3 19  1  0
  3  4  2  0
 19 20  1  0
 20 21  2  0
 20 26  1  0
 21 22  1  0
 22 23  1  0
 23 24  2  0
 23 25  1  0
 25 26  2  0
 25 30  1  0
 26 27  1  0
 27 28  1  0
 28 29  1  0
 29 30  1  0
  4  5  1  0
  5  6  2  0
  6  7  1  0
 17 18  1  0
M  END
>  <minimizedAffinity>  (294) 
-8.78122

$$$$
data/reference_output_2/data/smiles/112713.pdb
     RDKit          3D

 24 27  0  0  0  0  0  0  0  0999 V2000
   70.1860   42.1810   57.9029 C   0  0  0  0  0  0  0  0  0  0  0  0
   69.3010   42.7173   57.0432 N   0  0  0  0  0  0  0  0  0  0  0  0
   69.3895   44.0644   57.0173 C   0  0  0  0  0  0  0  0  0  0  0  0
   68.7445   45.0438   56.3426 N   0  0  0  0  0  0  0  0  0  0  0  0
   69.0179   46.3486   56.4922 C   0  0  0  0  0  0  0  0  0  0  0  0
   70.0092   46.6837   57.3818 C   0  0  0  0  0  0  0  0  0  0  0  0
   70.6573   45.6741   58.0610 C   0  0  0  0  0  0  0  0  0  0  0  0
   71.5709   45.9526   58.8834 O   0  0  0  0  0  0  0  0  0  0  0  0
   70.3646   44.3686   57.8937 N   0  0  0  0  0  0  0  0  0  0  0  0
   70.8399   43.2407   58.4227 N   0  0  0  0  0  0  0  0  0  0  0  0
   71.2392   36.6367   59.1632 C   0  0  0  0  0  0  0  0  0  0  0  0
   70.9600   38.0810   58.8345 C   0  0  0  0  0  0  0  0  0  0  0  0
   71.9726   38.9949   58.7069 C   0  0  0  0  0  0  0  0  0  0  0  0
   71.6980   40.3187   58.4043 C   0  0  0  0  0  0  0  0  0  0  0  0
   70.4085   40.7721   58.2199 C   0  0  0  0  0  0  0  0  0  0  0  0
   69.4046   39.8387   58.3520 C   0  0  0  0  0  0  0  0  0  0  0  0
   69.6627   38.5141   58.6536 C   0  0  0  0  0  0  0  0  0  0  0  0
   68.2977   47.4144   55.7419 C   0  0  0  0  0  0  0  0  0  0  0  0
   68.5135   47.2133   54.2686 C   0  0  0  0  0  0  0  0  0  0  0  0
   69.4204   48.0324   53.6252 C   0  0  0  0  0  0  0  0  0  0  0  0
   69.6843   47.9207   52.2766 C   0  0  0  0  0  0  0  0  0  0  0  0
   69.0126   46.9546   51.5555 C   0  0  0  0  0  0  0  0  0  0  0  0
   68.1126   46.1450   52.2047 C   0  0  0  0  0  0  0  0  0  0  0  0
   67.8402   46.2470   53.5560 C   0  0  0  0  0  0  0  0  0  0  0  0
 11 12  1  0
 12 13  2  0
 12 17  1  0
 13 14  1  0
 14 15  2  0
 15  1  1  0
 15 16  1  0
  1  2  1  0
  1 10  2  0
  2  3  2  0
  3  4  1  0
  3  9  1  0
  4  5  1  0
  5 18  1  0
  5  6  2  0
 18 19  1  0
 19 20  2  0
 19 24  1  0
 20 21  1  0
 21 22  2  0
 22 23  1  0
 23 24  2  0
  6  7  1  0
  7  8  2  0
  7  9  1  0
  9 10  1  0
 16 17  2  0
M  END
>  <minimizedAffinity>  (295) 
-8.74097

$$$$
data/reference_output_2/data/smiles/112759.pdb
     RDKit          3D

 28 31  0  0  0  0  0  0  0  0999 V2000
   69.1925   49.6492   55.8455 C   0  0  1  0  0  0  0  0  0  0  0  0
   68.2540   50.4694   56.7300 C   0  0  0  0  0  0  0  0  0  0  0  0
   69.0266   51.7043   57.1963 C   0  0  0  0  0  0  0  0  0  0  0  0
   69.1618   52.5983   55.9774 C   0  0  0  0  0  0  0  0  0  0  0  0
   69.0826   51.7671   54.7144 C   0  0  0  0  0  0  0  0  0  0  0  0
   69.8156   50.5379   54.8970 N   0  0  0  0  0  0  0  0  0  0  0  0
   71.4226   49.5222   56.7246 O   0  0  0  0  0  0  0  0  0  0  0  0
   70.2345   49.0967   56.7511 C   0  0  0  0  0  0  0  0  0  0  0  0
   69.9330   48.0683   57.6815 N   0  0  0  0  0  0  0  0  0  0  0  0
   70.8699   47.4905   58.5769 C   0  0  0  0  0  0  0  0  0  0  0  0
   71.3324   46.1856   58.3934 C   0  0  0  0  0  0  0  0  0  0  0  0
   72.2426   45.6207   59.2605 C   0  0  0  0  0  0  0  0  0  0  0  0
   72.7312   46.3194   60.3430 C   0  0  0  0  0  0  0  0  0  0  0  0
   72.2915   47.6078   60.5480 C   0  0  0  0  0  0  0  0  0  0  0  0
   71.3672   48.1753   59.6617 C   0  0  0  0  0  0  0  0  0  0  0  0
   72.9283   48.0714   61.6813 O   0  0  0  0  0  0  0  0  0  0  0  0
   74.0745   47.2818   61.9326 C   0  0  0  0  0  0  0  0  0  0  0  0
   73.6398   46.0320   61.3781 O   0  0  0  0  0  0  0  0  0  0  0  0
   70.2148   49.7773   53.4183 S   0  0  0  0  0  0  0  0  0  0  0  0
   71.6882   49.4912   53.4114 O   0  0  0  0  0  0  0  0  0  0  0  0
   69.9573   50.7877   52.3129 O   0  0  0  0  0  0  0  0  0  0  0  0
   69.3213   48.3213   53.1330 C   0  0  0  0  0  0  0  0  0  0  0  0
   68.7042   47.6436   54.1544 C   0  0  0  0  0  0  0  0  0  0  0  0
   67.9897   46.4829   53.9375 C   0  0  0  0  0  0  0  0  0  0  0  0
   67.8759   45.9684   52.6755 C   0  0  0  0  0  0  0  0  0  0  0  0
   67.1710   44.8141   52.4245 F   0  0  0  0  0  0  0  0  0  0  0  0
   68.4844   46.6267   51.6322 C   0  0  0  0  0  0  0  0  0  0  0  0
   69.2071   47.8046   51.8633 C   0  0  0  0  0  0  0  0  0  0  0  0
  7  8  2  0
  8  9  1  0
  1  8  1  1
  9 10  1  0
 10 11  2  0
 10 15  1  0
 11 12  1  0
 12 13  2  0
 13 14  1  0
 13 18  1  0
 14 15  2  0
 14 16  1  0
 16 17  1  0
 17 18  1  0
  1  2  1  0
  1  6  1  0
  2  3  1  0
  3  4  1  0
  4  5  1  0
  5  6  1  0
  6 19  1  0
 19 20  2  0
 19 21  2  0
 19 22  1  0
 22 23  2  0
 22 28  1  0
 23 24  1  0
 24 25  2  0
 25 26  1  0
 25 27  1  0
 27 28  2  0
M  END
>  <minimizedAffinity>  (296) 
-8.94275

$$$$
data/reference_output_2/data/smiles/112784.pdb
     RDKit          3D

 24 27  0  0  0  0  0  0  0  0999 V2000
   70.4864   45.6022   58.1158 C   0  0  0  0  0  0  0  0  0  0  0  0
   69.8376   46.4717   57.2628 C   0  0  0  0  0  0  0  0  0  0  0  0
   70.1372   47.7858   57.1113 C   0  0  0  0  0  0  0  0  0  0  0  0
   71.1956   48.2752   57.8968 C   0  0  0  0  0  0  0  0  0  0  0  0
   71.8724   47.4465   58.7622 C   0  0  0  0  0  0  0  0  0  0  0  0
   71.5271   46.1176   58.8778 C   0  0  0  0  0  0  0  0  0  0  0  0
   72.2067   45.3101   59.7384 F   0  0  0  0  0  0  0  0  0  0  0  0
   68.9998   43.5361   60.3574 O   0  0  0  0  0  0  0  0  0  0  0  0
   69.6923   43.4130   59.3050 C   0  0  0  0  0  0  0  0  0  0  0  0
   70.4433   42.2965   58.6244 C   0  0  0  0  0  0  0  0  0  0  0  0
   70.0131   43.0679   57.3812 C   0  0  0  0  0  0  0  0  0  0  0  0
   70.1222   44.2342   58.2292 N   0  0  0  0  0  0  0  0  0  0  0  0
   69.4424   48.7321   56.2115 C   0  0  0  0  0  0  0  0  0  0  0  0
   69.7240   48.5362   54.7840 C   0  0  0  0  0  0  0  0  0  0  0  0
   70.7655   49.2144   54.2060 N   0  0  0  0  0  0  0  0  0  0  0  0
   71.0666   49.1271   52.9292 N   0  0  0  0  0  0  0  0  0  0  0  0
   70.3244   48.3349   52.1386 C   0  0  0  0  0  0  0  0  0  0  0  0
   70.5932   48.2369   50.9142 O   0  0  0  0  0  0  0  0  0  0  0  0
   69.2461   47.6183   52.6817 C   0  0  0  0  0  0  0  0  0  0  0  0
   68.9367   47.7128   54.0177 C   0  0  0  0  0  0  0  0  0  0  0  0
   67.8106   46.9046   54.5434 C   0  0  0  0  0  0  0  0  0  0  0  0
   67.8291   45.5327   53.8873 C   0  0  0  0  0  0  0  0  0  0  0  0
   67.8203   45.5952   52.4042 C   0  0  0  0  0  0  0  0  0  0  0  0
   68.4454   46.7802   51.7734 C   0  0  0  0  0  0  0  0  0  0  0  0
  8  9  2  0
  9 10  1  0
  9 12  1  0
 10 11  1  0
 11 12  1  0
 12  1  1  0
  1  2  2  0
  1  6  1  0
  2  3  1  0
  3 13  1  0
  3  4  2  0
 13 14  1  0
 14 15  2  0
 14 20  1  0
 15 16  1  0
 16 17  1  0
 17 18  2  0
 17 19  1  0
 19 20  2  0
 19 24  1  0
 20 21  1  0
 21 22  1  0
 22 23  1  0
 23 24  1  0
  4  5  1  0
  5  6  2  0
  6  7  1  0
M  END
>  <minimizedAffinity>  (297) 
-8.67941

$$$$
data/reference_output_2/data/smiles/112846.pdb
     RDKit          3D

 30 33  0  0  0  0  0  0  0  0999 V2000
   70.5544   43.0396   58.2580 C   0  0  0  0  0  0  0  0  0  0  0  0
   69.6861   43.3103   57.2128 C   0  0  0  0  0  0  0  0  0  0  0  0
   69.3906   44.5801   56.7735 C   0  0  0  0  0  0  0  0  0  0  0  0
   69.9871   45.6664   57.4045 C   0  0  0  0  0  0  0  0  0  0  0  0
   70.8514   45.4166   58.4438 C   0  0  0  0  0  0  0  0  0  0  0  0
   71.1362   44.1281   58.8695 C   0  0  0  0  0  0  0  0  0  0  0  0
   71.3553   46.7491   58.9403 C   0  0  0  0  0  0  0  0  0  0  0  0
   71.0704   47.6533   57.7584 C   0  0  0  0  0  0  0  0  0  0  0  0
   69.8791   47.0624   57.1834 N   0  0  0  0  0  0  0  0  0  0  0  0
   70.1803   40.5286   58.1081 N   0  0  0  0  0  0  0  0  0  0  0  0
   70.8231   41.6546   58.6713 C   0  0  0  0  0  0  0  0  0  0  0  0
   71.6735   41.4602   59.5764 O   0  0  0  0  0  0  0  0  0  0  0  0
   70.9727   36.5399   59.3442 C   0  0  0  0  0  0  0  0  0  0  0  0
   71.7825   37.1723   58.4224 C   0  0  0  0  0  0  0  0  0  0  0  0
   71.5197   38.4668   58.0264 C   0  0  0  0  0  0  0  0  0  0  0  0
   70.4519   39.1901   58.5184 C   0  0  0  0  0  0  0  0  0  0  0  0
   69.6434   38.5560   59.4391 C   0  0  0  0  0  0  0  0  0  0  0  0
   69.9061   37.2604   59.8365 C   0  0  0  0  0  0  0  0  0  0  0  0
   71.1194   34.8084   61.1522 N   0  0  0  0  0  0  0  0  0  0  0  0
   71.2307   35.1664   59.7820 C   0  0  0  0  0  0  0  0  0  0  0  0
   71.5534   34.3174   58.9138 O   0  0  0  0  0  0  0  0  0  0  0  0
   68.5731   47.8987   56.3804 S   0  0  0  0  0  0  0  0  0  0  0  0
   67.2737   47.4658   56.9970 O   0  0  0  0  0  0  0  0  0  0  0  0
   68.7817   49.3586   56.5699 O   0  0  0  0  0  0  0  0  0  0  0  0
   68.6642   47.4607   54.6870 C   0  0  0  0  0  0  0  0  0  0  0  0
   67.9682   46.3936   54.1617 C   0  0  0  0  0  0  0  0  0  0  0  0
   68.0337   46.0429   52.8305 C   0  0  0  0  0  0  0  0  0  0  0  0
   68.8227   46.7733   51.9626 C   0  0  0  0  0  0  0  0  0  0  0  0
   69.5227   47.8360   52.4616 C   0  0  0  0  0  0  0  0  0  0  0  0
   69.4557   48.1901   53.8036 C   0  0  0  0  0  0  0  0  0  0  0  0
 19 20  1  0
 20 21  2  0
 20 13  1  0
 13 14  2  0
 13 18  1  0
 14 15  1  0
 15 16  2  0
 16 10  1  0
 16 17  1  0
 10 11  1  0
 11 12  2  0
 11  1  1  0
  1  2  2  0
  1  6  1  0
  2  3  1  0
  3  4  2  0
  4  5  1  0
  4  9  1  0
  5  6  2  0
  5  7  1  0
  7  8  1  0
  8  9  1  0
  9 22  1  0
 22 23  2  0
 22 24  2  0
 22 25  1  0
 25 26  2  0
 25 30  1  0
 26 27  1  0
 27 28  2  0
 28 29  1  0
 29 30  2  0
 17 18  2  0
M  END
>  <minimizedAffinity>  (298) 
-8.50344

$$$$
data/reference_output_2/data/smiles/112878.pdb
     RDKit          3D

 28 30  0  0  0  0  0  0  0  0999 V2000
   68.7972   41.7416   57.0940 C   0  0  0  0  0  0  0  0  0  0  0  0
   68.5644   40.4730   57.5829 C   0  0  0  0  0  0  0  0  0  0  0  0
   69.5053   39.7711   58.3057 C   0  0  0  0  0  0  0  0  0  0  0  0
   70.7450   40.3078   58.5798 C   0  0  0  0  0  0  0  0  0  0  0  0
   70.9907   41.5757   58.0965 C   0  0  0  0  0  0  0  0  0  0  0  0
   70.0400   42.2686   57.3737 C   0  0  0  0  0  0  0  0  0  0  0  0
   71.9510   39.4158   59.5027 S   0  0  0  0  0  0  0  0  0  0  0  0
   71.8811   39.7830   60.9509 O   0  0  0  0  0  0  0  0  0  0  0  0
   73.3124   39.8996   59.0244 O   0  0  0  0  0  0  0  0  0  0  0  0
   71.8907   37.7509   59.2097 N   0  0  0  0  0  0  0  0  0  0  0  0
   72.9064   37.2169   58.3756 C   0  0  0  0  0  0  0  0  0  0  0  0
   72.4829   36.1221   57.4591 C   0  0  0  0  0  0  0  0  0  0  0  0
   72.5203   34.7533   58.0859 C   0  0  0  0  0  0  0  0  0  0  0  0
   72.0840   34.7311   59.5135 C   0  0  0  0  0  0  0  0  0  0  0  0
   70.9111   35.6519   59.7781 C   0  0  0  0  0  0  0  0  0  0  0  0
   71.5167   36.9478   60.3188 C   0  0  0  0  0  0  0  0  0  0  0  0
   67.7834   42.4631   56.3316 C   0  0  0  0  0  0  0  0  0  0  0  0
   66.9139   41.8034   55.7080 O   0  0  0  0  0  0  0  0  0  0  0  0
   67.6908   43.8231   56.2327 O   0  0  0  0  0  0  0  0  0  0  0  0
   68.4342   46.3173   56.4995 N   0  0  0  0  0  0  0  0  0  0  0  0
   68.3571   45.7622   55.1902 C   0  0  0  0  0  0  0  0  0  0  0  0
   67.9905   44.5394   55.0940 N   0  0  0  0  0  0  0  0  0  0  0  0
   68.6948   46.5967   54.0208 C   0  0  0  0  0  0  0  0  0  0  0  0
   69.1873   47.8553   54.2983 C   0  0  0  0  0  0  0  0  0  0  0  0
   69.5418   48.7341   53.2692 C   0  0  0  0  0  0  0  0  0  0  0  0
   69.3940   48.3316   51.9564 C   0  0  0  0  0  0  0  0  0  0  0  0
   68.9006   47.0707   51.7026 C   0  0  0  0  0  0  0  0  0  0  0  0
   68.5474   46.1933   52.7292 C   0  0  0  0  0  0  0  0  0  0  0  0
 20 21  1  0
 21 22  2  0
 21 23  1  0
 22 19  1  0
 19 17  1  0
 17 18  2  0
 17  1  1  0
  1  2  2  0
  1  6  1  0
  2  3  1  0
  3  4  2  0
  4  7  1  0
  4  5  1  0
  7  8  2  0
  7  9  2  0
  7 10  1  0
 10 11  1  0
 10 16  1  0
 11 12  1  0
 12 13  1  0
 13 14  1  0
 14 15  1  0
 15 16  1  0
  5  6  2  0
 23 24  2  0
 23 28  1  0
 24 25  1  0
 25 26  2  0
 26 27  1  0
 27 28  2  0
M  CHG  1  22   1
M  END
>  <minimizedAffinity>  (299) 
-9.19949

$$$$
data/reference_output_2/data/smiles/112929.pdb
     RDKit          3D

 23 25  0  0  0  0  0  0  0  0999 V2000
   68.8679   48.1620   56.2846 C   0  0  0  0  0  0  0  0  0  0  0  0
   69.3192   48.2740   54.8719 C   0  0  0  0  0  0  0  0  0  0  0  0
   70.2102   49.2176   54.5144 N   0  0  0  0  0  0  0  0  0  0  0  0
   70.6022   49.3997   53.3019 N   0  0  0  0  0  0  0  0  0  0  0  0
   70.1212   48.6266   52.3176 C   0  0  0  0  0  0  0  0  0  0  0  0
   70.4969   48.7917   51.1148 O   0  0  0  0  0  0  0  0  0  0  0  0
   69.2018   47.6202   52.5540 C   0  0  0  0  0  0  0  0  0  0  0  0
   68.7195   46.8268   51.5386 C   0  0  0  0  0  0  0  0  0  0  0  0
   67.8186   45.8309   51.8058 C   0  0  0  0  0  0  0  0  0  0  0  0
   67.4194   45.6547   53.1053 C   0  0  0  0  0  0  0  0  0  0  0  0
   67.8845   46.4357   54.1385 C   0  0  0  0  0  0  0  0  0  0  0  0
   68.8067   47.4639   53.8941 C   0  0  0  0  0  0  0  0  0  0  0  0
   70.5041   47.8347   57.9819 O   0  0  0  0  0  0  0  0  0  0  0  0
   69.7293   47.3189   57.1358 C   0  0  0  0  0  0  0  0  0  0  0  0
   69.6984   45.8988   57.0108 N   0  0  0  0  0  0  0  0  0  0  0  0
   70.5034   44.9976   57.8088 C   0  0  0  0  0  0  0  0  0  0  0  0
   69.9293   43.6286   57.7153 C   0  0  0  0  0  0  0  0  0  0  0  0
   68.9269   43.3438   56.8007 C   0  0  0  0  0  0  0  0  0  0  0  0
   68.4158   42.0546   56.7785 C   0  0  0  0  0  0  0  0  0  0  0  0
   68.8317   41.0371   57.5978 C   0  0  0  0  0  0  0  0  0  0  0  0
   68.1338   39.4186   57.5088 Cl  0  0  0  0  0  0  0  0  0  0  0  0
   69.8321   41.3225   58.5095 C   0  0  0  0  0  0  0  0  0  0  0  0
   70.3627   42.6108   58.5533 C   0  0  0  0  0  0  0  0  0  0  0  0
 13 14  2  0
 14  1  1  0
 14 15  1  0
  1  2  1  0
  2  3  2  0
  2 12  1  0
  3  4  1  0
  4  5  1  0
  5  6  2  0
  5  7  1  0
  7  8  1  0
  7 12  2  0
  8  9  2  0
  9 10  1  0
 10 11  2  0
 11 12  1  0
 15 16  1  0
 16 17  1  0
 17 18  2  0
 17 23  1  0
 18 19  1  0
 19 20  2  0
 20 21  1  0
 20 22  1  0
 22 23  2  0
M  END
>  <minimizedAffinity>  (300) 
-8.70924

$$$$
data/reference_output_2/data/smiles/112930.pdb
     RDKit          3D

 28 31  0  0  0  0  0  0  0  0999 V2000
   68.2565   46.3176   54.4653 C   0  0  0  0  0  0  0  0  0  0  0  0
   67.8067   45.3979   53.5139 C   0  0  0  0  0  0  0  0  0  0  0  0
   67.9625   45.6075   52.1604 C   0  0  0  0  0  0  0  0  0  0  0  0
   68.5839   46.7642   51.7200 C   0  0  0  0  0  0  0  0  0  0  0  0
   69.0351   47.6824   52.6294 C   0  0  0  0  0  0  0  0  0  0  0  0
   68.8696   47.4535   53.9802 C   0  0  0  0  0  0  0  0  0  0  0  0
   69.4598   48.5952   54.6561 C   0  0  0  0  0  0  0  0  0  0  0  0
   69.4928   48.7259   55.9030 O   0  0  0  0  0  0  0  0  0  0  0  0
   69.9786   49.5070   53.6781 N   0  0  0  0  0  0  0  0  0  0  0  0
   69.7257   48.9616   52.4036 C   0  0  0  0  0  0  0  0  0  0  0  0
   70.0189   49.4470   51.2571 O   0  0  0  0  0  0  0  0  0  0  0  0
   70.6211   50.7774   54.0042 C   0  0  1  0  0  0  0  0  0  0  0  0
   69.6768   51.9392   53.9901 C   0  0  0  0  0  0  0  0  0  0  0  0
   68.8821   52.1874   55.2251 C   0  0  0  0  0  0  0  0  0  0  0  0
   69.6537   51.9687   56.4690 C   0  0  0  0  0  0  0  0  0  0  0  0
   69.1056   52.1558   57.6094 O   0  0  0  0  0  0  0  0  0  0  0  0
   71.0008   51.5531   56.3400 N   0  0  0  0  0  0  0  0  0  0  0  0
   71.3551   50.7030   55.2753 C   0  0  0  0  0  0  0  0  0  0  0  0
   72.3177   49.8801   55.4401 O   0  0  0  0  0  0  0  0  0  0  0  0
   68.0658   46.0250   55.8363 N   0  0  0  0  0  0  0  0  0  0  0  0
   70.7059   43.3965   57.7727 C   0  0  0  0  0  0  0  0  0  0  0  0
   70.9194   44.7597   57.8458 C   0  0  0  0  0  0  0  0  0  0  0  0
   70.0282   45.5885   57.1953 C   0  0  0  0  0  0  0  0  0  0  0  0
   68.9443   45.1187   56.4828 C   0  0  0  0  0  0  0  0  0  0  0  0
   68.7796   43.7500   56.4427 C   0  0  0  0  0  0  0  0  0  0  0  0
   69.6393   42.8731   57.0758 C   0  0  0  0  0  0  0  0  0  0  0  0
   73.0335   42.5900   57.8103 C   0  0  0  0  0  0  0  0  0  0  0  0
   71.6835   42.5132   58.4856 C   0  0  0  0  0  0  0  0  0  0  0  0
 27 28  1  0
 28 21  1  0
 21 22  2  0
 21 26  1  0
 22 23  1  0
 23 24  2  0
 24 20  1  0
 24 25  1  0
 20  1  1  0
  1  2  2  0
  1  6  1  0
  2  3  1  0
  3  4  2  0
  4  5  1  0
  5  6  2  0
  5 10  1  0
  6  7  1  0
  7  8  2  0
  7  9  1  0
 12  9  1  1
  9 10  1  0
 12 13  1  0
 12 18  1  0
 13 14  1  0
 14 15  1  0
 15 16  2  0
 15 17  1  0
 17 18  1  0
 18 19  2  0
 10 11  2  0
 25 26  2  0
M  END
>  <minimizedAffinity>  (301) 
-8.76544

$$$$
data/reference_output_2/data/smiles/112998.pdb
     RDKit          3D

 32 36  0  0  0  0  0  0  0  0999 V2000
   68.8591   40.3838   58.3205 C   0  0  0  0  0  0  0  0  0  0  0  0
   67.6527   40.6288   57.7161 C   0  0  0  0  0  0  0  0  0  0  0  0
   67.4479   41.7189   56.8624 C   0  0  0  0  0  0  0  0  0  0  0  0
   68.4740   42.5984   56.5967 C   0  0  0  0  0  0  0  0  0  0  0  0
   69.6957   42.3675   57.1952 C   0  0  0  0  0  0  0  0  0  0  0  0
   69.8825   41.2891   58.0359 C   0  0  0  0  0  0  0  0  0  0  0  0
   68.2494   43.6999   55.7259 N   0  0  0  0  0  0  0  0  0  0  0  0
   68.6671   45.0267   56.0182 C   0  0  0  0  0  0  0  0  0  0  0  0
   69.2627   45.1915   57.1182 O   0  0  0  0  0  0  0  0  0  0  0  0
   68.4315   46.1141   55.1307 N   0  0  0  0  0  0  0  0  0  0  0  0
   68.8284   47.4856   55.3708 C   0  0  0  0  0  0  0  0  0  0  0  0
   69.2760   47.9242   54.0264 C   0  0  0  0  0  0  0  0  0  0  0  0
   70.1321   48.9138   53.5818 C   0  0  0  0  0  0  0  0  0  0  0  0
   70.3602   49.0941   52.2405 C   0  0  0  0  0  0  0  0  0  0  0  0
   69.7377   48.2932   51.3733 N   0  0  0  0  0  0  0  0  0  0  0  0
   68.8981   47.3197   51.7705 C   0  0  0  0  0  0  0  0  0  0  0  0
   68.6481   47.1129   53.1132 C   0  0  0  0  0  0  0  0  0  0  0  0
   67.7751   46.1214   53.8397 C   0  0  0  0  0  0  0  0  0  0  0  0
   68.3048   38.9891   60.1558 O   0  0  0  0  0  0  0  0  0  0  0  0
   69.1347   39.2643   59.2210 C   0  0  0  0  0  0  0  0  0  0  0  0
   70.2788   38.4478   59.1286 N   0  0  0  0  0  0  0  0  0  0  0  0
   70.5923   37.3312   60.0025 C   0  0  0  0  0  0  0  0  0  0  0  0
   71.6856   36.5247   59.4199 C   0  0  2  0  0  0  0  0  0  0  0  0
   72.9825   37.3174   59.2390 C   0  0  0  0  0  0  0  0  0  0  0  0
   73.7801   36.2183   58.5190 C   0  0  0  0  0  0  0  0  0  0  0  0
   72.6712   35.4916   57.7909 C   0  0  0  0  0  0  0  0  0  0  0  0
   72.5829   34.0431   58.1869 C   0  0  0  0  0  0  0  0  0  0  0  0
   73.7591   33.2967   57.6047 C   0  0  0  0  0  0  0  0  0  0  0  0
   74.7805   34.2842   57.2805 N   0  0  0  0  0  0  0  0  0  0  0  0
   74.2880   34.9377   56.0562 C   0  0  0  0  0  0  0  0  0  0  0  0
   72.9700   35.6262   56.3104 C   0  0  0  0  0  0  0  0  0  0  0  0
   71.4674   36.1058   58.1189 O   0  0  0  0  0  0  0  0  0  0  0  0
 19 20  2  0
 20 21  1  0
 20  1  1  0
 21 22  1  0
 23 22  1  6
 23 24  1  0
 23 32  1  0
 24 25  1  0
 25 26  1  0
 26 27  1  0
 26 31  1  0
 26 32  1  0
 27 28  1  0
 28 29  1  0
 29 30  1  0
 30 31  1  0
  1  2  2  0
  1  6  1  0
  2  3  1  0
  3  4  2  0
  4  7  1  0
  4  5  1  0
  7  8  1  0
  8  9  2  0
  8 10  1  0
 10 11  1  0
 10 18  1  0
 11 12  1  0
 12 13  1  0
 12 17  2  0
 13 14  2  0
 14 15  1  0
 15 16  2  0
 16 17  1  0
 17 18  1  0
  5  6  2  0
M  CHG  1  29   1
M  END
>  <minimizedAffinity>  (302) 
-8.67547

$$$$
data/reference_output_2/data/smiles/113206.pdb
     RDKit          3D

 20 21  0  0  0  0  0  0  0  0999 V2000
   69.2574   47.7919   52.6362 C   0  0  0  0  0  0  0  0  0  0  0  0
   69.3770   47.7846   54.0088 C   0  0  0  0  0  0  0  0  0  0  0  0
   68.7387   46.8932   54.7882 N   0  0  0  0  0  0  0  0  0  0  0  0
   67.9551   45.9793   54.1913 C   0  0  0  0  0  0  0  0  0  0  0  0
   67.8012   45.9462   52.8070 C   0  0  0  0  0  0  0  0  0  0  0  0
   66.9866   44.9931   52.2042 O   0  0  0  0  0  0  0  0  0  0  0  0
   68.4632   46.8662   52.0284 C   0  0  0  0  0  0  0  0  0  0  0  0
   68.3504   46.8675   50.7901 O   0  0  0  0  0  0  0  0  0  0  0  0
   70.6780   48.4661   50.8446 O   0  0  0  0  0  0  0  0  0  0  0  0
   69.9677   48.7770   51.8313 C   0  0  0  0  0  0  0  0  0  0  0  0
   69.8716   50.1340   52.1509 O   0  0  0  0  0  0  0  0  0  0  0  0
   68.8418   46.8589   56.2090 C   0  0  0  0  0  0  0  0  0  0  0  0
   69.5758   48.0189   56.8116 C   0  0  0  0  0  0  0  0  0  0  0  0
   68.5778   49.0973   57.0609 C   0  0  0  0  0  0  0  0  0  0  0  0
   67.4301   48.8400   57.7870 C   0  0  0  0  0  0  0  0  0  0  0  0
   66.4847   49.8308   58.0326 C   0  0  0  0  0  0  0  0  0  0  0  0
   66.6712   51.1038   57.5527 C   0  0  0  0  0  0  0  0  0  0  0  0
   67.8091   51.3759   56.8273 C   0  0  0  0  0  0  0  0  0  0  0  0
   68.7303   50.3935   56.5929 C   0  0  0  0  0  0  0  0  0  0  0  0
   70.1661   50.7738   55.6678 Cl  0  0  0  0  0  0  0  0  0  0  0  0
  9 10  2  0
 10 11  1  0
 10  1  1  0
  1  2  2  0
  1  7  1  0
  2  3  1  0
  3 12  1  0
  3  4  1  0
 12 13  1  0
 13 14  1  0
 14 15  2  0
 14 19  1  0
 15 16  1  0
 16 17  2  0
 17 18  1  0
 18 19  2  0
 19 20  1  0
  4  5  2  0
  5  6  1  0
  5  7  1  0
  7  8  2  0
M  END
>  <minimizedAffinity>  (303) 
-8.67671

$$$$
data/reference_output_2/data/smiles/113269.pdb
     RDKit          3D

 25 27  0  0  0  0  0  0  0  0999 V2000
   68.7084   47.9695   56.7474 C   0  0  1  0  0  0  0  0  0  0  0  0
   67.5683   47.4363   57.3657 O   0  0  0  0  0  0  0  0  0  0  0  0
   69.9011   47.4554   57.4612 C   0  0  0  0  0  0  0  0  0  0  0  0
   70.7834   48.2936   58.1072 C   0  0  0  0  0  0  0  0  0  0  0  0
   71.8997   47.7921   58.7784 C   0  0  0  0  0  0  0  0  0  0  0  0
   72.1519   46.4352   58.8140 C   0  0  0  0  0  0  0  0  0  0  0  0
   73.5539   45.7774   59.6537 Cl  0  0  0  0  0  0  0  0  0  0  0  0
   71.2666   45.5891   58.1658 C   0  0  0  0  0  0  0  0  0  0  0  0
   70.1696   46.1038   57.5081 C   0  0  0  0  0  0  0  0  0  0  0  0
   69.3551   45.1863   56.8989 F   0  0  0  0  0  0  0  0  0  0  0  0
   69.2644   47.8135   52.9694 C   0  0  0  0  0  0  0  0  0  0  0  0
   68.5536   46.6649   52.6735 C   0  0  0  0  0  0  0  0  0  0  0  0
   67.9125   45.9619   53.6702 C   0  0  0  0  0  0  0  0  0  0  0  0
   67.9692   46.3961   54.9955 C   0  0  0  0  0  0  0  0  0  0  0  0
   68.6711   47.5369   55.3177 C   0  0  0  0  0  0  0  0  0  0  0  0
   69.2980   48.2164   54.3045 C   0  0  0  0  0  0  0  0  0  0  0  0
   70.0322   49.9648   51.9755 N   0  0  0  0  0  0  0  0  0  0  0  0
   69.9402   48.5574   51.9257 C   0  0  0  0  0  0  0  0  0  0  0  0
   70.4483   47.9402   50.9703 O   0  0  0  0  0  0  0  0  0  0  0  0
   68.6133   49.4464   56.7473 C   0  0  0  0  0  0  0  0  0  0  0  0
   69.5230   50.2190   56.0607 C   0  0  0  0  0  0  0  0  0  0  0  0
   69.4478   51.5700   56.0542 N   0  0  0  0  0  0  0  0  0  0  0  0
   68.4711   52.1893   56.7248 C   0  0  0  0  0  0  0  0  0  0  0  0
   67.5780   51.4531   57.3977 N   0  0  0  0  0  0  0  0  0  0  0  0
   67.6145   50.0995   57.4335 C   0  0  0  0  0  0  0  0  0  0  0  0
 17 18  1  0
 18 19  2  0
 18 11  1  0
 11 12  2  0
 11 16  1  0
 12 13  1  0
 13 14  2  0
 14 15  1  0
 15  1  1  0
 15 16  2  0
  1  2  1  1
  1 20  1  0
  1  3  1  0
 20 21  2  0
 20 25  1  0
 21 22  1  0
 22 23  2  0
 23 24  1  0
 24 25  2  0
  3  4  2  0
  3  9  1  0
  4  5  1  0
  5  6  2  0
  6  7  1  0
  6  8  1  0
  8  9  2  0
  9 10  1  0
M  END
>  <minimizedAffinity>  (304) 
-8.69438

$$$$
data/reference_output_2/data/smiles/113333.pdb
     RDKit          3D

 30 33  0  0  0  0  0  0  0  0999 V2000
   71.6998   52.0141   56.1790 N   0  0  0  0  0  0  0  0  0  0  0  0
   72.7360   51.1370   55.9282 C   0  0  0  0  0  0  0  0  0  0  0  0
   73.0499   50.3137   57.1669 C   0  0  0  0  0  0  0  0  0  0  0  0
   71.9784   50.2383   58.1786 C   0  0  0  0  0  0  0  0  0  0  0  0
   71.3783   51.5724   58.4831 C   0  0  0  0  0  0  0  0  0  0  0  0
   71.8078   52.6088   57.4695 C   0  0  0  0  0  0  0  0  0  0  0  0
   71.0105   49.1854   57.9712 N   0  0  0  0  0  0  0  0  0  0  0  0
   71.2207   47.8680   57.9243 C   0  0  0  0  0  0  0  0  0  0  0  0
   72.2992   47.2234   58.0383 O   0  0  0  0  0  0  0  0  0  0  0  0
   70.0320   47.2737   57.7251 N   0  0  0  0  0  0  0  0  0  0  0  0
   69.0482   48.1907   57.6425 C   0  0  0  0  0  0  0  0  0  0  0  0
   67.6842   48.1383   57.4524 C   0  0  0  0  0  0  0  0  0  0  0  0
   66.9068   49.2642   57.4114 C   0  0  0  0  0  0  0  0  0  0  0  0
   67.5389   50.4843   57.5698 C   0  0  0  0  0  0  0  0  0  0  0  0
   66.7587   51.6008   57.5299 F   0  0  0  0  0  0  0  0  0  0  0  0
   68.9009   50.5424   57.7599 C   0  0  0  0  0  0  0  0  0  0  0  0
   69.6981   49.4192   57.8026 C   0  0  0  0  0  0  0  0  0  0  0  0
   70.7384   52.4529   55.3012 C   0  0  0  0  0  0  0  0  0  0  0  0
   70.6081   51.7231   54.0171 C   0  0  0  0  0  0  0  0  0  0  0  0
   71.5143   49.3527   53.1631 O   0  0  0  0  0  0  0  0  0  0  0  0
   70.2964   49.3881   53.4499 C   0  0  0  0  0  0  0  0  0  0  0  0
   69.7214   50.6113   53.9190 N   0  0  0  0  0  0  0  0  0  0  0  0
   69.5040   48.1883   53.2956 C   0  0  0  0  0  0  0  0  0  0  0  0
   69.1357   47.7872   52.0059 C   0  0  0  0  0  0  0  0  0  0  0  0
   68.3784   46.6720   51.7670 C   0  0  0  0  0  0  0  0  0  0  0  0
   67.9571   45.9055   52.8318 C   0  0  0  0  0  0  0  0  0  0  0  0
   67.1983   44.7898   52.6013 F   0  0  0  0  0  0  0  0  0  0  0  0
   68.2876   46.2479   54.1195 C   0  0  0  0  0  0  0  0  0  0  0  0
   67.8667   45.4861   55.1732 F   0  0  0  0  0  0  0  0  0  0  0  0
   69.0548   47.3828   54.3128 C   0  0  0  0  0  0  0  0  0  0  0  0
 20 21  2  0
 21 22  1  0
 21 23  1  0
 22 19  1  0
 19 18  1  0
 18  1  1  0
  1  2  1  0
  1  6  1  0
  2  3  1  0
  3  4  1  0
  4  7  1  0
  4  5  1  0
  7  8  1  0
  7 17  1  0
  8  9  2  0
  8 10  1  0
 10 11  1  0
 11 12  1  0
 11 17  2  0
 12 13  2  0
 13 14  1  0
 14 15  1  0
 14 16  2  0
 16 17  1  0
  5  6  1  0
 23 24  2  0
 23 30  1  0
 24 25  1  0
 25 26  2  0
 26 27  1  0
 26 28  1  0
 28 29  1  0
 28 30  2  0
M  CHG  1   1   1
M  END
>  <minimizedAffinity>  (305) 
-8.50630

$$$$
data/reference_output_2/data/smiles/113764.pdb
     RDKit          3D

 27 29  0  0  0  0  0  0  0  0999 V2000
   69.4513   46.8705   56.4190 C   0  0  0  0  0  0  0  0  0  0  0  0
   70.0716   45.9072   57.1794 C   0  0  0  0  0  0  0  0  0  0  0  0
   70.8997   46.2076   58.2550 C   0  0  0  0  0  0  0  0  0  0  0  0
   71.1481   47.5056   58.6223 C   0  0  0  0  0  0  0  0  0  0  0  0
   70.5326   48.4789   57.8705 C   0  0  0  0  0  0  0  0  0  0  0  0
   69.7134   48.2026   56.8067 C   0  0  0  0  0  0  0  0  0  0  0  0
   72.0080   47.8741   59.7342 C   0  0  0  0  0  0  0  0  0  0  0  0
   72.8432   48.7991   59.5751 O   0  0  0  0  0  0  0  0  0  0  0  0
   71.9836   47.2621   61.0119 N   0  0  0  0  0  0  0  0  0  0  0  0
   72.8243   47.6360   62.0740 N   0  0  0  0  0  0  0  0  0  0  0  0
   74.0921   47.0268   62.2812 C   0  0  0  0  0  0  0  0  0  0  0  0
   74.4086   46.1298   61.4446 O   0  0  0  0  0  0  0  0  0  0  0  0
   74.9920   47.3818   63.3659 C   0  0  0  0  0  0  0  0  0  0  0  0
   74.5311   47.3282   64.6644 C   0  0  0  0  0  0  0  0  0  0  0  0
   75.3361   47.6551   65.7411 C   0  0  0  0  0  0  0  0  0  0  0  0
   76.6432   48.0509   65.5498 C   0  0  0  0  0  0  0  0  0  0  0  0
   77.1168   48.1084   64.2514 C   0  0  0  0  0  0  0  0  0  0  0  0
   76.2922   47.7774   63.1986 C   0  0  0  0  0  0  0  0  0  0  0  0
   68.6349   46.6510   55.3608 O   0  0  0  0  0  0  0  0  0  0  0  0
   68.0512   47.4316   54.3972 C   0  0  0  0  0  0  0  0  0  0  0  0
   70.3418   49.2806   53.4795 C   0  0  0  0  0  0  0  0  0  0  0  0
   69.7324   48.1932   52.6603 C   0  0  0  0  0  0  0  0  0  0  0  0
   70.0626   47.8476   51.3935 N   0  0  0  0  0  0  0  0  0  0  0  0
   69.3151   46.8629   51.0267 O   0  0  0  0  0  0  0  0  0  0  0  0
   68.4888   46.5284   51.9990 C   0  0  0  0  0  0  0  0  0  0  0  0
   67.5002   45.4352   51.8854 C   0  0  0  0  0  0  0  0  0  0  0  0
   68.7172   47.3545   53.0764 C   0  0  0  0  0  0  0  0  0  0  0  0
 21 22  1  0
 22 23  2  0
 22 27  1  0
 23 24  1  0
 24 25  1  0
 25 26  1  0
 25 27  2  0
 27 20  1  0
 20 19  1  0
 19  1  1  0
  1  2  2  0
  1  6  1  0
  2  3  1  0
  3  4  2  0
  4  7  1  0
  4  5  1  0
  7  8  2  0
  7  9  1  0
  9 10  1  0
 10 11  1  0
 11 12  2  0
 11 13  1  0
 13 14  2  0
 13 18  1  0
 14 15  1  0
 15 16  2  0
 16 17  1  0
 17 18  2  0
  5  6  2  0
M  END
>  <minimizedAffinity>  (306) 
-8.50619

$$$$
data/reference_output_2/data/smiles/113931.pdb
     RDKit          3D

 25 27  0  0  0  0  0  0  0  0999 V2000
   69.5090   47.7194   56.3520 N   0  0  0  0  0  0  0  0  0  0  0  0
   70.0629   48.6824   55.6170 N   0  0  0  0  0  0  0  0  0  0  0  0
   69.9619   48.7517   54.2738 C   0  0  0  0  0  0  0  0  0  0  0  0
   69.2568   47.7980   53.5808 C   0  0  0  0  0  0  0  0  0  0  0  0
   69.1067   47.7993   52.2114 C   0  0  0  0  0  0  0  0  0  0  0  0
   68.3924   46.8263   51.5528 C   0  0  0  0  0  0  0  0  0  0  0  0
   67.8084   45.8180   52.2799 C   0  0  0  0  0  0  0  0  0  0  0  0
   67.9518   45.8006   53.6758 C   0  0  0  0  0  0  0  0  0  0  0  0
   68.6763   46.7931   54.3155 C   0  0  0  0  0  0  0  0  0  0  0  0
   68.8199   46.7779   55.7120 C   0  0  0  0  0  0  0  0  0  0  0  0
   68.2605   45.8205   56.2835 O   0  0  0  0  0  0  0  0  0  0  0  0
   70.6178   49.8606   53.5946 C   0  0  0  0  0  0  0  0  0  0  0  0
   70.0896   50.7692   52.9422 O   0  0  0  0  0  0  0  0  0  0  0  0
   72.0297   49.9466   53.6629 O   0  0  0  0  0  0  0  0  0  0  0  0
   69.6357   47.7491   57.7848 C   0  0  0  0  0  0  0  0  0  0  0  0
   70.4044   48.8420   58.3842 C   0  0  0  0  0  0  0  0  0  0  0  0
   70.0903   50.1345   58.4254 O   0  0  0  0  0  0  0  0  0  0  0  0
   67.6382   50.9415   57.3053 C   0  0  0  0  0  0  0  0  0  0  0  0
   68.9171   51.7035   57.0930 C   0  0  0  0  0  0  0  0  0  0  0  0
   68.9408   52.8625   56.3576 C   0  0  0  0  0  0  0  0  0  0  0  0
   70.1135   53.5870   56.2385 C   0  0  0  0  0  0  0  0  0  0  0  0
   71.2810   53.1547   56.8593 C   0  0  0  0  0  0  0  0  0  0  0  0
   71.2739   52.0009   57.5953 C   0  0  0  0  0  0  0  0  0  0  0  0
   72.4817   51.4740   58.2892 C   0  0  0  0  0  0  0  0  0  0  0  0
   70.0815   51.2624   57.7152 C   0  0  0  0  0  0  0  0  0  0  0  0
 18 19  1  0
 19 20  2  0
 19 25  1  0
 20 21  1  0
 21 22  2  0
 22 23  1  0
 23 24  1  0
 23 25  2  0
 25 17  1  0
 17 16  1  0
 16 15  1  0
 15  1  1  0
  1  2  1  0
  1 10  1  0
  2  3  2  0
  3 12  1  0
  3  4  1  0
 12 13  2  0
 12 14  1  0
  4  5  2  0
  4  9  1  0
  5  6  1  0
  6  7  2  0
  7  8  1  0
  8  9  2  0
  9 10  1  0
 10 11  2  0
M  END
>  <minimizedAffinity>  (307) 
-8.66886

$$$$
data/reference_output_2/data/smiles/114019.pdb
     RDKit          3D

 27 29  0  0  0  0  0  0  0  0999 V2000
   68.9042   42.5988   57.1985 C   0  0  0  0  0  0  0  0  0  0  0  0
   69.0349   43.8203   56.6682 N   0  0  0  0  0  0  0  0  0  0  0  0
   68.2618   44.3289   55.6691 C   0  0  0  0  0  0  0  0  0  0  0  0
   67.3028   43.5128   55.2031 N   0  0  0  0  0  0  0  0  0  0  0  0
   67.1167   42.2578   55.6980 C   0  0  0  0  0  0  0  0  0  0  0  0
   66.2079   41.4964   55.2499 O   0  0  0  0  0  0  0  0  0  0  0  0
   67.9193   41.7796   56.7083 C   0  0  0  0  0  0  0  0  0  0  0  0
   67.7719   40.5185   57.2445 O   0  0  0  0  0  0  0  0  0  0  0  0
   68.4806   45.6677   55.1593 C   0  0  0  0  0  0  0  0  0  0  0  0
   68.2744   45.9734   53.8551 C   0  0  0  0  0  0  0  0  0  0  0  0
   68.4789   47.2555   53.3415 C   0  0  0  0  0  0  0  0  0  0  0  0
   68.9061   48.2535   54.1862 C   0  0  0  0  0  0  0  0  0  0  0  0
   69.0985   49.4850   53.6739 F   0  0  0  0  0  0  0  0  0  0  0  0
   69.1249   47.9654   55.5309 C   0  0  0  0  0  0  0  0  0  0  0  0
   68.9082   46.6651   56.0027 C   0  0  0  0  0  0  0  0  0  0  0  0
   69.9503   42.8738   59.2928 O   0  0  0  0  0  0  0  0  0  0  0  0
   69.8038   42.1509   58.2833 C   0  0  0  0  0  0  0  0  0  0  0  0
   70.4912   40.9389   58.2026 N   0  0  0  0  0  0  0  0  0  0  0  0
   71.3869   40.3789   59.1577 C   0  0  0  0  0  0  0  0  0  0  0  0
   71.3842   38.9020   59.0012 C   0  0  0  0  0  0  0  0  0  0  0  0
   70.7090   38.0851   59.9170 C   0  0  0  0  0  0  0  0  0  0  0  0
   70.6832   36.7158   59.8198 C   0  0  0  0  0  0  0  0  0  0  0  0
   71.3414   36.0962   58.7867 C   0  0  0  0  0  0  0  0  0  0  0  0
   71.3556   34.7404   58.6335 F   0  0  0  0  0  0  0  0  0  0  0  0
   72.0212   36.8508   57.8576 C   0  0  0  0  0  0  0  0  0  0  0  0
   72.6726   36.2328   56.8353 F   0  0  0  0  0  0  0  0  0  0  0  0
   72.0300   38.2377   57.9824 C   0  0  0  0  0  0  0  0  0  0  0  0
 16 17  2  0
 17 18  1  0
 17  1  1  0
 18 19  1  0
 19 20  1  0
 20 21  2  0
 20 27  1  0
 21 22  1  0
 22 23  2  0
 23 24  1  0
 23 25  1  0
 25 26  1  0
 25 27  2  0
  1  2  1  0
  1  7  2  0
  2  3  2  0
  3  9  1  0
  3  4  1  0
  9 10  2  0
  9 15  1  0
 10 11  1  0
 11 12  2  0
 12 13  1  0
 12 14  1  0
 14 15  2  0
  4  5  1  0
  5  6  2  0
  5  7  1  0
  7  8  1  0
M  END
>  <minimizedAffinity>  (308) 
-9.06772

$$$$
data/reference_output_2/data/smiles/114108.pdb
     RDKit          3D

 26 29  0  0  0  0  0  0  0  0999 V2000
   68.6239   47.2615   56.6170 C   0  0  0  0  0  0  0  0  0  0  0  0
   71.3576   50.5384   54.1812 C   0  0  0  0  0  0  0  0  0  0  0  0
   70.4618   49.3996   54.2005 N   0  0  0  0  0  0  0  0  0  0  0  0
   69.9726   48.8854   55.3146 N   0  0  0  0  0  0  0  0  0  0  0  0
   69.1319   47.8089   55.3280 C   0  0  0  0  0  0  0  0  0  0  0  0
   68.7570   47.2074   54.1496 C   0  0  0  0  0  0  0  0  0  0  0  0
   67.9037   46.1188   54.1201 C   0  0  0  0  0  0  0  0  0  0  0  0
   67.5478   45.5495   52.9140 C   0  0  0  0  0  0  0  0  0  0  0  0
   68.0545   46.0785   51.7258 C   0  0  0  0  0  0  0  0  0  0  0  0
   68.9066   47.1666   51.7674 C   0  0  0  0  0  0  0  0  0  0  0  0
   69.2681   47.7435   52.9637 C   0  0  0  0  0  0  0  0  0  0  0  0
   70.1085   48.8278   53.0358 C   0  0  0  0  0  0  0  0  0  0  0  0
   70.5618   49.2970   51.9475 O   0  0  0  0  0  0  0  0  0  0  0  0
   69.5686   46.2394   57.1428 C   0  0  0  0  0  0  0  0  0  0  0  0
   70.6172   46.5548   57.7399 O   0  0  0  0  0  0  0  0  0  0  0  0
   69.2877   44.8510   56.9662 N   0  0  0  0  0  0  0  0  0  0  0  0
   70.1347   43.8207   57.4211 C   0  0  0  0  0  0  0  0  0  0  0  0
   71.4214   44.0017   57.7525 N   0  0  0  0  0  0  0  0  0  0  0  0
   72.2055   42.9920   58.1866 C   0  0  0  0  0  0  0  0  0  0  0  0
   71.7279   41.7066   58.3164 C   0  0  0  0  0  0  0  0  0  0  0  0
   70.4085   41.4863   57.9844 C   0  0  0  0  0  0  0  0  0  0  0  0
   69.9170   40.2026   58.1108 C   0  0  0  0  0  0  0  0  0  0  0  0
   68.6017   39.9595   57.7871 C   0  0  0  0  0  0  0  0  0  0  0  0
   67.8108   41.0017   57.3446 C   0  0  0  0  0  0  0  0  0  0  0  0
   68.3008   42.2852   57.2172 C   0  0  0  0  0  0  0  0  0  0  0  0
   69.6298   42.5394   57.5430 C   0  0  0  0  0  0  0  0  0  0  0  0
  2  3  1  0
  3  4  1  0
  3 12  1  0
  4  5  2  0
  5  1  1  0
  5  6  1  0
  1 14  1  0
 14 15  2  0
 14 16  1  0
 16 17  1  0
 17 18  2  0
 17 26  1  0
 18 19  1  0
 19 20  2  0
 20 21  1  0
 21 22  1  0
 21 26  2  0
 22 23  2  0
 23 24  1  0
 24 25  2  0
 25 26  1  0
  6  7  1  0
  6 11  2  0
  7  8  2  0
  8  9  1  0
  9 10  2  0
 10 11  1  0
 11 12  1  0
 12 13  2  0
M  END
>  <minimizedAffinity>  (309) 
-8.75996

$$$$
data/reference_output_2/data/smiles/114178.pdb
     RDKit          3D

 20 21  0  0  0  0  0  0  0  0999 V2000
   69.8922   49.1283   52.5069 S   0  0  0  0  0  0  0  0  0  0  0  0
   69.9579   49.4982   51.0536 O   0  0  0  0  0  0  0  0  0  0  0  0
   71.3039   49.0159   53.0226 O   0  0  0  0  0  0  0  0  0  0  0  0
   68.2066   45.7739   54.0505 C   0  0  0  0  0  0  0  0  0  0  0  0
   67.5895   45.2341   52.9411 C   0  0  0  0  0  0  0  0  0  0  0  0
   67.6738   45.8662   51.7335 C   0  0  0  0  0  0  0  0  0  0  0  0
   68.3755   47.0490   51.6105 C   0  0  0  0  0  0  0  0  0  0  0  0
   69.0133   47.6311   52.6985 C   0  0  0  0  0  0  0  0  0  0  0  0
   68.9095   46.9692   53.9022 C   0  0  0  0  0  0  0  0  0  0  0  0
   67.7036   43.9831   55.3921 O   0  0  0  0  0  0  0  0  0  0  0  0
   68.1346   45.1399   55.3124 N   0  0  0  0  0  0  0  0  0  0  0  0
   68.5429   45.8211   56.4220 O   0  0  0  0  0  0  0  0  0  0  0  0
   69.1024   50.4244   53.3292 N   0  0  0  0  0  0  0  0  0  0  0  0
   69.8410   50.8040   54.5377 C   0  0  0  0  0  0  0  0  0  0  0  0
   68.9450   50.5161   55.6890 C   0  0  0  0  0  0  0  0  0  0  0  0
   68.1707   51.5449   56.1874 C   0  0  0  0  0  0  0  0  0  0  0  0
   67.3350   51.2895   57.2555 C   0  0  0  0  0  0  0  0  0  0  0  0
   67.3073   50.0129   57.7847 C   0  0  0  0  0  0  0  0  0  0  0  0
   68.0829   48.9886   57.2837 C   0  0  0  0  0  0  0  0  0  0  0  0
   68.8869   49.2699   56.2413 N   0  0  0  0  0  0  0  0  0  0  0  0
 10 11  2  0
 11 12  1  0
 11  4  1  0
  4  5  2  0
  4  9  1  0
  5  6  1  0
  6  7  2  0
  7  8  1  0
  8  1  1  0
  8  9  2  0
  1  2  2  0
  1  3  2  0
  1 13  1  0
 13 14  1  0
 14 15  1  0
 15 16  2  0
 15 20  1  0
 16 17  1  0
 17 18  2  0
 18 19  1  0
 19 20  2  0
M  CHG  2  11   1  12  -1
M  END
>  <minimizedAffinity>  (310) 
-8.73636

$$$$
data/reference_output_2/data/smiles/114352.pdb
     RDKit          3D

 32 35  0  0  0  0  0  0  0  0999 V2000
   69.7229   42.5450   59.2770 C   0  0  2  0  0  0  0  0  0  0  0  0
   69.5304   42.3581   60.6724 C   0  0  0  0  0  0  0  0  0  0  0  0
   69.3631   42.2170   61.7512 C   0  0  0  0  0  0  0  0  0  0  0  0
   69.1535   42.0353   63.1590 C   0  0  0  0  0  0  0  0  0  0  0  0
   70.5005   41.8802   63.7065 C   0  0  0  0  0  0  0  0  0  0  0  0
   71.3324   41.9932   62.5789 C   0  0  0  0  0  0  0  0  0  0  0  0
   71.9608   42.0861   61.6945 C   0  0  0  0  0  0  0  0  0  0  0  0
   72.7758   42.2236   60.5155 C   0  0  0  0  0  0  0  0  0  0  0  0
   72.0484   43.3799   59.8331 C   0  0  1  0  0  0  0  0  0  0  0  0
   72.6355   44.0654   58.7203 C   0  0  0  0  0  0  0  0  0  0  0  0
   73.6222   44.3603   58.0522 O   0  0  0  0  0  0  0  0  0  0  0  0
   71.1877   44.4774   58.4849 N   0  0  0  0  0  0  0  0  0  0  0  0
   70.7901   45.7161   58.1050 C   0  0  0  0  0  0  0  0  0  0  0  0
   71.5989   46.7122   58.2047 O   0  0  0  0  0  0  0  0  0  0  0  0
   69.5063   46.1602   57.5590 N   0  0  0  0  0  0  0  0  0  0  0  0
   71.0084   43.0573   58.7860 C   0  0  2  0  0  0  0  0  0  0  0  0
   68.6211   42.9003   58.5096 O   0  0  0  0  0  0  0  0  0  0  0  0
   68.0670   41.0396   56.8533 C   0  0  0  0  0  0  0  0  0  0  0  0
   68.4181   42.4410   57.1987 C   0  0  0  0  0  0  0  0  0  0  0  0
   68.5542   43.3156   56.2723 O   0  0  0  0  0  0  0  0  0  0  0  0
   69.3587   47.5518   57.3100 C   0  0  0  0  0  0  0  0  0  0  0  0
   68.5134   48.1380   56.2955 C   0  0  0  0  0  0  0  0  0  0  0  0
   69.0794   48.3588   54.9881 C   0  0  0  0  0  0  0  0  0  0  0  0
   70.0047   49.3541   54.7700 C   0  0  0  0  0  0  0  0  0  0  0  0
   70.5715   49.5771   53.5319 C   0  0  0  0  0  0  0  0  0  0  0  0
   70.1992   48.7790   52.4845 C   0  0  0  0  0  0  0  0  0  0  0  0
   69.2817   47.7681   52.6290 C   0  0  0  0  0  0  0  0  0  0  0  0
   68.9229   46.9154   51.5875 C   0  0  0  0  0  0  0  0  0  0  0  0
   68.0274   45.8900   51.8128 C   0  0  0  0  0  0  0  0  0  0  0  0
   67.4678   45.6815   53.0599 C   0  0  0  0  0  0  0  0  0  0  0  0
   67.8382   46.5423   54.0832 C   0  0  0  0  0  0  0  0  0  0  0  0
   68.7264   47.5725   53.8970 C   0  0  0  0  0  0  0  0  0  0  0  0
 18 19  1  0
 19 20  2  0
 19 17  1  0
  1 17  1  1
  1  2  1  0
  1 16  1  0
  2  3  3  0
  3  4  1  0
  4  5  2  0
  5  6  1  0
  6  7  3  0
  7  8  1  0
  9  8  1  6
  9 10  1  0
  9 16  1  0
 10 11  2  0
 10 12  1  0
 12 13  1  0
 16 12  1  1
 13 14  2  0
 13 15  1  0
 15 21  1  0
 21 22  1  0
 22 23  1  0
 23 24  2  0
 23 32  1  0
 24 25  1  0
 25 26  2  0
 26 27  1  0
 27 28  1  0
 27 32  2  0
 28 29  2  0
 29 30  1  0
 30 31  2  0
 31 32  1  0
M  END
>  <minimizedAffinity>  (311) 
-8.67641

$$$$
data/reference_output_2/data/smiles/114418.pdb
     RDKit          3D

 27 29  0  0  0  0  0  0  0  0999 V2000
   69.3080   42.8037   57.4644 C   0  0  0  0  0  0  0  0  0  0  0  0
   68.1701   42.3714   57.7494 O   0  0  0  0  0  0  0  0  0  0  0  0
   69.3695   44.0314   56.7761 N   0  0  0  0  0  0  0  0  0  0  0  0
   74.1795   42.5373   58.4252 C   0  0  0  0  0  0  0  0  0  0  0  0
   72.8486   41.9126   58.3262 C   0  0  0  0  0  0  0  0  0  0  0  0
   71.7203   42.6146   57.9531 C   0  0  0  0  0  0  0  0  0  0  0  0
   70.4706   42.0146   57.8631 C   0  0  0  0  0  0  0  0  0  0  0  0
   70.4295   40.6747   58.1699 C   0  0  0  0  0  0  0  0  0  0  0  0
   71.5321   39.9262   58.5484 C   0  0  0  0  0  0  0  0  0  0  0  0
   72.7493   40.5681   58.6223 C   0  0  0  0  0  0  0  0  0  0  0  0
   71.4380   38.5364   58.8556 N   0  0  0  0  0  0  0  0  0  0  0  0
   71.7008   37.4703   58.0812 C   0  0  0  0  0  0  0  0  0  0  0  0
   71.4638   36.3084   58.8165 C   0  0  0  0  0  0  0  0  0  0  0  0
   71.0531   36.7390   60.0520 C   0  0  0  0  0  0  0  0  0  0  0  0
   71.0503   38.0864   60.0359 N   0  0  0  0  0  0  0  0  0  0  0  0
   68.3699   44.8441   56.3661 N   0  0  0  0  0  0  0  0  0  0  0  0
   68.6154   46.4099   55.9296 S   0  0  0  0  0  0  0  0  0  0  0  0
   67.4775   47.2601   56.4924 O   0  0  0  0  0  0  0  0  0  0  0  0
   69.8686   46.9867   56.5767 O   0  0  0  0  0  0  0  0  0  0  0  0
   68.6845   46.7774   54.2274 C   0  0  0  0  0  0  0  0  0  0  0  0
   69.2803   47.8740   53.6915 C   0  0  0  0  0  0  0  0  0  0  0  0
   69.2850   48.0480   52.3324 C   0  0  0  0  0  0  0  0  0  0  0  0
   69.9136   49.2183   51.6628 C   0  0  0  0  0  0  0  0  0  0  0  0
   68.6898   47.1235   51.4738 C   0  0  0  0  0  0  0  0  0  0  0  0
   68.0898   46.0173   52.0136 C   0  0  0  0  0  0  0  0  0  0  0  0
   68.0950   45.8611   53.3716 C   0  0  0  0  0  0  0  0  0  0  0  0
   67.4882   44.7512   53.8604 F   0  0  0  0  0  0  0  0  0  0  0  0
  4  5  1  0
  5  6  2  0
  5 10  1  0
  6  7  1  0
  7  1  1  0
  7  8  2  0
  1  2  2  0
  1  3  1  0
  3 16  1  0
 16 17  1  0
 17 18  2  0
 17 19  2  0
 17 20  1  0
 20 21  2  0
 20 26  1  0
 21 22  1  0
 22 23  1  0
 22 24  2  0
 24 25  1  0
 25 26  2  0
 26 27  1  0
  8  9  1  0
  9 11  1  0
  9 10  2  0
 11 12  1  0
 11 15  1  0
 12 13  2  0
 13 14  1  0
 14 15  2  0
M  END
>  <minimizedAffinity>  (312) 
-9.05782

$$$$
data/reference_output_2/data/smiles/114581.pdb
     RDKit          3D

 21 22  0  0  0  0  0  0  0  0999 V2000
   69.2956   50.4603   53.3469 C   0  0  0  0  0  0  0  0  0  0  0  0
   70.0465   51.3889   53.8822 C   0  0  0  0  0  0  0  0  0  0  0  0
   71.4673   48.9882   52.8726 O   0  0  0  0  0  0  0  0  0  0  0  0
   70.0286   49.1587   52.4604 S   0  0  0  0  0  0  0  0  0  0  0  0
   69.9653   49.4138   50.9680 O   0  0  0  0  0  0  0  0  0  0  0  0
   69.1220   47.7087   52.8217 C   0  0  0  0  0  0  0  0  0  0  0  0
   68.5956   46.9133   51.8302 C   0  0  0  0  0  0  0  0  0  0  0  0
   67.8784   45.7634   52.1506 C   0  0  0  0  0  0  0  0  0  0  0  0
   67.6839   45.4056   53.4780 C   0  0  0  0  0  0  0  0  0  0  0  0
   68.2075   46.1953   54.4703 C   0  0  0  0  0  0  0  0  0  0  0  0
   68.9112   47.3246   54.1285 C   0  0  0  0  0  0  0  0  0  0  0  0
   69.4098   52.4864   54.6321 C   0  0  0  0  0  0  0  0  0  0  0  0
   69.5063   52.2801   56.3870 S   0  0  0  0  0  0  0  0  0  0  0  0
   68.9953   53.5681   57.0069 O   0  0  0  0  0  0  0  0  0  0  0  0
   70.9108   52.0664   56.8214 O   0  0  0  0  0  0  0  0  0  0  0  0
   68.4899   50.9953   56.9569 C   0  0  0  0  0  0  0  0  0  0  0  0
   68.9355   49.6939   56.9736 C   0  0  0  0  0  0  0  0  0  0  0  0
   68.1528   48.6576   57.4201 C   0  0  0  0  0  0  0  0  0  0  0  0
   66.8786   48.9009   57.8709 C   0  0  0  0  0  0  0  0  0  0  0  0
   66.4384   50.2127   57.8507 C   0  0  0  0  0  0  0  0  0  0  0  0
   67.2170   51.2567   57.4047 C   0  0  0  0  0  0  0  0  0  0  0  0
  3  4  2  0
  4  5  2  0
  4  1  1  0
  4  6  1  0
  1  2  2  0
  2 12  1  0
 12 13  1  0
 13 14  2  0
 13 15  2  0
 13 16  1  0
 16 17  2  0
 16 21  1  0
 17 18  1  0
 18 19  2  0
 19 20  1  0
 20 21  2  0
  6  7  2  0
  6 11  1  0
  7  8  1  0
  8  9  2  0
  9 10  1  0
 10 11  2  0
M  END
>  <minimizedAffinity>  (313) 
-8.58176

$$$$
data/reference_output_2/data/smiles/114670.pdb
     RDKit          3D

 20 22  0  0  0  0  0  0  0  0999 V2000
   70.2387   49.8787   54.9709 C   0  0  0  0  0  0  0  0  0  0  0  0
   71.3083   50.7404   55.0130 C   0  0  0  0  0  0  0  0  0  0  0  0
   72.0698   50.4074   53.9445 N   0  0  0  0  0  0  0  0  0  0  0  0
   71.4986   49.3976   53.2840 N   0  0  0  0  0  0  0  0  0  0  0  0
   70.3590   49.0386   53.8890 C   0  0  0  0  0  0  0  0  0  0  0  0
   69.4730   47.9760   53.4476 C   0  0  0  0  0  0  0  0  0  0  0  0
   68.8474   47.1129   54.3514 C   0  0  0  0  0  0  0  0  0  0  0  0
   68.0163   46.1205   53.8732 C   0  0  0  0  0  0  0  0  0  0  0  0
   67.7806   45.9497   52.5250 C   0  0  0  0  0  0  0  0  0  0  0  0
   66.9238   44.9197   52.1162 O   0  0  0  0  0  0  0  0  0  0  0  0
   68.3928   46.7984   51.6159 C   0  0  0  0  0  0  0  0  0  0  0  0
   69.2172   47.7808   52.1059 C   0  0  0  0  0  0  0  0  0  0  0  0
   69.8409   48.6414   51.2133 O   0  0  0  0  0  0  0  0  0  0  0  0
   66.0857   49.9214   58.7841 O   0  0  0  0  0  0  0  0  0  0  0  0
   67.1064   49.9138   57.8441 C   0  0  0  0  0  0  0  0  0  0  0  0
   67.8724   48.7932   57.6390 C   0  0  0  0  0  0  0  0  0  0  0  0
   68.8763   48.7870   56.7148 C   0  0  0  0  0  0  0  0  0  0  0  0
   69.1529   49.8939   55.9653 C   0  0  0  0  0  0  0  0  0  0  0  0
   68.4023   51.0340   56.1489 C   0  0  0  0  0  0  0  0  0  0  0  0
   67.3847   51.0341   57.0876 C   0  0  0  0  0  0  0  0  0  0  0  0
 14 15  1  0
 15 16  2  0
 15 20  1  0
 16 17  1  0
 17 18  2  0
 18  1  1  0
 18 19  1  0
  1  2  1  0
  1  5  2  0
  2  3  2  0
  3  4  1  0
  4  5  1  0
  5  6  1  0
  6  7  2  0
  6 12  1  0
  7  8  1  0
  8  9  2  0
  9 10  1  0
  9 11  1  0
 11 12  2  0
 12 13  1  0
 19 20  2  0
M  END
>  <minimizedAffinity>  (314) 
-8.97836

$$$$
data/reference_output_2/data/smiles/114897.pdb
     RDKit          3D

 25 27  0  0  0  0  0  0  0  0999 V2000
   68.7632   42.0979   57.7714 C   0  0  1  0  0  0  0  0  0  0  0  0
   67.9589   41.0926   56.9741 C   0  0  0  0  0  0  0  0  0  0  0  0
   68.3182   39.8268   57.6624 C   0  0  0  0  0  0  0  0  0  0  0  0
   67.7452   38.7245   57.4908 O   0  0  0  0  0  0  0  0  0  0  0  0
   69.4085   40.0403   58.5493 N   0  0  0  0  0  0  0  0  0  0  0  0
   70.0095   41.3011   58.0847 C   0  0  0  0  0  0  0  0  0  0  0  0
   68.0703   43.9862   56.2058 N   0  0  0  0  0  0  0  0  0  0  0  0
   69.0521   43.3176   56.9829 C   0  0  0  0  0  0  0  0  0  0  0  0
   70.2183   43.7864   56.9983 O   0  0  0  0  0  0  0  0  0  0  0  0
   68.1874   46.2300   53.2676 C   0  0  0  0  0  0  0  0  0  0  0  0
   68.7767   47.3511   53.8021 C   0  0  0  0  0  0  0  0  0  0  0  0
   69.1375   47.3728   55.1314 C   0  0  0  0  0  0  0  0  0  0  0  0
   68.9257   46.2946   55.9554 C   0  0  0  0  0  0  0  0  0  0  0  0
   68.3359   45.1578   55.4447 C   0  0  0  0  0  0  0  0  0  0  0  0
   67.9802   45.1504   54.1129 C   0  0  0  0  0  0  0  0  0  0  0  0
   66.9119   45.3747   51.4989 O   0  0  0  0  0  0  0  0  0  0  0  0
   67.7925   46.1743   51.8607 C   0  0  0  0  0  0  0  0  0  0  0  0
   68.3815   46.9944   50.9217 O   0  0  0  0  0  0  0  0  0  0  0  0
   69.8390   39.2152   59.6575 C   0  0  0  0  0  0  0  0  0  0  0  0
   70.6353   38.0688   59.1493 C   0  0  0  0  0  0  0  0  0  0  0  0
   70.4520   36.8109   59.7199 C   0  0  0  0  0  0  0  0  0  0  0  0
   71.1712   35.7094   59.2805 C   0  0  0  0  0  0  0  0  0  0  0  0
   72.0690   35.9220   58.2582 C   0  0  0  0  0  0  0  0  0  0  0  0
   72.2558   37.1662   57.6884 C   0  0  0  0  0  0  0  0  0  0  0  0
   71.5422   38.2541   58.1260 C   0  0  0  0  0  0  0  0  0  0  0  0
 16 17  2  0
 17 18  1  0
 17 10  1  0
 10 11  2  0
 10 15  1  0
 11 12  1  0
 12 13  2  0
 13 14  1  0
 14  7  1  0
 14 15  2  0
  7  8  1  0
  8  9  2  0
  1  8  1  6
  1  2  1  0
  1  6  1  0
  2  3  1  0
  3  4  2  0
  3  5  1  0
  5 19  1  0
  5  6  1  0
 19 20  1  0
 20 21  2  0
 20 25  1  0
 21 22  1  0
 22 23  2  0
 23 24  1  0
 24 25  2  0
M  END
>  <minimizedAffinity>  (315) 
-9.17062

$$$$
data/reference_output_2/data/smiles/115031.pdb
     RDKit          3D

 27 30  0  0  0  0  0  0  0  0999 V2000
   71.1965   47.8899   58.6595 C   0  0  0  0  0  0  0  0  0  0  0  0
   71.0634   46.1856   58.5512 C   0  0  0  0  0  0  0  0  0  0  0  0
   70.2686   45.5857   57.7312 C   0  0  0  0  0  0  0  0  0  0  0  0
   69.4169   46.2151   56.8279 C   0  0  0  0  0  0  0  0  0  0  0  0
   69.4806   47.5901   56.8685 N   0  0  0  0  0  0  0  0  0  0  0  0
   70.3442   47.9983   57.7634 C   0  0  0  0  0  0  0  0  0  0  0  0
   70.2900   49.4373   57.6846 O   0  0  0  0  0  0  0  0  0  0  0  0
   73.5831   47.5119   61.6959 C   0  0  0  0  0  0  0  0  0  0  0  0
   72.2661   47.5826   61.0307 N   0  0  0  0  0  0  0  0  0  0  0  0
   72.1607   47.7635   59.6749 C   0  0  0  0  0  0  0  0  0  0  0  0
   73.4100   47.8783   59.1436 O   0  0  0  0  0  0  0  0  0  0  0  0
   70.1810   44.0825   57.6552 C   0  0  0  0  0  0  0  0  0  0  0  0
   71.1964   43.4336   57.9579 O   0  0  0  0  0  0  0  0  0  0  0  0
   69.0116   43.4175   57.2590 N   0  0  0  0  0  0  0  0  0  0  0  0
   68.8920   41.9819   57.1751 C   0  0  0  0  0  0  0  0  0  0  0  0
   67.7275   41.3833   56.4526 C   0  0  0  0  0  0  0  0  0  0  0  0
   67.9305   41.2118   57.9627 C   0  0  0  0  0  0  0  0  0  0  0  0
   68.6812   48.4120   56.0164 C   0  0  0  0  0  0  0  0  0  0  0  0
   69.1618   48.3784   54.6244 C   0  0  0  0  0  0  0  0  0  0  0  0
   70.1566   49.1985   54.1123 C   0  0  0  0  0  0  0  0  0  0  0  0
   70.5927   49.0565   52.8153 C   0  0  0  0  0  0  0  0  0  0  0  0
   70.0685   48.1026   51.9644 C   0  0  0  0  0  0  0  0  0  0  0  0
   69.0664   47.2632   52.4396 C   0  0  0  0  0  0  0  0  0  0  0  0
   68.3425   46.2413   51.8335 C   0  0  0  0  0  0  0  0  0  0  0  0
   67.4832   45.8031   52.7965 C   0  0  0  0  0  0  0  0  0  0  0  0
   67.6804   46.5295   53.9409 N   0  0  0  0  0  0  0  0  0  0  0  0
   68.6435   47.4200   53.7367 C   0  0  0  0  0  0  0  0  0  0  0  0
  8  9  1  0
  9 10  1  0
 10 11  2  0
 10  1  1  0
  1  2  2  0
  1  6  1  0
  2  3  1  0
  3 12  1  0
  3  4  2  0
 12 13  2  0
 12 14  1  0
 14 15  1  0
 15 16  1  0
 15 17  1  0
 16 17  1  0
  4  5  1  0
  5 18  1  0
  5  6  1  0
 18 19  1  0
 19 20  2  0
 19 27  1  0
 20 21  1  0
 21 22  2  0
 22 23  1  0
 23 24  1  0
 23 27  2  0
 24 25  2  0
 25 26  1  0
 26 27  1  0
  6  7  2  0
M  END
>  <minimizedAffinity>  (316) 
-8.53051

$$$$
data/reference_output_2/data/smiles/115189.pdb
     RDKit          3D

 20 22  0  0  0  0  0  0  0  0999 V2000
   71.6625   49.8370   53.6049 O   0  0  0  0  0  0  0  0  0  0  0  0
   70.4618   49.7683   53.2484 C   0  0  0  0  0  0  0  0  0  0  0  0
   69.6402   50.8879   53.5630 N   0  0  0  0  0  0  0  0  0  0  0  0
   69.9617   48.5946   52.5521 C   0  0  0  0  0  0  0  0  0  0  0  0
   70.2400   48.1357   51.3224 N   0  0  0  0  0  0  0  0  0  0  0  0
   69.5545   47.0185   51.0860 N   0  0  0  0  0  0  0  0  0  0  0  0
   68.8010   46.7056   52.1528 C   0  0  0  0  0  0  0  0  0  0  0  0
   69.0589   47.7030   53.0823 C   0  0  0  0  0  0  0  0  0  0  0  0
   68.3430   47.5959   54.3756 C   0  0  0  0  0  0  0  0  0  0  0  0
   68.3361   46.1410   54.7790 C   0  0  0  0  0  0  0  0  0  0  0  0
   67.6694   45.2412   53.8067 C   0  0  0  0  0  0  0  0  0  0  0  0
   67.8877   45.5848   52.3704 C   0  0  0  0  0  0  0  0  0  0  0  0
   70.1415   52.0567   54.2584 C   0  0  0  0  0  0  0  0  0  0  0  0
   69.0720   52.5441   55.1892 C   0  0  0  0  0  0  0  0  0  0  0  0
   68.9962   51.8323   56.4626 C   0  0  0  0  0  0  0  0  0  0  0  0
   70.1264   51.6144   57.1322 C   0  0  0  0  0  0  0  0  0  0  0  0
   70.0500   50.8817   58.4425 C   0  0  0  0  0  0  0  0  0  0  0  0
   69.2330   49.6448   58.2256 C   0  0  0  0  0  0  0  0  0  0  0  0
   68.0026   49.8492   57.4108 C   0  0  0  0  0  0  0  0  0  0  0  0
   67.7780   51.3152   57.1052 C   0  0  0  0  0  0  0  0  0  0  0  0
  1  2  2  0
  2  3  1  0
  2  4  1  0
  3 13  1  0
 13 14  1  0
 14 15  1  0
 15 16  2  0
 15 20  1  0
 16 17  1  0
 17 18  1  0
 18 19  1  0
 19 20  1  0
  4  5  2  0
  4  8  1  0
  5  6  1  0
  6  7  1  0
  7  8  2  0
  7 12  1  0
  8  9  1  0
  9 10  1  0
 10 11  1  0
 11 12  1  0
M  END
>  <minimizedAffinity>  (317) 
-8.65129

$$$$
data/reference_output_2/data/smiles/115222.pdb
     RDKit          3D

 24 26  0  0  0  0  0  0  0  0999 V2000
   68.1037   43.0319   56.3467 C   0  0  0  0  0  0  0  0  0  0  0  0
   67.0519   42.8642   55.6700 O   0  0  0  0  0  0  0  0  0  0  0  0
   68.6299   44.3542   56.3237 N   0  0  0  0  0  0  0  0  0  0  0  0
   68.0444   40.8333   57.4703 C   0  0  0  0  0  0  0  0  0  0  0  0
   68.6753   41.9065   57.0725 C   0  0  0  0  0  0  0  0  0  0  0  0
   69.6627   37.5151   59.6488 C   0  0  0  0  0  0  0  0  0  0  0  0
   70.4933   38.3188   58.8970 C   0  0  0  0  0  0  0  0  0  0  0  0
   69.9721   39.3930   58.1931 C   0  0  0  0  0  0  0  0  0  0  0  0
   68.6399   39.7142   58.1991 C   0  0  0  0  0  0  0  0  0  0  0  0
   67.8222   38.9033   58.9540 C   0  0  0  0  0  0  0  0  0  0  0  0
   68.3183   37.8258   59.6660 C   0  0  0  0  0  0  0  0  0  0  0  0
   71.1271   35.5486   59.8813 C   0  0  0  0  0  0  0  0  0  0  0  0
   70.1615   36.4203   60.3710 O   0  0  0  0  0  0  0  0  0  0  0  0
   68.0511   45.3937   55.6212 N   0  0  0  0  0  0  0  0  0  0  0  0
   68.1599   45.8607   54.3324 C   0  0  0  0  0  0  0  0  0  0  0  0
   67.6179   45.1067   53.3070 N   0  0  0  0  0  0  0  0  0  0  0  0
   67.6508   45.4217   52.0481 N   0  0  0  0  0  0  0  0  0  0  0  0
   68.2316   46.5386   51.6125 C   0  0  0  0  0  0  0  0  0  0  0  0
   68.8005   47.3488   52.5857 C   0  0  0  0  0  0  0  0  0  0  0  0
   69.4296   48.5254   52.2169 C   0  0  0  0  0  0  0  0  0  0  0  0
   70.0171   49.3657   53.1340 C   0  0  0  0  0  0  0  0  0  0  0  0
   69.9680   49.0107   54.4455 C   0  0  0  0  0  0  0  0  0  0  0  0
   69.3591   47.8562   54.8744 C   0  0  0  0  0  0  0  0  0  0  0  0
   68.7716   47.0214   53.9454 C   0  0  0  0  0  0  0  0  0  0  0  0
 12 13  1  0
 13  6  1  0
  6  7  2  0
  6 11  1  0
  7  8  1  0
  8  9  2  0
  9  4  1  0
  9 10  1  0
  4  5  2  0
  5  1  1  0
  1  2  2  0
  1  3  1  0
  3 14  1  0
 14 15  1  0
 15 16  2  0
 15 24  1  0
 16 17  1  0
 17 18  2  0
 18 19  1  0
 19 20  1  0
 19 24  2  0
 20 21  2  0
 21 22  1  0
 22 23  2  0
 23 24  1  0
 10 11  2  0
M  END
>  <minimizedAffinity>  (318) 
-8.70649

$$$$
data/reference_output_2/data/smiles/115315.pdb
     RDKit          3D

 25 27  0  0  0  0  0  0  0  0999 V2000
   68.2506   42.0511   57.0540 C   0  0  0  0  0  0  0  0  0  0  0  0
   67.1441   41.9157   56.3019 N   0  0  0  0  0  0  0  0  0  0  0  0
   67.0266   42.9866   55.5092 N   0  0  0  0  0  0  0  0  0  0  0  0
   68.0262   43.8294   55.7147 N   0  0  0  0  0  0  0  0  0  0  0  0
   68.7882   43.2613   56.6677 C   0  0  0  0  0  0  0  0  0  0  0  0
   69.9741   43.8193   57.2026 N   0  0  0  0  0  0  0  0  0  0  0  0
   68.2534   45.0780   55.0674 C   0  0  0  0  0  0  0  0  0  0  0  0
   68.6232   46.1885   55.8155 C   0  0  0  0  0  0  0  0  0  0  0  0
   68.8491   47.4086   55.2115 C   0  0  0  0  0  0  0  0  0  0  0  0
   68.7110   47.5486   53.8463 C   0  0  0  0  0  0  0  0  0  0  0  0
   68.3451   46.4641   53.0771 C   0  0  0  0  0  0  0  0  0  0  0  0
   68.2044   46.6460   51.6073 C   0  0  0  0  0  0  0  0  0  0  0  0
   68.1294   45.2683   53.7119 C   0  0  0  0  0  0  0  0  0  0  0  0
   68.9160   39.7583   57.8197 N   0  0  0  0  0  0  0  0  0  0  0  0
   68.7891   41.1426   58.0600 C   0  0  0  0  0  0  0  0  0  0  0  0
   69.1506   41.5957   59.1705 O   0  0  0  0  0  0  0  0  0  0  0  0
   69.4320   38.7861   58.7363 C   0  0  0  0  0  0  0  0  0  0  0  0
   70.9257   38.6923   58.5699 C   0  0  0  0  0  0  0  0  0  0  0  0
   72.8596   33.2569   58.0477 C   0  0  0  0  0  0  0  0  0  0  0  0
   72.3364   34.6447   58.2199 C   0  0  0  0  0  0  0  0  0  0  0  0
   71.5019   34.9949   59.2606 C   0  0  0  0  0  0  0  0  0  0  0  0
   71.0364   36.2974   59.3852 C   0  0  0  0  0  0  0  0  0  0  0  0
   71.3800   37.2822   58.4931 C   0  0  0  0  0  0  0  0  0  0  0  0
   72.2263   36.9240   57.4395 C   0  0  0  0  0  0  0  0  0  0  0  0
   72.6858   35.6285   57.3211 C   0  0  0  0  0  0  0  0  0  0  0  0
 19 20  1  0
 20 21  2  0
 20 25  1  0
 21 22  1  0
 22 23  2  0
 23 18  1  0
 23 24  1  0
 18 17  1  0
 17 14  1  0
 14 15  1  0
 15 16  2  0
 15  1  1  0
  1  2  1  0
  1  5  2  0
  2  3  2  0
  3  4  1  0
  4  7  1  0
  4  5  1  0
  7  8  2  0
  7 13  1  0
  8  9  1  0
  9 10  2  0
 10 11  1  0
 11 12  1  0
 11 13  2  0
  5  6  1  0
 24 25  2  0
M  END
>  <minimizedAffinity>  (319) 
-9.05611

$$$$
data/reference_output_2/data/smiles/115337.pdb
     RDKit          3D

 25 27  0  0  0  0  0  0  0  0999 V2000
   68.0692   43.5105   55.7868 N   0  0  0  0  0  0  0  0  0  0  0  0
   67.5962   42.3694   56.1893 C   0  0  0  0  0  0  0  0  0  0  0  0
   68.4444   41.4857   57.0082 C   0  0  0  0  0  0  0  0  0  0  0  0
   68.0202   40.1903   57.2382 C   0  0  0  0  0  0  0  0  0  0  0  0
   68.7508   39.2980   58.0132 C   0  0  0  0  0  0  0  0  0  0  0  0
   69.9537   39.7051   58.5871 C   0  0  0  0  0  0  0  0  0  0  0  0
   70.3713   40.9756   58.3636 C   0  0  0  0  0  0  0  0  0  0  0  0
   69.6277   41.8759   57.5772 C   0  0  0  0  0  0  0  0  0  0  0  0
   70.6652   38.7598   59.3693 N   0  0  0  0  0  0  0  0  0  0  0  0
   72.1319   38.7208   59.4045 C   0  0  0  0  0  0  0  0  0  0  0  0
   72.4972   37.5815   58.4629 C   0  0  0  0  0  0  0  0  0  0  0  0
   71.5061   36.4400   58.6317 C   0  0  0  0  0  0  0  0  0  0  0  0
   70.8525   36.4784   59.9972 C   0  0  0  0  0  0  0  0  0  0  0  0
   70.0223   37.7319   60.1842 C   0  0  0  0  0  0  0  0  0  0  0  0
   67.3993   44.4399   55.0191 N   0  0  0  0  0  0  0  0  0  0  0  0
   69.2518   47.9678   53.5187 C   0  0  0  0  0  0  0  0  0  0  0  0
   68.7199   47.0033   52.6852 C   0  0  0  0  0  0  0  0  0  0  0  0
   68.1258   45.8616   53.1872 C   0  0  0  0  0  0  0  0  0  0  0  0
   68.0393   45.6401   54.5607 C   0  0  0  0  0  0  0  0  0  0  0  0
   68.5653   46.5928   55.3860 C   0  0  0  0  0  0  0  0  0  0  0  0
   69.1690   47.7515   54.8809 C   0  0  0  0  0  0  0  0  0  0  0  0
   69.9587   49.3397   51.1178 N   0  0  0  0  0  0  0  0  0  0  0  0
   69.9867   49.4280   52.8643 S   0  0  0  0  0  0  0  0  0  0  0  0
   71.4459   49.4024   53.2475 O   0  0  0  0  0  0  0  0  0  0  0  0
   69.3163   50.6629   53.3417 O   0  0  0  0  0  0  0  0  0  0  0  0
 22 23  1  0
 23 24  2  0
 23 25  2  0
 23 16  1  0
 16 17  2  0
 16 21  1  0
 17 18  1  0
 18 19  2  0
 19 15  1  0
 19 20  1  0
 15  1  1  0
  1  2  2  0
  2  3  1  0
  3  4  2  0
  3  8  1  0
  4  5  1  0
  5  6  2  0
  6  9  1  0
  6  7  1  0
  9 10  1  0
  9 14  1  0
 10 11  1  0
 11 12  1  0
 12 13  1  0
 13 14  1  0
  7  8  2  0
 20 21  2  0
M  END
>  <minimizedAffinity>  (320) 
-9.31157

$$$$
data/reference_output_2/data/smiles/115578.pdb
     RDKit          3D

 29 32  0  0  0  0  0  0  0  0999 V2000
   71.8326   49.0242   59.2046 C   0  0  0  0  0  0  0  0  0  0  0  0
   73.0699   49.3581   58.4167 C   0  0  0  0  0  0  0  0  0  0  0  0
   72.8655   49.5443   56.9531 C   0  0  0  0  0  0  0  0  0  0  0  0
   71.7828   50.3643   56.6656 N   0  0  0  0  0  0  0  0  0  0  0  0
   71.0823   50.8913   57.7553 C   0  0  0  0  0  0  0  0  0  0  0  0
   70.6038   49.6969   58.6004 C   0  0  0  0  0  0  0  0  0  0  0  0
   71.6543   47.1179   60.6125 O   0  0  0  0  0  0  0  0  0  0  0  0
   71.6319   47.5735   59.4214 C   0  0  0  0  0  0  0  0  0  0  0  0
   71.4102   46.6315   58.3809 N   0  0  0  0  0  0  0  0  0  0  0  0
   71.2247   45.2533   58.6137 C   0  0  0  0  0  0  0  0  0  0  0  0
   70.0739   44.8171   59.1311 N   0  0  0  0  0  0  0  0  0  0  0  0
   69.8852   43.4903   59.3595 C   0  0  0  0  0  0  0  0  0  0  0  0
   70.8758   42.5996   59.0578 C   0  0  0  0  0  0  0  0  0  0  0  0
   72.0750   43.0361   58.5204 C   0  0  0  0  0  0  0  0  0  0  0  0
   72.2395   44.3822   58.3009 C   0  0  0  0  0  0  0  0  0  0  0  0
   73.4640   44.8098   57.7545 O   0  0  0  0  0  0  0  0  0  0  0  0
   71.1934   50.5176   55.1176 S   0  0  0  0  0  0  0  0  0  0  0  0
   70.4927   51.7809   54.8078 O   0  0  0  0  0  0  0  0  0  0  0  0
   72.3570   50.4081   54.1405 O   0  0  0  0  0  0  0  0  0  0  0  0
   70.1573   49.1261   54.7512 C   0  0  0  0  0  0  0  0  0  0  0  0
   69.5849   48.3721   55.7590 C   0  0  0  0  0  0  0  0  0  0  0  0
   68.7780   47.2871   55.4475 C   0  0  0  0  0  0  0  0  0  0  0  0
   68.5377   46.9477   54.1232 C   0  0  0  0  0  0  0  0  0  0  0  0
   67.7493   45.8846   53.7487 C   0  0  0  0  0  0  0  0  0  0  0  0
   67.5235   45.5622   52.4264 C   0  0  0  0  0  0  0  0  0  0  0  0
   68.0934   46.3129   51.4234 C   0  0  0  0  0  0  0  0  0  0  0  0
   68.8844   47.3796   51.7837 C   0  0  0  0  0  0  0  0  0  0  0  0
   69.1024   47.6909   53.1094 C   0  0  0  0  0  0  0  0  0  0  0  0
   69.8896   48.7516   53.4520 C   0  0  0  0  0  0  0  0  0  0  0  0
  7  8  2  0
  8  9  1  0
  8  1  1  0
  9 10  1  0
 10 11  2  0
 10 15  1  0
 11 12  1  0
 12 13  2  0
 13 14  1  0
 14 15  2  0
 15 16  1  0
  1  2  1  0
  1  6  1  0
  2  3  1  0
  3  4  1  0
  4 17  1  0
  4  5  1  0
 17 18  2  0
 17 19  2  0
 17 20  1  0
 20 21  2  0
 20 29  1  0
 21 22  1  0
 22 23  2  0
 23 24  1  0
 23 28  1  0
 24 25  2  0
 25 26  1  0
 26 27  2  0
 27 28  1  0
 28 29  2  0
  5  6  1  0
M  END
>  <minimizedAffinity>  (321) 
-8.74625

$$$$
data/reference_output_2/data/smiles/115691.pdb
     RDKit          3D

 31 35  0  0  0  0  0  0  0  0999 V2000
   71.4783   48.8989   57.5407 C   0  0  0  0  0  0  0  0  0  0  0  0
   70.0092   48.6836   57.5501 C   0  0  0  0  0  0  0  0  0  0  0  0
   69.0815   49.6407   57.2227 C   0  0  0  0  0  0  0  0  0  0  0  0
   67.8561   48.9588   57.3184 C   0  0  0  0  0  0  0  0  0  0  0  0
   68.1096   47.6921   57.6830 N   0  0  0  0  0  0  0  0  0  0  0  0
   69.4174   47.5119   57.8275 N   0  0  0  0  0  0  0  0  0  0  0  0
   70.0335   46.2838   58.2045 C   0  0  0  0  0  0  0  0  0  0  0  0
   69.7492   45.1224   57.6003 N   0  0  0  0  0  0  0  0  0  0  0  0
   70.3323   43.9306   57.9514 C   0  0  0  0  0  0  0  0  0  0  0  0
   71.2494   43.8894   58.9581 C   0  0  0  0  0  0  0  0  0  0  0  0
   71.5422   45.1138   59.5885 C   0  0  0  0  0  0  0  0  0  0  0  0
   72.3884   45.0801   60.5192 O   0  0  0  0  0  0  0  0  0  0  0  0
   70.9374   46.2462   59.1980 N   0  0  0  0  0  0  0  0  0  0  0  0
   71.7469   42.5192   59.1706 C   0  0  0  0  0  0  0  0  0  0  0  0
   71.2453   41.7546   57.9856 C   0  0  0  0  0  0  0  0  0  0  0  0
   70.1348   42.5605   57.3926 C   0  0  0  0  0  0  0  0  0  0  0  0
   69.2782   51.0338   56.9025 C   0  0  0  0  0  0  0  0  0  0  0  0
   69.4489   51.8332   57.9022 O   0  0  0  0  0  0  0  0  0  0  0  0
   69.3078   51.5761   55.6263 N   0  0  0  0  0  0  0  0  0  0  0  0
   69.5058   53.0503   55.5268 C   0  0  0  0  0  0  0  0  0  0  0  0
   69.2054   50.8844   54.3993 C   0  0  0  0  0  0  0  0  0  0  0  0
   70.2400   49.9112   53.9911 C   0  0  0  0  0  0  0  0  0  0  0  0
   69.9011   48.8585   53.0426 C   0  0  0  0  0  0  0  0  0  0  0  0
   70.3235   48.7293   51.7153 C   0  0  0  0  0  0  0  0  0  0  0  0
   69.8311   47.5826   51.2125 N   0  0  0  0  0  0  0  0  0  0  0  0
   69.1064   46.9560   52.1462 C   0  0  0  0  0  0  0  0  0  0  0  0
   68.4155   45.7742   52.1242 C   0  0  0  0  0  0  0  0  0  0  0  0
   67.7350   45.3277   53.2290 C   0  0  0  0  0  0  0  0  0  0  0  0
   67.7599   46.1031   54.3889 C   0  0  0  0  0  0  0  0  0  0  0  0
   68.4551   47.2936   54.4161 C   0  0  0  0  0  0  0  0  0  0  0  0
   69.1296   47.7189   53.2904 C   0  0  0  0  0  0  0  0  0  0  0  0
  1  2  1  0
  2  3  2  0
  2  6  1  0
  3 17  1  0
  3  4  1  0
 17 18  2  0
 17 19  1  0
 19 20  1  0
 19 21  1  0
 21 22  1  0
 22 23  1  0
 23 24  2  0
 23 31  1  0
 24 25  1  0
 25 26  1  0
 26 27  1  0
 26 31  2  0
 27 28  2  0
 28 29  1  0
 29 30  2  0
 30 31  1  0
  4  5  2  0
  5  6  1  0
  6  7  1  0
  7  8  2  0
  7 13  1  0
  8  9  1  0
  9 10  2  0
  9 16  1  0
 10 11  1  0
 10 14  1  0
 11 12  2  0
 11 13  1  0
 14 15  1  0
 15 16  1  0
M  END
>  <minimizedAffinity>  (322) 
-9.10765

$$$$
data/reference_output_2/data/smiles/115705.pdb
     RDKit          3D

 20 21  0  0  0  0  0  0  0  0999 V2000
   69.2953   47.7372   52.9376 C   0  0  0  0  0  0  0  0  0  0  0  0
   69.2739   47.6634   54.3182 C   0  0  0  0  0  0  0  0  0  0  0  0
   68.5427   46.7215   54.9863 C   0  0  0  0  0  0  0  0  0  0  0  0
   67.7972   45.8074   54.2231 C   0  0  0  0  0  0  0  0  0  0  0  0
   67.8341   45.8985   52.8645 C   0  0  0  0  0  0  0  0  0  0  0  0
   68.5673   46.8450   52.1884 C   0  0  0  0  0  0  0  0  0  0  0  0
   68.5508   46.8706   50.8216 O   0  0  0  0  0  0  0  0  0  0  0  0
   70.1059   48.7799   52.3197 C   0  0  0  0  0  0  0  0  0  0  0  0
   70.3910   48.6899   51.1007 O   0  0  0  0  0  0  0  0  0  0  0  0
   69.6871   50.9377   53.3234 C   0  0  0  0  0  0  0  0  0  0  0  0
   70.5670   49.8646   53.0483 O   0  0  0  0  0  0  0  0  0  0  0  0
   68.4512   46.5985   56.3860 N   0  0  0  0  0  0  0  0  0  0  0  0
   69.0893   47.4621   57.3299 C   0  0  0  0  0  0  0  0  0  0  0  0
   68.5564   48.8473   57.3170 C   0  0  0  0  0  0  0  0  0  0  0  0
   69.2902   49.9614   57.0234 C   0  0  0  0  0  0  0  0  0  0  0  0
   68.7483   51.2329   57.0567 C   0  0  0  0  0  0  0  0  0  0  0  0
   67.4429   51.4464   57.3879 C   0  0  0  0  0  0  0  0  0  0  0  0
   66.6702   50.3492   57.6907 C   0  0  0  0  0  0  0  0  0  0  0  0
   67.2163   49.0881   57.6553 C   0  0  0  0  0  0  0  0  0  0  0  0
   66.4564   47.9519   57.9590 O   0  0  0  0  0  0  0  0  0  0  0  0
 10 11  1  0
 11  8  1  0
  8  9  2  0
  8  1  1  0
  1  2  2  0
  1  6  1  0
  2  3  1  0
  3 12  1  0
  3  4  2  0
 12 13  1  0
 13 14  1  0
 14 15  2  0
 14 19  1  0
 15 16  1  0
 16 17  2  0
 17 18  1  0
 18 19  2  0
 19 20  1  0
  4  5  1  0
  5  6  2  0
  6  7  1  0
M  END
>  <minimizedAffinity>  (323) 
-8.65002

$$$$
data/reference_output_2/data/smiles/115778.pdb
     RDKit          3D

 26 28  0  0  0  0  0  0  0  0999 V2000
   70.2872   49.6052   54.2836 C   0  0  0  0  0  0  0  0  0  0  0  0
   70.0274   49.0620   55.5687 C   0  0  0  0  0  0  0  0  0  0  0  0
   69.3975   47.9044   55.4819 N   0  0  0  0  0  0  0  0  0  0  0  0
   69.2145   47.6305   54.1851 C   0  0  0  0  0  0  0  0  0  0  0  0
   68.6177   46.5373   53.5544 C   0  0  0  0  0  0  0  0  0  0  0  0
   68.5373   46.4291   52.1844 C   0  0  0  0  0  0  0  0  0  0  0  0
   69.0743   47.4555   51.4625 C   0  0  0  0  0  0  0  0  0  0  0  0
   69.6712   48.5492   52.0728 C   0  0  0  0  0  0  0  0  0  0  0  0
   69.7553   48.6660   53.4432 C   0  0  0  0  0  0  0  0  0  0  0  0
   70.0762   52.0924   54.0892 C   0  0  0  0  0  0  0  0  0  0  0  0
   70.9767   50.8362   54.1146 C   0  0  0  0  0  0  0  0  0  0  0  0
   72.1545   51.0684   54.0177 N   0  0  0  0  0  0  0  0  0  0  0  0
   73.2583   50.3956   53.9864 N   0  0  0  0  0  0  0  0  0  0  0  0
   74.3449   50.5712   54.9384 C   0  0  0  0  0  0  0  0  0  0  0  0
   75.5312   49.7980   54.8466 N   0  0  0  0  0  0  0  0  0  0  0  0
   74.2595   51.4123   55.8661 O   0  0  0  0  0  0  0  0  0  0  0  0
   68.8933   46.9517   56.8179 S   0  0  0  0  0  0  0  0  0  0  0  0
   67.6540   47.5484   57.4369 O   0  0  0  0  0  0  0  0  0  0  0  0
   68.4925   45.5714   56.3253 O   0  0  0  0  0  0  0  0  0  0  0  0
   70.1532   46.7405   58.0029 C   0  0  0  0  0  0  0  0  0  0  0  0
   70.6246   45.5039   58.3618 C   0  0  0  0  0  0  0  0  0  0  0  0
   71.6343   45.4031   59.3266 C   0  0  0  0  0  0  0  0  0  0  0  0
   72.1871   46.5058   59.9417 C   0  0  0  0  0  0  0  0  0  0  0  0
   73.2625   46.3841   60.9684 C   0  0  0  0  0  0  0  0  0  0  0  0
   71.7041   47.7429   59.5712 C   0  0  0  0  0  0  0  0  0  0  0  0
   70.7103   47.8597   58.6241 C   0  0  0  0  0  0  0  0  0  0  0  0
 10 11  1  0
 11 12  2  0
 11  1  1  0
 12 13  1  0
 13 14  1  0
 14 15  1  0
 14 16  2  0
  1  2  2  0
  1  9  1  0
  2  3  1  0
  3 17  1  0
  3  4  1  0
 17 18  2  0
 17 19  2  0
 17 20  1  0
 20 21  2  0
 20 26  1  0
 21 22  1  0
 22 23  2  0
 23 24  1  0
 23 25  1  0
 25 26  2  0
  4  5  1  0
  4  9  2  0
  5  6  2  0
  6  7  1  0
  7  8  2  0
  8  9  1  0
M  END
>  <minimizedAffinity>  (324) 
-8.69750

$$$$
data/reference_output_2/data/smiles/116088.pdb
     RDKit          3D

 23 25  0  0  0  0  0  0  0  0999 V2000
   68.6768   43.5261   56.6967 C   0  0  0  0  0  0  0  0  0  0  0  0
   69.7171   43.9914   57.4059 N   0  0  0  0  0  0  0  0  0  0  0  0
   69.8531   45.2954   57.1904 N   0  0  0  0  0  0  0  0  0  0  0  0
   68.8772   45.6411   56.3316 C   0  0  0  0  0  0  0  0  0  0  0  0
   68.1887   44.5454   56.0575 O   0  0  0  0  0  0  0  0  0  0  0  0
   67.5315   41.7097   55.7326 O   0  0  0  0  0  0  0  0  0  0  0  0
   68.2270   42.1226   56.6890 C   0  0  0  0  0  0  0  0  0  0  0  0
   68.5439   41.2173   57.7149 N   0  0  0  0  0  0  0  0  0  0  0  0
   68.1491   39.8294   57.7908 C   0  0  0  0  0  0  0  0  0  0  0  0
   69.1341   38.9634   58.4700 C   0  0  0  0  0  0  0  0  0  0  0  0
   70.4572   38.9934   58.1406 C   0  0  0  0  0  0  0  0  0  0  0  0
   71.4032   38.1830   58.7806 C   0  0  0  0  0  0  0  0  0  0  0  0
   70.9418   37.3340   59.7759 C   0  0  0  0  0  0  0  0  0  0  0  0
   69.6149   37.2871   60.1223 C   0  0  0  0  0  0  0  0  0  0  0  0
   68.7075   38.1125   59.4589 C   0  0  0  0  0  0  0  0  0  0  0  0
   68.5882   46.9934   55.7666 C   0  0  0  0  0  0  0  0  0  0  0  0
   68.5469   46.8701   54.2906 C   0  0  0  0  0  0  0  0  0  0  0  0
   69.2656   47.7170   53.4797 C   0  0  0  0  0  0  0  0  0  0  0  0
   69.2319   47.6066   52.0945 C   0  0  0  0  0  0  0  0  0  0  0  0
   68.4682   46.6354   51.4795 C   0  0  0  0  0  0  0  0  0  0  0  0
   67.7474   45.7856   52.2876 C   0  0  0  0  0  0  0  0  0  0  0  0
   66.9946   44.8279   51.7050 F   0  0  0  0  0  0  0  0  0  0  0  0
   67.7842   45.8979   53.6606 C   0  0  0  0  0  0  0  0  0  0  0  0
  6  7  2  0
  7  8  1  0
  7  1  1  0
  8  9  1  0
  9 10  1  0
 10 11  2  0
 10 15  1  0
 11 12  1  0
 12 13  2  0
 13 14  1  0
 14 15  2  0
  1  2  2  0
  1  5  1  0
  2  3  1  0
  3  4  2  0
  4 16  1  0
  4  5  1  0
 16 17  1  0
 17 18  2  0
 17 23  1  0
 18 19  1  0
 19 20  2  0
 20 21  1  0
 21 22  1  0
 21 23  2  0
M  END
>  <minimizedAffinity>  (325) 
-8.79396

$$$$
data/reference_output_2/data/smiles/116398.pdb
     RDKit          3D

 22 25  0  0  0  0  0  0  0  0999 V2000
   70.4174   51.6082   52.7849 O   0  0  0  0  0  0  0  0  0  0  0  0
   70.6615   50.4205   53.6991 S   0  0  0  0  0  0  0  0  0  0  0  0
   72.1549   50.3917   53.8962 O   0  0  0  0  0  0  0  0  0  0  0  0
   69.8086   50.6901   55.1778 C   0  0  0  0  0  0  0  0  0  0  0  0
   68.6193   51.4015   55.1786 C   0  0  0  0  0  0  0  0  0  0  0  0
   67.8869   51.6334   56.3172 C   0  0  0  0  0  0  0  0  0  0  0  0
   68.3203   51.1550   57.5340 C   0  0  0  0  0  0  0  0  0  0  0  0
   69.5049   50.4391   57.5748 C   0  0  0  0  0  0  0  0  0  0  0  0
   69.9168   49.9756   58.8081 C   0  0  0  0  0  0  0  0  0  0  0  0
   71.0894   49.2732   58.8516 C   0  0  0  0  0  0  0  0  0  0  0  0
   71.8332   49.0341   57.7225 C   0  0  0  0  0  0  0  0  0  0  0  0
   71.3848   49.5142   56.5150 C   0  0  0  0  0  0  0  0  0  0  0  0
   70.2257   50.2181   56.4102 C   0  0  0  0  0  0  0  0  0  0  0  0
   70.1057   49.0400   52.8476 N   0  0  0  0  0  0  0  0  0  0  0  0
   70.3869   48.7802   51.5808 N   0  0  0  0  0  0  0  0  0  0  0  0
   69.8345   47.6420   51.1980 N   0  0  0  0  0  0  0  0  0  0  0  0
   69.1729   47.1481   52.2524 C   0  0  0  0  0  0  0  0  0  0  0  0
   68.4303   45.9925   52.3903 C   0  0  0  0  0  0  0  0  0  0  0  0
   67.8585   45.7493   53.6222 C   0  0  0  0  0  0  0  0  0  0  0  0
   68.0224   46.6262   54.6743 C   0  0  0  0  0  0  0  0  0  0  0  0
   68.7690   47.7736   54.5122 C   0  0  0  0  0  0  0  0  0  0  0  0
   69.3525   48.0423   53.2895 C   0  0  0  0  0  0  0  0  0  0  0  0
  1  2  2  0
  2  3  2  0
  2  4  1  0
  2 14  1  0
  4  5  2  0
  4 13  1  0
  5  6  1  0
  6  7  2  0
  7  8  1  0
  8  9  1  0
  8 13  2  0
  9 10  2  0
 10 11  1  0
 11 12  2  0
 12 13  1  0
 14 15  1  0
 14 22  1  0
 15 16  2  0
 16 17  1  0
 17 18  1  0
 17 22  2  0
 18 19  2  0
 19 20  1  0
 20 21  2  0
 21 22  1  0
M  END
>  <minimizedAffinity>  (326) 
-8.72477

$$$$
data/reference_output_2/data/smiles/116424.pdb
     RDKit          3D

 26 28  0  0  0  0  0  0  0  0999 V2000
   72.8218   51.9756   55.3296 C   0  0  0  0  0  0  0  0  0  0  0  0
   73.0395   53.1742   55.9701 C   0  0  0  0  0  0  0  0  0  0  0  0
   74.2308   53.5224   56.2191 O   0  0  0  0  0  0  0  0  0  0  0  0
   72.0713   53.9858   56.3382 O   0  0  0  0  0  0  0  0  0  0  0  0
   70.8202   53.7005   56.1128 C   0  0  0  0  0  0  0  0  0  0  0  0
   69.8528   54.6196   56.5372 O   0  0  0  0  0  0  0  0  0  0  0  0
   70.4451   52.5347   55.4800 C   0  0  0  0  0  0  0  0  0  0  0  0
   69.1152   52.2562   55.2629 C   0  0  0  0  0  0  0  0  0  0  0  0
   68.7995   51.0767   54.6354 C   0  0  0  0  0  0  0  0  0  0  0  0
   69.7593   50.1962   54.2334 C   0  0  0  0  0  0  0  0  0  0  0  0
   71.1088   50.5128   54.4718 C   0  0  0  0  0  0  0  0  0  0  0  0
   71.4747   51.6696   55.0885 C   0  0  0  0  0  0  0  0  0  0  0  0
   69.4701   48.9328   53.5649 C   0  0  0  0  0  0  0  0  0  0  0  0
   69.7246   48.7412   52.2054 C   0  0  0  0  0  0  0  0  0  0  0  0
   69.4466   47.5414   51.5916 C   0  0  0  0  0  0  0  0  0  0  0  0
   68.9096   46.5134   52.3312 C   0  0  0  0  0  0  0  0  0  0  0  0
   68.6439   46.6595   53.6730 C   0  0  0  0  0  0  0  0  0  0  0  0
   67.9612   45.2921   54.5245 Cl  0  0  0  0  0  0  0  0  0  0  0  0
   68.9269   47.8607   54.2641 C   0  0  0  0  0  0  0  0  0  0  0  0
   74.8573   50.6632   55.9467 N   0  0  0  0  0  0  0  0  0  0  0  0
   73.8919   51.0753   54.9640 C   0  0  0  0  0  0  0  0  0  0  0  0
   74.0859   50.5769   53.8226 O   0  0  0  0  0  0  0  0  0  0  0  0
   75.9294   49.7608   55.5559 C   0  0  0  0  0  0  0  0  0  0  0  0
   78.2048   49.5381   56.1937 O   0  0  0  0  0  0  0  0  0  0  0  0
   77.2588   50.3070   55.8943 C   0  0  0  0  0  0  0  0  0  0  0  0
   77.5148   51.6688   55.8972 O   0  0  0  0  0  0  0  0  0  0  0  0
 24 25  2  0
 25 26  1  0
 25 23  1  0
 23 20  1  0
 20 21  1  0
 21 22  2  0
 21  1  1  0
  1  2  1  0
  1 12  2  0
  2  3  2  0
  2  4  1  0
  4  5  1  0
  5  6  1  0
  5  7  2  0
  7  8  1  0
  7 12  1  0
  8  9  2  0
  9 10  1  0
 10 13  1  0
 10 11  2  0
 13 14  2  0
 13 19  1  0
 14 15  1  0
 15 16  2  0
 16 17  1  0
 17 18  1  0
 17 19  2  0
 11 12  1  0
M  END
>  <minimizedAffinity>  (327) 
-8.54170

$$$$
data/reference_output_2/data/smiles/116460.pdb
     RDKit          3D

 28 30  0  0  0  0  0  0  0  0999 V2000
   71.3881   42.5071   58.3393 C   0  0  2  0  0  0  0  0  0  0  0  0
   72.8988   42.7314   58.1282 C   0  0  0  0  0  0  0  0  0  0  0  0
   73.3748   44.0294   58.6815 C   0  0  0  0  0  0  0  0  0  0  0  0
   72.3148   45.0432   58.9516 C   0  0  0  0  0  0  0  0  0  0  0  0
   71.1365   44.9192   58.0576 C   0  0  0  0  0  0  0  0  0  0  0  0
   70.4988   46.0056   57.5076 C   0  0  0  0  0  0  0  0  0  0  0  0
   69.4058   45.8672   56.6816 C   0  0  0  0  0  0  0  0  0  0  0  0
   68.9582   44.6052   56.4141 C   0  0  0  0  0  0  0  0  0  0  0  0
   69.5803   43.5257   56.9522 C   0  0  0  0  0  0  0  0  0  0  0  0
   70.6836   43.6338   57.7873 C   0  0  0  0  0  0  0  0  0  0  0  0
   68.6734   47.3181   56.0380 S   0  0  0  0  0  0  0  0  0  0  0  0
   67.2680   47.4290   56.5620 O   0  0  0  0  0  0  0  0  0  0  0  0
   69.4911   48.4904   56.5179 O   0  0  0  0  0  0  0  0  0  0  0  0
   68.7036   47.1927   54.2997 C   0  0  0  0  0  0  0  0  0  0  0  0
   67.9062   46.2692   53.6645 C   0  0  0  0  0  0  0  0  0  0  0  0
   67.9253   46.1634   52.2750 C   0  0  0  0  0  0  0  0  0  0  0  0
   68.7507   46.9925   51.5255 C   0  0  0  0  0  0  0  0  0  0  0  0
   69.5464   47.9148   52.1549 C   0  0  0  0  0  0  0  0  0  0  0  0
   70.3384   48.7088   51.4170 F   0  0  0  0  0  0  0  0  0  0  0  0
   69.5121   48.0023   53.5265 C   0  0  0  0  0  0  0  0  0  0  0  0
   71.1129   42.0037   59.6976 C   0  0  0  0  0  0  0  0  0  0  0  0
   69.1918   42.7416   61.2104 C   0  0  0  0  0  0  0  0  0  0  0  0
   69.9218   43.4057   61.9766 O   0  0  0  0  0  0  0  0  0  0  0  0
   69.7553   42.0496   60.1099 N   0  0  0  0  0  0  0  0  0  0  0  0
   67.4224   42.1933   62.8605 C   0  0  0  0  0  0  0  0  0  0  0  0
   67.7152   42.6681   61.4444 C   0  0  0  0  0  0  0  0  0  0  0  0
   67.0794   41.7650   60.4131 C   0  0  0  0  0  0  0  0  0  0  0  0
   67.1729   43.9284   61.3035 O   0  0  0  0  0  0  0  0  0  0  0  0
 25 26  1  0
 26 27  1  0
 26 28  1  0
 26 22  1  0
 22 23  2  0
 22 24  1  0
 24 21  1  0
  1 21  1  1
  1  2  1  0
  1 10  1  0
  2  3  1  0
  3  4  1  0
  4  5  1  0
  5  6  1  0
  5 10  2  0
  6  7  2  0
  7 11  1  0
  7  8  1  0
 11 12  2  0
 11 13  2  0
 11 14  1  0
 14 15  2  0
 14 20  1  0
 15 16  1  0
 16 17  2  0
 17 18  1  0
 18 19  1  0
 18 20  2  0
  8  9  2  0
  9 10  1  0
M  END
>  <minimizedAffinity>  (328) 
-8.78016

$$$$
data/reference_output_2/data/smiles/116510.pdb
     RDKit          3D

 26 28  0  0  0  0  0  0  0  0999 V2000
   68.2927   41.8052   57.1373 C   0  0  0  0  0  0  0  0  0  0  0  0
   67.8213   40.5284   57.1093 C   0  0  0  0  0  0  0  0  0  0  0  0
   68.2967   39.4718   57.8689 C   0  0  0  0  0  0  0  0  0  0  0  0
   69.3287   39.7283   58.7329 C   0  0  0  0  0  0  0  0  0  0  0  0
   69.8276   41.0097   58.8090 C   0  0  0  0  0  0  0  0  0  0  0  0
   69.3170   42.0441   58.0085 C   0  0  0  0  0  0  0  0  0  0  0  0
   68.4674   44.0456   56.0535 N   0  0  0  0  0  0  0  0  0  0  0  0
   67.8480   42.8086   56.1377 C   0  0  0  0  0  0  0  0  0  0  0  0
   66.9080   42.5935   55.3631 O   0  0  0  0  0  0  0  0  0  0  0  0
   68.8442   47.7505   54.2030 C   0  0  0  0  0  0  0  0  0  0  0  0
   68.3445   46.7124   53.4873 C   0  0  0  0  0  0  0  0  0  0  0  0
   68.1268   45.4683   54.0575 C   0  0  0  0  0  0  0  0  0  0  0  0
   68.4121   45.2456   55.3982 C   0  0  0  0  0  0  0  0  0  0  0  0
   68.9173   46.3612   56.1076 C   0  0  0  0  0  0  0  0  0  0  0  0
   69.1353   47.5989   55.5345 C   0  0  0  0  0  0  0  0  0  0  0  0
   69.1811   49.0548   53.4611 C   0  0  0  0  0  0  0  0  0  0  0  0
   70.4500   48.5211   51.1881 N   0  0  0  0  0  0  0  0  0  0  0  0
   69.8433   48.7635   52.2705 C   0  0  0  0  0  0  0  0  0  0  0  0
   70.0622   38.4149   59.6537 S   0  0  0  0  0  0  0  0  0  0  0  0
   70.9957   38.9196   60.6594 O   0  0  0  0  0  0  0  0  0  0  0  0
   68.9068   37.7049   60.3022 O   0  0  0  0  0  0  0  0  0  0  0  0
   70.7623   37.2707   58.5428 N   0  0  0  0  0  0  0  0  0  0  0  0
   72.1626   37.6727   58.1913 C   0  0  0  0  0  0  0  0  0  0  0  0
   72.6331   36.3579   57.5432 C   0  0  0  0  0  0  0  0  0  0  0  0
   72.0384   35.3024   58.4985 C   0  0  0  0  0  0  0  0  0  0  0  0
   71.2686   36.1549   59.4371 C   0  0  0  0  0  0  0  0  0  0  0  0
 17 18  3  0
 18 16  1  0
 16 10  1  0
 10 11  2  0
 10 15  1  0
 11 12  1  0
 12 13  2  0
 13  7  1  0
 13 14  1  0
  7  8  1  0
  8  9  2  0
  8  1  1  0
  1  2  2  0
  1  6  1  0
  2  3  1  0
  3  4  2  0
  4 19  1  0
  4  5  1  0
 19 20  2  0
 19 21  2  0
 19 22  1  0
 22 23  1  0
 22 26  1  0
 23 24  1  0
 24 25  1  0
 25 26  1  0
  5  6  2  0
 14 15  2  0
M  END
>  <minimizedAffinity>  (329) 
-8.64980

$$$$
data/reference_output_2/data/smiles/116666.pdb
     RDKit          3D

 27 31  0  0  0  0  0  0  0  0999 V2000
   69.4162   43.2617   57.1815 C   0  0  0  0  0  0  0  0  0  0  0  0
   68.2146   42.9225   56.3878 C   0  0  0  0  0  0  0  0  0  0  0  0
   67.5012   41.7481   56.5202 C   0  0  0  0  0  0  0  0  0  0  0  0
   66.4792   41.8600   55.5973 C   0  0  0  0  0  0  0  0  0  0  0  0
   66.6088   43.0434   54.9709 N   0  0  0  0  0  0  0  0  0  0  0  0
   67.6548   43.7055   55.4341 N   0  0  0  0  0  0  0  0  0  0  0  0
   68.1338   44.9946   55.0340 C   0  0  0  0  0  0  0  0  0  0  0  0
   68.3654   45.3430   53.7670 N   0  0  0  0  0  0  0  0  0  0  0  0
   68.8156   46.5718   53.4703 C   0  0  0  0  0  0  0  0  0  0  0  0
   69.0436   47.4923   54.4828 C   0  0  0  0  0  0  0  0  0  0  0  0
   68.8072   47.1370   55.7877 C   0  0  0  0  0  0  0  0  0  0  0  0
   69.0085   47.9580   56.7165 O   0  0  0  0  0  0  0  0  0  0  0  0
   68.3566   45.8893   56.0119 N   0  0  0  0  0  0  0  0  0  0  0  0
   69.5357   48.7738   53.9136 C   0  0  0  0  0  0  0  0  0  0  0  0
   69.2937   48.6652   52.4347 C   0  0  0  0  0  0  0  0  0  0  0  0
   69.1387   47.1748   52.1570 C   0  0  0  0  0  0  0  0  0  0  0  0
   67.7764   40.6446   57.4347 C   0  0  0  0  0  0  0  0  0  0  0  0
   68.4276   39.6598   56.9805 O   0  0  0  0  0  0  0  0  0  0  0  0
   67.3233   40.6984   58.7718 N   0  0  0  0  0  0  0  0  0  0  0  0
   66.6144   41.3938   59.8791 C   0  0  0  0  0  0  0  0  0  0  0  0
   67.2246   40.0806   60.0819 C   0  0  1  0  0  0  0  0  0  0  0  0
   66.4133   38.8380   60.2080 C   0  0  0  0  0  0  0  0  0  0  0  0
   66.9756   37.5786   60.1760 C   0  0  0  0  0  0  0  0  0  0  0  0
   66.1926   36.4341   60.2959 C   0  0  0  0  0  0  0  0  0  0  0  0
   64.8259   36.5215   60.4502 C   0  0  0  0  0  0  0  0  0  0  0  0
   64.2486   37.7782   60.4830 C   0  0  0  0  0  0  0  0  0  0  0  0
   65.0382   38.9055   60.3630 C   0  0  0  0  0  0  0  0  0  0  0  0
  1  2  1  0
  2  3  2  0
  2  6  1  0
  3 17  1  0
  3  4  1  0
 17 18  2  0
 17 19  1  0
 19 20  1  0
 19 21  1  0
 20 21  1  0
 21 22  1  6
 22 23  2  0
 22 27  1  0
 23 24  1  0
 24 25  2  0
 25 26  1  0
 26 27  2  0
  4  5  2  0
  5  6  1  0
  6  7  1  0
  7  8  2  0
  7 13  1  0
  8  9  1  0
  9 10  2  0
  9 16  1  0
 10 11  1  0
 10 14  1  0
 11 12  2  0
 11 13  1  0
 14 15  1  0
 15 16  1  0
M  END
>  <minimizedAffinity>  (330) 
-8.65787

$$$$
data/reference_output_2/data/smiles/116800.pdb
     RDKit          3D

 27 31  0  0  0  0  0  0  0  0999 V2000
   70.3218   43.3487   57.7254 C   0  0  0  0  0  0  0  0  0  0  0  0
   71.5869   42.8257   57.9028 C   0  0  0  0  0  0  0  0  0  0  0  0
   71.8002   41.4788   58.1217 C   0  0  0  0  0  0  0  0  0  0  0  0
   70.7514   40.5869   58.1744 C   0  0  0  0  0  0  0  0  0  0  0  0
   69.4859   41.1040   57.9979 C   0  0  0  0  0  0  0  0  0  0  0  0
   69.2747   42.4513   57.7787 C   0  0  0  0  0  0  0  0  0  0  0  0
   70.9831   39.1621   58.4071 C   0  0  0  0  0  0  0  0  0  0  0  0
   70.4161   38.4126   59.4155 C   0  0  0  0  0  0  0  0  0  0  0  0
   70.8836   37.1058   59.3024 C   0  0  0  0  0  0  0  0  0  0  0  0
   70.6662   35.9441   60.0144 C   0  0  0  0  0  0  0  0  0  0  0  0
   71.2855   34.7661   59.6567 C   0  0  0  0  0  0  0  0  0  0  0  0
   72.1263   34.8105   58.5586 C   0  0  0  0  0  0  0  0  0  0  0  0
   72.3475   35.9650   57.8447 C   0  0  0  0  0  0  0  0  0  0  0  0
   71.7266   37.1463   58.2031 C   0  0  0  0  0  0  0  0  0  0  0  0
   71.7549   38.3623   57.7125 O   0  0  0  0  0  0  0  0  0  0  0  0
   69.2448   46.6444   56.7449 N   0  0  0  0  0  0  0  0  0  0  0  0
   70.2193   46.9558   57.6051 C   0  0  0  0  0  0  0  0  0  0  0  0
   70.7335   45.7615   58.0698 C   0  0  0  0  0  0  0  0  0  0  0  0
   70.0778   44.7326   57.4979 N   0  0  0  0  0  0  0  0  0  0  0  0
   69.1682   45.3044   56.6881 C   0  0  0  0  0  0  0  0  0  0  0  0
   68.4256   47.6172   56.0117 C   0  0  0  0  0  0  0  0  0  0  0  0
   68.9569   46.8128   51.8333 C   0  0  0  0  0  0  0  0  0  0  0  0
   69.6441   47.8240   52.4864 C   0  0  0  0  0  0  0  0  0  0  0  0
   69.4757   48.0855   53.8309 C   0  0  0  0  0  0  0  0  0  0  0  0
   68.5955   47.3215   54.5636 C   0  0  0  0  0  0  0  0  0  0  0  0
   67.9107   46.3153   53.9151 C   0  0  0  0  0  0  0  0  0  0  0  0
   68.0792   46.0526   52.5663 C   0  0  0  0  0  0  0  0  0  0  0  0
 22 23  2  0
 22 27  1  0
 23 24  1  0
 24 25  2  0
 25 21  1  0
 25 26  1  0
 21 16  1  0
 16 17  1  0
 16 20  2  0
 17 18  2  0
 18 19  1  0
 19  1  1  0
 19 20  1  0
  1  2  2  0
  1  6  1  0
  2  3  1  0
  3  4  2  0
  4  7  1  0
  4  5  1  0
  7  8  2  0
  7 15  1  0
  8  9  1  0
  9 10  2  0
  9 14  1  0
 10 11  1  0
 11 12  2  0
 12 13  1  0
 13 14  2  0
 14 15  1  0
  5  6  2  0
 26 27  2  0
M  CHG  1  16   1
M  END
>  <minimizedAffinity>  (331) 
-9.54791

$$$$
data/reference_output_2/data/smiles/116841.pdb
     RDKit          3D

 29 32  0  0  0  0  0  0  0  0999 V2000
   70.7611   46.1086   58.1706 C   0  0  0  0  0  0  0  0  0  0  0  0
   69.8434   46.8847   57.4754 C   0  0  0  0  0  0  0  0  0  0  0  0
   70.0565   48.1889   57.0923 C   0  0  0  0  0  0  0  0  0  0  0  0
   71.2457   48.7965   57.4026 C   0  0  0  0  0  0  0  0  0  0  0  0
   72.1799   48.0550   58.0925 C   0  0  0  0  0  0  0  0  0  0  0  0
   71.9465   46.7275   58.4747 C   0  0  0  0  0  0  0  0  0  0  0  0
   72.9135   46.0608   59.1584 F   0  0  0  0  0  0  0  0  0  0  0  0
   70.8832   43.5698   57.8963 N   0  0  0  0  0  0  0  0  0  0  0  0
   70.4324   44.7407   58.5120 C   0  0  0  0  0  0  0  0  0  0  0  0
   69.6287   44.5597   59.4961 O   0  0  0  0  0  0  0  0  0  0  0  0
   72.7092   41.6538   58.9771 N   0  0  0  0  0  0  0  0  0  0  0  0
   71.5864   41.2256   58.1426 C   0  0  1  0  0  0  0  0  0  0  0  0
   71.1102   39.8767   58.5686 C   0  0  0  0  0  0  0  0  0  0  0  0
   69.6433   39.7959   58.8560 C   0  0  0  0  0  0  0  0  0  0  0  0
   68.7893   40.4698   57.8122 C   0  0  0  0  0  0  0  0  0  0  0  0
   69.3254   41.8233   57.4250 C   0  0  0  0  0  0  0  0  0  0  0  0
   70.4969   42.2291   58.3138 C   0  0  2  0  0  0  0  0  0  0  0  0
   68.9785   48.8893   56.3239 C   0  0  0  0  0  0  0  0  0  0  0  0
   69.3287   48.8262   54.8990 C   0  0  0  0  0  0  0  0  0  0  0  0
   70.1073   49.7948   54.3548 N   0  0  0  0  0  0  0  0  0  0  0  0
   70.5052   49.7978   53.0968 N   0  0  0  0  0  0  0  0  0  0  0  0
   70.1386   48.8050   52.2871 C   0  0  0  0  0  0  0  0  0  0  0  0
   70.5019   48.7786   51.0850 O   0  0  0  0  0  0  0  0  0  0  0  0
   69.3406   47.7591   52.7407 C   0  0  0  0  0  0  0  0  0  0  0  0
   68.9419   47.8016   54.0843 C   0  0  0  0  0  0  0  0  0  0  0  0
   68.0909   46.7934   54.5918 N   0  0  0  0  0  0  0  0  0  0  0  0
   67.8843   45.5962   53.7879 C   0  0  0  0  0  0  0  0  0  0  0  0
   67.7131   45.9932   52.3290 C   0  0  0  0  0  0  0  0  0  0  0  0
   68.9612   46.6620   51.8348 C   0  0  0  0  0  0  0  0  0  0  0  0
 12 11  1  1
 12 13  1  0
 12 17  1  0
 13 14  1  0
 14 15  1  0
 15 16  1  0
 16 17  1  0
 17  8  1  6
  8  9  1  0
  9 10  2  0
  9  1  1  0
  1  2  2  0
  1  6  1  0
  2  3  1  0
  3 18  1  0
  3  4  2  0
 18 19  1  0
 19 20  2  0
 19 25  1  0
 20 21  1  0
 21 22  1  0
 22 23  2  0
 22 24  1  0
 24 25  2  0
 24 29  1  0
 25 26  1  0
 26 27  1  0
 27 28  1  0
 28 29  1  0
  4  5  1  0
  5  6  2  0
  6  7  1  0
M  CHG  1  11   1
M  END
>  <minimizedAffinity>  (332) 
-8.83310

$$$$
data/reference_output_2/data/smiles/116865.pdb
     RDKit          3D

 33 37  0  0  0  0  0  0  0  0999 V2000
   70.4731   34.5330   61.3549 O   0  0  0  0  0  0  0  0  0  0  0  0
   71.0926   34.6887   60.3166 C   0  0  0  0  0  0  0  0  0  0  0  0
   71.9630   33.6767   59.8255 N   0  0  0  0  0  0  0  0  0  0  0  0
   72.5490   34.1152   58.6138 C   0  0  0  0  0  0  0  0  0  0  0  0
   73.4474   33.4981   57.7725 C   0  0  0  0  0  0  0  0  0  0  0  0
   73.9140   34.0861   56.6188 C   0  0  0  0  0  0  0  0  0  0  0  0
   73.4403   35.3473   56.3276 C   0  0  0  0  0  0  0  0  0  0  0  0
   72.5248   36.0120   57.1564 C   0  0  0  0  0  0  0  0  0  0  0  0
   72.0912   35.3964   58.2817 C   0  0  0  0  0  0  0  0  0  0  0  0
   71.1583   35.7784   59.3612 C   0  0  0  0  0  0  0  0  0  0  0  0
   70.4848   36.9445   59.4375 C   0  0  0  0  0  0  0  0  0  0  0  0
   70.5924   37.9138   58.5146 N   0  0  0  0  0  0  0  0  0  0  0  0
   69.9121   39.0698   58.6114 C   0  0  0  0  0  0  0  0  0  0  0  0
   70.0226   39.9822   57.7300 O   0  0  0  0  0  0  0  0  0  0  0  0
   69.0739   39.2863   59.6810 C   0  0  0  0  0  0  0  0  0  0  0  0
   68.4073   40.4385   59.7577 C   0  0  0  0  0  0  0  0  0  0  0  0
   68.9682   38.3242   60.5930 N   0  0  0  0  0  0  0  0  0  0  0  0
   69.6521   37.1286   60.5241 C   0  0  0  0  0  0  0  0  0  0  0  0
   69.4779   36.3163   61.4209 O   0  0  0  0  0  0  0  0  0  0  0  0
   68.5584   41.4613   58.7294 C   0  0  0  0  0  0  0  0  0  0  0  0
   69.4925   42.4378   58.7259 C   0  0  0  0  0  0  0  0  0  0  0  0
   69.5428   43.3450   57.7098 C   0  0  0  0  0  0  0  0  0  0  0  0
   68.6301   43.2995   56.6357 C   0  0  0  0  0  0  0  0  0  0  0  0
   67.7149   42.2983   56.6920 C   0  0  0  0  0  0  0  0  0  0  0  0
   67.6956   41.4272   57.7018 N   0  0  0  0  0  0  0  0  0  0  0  0
   68.7043   44.2048   55.6538 O   0  0  0  0  0  0  0  0  0  0  0  0
   68.3260   45.4714   55.4309 C   0  0  0  0  0  0  0  0  0  0  0  0
   68.3207   45.9897   54.0448 C   0  0  0  0  0  0  0  0  0  0  0  0
   67.5653   45.3643   53.0615 C   0  0  0  0  0  0  0  0  0  0  0  0
   67.5764   45.8182   51.7543 C   0  0  0  0  0  0  0  0  0  0  0  0
   68.3394   46.9113   51.3790 C   0  0  0  0  0  0  0  0  0  0  0  0
   69.0795   47.5248   52.3396 C   0  0  0  0  0  0  0  0  0  0  0  0
   69.0696   47.0668   53.6594 C   0  0  0  0  0  0  0  0  0  0  0  0
  1  2  2  0
  2  3  1  0
  2 10  1  0
  3  4  1  0
  4  5  2  0
  4  9  1  0
  5  6  1  0
  6  7  2  0
  7  8  1  0
  8  9  2  0
  9 10  1  0
 10 11  2  0
 11 12  1  0
 11 18  1  0
 12 13  1  0
 13 14  2  0
 13 15  1  0
 15 16  2  0
 15 17  1  0
 16 20  1  0
 20 21  2  0
 20 25  1  0
 21 22  1  0
 22 23  2  0
 23 26  1  0
 23 24  1  0
 26 27  1  0
 27 28  1  0
 28 29  2  0
 28 33  1  0
 29 30  1  0
 30 31  2  0
 31 32  1  0
 32 33  2  0
 24 25  2  0
 17 18  1  0
 18 19  2  0
M  END
>  <minimizedAffinity>  (333) 
-8.74797

$$$$
data/reference_output_2/data/smiles/117006.pdb
     RDKit          3D

 27 29  0  0  0  0  0  0  0  0999 V2000
   69.2972   46.2847   57.8148 O   0  0  0  0  0  0  0  0  0  0  0  0
   69.5344   48.8646   51.8357 C   0  0  0  0  0  0  0  0  0  0  0  0
   68.8864   47.6484   52.3868 C   0  0  0  0  0  0  0  0  0  0  0  0
   68.1659   46.8374   51.5365 C   0  0  0  0  0  0  0  0  0  0  0  0
   67.5835   45.7225   52.0914 C   0  0  0  0  0  0  0  0  0  0  0  0
   66.9179   44.9714   51.3099 O   0  0  0  0  0  0  0  0  0  0  0  0
   67.6930   45.4220   53.3689 O   0  0  0  0  0  0  0  0  0  0  0  0
   68.3685   46.1648   54.2182 C   0  0  0  0  0  0  0  0  0  0  0  0
   68.4634   45.8166   55.5628 C   0  0  0  0  0  0  0  0  0  0  0  0
   69.1668   46.5858   56.4585 C   0  0  0  0  0  0  0  0  0  0  0  0
   69.7817   47.7340   55.9457 C   0  0  0  0  0  0  0  0  0  0  0  0
   70.6833   48.7304   57.0616 Cl  0  0  0  0  0  0  0  0  0  0  0  0
   69.6795   48.0649   54.6136 C   0  0  0  0  0  0  0  0  0  0  0  0
   68.9742   47.2948   53.7159 C   0  0  0  0  0  0  0  0  0  0  0  0
   70.3859   45.5709   58.3325 C   0  0  0  0  0  0  0  0  0  0  0  0
   70.1005   44.1246   58.5519 C   0  0  0  0  0  0  0  0  0  0  0  0
   69.7061   43.7084   59.6701 O   0  0  0  0  0  0  0  0  0  0  0  0
   70.2593   43.1643   57.5184 N   0  0  0  0  0  0  0  0  0  0  0  0
   69.9685   41.8051   57.8026 C   0  0  0  0  0  0  0  0  0  0  0  0
   70.9498   41.0012   58.3464 C   0  0  0  0  0  0  0  0  0  0  0  0
   70.6681   39.6803   58.6233 C   0  0  0  0  0  0  0  0  0  0  0  0
   69.4416   39.1277   58.3764 C   0  0  0  0  0  0  0  0  0  0  0  0
   68.4663   39.9385   57.8329 C   0  0  0  0  0  0  0  0  0  0  0  0
   68.7206   41.2815   57.5409 C   0  0  0  0  0  0  0  0  0  0  0  0
   67.6450   42.0799   56.9676 C   0  0  0  0  0  0  0  0  0  0  0  0
   67.8174   42.7965   55.7603 N   0  0  0  0  0  0  0  0  0  0  0  0
   66.5521   42.1179   57.5739 O   0  0  0  0  0  0  0  0  0  0  0  0
  2  3  1  0
  3  4  2  0
  3 14  1  0
  4  5  1  0
  5  6  2  0
  5  7  1  0
  7  8  1  0
  8  9  1  0
  8 14  2  0
  9 10  2  0
 10  1  1  0
 10 11  1  0
  1 15  1  0
 15 16  1  0
 16 17  2  0
 16 18  1  0
 18 19  1  0
 19 20  2  0
 19 24  1  0
 20 21  1  0
 21 22  2  0
 22 23  1  0
 23 24  2  0
 24 25  1  0
 25 26  1  0
 25 27  2  0
 11 12  1  0
 11 13  2  0
 13 14  1  0
M  END
>  <minimizedAffinity>  (334) 
-8.56144

$$$$
data/reference_output_2/data/smiles/117089.pdb
     RDKit          3D

 26 28  0  0  0  0  0  0  0  0999 V2000
   72.3473   46.8128   60.2235 C   0  0  0  0  0  0  0  0  0  0  0  0
   71.4061   46.4423   59.1408 C   0  0  0  0  0  0  0  0  0  0  0  0
   71.0815   45.1861   58.8462 N   0  0  0  0  0  0  0  0  0  0  0  0
   70.2081   44.8341   57.8426 C   0  0  0  0  0  0  0  0  0  0  0  0
   69.6707   45.8729   57.1375 C   0  0  0  0  0  0  0  0  0  0  0  0
   68.7844   45.6315   56.1118 O   0  0  0  0  0  0  0  0  0  0  0  0
   69.9678   47.2146   57.3934 C   0  0  0  0  0  0  0  0  0  0  0  0
   69.4240   48.2535   56.6797 C   0  0  0  0  0  0  0  0  0  0  0  0
   69.7448   49.5813   56.9649 C   0  0  0  0  0  0  0  0  0  0  0  0
   70.6287   49.8532   57.9867 C   0  0  0  0  0  0  0  0  0  0  0  0
   71.1807   48.7897   58.7114 C   0  0  0  0  0  0  0  0  0  0  0  0
   70.8495   47.4840   58.4123 C   0  0  0  0  0  0  0  0  0  0  0  0
   69.9495   43.4211   57.6376 C   0  0  0  0  0  0  0  0  0  0  0  0
   70.9080   42.5988   57.4963 O   0  0  0  0  0  0  0  0  0  0  0  0
   68.6620   42.8579   57.5797 N   0  0  0  0  0  0  0  0  0  0  0  0
   68.4791   41.4231   57.3689 C   0  0  0  0  0  0  0  0  0  0  0  0
   67.6198   41.1582   56.2117 C   0  0  0  0  0  0  0  0  0  0  0  0
   67.7569   40.0911   55.5757 O   0  0  0  0  0  0  0  0  0  0  0  0
   66.6570   42.0679   55.8095 O   0  0  0  0  0  0  0  0  0  0  0  0
   68.5382   47.9564   55.6587 O   0  0  0  0  0  0  0  0  0  0  0  0
   68.9091   47.8543   54.3278 C   0  0  0  0  0  0  0  0  0  0  0  0
   68.3279   46.9019   53.5170 C   0  0  0  0  0  0  0  0  0  0  0  0
   68.7001   46.8034   52.1921 C   0  0  0  0  0  0  0  0  0  0  0  0
   69.6459   47.6257   51.6170 C   0  0  0  0  0  0  0  0  0  0  0  0
   70.2172   48.5728   52.4420 C   0  0  0  0  0  0  0  0  0  0  0  0
   69.8558   48.6824   53.7641 C   0  0  0  0  0  0  0  0  0  0  0  0
  1  2  1  0
  2  3  2  0
  2 12  1  0
  3  4  1  0
  4 13  1  0
  4  5  2  0
 13 14  2  0
 13 15  1  0
 15 16  1  0
 16 17  1  0
 17 18  2  0
 17 19  1  0
  5  6  1  0
  5  7  1  0
  7  8  1  0
  7 12  2  0
  8 20  1  0
  8  9  2  0
 20 21  1  0
 21 22  2  0
 21 26  1  0
 22 23  1  0
 23 24  2  0
 24 25  1  0
 25 26  2  0
  9 10  1  0
 10 11  2  0
 11 12  1  0
M  END
>  <minimizedAffinity>  (335) 
-8.56465

$$$$
data/reference_output_2/data/smiles/117098.pdb
     RDKit          3D

 20 21  0  0  0  0  0  0  0  0999 V2000
   69.9503   49.2367   52.4570 S   0  0  0  0  0  0  0  0  0  0  0  0
   69.9780   49.4890   50.9453 O   0  0  0  0  0  0  0  0  0  0  0  0
   71.4072   49.0480   52.8328 O   0  0  0  0  0  0  0  0  0  0  0  0
   68.2774   46.0195   54.1204 C   0  0  0  0  0  0  0  0  0  0  0  0
   67.7087   45.3885   53.0475 C   0  0  0  0  0  0  0  0  0  0  0  0
   67.8201   45.9274   51.7858 C   0  0  0  0  0  0  0  0  0  0  0  0
   68.5158   47.1092   51.6461 C   0  0  0  0  0  0  0  0  0  0  0  0
   69.0948   47.7606   52.7054 C   0  0  0  0  0  0  0  0  0  0  0  0
   68.9801   47.2189   53.9613 C   0  0  0  0  0  0  0  0  0  0  0  0
   67.8850   44.2709   55.5544 O   0  0  0  0  0  0  0  0  0  0  0  0
   68.1627   45.4667   55.4131 N   0  0  0  0  0  0  0  0  0  0  0  0
   68.3592   46.2581   56.5117 O   0  0  0  0  0  0  0  0  0  0  0  0
   69.2862   50.6222   53.1601 N   0  0  0  0  0  0  0  0  0  0  0  0
   69.2124   50.8131   54.5522 C   0  0  0  0  0  0  0  0  0  0  0  0
   68.2878   51.5696   55.2287 C   0  0  0  0  0  0  0  0  0  0  0  0
   68.2941   51.6778   56.6149 C   0  0  0  0  0  0  0  0  0  0  0  0
   69.2283   51.0300   57.3860 C   0  0  0  0  0  0  0  0  0  0  0  0
   69.2552   51.1195   58.7396 F   0  0  0  0  0  0  0  0  0  0  0  0
   70.1640   50.2650   56.7261 C   0  0  0  0  0  0  0  0  0  0  0  0
   70.1603   50.1569   55.3539 C   0  0  0  0  0  0  0  0  0  0  0  0
 10 11  2  0
 11 12  1  0
 11  4  1  0
  4  5  2  0
  4  9  1  0
  5  6  1  0
  6  7  2  0
  7  8  1  0
  8  1  1  0
  8  9  2  0
  1  2  2  0
  1  3  2  0
  1 13  1  0
 13 14  1  0
 14 15  2  0
 14 20  1  0
 15 16  1  0
 16 17  2  0
 17 18  1  0
 17 19  1  0
 19 20  2  0
M  CHG  2  11   1  12  -1
M  END
>  <minimizedAffinity>  (336) 
-8.56125

$$$$
data/reference_output_2/data/smiles/117125.pdb
     RDKit          3D

 25 27  0  0  0  0  0  0  0  0999 V2000
   67.7014   43.0920   55.7564 N   0  0  0  0  0  0  0  0  0  0  0  0
   68.2105   44.4188   55.7977 C   0  0  0  0  0  0  0  0  0  0  0  0
   69.0379   44.7055   56.6741 O   0  0  0  0  0  0  0  0  0  0  0  0
   67.8132   45.4287   54.8836 N   0  0  0  0  0  0  0  0  0  0  0  0
   68.3681   46.7334   54.9912 C   0  0  0  0  0  0  0  0  0  0  0  0
   68.3806   47.4685   56.1578 C   0  0  0  0  0  0  0  0  0  0  0  0
   68.9294   48.7341   56.2255 C   0  0  0  0  0  0  0  0  0  0  0  0
   69.4928   49.3219   55.1137 C   0  0  0  0  0  0  0  0  0  0  0  0
   69.4895   48.6044   53.9374 C   0  0  0  0  0  0  0  0  0  0  0  0
   70.0516   49.1819   52.8156 C   0  0  0  0  0  0  0  0  0  0  0  0
   70.0462   48.4571   51.6368 C   0  0  0  0  0  0  0  0  0  0  0  0
   69.4980   47.1863   51.5619 C   0  0  0  0  0  0  0  0  0  0  0  0
   68.9352   46.6178   52.7000 C   0  0  0  0  0  0  0  0  0  0  0  0
   68.9339   47.3276   53.8823 C   0  0  0  0  0  0  0  0  0  0  0  0
   69.0922   41.3892   58.7856 C   0  0  0  0  0  0  0  0  0  0  0  0
   68.9160   40.0704   58.4753 C   0  0  0  0  0  0  0  0  0  0  0  0
   68.3363   39.7582   57.2629 C   0  0  0  0  0  0  0  0  0  0  0  0
   67.9447   40.7693   56.3828 C   0  0  0  0  0  0  0  0  0  0  0  0
   67.3701   40.3731   55.1843 O   0  0  0  0  0  0  0  0  0  0  0  0
   68.1189   42.1032   56.6875 C   0  0  0  0  0  0  0  0  0  0  0  0
   68.6991   42.3856   57.9038 C   0  0  0  0  0  0  0  0  0  0  0  0
   68.9969   43.1055   61.0265 N   0  0  0  0  0  0  0  0  0  0  0  0
   69.8260   41.7787   60.3234 S   0  0  0  0  0  0  0  0  0  0  0  0
   69.8002   40.5743   61.2420 O   0  0  0  0  0  0  0  0  0  0  0  0
   71.2549   42.1338   60.0843 O   0  0  0  0  0  0  0  0  0  0  0  0
 22 23  1  0
 23 24  2  0
 23 25  2  0
 23 15  1  0
 15 16  2  0
 15 21  1  0
 16 17  1  0
 17 18  2  0
 18 19  1  0
 18 20  1  0
 20  1  1  0
 20 21  2  0
  1  2  1  0
  2  3  2  0
  2  4  1  0
  4  5  1  0
  5  6  2  0
  5 14  1  0
  6  7  1  0
  7  8  2  0
  8  9  1  0
  9 10  1  0
  9 14  2  0
 10 11  2  0
 11 12  1  0
 12 13  2  0
 13 14  1  0
M  END
>  <minimizedAffinity>  (337) 
-8.70471

$$$$
data/reference_output_2/data/smiles/117138.pdb
     RDKit          3D

 23 24  0  0  0  0  0  0  0  0999 V2000
   67.3628   42.9336   55.8108 N   0  0  0  0  0  0  0  0  0  0  0  0
   67.9507   44.0428   55.4825 C   0  0  0  0  0  0  0  0  0  0  0  0
   67.6593   40.2265   55.5436 O   0  0  0  0  0  0  0  0  0  0  0  0
   67.9950   40.6977   56.6573 C   0  0  0  0  0  0  0  0  0  0  0  0
   67.8495   42.0965   56.8144 N   0  0  0  0  0  0  0  0  0  0  0  0
   68.5024   39.8321   57.7129 C   0  0  0  0  0  0  0  0  0  0  0  0
   69.8346   39.9324   58.0492 C   0  0  0  0  0  0  0  0  0  0  0  0
   70.4200   39.1592   59.0360 C   0  0  0  0  0  0  0  0  0  0  0  0
   69.6550   38.2532   59.7138 C   0  0  0  0  0  0  0  0  0  0  0  0
   68.3190   38.1371   59.3922 C   0  0  0  0  0  0  0  0  0  0  0  0
   67.5668   37.2346   60.0696 F   0  0  0  0  0  0  0  0  0  0  0  0
   67.7507   38.9287   58.3926 C   0  0  0  0  0  0  0  0  0  0  0  0
   67.4370   44.8785   54.4580 N   0  0  0  0  0  0  0  0  0  0  0  0
   68.1841   45.9530   53.9808 C   0  0  0  0  0  0  0  0  0  0  0  0
   68.4684   46.9827   54.8875 C   0  0  0  0  0  0  0  0  0  0  0  0
   69.1862   48.1053   54.5500 C   0  0  0  0  0  0  0  0  0  0  0  0
   69.6340   48.1912   53.2490 C   0  0  0  0  0  0  0  0  0  0  0  0
   69.3569   47.1747   52.3401 C   0  0  0  0  0  0  0  0  0  0  0  0
   69.8099   47.2681   51.0306 O   0  0  0  0  0  0  0  0  0  0  0  0
   68.6335   46.0504   52.6915 C   0  0  0  0  0  0  0  0  0  0  0  0
   70.3979   49.3642   52.8504 C   0  0  0  0  0  0  0  0  0  0  0  0
   71.5483   49.5736   53.3037 O   0  0  0  0  0  0  0  0  0  0  0  0
   69.8878   50.2916   51.9580 O   0  0  0  0  0  0  0  0  0  0  0  0
  3  4  2  0
  4  5  1  0
  4  6  1  0
  5  1  1  0
  1  2  2  0
  2 13  1  0
 13 14  1  0
 14 15  2  0
 14 20  1  0
 15 16  1  0
 16 17  2  0
 17 21  1  0
 17 18  1  0
 21 22  2  0
 21 23  1  0
 18 19  1  0
 18 20  2  0
  6  7  2  0
  6 12  1  0
  7  8  1  0
  8  9  2  0
  9 10  1  0
 10 11  1  0
 10 12  2  0
M  END
>  <minimizedAffinity>  (338) 
-8.80341

$$$$
data/reference_output_2/data/smiles/117226.pdb
     RDKit          3D

 20 22  0  0  0  0  0  0  0  0999 V2000
   66.5627   45.1481   50.6993 O   0  0  0  0  0  0  0  0  0  0  0  0
   67.3014   45.8190   51.4636 C   0  0  0  0  0  0  0  0  0  0  0  0
   67.2699   45.5881   52.7994 N   0  0  0  0  0  0  0  0  0  0  0  0
   68.0294   46.2635   53.6625 C   0  0  0  0  0  0  0  0  0  0  0  0
   68.8643   47.2261   53.1556 C   0  0  0  0  0  0  0  0  0  0  0  0
   69.7744   48.1150   53.7314 C   0  0  0  0  0  0  0  0  0  0  0  0
   70.3145   48.8396   52.7264 N   0  0  0  0  0  0  0  0  0  0  0  0
   69.7890   48.4502   51.5609 N   0  0  0  0  0  0  0  0  0  0  0  0
   68.9037   47.4721   51.7861 C   0  0  0  0  0  0  0  0  0  0  0  0
   68.1280   46.7717   50.9482 N   0  0  0  0  0  0  0  0  0  0  0  0
   67.9771   46.0162   55.0392 N   0  0  0  0  0  0  0  0  0  0  0  0
   68.0112   44.7165   55.5381 N   0  0  0  0  0  0  0  0  0  0  0  0
   68.8507   44.2417   56.3691 C   0  0  0  0  0  0  0  0  0  0  0  0
   68.7822   42.8354   56.8264 C   0  0  0  0  0  0  0  0  0  0  0  0
   67.7875   42.0407   56.2603 C   0  0  0  0  0  0  0  0  0  0  0  0
   67.6192   40.7364   56.6103 C   0  0  0  0  0  0  0  0  0  0  0  0
   68.4565   40.1782   57.5537 C   0  0  0  0  0  0  0  0  0  0  0  0
   68.2864   38.8624   57.9094 F   0  0  0  0  0  0  0  0  0  0  0  0
   69.4442   40.9598   58.1168 C   0  0  0  0  0  0  0  0  0  0  0  0
   69.6131   42.3020   57.7540 C   0  0  0  0  0  0  0  0  0  0  0  0
  1  2  2  0
  2  3  1  0
  2 10  1  0
  3  4  2  0
  4 11  1  0
  4  5  1  0
 11 12  1  0
 12 13  2  0
 13 14  1  0
 14 15  2  0
 14 20  1  0
 15 16  1  0
 16 17  2  0
 17 18  1  0
 17 19  1  0
 19 20  2  0
  5  6  1  0
  5  9  2  0
  6  7  2  0
  7  8  1  0
  8  9  1  0
  9 10  1  0
M  END
>  <minimizedAffinity>  (339) 
-8.50234

$$$$
data/reference_output_2/data/smiles/117341.pdb
     RDKit          3D

 26 28  0  0  0  0  0  0  0  0999 V2000
   69.6770   48.4062   56.1441 C   0  0  0  0  0  0  0  0  0  0  0  0
   70.7971   49.1770   55.8412 O   0  0  0  0  0  0  0  0  0  0  0  0
   69.1491   47.7131   54.9521 C   0  0  0  0  0  0  0  0  0  0  0  0
   69.4707   48.1927   53.6907 C   0  0  0  0  0  0  0  0  0  0  0  0
   69.0114   47.5903   52.5388 C   0  0  0  0  0  0  0  0  0  0  0  0
   68.2058   46.4736   52.6018 C   0  0  0  0  0  0  0  0  0  0  0  0
   67.8811   45.9895   53.8499 C   0  0  0  0  0  0  0  0  0  0  0  0
   68.3454   46.6005   55.0142 C   0  0  0  0  0  0  0  0  0  0  0  0
   68.6203   49.3319   56.6359 C   0  0  0  0  0  0  0  0  0  0  0  0
   67.6477   48.8242   57.4703 C   0  0  0  0  0  0  0  0  0  0  0  0
   66.6308   49.6478   57.9629 C   0  0  0  0  0  0  0  0  0  0  0  0
   66.6285   50.9683   57.5957 C   0  0  0  0  0  0  0  0  0  0  0  0
   67.6004   51.4713   56.7634 C   0  0  0  0  0  0  0  0  0  0  0  0
   68.5988   50.6551   56.2820 C   0  0  0  0  0  0  0  0  0  0  0  0
   69.2883   46.5286   57.6234 O   0  0  0  0  0  0  0  0  0  0  0  0
   69.9990   47.5020   57.2677 C   0  0  0  0  0  0  0  0  0  0  0  0
   71.1978   47.6917   58.0529 N   0  0  0  0  0  0  0  0  0  0  0  0
   71.5929   46.9571   59.0744 N   0  0  0  0  0  0  0  0  0  0  0  0
   71.8600   45.8802   59.5530 C   0  0  0  0  0  0  0  0  0  0  0  0
   71.8147   44.5759   58.9274 C   0  0  0  0  0  0  0  0  0  0  0  0
   72.9448   44.0937   58.2524 C   0  0  0  0  0  0  0  0  0  0  0  0
   72.9657   42.8692   57.6404 C   0  0  0  0  0  0  0  0  0  0  0  0
   71.8789   42.0442   57.6560 C   0  0  0  0  0  0  0  0  0  0  0  0
   70.7655   42.5086   58.3166 C   0  0  0  0  0  0  0  0  0  0  0  0
   70.7305   43.7441   58.9387 C   0  0  0  0  0  0  0  0  0  0  0  0
   69.5591   44.1360   59.5854 O   0  0  0  0  0  0  0  0  0  0  0  0
 15 16  2  0
 16 17  1  0
 16  1  1  0
 17 18  1  0
 18 19  2  0
 19 20  1  0
 20 21  2  0
 20 25  1  0
 21 22  1  0
 22 23  2  0
 23 24  1  0
 24 25  2  0
 25 26  1  0
  1  2  1  0
  1  3  1  0
  1  9  1  0
  3  4  2  0
  3  8  1  0
  4  5  1  0
  5  6  2  0
  6  7  1  0
  7  8  2  0
  9 10  2  0
  9 14  1  0
 10 11  1  0
 11 12  2  0
 12 13  1  0
 13 14  2  0
M  END
>  <minimizedAffinity>  (340) 
-8.71961

$$$$
data/reference_output_2/data/smiles/117407.pdb
     RDKit          3D

 27 30  0  0  0  0  0  0  0  0999 V2000
   70.8659   42.4889   57.9421 N   0  0  0  0  0  0  0  0  0  0  0  0
   71.4521   41.4705   58.6471 C   0  0  0  0  0  0  0  0  0  0  0  0
   72.5563   41.7086   59.1975 O   0  0  0  0  0  0  0  0  0  0  0  0
   70.8471   40.2399   58.7452 C   0  0  0  0  0  0  0  0  0  0  0  0
   71.2389   39.0709   59.3913 C   0  0  0  0  0  0  0  0  0  0  0  0
   70.2845   38.1262   59.1826 C   0  0  0  0  0  0  0  0  0  0  0  0
   69.2928   38.6866   58.4107 C   0  0  0  0  0  0  0  0  0  0  0  0
   69.6681   39.9590   58.1683 N   0  0  0  0  0  0  0  0  0  0  0  0
   69.0799   40.9500   57.4726 C   0  0  0  0  0  0  0  0  0  0  0  0
   67.8571   40.6654   56.9081 C   0  0  0  0  0  0  0  0  0  0  0  0
   67.2325   41.6826   56.2202 C   0  0  0  0  0  0  0  0  0  0  0  0
   67.8442   42.9264   56.1253 C   0  0  0  0  0  0  0  0  0  0  0  0
   69.0364   43.1552   56.6916 N   0  0  0  0  0  0  0  0  0  0  0  0
   69.6853   42.1985   57.3698 C   0  0  0  0  0  0  0  0  0  0  0  0
   71.5116   43.7821   57.9147 C   0  0  0  0  0  0  0  0  0  0  0  0
   70.9029   44.8687   58.6946 C   0  0  0  0  0  0  0  0  0  0  0  0
   71.2316   47.1869   58.1844 O   0  0  0  0  0  0  0  0  0  0  0  0
   70.5666   46.1435   58.0595 C   0  0  0  0  0  0  0  0  0  0  0  0
   69.3688   46.1524   57.2371 N   0  0  0  0  0  0  0  0  0  0  0  0
   68.9389   47.3364   56.5616 C   0  0  0  0  0  0  0  0  0  0  0  0
   68.7332   47.0981   55.1149 C   0  0  0  0  0  0  0  0  0  0  0  0
   69.2466   48.0273   54.2042 C   0  0  0  0  0  0  0  0  0  0  0  0
   69.1034   47.8623   52.8458 C   0  0  0  0  0  0  0  0  0  0  0  0
   68.4484   46.7751   52.3149 C   0  0  0  0  0  0  0  0  0  0  0  0
   68.3192   46.6343   50.9695 F   0  0  0  0  0  0  0  0  0  0  0  0
   67.9388   45.8541   53.2019 C   0  0  0  0  0  0  0  0  0  0  0  0
   68.0798   46.0138   54.5856 C   0  0  0  0  0  0  0  0  0  0  0  0
 17 18  2  0
 18 16  1  0
 18 19  1  0
 16 15  1  0
 15  1  1  0
  1  2  1  0
  1 14  1  0
  2  3  2  0
  2  4  1  0
  4  5  2  0
  4  8  1  0
  5  6  1  0
  6  7  2  0
  7  8  1  0
  8  9  1  0
  9 10  1  0
  9 14  2  0
 10 11  2  0
 11 12  1  0
 12 13  2  0
 13 14  1  0
 19 20  1  0
 20 21  1  0
 21 22  2  0
 21 27  1  0
 22 23  1  0
 23 24  2  0
 24 25  1  0
 24 26  1  0
 26 27  2  0
M  END
>  <minimizedAffinity>  (341) 
-8.53571

$$$$
data/reference_output_2/data/smiles/117544.pdb
     RDKit          3D

 24 25  0  0  0  0  0  0  0  0999 V2000
   69.2365   47.8062   55.0258 N   0  0  0  0  0  0  0  0  0  0  0  0
   68.9817   47.7200   52.6174 C   0  0  0  0  0  0  0  0  0  0  0  0
   68.4993   47.0872   51.4935 C   0  0  0  0  0  0  0  0  0  0  0  0
   67.7797   45.9046   51.5746 C   0  0  0  0  0  0  0  0  0  0  0  0
   67.5441   45.3486   52.8148 C   0  0  0  0  0  0  0  0  0  0  0  0
   66.8427   44.1976   52.8783 F   0  0  0  0  0  0  0  0  0  0  0  0
   68.0376   45.9978   53.9382 C   0  0  0  0  0  0  0  0  0  0  0  0
   68.7521   47.1744   53.8587 C   0  0  0  0  0  0  0  0  0  0  0  0
   69.8125   49.8773   50.9175 N   0  0  0  0  0  0  0  0  0  0  0  0
   69.8795   49.1980   52.5034 S   0  0  0  0  0  0  0  0  0  0  0  0
   71.3293   48.9666   52.8291 O   0  0  0  0  0  0  0  0  0  0  0  0
   69.2863   50.2388   53.4390 O   0  0  0  0  0  0  0  0  0  0  0  0
   69.0256   47.1839   56.6141 S   0  0  0  0  0  0  0  0  0  0  0  0
   69.1222   45.6847   56.6566 O   0  0  0  0  0  0  0  0  0  0  0  0
   67.6831   47.5430   57.1785 O   0  0  0  0  0  0  0  0  0  0  0  0
   70.2618   47.8016   57.7225 C   0  0  0  0  0  0  0  0  0  0  0  0
   70.9338   46.9754   58.5043 C   0  0  0  0  0  0  0  0  0  0  0  0
   71.9504   47.4456   59.4226 C   0  0  0  0  0  0  0  0  0  0  0  0
   72.6452   48.6177   59.1009 C   0  0  0  0  0  0  0  0  0  0  0  0
   73.6149   49.1010   59.9388 C   0  0  0  0  0  0  0  0  0  0  0  0
   73.9237   48.4476   61.1065 C   0  0  0  0  0  0  0  0  0  0  0  0
   75.1637   49.0719   62.1681 Cl  0  0  0  0  0  0  0  0  0  0  0  0
   73.2613   47.2878   61.4595 C   0  0  0  0  0  0  0  0  0  0  0  0
   72.2976   46.8305   60.6022 C   0  0  0  0  0  0  0  0  0  0  0  0
  9 10  1  0
 10 11  2  0
 10 12  2  0
 10  2  1  0
  2  3  2  0
  2  8  1  0
  3  4  1  0
  4  5  2  0
  5  6  1  0
  5  7  1  0
  7  8  2  0
  8  1  1  0
  1 13  1  0
 13 14  2  0
 13 15  2  0
 13 16  1  0
 16 17  2  0
 17 18  1  0
 18 19  2  0
 18 24  1  0
 19 20  1  0
 20 21  2  0
 21 22  1  0
 21 23  1  0
 23 24  2  0
M  END
>  <minimizedAffinity>  (342) 
-8.52423

$$$$
data/reference_output_2/data/smiles/117549.pdb
     RDKit          3D

 22 24  0  0  0  0  0  0  0  0999 V2000
   68.2465   45.0245   56.1093 N   0  0  0  0  0  0  0  0  0  0  0  0
   68.3010   45.5984   54.8108 C   0  0  0  0  0  0  0  0  0  0  0  0
   69.0154   46.7116   54.5689 N   0  0  0  0  0  0  0  0  0  0  0  0
   69.0824   47.2749   53.3454 C   0  0  0  0  0  0  0  0  0  0  0  0
   69.7345   48.3931   52.8661 C   0  0  0  0  0  0  0  0  0  0  0  0
   69.3951   48.4291   51.5090 C   0  0  0  0  0  0  0  0  0  0  0  0
   68.5940   47.3898   51.2261 N   0  0  0  0  0  0  0  0  0  0  0  0
   68.3720   46.6460   52.3331 C   0  0  0  0  0  0  0  0  0  0  0  0
   67.6355   45.5016   52.5718 C   0  0  0  0  0  0  0  0  0  0  0  0
   66.9880   44.9204   51.6683 O   0  0  0  0  0  0  0  0  0  0  0  0
   67.6142   44.9972   53.8133 N   0  0  0  0  0  0  0  0  0  0  0  0
   70.6017   49.3528   53.6011 C   0  0  0  0  0  0  0  0  0  0  0  0
   69.8203   50.3384   54.3924 C   0  0  0  0  0  0  0  0  0  0  0  0
   69.7063   51.6520   53.9758 C   0  0  0  0  0  0  0  0  0  0  0  0
   68.9782   52.5609   54.7124 C   0  0  0  0  0  0  0  0  0  0  0  0
   68.3374   52.2036   55.8887 C   0  0  0  0  0  0  0  0  0  0  0  0
   68.4410   50.9064   56.3153 C   0  0  0  0  0  0  0  0  0  0  0  0
   69.1737   49.9899   55.5740 C   0  0  0  0  0  0  0  0  0  0  0  0
   67.7731   50.4745   57.5641 C   0  0  0  0  0  0  0  0  0  0  0  0
   66.6356   51.2472   57.8049 F   0  0  0  0  0  0  0  0  0  0  0  0
   68.6167   50.6639   58.6466 F   0  0  0  0  0  0  0  0  0  0  0  0
   67.4602   49.1341   57.5119 F   0  0  0  0  0  0  0  0  0  0  0  0
  1  2  1  0
  2  3  2  0
  2 11  1  0
  3  4  1  0
  4  5  1  0
  4  8  2  0
  5 12  1  0
  5  6  2  0
 12 13  1  0
 13 14  2  0
 13 18  1  0
 14 15  1  0
 15 16  2  0
 16 17  1  0
 17 19  1  0
 17 18  2  0
 19 20  1  0
 19 21  1  0
 19 22  1  0
  6  7  1  0
  7  8  1  0
  8  9  1  0
  9 10  2  0
  9 11  1  0
M  END
>  <minimizedAffinity>  (343) 
-8.83818

$$$$
data/reference_output_2/data/smiles/117629.pdb
     RDKit          3D

 29 32  0  0  0  0  0  0  0  0999 V2000
   70.8673   44.1220   57.9959 C   0  0  0  0  0  0  0  0  0  0  0  0
   72.1494   43.7136   58.2727 C   0  0  0  0  0  0  0  0  0  0  0  0
   72.4675   42.3598   58.4471 C   0  0  0  0  0  0  0  0  0  0  0  0
   71.5123   41.3740   58.3513 C   0  0  0  0  0  0  0  0  0  0  0  0
   71.7879   40.0335   58.5171 C   0  0  0  0  0  0  0  0  0  0  0  0
   72.9733   39.6897   58.7692 O   0  0  0  0  0  0  0  0  0  0  0  0
   70.8508   39.0651   58.4223 N   0  0  0  0  0  0  0  0  0  0  0  0
   69.5992   39.4863   58.1507 C   0  0  0  0  0  0  0  0  0  0  0  0
   68.7152   38.5819   58.0604 O   0  0  0  0  0  0  0  0  0  0  0  0
   69.2995   40.7877   57.9831 N   0  0  0  0  0  0  0  0  0  0  0  0
   70.2202   41.7676   58.0737 C   0  0  0  0  0  0  0  0  0  0  0  0
   69.9129   43.0996   57.9030 C   0  0  0  0  0  0  0  0  0  0  0  0
   71.1718   37.6926   58.5978 C   0  0  0  0  0  0  0  0  0  0  0  0
   70.6806   36.9885   59.6767 C   0  0  0  0  0  0  0  0  0  0  0  0
   70.9813   35.6475   59.8683 C   0  0  0  0  0  0  0  0  0  0  0  0
   71.7839   34.9701   58.9837 C   0  0  0  0  0  0  0  0  0  0  0  0
   72.2823   35.6612   57.8998 C   0  0  0  0  0  0  0  0  0  0  0  0
   71.9756   36.9975   57.7212 C   0  0  0  0  0  0  0  0  0  0  0  0
   69.3200   45.8812   57.0537 N   0  0  0  0  0  0  0  0  0  0  0  0
   70.4604   45.5080   57.8021 C   0  0  0  0  0  0  0  0  0  0  0  0
   71.1624   46.4098   58.3290 O   0  0  0  0  0  0  0  0  0  0  0  0
   68.8837   47.2466   56.8351 C   0  0  0  0  0  0  0  0  0  0  0  0
   69.7889   49.1953   51.4731 C   0  0  0  0  0  0  0  0  0  0  0  0
   69.5526   48.6940   52.8714 C   0  0  0  0  0  0  0  0  0  0  0  0
   69.9731   49.4242   53.9656 C   0  0  0  0  0  0  0  0  0  0  0  0
   69.7471   48.9465   55.2518 C   0  0  0  0  0  0  0  0  0  0  0  0
   69.0979   47.7336   55.4573 C   0  0  0  0  0  0  0  0  0  0  0  0
   68.6728   46.9940   54.3824 C   0  0  0  0  0  0  0  0  0  0  0  0
   68.9144   47.5006   53.1084 C   0  0  0  0  0  0  0  0  0  0  0  0
 23 24  1  0
 24 25  2  0
 24 29  1  0
 25 26  1  0
 26 27  2  0
 27 22  1  0
 27 28  1  0
 22 19  1  0
 19 20  1  0
 20 21  2  0
 20  1  1  0
  1  2  2  0
  1 12  1  0
  2  3  1  0
  3  4  2  0
  4  5  1  0
  4 11  1  0
  5  6  2  0
  5  7  1  0
  7 13  1  0
  7  8  1  0
 13 14  2  0
 13 18  1  0
 14 15  1  0
 15 16  2  0
 16 17  1  0
 17 18  2  0
  8  9  2  0
  8 10  1  0
 10 11  1  0
 11 12  2  0
 28 29  2  0
M  END
>  <minimizedAffinity>  (344) 
-8.66018

$$$$
data/reference_output_2/data/smiles/117719.pdb
     RDKit          3D

 27 30  0  0  0  0  0  0  0  0999 V2000
   71.7406   50.6989   56.9690 O   0  0  0  0  0  0  0  0  0  0  0  0
   71.0553   49.7248   56.6273 C   0  0  0  0  0  0  0  0  0  0  0  0
   71.2549   48.5308   57.4125 N   0  0  0  0  0  0  0  0  0  0  0  0
   70.5031   47.3478   57.0890 C   0  0  0  0  0  0  0  0  0  0  0  0
   70.3392   46.5045   58.3263 C   0  0  0  0  0  0  0  0  0  0  0  0
   71.6441   46.0816   58.9189 C   0  0  0  0  0  0  0  0  0  0  0  0
   71.4647   45.9687   60.2977 O   0  0  0  0  0  0  0  0  0  0  0  0
   72.7259   47.1238   58.7029 C   0  0  0  0  0  0  0  0  0  0  0  0
   72.1732   48.4961   58.5044 C   0  0  0  0  0  0  0  0  0  0  0  0
   72.1522   44.7762   58.4404 C   0  0  0  0  0  0  0  0  0  0  0  0
   73.4575   44.5002   58.1378 C   0  0  0  0  0  0  0  0  0  0  0  0
   73.8856   43.2762   57.6881 C   0  0  0  0  0  0  0  0  0  0  0  0
   72.9827   42.2446   57.5201 C   0  0  0  0  0  0  0  0  0  0  0  0
   71.6629   42.4967   57.8179 C   0  0  0  0  0  0  0  0  0  0  0  0
   70.7815   41.4736   57.6500 F   0  0  0  0  0  0  0  0  0  0  0  0
   71.2452   43.7311   58.2685 C   0  0  0  0  0  0  0  0  0  0  0  0
   70.1204   49.7678   55.5240 C   0  0  0  0  0  0  0  0  0  0  0  0
   70.5883   49.9459   54.1450 C   0  0  0  0  0  0  0  0  0  0  0  0
   70.2331   48.9906   53.1587 N   0  0  0  0  0  0  0  0  0  0  0  0
   70.6987   48.9494   51.9120 N   0  0  0  0  0  0  0  0  0  0  0  0
   70.1595   47.9706   51.2302 N   0  0  0  0  0  0  0  0  0  0  0  0
   69.3023   47.3167   52.0172 C   0  0  0  0  0  0  0  0  0  0  0  0
   68.4924   46.2255   51.8274 C   0  0  0  0  0  0  0  0  0  0  0  0
   67.7019   45.7279   52.8279 C   0  0  0  0  0  0  0  0  0  0  0  0
   67.7373   46.3510   54.0380 C   0  0  0  0  0  0  0  0  0  0  0  0
   68.5459   47.4441   54.2311 C   0  0  0  0  0  0  0  0  0  0  0  0
   69.3596   47.9775   53.2450 C   0  0  0  0  0  0  0  0  0  0  0  0
  1  2  2  0
  2 17  1  0
  2  3  1  0
 17 18  1  0
 18 19  1  0
 19 20  1  0
 19 27  1  0
 20 21  2  0
 21 22  1  0
 22 23  1  0
 22 27  2  0
 23 24  2  0
 24 25  1  0
 25 26  2  0
 26 27  1  0
  3  4  1  0
  3  9  1  0
  4  5  1  0
  5  6  1  0
  6  7  1  0
  6 10  1  0
  6  8  1  0
 10 11  2  0
 10 16  1  0
 11 12  1  0
 12 13  2  0
 13 14  1  0
 14 15  1  0
 14 16  2  0
  8  9  1  0
M  END
>  <minimizedAffinity>  (345) 
-8.58068

$$$$
data/reference_output_2/data/smiles/117776.pdb
     RDKit          3D

 26 29  0  0  0  0  0  0  0  0999 V2000
   69.3492   50.6142   54.2925 C   0  0  0  0  0  0  0  0  0  0  0  0
   68.6371   51.7321   54.1266 N   0  0  0  0  0  0  0  0  0  0  0  0
   68.3183   52.2025   55.3218 N   0  0  0  0  0  0  0  0  0  0  0  0
   68.8157   51.4008   56.2904 C   0  0  0  0  0  0  0  0  0  0  0  0
   68.7720   51.4358   57.6642 C   0  0  0  0  0  0  0  0  0  0  0  0
   69.3968   50.4422   58.3622 C   0  0  0  0  0  0  0  0  0  0  0  0
   70.0819   49.3840   57.7647 C   0  0  0  0  0  0  0  0  0  0  0  0
   70.0955   49.3955   56.3860 C   0  0  0  0  0  0  0  0  0  0  0  0
   69.4743   50.3856   55.6403 C   0  0  0  0  0  0  0  0  0  0  0  0
   71.4394   49.2878   53.3461 O   0  0  0  0  0  0  0  0  0  0  0  0
   70.0186   49.5983   53.0225 S   0  0  0  0  0  0  0  0  0  0  0  0
   69.9460   50.2979   51.6984 O   0  0  0  0  0  0  0  0  0  0  0  0
   69.1373   48.0885   52.9625 C   0  0  0  0  0  0  0  0  0  0  0  0
   68.9221   47.4567   51.7698 C   0  0  0  0  0  0  0  0  0  0  0  0
   68.2255   46.2608   51.7162 C   0  0  0  0  0  0  0  0  0  0  0  0
   67.7390   45.6929   52.8731 C   0  0  0  0  0  0  0  0  0  0  0  0
   67.0599   44.5221   52.7937 F   0  0  0  0  0  0  0  0  0  0  0  0
   67.9520   46.3243   54.0819 C   0  0  0  0  0  0  0  0  0  0  0  0
   68.6475   47.5119   54.1115 C   0  0  0  0  0  0  0  0  0  0  0  0
   70.7081   48.3789   58.5399 N   0  0  0  0  0  0  0  0  0  0  0  0
   72.1250   48.1329   58.4951 C   0  0  0  0  0  0  0  0  0  0  0  0
   72.8767   49.1719   59.2605 C   0  0  0  0  0  0  0  0  0  0  0  0
   73.5270   48.5572   60.4969 C   0  0  0  0  0  0  0  0  0  0  0  0
   72.4928   47.7611   61.1425 N   0  0  0  0  0  0  0  0  0  0  0  0
   72.3162   46.5251   60.4094 C   0  0  0  0  0  0  0  0  0  0  0  0
   72.4404   46.7209   58.9182 C   0  0  0  0  0  0  0  0  0  0  0  0
 10 11  2  0
 11 12  2  0
 11 13  1  0
 11  1  1  0
 13 14  2  0
 13 19  1  0
 14 15  1  0
 15 16  2  0
 16 17  1  0
 16 18  1  0
 18 19  2  0
  1  2  2  0
  1  9  1  0
  2  3  1  0
  3  4  1  0
  4  5  1  0
  4  9  2  0
  5  6  2  0
  6  7  1  0
  7 20  1  0
  7  8  2  0
 20 21  1  0
 21 22  1  0
 21 26  1  0
 22 23  1  0
 23 24  1  0
 24 25  1  0
 25 26  1  0
  8  9  1  0
M  CHG  1  24   1
M  END
>  <minimizedAffinity>  (346) 
-8.75622

$$$$
data/reference_output_2/data/smiles/117803.pdb
     RDKit          3D

 29 31  0  0  0  0  0  0  0  0999 V2000
   69.5624   45.1918   56.9563 C   0  0  0  0  0  0  0  0  0  0  0  0
   70.6893   45.0271   57.7561 C   0  0  0  0  0  0  0  0  0  0  0  0
   71.0889   43.7771   58.1826 C   0  0  0  0  0  0  0  0  0  0  0  0
   70.3950   42.6380   57.8371 C   0  0  0  0  0  0  0  0  0  0  0  0
   69.2840   42.8366   57.0428 C   0  0  0  0  0  0  0  0  0  0  0  0
   68.9022   44.0672   56.6319 N   0  0  0  0  0  0  0  0  0  0  0  0
   67.7698   44.2089   55.8322 O   0  0  0  0  0  0  0  0  0  0  0  0
   69.0626   46.7876   56.4185 S   0  0  0  0  0  0  0  0  0  0  0  0
   70.0573   47.7972   56.8587 O   0  0  0  0  0  0  0  0  0  0  0  0
   67.7357   47.1642   57.0520 O   0  0  0  0  0  0  0  0  0  0  0  0
   69.3792   47.8749   52.5159 C   0  0  0  0  0  0  0  0  0  0  0  0
   68.5966   46.9396   51.8762 C   0  0  0  0  0  0  0  0  0  0  0  0
   67.9772   45.9820   52.6461 C   0  0  0  0  0  0  0  0  0  0  0  0
   68.1344   45.9605   54.0205 C   0  0  0  0  0  0  0  0  0  0  0  0
   68.9171   46.8927   54.6799 C   0  0  0  0  0  0  0  0  0  0  0  0
   69.5354   47.8493   53.9072 C   0  0  0  0  0  0  0  0  0  0  0  0
   70.7487   48.5543   50.7515 O   0  0  0  0  0  0  0  0  0  0  0  0
   70.0423   48.8940   51.7273 C   0  0  0  0  0  0  0  0  0  0  0  0
   69.8841   50.2237   52.0626 O   0  0  0  0  0  0  0  0  0  0  0  0
   70.7820   41.2985   58.2640 C   0  0  0  0  0  0  0  0  0  0  0  0
   71.9078   41.1417   58.8179 O   0  0  0  0  0  0  0  0  0  0  0  0
   69.9933   40.1535   58.1058 N   0  0  0  0  0  0  0  0  0  0  0  0
   70.3856   38.8440   58.5290 C   0  0  0  0  0  0  0  0  0  0  0  0
   71.4379   38.1977   57.9093 C   0  0  0  0  0  0  0  0  0  0  0  0
   71.8313   36.9262   58.3084 C   0  0  0  0  0  0  0  0  0  0  0  0
   71.1884   36.2666   59.3361 C   0  0  0  0  0  0  0  0  0  0  0  0
   71.5827   35.0198   59.7189 F   0  0  0  0  0  0  0  0  0  0  0  0
   70.1383   36.9143   59.9527 C   0  0  0  0  0  0  0  0  0  0  0  0
   69.7329   38.1946   59.5590 C   0  0  0  0  0  0  0  0  0  0  0  0
 17 18  2  0
 18 19  1  0
 18 11  1  0
 11 12  2  0
 11 16  1  0
 12 13  1  0
 13 14  2  0
 14 15  1  0
 15  8  1  0
 15 16  2  0
  8  9  2  0
  8 10  2  0
  8  1  1  0
  1  2  2  0
  1  6  1  0
  2  3  1  0
  3  4  2  0
  4 20  1  0
  4  5  1  0
 20 21  2  0
 20 22  1  0
 22 23  1  0
 23 24  2  0
 23 29  1  0
 24 25  1  0
 25 26  2  0
 26 27  1  0
 26 28  1  0
 28 29  2  0
  5  6  2  0
  6  7  1  0
M  CHG  2   6   1   7  -1
M  END
>  <minimizedAffinity>  (347) 
-10.02256

$$$$
data/reference_output_2/data/smiles/117850.pdb
     RDKit          3D

 30 32  0  0  0  0  0  0  0  0999 V2000
   68.3795   39.0656   59.7378 C   0  0  0  0  0  0  0  0  0  0  0  0
   68.0260   38.8579   58.4018 C   0  0  0  0  0  0  0  0  0  0  0  0
   67.9737   39.8931   57.4958 C   0  0  0  0  0  0  0  0  0  0  0  0
   68.2642   41.1945   57.8477 C   0  0  0  0  0  0  0  0  0  0  0  0
   68.6115   41.4012   59.1624 C   0  0  0  0  0  0  0  0  0  0  0  0
   68.6724   40.3827   60.0891 C   0  0  0  0  0  0  0  0  0  0  0  0
   68.4417   37.7618   60.8630 S   0  0  0  0  0  0  0  0  0  0  0  0
   68.0002   38.3191   62.2025 O   0  0  0  0  0  0  0  0  0  0  0  0
   67.4670   36.6620   60.5164 O   0  0  0  0  0  0  0  0  0  0  0  0
   69.9948   37.0798   60.9941 N   0  0  0  0  0  0  0  0  0  0  0  0
   73.2017   35.5866   56.5005 C   0  0  0  0  0  0  0  0  0  0  0  0
   72.3611   35.9347   57.6750 C   0  0  0  0  0  0  0  0  0  0  0  0
   71.8868   34.9942   58.5364 C   0  0  0  0  0  0  0  0  0  0  0  0
   71.1069   35.3450   59.6224 C   0  0  0  0  0  0  0  0  0  0  0  0
   70.7744   36.6497   59.8821 C   0  0  0  0  0  0  0  0  0  0  0  0
   71.2660   37.6190   58.9926 C   0  0  0  0  0  0  0  0  0  0  0  0
   72.0314   37.2482   57.9314 C   0  0  0  0  0  0  0  0  0  0  0  0
   68.1932   42.2544   56.8501 C   0  0  0  0  0  0  0  0  0  0  0  0
   67.5487   42.0635   55.7946 O   0  0  0  0  0  0  0  0  0  0  0  0
   68.8190   43.5133   56.9963 N   0  0  0  0  0  0  0  0  0  0  0  0
   68.7568   44.5488   56.0345 N   0  0  0  0  0  0  0  0  0  0  0  0
   69.0741   45.8816   56.3286 C   0  0  0  0  0  0  0  0  0  0  0  0
   69.4252   46.0601   57.5608 O   0  0  0  0  0  0  0  0  0  0  0  0
   69.0502   47.0127   55.4450 C   0  0  0  0  0  0  0  0  0  0  0  0
   69.3971   48.2580   55.9701 C   0  0  0  0  0  0  0  0  0  0  0  0
   69.4101   49.4046   55.2223 C   0  0  0  0  0  0  0  0  0  0  0  0
   69.0693   49.3614   53.8879 C   0  0  0  0  0  0  0  0  0  0  0  0
   68.7247   48.1560   53.3479 C   0  0  0  0  0  0  0  0  0  0  0  0
   68.7184   46.9921   54.1298 C   0  0  0  0  0  0  0  0  0  0  0  0
   68.3590   45.7978   53.5262 O   0  0  0  0  0  0  0  0  0  0  0  0
 11 12  1  0
 12 13  2  0
 12 17  1  0
 13 14  1  0
 14 15  2  0
 15 10  1  0
 15 16  1  0
 10  7  1  0
  7  8  2  0
  7  9  2  0
  7  1  1  0
  1  2  2  0
  1  6  1  0
  2  3  1  0
  3  4  2  0
  4 18  1  0
  4  5  1  0
 18 19  2  0
 18 20  1  0
 20 21  1  0
 21 22  1  0
 22 23  2  0
 22 24  1  0
 24 25  2  0
 24 29  1  0
 25 26  1  0
 26 27  2  0
 27 28  1  0
 28 29  2  0
 29 30  1  0
  5  6  2  0
 16 17  2  0
M  END
>  <minimizedAffinity>  (348) 
-8.63611

$$$$
data/reference_output_2/data/smiles/117904.pdb
     RDKit          3D

 23 25  0  0  0  0  0  0  0  0999 V2000
   68.4450   43.7097   56.2485 N   0  0  0  0  0  0  0  0  0  0  0  0
   68.1951   42.4622   56.4795 C   0  0  0  0  0  0  0  0  0  0  0  0
   67.1306   41.6902   55.8711 C   0  0  0  0  0  0  0  0  0  0  0  0
   66.3171   42.1569   55.0364 O   0  0  0  0  0  0  0  0  0  0  0  0
   67.2229   40.3807   56.4045 N   0  0  0  0  0  0  0  0  0  0  0  0
   68.3065   40.2882   57.3313 C   0  0  0  0  0  0  0  0  0  0  0  0
   68.7743   39.2321   58.0871 C   0  0  0  0  0  0  0  0  0  0  0  0
   69.8583   39.3995   58.9232 C   0  0  0  0  0  0  0  0  0  0  0  0
   70.4387   40.6499   58.9642 C   0  0  0  0  0  0  0  0  0  0  0  0
   71.5064   40.8566   59.7723 F   0  0  0  0  0  0  0  0  0  0  0  0
   69.9684   41.7034   58.2073 C   0  0  0  0  0  0  0  0  0  0  0  0
   68.8891   41.5373   57.3751 C   0  0  0  0  0  0  0  0  0  0  0  0
   67.7015   44.4887   55.3621 N   0  0  0  0  0  0  0  0  0  0  0  0
   69.2676   47.9839   53.5407 C   0  0  0  0  0  0  0  0  0  0  0  0
   68.6884   46.9843   52.7897 C   0  0  0  0  0  0  0  0  0  0  0  0
   68.1757   45.8435   53.3720 C   0  0  0  0  0  0  0  0  0  0  0  0
   68.2204   45.6527   54.7371 C   0  0  0  0  0  0  0  0  0  0  0  0
   68.8053   46.6650   55.4798 C   0  0  0  0  0  0  0  0  0  0  0  0
   69.3185   47.8067   54.9066 C   0  0  0  0  0  0  0  0  0  0  0  0
   71.5256   49.6441   53.4588 N   0  0  0  0  0  0  0  0  0  0  0  0
   69.9228   49.4410   52.8109 S   0  0  0  0  0  0  0  0  0  0  0  0
   70.0728   49.2459   51.3334 O   0  0  0  0  0  0  0  0  0  0  0  0
   69.0675   50.6260   53.1348 O   0  0  0  0  0  0  0  0  0  0  0  0
 20 21  1  0
 21 22  2  0
 21 23  2  0
 21 14  1  0
 14 15  2  0
 14 19  1  0
 15 16  1  0
 16 17  2  0
 17 13  1  0
 17 18  1  0
 13  1  1  0
  1  2  2  0
  2  3  1  0
  2 12  1  0
  3  4  2  0
  3  5  1  0
  5  6  1  0
  6  7  1  0
  6 12  2  0
  7  8  2  0
  8  9  1  0
  9 10  1  0
  9 11  2  0
 11 12  1  0
 18 19  2  0
M  END
>  <minimizedAffinity>  (349) 
-8.71957

$$$$
data/reference_output_2/data/smiles/118039.pdb
     RDKit          3D

 28 30  0  0  0  0  0  0  0  0999 V2000
   71.1577   50.6243   58.1102 C   0  0  0  0  0  0  0  0  0  0  0  0
   70.0582   50.8647   57.0771 C   0  0  1  0  0  0  0  0  0  0  0  0
   68.7501   50.3983   57.6748 C   0  0  0  0  0  0  0  0  0  0  0  0
   68.2452   51.6952   57.0786 C   0  0  0  0  0  0  0  0  0  0  0  0
   69.6205   52.2152   56.9930 N   0  0  0  0  0  0  0  0  0  0  0  0
   70.1273   53.5062   56.8847 C   0  0  0  0  0  0  0  0  0  0  0  0
   69.2604   54.4769   56.8456 O   0  0  0  0  0  0  0  0  0  0  0  0
   71.5060   53.9251   56.8069 C   0  0  0  0  0  0  0  0  0  0  0  0
   72.0684   54.1397   55.5434 C   0  0  0  0  0  0  0  0  0  0  0  0
   73.3752   54.5337   55.3992 C   0  0  0  0  0  0  0  0  0  0  0  0
   74.1545   54.7248   56.5147 C   0  0  0  0  0  0  0  0  0  0  0  0
   73.6344   54.5238   57.7711 C   0  0  0  0  0  0  0  0  0  0  0  0
   74.3732   54.7022   58.9016 F   0  0  0  0  0  0  0  0  0  0  0  0
   72.3022   54.1227   57.9039 C   0  0  0  0  0  0  0  0  0  0  0  0
   70.4573   50.1776   55.8278 C   0  0  0  0  0  0  0  0  0  0  0  0
   71.5065   49.4392   55.8223 O   0  0  0  0  0  0  0  0  0  0  0  0
   69.6966   50.3313   54.6489 N   0  0  0  0  0  0  0  0  0  0  0  0
   70.1108   49.5543   53.1640 S   0  0  0  0  0  0  0  0  0  0  0  0
   71.5813   49.2426   53.1648 O   0  0  0  0  0  0  0  0  0  0  0  0
   69.8167   50.4600   52.0183 O   0  0  0  0  0  0  0  0  0  0  0  0
   69.1969   48.0675   52.9246 C   0  0  0  0  0  0  0  0  0  0  0  0
   68.9375   47.5582   51.6695 C   0  0  0  0  0  0  0  0  0  0  0  0
   68.2080   46.3786   51.5198 C   0  0  0  0  0  0  0  0  0  0  0  0
   67.7195   45.6779   52.6031 C   0  0  0  0  0  0  0  0  0  0  0  0
   67.0133   44.5370   52.4348 F   0  0  0  0  0  0  0  0  0  0  0  0
   67.9911   46.2066   53.8493 C   0  0  0  0  0  0  0  0  0  0  0  0
   68.7080   47.3659   54.0102 C   0  0  0  0  0  0  0  0  0  0  0  0
   68.9298   47.8231   55.2559 F   0  0  0  0  0  0  0  0  0  0  0  0
  2  1  1  1
  2 15  1  0
  2  3  1  0
  2  5  1  0
 15 16  2  0
 15 17  1  0
 17 18  1  0
 18 19  2  0
 18 20  2  0
 18 21  1  0
 21 22  2  0
 21 27  1  0
 22 23  1  0
 23 24  2  0
 24 25  1  0
 24 26  1  0
 26 27  2  0
 27 28  1  0
  3  4  1  0
  4  5  1  0
  5  6  1  0
  6  7  2  0
  6  8  1  0
  8  9  2  0
  8 14  1  0
  9 10  1  0
 10 11  2  0
 11 12  1  0
 12 13  1  0
 12 14  2  0
M  END
>  <minimizedAffinity>  (350) 
-9.13585

$$$$
data/reference_output_2/data/smiles/118071.pdb
     RDKit          3D

 27 30  0  0  0  0  0  0  0  0999 V2000
   66.6709   49.4063   57.9122 C   0  0  0  0  0  0  0  0  0  0  0  0
   67.8981   50.1173   57.4485 C   0  0  0  0  0  0  0  0  0  0  0  0
   67.8561   51.4877   57.3452 C   0  0  0  0  0  0  0  0  0  0  0  0
   68.9772   52.1619   56.9320 C   0  0  0  0  0  0  0  0  0  0  0  0
   70.1658   51.5368   56.6067 C   0  0  0  0  0  0  0  0  0  0  0  0
   70.1946   50.1809   56.7126 C   0  0  0  0  0  0  0  0  0  0  0  0
   69.0606   49.4712   57.1328 C   0  0  0  0  0  0  0  0  0  0  0  0
   71.2968   52.3715   56.1761 C   0  0  2  0  0  0  0  0  0  0  0  0
   71.9675   51.8631   55.0976 O   0  0  0  0  0  0  0  0  0  0  0  0
   73.0199   52.5830   54.6445 C   0  0  1  0  0  0  0  0  0  0  0  0
   73.4336   53.7836   55.3927 C   0  0  1  0  0  0  0  0  0  0  0  0
   72.9583   54.9547   54.8009 O   0  0  0  0  0  0  0  0  0  0  0  0
   73.1147   53.7954   56.8582 C   0  0  2  0  0  0  0  0  0  0  0  0
   74.2314   53.9763   57.6728 O   0  0  0  0  0  0  0  0  0  0  0  0
   72.3390   52.5460   57.2813 C   0  0  1  0  0  0  0  0  0  0  0  0
   71.7385   52.7456   58.5122 O   0  0  0  0  0  0  0  0  0  0  0  0
   74.2037   51.6159   54.4822 C   0  0  0  0  0  0  0  0  0  0  0  0
   73.8548   50.5456   53.6520 O   0  0  0  0  0  0  0  0  0  0  0  0
   69.1792   47.9857   57.2080 C   0  0  0  0  0  0  0  0  0  0  0  0
   68.9682   47.4617   55.8144 C   0  0  0  0  0  0  0  0  0  0  0  0
   68.3230   46.2719   55.5594 C   0  0  0  0  0  0  0  0  0  0  0  0
   68.1551   45.8662   54.2637 C   0  0  0  0  0  0  0  0  0  0  0  0
   68.6190   46.6198   53.1772 C   0  0  0  0  0  0  0  0  0  0  0  0
   69.2563   47.7951   53.4539 C   0  0  0  0  0  0  0  0  0  0  0  0
   69.4372   48.2278   54.7691 C   0  0  0  0  0  0  0  0  0  0  0  0
   69.4945   48.1120   52.0204 C   0  0  0  0  0  0  0  0  0  0  0  0
   68.7998   46.8324   51.7426 C   0  0  0  0  0  0  0  0  0  0  0  0
  1  2  1  0
  2  3  2  0
  2  7  1  0
  3  4  1  0
  4  5  2  0
  8  5  1  1
  5  6  1  0
  8  9  1  0
  8 15  1  0
  9 10  1  0
 10 17  1  1
 10 11  1  0
 17 18  1  0
 11 12  1  6
 11 13  1  0
 13 14  1  1
 13 15  1  0
 15 16  1  1
  6  7  2  0
  7 19  1  0
 19 20  1  0
 20 21  2  0
 20 25  1  0
 21 22  1  0
 22 23  2  0
 23 24  1  0
 23 27  1  0
 24 25  2  0
 24 26  1  0
 26 27  1  0
M  END
>  <minimizedAffinity>  (351) 
-8.87601

$$$$
data/reference_output_2/data/smiles/118125.pdb
     RDKit          3D

 26 28  0  0  0  0  0  0  0  0999 V2000
   71.1929   51.0898   55.8589 C   0  0  2  0  0  0  0  0  0  0  0  0
   71.1423   52.3199   56.6969 C   0  0  0  0  0  0  0  0  0  0  0  0
   70.1639   53.3501   56.2656 C   0  0  0  0  0  0  0  0  0  0  0  0
   68.8253   52.6587   56.1018 C   0  0  0  0  0  0  0  0  0  0  0  0
   68.9809   51.6616   55.0106 C   0  0  0  0  0  0  0  0  0  0  0  0
   70.0375   50.7369   55.1345 N   0  0  0  0  0  0  0  0  0  0  0  0
   72.8196   49.4413   56.2368 O   0  0  0  0  0  0  0  0  0  0  0  0
   71.7622   49.9637   56.6710 C   0  0  0  0  0  0  0  0  0  0  0  0
   71.1852   49.4890   57.8472 N   0  0  0  0  0  0  0  0  0  0  0  0
   71.7152   48.4058   58.6406 C   0  0  0  0  0  0  0  0  0  0  0  0
   71.1698   47.0779   58.2621 C   0  0  0  0  0  0  0  0  0  0  0  0
   71.8450   45.9075   58.4710 C   0  0  0  0  0  0  0  0  0  0  0  0
   71.3396   44.6608   58.1096 C   0  0  0  0  0  0  0  0  0  0  0  0
   70.0983   44.6309   57.5159 C   0  0  0  0  0  0  0  0  0  0  0  0
   69.4178   45.7707   57.3020 N   0  0  0  0  0  0  0  0  0  0  0  0
   69.9122   46.9663   57.6535 C   0  0  0  0  0  0  0  0  0  0  0  0
   70.4476   50.0044   53.6042 S   0  0  0  0  0  0  0  0  0  0  0  0
   71.9082   49.7111   53.5261 O   0  0  0  0  0  0  0  0  0  0  0  0
   70.0864   50.8904   52.4622 O   0  0  0  0  0  0  0  0  0  0  0  0
   69.5526   48.4996   53.3901 C   0  0  0  0  0  0  0  0  0  0  0  0
   69.5156   47.8494   52.1731 C   0  0  0  0  0  0  0  0  0  0  0  0
   68.8103   46.6761   52.0142 C   0  0  0  0  0  0  0  0  0  0  0  0
   68.1176   46.1010   53.0493 C   0  0  0  0  0  0  0  0  0  0  0  0
   67.4169   44.9454   52.9137 F   0  0  0  0  0  0  0  0  0  0  0  0
   68.1559   46.7525   54.2630 C   0  0  0  0  0  0  0  0  0  0  0  0
   68.8577   47.9269   54.4341 C   0  0  0  0  0  0  0  0  0  0  0  0
  7  8  2  0
  8  9  1  0
  1  8  1  1
  9 10  1  0
 10 11  1  0
 11 12  2  0
 11 16  1  0
 12 13  1  0
 13 14  2  0
 14 15  1  0
 15 16  2  0
  1  2  1  0
  1  6  1  0
  2  3  1  0
  3  4  1  0
  4  5  1  0
  5  6  1  0
  6 17  1  0
 17 18  2  0
 17 19  2  0
 17 20  1  0
 20 21  2  0
 20 26  1  0
 21 22  1  0
 22 23  2  0
 23 24  1  0
 23 25  1  0
 25 26  2  0
M  END
>  <minimizedAffinity>  (352) 
-8.57815

$$$$
data/reference_output_2/data/smiles/118146.pdb
     RDKit          3D

 24 25  0  0  0  0  0  0  0  0999 V2000
   73.5320   51.3090   54.7657 C   0  0  0  0  0  0  0  0  0  0  0  0
   74.0252   50.2425   55.1929 O   0  0  0  0  0  0  0  0  0  0  0  0
   72.3292   51.2119   54.0158 N   0  0  0  0  0  0  0  0  0  0  0  0
   71.6783   50.0126   53.7334 N   0  0  0  0  0  0  0  0  0  0  0  0
   70.2919   49.8589   53.6276 C   0  0  0  0  0  0  0  0  0  0  0  0
   69.5821   50.8871   53.8021 O   0  0  0  0  0  0  0  0  0  0  0  0
   69.6118   48.6045   53.3311 C   0  0  0  0  0  0  0  0  0  0  0  0
   68.8817   47.9246   54.2828 C   0  0  0  0  0  0  0  0  0  0  0  0
   68.2389   46.7262   53.9743 C   0  0  0  0  0  0  0  0  0  0  0  0
   68.3102   46.1794   52.7158 C   0  0  0  0  0  0  0  0  0  0  0  0
   69.0391   46.8538   51.7594 C   0  0  0  0  0  0  0  0  0  0  0  0
   69.6691   48.0381   52.0763 C   0  0  0  0  0  0  0  0  0  0  0  0
   70.4020   48.7118   51.1085 O   0  0  0  0  0  0  0  0  0  0  0  0
   74.2123   52.5851   55.0578 C   0  0  0  0  0  0  0  0  0  0  0  0
   73.1702   53.6188   55.3975 C   0  0  0  0  0  0  0  0  0  0  0  0
   72.5924   53.3511   56.7218 C   0  0  0  0  0  0  0  0  0  0  0  0
   73.2425   53.5767   57.7855 O   0  0  0  0  0  0  0  0  0  0  0  0
   67.3718   51.1166   57.3346 C   0  0  0  0  0  0  0  0  0  0  0  0
   68.7071   51.6987   57.1678 C   0  0  0  0  0  0  0  0  0  0  0  0
   69.7856   51.1455   57.8300 C   0  0  0  0  0  0  0  0  0  0  0  0
   71.0241   51.7141   57.6552 C   0  0  0  0  0  0  0  0  0  0  0  0
   71.2354   52.8089   56.8493 C   0  0  0  0  0  0  0  0  0  0  0  0
   70.1699   53.3568   56.1935 C   0  0  0  0  0  0  0  0  0  0  0  0
   68.9132   52.8138   56.3451 C   0  0  0  0  0  0  0  0  0  0  0  0
 18 19  1  0
 19 20  2  0
 19 24  1  0
 20 21  1  0
 21 22  2  0
 22 16  1  0
 22 23  1  0
 16 17  2  0
 16 15  1  0
 15 14  1  0
 14  1  1  0
  1  2  2  0
  1  3  1  0
  3  4  1  0
  4  5  1  0
  5  6  2  0
  5  7  1  0
  7  8  2  0
  7 12  1  0
  8  9  1  0
  9 10  2  0
 10 11  1  0
 11 12  2  0
 12 13  1  0
 23 24  2  0
M  END
>  <minimizedAffinity>  (353) 
-8.93195

$$$$
data/reference_output_2/data/smiles/118193.pdb
     RDKit          3D

 30 33  0  0  0  0  0  0  0  0999 V2000
   69.2563   44.3410   57.1216 C   0  0  2  0  0  0  0  0  0  0  0  0
   70.6002   44.5564   57.7327 C   0  0  0  0  0  0  0  0  0  0  0  0
   71.0242   43.5277   58.7334 C   0  0  0  0  0  0  0  0  0  0  0  0
   69.8324   42.8129   59.3827 C   0  0  0  0  0  0  0  0  0  0  0  0
   69.0814   42.1997   58.2852 C   0  0  0  0  0  0  0  0  0  0  0  0
   68.6626   40.8568   58.3835 C   0  0  0  0  0  0  0  0  0  0  0  0
   67.9576   40.3447   57.3081 C   0  0  0  0  0  0  0  0  0  0  0  0
   67.6607   41.0911   56.1680 C   0  0  0  0  0  0  0  0  0  0  0  0
   68.0816   42.3891   56.1059 C   0  0  0  0  0  0  0  0  0  0  0  0
   68.7889   42.9268   57.1698 C   0  0  0  0  0  0  0  0  0  0  0  0
   68.6238   45.9811   55.3433 C   0  0  0  0  0  0  0  0  0  0  0  0
   67.9598   46.6210   56.2486 O   0  0  0  0  0  0  0  0  0  0  0  0
   69.3066   44.8060   55.7361 N   0  0  0  0  0  0  0  0  0  0  0  0
   66.9839   44.9049   53.3655 N   0  0  0  0  0  0  0  0  0  0  0  0
   67.8282   45.9631   52.9995 C   0  0  0  0  0  0  0  0  0  0  0  0
   68.6370   46.4894   53.9882 C   0  0  0  0  0  0  0  0  0  0  0  0
   69.4341   47.4984   53.6134 N   0  0  0  0  0  0  0  0  0  0  0  0
   69.4331   47.9677   52.3252 C   0  0  0  0  0  0  0  0  0  0  0  0
   70.1849   48.9177   51.9795 O   0  0  0  0  0  0  0  0  0  0  0  0
   68.6421   47.4478   51.3724 N   0  0  0  0  0  0  0  0  0  0  0  0
   67.8319   46.4386   51.7060 C   0  0  0  0  0  0  0  0  0  0  0  0
   67.0897   45.9503   50.8143 O   0  0  0  0  0  0  0  0  0  0  0  0
   68.9924   40.2243   59.5115 O   0  0  0  0  0  0  0  0  0  0  0  0
   69.0166   38.9365   59.9081 C   0  0  0  0  0  0  0  0  0  0  0  0
   70.1184   38.0756   59.3613 C   0  0  0  0  0  0  0  0  0  0  0  0
   70.2306   36.7679   59.8530 C   0  0  0  0  0  0  0  0  0  0  0  0
   71.2076   35.9589   59.3337 C   0  0  0  0  0  0  0  0  0  0  0  0
   72.0969   36.3497   58.3491 C   0  0  0  0  0  0  0  0  0  0  0  0
   71.9654   37.6341   57.8843 C   0  0  0  0  0  0  0  0  0  0  0  0
   70.9950   38.4688   58.3855 C   0  0  0  0  0  0  0  0  0  0  0  0
 14 15  1  0
 15 16  2  0
 15 21  1  0
 16 11  1  0
 16 17  1  0
 11 12  2  0
 11 13  1  0
  1 13  1  6
  1  2  1  0
  1 10  1  0
  2  3  1  0
  3  4  1  0
  4  5  1  0
  5  6  2  0
  5 10  1  0
  6 23  1  0
  6  7  1  0
 23 24  1  0
 24 25  1  0
 25 26  2  0
 25 30  1  0
 26 27  1  0
 27 28  2  0
 28 29  1  0
 29 30  2  0
  7  8  2  0
  8  9  1  0
  9 10  2  0
 17 18  1  0
 18 19  2  0
 18 20  1  0
 20 21  1  0
 21 22  2  0
M  END
>  <minimizedAffinity>  (354) 
-8.60959

$$$$
data/reference_output_2/data/smiles/118328.pdb
     RDKit          3D

 22 24  0  0  0  0  0  0  0  0999 V2000
   70.2576   50.7688   52.8655 N   0  0  0  0  0  0  0  0  0  0  0  0
   69.7338   49.4620   52.9918 C   0  0  0  0  0  0  0  0  0  0  0  0
   69.5069   48.9063   54.1923 N   0  0  0  0  0  0  0  0  0  0  0  0
   69.0180   47.6821   54.4054 C   0  0  0  0  0  0  0  0  0  0  0  0
   68.7116   46.9261   55.5247 C   0  0  0  0  0  0  0  0  0  0  0  0
   68.2364   45.7279   55.0370 C   0  0  0  0  0  0  0  0  0  0  0  0
   68.2479   45.7466   53.6950 N   0  0  0  0  0  0  0  0  0  0  0  0
   68.7206   46.9271   53.2633 C   0  0  0  0  0  0  0  0  0  0  0  0
   68.9462   47.4803   52.0260 C   0  0  0  0  0  0  0  0  0  0  0  0
   68.6933   46.8372   50.9799 O   0  0  0  0  0  0  0  0  0  0  0  0
   69.4418   48.7207   51.8984 N   0  0  0  0  0  0  0  0  0  0  0  0
   68.8937   47.3967   56.9201 C   0  0  2  0  0  0  0  0  0  0  0  0
   68.1647   48.6802   57.1659 C   0  0  0  0  0  0  0  0  0  0  0  0
   66.8869   48.7644   57.6432 C   0  0  0  0  0  0  0  0  0  0  0  0
   66.3139   50.0221   57.8307 C   0  0  0  0  0  0  0  0  0  0  0  0
   66.9852   51.1805   57.5540 C   0  0  0  0  0  0  0  0  0  0  0  0
   68.2741   51.0954   57.0733 C   0  0  0  0  0  0  0  0  0  0  0  0
   69.1722   52.5411   56.7053 Cl  0  0  0  0  0  0  0  0  0  0  0  0
   68.8506   49.8446   56.8833 C   0  0  0  0  0  0  0  0  0  0  0  0
   70.3706   47.5443   57.1698 C   0  0  0  0  0  0  0  0  0  0  0  0
   70.7949   46.4372   58.1104 C   0  0  0  0  0  0  0  0  0  0  0  0
   69.7384   45.8887   58.7984 O   0  0  0  0  0  0  0  0  0  0  0  0
  1  2  1  0
  2  3  2  0
  2 11  1  0
  3  4  1  0
  4  5  1  0
  4  8  2  0
  5 12  1  0
  5  6  2  0
 12 20  1  6
 12 13  1  0
 20 21  1  0
 21 22  1  0
 13 14  2  0
 13 19  1  0
 14 15  1  0
 15 16  2  0
 16 17  1  0
 17 18  1  0
 17 19  2  0
  6  7  1  0
  7  8  1  0
  8  9  1  0
  9 10  2  0
  9 11  1  0
M  END
>  <minimizedAffinity>  (355) 
-8.61747

$$$$
data/reference_output_2/data/smiles/118389.pdb
     RDKit          3D

 30 32  0  0  0  0  0  0  0  0999 V2000
   70.4135   48.0167   57.7670 C   0  0  0  0  0  0  0  0  0  0  0  0
   70.8028   49.1598   58.1912 N   0  0  0  0  0  0  0  0  0  0  0  0
   69.9975   50.2746   58.2420 C   0  0  0  0  0  0  0  0  0  0  0  0
   69.4228   50.6288   59.2982 O   0  0  0  0  0  0  0  0  0  0  0  0
   69.7851   51.1020   57.0585 C   0  0  0  0  0  0  0  0  0  0  0  0
   70.7813   51.5808   56.2666 C   0  0  0  0  0  0  0  0  0  0  0  0
   70.6468   52.3419   55.1366 C   0  0  0  0  0  0  0  0  0  0  0  0
   69.3002   52.6359   54.7991 C   0  0  0  0  0  0  0  0  0  0  0  0
   68.2751   52.1733   55.5701 C   0  0  0  0  0  0  0  0  0  0  0  0
   68.4743   51.4201   56.6833 C   0  0  0  0  0  0  0  0  0  0  0  0
   71.3735   46.9225   57.7355 N   0  0  0  0  0  0  0  0  0  0  0  0
   71.0690   45.6673   58.3208 C   0  0  0  0  0  0  0  0  0  0  0  0
   69.9075   45.5909   58.8613 O   0  0  0  0  0  0  0  0  0  0  0  0
   71.9354   44.5219   58.3491 C   0  0  0  0  0  0  0  0  0  0  0  0
   71.4290   43.2790   58.0525 C   0  0  0  0  0  0  0  0  0  0  0  0
   72.2447   42.1519   58.0647 C   0  0  0  0  0  0  0  0  0  0  0  0
   73.5879   42.2920   58.3817 C   0  0  0  0  0  0  0  0  0  0  0  0
   74.3878   41.1841   58.3845 F   0  0  0  0  0  0  0  0  0  0  0  0
   74.1105   43.5359   58.6826 C   0  0  0  0  0  0  0  0  0  0  0  0
   73.2616   44.6406   58.6596 C   0  0  0  0  0  0  0  0  0  0  0  0
   69.0983   47.8355   57.3114 N   0  0  0  0  0  0  0  0  0  0  0  0
   68.3859   46.8239   53.2709 C   0  0  0  0  0  0  0  0  0  0  0  0
   68.8682   48.0843   53.6432 C   0  0  0  0  0  0  0  0  0  0  0  0
   69.0879   48.4623   54.9362 C   0  0  0  0  0  0  0  0  0  0  0  0
   68.8286   47.5722   55.9571 C   0  0  0  0  0  0  0  0  0  0  0  0
   68.3560   46.3253   55.6132 C   0  0  0  0  0  0  0  0  0  0  0  0
   68.1426   45.9667   54.3146 C   0  0  0  0  0  0  0  0  0  0  0  0
   67.1072   45.6132   51.5093 N   0  0  0  0  0  0  0  0  0  0  0  0
   68.1765   46.4951   51.8688 C   0  0  0  0  0  0  0  0  0  0  0  0
   68.8918   46.9473   50.9505 O   0  0  0  0  0  0  0  0  0  0  0  0
 28 29  1  0
 29 30  2  0
 29 22  1  0
 22 23  2  0
 22 27  1  0
 23 24  1  0
 24 25  2  0
 25 21  1  0
 25 26  1  0
 21  1  1  0
  1  2  2  0
  1 11  1  0
  2  3  1  0
  3  4  2  0
  3  5  1  0
  5  6  2  0
  5 10  1  0
  6  7  1  0
  7  8  2  0
  8  9  1  0
  9 10  2  0
 11 12  1  0
 12 13  2  0
 12 14  1  0
 14 15  2  0
 14 20  1  0
 15 16  1  0
 16 17  2  0
 17 18  1  0
 17 19  1  0
 19 20  2  0
 26 27  2  0
M  CHG  1   2   1
M  END
>  <minimizedAffinity>  (356) 
-8.57642

$$$$
data/reference_output_2/data/smiles/118396.pdb
     RDKit          3D

 33 37  0  0  0  0  0  0  0  0999 V2000
   67.8789   42.9055   56.1326 C   0  0  0  0  0  0  0  0  0  0  0  0
   66.9741   42.2721   55.4049 N   0  0  0  0  0  0  0  0  0  0  0  0
   66.8809   40.9900   55.7692 N   0  0  0  0  0  0  0  0  0  0  0  0
   67.7448   40.7417   56.7702 C   0  0  0  0  0  0  0  0  0  0  0  0
   68.3821   41.9398   57.0120 C   0  0  0  0  0  0  0  0  0  0  0  0
   69.3398   41.6884   58.1183 C   0  0  0  0  0  0  0  0  0  0  0  0
   69.5468   40.2751   58.0470 N   0  0  0  0  0  0  0  0  0  0  0  0
   70.7506   39.5943   58.2643 C   0  0  0  0  0  0  0  0  0  0  0  0
   71.8061   40.2395   58.5578 O   0  0  0  0  0  0  0  0  0  0  0  0
   70.8758   38.1769   58.1759 N   0  0  0  0  0  0  0  0  0  0  0  0
   68.2796   39.6870   57.7075 C   0  0  0  0  0  0  0  0  0  0  0  0
   72.1256   37.5438   58.4089 C   0  0  0  0  0  0  0  0  0  0  0  0
   72.6307   36.5966   57.5424 C   0  0  0  0  0  0  0  0  0  0  0  0
   73.8426   35.9866   57.7812 C   0  0  0  0  0  0  0  0  0  0  0  0
   74.6054   36.2936   58.8936 C   0  0  0  0  0  0  0  0  0  0  0  0
   74.1102   37.2460   59.7762 C   0  0  0  0  0  0  0  0  0  0  0  0
   72.9008   37.8409   59.5186 C   0  0  0  0  0  0  0  0  0  0  0  0
   68.1814   45.1133   55.0188 C   0  0  0  0  0  0  0  0  0  0  0  0
   67.6008   44.6213   54.0148 O   0  0  0  0  0  0  0  0  0  0  0  0
   68.3428   44.2616   56.1316 N   0  0  0  0  0  0  0  0  0  0  0  0
   69.5140   49.2058   54.7358 C   0  0  0  0  0  0  0  0  0  0  0  0
   69.3809   48.5673   55.9504 C   0  0  0  0  0  0  0  0  0  0  0  0
   68.9492   47.2489   56.0523 C   0  0  0  0  0  0  0  0  0  0  0  0
   68.6271   46.4990   54.9415 C   0  0  0  0  0  0  0  0  0  0  0  0
   68.7579   47.1317   53.7235 C   0  0  0  0  0  0  0  0  0  0  0  0
   69.1852   48.4363   53.6215 C   0  0  0  0  0  0  0  0  0  0  0  0
   70.7267   51.8307   57.3338 C   0  0  0  0  0  0  0  0  0  0  0  0
   70.6957   52.5794   56.1269 N   0  0  0  0  0  0  0  0  0  0  0  0
   69.3794   52.7393   55.5571 C   0  0  0  0  0  0  0  0  0  0  0  0
   69.0873   51.7080   54.4909 C   0  0  0  0  0  0  0  0  0  0  0  0
   69.9429   50.5523   54.5886 N   0  0  0  0  0  0  0  0  0  0  0  0
   71.3756   50.8323   54.5429 C   0  0  0  0  0  0  0  0  0  0  0  0
   71.6811   52.1892   55.1449 C   0  0  0  0  0  0  0  0  0  0  0  0
 27 28  1  0
 28 29  1  0
 28 33  1  0
 29 30  1  0
 30 31  1  0
 31 21  1  0
 31 32  1  0
 21 22  2  0
 21 26  1  0
 22 23  1  0
 23 24  2  0
 24 18  1  0
 24 25  1  0
 18 19  2  0
 18 20  1  0
 20  1  1  0
  1  2  2  0
  1  5  1  0
  2  3  1  0
  3  4  1  0
  4  5  2  0
  4 11  1  0
  5  6  1  0
  6  7  1  0
  7  8  1  0
  7 11  1  0
  8  9  2  0
  8 10  1  0
 10 12  1  0
 12 13  2  0
 12 17  1  0
 13 14  1  0
 14 15  2  0
 15 16  1  0
 16 17  2  0
 25 26  2  0
 32 33  1  0
M  CHG  1  28   1
M  END
>  <minimizedAffinity>  (357) 
-8.81759

$$$$
data/reference_output_2/data/smiles/118684.pdb
     RDKit          3D

 24 26  0  0  0  0  0  0  0  0999 V2000
   68.7182   40.7643   57.4771 N   0  0  0  0  0  0  0  0  0  0  0  0
   67.7457   41.3207   56.7136 C   0  0  0  0  0  0  0  0  0  0  0  0
   68.1456   42.5985   56.3345 C   0  0  0  0  0  0  0  0  0  0  0  0
   67.5194   43.4636   55.6097 N   0  0  0  0  0  0  0  0  0  0  0  0
   69.3211   42.7537   56.8772 O   0  0  0  0  0  0  0  0  0  0  0  0
   69.6633   41.6878   57.5453 N   0  0  0  0  0  0  0  0  0  0  0  0
   68.0796   44.7492   55.3107 C   0  0  0  0  0  0  0  0  0  0  0  0
   68.5665   45.4136   56.2423 O   0  0  0  0  0  0  0  0  0  0  0  0
   68.1025   45.2922   54.0146 N   0  0  0  0  0  0  0  0  0  0  0  0
   68.6187   46.5336   53.5933 C   0  0  0  0  0  0  0  0  0  0  0  0
   68.7274   47.6691   54.3418 C   0  0  0  0  0  0  0  0  0  0  0  0
   69.2613   48.8623   53.8180 C   0  0  0  0  0  0  0  0  0  0  0  0
   69.7030   48.9443   52.5207 C   0  0  0  0  0  0  0  0  0  0  0  0
   69.5983   47.8065   51.7553 C   0  0  0  0  0  0  0  0  0  0  0  0
   69.0758   46.6466   52.2738 C   0  0  0  0  0  0  0  0  0  0  0  0
   67.5098   39.3038   58.9501 C   0  0  0  0  0  0  0  0  0  0  0  0
   68.7527   39.4542   58.0978 C   0  0  2  0  0  0  0  0  0  0  0  0
   69.9556   39.3319   59.0334 C   0  0  0  0  0  0  0  0  0  0  0  0
   70.6833   38.0804   58.8369 C   0  0  0  0  0  0  0  0  0  0  0  0
   70.4154   36.9749   59.6104 C   0  0  0  0  0  0  0  0  0  0  0  0
   71.0868   35.7759   59.4504 C   0  0  0  0  0  0  0  0  0  0  0  0
   72.0632   35.6623   58.4853 C   0  0  0  0  0  0  0  0  0  0  0  0
   72.3506   36.7557   57.6958 C   0  0  0  0  0  0  0  0  0  0  0  0
   71.6594   37.9591   57.8754 C   0  0  0  0  0  0  0  0  0  0  0  0
 17 16  1  1
 17 18  1  0
 17  1  1  0
 18 19  1  0
 19 20  2  0
 19 24  1  0
 20 21  1  0
 21 22  2  0
 22 23  1  0
 23 24  2  0
  1  2  1  0
  1  6  2  0
  2  3  1  0
  3  4  2  0
  3  5  1  0
  4  7  1  0
  7  8  2  0
  7  9  1  0
  9 10  1  0
 10 11  2  0
 10 15  1  0
 11 12  1  0
 12 13  2  0
 13 14  1  0
 14 15  2  0
  5  6  1  0
M  CHG  2   1   1   2  -1
M  END
>  <minimizedAffinity>  (358) 
-8.97537

$$$$
data/reference_output_2/data/smiles/118706.pdb
     RDKit          3D

 26 29  0  0  0  0  0  0  0  0999 V2000
   70.9265   49.9174   58.0557 C   0  0  0  0  0  0  0  0  0  0  0  0
   69.7488   50.0176   57.0935 C   0  0  0  0  0  0  0  0  0  0  0  0
   70.5900   49.2726   56.1730 N   0  0  0  0  0  0  0  0  0  0  0  0
   71.6982   50.0308   56.7340 C   0  0  0  0  0  0  0  0  0  0  0  0
   71.2491   46.3440   58.6638 C   0  0  0  0  0  0  0  0  0  0  0  0
   71.4116   46.8502   59.8914 N   0  0  0  0  0  0  0  0  0  0  0  0
   71.3212   48.1605   59.8429 O   0  0  0  0  0  0  0  0  0  0  0  0
   71.1024   48.5435   58.6157 C   0  0  0  0  0  0  0  0  0  0  0  0
   71.0565   47.4109   57.8761 N   0  0  0  0  0  0  0  0  0  0  0  0
   68.9101   42.1557   57.2323 C   0  0  0  0  0  0  0  0  0  0  0  0
   70.1580   42.9047   57.5898 C   0  0  0  0  0  0  0  0  0  0  0  0
   71.3517   42.2169   57.5471 C   0  0  0  0  0  0  0  0  0  0  0  0
   72.5004   42.9038   57.8751 C   0  0  0  0  0  0  0  0  0  0  0  0
   72.4707   44.2344   58.2361 C   0  0  0  0  0  0  0  0  0  0  0  0
   71.2768   44.9471   58.2855 C   0  0  0  0  0  0  0  0  0  0  0  0
   70.1427   44.2330   57.9516 C   0  0  0  0  0  0  0  0  0  0  0  0
   70.2871   49.5525   54.5128 S   0  0  0  0  0  0  0  0  0  0  0  0
   71.6027   49.6982   53.8171 O   0  0  0  0  0  0  0  0  0  0  0  0
   69.4777   50.7851   54.2862 O   0  0  0  0  0  0  0  0  0  0  0  0
   69.4243   48.2013   53.8118 C   0  0  0  0  0  0  0  0  0  0  0  0
   69.3933   47.9538   52.4538 C   0  0  0  0  0  0  0  0  0  0  0  0
   68.7145   46.8888   51.8947 C   0  0  0  0  0  0  0  0  0  0  0  0
   68.0301   46.0208   52.7084 C   0  0  0  0  0  0  0  0  0  0  0  0
   67.3647   44.9743   52.1475 F   0  0  0  0  0  0  0  0  0  0  0  0
   68.0323   46.2283   54.0738 C   0  0  0  0  0  0  0  0  0  0  0  0
   68.7180   47.2994   54.6102 C   0  0  0  0  0  0  0  0  0  0  0  0
 10 11  1  0
 11 12  2  0
 11 16  1  0
 12 13  1  0
 13 14  2  0
 14 15  1  0
 15  5  1  0
 15 16  2  0
  5  6  2  0
  5  9  1  0
  6  7  1  0
  7  8  1  0
  8  1  1  0
  8  9  2  0
  1  2  1  0
  1  4  1  0
  2  3  1  0
  3 17  1  0
  3  4  1  0
 17 18  2  0
 17 19  2  0
 17 20  1  0
 20 21  2  0
 20 26  1  0
 21 22  1  0
 22 23  2  0
 23 24  1  0
 23 25  1  0
 25 26  2  0
M  END
>  <minimizedAffinity>  (359) 
-8.71620

$$$$
data/reference_output_2/data/smiles/118718.pdb
     RDKit          3D

 26 28  0  0  0  0  0  0  0  0999 V2000
   69.7860   45.1459   59.0715 O   0  0  0  0  0  0  0  0  0  0  0  0
   70.6214   45.0625   58.1493 C   0  0  0  0  0  0  0  0  0  0  0  0
   70.5960   46.0414   57.1289 N   0  0  0  0  0  0  0  0  0  0  0  0
   71.5854   43.9727   58.1487 C   0  0  0  0  0  0  0  0  0  0  0  0
   72.9445   44.2621   57.9835 C   0  0  0  0  0  0  0  0  0  0  0  0
   73.8887   43.2631   57.9755 C   0  0  0  0  0  0  0  0  0  0  0  0
   73.4907   41.9330   58.1358 C   0  0  0  0  0  0  0  0  0  0  0  0
   72.1669   41.6001   58.3007 C   0  0  0  0  0  0  0  0  0  0  0  0
   71.2568   42.6628   58.2989 C   0  0  0  0  0  0  0  0  0  0  0  0
   71.6977   40.2305   58.4713 C   0  0  0  0  0  0  0  0  0  0  0  0
   70.3693   39.9022   58.4589 C   0  0  0  0  0  0  0  0  0  0  0  0
   69.8984   38.6039   58.6194 C   0  0  0  0  0  0  0  0  0  0  0  0
   70.8354   37.6144   58.7983 C   0  0  0  0  0  0  0  0  0  0  0  0
   72.1631   37.9781   58.8059 C   0  0  0  0  0  0  0  0  0  0  0  0
   72.5834   39.2466   58.6472 N   0  0  0  0  0  0  0  0  0  0  0  0
   69.6948   47.1080   57.0660 N   0  0  0  0  0  0  0  0  0  0  0  0
   68.4783   46.7878   55.8949 S   0  0  0  0  0  0  0  0  0  0  0  0
   67.1712   47.4728   56.2779 O   0  0  0  0  0  0  0  0  0  0  0  0
   68.2055   45.2876   55.9059 O   0  0  0  0  0  0  0  0  0  0  0  0
   68.9337   47.3042   54.3008 C   0  0  0  0  0  0  0  0  0  0  0  0
   69.6584   48.4880   54.1428 C   0  0  0  0  0  0  0  0  0  0  0  0
   70.0510   48.9548   52.9119 C   0  0  0  0  0  0  0  0  0  0  0  0
   69.7185   48.2268   51.7918 C   0  0  0  0  0  0  0  0  0  0  0  0
   69.0085   47.0598   51.9047 C   0  0  0  0  0  0  0  0  0  0  0  0
   68.6350   46.6284   53.1549 C   0  0  0  0  0  0  0  0  0  0  0  0
   67.9252   45.4600   53.2578 F   0  0  0  0  0  0  0  0  0  0  0  0
  1  2  2  0
  2  3  1  0
  2  4  1  0
  3 16  1  0
 16 17  1  0
 17 18  2  0
 17 19  2  0
 17 20  1  0
 20 21  2  0
 20 25  1  0
 21 22  1  0
 22 23  2  0
 23 24  1  0
 24 25  2  0
 25 26  1  0
  4  5  2  0
  4  9  1  0
  5  6  1  0
  6  7  2  0
  7  8  1  0
  8 10  1  0
  8  9  2  0
 10 11  2  0
 10 15  1  0
 11 12  1  0
 12 13  2  0
 13 14  1  0
 14 15  2  0
M  END
>  <minimizedAffinity>  (360) 
-8.98959

$$$$
data/reference_output_2/data/smiles/118732.pdb
     RDKit          3D

 27 30  0  0  0  0  0  0  0  0999 V2000
   71.4259   47.0791   58.7887 C   0  0  0  0  0  0  0  0  0  0  0  0
   70.6464   47.8531   57.9602 C   0  0  0  0  0  0  0  0  0  0  0  0
   69.7718   47.3369   57.0331 C   0  0  0  0  0  0  0  0  0  0  0  0
   69.6667   45.9746   56.9252 C   0  0  0  0  0  0  0  0  0  0  0  0
   70.4279   45.1614   57.7341 C   0  0  0  0  0  0  0  0  0  0  0  0
   71.3014   45.6960   58.6598 C   0  0  0  0  0  0  0  0  0  0  0  0
   72.0392   44.8767   59.4437 F   0  0  0  0  0  0  0  0  0  0  0  0
   71.9563   47.7335   60.9501 O   0  0  0  0  0  0  0  0  0  0  0  0
   72.3488   47.6486   59.7662 C   0  0  0  0  0  0  0  0  0  0  0  0
   73.6542   48.1088   59.4636 N   0  0  0  0  0  0  0  0  0  0  0  0
   74.4336   48.6432   60.5555 C   0  0  0  0  0  0  0  0  0  0  0  0
   74.4062   50.1650   60.4617 C   0  0  0  0  0  0  0  0  0  0  0  0
   74.6030   50.5182   58.9825 C   0  0  0  0  0  0  0  0  0  0  0  0
   75.6764   49.6885   58.5047 N   0  0  0  0  0  0  0  0  0  0  0  0
   75.2556   48.6113   57.6638 C   0  0  0  0  0  0  0  0  0  0  0  0
   73.9870   47.9546   58.0610 C   0  0  0  0  0  0  0  0  0  0  0  0
   68.9865   48.2534   56.1997 C   0  0  0  0  0  0  0  0  0  0  0  0
   69.3149   48.2925   54.7824 C   0  0  0  0  0  0  0  0  0  0  0  0
   70.2186   49.2584   54.3767 C   0  0  0  0  0  0  0  0  0  0  0  0
   70.6120   49.4086   53.0986 N   0  0  0  0  0  0  0  0  0  0  0  0
   70.1186   48.5980   52.1679 C   0  0  0  0  0  0  0  0  0  0  0  0
   70.4893   48.7387   50.9653 O   0  0  0  0  0  0  0  0  0  0  0  0
   69.2243   47.6328   52.5358 C   0  0  0  0  0  0  0  0  0  0  0  0
   68.5825   46.6841   51.7503 C   0  0  0  0  0  0  0  0  0  0  0  0
   67.7885   45.9688   52.6534 C   0  0  0  0  0  0  0  0  0  0  0  0
   67.9646   46.4851   53.9132 C   0  0  0  0  0  0  0  0  0  0  0  0
   68.8315   47.4894   53.8363 N   0  0  0  0  0  0  0  0  0  0  0  0
  8  9  2  0
  9  1  1  0
  9 10  1  0
  1  2  2  0
  1  6  1  0
  2  3  1  0
  3 17  1  0
  3  4  2  0
 17 18  1  0
 18 19  2  0
 18 27  1  0
 19 20  1  0
 20 21  1  0
 21 22  2  0
 21 23  1  0
 23 24  2  0
 23 27  1  0
 24 25  1  0
 25 26  2  0
 26 27  1  0
  4  5  1  0
  5  6  2  0
  6  7  1  0
 10 11  1  0
 10 16  1  0
 11 12  1  0
 12 13  1  0
 13 14  1  0
 14 15  1  0
 15 16  1  0
M  CHG  1  14   1
M  END
>  <minimizedAffinity>  (361) 
-9.10749

$$$$
data/reference_output_2/data/smiles/118863.pdb
     RDKit          3D

 32 35  0  0  0  0  0  0  0  0999 V2000
   65.6918   40.1798   60.8695 C   0  0  0  0  0  0  0  0  0  0  0  0
   66.4916   40.6459   59.9141 C   0  0  0  0  0  0  0  0  0  0  0  0
   66.9406   39.8092   58.9595 N   0  0  0  0  0  0  0  0  0  0  0  0
   67.7571   40.2539   57.9826 C   0  0  0  0  0  0  0  0  0  0  0  0
   68.1742   39.4624   57.0906 O   0  0  0  0  0  0  0  0  0  0  0  0
   68.1566   41.5683   57.9276 C   0  0  0  0  0  0  0  0  0  0  0  0
   68.9751   42.0011   56.9441 C   0  0  0  0  0  0  0  0  0  0  0  0
   67.7169   42.4115   58.8715 N   0  0  0  0  0  0  0  0  0  0  0  0
   66.9037   41.9537   59.8381 C   0  0  0  0  0  0  0  0  0  0  0  0
   66.4749   42.7402   60.7437 O   0  0  0  0  0  0  0  0  0  0  0  0
   69.3248   43.4267   57.0012 C   0  0  0  0  0  0  0  0  0  0  0  0
   70.3902   43.7992   57.8317 C   0  0  0  0  0  0  0  0  0  0  0  0
   70.7664   45.1186   57.9177 C   0  0  0  0  0  0  0  0  0  0  0  0
   70.0925   46.0754   57.1854 C   0  0  0  0  0  0  0  0  0  0  0  0
   69.0388   45.7465   56.3555 C   0  0  0  0  0  0  0  0  0  0  0  0
   68.6988   44.4093   56.3035 C   0  0  0  0  0  0  0  0  0  0  0  0
   68.3471   46.7452   55.5622 C   0  0  0  0  0  0  0  0  0  0  0  0
   67.4673   47.4410   56.0998 O   0  0  0  0  0  0  0  0  0  0  0  0
   68.6434   46.9775   54.1222 C   0  0  0  0  0  0  0  0  0  0  0  0
   68.1257   46.2144   53.1498 C   0  0  0  0  0  0  0  0  0  0  0  0
   68.4507   46.4590   51.8465 C   0  0  0  0  0  0  0  0  0  0  0  0
   69.5659   47.8610   51.9866 S   0  0  0  0  0  0  0  0  0  0  0  0
   69.5045   48.0060   53.7863 C   0  0  0  0  0  0  0  0  0  0  0  0
   65.7958   37.8390   61.7763 C   0  0  0  0  0  0  0  0  0  0  0  0
   65.1428   36.6497   61.5812 N   0  0  0  0  0  0  0  0  0  0  0  0
   64.2138   36.9084   60.6327 C   0  0  0  0  0  0  0  0  0  0  0  0
   64.2755   38.1900   60.2478 N   0  0  0  0  0  0  0  0  0  0  0  0
   65.2614   38.7932   60.9519 C   0  0  0  0  0  0  0  0  0  0  0  0
   66.6448   39.1314   63.6557 C   0  0  0  0  0  0  0  0  0  0  0  0
   66.8918   37.9417   62.7543 C   0  0  0  0  0  0  0  0  0  0  0  0
   68.2450   38.0944   62.0976 C   0  0  0  0  0  0  0  0  0  0  0  0
   66.9632   36.7276   63.6575 C   0  0  0  0  0  0  0  0  0  0  0  0
 29 30  1  0
 30 31  1  0
 30 32  1  0
 30 24  1  0
 24 25  1  0
 24 28  2  0
 25 26  1  0
 26 27  2  0
 27 28  1  0
 28  1  1  0
  1  2  2  0
  2  3  1  0
  2  9  1  0
  3  4  1  0
  4  5  2  0
  4  6  1  0
  6  7  2  0
  6  8  1  0
  7 11  1  0
 11 12  2  0
 11 16  1  0
 12 13  1  0
 13 14  2  0
 14 15  1  0
 15 17  1  0
 15 16  2  0
 17 18  2  0
 17 19  1  0
 19 20  1  0
 19 23  2  0
 20 21  2  0
 21 22  1  0
 22 23  1  0
  8  9  1  0
  9 10  2  0
M  CHG  1  27   1
M  END
>  <minimizedAffinity>  (362) 
-8.59931

$$$$
data/reference_output_2/data/smiles/119109.pdb
     RDKit          3D

 28 30  0  0  0  0  0  0  0  0999 V2000
   68.9379   48.9444   55.2973 C   0  0  0  0  0  0  0  0  0  0  0  0
   68.8307   48.5787   56.5787 C   0  0  0  0  0  0  0  0  0  0  0  0
   68.7213   49.4150   57.6307 C   0  0  0  0  0  0  0  0  0  0  0  0
   68.7517   50.8136   57.3483 C   0  0  0  0  0  0  0  0  0  0  0  0
   68.8726   51.2516   56.0918 C   0  0  0  0  0  0  0  0  0  0  0  0
   68.9558   50.3477   55.0313 C   0  0  0  0  0  0  0  0  0  0  0  0
   68.4194   46.3041   52.5986 C   0  0  0  0  0  0  0  0  0  0  0  0
   69.3171   47.0318   51.5542 C   0  0  0  0  0  0  0  0  0  0  0  0
   69.9534   47.9909   51.9162 C   0  0  0  0  0  0  0  0  0  0  0  0
   70.0534   48.6249   53.1135 C   0  0  0  0  0  0  0  0  0  0  0  0
   69.2947   48.0905   54.1584 C   0  0  0  0  0  0  0  0  0  0  0  0
   68.5493   46.9866   53.8466 C   0  0  0  0  0  0  0  0  0  0  0  0
   66.6603   44.5665   51.8373 N   0  0  0  0  0  0  0  0  0  0  0  0
   67.5165   45.4261   52.2045 C   0  0  0  0  0  0  0  0  0  0  0  0
   69.3542   52.9185   55.6055 S   0  0  0  0  0  0  0  0  0  0  0  0
   69.2944   53.8505   56.6810 O   0  0  0  0  0  0  0  0  0  0  0  0
   68.5413   53.2362   54.3985 O   0  0  0  0  0  0  0  0  0  0  0  0
   71.0397   52.5018   55.1343 N   0  0  0  0  0  0  0  0  0  0  0  0
   71.8837   52.0956   56.1403 C   0  0  0  0  0  0  0  0  0  0  0  0
   71.6465   52.5024   57.5283 C   0  0  0  0  0  0  0  0  0  0  0  0
   72.4289   51.9785   58.5057 C   0  0  0  0  0  0  0  0  0  0  0  0
   73.4709   51.0714   58.3636 C   0  0  0  0  0  0  0  0  0  0  0  0
   73.7062   50.6703   56.9974 C   0  0  0  0  0  0  0  0  0  0  0  0
   72.9280   51.2119   56.1104 C   0  0  0  0  0  0  0  0  0  0  0  0
   73.4296   50.9017   54.3520 S   0  0  0  0  0  0  0  0  0  0  0  0
   74.8810   49.9508   54.5943 N   0  0  0  0  0  0  0  0  0  0  0  0
   73.6594   52.2152   53.7667 O   0  0  0  0  0  0  0  0  0  0  0  0
   72.3869   50.0387   53.7587 O   0  0  0  0  0  0  0  0  0  0  0  0
 13 14  3  0
 14  7  1  0
  7  8  2  0
  7 12  1  0
  8  9  1  0
  9 10  2  0
 10 11  1  0
 11  1  1  0
 11 12  2  0
  1  2  2  0
  1  6  1  0
  2  3  1  0
  3  4  2  0
  4  5  1  0
  5 15  1  0
  5  6  2  0
 15 16  2  0
 15 17  2  0
 15 18  1  0
 18 19  1  0
 19 20  2  0
 19 24  1  0
 20 21  1  0
 21 22  2  0
 22 23  1  0
 23 24  2  0
 24 25  1  0
 25 26  1  0
 25 27  2  0
 25 28  2  0
M  END
>  <minimizedAffinity>  (363) 
-8.57296

$$$$
data/reference_output_2/data/smiles/119731.pdb
     RDKit          3D

 24 27  0  0  0  0  0  0  0  0999 V2000
   71.0946   45.8184   58.3065 C   0  0  0  0  0  0  0  0  0  0  0  0
   71.9711   46.7226   58.8605 C   0  0  0  0  0  0  0  0  0  0  0  0
   71.8973   48.0805   58.6396 C   0  0  0  0  0  0  0  0  0  0  0  0
   70.9117   48.5931   57.8312 C   0  0  0  0  0  0  0  0  0  0  0  0
   69.9930   47.7040   57.2437 C   0  0  0  0  0  0  0  0  0  0  0  0
   70.0958   46.3561   57.4852 C   0  0  0  0  0  0  0  0  0  0  0  0
   69.2618   43.9608   59.8424 O   0  0  0  0  0  0  0  0  0  0  0  0
   70.2186   43.5331   59.1204 C   0  0  0  0  0  0  0  0  0  0  0  0
   70.5316   42.1156   58.7566 C   0  0  0  0  0  0  0  0  0  0  0  0
   71.5467   42.3483   57.6288 C   0  0  0  0  0  0  0  0  0  0  0  0
   72.2941   43.5533   58.1940 C   0  0  0  0  0  0  0  0  0  0  0  0
   71.1698   44.4124   58.5333 N   0  0  0  0  0  0  0  0  0  0  0  0
   68.9469   48.3135   56.4023 C   0  0  0  0  0  0  0  0  0  0  0  0
   69.2878   48.4064   54.9665 C   0  0  0  0  0  0  0  0  0  0  0  0
   70.1594   49.3703   54.5237 N   0  0  0  0  0  0  0  0  0  0  0  0
   70.5489   49.4880   53.2860 N   0  0  0  0  0  0  0  0  0  0  0  0
   70.1421   48.6822   52.3040 C   0  0  0  0  0  0  0  0  0  0  0  0
   70.5253   48.8003   51.0963 O   0  0  0  0  0  0  0  0  0  0  0  0
   69.2570   47.6763   52.6554 C   0  0  0  0  0  0  0  0  0  0  0  0
   68.8041   46.8350   51.6602 C   0  0  0  0  0  0  0  0  0  0  0  0
   67.9035   45.8320   51.9854 C   0  0  0  0  0  0  0  0  0  0  0  0
   67.5053   45.7280   53.2943 C   0  0  0  0  0  0  0  0  0  0  0  0
   67.9605   46.5714   54.2908 C   0  0  0  0  0  0  0  0  0  0  0  0
   68.8457   47.5570   53.9799 C   0  0  0  0  0  0  0  0  0  0  0  0
  7  8  2  0
  8  9  1  0
  8 12  1  0
  9 10  1  0
 10 11  1  0
 11 12  1  0
 12  1  1  0
  1  2  2  0
  1  6  1  0
  2  3  1  0
  3  4  2  0
  4  5  1  0
  5 13  1  0
  5  6  2  0
 13 14  1  0
 14 15  2  0
 14 24  1  0
 15 16  1  0
 16 17  1  0
 17 18  2  0
 17 19  1  0
 19 20  1  0
 19 24  2  0
 20 21  2  0
 21 22  1  0
 22 23  2  0
 23 24  1  0
M  END
>  <minimizedAffinity>  (364) 
-8.96105

$$$$
data/reference_output_2/data/smiles/119739.pdb
     RDKit          3D

 23 24  0  0  0  0  0  0  0  0999 V2000
   69.0098   44.9908   56.5522 C   0  0  0  0  0  0  0  0  0  0  0  0
   70.2315   45.7262   57.4780 S   0  0  0  0  0  0  0  0  0  0  0  0
   67.0024   43.0981   55.5778 O   0  0  0  0  0  0  0  0  0  0  0  0
   67.9258   42.7456   56.2841 C   0  0  0  0  0  0  0  0  0  0  0  0
   68.9114   43.6265   56.7730 N   0  0  0  0  0  0  0  0  0  0  0  0
   68.0356   41.2955   56.6662 C   0  0  0  0  0  0  0  0  0  0  0  0
   68.3704   41.2179   58.1326 C   0  0  0  0  0  0  0  0  0  0  0  0
   69.5694   40.3743   58.3076 C   0  0  0  0  0  0  0  0  0  0  0  0
   70.8176   40.9632   58.3862 C   0  0  0  0  0  0  0  0  0  0  0  0
   71.9333   40.1526   58.5521 C   0  0  0  0  0  0  0  0  0  0  0  0
   71.7696   38.7756   58.6337 C   0  0  0  0  0  0  0  0  0  0  0  0
   70.5242   38.1970   58.5539 C   0  0  0  0  0  0  0  0  0  0  0  0
   69.4236   39.0139   58.3896 C   0  0  0  0  0  0  0  0  0  0  0  0
   68.3211   45.8472   55.7443 N   0  0  0  0  0  0  0  0  0  0  0  0
   68.3803   46.2120   54.3924 C   0  0  0  0  0  0  0  0  0  0  0  0
   67.6466   45.5002   53.4353 C   0  0  0  0  0  0  0  0  0  0  0  0
   67.7386   45.8346   52.1003 C   0  0  0  0  0  0  0  0  0  0  0  0
   68.5712   46.8884   51.7208 C   0  0  0  0  0  0  0  0  0  0  0  0
   69.3038   47.6059   52.6421 C   0  0  0  0  0  0  0  0  0  0  0  0
   69.2050   47.2642   53.9732 C   0  0  0  0  0  0  0  0  0  0  0  0
   70.1661   48.7051   52.2056 C   0  0  0  0  0  0  0  0  0  0  0  0
   69.8977   49.3392   51.1565 O   0  0  0  0  0  0  0  0  0  0  0  0
   71.2934   49.0900   52.9124 O   0  0  0  0  0  0  0  0  0  0  0  0
  3  4  2  0
  4  6  1  0
  4  5  1  0
  6  7  1  0
  7  8  1  0
  8  9  2  0
  8 13  1  0
  9 10  1  0
 10 11  2  0
 11 12  1  0
 12 13  2  0
  5  1  1  0
  1  2  2  0
  1 14  1  0
 14 15  1  0
 15 16  2  0
 15 20  1  0
 16 17  1  0
 17 18  2  0
 18 19  1  0
 19 21  1  0
 19 20  2  0
 21 22  2  0
 21 23  1  0
M  END
>  <minimizedAffinity>  (365) 
-8.73705

$$$$
data/reference_output_2/data/smiles/119777.pdb
     RDKit          3D

 31 33  0  0  0  0  0  0  0  0999 V2000
   71.3511   43.6587   57.9429 C   0  0  0  0  0  0  0  0  0  0  0  0
   72.0650   44.7083   58.4855 C   0  0  0  0  0  0  0  0  0  0  0  0
   71.6040   46.0091   58.4296 C   0  0  0  0  0  0  0  0  0  0  0  0
   70.4048   46.3207   57.8269 C   0  0  0  0  0  0  0  0  0  0  0  0
   69.6728   45.2904   57.2772 C   0  0  0  0  0  0  0  0  0  0  0  0
   70.1537   43.9769   57.3428 C   0  0  0  0  0  0  0  0  0  0  0  0
   73.0751   42.0927   57.7280 O   0  0  0  0  0  0  0  0  0  0  0  0
   71.8706   42.3002   58.0232 C   0  0  0  0  0  0  0  0  0  0  0  0
   71.1219   41.1678   58.4106 N   0  0  0  0  0  0  0  0  0  0  0  0
   71.6225   39.8649   58.4866 N   0  0  0  0  0  0  0  0  0  0  0  0
   70.8150   38.7128   58.3552 C   0  0  0  0  0  0  0  0  0  0  0  0
   69.5892   38.9274   58.1606 O   0  0  0  0  0  0  0  0  0  0  0  0
   71.3068   37.3413   58.4293 C   0  0  0  0  0  0  0  0  0  0  0  0
   72.1746   36.8043   57.5117 C   0  0  0  0  0  0  0  0  0  0  0  0
   72.6293   35.4847   57.6100 C   0  0  0  0  0  0  0  0  0  0  0  0
   72.2135   34.6745   58.6442 C   0  0  0  0  0  0  0  0  0  0  0  0
   71.3417   35.2146   59.5650 C   0  0  0  0  0  0  0  0  0  0  0  0
   70.8961   36.5248   59.4603 C   0  0  0  0  0  0  0  0  0  0  0  0
   70.0150   37.0663   60.3949 O   0  0  0  0  0  0  0  0  0  0  0  0
   69.9606   47.6875   57.7884 N   0  0  0  0  0  0  0  0  0  0  0  0
   68.5735   48.1796   56.9250 S   0  0  0  0  0  0  0  0  0  0  0  0
   67.3154   47.6253   57.5256 O   0  0  0  0  0  0  0  0  0  0  0  0
   68.4696   49.6741   56.9729 O   0  0  0  0  0  0  0  0  0  0  0  0
   68.6903   47.7309   55.2163 C   0  0  0  0  0  0  0  0  0  0  0  0
   69.4683   48.4535   54.3356 C   0  0  0  0  0  0  0  0  0  0  0  0
   69.5585   48.1017   53.0027 C   0  0  0  0  0  0  0  0  0  0  0  0
   68.8738   47.0179   52.5136 C   0  0  0  0  0  0  0  0  0  0  0  0
   68.9984   46.7179   51.1980 F   0  0  0  0  0  0  0  0  0  0  0  0
   68.0910   46.2832   53.3774 C   0  0  0  0  0  0  0  0  0  0  0  0
   67.4128   45.2077   52.8896 F   0  0  0  0  0  0  0  0  0  0  0  0
   68.0085   46.6444   54.7083 C   0  0  0  0  0  0  0  0  0  0  0  0
  7  8  2  0
  8  9  1  0
  8  1  1  0
  9 10  1  0
 10 11  1  0
 11 12  2  0
 11 13  1  0
 13 14  2  0
 13 18  1  0
 14 15  1  0
 15 16  2  0
 16 17  1  0
 17 18  2  0
 18 19  1  0
  1  2  2  0
  1  6  1  0
  2  3  1  0
  3  4  2  0
  4 20  1  0
  4  5  1  0
 20 21  1  0
 21 22  2  0
 21 23  2  0
 21 24  1  0
 24 25  2  0
 24 31  1  0
 25 26  1  0
 26 27  2  0
 27 28  1  0
 27 29  1  0
 29 30  1  0
 29 31  2  0
  5  6  2  0
M  END
>  <minimizedAffinity>  (366) 
-9.57399

$$$$
data/reference_output_2/data/smiles/119871.pdb
     RDKit          3D

 28 29  0  0  0  0  0  0  0  0999 V2000
   68.2967   45.4887   55.0528 C   0  0  0  0  0  0  0  0  0  0  0  0
   68.7812   46.5166   55.8661 C   0  0  0  0  0  0  0  0  0  0  0  0
   69.2852   47.6716   55.3393 C   0  0  0  0  0  0  0  0  0  0  0  0
   69.3571   47.9172   53.9554 C   0  0  0  0  0  0  0  0  0  0  0  0
   68.8891   46.9203   53.1539 C   0  0  0  0  0  0  0  0  0  0  0  0
   68.3699   45.7322   53.7179 C   0  0  0  0  0  0  0  0  0  0  0  0
   68.4893   43.3906   56.4501 C   0  0  0  0  0  0  0  0  0  0  0  0
   69.7112   43.5458   56.6530 O   0  0  0  0  0  0  0  0  0  0  0  0
   67.7874   44.3198   55.6817 N   0  0  0  0  0  0  0  0  0  0  0  0
   67.7367   41.0228   56.1516 C   0  0  0  0  0  0  0  0  0  0  0  0
   67.8668   42.1902   57.0685 C   0  0  2  0  0  0  0  0  0  0  0  0
   66.6152   42.4945   57.6184 O   0  0  0  0  0  0  0  0  0  0  0  0
   68.8014   41.7777   58.2152 C   0  0  0  0  0  0  0  0  0  0  0  0
   69.9511   41.2215   57.7247 F   0  0  0  0  0  0  0  0  0  0  0  0
   68.1436   40.8409   58.9710 F   0  0  0  0  0  0  0  0  0  0  0  0
   69.0521   42.8616   59.0378 F   0  0  0  0  0  0  0  0  0  0  0  0
   69.9635   49.4713   53.4148 S   0  0  0  0  0  0  0  0  0  0  0  0
   71.4313   49.3304   53.0494 O   0  0  0  0  0  0  0  0  0  0  0  0
   69.2365   49.8444   52.1467 O   0  0  0  0  0  0  0  0  0  0  0  0
   69.8818   50.7252   54.5995 C   0  0  0  0  0  0  0  0  0  0  0  0
   68.7167   51.5027   54.6427 C   0  0  0  0  0  0  0  0  0  0  0  0
   68.5256   52.4958   55.5739 C   0  0  0  0  0  0  0  0  0  0  0  0
   69.5048   52.7489   56.5080 C   0  0  0  0  0  0  0  0  0  0  0  0
   70.6613   52.0125   56.5042 C   0  0  0  0  0  0  0  0  0  0  0  0
   70.8235   51.0086   55.5405 C   0  0  0  0  0  0  0  0  0  0  0  0
   68.9603   47.0170   51.7093 C   0  0  0  0  0  0  0  0  0  0  0  0
   67.9894   46.9358   50.9610 O   0  0  0  0  0  0  0  0  0  0  0  0
   70.2024   47.2135   51.1259 O   0  0  0  0  0  0  0  0  0  0  0  0
 11 10  1  6
 11 12  1  0
 11  7  1  0
 11 13  1  0
  7  8  2  0
  7  9  1  0
  9  1  1  0
  1  2  2  0
  1  6  1  0
  2  3  1  0
  3  4  2  0
  4 17  1  0
  4  5  1  0
 17 18  2  0
 17 19  2  0
 17 20  1  0
 20 21  2  0
 20 25  1  0
 21 22  1  0
 22 23  2  0
 23 24  1  0
 24 25  2  0
  5 26  1  0
  5  6  2  0
 26 27  2  0
 26 28  1  0
 13 14  1  0
 13 15  1  0
 13 16  1  0
M  END
>  <minimizedAffinity>  (367) 
-8.52177

$$$$
data/reference_output_2/data/smiles/119890.pdb
     RDKit          3D

 24 25  0  0  0  0  0  0  0  0999 V2000
   68.5688   41.1632   58.6277 C   0  0  0  0  0  0  0  0  0  0  0  0
   70.2377   39.2935   58.9196 N   0  0  0  0  0  0  0  0  0  0  0  0
   69.0605   39.7771   58.2993 C   0  0  0  0  0  0  0  0  0  0  0  0
   68.4527   39.0496   57.4965 O   0  0  0  0  0  0  0  0  0  0  0  0
   69.5184   37.2993   60.6832 C   0  0  0  0  0  0  0  0  0  0  0  0
   70.4959   37.0133   59.6199 C   0  0  0  0  0  0  0  0  0  0  0  0
   71.0305   35.7414   59.5342 C   0  0  0  0  0  0  0  0  0  0  0  0
   70.5507   34.5007   60.6713 Cl  0  0  0  0  0  0  0  0  0  0  0  0
   71.9466   35.4261   58.5591 C   0  0  0  0  0  0  0  0  0  0  0  0
   72.2985   36.4262   57.6845 C   0  0  0  0  0  0  0  0  0  0  0  0
   71.7590   37.7243   57.7642 C   0  0  0  0  0  0  0  0  0  0  0  0
   70.8434   38.0374   58.7402 C   0  0  0  0  0  0  0  0  0  0  0  0
   67.2641   41.3657   57.9280 C   0  0  0  0  0  0  0  0  0  0  0  0
   67.4236   42.0601   56.6408 C   0  0  0  0  0  0  0  0  0  0  0  0
   67.1980   41.4222   55.5804 O   0  0  0  0  0  0  0  0  0  0  0  0
   67.8249   43.4311   56.5551 N   0  0  0  0  0  0  0  0  0  0  0  0
   67.9471   43.9947   55.2831 N   0  0  0  0  0  0  0  0  0  0  0  0
   68.2169   45.3959   55.1727 C   0  0  0  0  0  0  0  0  0  0  0  0
   68.3295   46.0486   56.2414 O   0  0  0  0  0  0  0  0  0  0  0  0
   68.3551   46.0421   53.8663 C   0  0  0  0  0  0  0  0  0  0  0  0
   67.7162   45.6371   52.7362 C   0  0  0  0  0  0  0  0  0  0  0  0
   68.1196   46.5125   51.7322 C   0  0  0  0  0  0  0  0  0  0  0  0
   68.9975   47.4097   52.3356 C   0  0  0  0  0  0  0  0  0  0  0  0
   69.0951   47.0776   53.6005 O   0  0  0  0  0  0  0  0  0  0  0  0
  5  6  1  0
  6  7  2  0
  6 12  1  0
  7  8  1  0
  7  9  1  0
  9 10  2  0
 10 11  1  0
 11 12  2  0
 12  2  1  0
  2  3  1  0
  3  4  2  0
  3  1  1  0
  1 13  1  0
 13 14  1  0
 14 15  2  0
 14 16  1  0
 16 17  1  0
 17 18  1  0
 18 19  2  0
 18 20  1  0
 20 21  2  0
 20 24  1  0
 21 22  1  0
 22 23  2  0
 23 24  1  0
M  END
>  <minimizedAffinity>  (368) 
-8.87051

$$$$
data/reference_output_2/data/smiles/119891.pdb
     RDKit          3D

 25 27  0  0  0  0  0  0  0  0999 V2000
   69.2053   47.8645   55.2244 N   0  0  0  0  0  0  0  0  0  0  0  0
   70.0425   48.9553   55.0972 C   0  0  0  0  0  0  0  0  0  0  0  0
   70.4850   49.4568   53.9249 C   0  0  0  0  0  0  0  0  0  0  0  0
   70.0789   48.8420   52.7691 C   0  0  0  0  0  0  0  0  0  0  0  0
   70.4706   49.2822   51.6552 O   0  0  0  0  0  0  0  0  0  0  0  0
   69.2431   47.7460   52.8469 C   0  0  0  0  0  0  0  0  0  0  0  0
   68.8547   47.1210   51.6808 C   0  0  0  0  0  0  0  0  0  0  0  0
   68.0402   46.0111   51.6838 C   0  0  0  0  0  0  0  0  0  0  0  0
   67.6263   45.5446   52.9016 C   0  0  0  0  0  0  0  0  0  0  0  0
   67.9993   46.1504   54.1074 C   0  0  0  0  0  0  0  0  0  0  0  0
   67.6027   45.6312   55.2669 F   0  0  0  0  0  0  0  0  0  0  0  0
   68.8174   47.2707   54.0988 C   0  0  0  0  0  0  0  0  0  0  0  0
   71.3753   50.6204   53.8241 C   0  0  0  0  0  0  0  0  0  0  0  0
   70.9120   51.7622   53.6174 O   0  0  0  0  0  0  0  0  0  0  0  0
   72.7424   50.4892   53.9533 O   0  0  0  0  0  0  0  0  0  0  0  0
   68.7473   47.4997   56.5347 C   0  0  0  0  0  0  0  0  0  0  0  0
   71.5379   47.0276   59.1013 C   0  0  0  0  0  0  0  0  0  0  0  0
   71.7516   45.6790   58.9344 C   0  0  0  0  0  0  0  0  0  0  0  0
   71.0309   44.9343   58.0347 C   0  0  0  0  0  0  0  0  0  0  0  0
   70.0730   45.5561   57.2818 C   0  0  0  0  0  0  0  0  0  0  0  0
   69.8147   46.9125   57.4067 C   0  0  0  0  0  0  0  0  0  0  0  0
   70.5420   47.6144   58.3020 C   0  0  0  0  0  0  0  0  0  0  0  0
   73.0750   48.9059   59.6009 N   0  0  0  0  0  0  0  0  0  0  0  0
   72.2896   47.8301   60.0470 C   0  0  0  0  0  0  0  0  0  0  0  0
   72.2426   47.5687   61.2702 O   0  0  0  0  0  0  0  0  0  0  0  0
 23 24  1  0
 24 25  2  0
 24 17  1  0
 17 18  2  0
 17 22  1  0
 18 19  1  0
 19 20  2  0
 20 21  1  0
 21 16  1  0
 21 22  2  0
 16  1  1  0
  1  2  1  0
  1 12  1  0
  2  3  2  0
  3 13  1  0
  3  4  1  0
 13 14  2  0
 13 15  1  0
  4  5  2  0
  4  6  1  0
  6  7  1  0
  6 12  2  0
  7  8  2  0
  8  9  1  0
  9 10  2  0
 10 11  1  0
 10 12  1  0
M  END
>  <minimizedAffinity>  (369) 
-8.55446

$$$$
data/reference_output_2/data/smiles/119912.pdb
     RDKit          3D

 30 33  0  0  0  0  0  0  0  0999 V2000
   69.7031   38.7187   61.8582 C   0  0  0  0  0  0  0  0  0  0  0  0
   70.0874   38.8589   60.5002 N   0  0  0  0  0  0  0  0  0  0  0  0
   69.9190   40.1113   59.8146 C   0  0  0  0  0  0  0  0  0  0  0  0
   69.1397   40.8967   60.4258 O   0  0  0  0  0  0  0  0  0  0  0  0
   70.5281   40.5579   58.5364 C   0  0  2  0  0  0  0  0  0  0  0  0
   71.9614   40.1033   58.4584 C   0  0  0  0  0  0  0  0  0  0  0  0
   72.0718   38.7317   58.1092 O   0  0  0  0  0  0  0  0  0  0  0  0
   71.5307   37.6379   58.8138 C   0  0  0  0  0  0  0  0  0  0  0  0
   71.9445   36.4120   58.3708 C   0  0  0  0  0  0  0  0  0  0  0  0
   71.4866   35.2432   58.9765 C   0  0  0  0  0  0  0  0  0  0  0  0
   71.9024   34.0309   58.5311 F   0  0  0  0  0  0  0  0  0  0  0  0
   70.6037   35.2805   60.0403 C   0  0  0  0  0  0  0  0  0  0  0  0
   70.2054   36.5304   60.4635 C   0  0  0  0  0  0  0  0  0  0  0  0
   69.3399   36.6390   61.4950 F   0  0  0  0  0  0  0  0  0  0  0  0
   70.6399   37.7029   59.8855 C   0  0  0  0  0  0  0  0  0  0  0  0
   70.4257   41.9956   58.4114 N   0  0  0  0  0  0  0  0  0  0  0  0
   69.5988   42.6205   57.4541 C   0  0  0  0  0  0  0  0  0  0  0  0
   68.9204   41.9249   56.6746 O   0  0  0  0  0  0  0  0  0  0  0  0
   69.5109   44.0743   57.3464 C   0  0  0  0  0  0  0  0  0  0  0  0
   69.9554   44.9804   58.2669 N   0  0  0  0  0  0  0  0  0  0  0  0
   69.6968   46.1882   57.8079 N   0  0  0  0  0  0  0  0  0  0  0  0
   69.0943   46.0858   56.6122 C   0  0  0  0  0  0  0  0  0  0  0  0
   68.9881   44.7914   56.3428 N   0  0  0  0  0  0  0  0  0  0  0  0
   68.6656   47.2647   55.8166 C   0  0  0  0  0  0  0  0  0  0  0  0
   68.5600   46.9991   54.3803 C   0  0  0  0  0  0  0  0  0  0  0  0
   67.7655   46.0133   53.8277 C   0  0  0  0  0  0  0  0  0  0  0  0
   67.7209   45.8246   52.4432 C   0  0  0  0  0  0  0  0  0  0  0  0
   68.4679   46.6161   51.5976 C   0  0  0  0  0  0  0  0  0  0  0  0
   69.2628   47.6010   52.1364 C   0  0  0  0  0  0  0  0  0  0  0  0
   69.2912   47.7689   53.4992 C   0  0  0  0  0  0  0  0  0  0  0  0
  1  2  1  0
  2  3  1  0
  2 15  1  0
  3  4  2  0
  3  5  1  0
  5 16  1  1
  5  6  1  0
 16 17  1  0
 17 18  2  0
 17 19  1  0
 19 20  2  0
 19 23  1  0
 20 21  1  0
 21 22  1  0
 22 24  1  0
 22 23  2  0
 24 25  1  0
 25 26  2  0
 25 30  1  0
 26 27  1  0
 27 28  2  0
 28 29  1  0
 29 30  2  0
  6  7  1  0
  7  8  1  0
  8  9  2  0
  8 15  1  0
  9 10  1  0
 10 11  1  0
 10 12  2  0
 12 13  1  0
 13 14  1  0
 13 15  2  0
M  END
>  <minimizedAffinity>  (370) 
-9.10692

$$$$
data/reference_output_2/data/smiles/120012.pdb
     RDKit          3D

 28 31  0  0  0  0  0  0  0  0999 V2000
   70.1084   45.1794   57.4356 C   0  0  0  0  0  0  0  0  0  0  0  0
   69.2671   44.2346   56.9065 C   0  0  0  0  0  0  0  0  0  0  0  0
   69.5130   42.8633   57.0200 C   0  0  0  0  0  0  0  0  0  0  0  0
   70.6003   42.3750   57.6598 C   0  0  0  0  0  0  0  0  0  0  0  0
   71.4740   43.3217   58.2066 C   0  0  0  0  0  0  0  0  0  0  0  0
   71.2344   44.6582   58.0969 C   0  0  0  0  0  0  0  0  0  0  0  0
   70.9192   41.0156   57.8229 N   0  0  0  0  0  0  0  0  0  0  0  0
   70.3529   40.0832   58.7029 C   0  0  0  0  0  0  0  0  0  0  0  0
   69.4480   40.4452   59.4648 O   0  0  0  0  0  0  0  0  0  0  0  0
   70.7786   38.6700   58.7799 C   0  0  0  0  0  0  0  0  0  0  0  0
   70.1767   37.8199   59.6854 C   0  0  0  0  0  0  0  0  0  0  0  0
   70.5407   36.4858   59.7880 C   0  0  0  0  0  0  0  0  0  0  0  0
   71.5261   35.9552   58.9831 C   0  0  0  0  0  0  0  0  0  0  0  0
   72.1213   36.8160   58.0801 C   0  0  0  0  0  0  0  0  0  0  0  0
   71.7560   38.1456   57.9796 C   0  0  0  0  0  0  0  0  0  0  0  0
   70.7720   47.2866   58.0433 O   0  0  0  0  0  0  0  0  0  0  0  0
   69.9065   46.5910   57.3348 C   0  0  0  0  0  0  0  0  0  0  0  0
   68.9581   47.4214   56.6271 C   0  0  0  0  0  0  0  0  0  0  0  0
   69.2513   47.8600   55.3021 N   0  0  0  0  0  0  0  0  0  0  0  0
   70.0478   48.9701   55.1624 C   0  0  0  0  0  0  0  0  0  0  0  0
   70.4112   49.4018   53.9101 C   0  0  0  0  0  0  0  0  0  0  0  0
   70.0043   48.7600   52.7720 C   0  0  0  0  0  0  0  0  0  0  0  0
   69.2057   47.6521   52.9290 C   0  0  0  0  0  0  0  0  0  0  0  0
   68.7601   47.0243   51.7862 C   0  0  0  0  0  0  0  0  0  0  0  0
   67.9303   45.9382   51.8631 C   0  0  0  0  0  0  0  0  0  0  0  0
   67.5597   45.4977   53.1044 C   0  0  0  0  0  0  0  0  0  0  0  0
   68.0047   46.1237   54.2391 C   0  0  0  0  0  0  0  0  0  0  0  0
   68.8385   47.2166   54.2190 C   0  0  0  0  0  0  0  0  0  0  0  0
 16 17  2  0
 17 18  1  0
 17  1  1  0
 18 19  1  0
 19 20  2  0
 19 28  1  0
 20 21  1  0
 21 22  2  0
 22 23  1  0
 23 24  1  0
 23 28  2  0
 24 25  2  0
 25 26  1  0
 26 27  2  0
 27 28  1  0
  1  2  2  0
  1  6  1  0
  2  3  1  0
  3  4  2  0
  4  7  1  0
  4  5  1  0
  7  8  1  0
  8  9  2  0
  8 10  1  0
 10 11  2  0
 10 15  1  0
 11 12  1  0
 12 13  2  0
 13 14  1  0
 14 15  2  0
  5  6  2  0
M  CHG  1  19   1
M  END
>  <minimizedAffinity>  (371) 
-8.91276

$$$$
data/reference_output_2/data/smiles/120091.pdb
     RDKit          3D

 27 29  0  0  0  0  0  0  0  0999 V2000
   68.8518   45.2211   55.9817 C   0  0  0  0  0  0  0  0  0  0  0  0
   68.2519   45.3300   54.7138 C   0  0  0  0  0  0  0  0  0  0  0  0
   68.2158   46.5274   54.1014 C   0  0  0  0  0  0  0  0  0  0  0  0
   68.7597   47.6680   54.6895 C   0  0  0  0  0  0  0  0  0  0  0  0
   69.3359   47.6041   55.8961 N   0  0  0  0  0  0  0  0  0  0  0  0
   69.3577   46.3693   56.4945 C   0  0  0  0  0  0  0  0  0  0  0  0
   69.9105   46.3195   57.6400 O   0  0  0  0  0  0  0  0  0  0  0  0
   68.9248   49.0472   54.2628 C   0  0  0  0  0  0  0  0  0  0  0  0
   70.1331   49.0918   53.3526 C   0  0  0  0  0  0  0  0  0  0  0  0
   69.7605   48.5007   52.0064 C   0  0  0  0  0  0  0  0  0  0  0  0
   69.8061   46.9930   52.0242 C   0  0  0  0  0  0  0  0  0  0  0  0
   68.4747   46.3843   51.6253 C   0  0  0  0  0  0  0  0  0  0  0  0
   67.5258   46.3020   52.8034 C   0  0  0  0  0  0  0  0  0  0  0  0
   67.7597   43.0773   56.8522 N   0  0  0  0  0  0  0  0  0  0  0  0
   68.8737   43.9041   56.6171 C   0  0  0  0  0  0  0  0  0  0  0  0
   69.9927   43.4172   57.0129 O   0  0  0  0  0  0  0  0  0  0  0  0
   67.8887   41.7686   57.5014 C   0  0  0  0  0  0  0  0  0  0  0  0
   67.1985   40.9930   55.3531 O   0  0  0  0  0  0  0  0  0  0  0  0
   67.6791   40.7190   56.4734 C   0  0  0  0  0  0  0  0  0  0  0  0
   68.0189   39.3813   56.7376 O   0  0  0  0  0  0  0  0  0  0  0  0
   69.8598   48.6822   56.6485 C   0  0  0  0  0  0  0  0  0  0  0  0
   68.9988   49.1892   57.7779 C   0  0  0  0  0  0  0  0  0  0  0  0
   69.5202   50.5368   58.2599 C   0  0  0  0  0  0  0  0  0  0  0  0
   69.2667   51.6195   57.2346 C   0  0  0  0  0  0  0  0  0  0  0  0
   67.8143   51.6205   56.8703 C   0  0  0  0  0  0  0  0  0  0  0  0
   66.9714   50.6475   57.6252 C   0  0  0  0  0  0  0  0  0  0  0  0
   67.5481   49.2260   57.6386 C   0  0  0  0  0  0  0  0  0  0  0  0
 18 19  2  0
 19 20  1  0
 19 17  1  0
 17 14  1  0
 14 15  1  0
 15 16  2  0
 15  1  1  0
  1  2  2  0
  1  6  1  0
  2  3  1  0
  3  4  2  0
  3 13  1  0
  4  5  1  0
  4  8  1  0
  5 21  1  0
  5  6  1  0
 21 22  1  0
 22 23  1  0
 22 27  1  0
 23 24  1  0
 24 25  1  0
 25 26  1  0
 26 27  1  0
  6  7  2  0
  8  9  1  0
  9 10  1  0
 10 11  1  0
 11 12  1  0
 12 13  1  0
M  END
>  <minimizedAffinity>  (372) 
-8.69801

$$$$
data/reference_output_2/data/smiles/120238.pdb
     RDKit          3D

 22 24  0  0  0  0  0  0  0  0999 V2000
   68.8222   46.9737   54.3969 C   0  0  0  0  0  0  0  0  0  0  0  0
   68.7662   46.4216   53.1417 C   0  0  0  0  0  0  0  0  0  0  0  0
   69.0578   47.1930   52.0139 C   0  0  0  0  0  0  0  0  0  0  0  0
   69.4017   48.5091   52.1577 C   0  0  0  0  0  0  0  0  0  0  0  0
   69.7148   49.5065   51.3149 N   0  0  0  0  0  0  0  0  0  0  0  0
   69.9521   50.5891   51.9451 O   0  0  0  0  0  0  0  0  0  0  0  0
   69.8209   50.4173   53.2543 C   0  0  0  0  0  0  0  0  0  0  0  0
   69.4712   49.1102   53.4226 C   0  0  0  0  0  0  0  0  0  0  0  0
   69.1741   48.3086   54.5000 C   0  0  0  0  0  0  0  0  0  0  0  0
   70.0285   51.4801   54.2111 C   0  0  0  0  0  0  0  0  0  0  0  0
   71.2214   52.0195   54.6079 C   0  0  0  0  0  0  0  0  0  0  0  0
   71.3472   53.0126   55.5903 C   0  0  0  0  0  0  0  0  0  0  0  0
   70.2219   53.4858   56.2013 C   0  0  0  0  0  0  0  0  0  0  0  0
   69.0012   52.9689   55.8284 C   0  0  0  0  0  0  0  0  0  0  0  0
   68.8932   52.0012   54.8710 C   0  0  0  0  0  0  0  0  0  0  0  0
   68.5191   46.1815   55.5775 C   0  0  0  0  0  0  0  0  0  0  0  0
   68.0402   45.0345   55.4441 O   0  0  0  0  0  0  0  0  0  0  0  0
   68.7481   46.6683   56.8427 O   0  0  0  0  0  0  0  0  0  0  0  0
   70.0110   46.9432   57.3841 C   0  0  0  0  0  0  0  0  0  0  0  0
   71.7193   45.1187   57.8925 N   0  0  0  0  0  0  0  0  0  0  0  0
   70.4891   45.7658   58.1558 C   0  0  0  0  0  0  0  0  0  0  0  0
   69.7721   45.3047   59.1008 O   0  0  0  0  0  0  0  0  0  0  0  0
 20 21  1  0
 21 22  2  0
 21 19  1  0
 19 18  1  0
 18 16  1  0
 16 17  2  0
 16  1  1  0
  1  2  1  0
  1  9  2  0
  2  3  2  0
  3  4  1  0
  4  5  2  0
  4  8  1  0
  5  6  1  0
  6  7  1  0
  7 10  1  0
  7  8  2  0
 10 11  2  0
 10 15  1  0
 11 12  1  0
 12 13  2  0
 13 14  1  0
 14 15  2  0
  8  9  1  0
M  END
>  <minimizedAffinity>  (373) 
-8.64492

$$$$
data/reference_output_2/data/smiles/120249.pdb
     RDKit          3D

 28 31  0  0  0  0  0  0  0  0999 V2000
   71.0928   42.8697   58.1188 C   0  0  0  0  0  0  0  0  0  0  0  0
   72.1493   43.4471   58.8002 C   0  0  0  0  0  0  0  0  0  0  0  0
   72.3032   44.8181   58.8629 C   0  0  0  0  0  0  0  0  0  0  0  0
   71.4081   45.6631   58.2500 C   0  0  0  0  0  0  0  0  0  0  0  0
   70.3373   45.1180   57.5580 C   0  0  0  0  0  0  0  0  0  0  0  0
   69.3002   45.7064   56.8786 C   0  0  0  0  0  0  0  0  0  0  0  0
   68.5557   44.6526   56.4320 N   0  0  0  0  0  0  0  0  0  0  0  0
   69.1027   43.5105   56.8128 N   0  0  0  0  0  0  0  0  0  0  0  0
   70.2114   43.7421   57.5139 C   0  0  0  0  0  0  0  0  0  0  0  0
   70.0042   40.8118   58.9108 C   0  0  0  0  0  0  0  0  0  0  0  0
   69.3488   41.5479   59.6912 O   0  0  0  0  0  0  0  0  0  0  0  0
   70.9397   41.4563   58.0572 N   0  0  0  0  0  0  0  0  0  0  0  0
   69.8291   39.3242   58.8603 C   0  0  0  0  0  0  0  0  0  0  0  0
   68.0385   39.3605   57.1851 N   0  0  0  0  0  0  0  0  0  0  0  0
   68.4226   38.9530   58.5159 C   0  0  0  0  0  0  0  0  0  0  0  0
   68.9169   47.3632   56.5265 S   0  0  0  0  0  0  0  0  0  0  0  0
   67.4559   47.6005   56.8353 O   0  0  0  0  0  0  0  0  0  0  0  0
   69.6693   48.2855   57.4604 O   0  0  0  0  0  0  0  0  0  0  0  0
   69.2556   47.8745   54.9082 C   0  0  0  0  0  0  0  0  0  0  0  0
   70.0469   49.0118   54.7065 C   0  0  0  0  0  0  0  0  0  0  0  0
   70.3345   49.4900   53.4449 C   0  0  0  0  0  0  0  0  0  0  0  0
   69.8465   48.8561   52.3306 C   0  0  0  0  0  0  0  0  0  0  0  0
   69.0656   47.7336   52.5000 C   0  0  0  0  0  0  0  0  0  0  0  0
   68.5905   47.1065   51.3698 C   0  0  0  0  0  0  0  0  0  0  0  0
   67.7992   45.9580   51.4727 C   0  0  0  0  0  0  0  0  0  0  0  0
   67.5264   45.4972   52.7462 C   0  0  0  0  0  0  0  0  0  0  0  0
   68.0038   46.1308   53.8642 C   0  0  0  0  0  0  0  0  0  0  0  0
   68.7847   47.2651   53.7835 C   0  0  0  0  0  0  0  0  0  0  0  0
 14 15  1  0
 15 13  1  0
 13 10  1  0
 10 11  2  0
 10 12  1  0
 12  1  1  0
  1  2  2  0
  1  9  1  0
  2  3  1  0
  3  4  2  0
  4  5  1  0
  5  6  1  0
  5  9  2  0
  6 16  1  0
  6  7  2  0
 16 17  2  0
 16 18  2  0
 16 19  1  0
 19 20  2  0
 19 28  1  0
 20 21  1  0
 21 22  2  0
 22 23  1  0
 23 24  1  0
 23 28  2  0
 24 25  2  0
 25 26  1  0
 26 27  2  0
 27 28  1  0
  7  8  1  0
  8  9  1  0
M  CHG  1  14   1
M  END
>  <minimizedAffinity>  (374) 
-8.98254

$$$$
data/reference_output_2/data/smiles/120280.pdb
     RDKit          3D

 25 27  0  0  0  0  0  0  0  0999 V2000
   70.3769   46.5130   57.8390 C   0  0  0  0  0  0  0  0  0  0  0  0
   70.8735   44.0446   57.4322 N   0  0  0  0  0  0  0  0  0  0  0  0
   70.3244   45.0989   58.2023 C   0  0  0  0  0  0  0  0  0  0  0  0
   69.7570   44.7454   59.2762 O   0  0  0  0  0  0  0  0  0  0  0  0
   69.5884   40.5811   57.9244 C   0  0  0  0  0  0  0  0  0  0  0  0
   70.7007   39.9688   58.5102 C   0  0  0  0  0  0  0  0  0  0  0  0
   71.8372   40.7088   58.7264 C   0  0  0  0  0  0  0  0  0  0  0  0
   71.9075   42.0423   58.3780 C   0  0  0  0  0  0  0  0  0  0  0  0
   70.8165   42.6730   57.7953 C   0  0  0  0  0  0  0  0  0  0  0  0
   69.6902   41.9017   57.5920 C   0  0  0  0  0  0  0  0  0  0  0  0
   67.8585   38.9980   58.8372 C   0  0  0  0  0  0  0  0  0  0  0  0
   68.3824   39.7944   57.6956 C   0  0  0  0  0  0  0  0  0  0  0  0
   67.8246   39.7963   56.5893 O   0  0  0  0  0  0  0  0  0  0  0  0
   69.0776   47.0600   57.8928 O   0  0  0  0  0  0  0  0  0  0  0  0
   68.4467   47.6417   56.8037 C   0  0  0  0  0  0  0  0  0  0  0  0
   67.8928   48.7662   57.0057 O   0  0  0  0  0  0  0  0  0  0  0  0
   68.4050   47.0270   55.4938 C   0  0  0  0  0  0  0  0  0  0  0  0
   67.8391   45.8562   55.1725 N   0  0  0  0  0  0  0  0  0  0  0  0
   68.0022   45.6218   53.8708 N   0  0  0  0  0  0  0  0  0  0  0  0
   68.6873   46.6442   53.2969 C   0  0  0  0  0  0  0  0  0  0  0  0
   69.1043   46.8802   52.0062 C   0  0  0  0  0  0  0  0  0  0  0  0
   69.7905   48.0380   51.7575 C   0  0  0  0  0  0  0  0  0  0  0  0
   70.0441   48.9223   52.7742 C   0  0  0  0  0  0  0  0  0  0  0  0
   69.6253   48.6846   54.0716 C   0  0  0  0  0  0  0  0  0  0  0  0
   68.9373   47.5352   54.3482 C   0  0  0  0  0  0  0  0  0  0  0  0
 11 12  1  0
 12 13  2  0
 12  5  1  0
  5  6  2  0
  5 10  1  0
  6  7  1  0
  7  8  2  0
  8  9  1  0
  9  2  1  0
  9 10  2  0
  2  3  1  0
  3  4  2  0
  3  1  1  0
  1 14  1  0
 14 15  1  0
 15 16  2  0
 15 17  1  0
 17 18  1  0
 17 25  2  0
 18 19  1  0
 19 20  2  0
 20 21  1  0
 20 25  1  0
 21 22  2  0
 22 23  1  0
 23 24  2  0
 24 25  1  0
M  END
>  <minimizedAffinity>  (375) 
-8.63270

$$$$
data/reference_output_2/data/smiles/120298.pdb
     RDKit          3D

 29 32  0  0  0  0  0  0  0  0999 V2000
   69.9736   43.4656   57.4018 C   0  0  0  0  0  0  0  0  0  0  0  0
   68.7201   42.8516   56.8675 C   0  0  0  0  0  0  0  0  0  0  0  0
   68.1784   41.6458   57.2010 C   0  0  0  0  0  0  0  0  0  0  0  0
   67.0247   41.5308   56.4398 C   0  0  0  0  0  0  0  0  0  0  0  0
   66.9355   42.6552   55.7021 N   0  0  0  0  0  0  0  0  0  0  0  0
   67.9409   43.4648   55.9406 N   0  0  0  0  0  0  0  0  0  0  0  0
   68.1705   44.7455   55.3380 C   0  0  0  0  0  0  0  0  0  0  0  0
   68.5424   45.7985   56.0863 N   0  0  0  0  0  0  0  0  0  0  0  0
   68.7716   47.0258   55.5685 C   0  0  0  0  0  0  0  0  0  0  0  0
   68.6254   47.2385   54.2154 C   0  0  0  0  0  0  0  0  0  0  0  0
   68.2438   46.1541   53.4518 C   0  0  0  0  0  0  0  0  0  0  0  0
   68.1079   46.3440   52.2098 O   0  0  0  0  0  0  0  0  0  0  0  0
   68.0250   44.9396   54.0150 N   0  0  0  0  0  0  0  0  0  0  0  0
   68.9386   48.6741   53.9003 C   0  0  0  0  0  0  0  0  0  0  0  0
   69.8044   49.0716   55.0958 C   0  0  0  0  0  0  0  0  0  0  0  0
   69.1795   48.2959   56.2156 C   0  0  0  0  0  0  0  0  0  0  0  0
   68.7403   40.7113   58.1659 C   0  0  0  0  0  0  0  0  0  0  0  0
   69.7043   39.9861   57.8119 O   0  0  0  0  0  0  0  0  0  0  0  0
   68.2473   40.5853   59.4871 N   0  0  0  0  0  0  0  0  0  0  0  0
   67.1391   41.3820   59.9810 C   0  0  0  0  0  0  0  0  0  0  0  0
   66.1628   40.4310   60.6267 C   0  0  0  0  0  0  0  0  0  0  0  0
   66.4242   38.9900   60.2646 C   0  0  0  0  0  0  0  0  0  0  0  0
   67.8038   38.5284   60.6011 C   0  0  0  0  0  0  0  0  0  0  0  0
   68.8369   39.6437   60.4141 C   0  0  0  0  0  0  0  0  0  0  0  0
   65.4059   38.1534   61.0132 C   0  0  0  0  0  0  0  0  0  0  0  0
   64.6758   37.2357   60.0759 C   0  0  0  0  0  0  0  0  0  0  0  0
   65.4841   36.7170   59.0901 F   0  0  0  0  0  0  0  0  0  0  0  0
   64.1244   36.1912   60.7589 F   0  0  0  0  0  0  0  0  0  0  0  0
   63.6668   37.9973   59.4765 F   0  0  0  0  0  0  0  0  0  0  0  0
  1  2  1  0
  2  3  2  0
  2  6  1  0
  3 17  1  0
  3  4  1  0
 17 18  2  0
 17 19  1  0
 19 20  1  0
 19 24  1  0
 20 21  1  0
 21 22  1  0
 22 25  1  0
 22 23  1  0
 25 26  1  0
 26 27  1  0
 26 28  1  0
 26 29  1  0
 23 24  1  0
  4  5  2  0
  5  6  1  0
  6  7  1  0
  7  8  2  0
  7 13  1  0
  8  9  1  0
  9 10  2  0
  9 16  1  0
 10 11  1  0
 10 14  1  0
 11 12  2  0
 11 13  1  0
 14 15  1  0
 15 16  1  0
M  END
>  <minimizedAffinity>  (376) 
-8.56469

$$$$
data/reference_output_2/data/smiles/120302.pdb
     RDKit          3D

 24 26  0  0  0  0  0  0  0  0999 V2000
   70.9890   46.1033   58.0983 C   0  0  0  0  0  0  0  0  0  0  0  0
   71.7234   46.9841   58.8534 C   0  0  0  0  0  0  0  0  0  0  0  0
   71.4937   48.3364   58.7803 C   0  0  0  0  0  0  0  0  0  0  0  0
   70.5312   48.8721   57.9592 C   0  0  0  0  0  0  0  0  0  0  0  0
   69.7810   48.0167   57.1901 C   0  0  0  0  0  0  0  0  0  0  0  0
   70.0087   46.6719   57.2629 C   0  0  0  0  0  0  0  0  0  0  0  0
   71.1873   44.7078   58.0790 N   0  0  0  0  0  0  0  0  0  0  0  0
   70.0219   43.4974   58.1884 S   0  0  0  0  0  0  0  0  0  0  0  0
   68.9498   43.7129   57.1135 O   0  0  0  0  0  0  0  0  0  0  0  0
   69.2062   43.6382   59.4933 O   0  0  0  0  0  0  0  0  0  0  0  0
   72.0034   41.5977   58.3486 C   0  0  0  0  0  0  0  0  0  0  0  0
   70.5411   41.8338   58.0853 C   0  0  0  0  0  0  0  0  0  0  0  0
   68.7236   48.5779   56.2989 C   0  0  0  0  0  0  0  0  0  0  0  0
   69.1766   48.5972   54.9072 C   0  0  0  0  0  0  0  0  0  0  0  0
   70.0527   49.5520   54.4894 N   0  0  0  0  0  0  0  0  0  0  0  0
   70.4869   49.5985   53.2458 N   0  0  0  0  0  0  0  0  0  0  0  0
   70.1065   48.7229   52.3079 C   0  0  0  0  0  0  0  0  0  0  0  0
   70.5310   48.7761   51.1079 O   0  0  0  0  0  0  0  0  0  0  0  0
   69.2259   47.7296   52.6449 C   0  0  0  0  0  0  0  0  0  0  0  0
   68.8267   46.8243   51.6860 C   0  0  0  0  0  0  0  0  0  0  0  0
   67.9383   45.8430   52.0692 C   0  0  0  0  0  0  0  0  0  0  0  0
   67.4814   45.7898   53.3699 C   0  0  0  0  0  0  0  0  0  0  0  0
   67.8892   46.7098   54.3338 C   0  0  0  0  0  0  0  0  0  0  0  0
   68.7720   47.6857   53.9564 C   0  0  0  0  0  0  0  0  0  0  0  0
 11 12  1  0
 12  8  1  0
  8  9  2  0
  8 10  2  0
  8  7  1  0
  7  1  1  0
  1  2  2  0
  1  6  1  0
  2  3  1  0
  3  4  2  0
  4  5  1  0
  5 13  1  0
  5  6  2  0
 13 14  1  0
 14 15  2  0
 14 24  1  0
 15 16  1  0
 16 17  1  0
 17 18  2  0
 17 19  1  0
 19 20  1  0
 19 24  2  0
 20 21  2  0
 21 22  1  0
 22 23  2  0
 23 24  1  0
M  END
>  <minimizedAffinity>  (377) 
-8.72010

$$$$
data/reference_output_2/data/smiles/120388.pdb
     RDKit          3D

 32 35  0  0  0  0  0  0  0  0999 V2000
   69.9421   39.1873   60.9061 C   0  0  1  0  0  0  0  0  0  0  0  0
   69.2692   38.9024   62.1229 C   0  0  2  0  0  0  0  0  0  0  0  0
   69.6476   40.3019   62.5222 N   0  0  0  0  0  0  0  0  0  0  0  0
   69.3682   41.5172   63.0836 C   0  0  0  0  0  0  0  0  0  0  0  0
   68.5002   41.7070   63.9512 O   0  0  0  0  0  0  0  0  0  0  0  0
   70.1511   42.7309   62.6131 C   0  0  0  0  0  0  0  0  0  0  0  0
   70.6145   42.3388   61.3074 N   0  0  0  0  0  0  0  0  0  0  0  0
   70.2034   42.8958   60.1006 C   0  0  0  0  0  0  0  0  0  0  0  0
   69.2854   43.8408   60.1395 O   0  0  0  0  0  0  0  0  0  0  0  0
   71.5246   41.1966   61.2242 C   0  0  0  0  0  0  0  0  0  0  0  0
   70.9030   39.9828   61.8814 C   0  0  2  0  0  0  0  0  0  0  0  0
   72.2110   36.7950   58.1584 C   0  0  0  0  0  0  0  0  0  0  0  0
   71.1581   36.3369   58.8816 C   0  0  0  0  0  0  0  0  0  0  0  0
   70.4841   37.0906   59.8100 C   0  0  0  0  0  0  0  0  0  0  0  0
   70.8368   38.3851   60.0800 C   0  0  0  0  0  0  0  0  0  0  0  0
   71.9432   38.9132   59.3638 C   0  0  0  0  0  0  0  0  0  0  0  0
   72.5937   38.0823   58.4169 C   0  0  0  0  0  0  0  0  0  0  0  0
   73.1887   35.3429   56.2676 C   0  0  0  0  0  0  0  0  0  0  0  0
   72.7803   35.9527   57.0669 C   0  0  0  0  0  0  0  0  0  0  0  0
   73.7679   34.5032   55.1232 C   0  0  0  0  0  0  0  0  0  0  0  0
   74.7703   35.0804   52.9445 C   0  0  0  0  0  0  0  0  0  0  0  0
   73.6491   35.4036   53.8776 C   0  0  0  0  0  0  0  0  0  0  0  0
   72.3124   35.1665   53.2021 C   0  0  0  0  0  0  0  0  0  0  0  0
   69.7094   38.0004   63.2101 C   0  0  0  0  0  0  0  0  0  0  0  0
   69.0051   38.2735   64.4213 O   0  0  0  0  0  0  0  0  0  0  0  0
   70.6509   42.5850   58.7512 C   0  0  0  0  0  0  0  0  0  0  0  0
   69.5196   42.0797   57.9359 C   0  0  0  0  0  0  0  0  0  0  0  0
   68.9132   42.9554   57.0156 C   0  0  0  0  0  0  0  0  0  0  0  0
   67.8545   42.5636   56.2228 C   0  0  0  0  0  0  0  0  0  0  0  0
   67.3353   41.2890   56.2924 C   0  0  0  0  0  0  0  0  0  0  0  0
   67.9200   40.4076   57.2046 C   0  0  0  0  0  0  0  0  0  0  0  0
   68.9788   40.8065   57.9932 C   0  0  0  0  0  0  0  0  0  0  0  0
 21 22  1  0
 22 23  1  0
 22 20  1  0
 20 18  1  0
 18 19  3  0
 19 12  1  0
 12 13  2  0
 12 17  1  0
 13 14  1  0
 14 15  2  0
  1 15  1  1
 15 16  1  0
  1  2  1  0
  1 11  1  0
  2 24  1  1
  2  3  1  0
 24 25  1  0
  3  4  1  0
  3 11  1  0
  4  5  2  0
  4  6  1  0
  6  7  1  0
  7  8  1  0
  7 10  1  0
  8  9  2  0
  8 26  1  0
 26 27  1  0
 27 28  2  0
 27 32  1  0
 28 29  1  0
 29 30  2  0
 30 31  1  0
 31 32  2  0
 11 10  1  6
 16 17  2  0
M  END
>  <minimizedAffinity>  (378) 
-8.52905

$$$$
data/reference_output_2/data/smiles/120512.pdb
     RDKit          3D

 28 30  0  0  0  0  0  0  0  0999 V2000
   69.5428   42.5061   57.5183 N   0  0  0  0  0  0  0  0  0  0  0  0
   72.9114   45.0674   58.0865 C   0  0  0  0  0  0  0  0  0  0  0  0
   73.0577   43.7318   57.7235 C   0  0  0  0  0  0  0  0  0  0  0  0
   71.9753   42.9006   57.5379 C   0  0  0  0  0  0  0  0  0  0  0  0
   70.6793   43.3405   57.7002 C   0  0  0  0  0  0  0  0  0  0  0  0
   70.5294   44.6750   58.0632 C   0  0  0  0  0  0  0  0  0  0  0  0
   71.6146   45.5072   58.2482 C   0  0  0  0  0  0  0  0  0  0  0  0
   74.1547   47.2860   57.9484 N   0  0  0  0  0  0  0  0  0  0  0  0
   74.0891   45.9056   58.2657 C   0  0  0  0  0  0  0  0  0  0  0  0
   75.1303   45.3905   58.7329 O   0  0  0  0  0  0  0  0  0  0  0  0
   75.3522   48.0800   58.1427 C   0  0  0  0  0  0  0  0  0  0  0  0
   74.8793   49.1828   56.1204 O   0  0  0  0  0  0  0  0  0  0  0  0
   75.4388   49.2343   57.2359 C   0  0  0  0  0  0  0  0  0  0  0  0
   76.1291   50.3698   57.6017 O   0  0  0  0  0  0  0  0  0  0  0  0
   68.4631   42.8218   56.6539 C   0  0  0  0  0  0  0  0  0  0  0  0
   67.4601   41.6250   56.1876 S   0  0  0  0  0  0  0  0  0  0  0  0
   68.2217   44.1270   56.1834 N   0  0  0  0  0  0  0  0  0  0  0  0
   67.8582   44.3287   54.8671 N   0  0  0  0  0  0  0  0  0  0  0  0
   68.0239   45.4004   54.2132 C   0  0  0  0  0  0  0  0  0  0  0  0
   67.6514   45.6707   52.7924 C   0  0  0  0  0  0  0  0  0  0  0  0
   68.6311   46.7400   52.4378 C   0  0  0  0  0  0  0  0  0  0  0  0
   69.0483   46.9718   51.2960 O   0  0  0  0  0  0  0  0  0  0  0  0
   69.0006   47.4482   53.6513 C   0  0  0  0  0  0  0  0  0  0  0  0
   69.5919   48.6693   53.8764 C   0  0  0  0  0  0  0  0  0  0  0  0
   69.8241   49.1003   55.1584 C   0  0  0  0  0  0  0  0  0  0  0  0
   69.4529   48.2897   56.1954 C   0  0  0  0  0  0  0  0  0  0  0  0
   68.8498   47.0408   56.0075 C   0  0  0  0  0  0  0  0  0  0  0  0
   68.6239   46.6220   54.7126 C   0  0  0  0  0  0  0  0  0  0  0  0
 12 13  2  0
 13 14  1  0
 13 11  1  0
 11  8  1  0
  8  9  1  0
  9 10  2  0
  9  2  1  0
  2  3  2  0
  2  7  1  0
  3  4  1  0
  4  5  2  0
  5  1  1  0
  5  6  1  0
  1 15  1  0
 15 16  2  0
 15 17  1  0
 17 18  1  0
 18 19  2  0
 19 20  1  0
 19 28  1  0
 20 21  1  0
 21 22  2  0
 21 23  1  0
 23 24  1  0
 23 28  2  0
 24 25  2  0
 25 26  1  0
 26 27  2  0
 27 28  1  0
  6  7  2  0
M  END
>  <minimizedAffinity>  (379) 
-8.87929

$$$$
data/reference_output_2/data/smiles/120539.pdb
     RDKit          3D

 27 29  0  0  0  0  0  0  0  0999 V2000
   69.3809   40.8640   58.5177 N   0  0  0  0  0  0  0  0  0  0  0  0
   68.5024   40.0171   57.9579 C   0  0  0  0  0  0  0  0  0  0  0  0
   67.7343   40.4419   56.8833 C   0  0  0  0  0  0  0  0  0  0  0  0
   67.8987   41.7396   56.4164 C   0  0  0  0  0  0  0  0  0  0  0  0
   68.7961   42.6037   56.9890 C   0  0  0  0  0  0  0  0  0  0  0  0
   69.5332   42.1170   58.0605 C   0  0  0  0  0  0  0  0  0  0  0  0
   69.0127   43.9692   56.5301 C   0  0  0  0  0  0  0  0  0  0  0  0
   69.9299   44.6852   57.0107 O   0  0  0  0  0  0  0  0  0  0  0  0
   68.2203   44.5844   55.5220 N   0  0  0  0  0  0  0  0  0  0  0  0
   68.4381   45.9296   55.0756 C   0  0  0  0  0  0  0  0  0  0  0  0
   68.6209   46.9711   55.9565 C   0  0  0  0  0  0  0  0  0  0  0  0
   68.8403   48.2675   55.5751 C   0  0  0  0  0  0  0  0  0  0  0  0
   68.8796   48.5364   54.2027 C   0  0  0  0  0  0  0  0  0  0  0  0
   69.1592   50.1866   53.6662 Cl  0  0  0  0  0  0  0  0  0  0  0  0
   68.7035   47.5356   53.2966 C   0  0  0  0  0  0  0  0  0  0  0  0
   68.4819   46.2305   53.7360 C   0  0  0  0  0  0  0  0  0  0  0  0
   70.1681   40.3523   59.6358 C   0  0  0  0  0  0  0  0  0  0  0  0
   72.1038   39.4531   58.4851 O   0  0  0  0  0  0  0  0  0  0  0  0
   71.0041   39.2349   59.0588 C   0  0  0  0  0  0  0  0  0  0  0  0
   70.5676   37.8756   59.1478 N   0  0  0  0  0  0  0  0  0  0  0  0
   71.3347   36.8056   58.6223 C   0  0  0  0  0  0  0  0  0  0  0  0
   72.0820   36.9470   57.4731 C   0  0  0  0  0  0  0  0  0  0  0  0
   72.8338   35.9552   56.9172 C   0  0  0  0  0  0  0  0  0  0  0  0
   72.8514   34.7314   57.5381 C   0  0  0  0  0  0  0  0  0  0  0  0
   73.8087   33.4285   56.8462 Cl  0  0  0  0  0  0  0  0  0  0  0  0
   72.1113   34.5490   58.6974 C   0  0  0  0  0  0  0  0  0  0  0  0
   71.3561   35.5767   59.2395 C   0  0  0  0  0  0  0  0  0  0  0  0
 18 19  2  0
 19 17  1  0
 19 20  1  0
 17  1  1  0
  1  2  2  0
  1  6  1  0
  2  3  1  0
  3  4  2  0
  4  5  1  0
  5  7  1  0
  5  6  2  0
  7  8  2  0
  7  9  1  0
  9 10  1  0
 10 11  2  0
 10 16  1  0
 11 12  1  0
 12 13  2  0
 13 14  1  0
 13 15  1  0
 15 16  2  0
 20 21  1  0
 21 22  2  0
 21 27  1  0
 22 23  1  0
 23 24  2  0
 24 25  1  0
 24 26  1  0
 26 27  2  0
M  CHG  1   1   1
M  END
>  <minimizedAffinity>  (380) 
-8.51215

$$$$
data/reference_output_2/data/smiles/120713.pdb
     RDKit          3D

 22 24  0  0  0  0  0  0  0  0999 V2000
   66.6788   44.9460   50.8406 O   0  0  0  0  0  0  0  0  0  0  0  0
   67.3304   45.7195   51.5628 C   0  0  0  0  0  0  0  0  0  0  0  0
   68.1905   46.5893   51.0203 N   0  0  0  0  0  0  0  0  0  0  0  0
   68.8918   47.4300   51.8400 C   0  0  0  0  0  0  0  0  0  0  0  0
   69.6672   48.1960   51.2951 O   0  0  0  0  0  0  0  0  0  0  0  0
   68.7447   47.4130   53.1891 C   0  0  0  0  0  0  0  0  0  0  0  0
   69.4736   48.2750   53.9757 C   0  0  0  0  0  0  0  0  0  0  0  0
   69.1951   48.0997   55.3522 C   0  0  0  0  0  0  0  0  0  0  0  0
   68.3137   47.1943   55.8397 C   0  0  0  0  0  0  0  0  0  0  0  0
   68.1179   47.0962   57.0859 O   0  0  0  0  0  0  0  0  0  0  0  0
   67.6554   46.4104   55.0037 O   0  0  0  0  0  0  0  0  0  0  0  0
   67.8504   46.5005   53.7168 C   0  0  0  0  0  0  0  0  0  0  0  0
   67.1640   45.6778   52.9025 N   0  0  0  0  0  0  0  0  0  0  0  0
   70.3508   49.3528   53.5282 C   0  0  0  0  0  0  0  0  0  0  0  0
   69.7495   50.7022   53.3829 C   0  0  0  0  0  0  0  0  0  0  0  0
   70.0604   51.7582   54.3682 C   0  0  0  0  0  0  0  0  0  0  0  0
   69.4521   51.4598   55.7211 C   0  0  0  0  0  0  0  0  0  0  0  0
   68.0924   51.4954   55.9286 C   0  0  0  0  0  0  0  0  0  0  0  0
   67.5113   51.2309   57.1492 C   0  0  0  0  0  0  0  0  0  0  0  0
   68.3035   50.9166   58.2169 C   0  0  0  0  0  0  0  0  0  0  0  0
   69.6848   50.8712   58.0402 C   0  0  0  0  0  0  0  0  0  0  0  0
   70.2548   51.1434   56.7938 C   0  0  0  0  0  0  0  0  0  0  0  0
  1  2  2  0
  2  3  1  0
  2 13  1  0
  3  4  1  0
  4  5  2  0
  4  6  1  0
  6  7  1  0
  6 12  2  0
  7 14  1  0
  7  8  2  0
 14 15  1  0
 15 16  1  0
 16 17  1  0
 17 18  2  0
 17 22  1  0
 18 19  1  0
 19 20  2  0
 20 21  1  0
 21 22  2  0
  8  9  1  0
  9 10  2  0
  9 11  1  0
 11 12  1  0
 12 13  1  0
M  END
>  <minimizedAffinity>  (381) 
-9.08958

$$$$
data/reference_output_2/data/smiles/120721.pdb
     RDKit          3D

 28 30  0  0  0  0  0  0  0  0999 V2000
   70.2531   44.0856   57.6689 C   0  0  0  0  0  0  0  0  0  0  0  0
   69.0746   43.3674   57.0862 C   0  0  0  0  0  0  0  0  0  0  0  0
   68.9098   42.0833   57.4036 C   0  0  0  0  0  0  0  0  0  0  0  0
   67.7707   41.3555   56.8518 C   0  0  0  0  0  0  0  0  0  0  0  0
   66.9433   41.8900   56.0925 O   0  0  0  0  0  0  0  0  0  0  0  0
   67.6027   39.9831   57.1973 N   0  0  0  0  0  0  0  0  0  0  0  0
   68.5102   39.2934   58.0650 C   0  0  0  0  0  0  0  0  0  0  0  0
   68.3215   38.0878   58.3475 O   0  0  0  0  0  0  0  0  0  0  0  0
   69.6331   39.9560   58.6260 N   0  0  0  0  0  0  0  0  0  0  0  0
   69.8107   41.3488   58.2816 C   0  0  0  0  0  0  0  0  0  0  0  0
   70.7932   42.0039   58.7485 O   0  0  0  0  0  0  0  0  0  0  0  0
   70.6367   39.3516   59.4539 C   0  0  0  0  0  0  0  0  0  0  0  0
   70.2717   38.3061   60.3838 C   0  0  0  0  0  0  0  0  0  0  0  0
   71.1525   37.0825   60.3951 C   0  0  0  0  0  0  0  0  0  0  0  0
   71.3899   36.5681   58.9991 C   0  0  0  0  0  0  0  0  0  0  0  0
   71.7341   37.6166   58.0187 C   0  0  0  0  0  0  0  0  0  0  0  0
   71.8167   38.9641   58.6105 C   0  0  0  0  0  0  0  0  0  0  0  0
   68.1949   44.0820   56.2265 N   0  0  0  0  0  0  0  0  0  0  0  0
   68.6435   44.9307   55.2222 N   0  0  0  0  0  0  0  0  0  0  0  0
   68.3679   46.3279   55.1858 C   0  0  0  0  0  0  0  0  0  0  0  0
   67.6814   46.8426   56.1069 O   0  0  0  0  0  0  0  0  0  0  0  0
   68.8752   47.1664   54.0920 C   0  0  0  0  0  0  0  0  0  0  0  0
   69.6170   48.2779   54.3518 C   0  0  0  0  0  0  0  0  0  0  0  0
   70.1149   49.0953   53.3331 C   0  0  0  0  0  0  0  0  0  0  0  0
   69.8520   48.7725   52.0207 C   0  0  0  0  0  0  0  0  0  0  0  0
   69.1001   47.6468   51.7438 C   0  0  0  0  0  0  0  0  0  0  0  0
   68.6106   46.8425   52.7803 C   0  0  0  0  0  0  0  0  0  0  0  0
   67.6668   45.4293   52.4356 Cl  0  0  0  0  0  0  0  0  0  0  0  0
  1  2  1  0
  2 18  1  0
  2  3  2  0
 18 19  1  0
 19 20  1  0
 20 21  2  0
 20 22  1  0
 22 23  2  0
 22 27  1  0
 23 24  1  0
 24 25  2  0
 25 26  1  0
 26 27  2  0
 27 28  1  0
  3  4  1  0
  3 10  1  0
  4  5  2  0
  4  6  1  0
  6  7  1  0
  7  8  2  0
  7  9  1  0
  9 12  1  0
  9 10  1  0
 12 13  1  0
 12 17  1  0
 13 14  1  0
 14 15  1  0
 15 16  1  0
 16 17  1  0
 10 11  2  0
M  END
>  <minimizedAffinity>  (382) 
-8.76812

$$$$
data/reference_output_2/data/smiles/120958.pdb
     RDKit          3D

 30 34  0  0  0  0  0  0  0  0999 V2000
   72.2546   41.5253   57.7187 O   0  0  0  0  0  0  0  0  0  0  0  0
   72.3959   42.7320   57.9311 C   0  0  0  0  0  0  0  0  0  0  0  0
   71.2711   43.6329   57.7188 C   0  0  0  0  0  0  0  0  0  0  0  0
   70.0062   43.4683   57.3046 N   0  0  0  0  0  0  0  0  0  0  0  0
   69.4083   44.6385   57.2838 N   0  0  0  0  0  0  0  0  0  0  0  0
   70.2261   45.6061   57.6722 C   0  0  0  0  0  0  0  0  0  0  0  0
   71.4355   44.9682   57.9568 C   0  0  0  0  0  0  0  0  0  0  0  0
   72.7207   45.5082   58.4399 C   0  0  0  0  0  0  0  0  0  0  0  0
   73.8944   44.6577   58.0715 C   0  0  0  0  0  0  0  0  0  0  0  0
   73.6327   43.2439   58.3754 N   0  0  0  0  0  0  0  0  0  0  0  0
   74.5550   42.3876   59.0846 C   0  0  0  0  0  0  0  0  0  0  0  0
   74.4554   42.6081   60.5489 C   0  0  0  0  0  0  0  0  0  0  0  0
   75.7365   42.8822   61.2514 C   0  0  0  0  0  0  0  0  0  0  0  0
   76.7548   41.9836   60.7822 N   0  0  0  0  0  0  0  0  0  0  0  0
   77.0538   42.1289   59.3905 C   0  0  0  0  0  0  0  0  0  0  0  0
   75.9236   42.4391   58.5025 C   0  0  0  0  0  0  0  0  0  0  0  0
   70.0128   46.9823   57.7991 N   0  0  0  0  0  0  0  0  0  0  0  0
   68.9800   48.0339   56.9622 S   0  0  0  0  0  0  0  0  0  0  0  0
   68.8791   49.3839   57.6575 O   0  0  0  0  0  0  0  0  0  0  0  0
   67.5490   47.4797   57.0884 O   0  0  0  0  0  0  0  0  0  0  0  0
   69.3271   48.2068   55.2853 C   0  0  0  0  0  0  0  0  0  0  0  0
   70.0847   49.3159   54.8929 C   0  0  0  0  0  0  0  0  0  0  0  0
   70.3320   49.5821   53.5843 C   0  0  0  0  0  0  0  0  0  0  0  0
   69.8529   48.7774   52.5883 C   0  0  0  0  0  0  0  0  0  0  0  0
   69.1075   47.6807   52.9468 C   0  0  0  0  0  0  0  0  0  0  0  0
   68.6683   46.8744   51.9276 C   0  0  0  0  0  0  0  0  0  0  0  0
   67.9512   45.7487   52.2265 C   0  0  0  0  0  0  0  0  0  0  0  0
   67.6952   45.4633   53.5460 C   0  0  0  0  0  0  0  0  0  0  0  0
   68.1336   46.2689   54.5589 C   0  0  0  0  0  0  0  0  0  0  0  0
   68.8489   47.3999   54.2927 C   0  0  0  0  0  0  0  0  0  0  0  0
  1  2  2  0
  2  3  1  0
  2 10  1  0
  3  4  1  0
  3  7  2  0
  4  5  1  0
  5  6  2  0
  6 17  1  0
  6  7  1  0
 17 18  1  0
 18 19  2  0
 18 20  2  0
 18 21  1  0
 21 22  2  0
 21 30  1  0
 22 23  1  0
 23 24  2  0
 24 25  1  0
 25 26  1  0
 25 30  2  0
 26 27  2  0
 27 28  1  0
 28 29  2  0
 29 30  1  0
  7  8  1  0
  8  9  1  0
  9 10  1  0
 10 11  1  0
 11 12  1  0
 11 16  1  0
 12 13  1  0
 13 14  1  0
 14 15  1  0
 15 16  1  0
M  CHG  1  14   1
M  END
>  <minimizedAffinity>  (383) 
-8.55783

$$$$
data/reference_output_2/data/smiles/120994.pdb
     RDKit          3D

 25 27  0  0  0  0  0  0  0  0999 V2000
   68.4977   47.5100   55.8945 C   0  0  1  0  0  0  0  0  0  0  0  0
   68.9408   48.8788   56.2430 C   0  0  0  0  0  0  0  0  0  0  0  0
   68.5404   49.4114   57.3559 O   0  0  0  0  0  0  0  0  0  0  0  0
   69.7865   49.6041   55.3834 N   0  0  0  0  0  0  0  0  0  0  0  0
   70.3832   50.7222   55.9205 O   0  0  0  0  0  0  0  0  0  0  0  0
   70.0172   49.2178   54.0473 C   0  0  0  0  0  0  0  0  0  0  0  0
   70.7652   49.8721   53.2843 O   0  0  0  0  0  0  0  0  0  0  0  0
   69.3360   47.9975   53.5763 C   0  0  0  0  0  0  0  0  0  0  0  0
   69.4042   47.6586   52.2205 C   0  0  0  0  0  0  0  0  0  0  0  0
   68.6831   46.6187   51.6819 C   0  0  0  0  0  0  0  0  0  0  0  0
   67.8720   45.9013   52.5292 C   0  0  0  0  0  0  0  0  0  0  0  0
   67.1226   44.8518   52.0558 F   0  0  0  0  0  0  0  0  0  0  0  0
   67.8112   46.2420   53.8737 C   0  0  0  0  0  0  0  0  0  0  0  0
   68.5329   47.2834   54.4347 C   0  0  0  0  0  0  0  0  0  0  0  0
   70.3556   46.9733   57.3142 O   0  0  0  0  0  0  0  0  0  0  0  0
   69.3602   46.5209   56.6477 C   0  0  0  0  0  0  0  0  0  0  0  0
   69.1721   45.1363   56.6907 N   0  0  0  0  0  0  0  0  0  0  0  0
   70.0262   44.1975   57.4335 C   0  0  0  0  0  0  0  0  0  0  0  0
   69.4864   42.8254   57.4601 C   0  0  0  0  0  0  0  0  0  0  0  0
   70.0254   41.8159   58.2048 C   0  0  0  0  0  0  0  0  0  0  0  0
   69.4913   40.5271   58.2201 C   0  0  0  0  0  0  0  0  0  0  0  0
   68.3874   40.2531   57.4650 C   0  0  0  0  0  0  0  0  0  0  0  0
   67.8481   39.0138   57.4601 F   0  0  0  0  0  0  0  0  0  0  0  0
   67.8141   41.2448   56.6993 C   0  0  0  0  0  0  0  0  0  0  0  0
   68.3575   42.5086   56.7001 C   0  0  0  0  0  0  0  0  0  0  0  0
 15 16  2  0
 16 17  1  0
  1 16  1  1
 17 18  1  0
 18 19  1  0
 19 20  2  0
 19 25  1  0
 20 21  1  0
 21 22  2  0
 22 23  1  0
 22 24  1  0
 24 25  2  0
  1  2  1  0
  1 14  1  0
  2  3  2  0
  2  4  1  0
  4  5  1  0
  4  6  1  0
  6  7  2  0
  6  8  1  0
  8  9  2  0
  8 14  1  0
  9 10  1  0
 10 11  2  0
 11 12  1  0
 11 13  1  0
 13 14  2  0
M  END
>  <minimizedAffinity>  (384) 
-8.71682

$$$$
data/reference_output_2/data/smiles/121004.pdb
     RDKit          3D

 26 28  0  0  0  0  0  0  0  0999 V2000
   73.7918   35.1460   56.1330 N   0  0  0  0  0  0  0  0  0  0  0  0
   73.3369   34.8961   54.8934 C   0  0  0  0  0  0  0  0  0  0  0  0
   74.2188   34.5779   53.8513 C   0  0  0  0  0  0  0  0  0  0  0  0
   75.5422   34.5142   54.0576 N   0  0  0  0  0  0  0  0  0  0  0  0
   76.0042   34.7678   55.3115 C   0  0  0  0  0  0  0  0  0  0  0  0
   77.2490   34.7072   55.5007 O   0  0  0  0  0  0  0  0  0  0  0  0
   75.1222   35.0777   56.3201 C   0  0  0  0  0  0  0  0  0  0  0  0
   75.5328   35.3148   57.4868 O   0  0  0  0  0  0  0  0  0  0  0  0
   70.2106   36.6163   60.2887 C   0  0  0  0  0  0  0  0  0  0  0  0
   71.1401   36.2291   59.2103 C   0  0  0  0  0  0  0  0  0  0  0  0
   71.5520   34.9014   59.1119 C   0  0  0  0  0  0  0  0  0  0  0  0
   72.4247   34.5381   58.1029 C   0  0  0  0  0  0  0  0  0  0  0  0
   72.8940   35.4645   57.1941 C   0  0  0  0  0  0  0  0  0  0  0  0
   72.4480   36.7837   57.3402 C   0  0  0  0  0  0  0  0  0  0  0  0
   71.5880   37.1831   58.3209 C   0  0  0  0  0  0  0  0  0  0  0  0
   71.1071   38.5751   58.4855 C   0  0  0  0  0  0  0  0  0  0  0  0
   76.4313   34.1796   52.9743 C   0  0  0  0  0  0  0  0  0  0  0  0
   76.7115   35.2652   52.0359 C   0  0  0  0  0  0  0  0  0  0  0  0
   76.8088   36.4310   52.5530 O   0  0  0  0  0  0  0  0  0  0  0  0
   76.8899   35.1627   50.6033 C   0  0  0  0  0  0  0  0  0  0  0  0
   77.8300   35.9141   49.9622 C   0  0  0  0  0  0  0  0  0  0  0  0
   78.0132   35.8279   48.6165 C   0  0  0  0  0  0  0  0  0  0  0  0
   77.2257   34.9565   47.8824 C   0  0  0  0  0  0  0  0  0  0  0  0
   77.4418   34.9037   46.5443 F   0  0  0  0  0  0  0  0  0  0  0  0
   76.2688   34.1901   48.5228 C   0  0  0  0  0  0  0  0  0  0  0  0
   76.1032   34.2951   49.8857 C   0  0  0  0  0  0  0  0  0  0  0  0
  9 10  1  0
 10 11  2  0
 10 15  1  0
 11 12  1  0
 12 13  2  0
 13  1  1  0
 13 14  1  0
  1  2  1  0
  1  7  1  0
  2  3  2  0
  3  4  1  0
  4 17  1  0
  4  5  1  0
 17 18  1  0
 18 19  2  0
 18 20  1  0
 20 21  2  0
 20 26  1  0
 21 22  1  0
 22 23  2  0
 23 24  1  0
 23 25  1  0
 25 26  2  0
  5  6  2  0
  5  7  1  0
  7  8  2  0
 14 15  2  0
 15 16  1  0
M  END
>  <minimizedAffinity>  (385) 
-8.83824

$$$$
data/reference_output_2/data/smiles/121070.pdb
     RDKit          3D

 32 36  0  0  0  0  0  0  0  0999 V2000
   69.7697   48.7166   54.8315 C   0  0  0  0  0  0  0  0  0  0  0  0
   69.2697   47.6734   55.7643 C   0  0  0  0  0  0  0  0  0  0  0  0
   68.6447   46.6361   55.3046 N   0  0  0  0  0  0  0  0  0  0  0  0
   68.3077   46.3495   54.0429 C   0  0  0  0  0  0  0  0  0  0  0  0
   67.6436   45.2957   53.6319 N   0  0  0  0  0  0  0  0  0  0  0  0
   67.3666   45.0915   52.3437 C   0  0  0  0  0  0  0  0  0  0  0  0
   67.7433   45.9377   51.3594 C   0  0  0  0  0  0  0  0  0  0  0  0
   68.4933   47.1167   51.7486 C   0  0  0  0  0  0  0  0  0  0  0  0
   68.7742   47.3433   53.0335 C   0  0  0  0  0  0  0  0  0  0  0  0
   69.4560   48.4029   53.5797 C   0  0  0  0  0  0  0  0  0  0  0  0
   69.9459   49.2660   52.6849 O   0  0  0  0  0  0  0  0  0  0  0  0
   68.9741   45.3687   56.0367 C   0  0  0  0  0  0  0  0  0  0  0  0
   68.6669   44.1055   56.1086 C   0  0  0  0  0  0  0  0  0  0  0  0
   69.1671   43.2302   57.0483 C   0  0  0  0  0  0  0  0  0  0  0  0
   70.0987   43.6566   58.0404 C   0  0  0  0  0  0  0  0  0  0  0  0
   70.4855   44.9423   58.0377 C   0  0  0  0  0  0  0  0  0  0  0  0
   69.9282   45.7658   57.0557 C   0  0  0  0  0  0  0  0  0  0  0  0
   71.3030   45.6911   58.9444 C   0  0  0  0  0  0  0  0  0  0  0  0
   72.0339   46.3736   59.7822 C   0  0  0  0  0  0  0  0  0  0  0  0
   72.8482   47.1242   60.7371 C   0  0  0  0  0  0  0  0  0  0  0  0
   73.3831   46.1655   61.6072 C   0  0  0  0  0  0  0  0  0  0  0  0
   74.4120   46.7329   62.4335 C   0  0  0  0  0  0  0  0  0  0  0  0
   74.7299   48.0583   62.2686 C   0  0  0  0  0  0  0  0  0  0  0  0
   74.1702   48.9191   61.4134 N   0  0  0  0  0  0  0  0  0  0  0  0
   74.4619   50.2194   61.2883 O   0  0  0  0  0  0  0  0  0  0  0  0
   73.1104   48.3467   60.5871 C   0  0  0  0  0  0  0  0  0  0  0  0
   71.7286   49.8526   55.4095 O   0  0  0  0  0  0  0  0  0  0  0  0
   70.3583   49.8426   55.4141 C   0  0  0  0  0  0  0  0  0  0  0  0
   69.9021   50.9855   56.0091 N   0  0  0  0  0  0  0  0  0  0  0  0
   70.5054   52.0954   56.5964 C   0  0  0  0  0  0  0  0  0  0  0  0
   69.6184   53.3915   56.4501 C   0  0  0  0  0  0  0  0  0  0  0  0
   71.0175   53.2913   55.8470 C   0  0  0  0  0  0  0  0  0  0  0  0
 27 28  2  0
 28 29  1  0
 28  1  1  0
 29 30  1  0
 30 31  1  0
 30 32  1  0
 31 32  1  0
  1  2  2  0
  1 10  1  0
  2  3  1  0
  3 12  1  0
  3  4  1  0
 12 13  2  0
 12 17  1  0
 13 14  1  0
 14 15  2  0
 15 16  1  0
 16 18  1  0
 16 17  2  0
 18 19  3  0
 19 20  1  0
 20 21  2  0
 20 26  1  0
 21 22  1  0
 22 23  2  0
 23 24  1  0
 24 25  1  0
 24 26  2  0
  4  5  2  0
  4  9  1  0
  5  6  1  0
  6  7  2  0
  7  8  1  0
  8  9  2  0
  9 10  1  0
 10 11  2  0
M  CHG  2  24   1  25  -1
M  END
>  <minimizedAffinity>  (386) 
-8.51267

$$$$
data/reference_output_2/data/smiles/121163.pdb
     RDKit          3D

 29 32  0  0  0  0  0  0  0  0999 V2000
   71.0741   38.6001   58.8086 N   0  0  0  0  0  0  0  0  0  0  0  0
   72.1433   39.4133   58.8453 C   0  0  0  0  0  0  0  0  0  0  0  0
   73.2504   38.9036   59.2233 O   0  0  0  0  0  0  0  0  0  0  0  0
   72.0608   40.7125   58.4981 N   0  0  0  0  0  0  0  0  0  0  0  0
   70.8984   41.2695   58.0954 C   0  0  0  0  0  0  0  0  0  0  0  0
   70.7958   42.5942   57.7391 C   0  0  0  0  0  0  0  0  0  0  0  0
   69.6192   43.1844   57.3249 C   0  0  0  0  0  0  0  0  0  0  0  0
   68.5121   42.3623   57.2832 C   0  0  0  0  0  0  0  0  0  0  0  0
   68.5966   41.0094   57.6419 C   0  0  0  0  0  0  0  0  0  0  0  0
   69.7892   40.4641   58.0482 C   0  0  0  0  0  0  0  0  0  0  0  0
   69.9002   39.1200   58.4125 C   0  0  0  0  0  0  0  0  0  0  0  0
   68.8653   38.4148   58.3570 O   0  0  0  0  0  0  0  0  0  0  0  0
   71.2698   33.0450   60.2501 C   0  0  0  0  0  0  0  0  0  0  0  0
   71.2255   34.4804   59.8630 C   0  0  0  0  0  0  0  0  0  0  0  0
   70.6480   35.4124   60.6986 C   0  0  0  0  0  0  0  0  0  0  0  0
   70.6021   36.7467   60.3491 C   0  0  0  0  0  0  0  0  0  0  0  0
   71.1208   37.2283   59.1639 C   0  0  0  0  0  0  0  0  0  0  0  0
   71.7017   36.2775   58.3267 C   0  0  0  0  0  0  0  0  0  0  0  0
   71.7468   34.9438   58.6763 C   0  0  0  0  0  0  0  0  0  0  0  0
   69.5776   44.5961   56.9605 C   0  0  0  0  0  0  0  0  0  0  0  0
   70.4864   45.3310   57.4246 O   0  0  0  0  0  0  0  0  0  0  0  0
   68.6030   45.1916   56.1361 N   0  0  0  0  0  0  0  0  0  0  0  0
   68.5404   46.5896   55.7649 C   0  0  0  0  0  0  0  0  0  0  0  0
   68.5991   46.7726   54.2954 C   0  0  0  0  0  0  0  0  0  0  0  0
   69.2757   47.7903   53.6813 C   0  0  0  0  0  0  0  0  0  0  0  0
   69.2929   47.9203   52.2838 C   0  0  0  0  0  0  0  0  0  0  0  0
   68.6275   47.0259   51.4975 C   0  0  0  0  0  0  0  0  0  0  0  0
   67.9420   45.9966   52.0870 C   0  0  0  0  0  0  0  0  0  0  0  0
   67.9316   45.8754   53.4791 C   0  0  0  0  0  0  0  0  0  0  0  0
 13 14  1  0
 14 15  2  0
 14 19  1  0
 15 16  1  0
 16 17  2  0
 17  1  1  0
 17 18  1  0
  1  2  1  0
  1 11  1  0
  2  3  2  0
  2  4  1  0
  4  5  1  0
  5  6  2  0
  5 10  1  0
  6  7  1  0
  7 20  1  0
  7  8  2  0
 20 21  2  0
 20 22  1  0
 22 23  1  0
 23 24  1  0
 24 25  2  0
 24 29  1  0
 25 26  1  0
 26 27  2  0
 27 28  1  0
 28 29  2  0
  8  9  1  0
  9 10  2  0
 10 11  1  0
 11 12  2  0
 18 19  2  0
M  END
>  <minimizedAffinity>  (387) 
-9.55585

$$$$
data/reference_output_2/data/smiles/121166.pdb
     RDKit          3D

 23 25  0  0  0  0  0  0  0  0999 V2000
   68.7111   45.5611   55.8341 C   0  0  0  0  0  0  0  0  0  0  0  0
   67.9054   44.8682   55.1733 O   0  0  0  0  0  0  0  0  0  0  0  0
   69.3955   44.8766   56.9066 N   0  0  0  0  0  0  0  0  0  0  0  0
   69.1101   43.5274   57.1156 N   0  0  0  0  0  0  0  0  0  0  0  0
   69.8937   42.7187   57.7306 C   0  0  0  0  0  0  0  0  0  0  0  0
   69.5676   41.3084   57.9357 C   0  0  0  0  0  0  0  0  0  0  0  0
   68.3372   40.7096   57.7905 C   0  0  0  0  0  0  0  0  0  0  0  0
   68.4502   39.3924   58.0700 N   0  0  0  0  0  0  0  0  0  0  0  0
   69.7402   39.0923   58.4023 C   0  0  0  0  0  0  0  0  0  0  0  0
   70.3686   37.9216   58.7638 C   0  0  0  0  0  0  0  0  0  0  0  0
   71.7140   37.9099   59.0528 C   0  0  0  0  0  0  0  0  0  0  0  0
   72.4067   39.0961   58.9697 C   0  0  0  0  0  0  0  0  0  0  0  0
   71.7605   40.2551   58.6072 C   0  0  0  0  0  0  0  0  0  0  0  0
   70.4147   40.2944   58.3124 C   0  0  0  0  0  0  0  0  0  0  0  0
   68.9738   46.9885   55.5681 C   0  0  0  0  0  0  0  0  0  0  0  0
   68.2298   47.5922   54.4389 C   0  0  0  0  0  0  0  0  0  0  0  0
   70.4514   49.4606   53.4696 C   0  0  0  0  0  0  0  0  0  0  0  0
   69.8800   48.3567   52.6650 C   0  0  0  0  0  0  0  0  0  0  0  0
   70.2039   47.9883   51.4139 N   0  0  0  0  0  0  0  0  0  0  0  0
   69.4608   46.9547   51.0584 N   0  0  0  0  0  0  0  0  0  0  0  0
   68.6296   46.6275   52.0834 C   0  0  0  0  0  0  0  0  0  0  0  0
   67.6382   45.5291   52.0405 C   0  0  0  0  0  0  0  0  0  0  0  0
   68.8742   47.4999   53.1160 C   0  0  0  0  0  0  0  0  0  0  0  0
 17 18  1  0
 18 19  2  0
 18 23  1  0
 19 20  1  0
 20 21  1  0
 21 22  1  0
 21 23  2  0
 23 16  1  0
 16 15  1  0
 15  1  1  0
  1  2  2  0
  1  3  1  0
  3  4  1  0
  4  5  2  0
  5  6  1  0
  6  7  2  0
  6 14  1  0
  7  8  1  0
  8  9  1  0
  9 10  1  0
  9 14  2  0
 10 11  2  0
 11 12  1  0
 12 13  2  0
 13 14  1  0
M  END
>  <minimizedAffinity>  (388) 
-8.92358

$$$$
data/reference_output_2/data/smiles/121189.pdb
     RDKit          3D

 23 25  0  0  0  0  0  0  0  0999 V2000
   70.0200   45.6053   58.9980 O   0  0  0  0  0  0  0  0  0  0  0  0
   69.9268   44.8538   58.0041 C   0  0  0  0  0  0  0  0  0  0  0  0
   69.3119   45.3973   56.7995 N   0  0  0  0  0  0  0  0  0  0  0  0
   70.4241   43.4886   58.0750 C   0  0  0  0  0  0  0  0  0  0  0  0
   71.8085   43.2609   58.0234 C   0  0  0  0  0  0  0  0  0  0  0  0
   72.3118   41.9826   58.0888 C   0  0  0  0  0  0  0  0  0  0  0  0
   71.5101   40.8678   58.2061 C   0  0  0  0  0  0  0  0  0  0  0  0
   72.0065   39.6189   58.2702 N   0  0  0  0  0  0  0  0  0  0  0  0
   71.2148   38.5221   58.3861 C   0  0  0  0  0  0  0  0  0  0  0  0
   69.8452   38.6807   58.4420 C   0  0  0  0  0  0  0  0  0  0  0  0
   69.3419   39.9641   58.3759 C   0  0  0  0  0  0  0  0  0  0  0  0
   70.1487   41.0770   58.2588 C   0  0  0  0  0  0  0  0  0  0  0  0
   69.6357   42.3669   58.1920 C   0  0  0  0  0  0  0  0  0  0  0  0
   68.8560   46.6184   56.7057 N   0  0  0  0  0  0  0  0  0  0  0  0
   68.5552   47.3925   55.8193 C   0  0  0  0  0  0  0  0  0  0  0  0
   68.6084   47.1906   54.4062 C   0  0  0  0  0  0  0  0  0  0  0  0
   67.7948   46.1843   53.8774 C   0  0  0  0  0  0  0  0  0  0  0  0
   67.7412   45.8794   52.5490 C   0  0  0  0  0  0  0  0  0  0  0  0
   66.9191   44.8771   52.0950 O   0  0  0  0  0  0  0  0  0  0  0  0
   68.5073   46.5712   51.6648 C   0  0  0  0  0  0  0  0  0  0  0  0
   69.3119   47.5591   52.1458 C   0  0  0  0  0  0  0  0  0  0  0  0
   69.3685   47.8781   53.5295 C   0  0  0  0  0  0  0  0  0  0  0  0
   70.2397   48.9059   53.8292 O   0  0  0  0  0  0  0  0  0  0  0  0
  1  2  2  0
  2  3  1  0
  2  4  1  0
  3 14  1  0
 14 15  2  0
 15 16  1  0
 16 17  2  0
 16 22  1  0
 17 18  1  0
 18 19  1  0
 18 20  2  0
 20 21  1  0
 21 22  2  0
 22 23  1  0
  4  5  2  0
  4 13  1  0
  5  6  1  0
  6  7  2  0
  7  8  1  0
  7 12  1  0
  8  9  2  0
  9 10  1  0
 10 11  2  0
 11 12  1  0
 12 13  2  0
M  END
>  <minimizedAffinity>  (389) 
-8.81406

$$$$
data/reference_output_2/data/smiles/121363.pdb
     RDKit          3D

 25 27  0  0  0  0  0  0  0  0999 V2000
   69.1812   46.6346   57.0798 N   0  0  0  0  0  0  0  0  0  0  0  0
   68.7564   47.3827   56.1719 C   0  0  0  0  0  0  0  0  0  0  0  0
   68.6835   46.9811   54.8000 C   0  0  0  0  0  0  0  0  0  0  0  0
   69.2381   47.7024   53.7679 C   0  0  0  0  0  0  0  0  0  0  0  0
   69.0762   47.4181   52.4219 C   0  0  0  0  0  0  0  0  0  0  0  0
   68.3252   46.3554   52.0446 C   0  0  0  0  0  0  0  0  0  0  0  0
   67.7465   45.5917   53.0129 C   0  0  0  0  0  0  0  0  0  0  0  0
   67.9162   45.8915   54.3631 C   0  0  0  0  0  0  0  0  0  0  0  0
   68.3067   48.7120   56.6588 C   0  0  0  0  0  0  0  0  0  0  0  0
   67.2299   48.7750   57.5585 C   0  0  0  0  0  0  0  0  0  0  0  0
   66.6645   49.9437   57.9906 C   0  0  0  0  0  0  0  0  0  0  0  0
   67.1497   51.1462   57.5423 C   0  0  0  0  0  0  0  0  0  0  0  0
   68.1988   51.0989   56.6640 C   0  0  0  0  0  0  0  0  0  0  0  0
   68.7808   49.9096   56.2149 C   0  0  0  0  0  0  0  0  0  0  0  0
   70.1820   44.7831   58.2528 C   0  0  0  0  0  0  0  0  0  0  0  0
   70.1671   45.5168   59.2675 O   0  0  0  0  0  0  0  0  0  0  0  0
   69.6461   45.3799   57.0476 N   0  0  0  0  0  0  0  0  0  0  0  0
   69.6887   42.6141   57.3285 C   0  0  0  0  0  0  0  0  0  0  0  0
   70.6730   43.4138   58.1548 C   0  0  1  0  0  0  0  0  0  0  0  0
   71.9958   43.2792   57.6286 N   0  0  0  0  0  0  0  0  0  0  0  0
   72.9267   44.2474   58.0617 C   0  0  0  0  0  0  0  0  0  0  0  0
   74.3298   43.7957   58.2279 C   0  0  0  0  0  0  0  0  0  0  0  0
   74.5014   42.5088   58.6439 O   0  0  0  0  0  0  0  0  0  0  0  0
   73.3604   41.8452   59.0163 C   0  0  0  0  0  0  0  0  0  0  0  0
   72.4154   41.9068   57.8089 C   0  0  0  0  0  0  0  0  0  0  0  0
 19 18  1  6
 19 15  1  0
 19 20  1  0
 15 16  2  0
 15 17  1  0
 17  1  1  0
  1  2  2  0
  2  3  1  0
  2  9  1  0
  3  4  2  0
  3  8  1  0
  4  5  1  0
  5  6  2  0
  6  7  1  0
  7  8  2  0
  9 10  2  0
  9 14  1  0
 10 11  1  0
 11 12  2  0
 12 13  1  0
 13 14  2  0
 20 21  1  0
 20 25  1  0
 21 22  1  0
 22 23  1  0
 23 24  1  0
 24 25  1  0
M  CHG  1  20   1
M  END
>  <minimizedAffinity>  (390) 
-8.50492

$$$$
data/reference_output_2/data/smiles/121853.pdb
     RDKit          3D

 26 29  0  0  0  0  0  0  0  0999 V2000
   70.5061   51.3319   53.3121 O   0  0  0  0  0  0  0  0  0  0  0  0
   70.7873   50.1184   53.6817 C   0  0  0  0  0  0  0  0  0  0  0  0
   71.8229   50.0246   54.6072 N   0  0  0  0  0  0  0  0  0  0  0  0
   69.9987   49.0542   53.0911 C   0  0  0  0  0  0  0  0  0  0  0  0
   69.4731   48.0468   53.9183 C   0  0  0  0  0  0  0  0  0  0  0  0
   68.7204   47.0138   53.4041 C   0  0  0  0  0  0  0  0  0  0  0  0
   68.1974   46.0145   54.2099 C   0  0  0  0  0  0  0  0  0  0  0  0
   67.4430   44.9832   53.6757 C   0  0  0  0  0  0  0  0  0  0  0  0
   67.2011   44.9370   52.3215 C   0  0  0  0  0  0  0  0  0  0  0  0
   66.4511   43.9220   51.7515 O   0  0  0  0  0  0  0  0  0  0  0  0
   67.7169   45.9259   51.5113 C   0  0  0  0  0  0  0  0  0  0  0  0
   68.4783   46.9682   52.0512 C   0  0  0  0  0  0  0  0  0  0  0  0
   68.9704   47.9059   51.3028 O   0  0  0  0  0  0  0  0  0  0  0  0
   69.7091   48.9278   51.7778 C   0  0  0  0  0  0  0  0  0  0  0  0
   70.1326   49.7801   50.9471 O   0  0  0  0  0  0  0  0  0  0  0  0
   72.5948   51.1157   55.1478 C   0  0  0  0  0  0  0  0  0  0  0  0
   72.0811   51.7680   56.3453 C   0  0  0  0  0  0  0  0  0  0  0  0
   70.6784   52.0960   56.5321 C   0  0  0  0  0  0  0  0  0  0  0  0
   70.0539   53.3410   56.3927 C   0  0  0  0  0  0  0  0  0  0  0  0
   68.7563   53.2000   56.6990 N   0  0  0  0  0  0  0  0  0  0  0  0
   68.4637   51.9489   57.0338 C   0  0  0  0  0  0  0  0  0  0  0  0
   67.3104   51.2970   57.4202 C   0  0  0  0  0  0  0  0  0  0  0  0
   67.3880   49.9513   57.6965 C   0  0  0  0  0  0  0  0  0  0  0  0
   68.5654   49.2489   57.6004 C   0  0  0  0  0  0  0  0  0  0  0  0
   69.7012   49.9141   57.2147 C   0  0  0  0  0  0  0  0  0  0  0  0
   69.6435   51.2442   56.9379 C   0  0  0  0  0  0  0  0  0  0  0  0
  1  2  2  0
  2  3  1  0
  2  4  1  0
  3 16  1  0
 16 17  1  0
 17 18  1  0
 18 19  2  0
 18 26  1  0
 19 20  1  0
 20 21  1  0
 21 22  1  0
 21 26  2  0
 22 23  2  0
 23 24  1  0
 24 25  2  0
 25 26  1  0
  4  5  2  0
  4 14  1  0
  5  6  1  0
  6  7  2  0
  6 12  1  0
  7  8  1  0
  8  9  2  0
  9 10  1  0
  9 11  1  0
 11 12  2  0
 12 13  1  0
 13 14  1  0
 14 15  2  0
M  END
>  <minimizedAffinity>  (391) 
-8.94514

$$$$
data/reference_output_2/data/smiles/121926.pdb
     RDKit          3D

 32 35  0  0  0  0  0  0  0  0999 V2000
   70.9540   44.5328   59.1054 C   0  0  0  0  0  0  0  0  0  0  0  0
   70.8507   45.8320   58.9179 C   0  0  0  0  0  0  0  0  0  0  0  0
   71.5543   46.6258   59.7481 N   0  0  0  0  0  0  0  0  0  0  0  0
   71.4577   47.9546   59.5612 C   0  0  0  0  0  0  0  0  0  0  0  0
   72.0984   48.7177   60.3143 O   0  0  0  0  0  0  0  0  0  0  0  0
   70.6848   48.5402   58.5734 C   0  0  0  0  0  0  0  0  0  0  0  0
   70.5896   49.8269   58.3879 C   0  0  0  0  0  0  0  0  0  0  0  0
   69.9961   47.7339   57.7623 N   0  0  0  0  0  0  0  0  0  0  0  0
   70.0656   46.3986   57.9167 C   0  0  0  0  0  0  0  0  0  0  0  0
   69.4228   45.6057   57.1601 O   0  0  0  0  0  0  0  0  0  0  0  0
   69.7525   50.3801   57.3238 C   0  0  0  0  0  0  0  0  0  0  0  0
   68.6030   51.0710   57.5426 C   0  0  0  0  0  0  0  0  0  0  0  0
   67.8884   51.5416   56.4676 C   0  0  0  0  0  0  0  0  0  0  0  0
   68.2875   51.3463   55.1633 C   0  0  0  0  0  0  0  0  0  0  0  0
   69.4636   50.6398   54.9369 C   0  0  0  0  0  0  0  0  0  0  0  0
   70.1736   50.1714   56.0278 C   0  0  0  0  0  0  0  0  0  0  0  0
   69.8994   50.4078   53.5665 C   0  0  0  0  0  0  0  0  0  0  0  0
   70.4711   51.3318   52.9493 O   0  0  0  0  0  0  0  0  0  0  0  0
   69.6865   49.1400   52.9056 C   0  0  0  0  0  0  0  0  0  0  0  0
   68.9440   48.0346   53.2713 C   0  0  0  0  0  0  0  0  0  0  0  0
   69.0233   47.0454   52.3076 C   0  0  0  0  0  0  0  0  0  0  0  0
   69.8173   47.5414   51.3472 N   0  0  0  0  0  0  0  0  0  0  0  0
   70.2261   48.7699   51.6659 C   0  0  0  0  0  0  0  0  0  0  0  0
   73.0253   43.3774   59.9110 C   0  0  0  0  0  0  0  0  0  0  0  0
   73.5202   42.9252   61.1006 N   0  0  0  0  0  0  0  0  0  0  0  0
   72.5908   43.2206   62.0341 C   0  0  0  0  0  0  0  0  0  0  0  0
   71.5426   43.8355   61.4674 N   0  0  0  0  0  0  0  0  0  0  0  0
   71.7883   43.9421   60.1631 C   0  0  0  0  0  0  0  0  0  0  0  0
   72.7465   42.6823   57.5293 C   0  0  0  0  0  0  0  0  0  0  0  0
   73.6697   43.2918   58.5825 C   0  0  0  0  0  0  0  0  0  0  0  0
   74.1293   44.6208   58.0840 C   0  0  0  0  0  0  0  0  0  0  0  0
   74.8886   42.3760   58.6203 C   0  0  0  0  0  0  0  0  0  0  0  0
 29 30  1  0
 30 31  1  0
 30 32  1  0
 30 24  1  0
 24 25  1  0
 24 28  2  0
 25 26  1  0
 26 27  2  0
 27 28  1  0
 28  1  1  0
  1  2  2  0
  2  3  1  0
  2  9  1  0
  3  4  1  0
  4  5  2  0
  4  6  1  0
  6  7  2  0
  6  8  1  0
  7 11  1  0
 11 12  2  0
 11 16  1  0
 12 13  1  0
 13 14  2  0
 14 15  1  0
 15 17  1  0
 15 16  2  0
 17 18  2  0
 17 19  1  0
 19 20  1  0
 19 23  2  0
 20 21  2  0
 21 22  1  0
 22 23  1  0
  8  9  1  0
  9 10  2  0
M  CHG  1  27   1
M  END
>  <minimizedAffinity>  (392) 
-9.03395

$$$$
data/reference_output_2/data/smiles/122227.pdb
     RDKit          3D

 26 28  0  0  0  0  0  0  0  0999 V2000
   68.3375   45.7350   55.4147 C   0  0  0  0  0  0  0  0  0  0  0  0
   68.7270   46.0378   56.5719 O   0  0  0  0  0  0  0  0  0  0  0  0
   68.0655   44.3857   55.1283 N   0  0  0  0  0  0  0  0  0  0  0  0
   69.1286   48.7108   53.3465 N   0  0  0  0  0  0  0  0  0  0  0  0
   69.4457   48.0816   52.1049 C   0  0  0  0  0  0  0  0  0  0  0  0
   68.9379   46.6833   51.9646 C   0  0  0  0  0  0  0  0  0  0  0  0
   68.0135   46.2156   53.0182 C   0  0  0  0  0  0  0  0  0  0  0  0
   68.1697   46.8059   54.3614 C   0  0  2  0  0  0  0  0  0  0  0  0
   69.3784   47.7478   54.4051 C   0  0  0  0  0  0  0  0  0  0  0  0
   69.7057   50.8649   55.1367 C   0  0  0  0  0  0  0  0  0  0  0  0
   70.1571   50.0726   53.6051 S   0  0  0  0  0  0  0  0  0  0  0  0
   71.5892   49.6282   53.7202 O   0  0  0  0  0  0  0  0  0  0  0  0
   70.0133   51.0911   52.5223 O   0  0  0  0  0  0  0  0  0  0  0  0
   68.1997   43.3295   56.0630 C   0  0  0  0  0  0  0  0  0  0  0  0
   67.4898   42.1626   56.2154 C   0  0  0  0  0  0  0  0  0  0  0  0
   67.9967   41.4658   57.2610 N   0  0  0  0  0  0  0  0  0  0  0  0
   69.0158   42.1548   57.7853 N   0  0  0  0  0  0  0  0  0  0  0  0
   69.1533   43.2877   57.0716 C   0  0  0  0  0  0  0  0  0  0  0  0
   69.8250   41.7470   58.9240 C   0  0  0  0  0  0  0  0  0  0  0  0
   70.1613   40.2994   58.8734 C   0  0  0  0  0  0  0  0  0  0  0  0
   71.3466   39.8248   58.3664 C   0  0  0  0  0  0  0  0  0  0  0  0
   71.6727   38.4827   58.3121 C   0  0  0  0  0  0  0  0  0  0  0  0
   70.7616   37.5519   58.7934 C   0  0  0  0  0  0  0  0  0  0  0  0
   71.0452   36.2122   58.7587 F   0  0  0  0  0  0  0  0  0  0  0  0
   69.5636   37.9970   59.3082 C   0  0  0  0  0  0  0  0  0  0  0  0
   69.2511   39.3535   59.3544 C   0  0  0  0  0  0  0  0  0  0  0  0
 10 11  1  0
 11 12  2  0
 11 13  2  0
 11  4  1  0
  4  5  1  0
  4  9  1  0
  5  6  1  0
  6  7  1  0
  7  8  1  0
  8  1  1  1
  8  9  1  0
  1  2  2  0
  1  3  1  0
  3 14  1  0
 14 15  1  0
 14 18  2  0
 15 16  2  0
 16 17  1  0
 17 19  1  0
 17 18  1  0
 19 20  1  0
 20 21  2  0
 20 26  1  0
 21 22  1  0
 22 23  2  0
 23 24  1  0
 23 25  1  0
 25 26  2  0
M  END
>  <minimizedAffinity>  (393) 
-8.53737

$$$$
data/reference_output_2/data/smiles/122238.pdb
     RDKit          3D

 24 27  0  0  0  0  0  0  0  0999 V2000
   74.6115   34.4589   52.0464 N   0  0  0  0  0  0  0  0  0  0  0  0
   74.7361   35.0101   53.2378 C   0  0  0  0  0  0  0  0  0  0  0  0
   75.8950   35.7975   53.5041 C   0  0  0  0  0  0  0  0  0  0  0  0
   76.8329   35.9437   52.5201 C   0  0  0  0  0  0  0  0  0  0  0  0
   76.6891   35.3551   51.2853 C   0  0  0  0  0  0  0  0  0  0  0  0
   77.6584   35.5207   50.2923 C   0  0  0  0  0  0  0  0  0  0  0  0
   77.5273   34.9460   49.0504 C   0  0  0  0  0  0  0  0  0  0  0  0
   78.5741   35.1394   48.0151 C   0  0  0  0  0  0  0  0  0  0  0  0
   76.3945   34.1988   48.8294 C   0  0  0  0  0  0  0  0  0  0  0  0
   75.4143   34.0268   49.8224 C   0  0  0  0  0  0  0  0  0  0  0  0
   75.5572   34.6026   51.0529 C   0  0  0  0  0  0  0  0  0  0  0  0
   72.3974   34.9994   51.1958 C   0  0  0  0  0  0  0  0  0  0  0  0
   73.3780   33.8503   51.6346 C   0  0  0  0  0  0  0  0  0  0  0  0
   73.9141   34.7337   54.4015 C   0  0  0  0  0  0  0  0  0  0  0  0
   73.9127   35.2372   55.5761 C   0  0  0  0  0  0  0  0  0  0  0  0
   73.1227   34.9850   56.7560 C   0  0  0  0  0  0  0  0  0  0  0  0
   72.9596   33.7112   57.3350 C   0  0  0  0  0  0  0  0  0  0  0  0
   72.1990   33.7774   58.4222 N   0  0  0  0  0  0  0  0  0  0  0  0
   71.8267   35.0391   58.6226 C   0  0  0  0  0  0  0  0  0  0  0  0
   71.0522   35.6135   59.6042 C   0  0  0  0  0  0  0  0  0  0  0  0
   70.8159   36.9827   59.5928 C   0  0  0  0  0  0  0  0  0  0  0  0
   71.3781   37.7245   58.5815 C   0  0  0  0  0  0  0  0  0  0  0  0
   72.1674   37.1592   57.5763 C   0  0  0  0  0  0  0  0  0  0  0  0
   72.3904   35.8097   57.5993 C   0  0  0  0  0  0  0  0  0  0  0  0
 12 13  1  0
 13  1  1  0
  1  2  2  0
  1 11  1  0
  2 14  1  0
  2  3  1  0
 14 15  2  0
 15 16  1  0
 16 17  2  0
 16 24  1  0
 17 18  1  0
 18 19  1  0
 19 20  1  0
 19 24  2  0
 20 21  2  0
 21 22  1  0
 22 23  2  0
 23 24  1  0
  3  4  2  0
  4  5  1  0
  5  6  1  0
  5 11  2  0
  6  7  2  0
  7  8  1  0
  7  9  1  0
  9 10  2  0
 10 11  1  0
M  CHG  1   1   1
M  END
>  <minimizedAffinity>  (394) 
-8.79681

$$$$
data/reference_output_2/data/smiles/122291.pdb
     RDKit          3D

 23 25  0  0  0  0  0  0  0  0999 V2000
   72.2004   50.8673   54.8048 S   0  0  0  0  0  0  0  0  0  0  0  0
   72.7715   52.2216   54.5741 O   0  0  0  0  0  0  0  0  0  0  0  0
   73.0971   50.0112   55.6395 O   0  0  0  0  0  0  0  0  0  0  0  0
   70.6249   50.9578   55.5858 C   0  0  0  0  0  0  0  0  0  0  0  0
   69.9472   52.1546   55.6917 C   0  0  0  0  0  0  0  0  0  0  0  0
   68.7085   52.2054   56.3101 C   0  0  0  0  0  0  0  0  0  0  0  0
   68.1058   51.0829   56.8400 C   0  0  0  0  0  0  0  0  0  0  0  0
   66.8695   51.1445   57.4550 C   0  0  0  0  0  0  0  0  0  0  0  0
   66.2727   50.0069   57.9848 C   0  0  0  0  0  0  0  0  0  0  0  0
   66.9786   48.8328   57.8601 C   0  0  0  0  0  0  0  0  0  0  0  0
   68.2088   48.7383   57.2542 C   0  0  0  0  0  0  0  0  0  0  0  0
   68.7886   49.8900   56.7308 C   0  0  0  0  0  0  0  0  0  0  0  0
   70.0231   49.8396   56.1137 C   0  0  0  0  0  0  0  0  0  0  0  0
   71.9901   50.0556   53.2734 N   0  0  0  0  0  0  0  0  0  0  0  0
   70.0618   49.3778   51.4198 O   0  0  0  0  0  0  0  0  0  0  0  0
   70.1298   48.6611   52.4790 C   0  0  0  0  0  0  0  0  0  0  0  0
   71.0926   48.9599   53.4588 N   0  0  0  0  0  0  0  0  0  0  0  0
   69.2092   47.5525   52.6475 C   0  0  0  0  0  0  0  0  0  0  0  0
   68.8705   47.1184   53.9407 C   0  0  0  0  0  0  0  0  0  0  0  0
   68.0098   46.0803   54.1883 C   0  0  0  0  0  0  0  0  0  0  0  0
   67.4522   45.4332   53.0995 C   0  0  0  0  0  0  0  0  0  0  0  0
   67.7450   45.8120   51.8122 C   0  0  0  0  0  0  0  0  0  0  0  0
   68.6315   46.8819   51.6022 C   0  0  0  0  0  0  0  0  0  0  0  0
 15 16  2  0
 16 17  1  0
 16 18  1  0
 17 14  1  0
 14  1  1  0
  1  2  2  0
  1  3  2  0
  1  4  1  0
  4  5  2  0
  4 13  1  0
  5  6  1  0
  6  7  2  0
  7  8  1  0
  7 12  1  0
  8  9  2  0
  9 10  1  0
 10 11  2  0
 11 12  1  0
 12 13  2  0
 18 19  2  0
 18 23  1  0
 19 20  1  0
 20 21  2  0
 21 22  1  0
 22 23  2  0
M  END
>  <minimizedAffinity>  (395) 
-8.62259

$$$$
data/reference_output_2/data/smiles/122308.pdb
     RDKit          3D

 26 28  0  0  0  0  0  0  0  0999 V2000
   71.5722   47.8144   59.1538 C   0  0  0  0  0  0  0  0  0  0  0  0
   70.8319   46.7745   58.3934 C   0  0  0  0  0  0  0  0  0  0  0  0
   69.7843   47.1651   57.5919 C   0  0  0  0  0  0  0  0  0  0  0  0
   69.4249   48.4848   57.4925 F   0  0  0  0  0  0  0  0  0  0  0  0
   69.1208   46.1714   56.9002 C   0  0  0  0  0  0  0  0  0  0  0  0
   69.4696   44.8754   56.9947 N   0  0  0  0  0  0  0  0  0  0  0  0
   70.5001   44.4538   57.7774 C   0  0  0  0  0  0  0  0  0  0  0  0
   71.1665   45.4498   58.4710 C   0  0  0  0  0  0  0  0  0  0  0  0
   72.1996   45.0363   59.2575 F   0  0  0  0  0  0  0  0  0  0  0  0
   70.8413   43.0847   57.8548 N   0  0  0  0  0  0  0  0  0  0  0  0
   72.1698   42.6744   57.4627 C   0  0  0  0  0  0  0  0  0  0  0  0
   72.7025   41.8086   58.5573 C   0  0  0  0  0  0  0  0  0  0  0  0
   71.8891   40.6943   58.8512 N   0  0  0  0  0  0  0  0  0  0  0  0
   72.2075   40.0648   60.1129 C   0  0  0  0  0  0  0  0  0  0  0  0
   70.5201   40.7504   58.5462 C   0  0  0  0  0  0  0  0  0  0  0  0
   69.9280   42.0894   58.3034 C   0  0  0  0  0  0  0  0  0  0  0  0
   68.0543   46.5880   56.0881 O   0  0  0  0  0  0  0  0  0  0  0  0
   68.2828   46.6544   54.7083 C   0  0  0  0  0  0  0  0  0  0  0  0
   67.6959   45.7484   53.8453 C   0  0  0  0  0  0  0  0  0  0  0  0
   67.9258   45.8178   52.4719 C   0  0  0  0  0  0  0  0  0  0  0  0
   68.7564   46.8174   52.0089 C   0  0  0  0  0  0  0  0  0  0  0  0
   69.3514   47.7342   52.8729 C   0  0  0  0  0  0  0  0  0  0  0  0
   69.1022   47.6364   54.2187 C   0  0  0  0  0  0  0  0  0  0  0  0
   70.2187   48.7701   52.3324 C   0  0  0  0  0  0  0  0  0  0  0  0
   69.9876   49.2565   51.1617 N   0  0  0  0  0  0  0  0  0  0  0  0
   71.3269   49.2661   53.0672 N   0  0  0  0  0  0  0  0  0  0  0  0
  1  2  1  0
  2  3  2  0
  2  8  1  0
  3  4  1  0
  3  5  1  0
  5 17  1  0
  5  6  2  0
 17 18  1  0
 18 19  2  0
 18 23  1  0
 19 20  1  0
 20 21  2  0
 21 22  1  0
 22 24  1  0
 22 23  2  0
 24 25  2  0
 24 26  1  0
  6  7  1  0
  7 10  1  0
  7  8  2  0
 10 11  1  0
 10 16  1  0
 11 12  1  0
 12 13  1  0
 13 14  1  0
 13 15  1  0
 15 16  1  0
  8  9  1  0
M  CHG  2  13   1  25   1
M  END
>  <minimizedAffinity>  (396) 
-8.87449

$$$$
data/reference_output_2/data/smiles/122433.pdb
     RDKit          3D

 27 29  0  0  0  0  0  0  0  0999 V2000
   70.2950   49.6369   54.1751 C   0  0  0  0  0  0  0  0  0  0  0  0
   69.7839   49.1022   55.3262 C   0  0  0  0  0  0  0  0  0  0  0  0
   69.0182   47.9815   55.3995 N   0  0  0  0  0  0  0  0  0  0  0  0
   68.7480   47.3602   54.2391 C   0  0  0  0  0  0  0  0  0  0  0  0
   67.9610   46.2286   54.2386 C   0  0  0  0  0  0  0  0  0  0  0  0
   67.6565   45.5780   53.0603 C   0  0  0  0  0  0  0  0  0  0  0  0
   68.1103   46.0109   51.8334 C   0  0  0  0  0  0  0  0  0  0  0  0
   68.8953   47.1453   51.8559 C   0  0  0  0  0  0  0  0  0  0  0  0
   69.2091   47.8082   53.0186 C   0  0  0  0  0  0  0  0  0  0  0  0
   69.9814   48.9454   52.9957 C   0  0  0  0  0  0  0  0  0  0  0  0
   70.4448   49.4196   51.9129 O   0  0  0  0  0  0  0  0  0  0  0  0
   71.1128   50.8385   54.1244 C   0  0  0  0  0  0  0  0  0  0  0  0
   70.8251   51.7185   53.2778 O   0  0  0  0  0  0  0  0  0  0  0  0
   72.2406   51.0377   55.0218 C   0  0  0  0  0  0  0  0  0  0  0  0
   73.5213   51.2813   54.3017 C   0  0  0  0  0  0  0  0  0  0  0  0
   73.9950   50.3412   53.6254 O   0  0  0  0  0  0  0  0  0  0  0  0
   73.7993   53.5381   53.7113 O   0  0  0  0  0  0  0  0  0  0  0  0
   74.2102   52.5548   54.3706 C   0  0  0  0  0  0  0  0  0  0  0  0
   75.3372   52.7325   55.1598 O   0  0  0  0  0  0  0  0  0  0  0  0
   68.5828   47.5003   56.7039 C   0  0  0  0  0  0  0  0  0  0  0  0
   69.7058   46.8705   57.4825 C   0  0  0  0  0  0  0  0  0  0  0  0
   70.0409   45.5485   57.3345 C   0  0  0  0  0  0  0  0  0  0  0  0
   71.0796   45.0077   58.0652 C   0  0  0  0  0  0  0  0  0  0  0  0
   71.7648   45.8152   58.9334 C   0  0  0  0  0  0  0  0  0  0  0  0
   71.4295   47.1516   59.0847 C   0  0  0  0  0  0  0  0  0  0  0  0
   72.1486   47.8939   59.9631 F   0  0  0  0  0  0  0  0  0  0  0  0
   70.4000   47.7066   58.3684 C   0  0  0  0  0  0  0  0  0  0  0  0
 17 18  2  0
 18 19  1  0
 18 15  1  0
 15 16  2  0
 15 14  1  0
 14 12  1  0
 12 13  2  0
 12  1  1  0
  1  2  2  0
  1 10  1  0
  2  3  1  0
  3 20  1  0
  3  4  1  0
 20 21  1  0
 21 22  2  0
 21 27  1  0
 22 23  1  0
 23 24  2  0
 24 25  1  0
 25 26  1  0
 25 27  2  0
  4  5  1  0
  4  9  2  0
  5  6  2  0
  6  7  1  0
  7  8  2  0
  8  9  1  0
  9 10  1  0
 10 11  2  0
M  END
>  <minimizedAffinity>  (397) 
-9.08794

$$$$
data/reference_output_2/data/smiles/122445.pdb
     RDKit          3D

 23 25  0  0  0  0  0  0  0  0999 V2000
   68.9707   44.9739   56.5846 C   0  0  0  0  0  0  0  0  0  0  0  0
   68.8004   43.6132   56.6990 C   0  0  0  0  0  0  0  0  0  0  0  0
   69.8385   43.0623   57.4624 C   0  0  0  0  0  0  0  0  0  0  0  0
   70.6042   44.1152   57.7827 N   0  0  0  0  0  0  0  0  0  0  0  0
   70.0937   45.2380   57.2678 N   0  0  0  0  0  0  0  0  0  0  0  0
   69.9970   41.6502   57.7847 C   0  0  0  0  0  0  0  0  0  0  0  0
   71.2127   41.1245   58.1557 C   0  0  0  0  0  0  0  0  0  0  0  0
   71.3655   39.7804   58.4742 C   0  0  0  0  0  0  0  0  0  0  0  0
   70.2967   38.9141   58.4327 C   0  0  0  0  0  0  0  0  0  0  0  0
   70.4263   37.5938   58.7422 F   0  0  0  0  0  0  0  0  0  0  0  0
   69.0698   39.4359   58.0608 C   0  0  0  0  0  0  0  0  0  0  0  0
   68.9253   40.7799   57.7432 C   0  0  0  0  0  0  0  0  0  0  0  0
   68.1193   45.8927   55.8812 N   0  0  0  0  0  0  0  0  0  0  0  0
   69.2199   47.7442   52.8886 C   0  0  0  0  0  0  0  0  0  0  0  0
   68.7217   46.9491   51.8761 C   0  0  0  0  0  0  0  0  0  0  0  0
   68.0299   45.8219   52.1835 C   0  0  0  0  0  0  0  0  0  0  0  0
   67.8340   45.4877   53.5239 C   0  0  0  0  0  0  0  0  0  0  0  0
   68.3199   46.2636   54.5440 C   0  0  0  0  0  0  0  0  0  0  0  0
   69.0171   47.3964   54.2325 C   0  0  0  0  0  0  0  0  0  0  0  0
   69.2922   50.5281   53.2143 N   0  0  0  0  0  0  0  0  0  0  0  0
   70.0975   49.1850   52.4652 S   0  0  0  0  0  0  0  0  0  0  0  0
   69.9982   49.3960   50.9676 O   0  0  0  0  0  0  0  0  0  0  0  0
   71.5237   49.1543   52.9268 O   0  0  0  0  0  0  0  0  0  0  0  0
 20 21  1  0
 21 22  2  0
 21 23  2  0
 21 14  1  0
 14 15  2  0
 14 19  1  0
 15 16  1  0
 16 17  2  0
 17 18  1  0
 18 13  1  0
 18 19  2  0
 13  1  1  0
  1  2  2  0
  1  5  1  0
  2  3  1  0
  3  6  1  0
  3  4  2  0
  6  7  2  0
  6 12  1  0
  7  8  1  0
  8  9  2  0
  9 10  1  0
  9 11  1  0
 11 12  2  0
  4  5  1  0
M  END
>  <minimizedAffinity>  (398) 
-8.92591

$$$$
data/reference_output_2/data/smiles/122457.pdb
     RDKit          3D

 23 25  0  0  0  0  0  0  0  0999 V2000
   68.1471   45.4781   54.7416 C   0  0  0  0  0  0  0  0  0  0  0  0
   68.1641   44.8817   55.8627 N   0  0  0  0  0  0  0  0  0  0  0  0
   69.5399   48.4422   52.9445 C   0  0  0  0  0  0  0  0  0  0  0  0
   69.6722   49.3531   53.9802 C   0  0  0  0  0  0  0  0  0  0  0  0
   69.3079   49.0304   55.2794 C   0  0  0  0  0  0  0  0  0  0  0  0
   68.7946   47.7577   55.5500 C   0  0  0  0  0  0  0  0  0  0  0  0
   68.6539   46.8432   54.5544 C   0  0  0  0  0  0  0  0  0  0  0  0
   69.0320   47.2084   53.2563 C   0  0  0  0  0  0  0  0  0  0  0  0
   68.8928   46.2825   52.2152 O   0  0  0  0  0  0  0  0  0  0  0  0
   70.4776   47.8648   50.9363 O   0  0  0  0  0  0  0  0  0  0  0  0
   69.9097   48.7484   51.6063 N   0  0  0  0  0  0  0  0  0  0  0  0
   69.6727   49.9644   51.0189 O   0  0  0  0  0  0  0  0  0  0  0  0
   67.6931   43.5840   56.1014 N   0  0  0  0  0  0  0  0  0  0  0  0
   68.5320   42.6474   56.8036 C   0  0  0  0  0  0  0  0  0  0  0  0
   69.8152   43.0627   57.1872 C   0  0  0  0  0  0  0  0  0  0  0  0
   70.6805   42.2458   57.8720 C   0  0  0  0  0  0  0  0  0  0  0  0
   70.2480   40.9685   58.1846 C   0  0  0  0  0  0  0  0  0  0  0  0
   71.0537   40.0858   58.8755 C   0  0  0  0  0  0  0  0  0  0  0  0
   70.5607   38.8324   59.1575 C   0  0  0  0  0  0  0  0  0  0  0  0
   69.3064   38.3965   58.7956 C   0  0  0  0  0  0  0  0  0  0  0  0
   68.5256   39.2978   58.1096 C   0  0  0  0  0  0  0  0  0  0  0  0
   68.9896   40.5755   57.8037 C   0  0  0  0  0  0  0  0  0  0  0  0
   68.1483   41.4184   57.1187 N   0  0  0  0  0  0  0  0  0  0  0  0
 10 11  2  0
 11 12  1  0
 11  3  1  0
  3  4  2  0
  3  8  1  0
  4  5  1  0
  5  6  2  0
  6  7  1  0
  7  1  1  0
  7  8  2  0
  1  2  2  0
  2 13  1  0
 13 14  1  0
 14 15  2  0
 14 23  1  0
 15 16  1  0
 16 17  2  0
 17 18  1  0
 17 22  1  0
 18 19  2  0
 19 20  1  0
 20 21  2  0
 21 22  1  0
 22 23  2  0
  8  9  1  0
M  CHG  2  11   1  12  -1
M  END
>  <minimizedAffinity>  (399) 
-8.83777

$$$$
data/reference_output_2/data/smiles/122678.pdb
     RDKit          3D

 29 31  0  0  0  0  0  0  0  0999 V2000
   67.5913   42.3869   56.6557 N   0  0  0  0  0  0  0  0  0  0  0  0
   67.7600   40.9778   56.6250 C   0  0  0  0  0  0  0  0  0  0  0  0
   67.6566   40.4289   55.4994 O   0  0  0  0  0  0  0  0  0  0  0  0
   67.8071   45.1597   54.1599 N   0  0  0  0  0  0  0  0  0  0  0  0
   68.0011   44.3523   55.2988 C   0  0  0  0  0  0  0  0  0  0  0  0
   68.7768   44.7032   56.1873 O   0  0  0  0  0  0  0  0  0  0  0  0
   67.3259   43.1039   55.4930 N   0  0  0  0  0  0  0  0  0  0  0  0
   69.6686   48.8136   53.1446 C   0  0  0  0  0  0  0  0  0  0  0  0
   69.4552   47.8189   52.2187 C   0  0  0  0  0  0  0  0  0  0  0  0
   68.8442   46.6395   52.5878 C   0  0  0  0  0  0  0  0  0  0  0  0
   68.4198   46.3935   53.8807 C   0  0  0  0  0  0  0  0  0  0  0  0
   68.6373   47.3879   54.7889 C   0  0  0  0  0  0  0  0  0  0  0  0
   69.2555   48.5893   54.4340 C   0  0  0  0  0  0  0  0  0  0  0  0
   69.9749   51.1755   53.5303 C   0  0  0  0  0  0  0  0  0  0  0  0
   70.2950   50.0236   52.7718 O   0  0  0  0  0  0  0  0  0  0  0  0
   68.0441   40.1405   57.8049 C   0  0  0  0  0  0  0  0  0  0  0  0
   67.7772   38.7910   57.5779 O   0  0  0  0  0  0  0  0  0  0  0  0
   67.3049   40.5169   59.0165 C   0  0  0  0  0  0  0  0  0  0  0  0
   66.4952   39.5838   59.6251 C   0  0  0  0  0  0  0  0  0  0  0  0
   65.7695   39.9037   60.7805 C   0  0  0  0  0  0  0  0  0  0  0  0
   65.8649   41.1600   61.3123 C   0  0  0  0  0  0  0  0  0  0  0  0
   66.6614   42.0845   60.7171 C   0  0  0  0  0  0  0  0  0  0  0  0
   67.3761   41.7614   59.5750 C   0  0  0  0  0  0  0  0  0  0  0  0
   69.4831   40.2750   58.1043 C   0  0  0  0  0  0  0  0  0  0  0  0
   70.1831   39.1977   58.5857 C   0  0  0  0  0  0  0  0  0  0  0  0
   71.5502   39.3188   58.8734 C   0  0  0  0  0  0  0  0  0  0  0  0
   72.2028   40.4946   58.6829 C   0  0  0  0  0  0  0  0  0  0  0  0
   71.5089   41.5852   58.1989 C   0  0  0  0  0  0  0  0  0  0  0  0
   70.1583   41.4584   57.9165 C   0  0  0  0  0  0  0  0  0  0  0  0
 14 15  1  0
 15  8  1  0
  8  9  2  0
  8 13  1  0
  9 10  1  0
 10 11  2  0
 11  4  1  0
 11 12  1  0
  4  5  1  0
  5  6  2  0
  5  7  1  0
  7  1  1  0
  1  2  1  0
  2  3  2  0
  2 16  1  0
 16 17  1  0
 16 18  1  0
 16 24  1  0
 18 19  2  0
 18 23  1  0
 19 20  1  0
 20 21  2  0
 21 22  1  0
 22 23  2  0
 24 25  2  0
 24 29  1  0
 25 26  1  0
 26 27  2  0
 27 28  1  0
 28 29  2  0
 12 13  2  0
M  END
>  <minimizedAffinity>  (400) 
-9.23504

$$$$
data/reference_output_2/data/smiles/122718.pdb
     RDKit          3D

 29 32  0  0  0  0  0  0  0  0999 V2000
   70.0530   42.9155   59.1277 N   0  0  0  0  0  0  0  0  0  0  0  0
   68.8688   42.6918   59.9197 C   0  0  0  0  0  0  0  0  0  0  0  0
   68.4438   43.5180   60.7525 O   0  0  0  0  0  0  0  0  0  0  0  0
   68.3073   41.4374   59.5984 N   0  0  0  0  0  0  0  0  0  0  0  0
   69.0845   40.8844   58.5265 C   0  0  1  0  0  0  0  0  0  0  0  0
   68.2822   40.7943   57.2471 C   0  0  0  0  0  0  0  0  0  0  0  0
   70.2261   41.7849   58.3068 C   0  0  0  0  0  0  0  0  0  0  0  0
   71.1738   41.5826   57.5347 O   0  0  0  0  0  0  0  0  0  0  0  0
   69.5870   39.5156   58.8473 C   0  0  0  0  0  0  0  0  0  0  0  0
   69.0249   38.7627   59.8585 C   0  0  0  0  0  0  0  0  0  0  0  0
   69.5025   37.4952   60.1428 C   0  0  0  0  0  0  0  0  0  0  0  0
   70.5471   36.9279   59.4424 C   0  0  0  0  0  0  0  0  0  0  0  0
   71.0324   35.6607   59.7196 C   0  0  0  0  0  0  0  0  0  0  0  0
   72.0755   35.0901   59.0228 C   0  0  0  0  0  0  0  0  0  0  0  0
   72.6457   35.8410   58.0038 C   0  0  0  0  0  0  0  0  0  0  0  0
   72.1574   37.1010   57.7345 C   0  0  0  0  0  0  0  0  0  0  0  0
   71.1140   37.6760   58.4286 C   0  0  0  0  0  0  0  0  0  0  0  0
   70.6301   38.9399   58.1525 C   0  0  0  0  0  0  0  0  0  0  0  0
   70.9119   44.0812   59.1619 C   0  0  0  0  0  0  0  0  0  0  0  0
   69.4188   45.0079   57.3111 N   0  0  0  0  0  0  0  0  0  0  0  0
   70.6134   45.0119   58.0523 C   0  0  0  0  0  0  0  0  0  0  0  0
   71.4949   45.8598   57.7598 O   0  0  0  0  0  0  0  0  0  0  0  0
   67.7096   45.8148   52.7645 C   0  0  0  0  0  0  0  0  0  0  0  0
   68.3162   46.3470   54.0127 C   0  0  0  0  0  0  0  0  0  0  0  0
   68.6102   47.6891   54.1274 C   0  0  0  0  0  0  0  0  0  0  0  0
   69.1747   48.0961   55.3274 C   0  0  0  0  0  0  0  0  0  0  0  0
   69.4262   47.2349   56.3296 N   0  0  0  0  0  0  0  0  0  0  0  0
   69.1485   45.9127   56.2432 C   0  0  0  0  0  0  0  0  0  0  0  0
   68.5845   45.4848   55.0541 C   0  0  0  0  0  0  0  0  0  0  0  0
 23 24  1  0
 24 25  2  0
 24 29  1  0
 25 26  1  0
 26 27  2  0
 27 28  1  0
 28 20  1  0
 28 29  2  0
 20 21  1  0
 21 22  2  0
 21 19  1  0
 19  1  1  0
  1  2  1  0
  1  7  1  0
  2  3  2  0
  2  4  1  0
  4  5  1  0
  5  6  1  6
  5  9  1  0
  5  7  1  0
  9 10  2  0
  9 18  1  0
 10 11  1  0
 11 12  2  0
 12 13  1  0
 12 17  1  0
 13 14  2  0
 14 15  1  0
 15 16  2  0
 16 17  1  0
 17 18  2  0
  7  8  2  0
M  END
>  <minimizedAffinity>  (401) 
-8.72569

$$$$
data/reference_output_2/data/smiles/122778.pdb
     RDKit          3D

 28 30  0  0  0  0  0  0  0  0999 V2000
   69.9266   41.4286   58.1020 N   0  0  0  0  0  0  0  0  0  0  0  0
   69.0565   40.4084   58.0694 C   0  0  0  0  0  0  0  0  0  0  0  0
   69.5032   39.1073   58.2263 C   0  0  0  0  0  0  0  0  0  0  0  0
   70.8005   38.8056   58.4133 N   0  0  0  0  0  0  0  0  0  0  0  0
   71.6573   39.8429   58.4421 C   0  0  0  0  0  0  0  0  0  0  0  0
   72.8653   39.5810   58.6155 O   0  0  0  0  0  0  0  0  0  0  0  0
   71.2392   41.1511   58.2889 C   0  0  0  0  0  0  0  0  0  0  0  0
   72.0884   42.1010   58.3236 O   0  0  0  0  0  0  0  0  0  0  0  0
   71.1812   37.4444   58.5654 C   0  0  0  0  0  0  0  0  0  0  0  0
   70.7574   36.6659   59.6242 C   0  0  0  0  0  0  0  0  0  0  0  0
   71.1334   35.3426   59.7613 C   0  0  0  0  0  0  0  0  0  0  0  0
   71.9607   34.7342   58.8319 C   0  0  0  0  0  0  0  0  0  0  0  0
   72.3666   33.3072   58.9805 C   0  0  0  0  0  0  0  0  0  0  0  0
   72.3874   35.5061   57.7732 C   0  0  0  0  0  0  0  0  0  0  0  0
   73.2778   34.8852   56.7576 C   0  0  0  0  0  0  0  0  0  0  0  0
   72.0105   36.8244   57.6401 C   0  0  0  0  0  0  0  0  0  0  0  0
   69.5566   42.8068   57.9502 C   0  0  0  0  0  0  0  0  0  0  0  0
   68.5786   44.3209   56.1540 N   0  0  0  0  0  0  0  0  0  0  0  0
   68.7550   43.0329   56.6925 C   0  0  0  0  0  0  0  0  0  0  0  0
   68.2464   42.0346   56.1384 O   0  0  0  0  0  0  0  0  0  0  0  0
   67.8246   44.5953   54.9683 C   0  0  0  0  0  0  0  0  0  0  0  0
   69.6668   49.5776   52.6975 C   0  0  0  0  0  0  0  0  0  0  0  0
   69.1953   48.2918   53.2526 C   0  0  0  0  0  0  0  0  0  0  0  0
   68.8006   47.2433   52.4364 C   0  0  0  0  0  0  0  0  0  0  0  0
   68.3596   46.0419   52.9792 C   0  0  0  0  0  0  0  0  0  0  0  0
   68.2971   45.8464   54.3309 C   0  0  0  0  0  0  0  0  0  0  0  0
   68.6897   46.8878   55.1600 C   0  0  0  0  0  0  0  0  0  0  0  0
   69.1243   48.0729   54.6123 C   0  0  0  0  0  0  0  0  0  0  0  0
 22 23  1  0
 23 24  2  0
 23 28  1  0
 24 25  1  0
 25 26  2  0
 26 21  1  0
 26 27  1  0
 21 18  1  0
 18 19  1  0
 19 20  2  0
 19 17  1  0
 17  1  1  0
  1  2  1  0
  1  7  1  0
  2  3  2  0
  3  4  1  0
  4  9  1  0
  4  5  1  0
  9 10  2  0
  9 16  1  0
 10 11  1  0
 11 12  2  0
 12 13  1  0
 12 14  1  0
 14 15  1  0
 14 16  2  0
  5  6  2  0
  5  7  1  0
  7  8  2  0
 27 28  2  0
M  END
>  <minimizedAffinity>  (402) 
-9.09033

$$$$
data/reference_output_2/data/smiles/122870.pdb
     RDKit          3D

 22 23  0  0  0  0  0  0  0  0999 V2000
   69.4032   46.7964   56.9804 C   0  0  0  0  0  0  0  0  0  0  0  0
   69.9589   48.2251   57.4569 S   0  0  0  0  0  0  0  0  0  0  0  0
   69.9913   45.6314   57.5666 N   0  0  0  0  0  0  0  0  0  0  0  0
   71.5606   43.4852   57.9488 C   0  0  0  0  0  0  0  0  0  0  0  0
   70.1249   43.2810   57.7111 C   0  0  0  0  0  0  0  0  0  0  0  0
   69.4113   44.3651   57.5320 N   0  0  0  0  0  0  0  0  0  0  0  0
   69.4973   41.9600   57.6723 C   0  0  0  0  0  0  0  0  0  0  0  0
   68.3735   41.7280   56.9107 C   0  0  0  0  0  0  0  0  0  0  0  0
   67.7924   40.4561   56.8916 C   0  0  0  0  0  0  0  0  0  0  0  0
   68.3453   39.4437   57.6322 C   0  0  0  0  0  0  0  0  0  0  0  0
   69.4659   39.7055   58.3814 C   0  0  0  0  0  0  0  0  0  0  0  0
   69.9976   40.9470   58.3741 N   0  0  0  0  0  0  0  0  0  0  0  0
   68.3892   46.5981   56.0395 N   0  0  0  0  0  0  0  0  0  0  0  0
   68.4480   46.6524   54.6218 C   0  0  0  0  0  0  0  0  0  0  0  0
   67.7639   45.8524   53.7557 C   0  0  0  0  0  0  0  0  0  0  0  0
   67.8701   45.9604   52.3722 C   0  0  0  0  0  0  0  0  0  0  0  0
   68.6976   46.9104   51.8317 C   0  0  0  0  0  0  0  0  0  0  0  0
   69.4229   47.7581   52.6612 C   0  0  0  0  0  0  0  0  0  0  0  0
   69.2802   47.6070   54.0134 C   0  0  0  0  0  0  0  0  0  0  0  0
   70.2854   48.7476   52.1194 N   0  0  0  0  0  0  0  0  0  0  0  0
   70.0316   49.2984   51.0506 O   0  0  0  0  0  0  0  0  0  0  0  0
   71.4218   49.0973   52.7974 O   0  0  0  0  0  0  0  0  0  0  0  0
  4  5  1  0
  5  6  2  0
  5  7  1  0
  6  3  1  0
  3  1  1  0
  1  2  2  0
  1 13  1  0
 13 14  1  0
 14 15  2  0
 14 19  1  0
 15 16  1  0
 16 17  2  0
 17 18  1  0
 18 20  1  0
 18 19  2  0
 20 21  2  0
 20 22  1  0
  7  8  2  0
  7 12  1  0
  8  9  1  0
  9 10  2  0
 10 11  1  0
 11 12  2  0
M  CHG  2  20   1  22  -1
M  END
>  <minimizedAffinity>  (403) 
-8.90684

$$$$
data/reference_output_2/data/smiles/122995.pdb
     RDKit          3D

 31 35  0  0  0  0  0  0  0  0999 V2000
   74.5677   34.1696   54.5384 C   0  0  0  0  0  0  0  0  0  0  0  0
   70.5148   36.3566   59.8255 C   0  0  0  0  0  0  0  0  0  0  0  0
   70.1965   37.6433   59.4721 C   0  0  0  0  0  0  0  0  0  0  0  0
   70.9032   38.3049   58.4575 C   0  0  0  0  0  0  0  0  0  0  0  0
   71.9217   37.6426   57.8190 C   0  0  0  0  0  0  0  0  0  0  0  0
   72.2892   36.3219   58.1423 C   0  0  0  0  0  0  0  0  0  0  0  0
   71.5714   35.7218   59.1367 C   0  0  0  0  0  0  0  0  0  0  0  0
   71.8285   34.3179   59.5927 C   0  0  0  0  0  0  0  0  0  0  0  0
   72.3393   33.5904   58.3501 C   0  0  0  0  0  0  0  0  0  0  0  0
   73.6206   34.2880   57.9571 C   0  0  1  0  0  0  0  0  0  0  0  0
   74.3015   33.6222   56.8067 C   0  0  0  0  0  0  0  0  0  0  0  0
   73.6125   34.1170   55.5992 N   0  0  1  0  0  0  0  0  0  0  0  0
   73.0757   35.3991   55.9651 C   0  0  0  0  0  0  0  0  0  0  0  0
   73.3989   35.6708   57.4188 C   0  0  1  0  0  0  0  0  0  0  0  0
   68.8546   36.2224   61.5975 C   0  0  0  0  0  0  0  0  0  0  0  0
   69.8561   35.6643   60.8120 O   0  0  0  0  0  0  0  0  0  0  0  0
   74.4812   35.2697   53.5564 C   0  0  0  0  0  0  0  0  0  0  0  0
   75.3776   35.2484   52.4379 N   0  0  0  0  0  0  0  0  0  0  0  0
   76.5796   35.8922   52.4801 C   0  0  0  0  0  0  0  0  0  0  0  0
   76.8508   36.5045   53.5591 O   0  0  0  0  0  0  0  0  0  0  0  0
   77.4302   35.8815   51.4400 N   0  0  0  0  0  0  0  0  0  0  0  0
   77.1693   35.2444   50.2887 C   0  0  0  0  0  0  0  0  0  0  0  0
   78.0478   35.2378   49.2220 C   0  0  0  0  0  0  0  0  0  0  0  0
   77.7710   34.5787   48.0388 C   0  0  0  0  0  0  0  0  0  0  0  0
   78.7578   34.6042   46.9206 C   0  0  0  0  0  0  0  0  0  0  0  0
   76.5670   33.9139   47.9502 C   0  0  0  0  0  0  0  0  0  0  0  0
   76.2657   33.2065   46.6787 C   0  0  0  0  0  0  0  0  0  0  0  0
   75.6886   33.9255   49.0254 C   0  0  0  0  0  0  0  0  0  0  0  0
   75.9556   34.5739   50.1980 C   0  0  0  0  0  0  0  0  0  0  0  0
   75.1056   34.6047   51.2830 C   0  0  0  0  0  0  0  0  0  0  0  0
   74.0083   33.9960   51.1936 O   0  0  0  0  0  0  0  0  0  0  0  0
 15 16  1  0
 16  2  1  0
  2  3  2  0
  2  7  1  0
  3  4  1  0
  4  5  2  0
  5  6  1  0
  6  7  2  0
  6 14  1  0
  7  8  1  0
  8  9  1  0
 10  9  1  6
 10 11  1  0
 10 14  1  0
 11 12  1  0
 12  1  1  6
 12 13  1  0
  1 17  1  0
 17 18  1  0
 18 19  1  0
 18 30  1  0
 19 20  2  0
 19 21  1  0
 21 22  1  0
 22 23  2  0
 22 29  1  0
 23 24  1  0
 24 25  1  0
 24 26  2  0
 26 27  1  0
 26 28  1  0
 28 29  2  0
 29 30  1  0
 30 31  2  0
 14 13  1  6
M  CHG  1  12   1
M  END
>  <minimizedAffinity>  (404) 
-8.74496

$$$$
data/reference_output_2/data/smiles/123038.pdb
     RDKit          3D

 26 28  0  0  0  0  0  0  0  0999 V2000
   69.5891   46.8943   56.5373 C   0  0  0  0  0  0  0  0  0  0  0  0
   69.8521   48.2013   57.0101 C   0  0  0  0  0  0  0  0  0  0  0  0
   70.6300   48.4267   58.1076 C   0  0  0  0  0  0  0  0  0  0  0  0
   71.2109   47.4113   58.8276 C   0  0  0  0  0  0  0  0  0  0  0  0
   70.9684   46.1335   58.3851 C   0  0  0  0  0  0  0  0  0  0  0  0
   70.1839   45.8825   57.2796 C   0  0  0  0  0  0  0  0  0  0  0  0
   72.0395   47.6470   60.0025 C   0  0  0  0  0  0  0  0  0  0  0  0
   71.7740   47.0645   61.0592 O   0  0  0  0  0  0  0  0  0  0  0  0
   73.1480   48.5636   59.8764 N   0  0  0  0  0  0  0  0  0  0  0  0
   74.0218   48.8620   60.9912 C   0  0  0  0  0  0  0  0  0  0  0  0
   74.8052   50.1173   60.5886 C   0  0  0  0  0  0  0  0  0  0  0  0
   75.6520   49.8267   59.3740 C   0  0  0  0  0  0  0  0  0  0  0  0
   74.9268   49.0380   58.3153 C   0  0  1  0  0  0  0  0  0  0  0  0
   73.4315   49.2239   58.6167 C   0  0  0  0  0  0  0  0  0  0  0  0
   75.1569   49.5906   56.9588 C   0  0  0  0  0  0  0  0  0  0  0  0
   76.2879   50.4260   56.7733 N   0  0  0  0  0  0  0  0  0  0  0  0
   74.4218   49.3721   55.9667 O   0  0  0  0  0  0  0  0  0  0  0  0
   68.8248   46.7023   55.4681 O   0  0  0  0  0  0  0  0  0  0  0  0
   68.1149   47.1600   54.4586 C   0  0  0  0  0  0  0  0  0  0  0  0
   70.3964   49.3724   53.5235 C   0  0  0  0  0  0  0  0  0  0  0  0
   69.7389   48.3089   52.7664 C   0  0  0  0  0  0  0  0  0  0  0  0
   70.0068   48.0656   51.4535 N   0  0  0  0  0  0  0  0  0  0  0  0
   69.2978   47.0557   51.0566 O   0  0  0  0  0  0  0  0  0  0  0  0
   68.5659   46.6056   52.0384 C   0  0  0  0  0  0  0  0  0  0  0  0
   67.6017   45.4511   52.0093 C   0  0  0  0  0  0  0  0  0  0  0  0
   68.8191   47.3894   53.1646 C   0  0  0  0  0  0  0  0  0  0  0  0
 20 21  1  0
 21 22  2  0
 21 26  1  0
 22 23  1  0
 23 24  1  0
 24 25  1  0
 24 26  2  0
 26 19  1  0
 19 18  1  0
 18  1  1  0
  1  2  2  0
  1  6  1  0
  2  3  1  0
  3  4  2  0
  4  7  1  0
  4  5  1  0
  7  8  2  0
  7  9  1  0
  9 10  1  0
  9 14  1  0
 10 11  1  0
 11 12  1  0
 12 13  1  0
 13 15  1  6
 13 14  1  0
 15 16  1  0
 15 17  2  0
  5  6  2  0
M  END
>  <minimizedAffinity>  (405) 
-8.52685

$$$$
data/reference_output_2/data/smiles/123140.pdb
     RDKit          3D

 30 33  0  0  0  0  0  0  0  0999 V2000
   72.9881   51.9812   58.0858 C   0  0  0  0  0  0  0  0  0  0  0  0
   74.1965   51.5991   57.9064 O   0  0  0  0  0  0  0  0  0  0  0  0
   72.1040   50.9919   58.5914 N   0  0  0  0  0  0  0  0  0  0  0  0
   70.7003   51.2511   58.8433 C   0  0  0  0  0  0  0  0  0  0  0  0
   69.9025   50.0062   58.4681 C   0  0  0  0  0  0  0  0  0  0  0  0
   70.5937   49.1318   57.4761 C   0  0  0  0  0  0  0  0  0  0  0  0
   70.7722   49.8565   56.3066 O   0  0  0  0  0  0  0  0  0  0  0  0
   71.9509   48.6484   57.9356 C   0  0  0  0  0  0  0  0  0  0  0  0
   72.5382   49.6405   58.8964 C   0  0  0  0  0  0  0  0  0  0  0  0
   73.5515   54.4082   58.3191 C   0  0  0  0  0  0  0  0  0  0  0  0
   72.6111   53.3637   57.7686 C   0  0  1  0  0  0  0  0  0  0  0  0
   72.5528   53.5431   56.2676 C   0  0  0  0  0  0  0  0  0  0  0  0
   71.3085   53.0830   55.6529 C   0  0  0  0  0  0  0  0  0  0  0  0
   71.3605   52.3552   54.4845 C   0  0  0  0  0  0  0  0  0  0  0  0
   70.2123   51.8950   53.8602 C   0  0  0  0  0  0  0  0  0  0  0  0
   68.9868   52.1641   54.4085 C   0  0  0  0  0  0  0  0  0  0  0  0
   68.9026   52.8875   55.5721 C   0  0  0  0  0  0  0  0  0  0  0  0
   70.0528   53.3326   56.1721 C   0  0  0  0  0  0  0  0  0  0  0  0
   69.7345   47.9291   57.1918 C   0  0  0  0  0  0  0  0  0  0  0  0
   69.4719   47.7814   55.7860 N   0  0  0  0  0  0  0  0  0  0  0  0
   69.8937   48.6364   54.8405 C   0  0  0  0  0  0  0  0  0  0  0  0
   69.6063   48.4394   53.5404 N   0  0  0  0  0  0  0  0  0  0  0  0
   68.8880   47.3813   53.1340 C   0  0  0  0  0  0  0  0  0  0  0  0
   68.5838   47.1593   51.8290 C   0  0  0  0  0  0  0  0  0  0  0  0
   67.8492   46.0743   51.4307 C   0  0  0  0  0  0  0  0  0  0  0  0
   67.3756   45.1394   52.3567 C   0  0  0  0  0  0  0  0  0  0  0  0
   67.6879   45.3746   53.6660 C   0  0  0  0  0  0  0  0  0  0  0  0
   68.4266   46.4648   54.0708 C   0  0  0  0  0  0  0  0  0  0  0  0
   68.7399   46.6986   55.3938 C   0  0  0  0  0  0  0  0  0  0  0  0
   68.3328   45.8859   56.2441 O   0  0  0  0  0  0  0  0  0  0  0  0
 11 10  1  6
 11 12  1  0
 11  1  1  0
 12 13  1  0
 13 14  2  0
 13 18  1  0
 14 15  1  0
 15 16  2  0
 16 17  1  0
 17 18  2  0
  1  2  2  0
  1  3  1  0
  3  4  1  0
  3  9  1  0
  4  5  1  0
  5  6  1  0
  6  7  1  0
  6 19  1  0
  6  8  1  0
 19 20  1  0
 20 21  1  0
 20 29  1  0
 21 22  2  0
 22 23  1  0
 23 24  2  0
 23 28  1  0
 24 25  1  0
 25 26  2  0
 26 27  1  0
 27 28  2  0
 28 29  1  0
 29 30  2  0
  8  9  1  0
M  END
>  <minimizedAffinity>  (406) 
-8.67096

$$$$
data/reference_output_2/data/smiles/123185.pdb
     RDKit          3D

 24 26  0  0  0  0  0  0  0  0999 V2000
   69.0049   47.9648   56.8730 S   0  0  0  0  0  0  0  0  0  0  0  0
   67.6014   47.4347   57.0313 O   0  0  0  0  0  0  0  0  0  0  0  0
   69.0221   49.2840   57.6055 O   0  0  0  0  0  0  0  0  0  0  0  0
   70.0915   46.8492   57.6187 C   0  0  0  0  0  0  0  0  0  0  0  0
   71.1680   47.1767   58.3957 C   0  0  0  0  0  0  0  0  0  0  0  0
   71.9881   46.1854   58.9478 C   0  0  0  0  0  0  0  0  0  0  0  0
   71.7206   44.8438   58.7161 C   0  0  0  0  0  0  0  0  0  0  0  0
   70.6413   44.5032   57.9383 C   0  0  0  0  0  0  0  0  0  0  0  0
   69.8580   45.4880   57.4114 C   0  0  0  0  0  0  0  0  0  0  0  0
   70.3319   43.0561   57.6739 C   0  0  0  0  0  0  0  0  0  0  0  0
   71.6980   42.3610   57.6381 C   0  0  0  0  0  0  0  0  0  0  0  0
   72.2241   42.4396   59.0700 C   0  0  0  0  0  0  0  0  0  0  0  0
   72.6380   43.8523   59.3389 C   0  0  0  0  0  0  0  0  0  0  0  0
   69.2944   48.2372   55.2138 N   0  0  0  0  0  0  0  0  0  0  0  0
   69.0962   47.7374   52.8446 C   0  0  0  0  0  0  0  0  0  0  0  0
   68.6551   46.9216   51.8482 C   0  0  0  0  0  0  0  0  0  0  0  0
   67.9565   45.7673   52.0811 C   0  0  0  0  0  0  0  0  0  0  0  0
   67.7066   45.4474   53.4158 C   0  0  0  0  0  0  0  0  0  0  0  0
   68.1429   46.2535   54.4256 C   0  0  0  0  0  0  0  0  0  0  0  0
   68.8379   47.4013   54.1533 C   0  0  0  0  0  0  0  0  0  0  0  0
   69.2122   50.5239   53.1905 N   0  0  0  0  0  0  0  0  0  0  0  0
   69.9812   49.1819   52.4435 S   0  0  0  0  0  0  0  0  0  0  0  0
   71.3993   49.0422   52.8896 O   0  0  0  0  0  0  0  0  0  0  0  0
   70.0047   49.4085   50.9581 O   0  0  0  0  0  0  0  0  0  0  0  0
 21 22  1  0
 22 23  2  0
 22 24  2  0
 22 15  1  0
 15 16  2  0
 15 20  1  0
 16 17  1  0
 17 18  2  0
 18 19  1  0
 19 20  2  0
 20 14  1  0
 14  1  1  0
  1  2  2  0
  1  3  2  0
  1  4  1  0
  4  5  2  0
  4  9  1  0
  5  6  1  0
  6  7  2  0
  7  8  1  0
  7 13  1  0
  8  9  2  0
  8 10  1  0
 10 11  1  0
 11 12  1  0
 12 13  1  0
M  END
>  <minimizedAffinity>  (407) 
-8.70739

$$$$
data/reference_output_2/data/smiles/123275.pdb
     RDKit          3D

 29 32  0  0  0  0  0  0  0  0999 V2000
   68.8306   46.7026   55.6382 C   0  0  1  0  0  0  0  0  0  0  0  0
   68.3690   47.8158   56.4766 C   0  0  0  0  0  0  0  0  0  0  0  0
   67.1955   47.5537   56.9684 O   0  0  0  0  0  0  0  0  0  0  0  0
   68.9759   49.0267   56.7913 N   0  0  0  0  0  0  0  0  0  0  0  0
   70.2442   49.5454   56.3638 C   0  0  0  0  0  0  0  0  0  0  0  0
   69.9179   50.7252   55.4692 C   0  0  0  0  0  0  0  0  0  0  0  0
   69.3387   51.7913   56.3286 C   0  0  0  0  0  0  0  0  0  0  0  0
   68.2549   52.4075   55.6723 O   0  0  0  0  0  0  0  0  0  0  0  0
   68.8277   51.3144   57.6594 C   0  0  0  0  0  0  0  0  0  0  0  0
   68.2586   49.9432   57.6847 C   0  0  0  0  0  0  0  0  0  0  0  0
   67.5811   44.2262   54.9295 O   0  0  0  0  0  0  0  0  0  0  0  0
   68.3909   44.2300   55.8772 C   0  0  0  0  0  0  0  0  0  0  0  0
   69.0128   45.4397   56.2375 N   0  0  0  0  0  0  0  0  0  0  0  0
   68.6632   42.9860   56.5761 C   0  0  0  0  0  0  0  0  0  0  0  0
   69.7800   42.6574   57.3388 C   0  0  0  0  0  0  0  0  0  0  0  0
   69.6707   41.3781   57.8415 C   0  0  0  0  0  0  0  0  0  0  0  0
   70.4619   40.5624   58.6380 C   0  0  0  0  0  0  0  0  0  0  0  0
   70.0863   39.2834   58.9922 C   0  0  0  0  0  0  0  0  0  0  0  0
   71.0805   38.2493   59.9975 Cl  0  0  0  0  0  0  0  0  0  0  0  0
   68.8689   38.8334   58.5158 C   0  0  0  0  0  0  0  0  0  0  0  0
   68.0750   39.6428   57.7193 C   0  0  0  0  0  0  0  0  0  0  0  0
   68.4584   40.9179   57.3716 C   0  0  0  0  0  0  0  0  0  0  0  0
   67.8819   41.8777   56.6298 N   0  0  0  0  0  0  0  0  0  0  0  0
   68.0689   46.6852   54.3363 C   0  0  0  0  0  0  0  0  0  0  0  0
   68.8604   47.1472   53.1866 C   0  0  0  0  0  0  0  0  0  0  0  0
   68.8604   46.5621   51.9529 C   0  0  0  0  0  0  0  0  0  0  0  0
   69.6990   47.2615   51.1764 N   0  0  0  0  0  0  0  0  0  0  0  0
   70.2305   48.2730   51.8807 C   0  0  0  0  0  0  0  0  0  0  0  0
   69.7042   48.1873   53.1138 N   0  0  0  0  0  0  0  0  0  0  0  0
 11 12  2  0
 12 13  1  0
 12 14  1  0
 13  1  1  0
  1 24  1  6
  1  2  1  0
 24 25  1  0
 25 26  2  0
 25 29  1  0
 26 27  1  0
 27 28  1  0
 28 29  2  0
  2  3  2  0
  2  4  1  0
  4  5  1  0
  4 10  1  0
  5  6  1  0
  6  7  1  0
  7  8  1  0
  7  9  1  0
  9 10  1  0
 14 15  2  0
 14 23  1  0
 15 16  1  0
 16 17  2  0
 16 22  1  0
 17 18  1  0
 18 19  1  0
 18 20  2  0
 20 21  1  0
 21 22  2  0
 22 23  1  0
M  CHG  1  29   1
M  END
>  <minimizedAffinity>  (408) 
-9.00649

$$$$
data/reference_output_2/data/smiles/123450.pdb
     RDKit          3D

 32 36  0  0  0  0  0  0  0  0999 V2000
   68.7646   39.0768   57.7010 O   0  0  0  0  0  0  0  0  0  0  0  0
   68.0353   39.8823   58.3463 C   0  0  0  0  0  0  0  0  0  0  0  0
   67.1027   39.4047   59.1931 N   0  0  0  0  0  0  0  0  0  0  0  0
   66.3252   40.2593   59.8809 C   0  0  0  0  0  0  0  0  0  0  0  0
   65.4073   39.7806   60.7142 C   0  0  0  0  0  0  0  0  0  0  0  0
   66.5207   41.6051   59.6856 C   0  0  0  0  0  0  0  0  0  0  0  0
   65.7994   42.4171   60.3226 O   0  0  0  0  0  0  0  0  0  0  0  0
   67.4421   42.1143   58.8478 N   0  0  0  0  0  0  0  0  0  0  0  0
   68.2223   41.2559   58.1574 C   0  0  0  0  0  0  0  0  0  0  0  0
   69.1470   41.6735   57.3189 C   0  0  0  0  0  0  0  0  0  0  0  0
   69.3189   43.1040   57.1424 C   0  0  0  0  0  0  0  0  0  0  0  0
   70.2709   43.8212   57.8736 C   0  0  0  0  0  0  0  0  0  0  0  0
   70.4298   45.1800   57.7008 C   0  0  0  0  0  0  0  0  0  0  0  0
   69.6370   45.8475   56.7930 C   0  0  0  0  0  0  0  0  0  0  0  0
   68.6867   45.1802   56.0509 C   0  0  0  0  0  0  0  0  0  0  0  0
   68.5578   43.8261   56.2502 C   0  0  0  0  0  0  0  0  0  0  0  0
   67.8801   45.8705   55.1242 O   0  0  0  0  0  0  0  0  0  0  0  0
   68.4922   46.6348   54.1416 C   0  0  0  0  0  0  0  0  0  0  0  0
   68.5924   46.1877   52.8340 C   0  0  0  0  0  0  0  0  0  0  0  0
   69.2008   46.9487   51.8586 C   0  0  0  0  0  0  0  0  0  0  0  0
   69.7343   48.1905   52.1538 C   0  0  0  0  0  0  0  0  0  0  0  0
   70.3352   48.9399   51.1849 F   0  0  0  0  0  0  0  0  0  0  0  0
   69.6455   48.6605   53.4589 C   0  0  0  0  0  0  0  0  0  0  0  0
   69.0340   47.8807   54.4070 C   0  0  0  0  0  0  0  0  0  0  0  0
   65.1923   38.3581   60.9293 C   0  0  0  0  0  0  0  0  0  0  0  0
   64.6151   37.4691   60.1082 N   0  0  0  0  0  0  0  0  0  0  0  0
   64.6410   36.2652   60.7398 C   0  0  0  0  0  0  0  0  0  0  0  0
   65.2331   36.4325   61.9383 N   0  0  0  0  0  0  0  0  0  0  0  0
   65.5916   37.7162   62.0997 C   0  0  0  0  0  0  0  0  0  0  0  0
   66.2588   38.2716   63.2751 C   0  0  0  0  0  0  0  0  0  0  0  0
   66.4628   37.4836   64.5139 C   0  0  0  0  0  0  0  0  0  0  0  0
   67.6218   37.6743   63.5874 C   0  0  0  0  0  0  0  0  0  0  0  0
  1  2  2  0
  2  3  1  0
  2  9  1  0
  3  4  1  0
  4  5  2  0
  4  6  1  0
  5 25  1  0
 25 26  1  0
 25 29  2  0
 26 27  2  0
 27 28  1  0
 28 29  1  0
 29 30  1  0
 30 31  1  0
 30 32  1  0
 31 32  1  0
  6  7  2  0
  6  8  1  0
  8  9  1  0
  9 10  2  0
 10 11  1  0
 11 12  2  0
 11 16  1  0
 12 13  1  0
 13 14  2  0
 14 15  1  0
 15 17  1  0
 15 16  2  0
 17 18  1  0
 18 19  2  0
 18 24  1  0
 19 20  1  0
 20 21  2  0
 21 22  1  0
 21 23  1  0
 23 24  2  0
M  CHG  1  26   1
M  END
>  <minimizedAffinity>  (409) 
-9.51467

$$$$
data/reference_output_2/data/smiles/123515.pdb
     RDKit          3D

 28 31  0  0  0  0  0  0  0  0999 V2000
   69.4533   41.5521   57.8689 C   0  0  0  0  0  0  0  0  0  0  0  0
   67.8546   41.7339   56.9023 S   0  0  0  0  0  0  0  0  0  0  0  0
   68.3713   43.3316   56.1546 C   0  0  0  0  0  0  0  0  0  0  0  0
   69.4893   43.4626   56.6658 N   0  0  0  0  0  0  0  0  0  0  0  0
   70.0383   42.7262   57.4252 N   0  0  0  0  0  0  0  0  0  0  0  0
   71.3365   43.0190   58.0660 C   0  0  0  0  0  0  0  0  0  0  0  0
   72.4331   42.6094   57.3509 C   0  0  0  0  0  0  0  0  0  0  0  0
   73.7411   42.7180   57.8757 C   0  0  0  0  0  0  0  0  0  0  0  0
   73.8039   43.2767   59.1613 C   0  0  0  0  0  0  0  0  0  0  0  0
   72.7526   43.6721   59.8435 C   0  0  0  0  0  0  0  0  0  0  0  0
   71.4689   43.5479   59.3047 C   0  0  0  0  0  0  0  0  0  0  0  0
   70.6975   39.5629   58.2451 C   0  0  0  0  0  0  0  0  0  0  0  0
   69.6339   40.3106   58.5277 C   0  0  0  0  0  0  0  0  0  0  0  0
   71.6378   35.5473   59.0838 C   0  0  0  0  0  0  0  0  0  0  0  0
   72.3398   36.2877   58.1375 C   0  0  0  0  0  0  0  0  0  0  0  0
   72.0898   37.6204   57.9530 C   0  0  0  0  0  0  0  0  0  0  0  0
   71.1130   38.2778   58.7263 C   0  0  0  0  0  0  0  0  0  0  0  0
   70.4451   37.5331   59.6679 C   0  0  0  0  0  0  0  0  0  0  0  0
   70.7103   36.1509   59.8474 C   0  0  0  0  0  0  0  0  0  0  0  0
   71.9805   32.9382   58.9554 N   0  0  0  0  0  0  0  0  0  0  0  0
   71.8297   34.1011   59.0211 C   0  0  0  0  0  0  0  0  0  0  0  0
   67.5081   44.0339   55.2085 N   0  0  0  0  0  0  0  0  0  0  0  0
   67.9728   45.2230   54.5933 C   0  0  0  0  0  0  0  0  0  0  0  0
   68.5315   46.2539   55.2734 C   0  0  0  0  0  0  0  0  0  0  0  0
   68.9851   47.4342   54.6581 C   0  0  0  0  0  0  0  0  0  0  0  0
   68.8509   47.5338   53.3090 C   0  0  0  0  0  0  0  0  0  0  0  0
   68.2759   46.4903   52.5711 C   0  0  0  0  0  0  0  0  0  0  0  0
   67.8555   45.3657   53.2025 C   0  0  0  0  0  0  0  0  0  0  0  0
 20 21  3  0
 21 14  1  0
 14 15  2  0
 14 19  1  0
 15 16  1  0
 16 17  2  0
 17 12  1  0
 17 18  1  0
 12 13  2  0
 13  1  1  0
  1  2  1  0
  1  5  2  0
  2  3  1  0
  3 22  1  0
  3  4  2  0
 22 23  1  0
 23 24  2  0
 23 28  1  0
 24 25  1  0
 25 26  2  0
 26 27  1  0
 27 28  2  0
  4  5  1  0
  5  6  1  0
  6  7  2  0
  6 11  1  0
  7  8  1  0
  8  9  2  0
  9 10  1  0
 10 11  2  0
 18 19  2  0
M  CHG  1   5   1
M  END
>  <minimizedAffinity>  (410) 
-8.81605

$$$$
data/reference_output_2/data/smiles/123665.pdb
     RDKit          3D

 29 32  0  0  0  0  0  0  0  0999 V2000
   74.7114   35.0072   54.5295 N   0  0  0  0  0  0  0  0  0  0  0  0
   73.4193   35.4659   54.9089 C   0  0  0  0  0  0  0  0  0  0  0  0
   72.7063   35.9771   54.0367 O   0  0  0  0  0  0  0  0  0  0  0  0
   74.2398   32.9489   50.1911 C   0  0  0  0  0  0  0  0  0  0  0  0
   75.0586   33.8660   50.9277 N   0  0  0  0  0  0  0  0  0  0  0  0
   74.7599   34.0166   52.3119 C   0  0  0  0  0  0  0  0  0  0  0  0
   74.0203   33.1173   52.7717 O   0  0  0  0  0  0  0  0  0  0  0  0
   75.2391   35.1028   53.1902 C   0  0  2  0  0  0  0  0  0  0  0  0
   76.7426   35.2116   53.1634 C   0  0  0  0  0  0  0  0  0  0  0  0
   77.1724   35.8401   51.9631 O   0  0  0  0  0  0  0  0  0  0  0  0
   77.0173   35.3993   50.6559 C   0  0  0  0  0  0  0  0  0  0  0  0
   77.9446   35.9428   49.7775 C   0  0  0  0  0  0  0  0  0  0  0  0
   77.9671   35.6374   48.4319 C   0  0  0  0  0  0  0  0  0  0  0  0
   77.0151   34.7501   47.9723 C   0  0  0  0  0  0  0  0  0  0  0  0
   76.0713   34.1820   48.8078 C   0  0  0  0  0  0  0  0  0  0  0  0
   76.0727   34.5042   50.1393 C   0  0  0  0  0  0  0  0  0  0  0  0
   72.9320   35.3429   56.2910 C   0  0  0  0  0  0  0  0  0  0  0  0
   72.6062   36.4749   57.0044 C   0  0  0  0  0  0  0  0  0  0  0  0
   72.1420   36.4533   58.3048 C   0  0  0  0  0  0  0  0  0  0  0  0
   72.0030   35.2167   58.9119 C   0  0  0  0  0  0  0  0  0  0  0  0
   72.3308   34.0845   58.1953 C   0  0  0  0  0  0  0  0  0  0  0  0
   72.7846   34.1627   56.9120 N   0  0  0  0  0  0  0  0  0  0  0  0
   71.7936   37.6460   59.0746 C   0  0  0  0  0  0  0  0  0  0  0  0
   70.3498   37.9368   59.1301 C   0  0  0  0  0  0  0  0  0  0  0  0
   69.5251   37.3897   60.0739 C   0  0  0  0  0  0  0  0  0  0  0  0
   68.1865   37.6953   60.0789 C   0  0  0  0  0  0  0  0  0  0  0  0
   67.6442   38.5454   59.1536 C   0  0  0  0  0  0  0  0  0  0  0  0
   68.4798   39.0934   58.2081 C   0  0  0  0  0  0  0  0  0  0  0  0
   69.8142   38.7913   58.1983 C   0  0  0  0  0  0  0  0  0  0  0  0
  4  5  1  0
  5  6  1  0
  5 16  1  0
  6  7  2  0
  6  8  1  0
  8  1  1  1
  8  9  1  0
  1  2  1  0
  2  3  2  0
  2 17  1  0
 17 18  2  0
 17 22  1  0
 18 19  1  0
 19 23  1  0
 19 20  2  0
 23 24  1  0
 24 25  2  0
 24 29  1  0
 25 26  1  0
 26 27  2  0
 27 28  1  0
 28 29  2  0
 20 21  1  0
 21 22  2  0
  9 10  1  0
 10 11  1  0
 11 12  2  0
 11 16  1  0
 12 13  1  0
 13 14  2  0
 14 15  1  0
 15 16  2  0
M  END
>  <minimizedAffinity>  (411) 
-8.82604

$$$$
data/reference_output_2/data/smiles/123715.pdb
     RDKit          3D

 24 26  0  0  0  0  0  0  0  0999 V2000
   70.5575   47.3733   58.1664 C   0  0  0  0  0  0  0  0  0  0  0  0
   69.8011   48.3122   57.2879 C   0  0  2  0  0  0  0  0  0  0  0  0
   70.7709   49.3056   56.6668 C   0  0  0  0  0  0  0  0  0  0  0  0
   70.0655   50.4486   56.0381 C   0  0  0  0  0  0  0  0  0  0  0  0
   70.6861   51.1632   55.0428 C   0  0  0  0  0  0  0  0  0  0  0  0
   70.0483   52.2357   54.4408 C   0  0  0  0  0  0  0  0  0  0  0  0
   68.7950   52.6156   54.8099 C   0  0  0  0  0  0  0  0  0  0  0  0
   68.1755   51.8884   55.8143 C   0  0  0  0  0  0  0  0  0  0  0  0
   68.7946   50.8198   56.4246 C   0  0  0  0  0  0  0  0  0  0  0  0
   68.1150   50.0772   57.4787 C   0  0  0  0  0  0  0  0  0  0  0  0
   66.9568   50.3944   57.8500 O   0  0  0  0  0  0  0  0  0  0  0  0
   68.8269   49.0097   58.0353 O   0  0  0  0  0  0  0  0  0  0  0  0
   69.0578   47.5790   56.1887 C   0  0  0  0  0  0  0  0  0  0  0  0
   68.0963   46.8406   56.4643 O   0  0  0  0  0  0  0  0  0  0  0  0
   69.4544   47.7301   54.8332 N   0  0  0  0  0  0  0  0  0  0  0  0
   68.8615   47.1188   53.7059 C   0  0  0  0  0  0  0  0  0  0  0  0
   67.9698   46.0718   53.7953 C   0  0  0  0  0  0  0  0  0  0  0  0
   67.3815   45.4494   52.6919 C   0  0  0  0  0  0  0  0  0  0  0  0
   67.6907   45.8856   51.4327 C   0  0  0  0  0  0  0  0  0  0  0  0
   68.5693   46.9179   51.3115 C   0  0  0  0  0  0  0  0  0  0  0  0
   69.1647   47.5466   52.4322 C   0  0  0  0  0  0  0  0  0  0  0  0
   70.0956   48.6275   52.1591 C   0  0  0  0  0  0  0  0  0  0  0  0
   71.1868   48.8360   52.7025 O   0  0  0  0  0  0  0  0  0  0  0  0
   69.7595   49.5792   51.1635 O   0  0  0  0  0  0  0  0  0  0  0  0
  2  1  1  1
  2 13  1  0
  2  3  1  0
  2 12  1  0
 13 14  2  0
 13 15  1  0
 15 16  1  0
 16 17  2  0
 16 21  1  0
 17 18  1  0
 18 19  2  0
 19 20  1  0
 20 21  2  0
 21 22  1  0
 22 23  2  0
 22 24  1  0
  3  4  1  0
  4  5  2  0
  4  9  1  0
  5  6  1  0
  6  7  2  0
  7  8  1  0
  8  9  2  0
  9 10  1  0
 10 11  2  0
 10 12  1  0
M  END
>  <minimizedAffinity>  (412) 
-8.60069

$$$$
data/reference_output_2/data/smiles/123782.pdb
     RDKit          3D

 25 28  0  0  0  0  0  0  0  0999 V2000
   69.2606   39.7912   58.0295 C   0  0  0  0  0  0  0  0  0  0  0  0
   68.1702   39.8994   57.1990 C   0  0  0  0  0  0  0  0  0  0  0  0
   68.0496   41.1654   56.7849 N   0  0  0  0  0  0  0  0  0  0  0  0
   67.0365   41.6999   55.9065 C   0  0  0  0  0  0  0  0  0  0  0  0
   69.0386   41.9387   57.3133 C   0  0  0  0  0  0  0  0  0  0  0  0
   69.7949   41.0861   58.0879 C   0  0  0  0  0  0  0  0  0  0  0  0
   70.9671   41.5717   58.8211 C   0  0  0  0  0  0  0  0  0  0  0  0
   71.2942   43.0028   58.7098 C   0  0  0  0  0  0  0  0  0  0  0  0
   70.4296   43.8257   57.8741 C   0  0  0  0  0  0  0  0  0  0  0  0
   70.7352   45.1908   57.7776 C   0  0  0  0  0  0  0  0  0  0  0  0
   69.9551   45.9524   57.0217 N   0  0  0  0  0  0  0  0  0  0  0  0
   68.8718   45.5159   56.3261 C   0  0  0  0  0  0  0  0  0  0  0  0
   68.6071   44.2120   56.4378 N   0  0  0  0  0  0  0  0  0  0  0  0
   69.3355   43.3612   57.1772 C   0  0  0  0  0  0  0  0  0  0  0  0
   71.4726   36.7855   59.0510 C   0  0  0  0  0  0  0  0  0  0  0  0
   70.9697   37.9538   58.3455 N   0  0  0  0  0  0  0  0  0  0  0  0
   69.7787   38.6225   58.7252 C   0  0  0  0  0  0  0  0  0  0  0  0
   69.1353   38.1809   59.7196 O   0  0  0  0  0  0  0  0  0  0  0  0
   68.1187   46.4594   55.5902 N   0  0  0  0  0  0  0  0  0  0  0  0
   68.2743   46.6072   54.1979 C   0  0  0  0  0  0  0  0  0  0  0  0
   69.1183   47.6216   53.7805 C   0  0  0  0  0  0  0  0  0  0  0  0
   69.3324   47.8130   52.4535 C   0  0  0  0  0  0  0  0  0  0  0  0
   68.7217   47.0124   51.4937 C   0  0  0  0  0  0  0  0  0  0  0  0
   67.8904   46.0132   51.9224 C   0  0  0  0  0  0  0  0  0  0  0  0
   67.6604   45.8020   53.2733 C   0  0  0  0  0  0  0  0  0  0  0  0
 15 16  1  0
 16 17  1  0
 17 18  2  0
 17  1  1  0
  1  2  2  0
  1  6  1  0
  2  3  1  0
  3  4  1  0
  3  5  1  0
  5  6  2  0
  5 14  1  0
  6  7  1  0
  7  8  1  0
  8  9  1  0
  9 10  1  0
  9 14  2  0
 10 11  2  0
 11 12  1  0
 12 19  1  0
 12 13  2  0
 19 20  1  0
 20 21  2  0
 20 25  1  0
 21 22  1  0
 22 23  2  0
 23 24  1  0
 24 25  2  0
 13 14  1  0
M  END
>  <minimizedAffinity>  (413) 
-8.58222

$$$$
data/reference_output_2/data/smiles/123904.pdb
     RDKit          3D

 20 21  0  0  0  0  0  0  0  0999 V2000
   69.0099   46.3982   56.9735 N   0  0  0  0  0  0  0  0  0  0  0  0
   68.6137   47.2915   56.1467 C   0  0  0  0  0  0  0  0  0  0  0  0
   68.6481   47.0143   54.7377 C   0  0  0  0  0  0  0  0  0  0  0  0
   69.3635   47.7870   53.8551 C   0  0  0  0  0  0  0  0  0  0  0  0
   69.3022   47.6434   52.4808 C   0  0  0  0  0  0  0  0  0  0  0  0
   68.4923   46.6813   51.9262 C   0  0  0  0  0  0  0  0  0  0  0  0
   67.7666   45.8920   52.7603 C   0  0  0  0  0  0  0  0  0  0  0  0
   66.9518   44.9209   52.1926 O   0  0  0  0  0  0  0  0  0  0  0  0
   67.8417   46.0546   54.1507 C   0  0  0  0  0  0  0  0  0  0  0  0
   68.1128   48.5699   56.7324 C   0  0  0  0  0  0  0  0  0  0  0  0
   67.0942   48.6857   57.6126 C   0  0  0  0  0  0  0  0  0  0  0  0
   66.6449   49.9629   58.0137 C   0  0  0  0  0  0  0  0  0  0  0  0
   67.2082   51.1230   57.5468 C   0  0  0  0  0  0  0  0  0  0  0  0
   68.2470   51.0081   56.6540 C   0  0  0  0  0  0  0  0  0  0  0  0
   69.0447   52.6073   55.9945 Br  0  0  0  0  0  0  0  0  0  0  0  0
   68.6740   49.7588   56.2688 C   0  0  0  0  0  0  0  0  0  0  0  0
   69.4926   45.1651   56.7963 N   0  0  0  0  0  0  0  0  0  0  0  0
   69.9786   44.8298   59.2172 N   0  0  0  0  0  0  0  0  0  0  0  0
   69.9843   44.3538   57.8810 C   0  0  0  0  0  0  0  0  0  0  0  0
   70.5730   42.8533   57.6322 S   0  0  0  0  0  0  0  0  0  0  0  0
 18 19  1  0
 19 20  2  0
 19 17  1  0
 17  1  1  0
  1  2  2  0
  2  3  1  0
  2 10  1  0
  3  4  2  0
  3  9  1  0
  4  5  1  0
  5  6  2  0
  6  7  1  0
  7  8  1  0
  7  9  2  0
 10 11  2  0
 10 16  1  0
 11 12  1  0
 12 13  2  0
 13 14  1  0
 14 15  1  0
 14 16  2  0
M  END
>  <minimizedAffinity>  (414) 
-8.91747

$$$$
data/reference_output_2/data/smiles/124015.pdb
     RDKit          3D

 25 26  0  0  0  0  0  0  0  0999 V2000
   70.2379   49.3584   52.5716 S   0  0  0  0  0  0  0  0  0  0  0  0
   71.7220   48.9872   52.6487 O   0  0  0  0  0  0  0  0  0  0  0  0
   69.9581   49.3797   51.0616 O   0  0  0  0  0  0  0  0  0  0  0  0
   69.3341   48.0862   53.3272 C   0  0  0  0  0  0  0  0  0  0  0  0
   68.7252   47.1102   52.5658 C   0  0  0  0  0  0  0  0  0  0  0  0
   68.8076   47.1052   51.2150 F   0  0  0  0  0  0  0  0  0  0  0  0
   67.9969   46.0813   53.1445 C   0  0  0  0  0  0  0  0  0  0  0  0
   67.4036   45.1281   52.3875 F   0  0  0  0  0  0  0  0  0  0  0  0
   67.8498   45.9913   54.5098 C   0  0  0  0  0  0  0  0  0  0  0  0
   68.4529   46.9612   55.2819 C   0  0  0  0  0  0  0  0  0  0  0  0
   68.3065   46.8710   56.6335 F   0  0  0  0  0  0  0  0  0  0  0  0
   69.1731   47.9760   54.6913 C   0  0  0  0  0  0  0  0  0  0  0  0
   69.7400   48.8947   55.5051 F   0  0  0  0  0  0  0  0  0  0  0  0
   70.0519   50.9033   53.2042 N   0  0  0  0  0  0  0  0  0  0  0  0
   72.2392   52.8759   56.2702 C   0  0  0  0  0  0  0  0  0  0  0  0
   72.8642   52.2911   55.1925 C   0  0  0  0  0  0  0  0  0  0  0  0
   72.1701   51.6426   54.1942 C   0  0  0  0  0  0  0  0  0  0  0  0
   70.8005   51.5524   54.2341 C   0  0  0  0  0  0  0  0  0  0  0  0
   70.1468   52.1307   55.3050 C   0  0  0  0  0  0  0  0  0  0  0  0
   68.3904   52.0547   55.4227 Cl  0  0  0  0  0  0  0  0  0  0  0  0
   70.8602   52.7652   56.2768 C   0  0  0  0  0  0  0  0  0  0  0  0
   74.3377   54.7290   56.8353 N   0  0  0  0  0  0  0  0  0  0  0  0
   73.1258   53.6976   57.5359 S   0  0  0  0  0  0  0  0  0  0  0  0
   73.8440   52.6733   58.3635 O   0  0  0  0  0  0  0  0  0  0  0  0
   72.2168   54.4569   58.4484 O   0  0  0  0  0  0  0  0  0  0  0  0
 22 23  1  0
 23 24  2  0
 23 25  2  0
 23 15  1  0
 15 16  2  0
 15 21  1  0
 16 17  1  0
 17 18  2  0
 18 14  1  0
 18 19  1  0
 14  1  1  0
  1  2  2  0
  1  3  2  0
  1  4  1  0
  4  5  2  0
  4 12  1  0
  5  6  1  0
  5  7  1  0
  7  8  1  0
  7  9  2  0
  9 10  1  0
 10 11  1  0
 10 12  2  0
 12 13  1  0
 19 20  1  0
 19 21  2  0
M  END
>  <minimizedAffinity>  (415) 
-8.60651

$$$$
data/reference_output_2/data/smiles/124032.pdb
     RDKit          3D

 25 27  0  0  0  0  0  0  0  0999 V2000
   69.9747   46.8794   57.4535 C   0  0  0  0  0  0  0  0  0  0  0  0
   69.7782   40.7241   58.0890 C   0  0  0  0  0  0  0  0  0  0  0  0
   71.0997   40.6192   58.4443 C   0  0  0  0  0  0  0  0  0  0  0  0
   71.8558   41.8031   58.5086 C   0  0  0  0  0  0  0  0  0  0  0  0
   71.2177   42.9896   58.2101 C   0  0  0  0  0  0  0  0  0  0  0  0
   71.8074   44.7308   58.1700 S   0  0  0  0  0  0  0  0  0  0  0  0
   70.1155   45.3809   57.6568 C   0  0  0  0  0  0  0  0  0  0  0  0
   69.5277   44.3797   57.6166 N   0  0  0  0  0  0  0  0  0  0  0  0
   69.9057   43.1432   57.8525 C   0  0  0  0  0  0  0  0  0  0  0  0
   69.2034   41.9286   57.8049 C   0  0  0  0  0  0  0  0  0  0  0  0
   67.8259   39.4020   57.1578 N   0  0  0  0  0  0  0  0  0  0  0  0
   68.9398   39.4890   58.0084 C   0  0  0  0  0  0  0  0  0  0  0  0
   69.2540   38.5315   58.7192 O   0  0  0  0  0  0  0  0  0  0  0  0
   69.1628   47.2891   56.4726 O   0  0  0  0  0  0  0  0  0  0  0  0
   68.8853   47.0675   55.1700 C   0  0  0  0  0  0  0  0  0  0  0  0
   68.0608   46.0895   54.6639 C   0  0  0  0  0  0  0  0  0  0  0  0
   67.8190   45.9150   53.3059 C   0  0  0  0  0  0  0  0  0  0  0  0
   68.4280   46.7557   52.4069 C   0  0  0  0  0  0  0  0  0  0  0  0
   68.2041   46.6018   51.0763 F   0  0  0  0  0  0  0  0  0  0  0  0
   69.2634   47.7539   52.8505 C   0  0  0  0  0  0  0  0  0  0  0  0
   69.4727   47.8891   54.1797 C   0  0  0  0  0  0  0  0  0  0  0  0
   70.2950   48.8724   54.6135 F   0  0  0  0  0  0  0  0  0  0  0  0
   69.9096   48.6504   51.8603 C   0  0  0  0  0  0  0  0  0  0  0  0
   69.7403   50.0390   52.0201 N   0  0  0  0  0  0  0  0  0  0  0  0
   70.5807   48.2071   50.9178 O   0  0  0  0  0  0  0  0  0  0  0  0
 11 12  1  0
 12 13  2  0
 12  2  1  0
  2  3  2  0
  2 10  1  0
  3  4  1  0
  4  5  2  0
  5  6  1  0
  5  9  1  0
  6  7  1  0
  7  1  1  0
  7  8  2  0
  1 14  1  0
 14 15  1  0
 15 16  2  0
 15 21  1  0
 16 17  1  0
 17 18  2  0
 18 19  1  0
 18 20  1  0
 20 23  1  0
 20 21  2  0
 23 24  1  0
 23 25  2  0
 21 22  1  0
  8  9  1  0
  9 10  2  0
M  END
>  <minimizedAffinity>  (416) 
-8.67928

$$$$
data/reference_output_2/data/smiles/124101.pdb
     RDKit          3D

 28 31  0  0  0  0  0  0  0  0999 V2000
   68.6790   43.3868   56.7109 N   0  0  0  0  0  0  0  0  0  0  0  0
   68.0383   44.0691   55.6709 C   0  0  0  0  0  0  0  0  0  0  0  0
   67.0526   43.4705   55.1206 O   0  0  0  0  0  0  0  0  0  0  0  0
   68.3453   45.3811   55.1267 C   0  0  0  0  0  0  0  0  0  0  0  0
   68.8254   46.3940   55.9767 C   0  0  0  0  0  0  0  0  0  0  0  0
   69.1453   47.6420   55.5043 C   0  0  0  0  0  0  0  0  0  0  0  0
   69.0233   47.9960   54.1807 C   0  0  0  0  0  0  0  0  0  0  0  0
   68.5559   47.0169   53.3409 C   0  0  0  0  0  0  0  0  0  0  0  0
   68.2226   45.7323   53.8070 C   0  0  0  0  0  0  0  0  0  0  0  0
   67.7555   44.8293   52.9102 F   0  0  0  0  0  0  0  0  0  0  0  0
   69.3633   49.3003   53.7136 N   0  0  0  0  0  0  0  0  0  0  0  0
   69.7382   49.6568   52.4717 C   0  0  0  0  0  0  0  0  0  0  0  0
   69.9779   50.9846   52.4160 N   0  0  0  0  0  0  0  0  0  0  0  0
   69.7558   51.4725   53.6245 N   0  0  0  0  0  0  0  0  0  0  0  0
   69.3778   50.4410   54.4264 C   0  0  0  0  0  0  0  0  0  0  0  0
   68.3660   42.1128   57.2667 C   0  0  0  0  0  0  0  0  0  0  0  0
   69.0759   41.7457   58.4932 C   0  0  0  0  0  0  0  0  0  0  0  0
   72.8025   35.2860   58.2121 C   0  0  0  0  0  0  0  0  0  0  0  0
   71.8321   36.3464   58.5934 C   0  0  0  0  0  0  0  0  0  0  0  0
   71.7863   37.5731   57.9796 C   0  0  0  0  0  0  0  0  0  0  0  0
   70.8682   38.5624   58.3483 C   0  0  0  0  0  0  0  0  0  0  0  0
   70.6186   39.8049   57.9248 N   0  0  0  0  0  0  0  0  0  0  0  0
   69.6061   40.3791   58.6070 C   0  0  0  0  0  0  0  0  0  0  0  0
   69.2125   39.4195   59.5077 N   0  0  0  0  0  0  0  0  0  0  0  0
   69.9641   38.3266   59.3581 C   0  0  0  0  0  0  0  0  0  0  0  0
   70.0154   37.0820   59.9758 C   0  0  0  0  0  0  0  0  0  0  0  0
   70.9187   36.1088   59.6139 C   0  0  0  0  0  0  0  0  0  0  0  0
   70.9694   34.7743   60.2806 C   0  0  0  0  0  0  0  0  0  0  0  0
 18 19  1  0
 19 20  2  0
 19 27  1  0
 20 21  1  0
 21 22  1  0
 21 25  2  0
 22 23  2  0
 23 17  1  0
 23 24  1  0
 17 16  1  0
 16  1  1  0
  1  2  1  0
  2  3  2  0
  2  4  1  0
  4  5  2  0
  4  9  1  0
  5  6  1  0
  6  7  2  0
  7 11  1  0
  7  8  1  0
 11 12  1  0
 11 15  1  0
 12 13  2  0
 13 14  1  0
 14 15  2  0
  8  9  2  0
  9 10  1  0
 24 25  1  0
 25 26  1  0
 26 27  2  0
 27 28  1  0
M  CHG  1  22   1
M  END
>  <minimizedAffinity>  (417) 
-8.53723

$$$$
data/reference_output_2/data/smiles/124180.pdb
     RDKit          3D

 29 31  0  0  0  0  0  0  0  0999 V2000
   72.1617   36.4385   57.8044 C   0  0  0  0  0  0  0  0  0  0  0  0
   71.5955   35.6213   58.7856 C   0  0  0  0  0  0  0  0  0  0  0  0
   70.7651   36.1854   59.7343 C   0  0  0  0  0  0  0  0  0  0  0  0
   70.4590   37.5193   59.7727 C   0  0  0  0  0  0  0  0  0  0  0  0
   71.0237   38.3412   58.7926 C   0  0  0  0  0  0  0  0  0  0  0  0
   71.8527   37.7643   57.8474 C   0  0  0  0  0  0  0  0  0  0  0  0
   70.7509   39.7684   58.7749 C   0  0  0  0  0  0  0  0  0  0  0  0
   71.6448   40.5132   59.2490 O   0  0  0  0  0  0  0  0  0  0  0  0
   69.5834   40.3596   58.2733 N   0  0  0  0  0  0  0  0  0  0  0  0
   68.4348   39.7040   57.6893 C   0  0  0  0  0  0  0  0  0  0  0  0
   67.7893   40.7134   56.7740 C   0  0  2  0  0  0  0  0  0  0  0  0
   67.6363   40.2219   55.4670 O   0  0  0  0  0  0  0  0  0  0  0  0
   68.7122   41.9062   56.8382 C   0  0  1  0  0  0  0  0  0  0  0  0
   68.0125   43.0646   56.6495 F   0  0  0  0  0  0  0  0  0  0  0  0
   69.2958   41.7792   58.2352 C   0  0  0  0  0  0  0  0  0  0  0  0
   73.0407   35.8485   56.7696 C   0  0  0  0  0  0  0  0  0  0  0  0
   72.4889   35.6530   55.5292 O   0  0  0  0  0  0  0  0  0  0  0  0
   73.0275   35.0228   51.9510 C   0  0  0  0  0  0  0  0  0  0  0  0
   72.4015   35.1763   53.1605 C   0  0  0  0  0  0  0  0  0  0  0  0
   73.1115   35.4939   54.2995 C   0  0  0  0  0  0  0  0  0  0  0  0
   74.4388   35.6402   54.1472 N   0  0  0  0  0  0  0  0  0  0  0  0
   75.1196   35.5067   53.0086 C   0  0  0  0  0  0  0  0  0  0  0  0
   74.3991   35.1890   51.8704 C   0  0  0  0  0  0  0  0  0  0  0  0
   76.6055   35.6894   52.9402 C   0  0  0  0  0  0  0  0  0  0  0  0
   77.1848   34.6293   53.6084 F   0  0  0  0  0  0  0  0  0  0  0  0
   76.9699   36.8562   53.5634 F   0  0  0  0  0  0  0  0  0  0  0  0
   76.9661   35.6988   51.6056 F   0  0  0  0  0  0  0  0  0  0  0  0
   71.5305   35.8459   50.2223 N   0  0  0  0  0  0  0  0  0  0  0  0
   72.2545   34.6762   50.6994 C   0  0  0  0  0  0  0  0  0  0  0  0
 28 29  1  0
 29 18  1  0
 18 19  2  0
 18 23  1  0
 19 20  1  0
 20 17  1  0
 20 21  2  0
 17 16  1  0
 16  1  1  0
  1  2  2  0
  1  6  1  0
  2  3  1  0
  3  4  2  0
  4  5  1  0
  5  7  1  0
  5  6  2  0
  7  8  2  0
  7  9  1  0
  9 10  1  0
  9 15  1  0
 10 11  1  0
 11 12  1  6
 11 13  1  0
 13 14  1  1
 13 15  1  0
 21 22  1  0
 22 24  1  0
 22 23  2  0
 24 25  1  0
 24 26  1  0
 24 27  1  0
M  CHG  1  28   1
M  END
>  <minimizedAffinity>  (418) 
-8.64149

$$$$
data/reference_output_2/data/smiles/124307.pdb
     RDKit          3D

 25 27  0  0  0  0  0  0  0  0999 V2000
   69.8532   47.6694   57.3971 C   0  0  0  0  0  0  0  0  0  0  0  0
   69.2184   46.6237   56.9296 C   0  0  0  0  0  0  0  0  0  0  0  0
   69.8030   45.3906   57.4222 C   0  0  0  0  0  0  0  0  0  0  0  0
   69.4454   44.2181   57.1779 O   0  0  0  0  0  0  0  0  0  0  0  0
   70.8920   45.7375   58.2681 N   0  0  0  0  0  0  0  0  0  0  0  0
   70.9384   47.1390   58.2642 C   0  0  0  0  0  0  0  0  0  0  0  0
   71.7419   47.8640   58.8705 O   0  0  0  0  0  0  0  0  0  0  0  0
   69.1092   51.8544   56.7343 C   0  0  0  0  0  0  0  0  0  0  0  0
   68.2566   51.0667   57.4775 C   0  0  0  0  0  0  0  0  0  0  0  0
   68.4847   49.7197   57.6737 C   0  0  0  0  0  0  0  0  0  0  0  0
   69.5881   49.0690   57.1341 C   0  0  0  0  0  0  0  0  0  0  0  0
   70.4356   49.8900   56.3816 C   0  0  0  0  0  0  0  0  0  0  0  0
   70.2253   51.2198   56.1808 C   0  0  0  0  0  0  0  0  0  0  0  0
   69.9738   54.1381   56.5033 C   0  0  0  0  0  0  0  0  0  0  0  0
   68.8824   53.2142   56.5386 O   0  0  0  0  0  0  0  0  0  0  0  0
   68.0946   46.6432   56.0381 N   0  0  0  0  0  0  0  0  0  0  0  0
   68.3416   46.7725   54.6331 C   0  0  0  0  0  0  0  0  0  0  0  0
   67.6992   45.8980   53.7479 C   0  0  0  0  0  0  0  0  0  0  0  0
   67.9021   45.9903   52.3936 C   0  0  0  0  0  0  0  0  0  0  0  0
   68.7327   46.9324   51.8357 C   0  0  0  0  0  0  0  0  0  0  0  0
   69.3742   47.8059   52.7050 C   0  0  0  0  0  0  0  0  0  0  0  0
   69.1681   47.7098   54.0791 C   0  0  0  0  0  0  0  0  0  0  0  0
   70.2418   48.8181   52.1258 C   0  0  0  0  0  0  0  0  0  0  0  0
   71.3145   49.0916   52.7456 O   0  0  0  0  0  0  0  0  0  0  0  0
   69.9288   49.4651   50.9489 O   0  0  0  0  0  0  0  0  0  0  0  0
 14 15  1  0
 15  8  1  0
  8  9  2  0
  8 13  1  0
  9 10  1  0
 10 11  2  0
 11  1  1  0
 11 12  1  0
  1  2  2  0
  1  6  1  0
  2 16  1  0
  2  3  1  0
 16 17  1  0
 17 18  2  0
 17 22  1  0
 18 19  1  0
 19 20  2  0
 20 21  1  0
 21 23  1  0
 21 22  2  0
 23 24  2  0
 23 25  1  0
  3  4  2  0
  3  5  1  0
  5  6  1  0
  6  7  2  0
 12 13  2  0
M  END
>  <minimizedAffinity>  (419) 
-8.56423

$$$$
data/reference_output_2/data/smiles/124379.pdb
     RDKit          3D

 24 26  0  0  0  0  0  0  0  0999 V2000
   71.3981   50.8877   55.3500 C   0  0  0  0  0  0  0  0  0  0  0  0
   70.8790   49.7825   54.4985 C   0  0  0  0  0  0  0  0  0  0  0  0
   71.4844   49.5695   53.4352 O   0  0  0  0  0  0  0  0  0  0  0  0
   69.7534   49.0221   54.8922 N   0  0  0  0  0  0  0  0  0  0  0  0
   69.1019   49.2362   56.1720 C   0  0  0  0  0  0  0  0  0  0  0  0
   68.2621   48.0772   56.5775 C   0  0  0  0  0  0  0  0  0  0  0  0
   68.7056   46.7442   56.0429 C   0  0  0  0  0  0  0  0  0  0  0  0
   68.7063   46.8600   54.5618 C   0  0  0  0  0  0  0  0  0  0  0  0
   68.1960   45.8572   53.7534 C   0  0  0  0  0  0  0  0  0  0  0  0
   68.2277   46.0375   52.3901 C   0  0  0  0  0  0  0  0  0  0  0  0
   68.7615   47.2025   51.8239 C   0  0  0  0  0  0  0  0  0  0  0  0
   69.2579   48.1740   52.6544 C   0  0  0  0  0  0  0  0  0  0  0  0
   69.2368   48.0157   54.0379 C   0  0  0  0  0  0  0  0  0  0  0  0
   72.4664   51.6799   54.6795 C   0  0  0  0  0  0  0  0  0  0  0  0
   76.0108   50.8857   55.8633 N   0  0  0  0  0  0  0  0  0  0  0  0
   74.7899   50.8357   55.1495 C   0  0  0  0  0  0  0  0  0  0  0  0
   74.6410   49.9854   54.2621 O   0  0  0  0  0  0  0  0  0  0  0  0
   73.7064   51.7204   55.3956 N   0  0  0  0  0  0  0  0  0  0  0  0
   80.3437   48.3956   56.3668 C   0  0  0  0  0  0  0  0  0  0  0  0
   79.0478   48.8855   55.8272 C   0  0  0  0  0  0  0  0  0  0  0  0
   78.2188   49.8322   56.4493 C   0  0  0  0  0  0  0  0  0  0  0  0
   77.1162   50.0275   55.6527 C   0  0  0  0  0  0  0  0  0  0  0  0
   77.3076   49.2131   54.6005 N   0  0  0  0  0  0  0  0  0  0  0  0
   78.4253   48.5683   54.7248 O   0  0  0  0  0  0  0  0  0  0  0  0
 19 20  1  0
 20 21  2  0
 20 24  1  0
 21 22  1  0
 22 15  1  0
 22 23  2  0
 15 16  1  0
 16 17  2  0
 16 18  1  0
 18 14  1  0
 14  1  1  0
  1  2  1  0
  2  3  2  0
  2  4  1  0
  4  5  1  0
  4 13  1  0
  5  6  1  0
  6  7  1  0
  7  8  1  0
  8  9  2  0
  8 13  1  0
  9 10  1  0
 10 11  2  0
 11 12  1  0
 12 13  2  0
 23 24  1  0
M  END
>  <minimizedAffinity>  (420) 
-8.68907

$$$$
data/reference_output_2/data/smiles/124385.pdb
     RDKit          3D

 25 27  0  0  0  0  0  0  0  0999 V2000
   70.0187   47.0534   57.3734 C   0  0  0  0  0  0  0  0  0  0  0  0
   70.2932   45.5954   57.5676 C   0  0  0  0  0  0  0  0  0  0  0  0
   69.4980   44.5296   57.4882 N   0  0  0  0  0  0  0  0  0  0  0  0
   70.1578   43.3901   57.7384 C   0  0  0  0  0  0  0  0  0  0  0  0
   69.8175   42.0486   57.7848 C   0  0  0  0  0  0  0  0  0  0  0  0
   70.7158   41.0437   58.0754 C   0  0  0  0  0  0  0  0  0  0  0  0
   72.0369   41.4241   58.3329 C   0  0  0  0  0  0  0  0  0  0  0  0
   72.3897   42.7543   58.2901 C   0  0  0  0  0  0  0  0  0  0  0  0
   71.4618   43.7458   57.9939 C   0  0  0  0  0  0  0  0  0  0  0  0
   71.5247   45.0802   57.8868 N   0  0  0  0  0  0  0  0  0  0  0  0
   70.3572   39.6771   58.1204 N   0  0  0  0  0  0  0  0  0  0  0  0
   69.1665   39.3541   58.1560 O   0  0  0  0  0  0  0  0  0  0  0  0
   71.3182   38.7111   58.1247 O   0  0  0  0  0  0  0  0  0  0  0  0
   68.9827   47.3540   56.5171 O   0  0  0  0  0  0  0  0  0  0  0  0
   69.2543   47.7555   52.9100 C   0  0  0  0  0  0  0  0  0  0  0  0
   68.5032   46.7088   52.4212 C   0  0  0  0  0  0  0  0  0  0  0  0
   68.3541   46.5093   51.0929 F   0  0  0  0  0  0  0  0  0  0  0  0
   67.8933   45.8510   53.3055 C   0  0  0  0  0  0  0  0  0  0  0  0
   68.0318   46.0353   54.6849 C   0  0  0  0  0  0  0  0  0  0  0  0
   68.7724   47.0662   55.2053 C   0  0  0  0  0  0  0  0  0  0  0  0
   69.3730   47.9123   54.2507 C   0  0  0  0  0  0  0  0  0  0  0  0
   70.1297   48.9669   54.6941 F   0  0  0  0  0  0  0  0  0  0  0  0
   69.7585   50.0389   52.1545 N   0  0  0  0  0  0  0  0  0  0  0  0
   69.8925   48.6555   51.9380 C   0  0  0  0  0  0  0  0  0  0  0  0
   70.5298   48.2167   50.9582 O   0  0  0  0  0  0  0  0  0  0  0  0
 23 24  1  0
 24 25  2  0
 24 15  1  0
 15 16  2  0
 15 21  1  0
 16 17  1  0
 16 18  1  0
 18 19  2  0
 19 20  1  0
 20 14  1  0
 20 21  2  0
 14  1  1  0
  1  2  1  0
  2  3  2  0
  2 10  1  0
  3  4  1  0
  4  5  2  0
  4  9  1  0
  5  6  1  0
  6 11  1  0
  6  7  2  0
 11 12  2  0
 11 13  1  0
  7  8  1  0
  8  9  2  0
  9 10  1  0
 21 22  1  0
M  CHG  3   3   1  11   1  13  -1
M  END
>  <minimizedAffinity>  (421) 
-8.54083

$$$$
data/reference_output_2/data/smiles/124511.pdb
     RDKit          3D

 28 30  0  0  0  0  0  0  0  0999 V2000
   69.5793   47.5487   56.7469 C   0  0  0  0  0  0  0  0  0  0  0  0
   70.3957   48.3934   57.4661 C   0  0  0  0  0  0  0  0  0  0  0  0
   71.2044   47.8923   58.4090 N   0  0  0  0  0  0  0  0  0  0  0  0
   71.2130   46.5751   58.6453 C   0  0  0  0  0  0  0  0  0  0  0  0
   71.8917   45.7829   59.5014 N   0  0  0  0  0  0  0  0  0  0  0  0
   71.5406   44.4979   59.3497 C   0  0  0  0  0  0  0  0  0  0  0  0
   70.5883   44.4027   58.3588 C   0  0  0  0  0  0  0  0  0  0  0  0
   70.3916   45.7046   57.9260 C   0  0  0  0  0  0  0  0  0  0  0  0
   69.5899   46.2266   56.9863 N   0  0  0  0  0  0  0  0  0  0  0  0
   69.9289   43.1783   57.8666 C   0  0  0  0  0  0  0  0  0  0  0  0
   70.4674   42.4656   56.9872 O   0  0  0  0  0  0  0  0  0  0  0  0
   68.6731   42.7881   58.3803 N   0  0  0  0  0  0  0  0  0  0  0  0
   68.0146   41.5941   57.9133 C   0  0  0  0  0  0  0  0  0  0  0  0
   67.6128   41.6595   56.4781 C   0  0  0  0  0  0  0  0  0  0  0  0
   66.7260   41.4209   58.7267 C   0  0  0  0  0  0  0  0  0  0  0  0
   68.9026   40.3733   58.1203 C   0  0  0  0  0  0  0  0  0  0  0  0
   68.7310   48.1133   55.7294 N   0  0  0  0  0  0  0  0  0  0  0  0
   69.4296   48.3937   53.3691 C   0  0  0  0  0  0  0  0  0  0  0  0
   69.3499   47.8641   52.1089 C   0  0  0  0  0  0  0  0  0  0  0  0
   68.6378   46.6928   51.8018 C   0  0  0  0  0  0  0  0  0  0  0  0
   67.9887   46.0439   52.8180 C   0  0  0  0  0  0  0  0  0  0  0  0
   68.0601   46.5610   54.0771 C   0  0  0  0  0  0  0  0  0  0  0  0
   68.7579   47.7077   54.3703 C   0  0  0  0  0  0  0  0  0  0  0  0
   68.5022   51.2284   54.4052 C   0  0  0  0  0  0  0  0  0  0  0  0
   69.8351   50.7773   54.1386 N   0  0  0  0  0  0  0  0  0  0  0  0
   70.8955   51.8134   54.3747 C   0  0  0  0  0  0  0  0  0  0  0  0
   70.2190   49.5267   53.6961 C   0  0  0  0  0  0  0  0  0  0  0  0
   71.5031   49.3677   53.5623 O   0  0  0  0  0  0  0  0  0  0  0  0
 24 25  1  0
 25 26  1  0
 25 27  1  0
 27 28  2  0
 27 18  1  0
 18 19  2  0
 18 23  1  0
 19 20  1  0
 20 21  2  0
 21 22  1  0
 22 23  2  0
 23 17  1  0
 17  1  1  0
  1  2  2  0
  1  9  1  0
  2  3  1  0
  3  4  2  0
  4  5  1  0
  4  8  1  0
  5  6  1  0
  6  7  2  0
  7 10  1  0
  7  8  1  0
 10 11  2  0
 10 12  1  0
 12 13  1  0
 13 14  1  0
 13 15  1  0
 13 16  1  0
  8  9  2  0
M  END
>  <minimizedAffinity>  (422) 
-8.65504

$$$$
data/reference_output_2/data/smiles/124627.pdb
     RDKit          3D

 23 26  0  0  0  0  0  0  0  0999 V2000
   68.1065   45.5907   55.0161 C   0  0  0  0  0  0  0  0  0  0  0  0
   68.4112   46.2354   56.1511 N   0  0  0  0  0  0  0  0  0  0  0  0
   68.9574   47.4601   56.1930 C   0  0  0  0  0  0  0  0  0  0  0  0
   69.2684   48.1210   57.3639 C   0  0  0  0  0  0  0  0  0  0  0  0
   69.8294   49.3790   57.3946 C   0  0  0  0  0  0  0  0  0  0  0  0
   70.1048   49.9600   58.5771 F   0  0  0  0  0  0  0  0  0  0  0  0
   70.0854   49.9956   56.1843 C   0  0  0  0  0  0  0  0  0  0  0  0
   69.7815   49.3541   55.0021 C   0  0  0  0  0  0  0  0  0  0  0  0
   69.2140   48.0789   54.9698 C   0  0  0  0  0  0  0  0  0  0  0  0
   68.9286   47.4783   53.8073 N   0  0  0  0  0  0  0  0  0  0  0  0
   69.0989   47.9024   52.5501 C   0  0  0  0  0  0  0  0  0  0  0  0
   68.6471   46.9183   51.6648 C   0  0  0  0  0  0  0  0  0  0  0  0
   68.2028   45.8918   52.4908 C   0  0  0  0  0  0  0  0  0  0  0  0
   68.3748   46.2335   53.8242 C   0  0  0  0  0  0  0  0  0  0  0  0
   67.5290   44.2971   54.9607 N   0  0  0  0  0  0  0  0  0  0  0  0
   66.3493   41.8436   55.1334 O   0  0  0  0  0  0  0  0  0  0  0  0
   67.2636   42.0492   55.9881 C   0  0  0  0  0  0  0  0  0  0  0  0
   67.8915   43.3328   55.9096 N   0  0  0  0  0  0  0  0  0  0  0  0
   67.6436   41.0553   56.9728 C   0  0  0  0  0  0  0  0  0  0  0  0
   67.7902   41.2385   58.3241 C   0  0  0  0  0  0  0  0  0  0  0  0
   68.1641   40.0214   58.8803 C   0  0  0  0  0  0  0  0  0  0  0  0
   68.2197   39.1546   57.7938 C   0  0  0  0  0  0  0  0  0  0  0  0
   67.9087   39.8063   56.7078 O   0  0  0  0  0  0  0  0  0  0  0  0
 16 17  2  0
 17 18  1  0
 17 19  1  0
 18 15  1  0
 15  1  1  0
  1  2  2  0
  1 14  1  0
  2  3  1  0
  3  4  2  0
  3  9  1  0
  4  5  1  0
  5  6  1  0
  5  7  2  0
  7  8  1  0
  8  9  2  0
  9 10  1  0
 10 11  1  0
 10 14  1  0
 11 12  2  0
 12 13  1  0
 13 14  2  0
 19 20  2  0
 19 23  1  0
 20 21  1  0
 21 22  2  0
 22 23  1  0
M  END
>  <minimizedAffinity>  (423) 
-8.70460

$$$$
data/reference_output_2/data/smiles/124765.pdb
     RDKit          3D

 21 23  0  0  0  0  0  0  0  0999 V2000
   70.8004   51.6641   54.4025 C   0  0  0  0  0  0  0  0  0  0  0  0
   69.9721   50.4641   54.3744 N   0  0  0  0  0  0  0  0  0  0  0  0
   69.1560   50.3131   55.5313 C   0  0  0  0  0  0  0  0  0  0  0  0
   68.9179   51.5372   56.1616 C   0  0  0  0  0  0  0  0  0  0  0  0
   68.1392   51.6111   57.3105 C   0  0  0  0  0  0  0  0  0  0  0  0
   67.5842   50.4683   57.8502 C   0  0  0  0  0  0  0  0  0  0  0  0
   67.8301   49.2779   57.2151 C   0  0  0  0  0  0  0  0  0  0  0  0
   68.5987   49.1826   56.0783 C   0  0  0  0  0  0  0  0  0  0  0  0
   68.7092   47.8197   55.6122 N   0  0  0  0  0  0  0  0  0  0  0  0
   68.9110   46.8722   56.6232 C   0  0  0  0  0  0  0  0  0  0  0  0
   69.0980   45.4914   56.2602 N   0  0  0  0  0  0  0  0  0  0  0  0
   68.9525   47.1480   57.8620 O   0  0  0  0  0  0  0  0  0  0  0  0
   68.6428   47.4086   54.2577 C   0  0  0  0  0  0  0  0  0  0  0  0
   67.9226   46.2478   54.1390 C   0  0  0  0  0  0  0  0  0  0  0  0
   67.7593   45.6671   52.9033 C   0  0  0  0  0  0  0  0  0  0  0  0
   68.3103   46.2317   51.7555 C   0  0  0  0  0  0  0  0  0  0  0  0
   69.0317   47.3994   51.8781 C   0  0  0  0  0  0  0  0  0  0  0  0
   69.1963   47.9831   53.1166 C   0  0  0  0  0  0  0  0  0  0  0  0
   70.1064   49.4425   52.9931 S   0  0  0  0  0  0  0  0  0  0  0  0
   71.5733   49.0548   52.8615 O   0  0  0  0  0  0  0  0  0  0  0  0
   69.7422   50.2651   51.7840 O   0  0  0  0  0  0  0  0  0  0  0  0
  1  2  1  0
  2  3  1  0
  2 19  1  0
  3  4  2  0
  3  8  1  0
  4  5  1  0
  5  6  2  0
  6  7  1  0
  7  8  2  0
  8  9  1  0
  9 10  1  0
  9 13  1  0
 10 11  1  0
 10 12  2  0
 13 14  2  0
 13 18  1  0
 14 15  1  0
 15 16  2  0
 16 17  1  0
 17 18  2  0
 18 19  1  0
 19 20  2  0
 19 21  2  0
M  END
>  <minimizedAffinity>  (424) 
-8.67719

$$$$
data/reference_output_2/data/smiles/124821.pdb
     RDKit          3D

 30 32  0  0  0  0  0  0  0  0999 V2000
   68.5655   46.2347   54.2754 C   0  0  0  0  0  0  0  0  0  0  0  0
   68.0810   45.8753   53.0402 C   0  0  0  0  0  0  0  0  0  0  0  0
   68.2485   46.6951   51.9236 C   0  0  0  0  0  0  0  0  0  0  0  0
   68.9278   47.9043   52.0879 C   0  0  0  0  0  0  0  0  0  0  0  0
   69.4219   48.2853   53.3177 C   0  0  0  0  0  0  0  0  0  0  0  0
   69.2312   47.4353   54.4041 C   0  0  0  0  0  0  0  0  0  0  0  0
   67.9499   44.0325   55.3601 N   0  0  0  0  0  0  0  0  0  0  0  0
   68.3788   45.3630   55.4252 C   0  0  0  0  0  0  0  0  0  0  0  0
   68.6181   45.8272   56.5862 O   0  0  0  0  0  0  0  0  0  0  0  0
   67.4857   41.8947   56.5167 C   0  0  0  0  0  0  0  0  0  0  0  0
   67.3425   41.3766   55.3788 O   0  0  0  0  0  0  0  0  0  0  0  0
   67.8007   43.2675   56.5475 N   0  0  0  0  0  0  0  0  0  0  0  0
   67.0608   39.3546   59.9429 C   0  0  0  0  0  0  0  0  0  0  0  0
   66.4351   40.5839   59.9058 C   0  0  0  0  0  0  0  0  0  0  0  0
   66.5674   41.4168   58.7958 C   0  0  0  0  0  0  0  0  0  0  0  0
   67.3193   41.0553   57.6994 C   0  0  0  0  0  0  0  0  0  0  0  0
   67.9352   39.8218   57.7599 C   0  0  0  0  0  0  0  0  0  0  0  0
   67.8139   38.9873   58.8499 C   0  0  0  0  0  0  0  0  0  0  0  0
   65.5169   37.9759   61.3149 C   0  0  0  0  0  0  0  0  0  0  0  0
   66.9237   38.4586   61.1270 C   0  0  0  0  0  0  0  0  0  0  0  0
   70.2664   49.8119   53.4687 S   0  0  0  0  0  0  0  0  0  0  0  0
   69.9147   50.6597   52.2903 O   0  0  0  0  0  0  0  0  0  0  0  0
   71.7522   49.5536   53.4060 O   0  0  0  0  0  0  0  0  0  0  0  0
   69.8324   50.5160   54.9390 N   0  0  0  0  0  0  0  0  0  0  0  0
   68.8137   51.5043   54.8671 C   0  0  0  0  0  0  0  0  0  0  0  0
   68.1560   51.5636   56.2482 C   0  0  0  0  0  0  0  0  0  0  0  0
   68.8313   50.7321   57.1994 N   0  0  0  0  0  0  0  0  0  0  0  0
   68.3607   49.3943   57.0889 C   0  0  0  0  0  0  0  0  0  0  0  0
   70.2480   50.8874   57.2454 C   0  0  0  0  0  0  0  0  0  0  0  0
   70.8805   50.8025   55.8499 C   0  0  0  0  0  0  0  0  0  0  0  0
 19 20  1  0
 20 13  1  0
 13 14  2  0
 13 18  1  0
 14 15  1  0
 15 16  2  0
 16 10  1  0
 16 17  1  0
 10 11  2  0
 10 12  1  0
 12  7  1  0
  7  8  1  0
  8  9  2  0
  8  1  1  0
  1  2  2  0
  1  6  1  0
  2  3  1  0
  3  4  2  0
  4  5  1  0
  5 21  1  0
  5  6  2  0
 21 22  2  0
 21 23  2  0
 21 24  1  0
 24 25  1  0
 24 30  1  0
 25 26  1  0
 26 27  1  0
 27 28  1  0
 27 29  1  0
 29 30  1  0
 17 18  2  0
M  CHG  1  27   1
M  END
>  <minimizedAffinity>  (425) 
-9.06065

$$$$
data/reference_output_2/data/smiles/124896.pdb
     RDKit          3D

 31 35  0  0  0  0  0  0  0  0999 V2000
   70.2375   47.2512   57.7747 C   0  0  0  0  0  0  0  0  0  0  0  0
   70.9751   46.0645   57.7988 N   0  0  0  0  0  0  0  0  0  0  0  0
   70.7265   44.8881   58.5528 C   0  0  0  0  0  0  0  0  0  0  0  0
   69.7293   44.8463   59.2914 O   0  0  0  0  0  0  0  0  0  0  0  0
   71.6365   43.7446   58.4593 C   0  0  0  0  0  0  0  0  0  0  0  0
   72.9754   44.0900   57.8193 C   0  0  0  0  0  0  0  0  0  0  0  0
   73.6536   42.7720   57.4655 C   0  0  0  0  0  0  0  0  0  0  0  0
   73.2396   41.7012   58.3522 N   0  0  0  0  0  0  0  0  0  0  0  0
   71.8289   41.3380   58.2017 C   0  0  0  0  0  0  0  0  0  0  0  0
   71.0574   42.5775   57.7152 C   0  0  0  0  0  0  0  0  0  0  0  0
   74.0917   41.0619   59.2792 C   0  0  0  0  0  0  0  0  0  0  0  0
   75.3716   41.5176   59.5094 C   0  0  0  0  0  0  0  0  0  0  0  0
   76.2072   40.8711   60.4301 C   0  0  0  0  0  0  0  0  0  0  0  0
   75.8063   39.8071   61.1104 N   0  0  0  0  0  0  0  0  0  0  0  0
   74.5637   39.3484   60.9011 C   0  0  0  0  0  0  0  0  0  0  0  0
   73.7030   39.9555   60.0003 C   0  0  0  0  0  0  0  0  0  0  0  0
   68.9683   47.4019   57.0373 C   0  0  0  0  0  0  0  0  0  0  0  0
   69.7755   49.9455   50.6920 O   0  0  0  0  0  0  0  0  0  0  0  0
   69.7409   49.7808   51.9485 C   0  0  0  0  0  0  0  0  0  0  0  0
   70.1212   50.8180   52.8452 N   0  0  0  0  0  0  0  0  0  0  0  0
   69.3868   50.8108   54.1061 C   0  0  0  0  0  0  0  0  0  0  0  0
   69.7456   49.4728   54.7976 C   0  0  0  0  0  0  0  0  0  0  0  0
   69.2980   48.3985   53.9234 C   0  0  0  0  0  0  0  0  0  0  0  0
   69.3089   48.5106   52.5427 C   0  0  0  0  0  0  0  0  0  0  0  0
   68.9337   47.5019   51.6822 C   0  0  0  0  0  0  0  0  0  0  0  0
   68.5256   46.3179   52.2267 C   0  0  0  0  0  0  0  0  0  0  0  0
   68.5046   46.1783   53.6116 C   0  0  0  0  0  0  0  0  0  0  0  0
   68.1586   45.1032   54.3401 N   0  0  0  0  0  0  0  0  0  0  0  0
   68.3061   45.4133   55.6264 C   0  0  0  0  0  0  0  0  0  0  0  0
   68.7683   46.7502   55.7587 C   0  0  0  0  0  0  0  0  0  0  0  0
   68.8804   47.1901   54.4724 C   0  0  0  0  0  0  0  0  0  0  0  0
 18 19  2  0
 19 20  1  0
 19 24  1  0
 20 21  1  0
 21 22  1  0
 22 23  1  0
 23 24  2  0
 23 31  1  0
 24 25  1  0
 25 26  2  0
 26 27  1  0
 27 28  1  0
 27 31  2  0
 28 29  1  0
 29 30  2  0
 30 17  1  0
 30 31  1  0
 17  1  1  0
  1  2  1  0
  2  3  1  0
  3  4  2  0
  3  5  1  0
  5  6  1  0
  5 10  1  0
  6  7  1  0
  7  8  1  0
  8 11  1  0
  8  9  1  0
 11 12  2  0
 11 16  1  0
 12 13  1  0
 13 14  2  0
 14 15  1  0
 15 16  2  0
  9 10  1  0
M  END
>  <minimizedAffinity>  (426) 
-9.01232

$$$$
data/reference_output_2/data/smiles/124967.pdb
     RDKit          3D

 22 25  0  0  0  0  0  0  0  0999 V2000
   69.2351   47.8311   52.6534 C   0  0  0  0  0  0  0  0  0  0  0  0
   68.4468   46.9625   51.9625 C   0  0  0  0  0  0  0  0  0  0  0  0
   67.8635   45.8632   52.5728 C   0  0  0  0  0  0  0  0  0  0  0  0
   68.0859   45.6379   53.9283 C   0  0  0  0  0  0  0  0  0  0  0  0
   67.6922   44.7039   54.8141 N   0  0  0  0  0  0  0  0  0  0  0  0
   68.1983   44.9574   56.0049 N   0  0  0  0  0  0  0  0  0  0  0  0
   68.9586   46.0835   55.9615 C   0  0  0  0  0  0  0  0  0  0  0  0
   68.8856   46.5095   54.6515 C   0  0  0  0  0  0  0  0  0  0  0  0
   69.4365   47.5756   54.0054 C   0  0  0  0  0  0  0  0  0  0  0  0
   69.6894   46.7001   57.0650 C   0  0  0  0  0  0  0  0  0  0  0  0
   69.6684   48.0560   57.3233 C   0  0  0  0  0  0  0  0  0  0  0  0
   70.3799   48.6023   58.3837 C   0  0  0  0  0  0  0  0  0  0  0  0
   71.1344   47.8027   59.2176 C   0  0  0  0  0  0  0  0  0  0  0  0
   71.1611   46.4466   58.9663 C   0  0  0  0  0  0  0  0  0  0  0  0
   70.4477   45.9089   57.9058 C   0  0  0  0  0  0  0  0  0  0  0  0
   71.9271   45.6678   59.8207 O   0  0  0  0  0  0  0  0  0  0  0  0
   72.6907   46.1725   60.8839 C   0  0  0  0  0  0  0  0  0  0  0  0
   73.0370   47.6237   60.7506 C   0  0  0  0  0  0  0  0  0  0  0  0
   71.8619   48.3083   60.2910 O   0  0  0  0  0  0  0  0  0  0  0  0
   69.8639   50.2461   52.7162 N   0  0  0  0  0  0  0  0  0  0  0  0
   69.8672   48.9974   52.0504 C   0  0  0  0  0  0  0  0  0  0  0  0
   70.4260   48.9153   50.9306 O   0  0  0  0  0  0  0  0  0  0  0  0
 20 21  1  0
 21 22  2  0
 21  1  1  0
  1  2  2  0
  1  9  1  0
  2  3  1  0
  3  4  2  0
  4  5  1  0
  4  8  1  0
  5  6  1  0
  6  7  2  0
  7 10  1  0
  7  8  1  0
 10 11  2  0
 10 15  1  0
 11 12  1  0
 12 13  2  0
 13 14  1  0
 13 19  1  0
 14 15  2  0
 14 16  1  0
 16 17  1  0
 17 18  1  0
 18 19  1  0
  8  9  2  0
M  END
>  <minimizedAffinity>  (427) 
-8.67846

$$$$
data/reference_output_2/data/smiles/125018.pdb
     RDKit          3D

 27 30  0  0  0  0  0  0  0  0999 V2000
   71.3542   46.0151   58.8257 C   0  0  0  0  0  0  0  0  0  0  0  0
   72.0399   46.3133   59.9836 C   0  0  0  0  0  0  0  0  0  0  0  0
   72.1238   47.6076   60.4453 C   0  0  0  0  0  0  0  0  0  0  0  0
   72.7388   47.9304   61.4982 O   0  0  0  0  0  0  0  0  0  0  0  0
   71.5228   48.5842   59.7442 N   0  0  0  0  0  0  0  0  0  0  0  0
   70.8402   48.3290   58.6014 C   0  0  0  0  0  0  0  0  0  0  0  0
   70.7825   47.0654   58.1905 N   0  0  0  0  0  0  0  0  0  0  0  0
   68.7015   42.1799   56.9861 C   0  0  0  0  0  0  0  0  0  0  0  0
   69.9830   42.7956   57.4105 C   0  0  0  0  0  0  0  0  0  0  0  0
   70.0557   44.0890   57.9064 C   0  0  0  0  0  0  0  0  0  0  0  0
   71.2397   44.6603   58.3004 C   0  0  0  0  0  0  0  0  0  0  0  0
   72.3851   43.9030   58.1897 C   0  0  0  0  0  0  0  0  0  0  0  0
   72.3069   42.5998   57.6891 C   0  0  0  0  0  0  0  0  0  0  0  0
   71.1173   42.1007   57.3215 N   0  0  0  0  0  0  0  0  0  0  0  0
   70.1947   49.4470   57.8671 C   0  0  0  0  0  0  0  0  0  0  0  0
   70.3464   49.2466   56.4048 C   0  0  0  0  0  0  0  0  0  0  0  0
   71.2659   49.8326   55.7938 O   0  0  0  0  0  0  0  0  0  0  0  0
   69.4697   48.4028   55.6789 N   0  0  0  0  0  0  0  0  0  0  0  0
   68.3660   47.6672   56.2668 C   0  0  0  0  0  0  0  0  0  0  0  0
   68.1026   46.5340   55.2964 C   0  0  0  0  0  0  0  0  0  0  0  0
   68.7131   47.0378   54.0259 C   0  0  0  0  0  0  0  0  0  0  0  0
   68.5717   46.5589   52.7391 C   0  0  0  0  0  0  0  0  0  0  0  0
   67.7922   45.4927   52.5170 F   0  0  0  0  0  0  0  0  0  0  0  0
   69.2398   47.1935   51.7101 C   0  0  0  0  0  0  0  0  0  0  0  0
   70.0278   48.2864   51.9986 C   0  0  0  0  0  0  0  0  0  0  0  0
   70.1718   48.7691   53.2845 C   0  0  0  0  0  0  0  0  0  0  0  0
   69.4988   48.1243   54.2963 C   0  0  0  0  0  0  0  0  0  0  0  0
  8  9  1  0
  9 10  2  0
  9 14  1  0
 10 11  1  0
 11  1  1  0
 11 12  2  0
  1  2  2  0
  1  7  1  0
  2  3  1  0
  3  4  2  0
  3  5  1  0
  5  6  1  0
  6 15  1  0
  6  7  2  0
 15 16  1  0
 16 17  2  0
 16 18  1  0
 18 19  1  0
 18 27  1  0
 19 20  1  0
 20 21  1  0
 21 22  1  0
 21 27  2  0
 22 23  1  0
 22 24  2  0
 24 25  1  0
 25 26  2  0
 26 27  1  0
 12 13  1  0
 13 14  2  0
M  END
>  <minimizedAffinity>  (428) 
-8.79965

$$$$
data/reference_output_2/data/smiles/125076.pdb
     RDKit          3D

 28 31  0  0  0  0  0  0  0  0999 V2000
   67.9144   45.1380   55.1015 N   0  0  0  0  0  0  0  0  0  0  0  0
   68.2997   46.0748   54.1251 C   0  0  0  0  0  0  0  0  0  0  0  0
   68.1329   45.7967   52.7965 C   0  0  0  0  0  0  0  0  0  0  0  0
   68.5133   46.6987   51.8168 C   0  0  0  0  0  0  0  0  0  0  0  0
   69.0691   47.9006   52.1992 C   0  0  0  0  0  0  0  0  0  0  0  0
   69.2573   48.2258   53.5260 C   0  0  0  0  0  0  0  0  0  0  0  0
   68.8655   47.3013   54.4679 C   0  0  0  0  0  0  0  0  0  0  0  0
   69.9609   49.7455   53.9861 S   0  0  0  0  0  0  0  0  0  0  0  0
   71.3328   49.6011   54.5559 O   0  0  0  0  0  0  0  0  0  0  0  0
   70.1002   50.5953   52.7360 O   0  0  0  0  0  0  0  0  0  0  0  0
   68.9051   50.5923   55.0517 N   0  0  0  0  0  0  0  0  0  0  0  0
   68.6653   51.9415   54.6580 C   0  0  0  0  0  0  0  0  0  0  0  0
   69.2855   52.8565   55.6679 C   0  0  0  0  0  0  0  0  0  0  0  0
   69.8848   51.9566   56.7192 C   0  0  0  0  0  0  0  0  0  0  0  0
   69.3474   50.5770   56.4067 C   0  0  0  0  0  0  0  0  0  0  0  0
   68.8588   44.6938   56.0995 C   0  0  0  0  0  0  0  0  0  0  0  0
   70.1358   43.4809   59.3873 C   0  0  0  0  0  0  0  0  0  0  0  0
   70.5709   43.1291   57.9767 C   0  0  1  0  0  0  0  0  0  0  0  0
   71.5043   41.9338   57.9921 C   0  0  0  0  0  0  0  0  0  0  0  0
   70.5472   40.8081   58.1558 C   0  0  0  0  0  0  0  0  0  0  0  0
   70.6914   39.5276   58.6161 C   0  0  0  0  0  0  0  0  0  0  0  0
   69.6195   38.6620   58.6655 C   0  0  0  0  0  0  0  0  0  0  0  0
   68.3572   39.0693   58.2467 C   0  0  0  0  0  0  0  0  0  0  0  0
   68.2288   40.3620   57.7856 C   0  0  0  0  0  0  0  0  0  0  0  0
   69.3038   41.2199   57.7388 C   0  0  0  0  0  0  0  0  0  0  0  0
   69.4112   42.5776   57.3101 N   0  0  0  0  0  0  0  0  0  0  0  0
   68.5767   43.2785   56.4159 C   0  0  0  0  0  0  0  0  0  0  0  0
   67.6022   42.6753   55.9048 O   0  0  0  0  0  0  0  0  0  0  0  0
 18 17  1  1
 18 19  1  0
 18 26  1  0
 19 20  1  0
 20 21  2  0
 20 25  1  0
 21 22  1  0
 22 23  2  0
 23 24  1  0
 24 25  2  0
 25 26  1  0
 26 27  1  0
 27 28  2  0
 27 16  1  0
 16  1  1  0
  1  2  1  0
  2  3  2  0
  2  7  1  0
  3  4  1  0
  4  5  2  0
  5  6  1  0
  6  8  1  0
  6  7  2  0
  8  9  2  0
  8 10  2  0
  8 11  1  0
 11 12  1  0
 11 15  1  0
 12 13  1  0
 13 14  1  0
 14 15  1  0
M  END
>  <minimizedAffinity>  (429) 
-8.55433

$$$$
data/reference_output_2/data/smiles/125098.pdb
     RDKit          3D

 26 29  0  0  0  0  0  0  0  0999 V2000
   70.9254   38.9419   58.2965 C   0  0  0  0  0  0  0  0  0  0  0  0
   69.6009   39.3266   58.3305 C   0  0  0  0  0  0  0  0  0  0  0  0
   69.5590   40.6987   58.2672 C   0  0  0  0  0  0  0  0  0  0  0  0
   70.8364   41.1340   58.1976 C   0  0  0  0  0  0  0  0  0  0  0  0
   71.6750   40.0509   58.2154 N   0  0  0  0  0  0  0  0  0  0  0  0
   71.2012   42.5663   58.1100 C   0  0  0  0  0  0  0  0  0  0  0  0
   70.1201   43.4018   57.5712 C   0  0  1  0  0  0  0  0  0  0  0  0
   68.8334   43.0660   58.1974 N   0  0  0  0  0  0  0  0  0  0  0  0
   68.4768   41.7091   58.2689 C   0  0  0  0  0  0  0  0  0  0  0  0
   67.2997   41.2745   58.3351 O   0  0  0  0  0  0  0  0  0  0  0  0
   73.5115   35.2962   56.3987 N   0  0  0  0  0  0  0  0  0  0  0  0
   72.6656   35.8043   57.4066 C   0  0  0  0  0  0  0  0  0  0  0  0
   72.3085   34.9827   58.4177 N   0  0  0  0  0  0  0  0  0  0  0  0
   71.5006   35.4018   59.4196 C   0  0  0  0  0  0  0  0  0  0  0  0
   71.0488   36.7168   59.3675 C   0  0  0  0  0  0  0  0  0  0  0  0
   71.4031   37.5667   58.3423 C   0  0  0  0  0  0  0  0  0  0  0  0
   72.2065   37.0874   57.3827 N   0  0  0  0  0  0  0  0  0  0  0  0
   70.2765   44.8778   57.5257 C   0  0  0  0  0  0  0  0  0  0  0  0
   69.2306   45.6060   57.1567 O   0  0  0  0  0  0  0  0  0  0  0  0
   69.2818   46.7801   56.5228 C   0  0  0  0  0  0  0  0  0  0  0  0
   68.8793   46.6563   55.0800 C   0  0  0  0  0  0  0  0  0  0  0  0
   68.1667   45.5598   54.6294 C   0  0  0  0  0  0  0  0  0  0  0  0
   67.7907   45.4453   53.2949 C   0  0  0  0  0  0  0  0  0  0  0  0
   68.1279   46.4403   52.3891 C   0  0  0  0  0  0  0  0  0  0  0  0
   68.8321   47.5239   52.8382 C   0  0  0  0  0  0  0  0  0  0  0  0
   69.2000   47.6211   54.1754 C   0  0  0  0  0  0  0  0  0  0  0  0
 11 12  1  0
 12 13  2  0
 12 17  1  0
 13 14  1  0
 14 15  2  0
 15 16  1  0
 16  1  1  0
 16 17  2  0
  1  2  2  0
  1  5  1  0
  2  3  1  0
  3  4  2  0
  3  9  1  0
  4  5  1  0
  4  6  1  0
  6  7  1  0
  7 18  1  1
  7  8  1  0
 18 19  1  0
 19 20  1  0
 20 21  1  0
 21 22  2  0
 21 26  1  0
 22 23  1  0
 23 24  2  0
 24 25  1  0
 25 26  2  0
  8  9  1  0
  9 10  2  0
M  END
>  <minimizedAffinity>  (430) 
-8.60783

$$$$
data/reference_output_2/data/smiles/125183.pdb
     RDKit          3D

 23 24  0  0  0  0  0  0  0  0999 V2000
   69.3915   47.9922   56.0744 C   0  0  0  0  0  0  0  0  0  0  0  0
   68.9899   47.4585   54.7596 C   0  0  0  0  0  0  0  0  0  0  0  0
   68.1458   46.3632   54.6397 C   0  0  0  0  0  0  0  0  0  0  0  0
   67.7686   45.8372   53.4235 C   0  0  0  0  0  0  0  0  0  0  0  0
   68.2369   46.4029   52.2445 C   0  0  0  0  0  0  0  0  0  0  0  0
   69.0772   47.4906   52.3344 C   0  0  0  0  0  0  0  0  0  0  0  0
   69.4388   47.9981   53.5743 C   0  0  0  0  0  0  0  0  0  0  0  0
   68.5059   49.0591   56.5967 C   0  0  0  0  0  0  0  0  0  0  0  0
   67.4356   48.7550   57.4504 C   0  0  0  0  0  0  0  0  0  0  0  0
   66.5865   49.7042   57.9658 C   0  0  0  0  0  0  0  0  0  0  0  0
   66.8143   51.0166   57.6126 C   0  0  0  0  0  0  0  0  0  0  0  0
   67.8622   51.3362   56.7737 C   0  0  0  0  0  0  0  0  0  0  0  0
   68.7141   50.3762   56.2576 C   0  0  0  0  0  0  0  0  0  0  0  0
   69.4524   45.6393   57.1218 N   0  0  0  0  0  0  0  0  0  0  0  0
   69.7660   47.0220   57.0848 C   0  0  0  0  0  0  0  0  0  0  0  0
   70.4712   47.4137   58.0906 O   0  0  0  0  0  0  0  0  0  0  0  0
   69.8901   44.8163   58.1802 N   0  0  0  0  0  0  0  0  0  0  0  0
   70.2106   43.4522   57.9923 C   0  0  0  0  0  0  0  0  0  0  0  0
   71.3273   42.7373   58.9207 S   0  0  0  0  0  0  0  0  0  0  0  0
   67.5511   41.3676   56.1842 C   0  0  0  0  0  0  0  0  0  0  0  0
   68.2541   42.1514   57.2453 C   0  0  0  0  0  0  0  0  0  0  0  0
   67.7502   42.3386   58.3609 O   0  0  0  0  0  0  0  0  0  0  0  0
   69.5510   42.7140   56.9887 N   0  0  0  0  0  0  0  0  0  0  0  0
 20 21  1  0
 21 22  2  0
 21 23  1  0
 23 18  1  0
 18 19  2  0
 18 17  1  0
 17 14  1  0
 14 15  1  0
 15 16  2  0
 15  1  1  0
  1  2  1  0
  1  8  1  0
  2  3  2  0
  2  7  1  0
  3  4  1  0
  4  5  2  0
  5  6  1  0
  6  7  2  0
  8  9  2  0
  8 13  1  0
  9 10  1  0
 10 11  2  0
 11 12  1  0
 12 13  2  0
M  END
>  <minimizedAffinity>  (431) 
-8.59921

$$$$
data/reference_output_2/data/smiles/125243.pdb
     RDKit          3D

 31 34  0  0  0  0  0  0  0  0999 V2000
   73.1223   47.9358   57.8657 N   0  0  0  0  0  0  0  0  0  0  0  0
   73.0316   46.7849   58.7848 C   0  0  0  0  0  0  0  0  0  0  0  0
   71.6245   46.2509   58.6510 C   0  0  0  0  0  0  0  0  0  0  0  0
   70.7325   47.2142   58.0502 N   0  0  0  0  0  0  0  0  0  0  0  0
   69.6938   46.7495   57.2070 C   0  0  0  0  0  0  0  0  0  0  0  0
   69.5652   45.5166   56.9978 O   0  0  0  0  0  0  0  0  0  0  0  0
   70.8631   48.6235   58.2819 C   0  0  0  0  0  0  0  0  0  0  0  0
   72.3094   48.9546   58.5437 C   0  0  0  0  0  0  0  0  0  0  0  0
   74.5038   48.3785   57.7879 C   0  0  0  0  0  0  0  0  0  0  0  0
   75.3636   50.6003   57.6278 O   0  0  0  0  0  0  0  0  0  0  0  0
   74.5043   49.7705   57.1959 C   0  0  0  0  0  0  0  0  0  0  0  0
   73.6118   50.1803   56.2002 N   0  0  0  0  0  0  0  0  0  0  0  0
   73.5531   51.4630   55.6104 C   0  0  0  0  0  0  0  0  0  0  0  0
   73.0126   52.4969   56.3989 C   0  0  0  0  0  0  0  0  0  0  0  0
   72.8799   53.7939   55.9910 C   0  0  0  0  0  0  0  0  0  0  0  0
   73.3054   54.1110   54.7154 C   0  0  0  0  0  0  0  0  0  0  0  0
   73.8406   53.1315   53.9091 C   0  0  0  0  0  0  0  0  0  0  0  0
   74.2679   53.4156   52.6482 F   0  0  0  0  0  0  0  0  0  0  0  0
   73.9566   51.8202   54.3681 C   0  0  0  0  0  0  0  0  0  0  0  0
   68.7282   47.6691   56.5463 C   0  0  0  0  0  0  0  0  0  0  0  0
   69.2354   47.9980   55.2258 C   0  0  0  0  0  0  0  0  0  0  0  0
   70.1608   48.9714   55.1015 N   0  0  0  0  0  0  0  0  0  0  0  0
   70.6484   49.2954   53.9212 N   0  0  0  0  0  0  0  0  0  0  0  0
   70.2616   48.6895   52.7917 C   0  0  0  0  0  0  0  0  0  0  0  0
   70.7454   49.0158   51.6545 O   0  0  0  0  0  0  0  0  0  0  0  0
   69.3195   47.6823   52.8286 C   0  0  0  0  0  0  0  0  0  0  0  0
   68.8957   47.0358   51.6837 C   0  0  0  0  0  0  0  0  0  0  0  0
   67.9484   46.0462   51.8309 C   0  0  0  0  0  0  0  0  0  0  0  0
   67.4389   45.7105   53.0834 C   0  0  0  0  0  0  0  0  0  0  0  0
   67.8767   46.3674   54.1983 C   0  0  0  0  0  0  0  0  0  0  0  0
   68.8115   47.3510   54.0916 C   0  0  0  0  0  0  0  0  0  0  0  0
 10 11  2  0
 11  9  1  0
 11 12  1  0
  9  1  1  0
  1  2  1  0
  1  8  1  0
  2  3  1  0
  3  4  1  0
  4  5  1  0
  4  7  1  0
  5  6  2  0
  5 20  1  0
 20 21  1  0
 21 22  2  0
 21 31  1  0
 22 23  1  0
 23 24  1  0
 24 25  2  0
 24 26  1  0
 26 27  1  0
 26 31  2  0
 27 28  2  0
 28 29  1  0
 29 30  2  0
 30 31  1  0
  7  8  1  0
 12 13  1  0
 13 14  2  0
 13 19  1  0
 14 15  1  0
 15 16  2  0
 16 17  1  0
 17 18  1  0
 17 19  2  0
M  CHG  1   1   1
M  END
>  <minimizedAffinity>  (432) 
-9.08110

$$$$
data/reference_output_2/data/smiles/125310.pdb
     RDKit          3D

 23 25  0  0  0  0  0  0  0  0999 V2000
   67.9345   43.5138   55.8262 C   0  0  0  0  0  0  0  0  0  0  0  0
   67.6238   42.2361   56.2324 C   0  0  0  0  0  0  0  0  0  0  0  0
   68.3586   41.9042   57.3549 C   0  0  0  0  0  0  0  0  0  0  0  0
   69.1049   42.9936   57.6083 N   0  0  0  0  0  0  0  0  0  0  0  0
   68.8693   43.9412   56.7252 N   0  0  0  0  0  0  0  0  0  0  0  0
   68.3266   40.6368   58.1028 C   0  0  0  0  0  0  0  0  0  0  0  0
   67.1996   40.2432   58.7900 C   0  0  0  0  0  0  0  0  0  0  0  0
   67.1293   39.0658   59.5015 C   0  0  0  0  0  0  0  0  0  0  0  0
   68.2155   38.2503   59.5311 C   0  0  0  0  0  0  0  0  0  0  0  0
   68.1623   37.0736   60.2344 F   0  0  0  0  0  0  0  0  0  0  0  0
   69.3589   38.6217   58.8488 C   0  0  0  0  0  0  0  0  0  0  0  0
   69.4180   39.8109   58.1368 C   0  0  0  0  0  0  0  0  0  0  0  0
   67.4450   44.2637   54.7275 N   0  0  0  0  0  0  0  0  0  0  0  0
   69.2075   47.9048   53.3810 C   0  0  0  0  0  0  0  0  0  0  0  0
   68.7495   46.9481   52.4977 C   0  0  0  0  0  0  0  0  0  0  0  0
   68.1827   45.7692   52.9359 C   0  0  0  0  0  0  0  0  0  0  0  0
   68.0426   45.4820   54.2788 C   0  0  0  0  0  0  0  0  0  0  0  0
   68.4995   46.4367   55.1684 C   0  0  0  0  0  0  0  0  0  0  0  0
   69.0684   47.6196   54.7238 C   0  0  0  0  0  0  0  0  0  0  0  0
   69.8794   49.4809   51.0794 N   0  0  0  0  0  0  0  0  0  0  0  0
   69.9348   49.4011   52.8228 S   0  0  0  0  0  0  0  0  0  0  0  0
   69.2539   50.6004   53.4203 O   0  0  0  0  0  0  0  0  0  0  0  0
   71.3931   49.4910   53.2036 O   0  0  0  0  0  0  0  0  0  0  0  0
 20 21  1  0
 21 22  2  0
 21 23  2  0
 21 14  1  0
 14 15  2  0
 14 19  1  0
 15 16  1  0
 16 17  2  0
 17 13  1  0
 17 18  1  0
 13  1  1  0
  1  2  1  0
  1  5  2  0
  2  3  2  0
  3  6  1  0
  3  4  1  0
  6  7  2  0
  6 12  1  0
  7  8  1  0
  8  9  2  0
  9 10  1  0
  9 11  1  0
 11 12  2  0
  4  5  1  0
 18 19  2  0
M  END
>  <minimizedAffinity>  (433) 
-8.96691

$$$$
data/reference_output_2/data/smiles/125312.pdb
     RDKit          3D

 33 36  0  0  0  0  0  0  0  0999 V2000
   70.6458   43.9943   59.1816 C   0  0  0  0  0  0  0  0  0  0  0  0
   70.7211   45.2981   58.9517 C   0  0  0  0  0  0  0  0  0  0  0  0
   71.3592   46.1172   59.8078 N   0  0  0  0  0  0  0  0  0  0  0  0
   71.4364   47.4415   59.5759 C   0  0  0  0  0  0  0  0  0  0  0  0
   72.0374   48.2240   60.3770 O   0  0  0  0  0  0  0  0  0  0  0  0
   70.8728   48.0289   58.4625 C   0  0  0  0  0  0  0  0  0  0  0  0
   70.9376   49.3285   58.2163 C   0  0  0  0  0  0  0  0  0  0  0  0
   70.2347   47.2098   57.6064 N   0  0  0  0  0  0  0  0  0  0  0  0
   70.1578   45.8863   57.8388 C   0  0  0  0  0  0  0  0  0  0  0  0
   69.5562   45.1373   57.0267 O   0  0  0  0  0  0  0  0  0  0  0  0
   70.3385   49.9364   57.0374 C   0  0  0  0  0  0  0  0  0  0  0  0
   69.5791   51.0760   57.1666 C   0  0  0  0  0  0  0  0  0  0  0  0
   68.9919   51.6843   56.0601 C   0  0  0  0  0  0  0  0  0  0  0  0
   69.1850   51.1167   54.8028 C   0  0  0  0  0  0  0  0  0  0  0  0
   69.9416   49.9746   54.6410 C   0  0  0  0  0  0  0  0  0  0  0  0
   70.4998   49.4147   55.7712 C   0  0  0  0  0  0  0  0  0  0  0  0
   70.1312   49.3911   53.2905 C   0  0  2  0  0  0  0  0  0  0  0  0
   69.7847   50.3226   52.2851 O   0  0  0  0  0  0  0  0  0  0  0  0
   69.3305   48.1672   53.0868 C   0  0  0  0  0  0  0  0  0  0  0  0
   69.1463   47.6501   51.8214 C   0  0  0  0  0  0  0  0  0  0  0  0
   68.4007   46.5054   51.6035 C   0  0  0  0  0  0  0  0  0  0  0  0
   67.8147   45.8421   52.6530 C   0  0  0  0  0  0  0  0  0  0  0  0
   67.9861   46.3426   53.9342 C   0  0  0  0  0  0  0  0  0  0  0  0
   68.7394   47.4960   54.1293 C   0  0  0  0  0  0  0  0  0  0  0  0
   72.2173   42.4094   60.4182 C   0  0  0  0  0  0  0  0  0  0  0  0
   72.4483   42.1989   61.7256 N   0  0  0  0  0  0  0  0  0  0  0  0
   71.6873   42.9927   62.4711 C   0  0  0  0  0  0  0  0  0  0  0  0
   70.9487   43.7341   61.6397 N   0  0  0  0  0  0  0  0  0  0  0  0
   71.2491   43.4005   60.3631 C   0  0  0  0  0  0  0  0  0  0  0  0
   73.9166   40.7887   59.8113 C   0  0  0  0  0  0  0  0  0  0  0  0
   72.8542   41.7326   59.2882 C   0  0  0  0  0  0  0  0  0  0  0  0
   73.5446   42.6875   58.3382 C   0  0  0  0  0  0  0  0  0  0  0  0
   71.8618   40.8708   58.5089 C   0  0  0  0  0  0  0  0  0  0  0  0
 30 31  1  0
 31 32  1  0
 31 33  1  0
 31 25  1  0
 25 26  1  0
 25 29  2  0
 26 27  1  0
 27 28  2  0
 28 29  1  0
 29  1  1  0
  1  2  2  0
  2  3  1  0
  2  9  1  0
  3  4  1  0
  4  5  2  0
  4  6  1  0
  6  7  2  0
  6  8  1  0
  7 11  1  0
 11 12  2  0
 11 16  1  0
 12 13  1  0
 13 14  2  0
 14 15  1  0
 15 17  1  0
 15 16  2  0
 17 18  1  6
 17 19  1  0
 19 20  2  0
 19 24  1  0
 20 21  1  0
 21 22  2  0
 22 23  1  0
 23 24  2  0
  8  9  1  0
  9 10  2  0
M  CHG  1  28   1
M  END
>  <minimizedAffinity>  (434) 
-9.35419

$$$$
data/reference_output_2/data/smiles/125428.pdb
     RDKit          3D

 28 31  0  0  0  0  0  0  0  0999 V2000
   71.4312   50.3707   54.9909 N   0  0  0  0  0  0  0  0  0  0  0  0
   70.9244   49.6512   54.0239 N   0  0  0  0  0  0  0  0  0  0  0  0
   70.0469   48.7154   54.5009 C   0  0  0  0  0  0  0  0  0  0  0  0
   70.0249   48.8792   55.8388 C   0  0  0  0  0  0  0  0  0  0  0  0
   70.8816   49.9105   56.1440 C   0  0  0  0  0  0  0  0  0  0  0  0
   71.0857   50.3966   57.5144 C   0  0  0  0  0  0  0  0  0  0  0  0
   70.5330   49.5045   58.5909 C   0  0  0  0  0  0  0  0  0  0  0  0
   70.3518   48.1277   57.9978 N   0  0  0  0  0  0  0  0  0  0  0  0
   71.1634   47.1403   58.4914 C   0  0  0  0  0  0  0  0  0  0  0  0
   71.9726   47.6600   59.4597 O   0  0  0  0  0  0  0  0  0  0  0  0
   69.3351   48.1538   56.9677 C   0  0  0  0  0  0  0  0  0  0  0  0
   71.4231   45.7586   58.3006 C   0  0  0  0  0  0  0  0  0  0  0  0
   70.4587   44.7980   58.0857 C   0  0  0  0  0  0  0  0  0  0  0  0
   70.7709   43.4542   57.8722 C   0  0  0  0  0  0  0  0  0  0  0  0
   72.0738   43.0208   57.8707 C   0  0  0  0  0  0  0  0  0  0  0  0
   72.4152   41.7388   57.6648 F   0  0  0  0  0  0  0  0  0  0  0  0
   73.0565   43.9667   58.0859 C   0  0  0  0  0  0  0  0  0  0  0  0
   72.7584   45.2976   58.2960 C   0  0  0  0  0  0  0  0  0  0  0  0
   69.2884   47.7894   53.6642 C   0  0  0  0  0  0  0  0  0  0  0  0
   69.3252   47.7921   52.3030 C   0  0  0  0  0  0  0  0  0  0  0  0
   68.5785   46.8779   51.5382 C   0  0  0  0  0  0  0  0  0  0  0  0
   67.7845   45.9451   52.1451 C   0  0  0  0  0  0  0  0  0  0  0  0
   67.7359   45.9300   53.5194 C   0  0  0  0  0  0  0  0  0  0  0  0
   68.4730   46.8351   54.2786 C   0  0  0  0  0  0  0  0  0  0  0  0
   72.3885   51.4413   54.8164 C   0  0  0  0  0  0  0  0  0  0  0  0
   74.0481   50.1824   53.6395 O   0  0  0  0  0  0  0  0  0  0  0  0
   73.7451   50.9241   54.5960 C   0  0  0  0  0  0  0  0  0  0  0  0
   74.7533   51.2880   55.5137 O   0  0  0  0  0  0  0  0  0  0  0  0
 26 27  2  0
 27 28  1  0
 27 25  1  0
 25  1  1  0
  1  2  1  0
  1  5  1  0
  2  3  2  0
  3 19  1  0
  3  4  1  0
 19 20  2  0
 19 24  1  0
 20 21  1  0
 21 22  2  0
 22 23  1  0
 23 24  2  0
  4  5  2  0
  4 11  1  0
  5  6  1  0
  6  7  1  0
  7  8  1  0
  8  9  1  0
  8 11  1  0
  9 10  2  0
  9 12  1  0
 12 13  2  0
 12 18  1  0
 13 14  1  0
 14 15  2  0
 15 16  1  0
 15 17  1  0
 17 18  2  0
M  END
>  <minimizedAffinity>  (435) 
-8.59741

$$$$
data/reference_output_2/data/smiles/125675.pdb
     RDKit          3D

 28 30  0  0  0  0  0  0  0  0999 V2000
   69.8513   50.8638   55.0013 C   0  0  1  0  0  0  0  0  0  0  0  0
   70.1409   50.2174   53.3478 S   0  0  0  0  0  0  0  0  0  0  0  0
   69.3800   48.5749   53.3379 C   0  0  0  0  0  0  0  0  0  0  0  0
   69.1951   47.9790   52.1022 C   0  0  0  0  0  0  0  0  0  0  0  0
   68.6212   46.7326   52.0379 C   0  0  0  0  0  0  0  0  0  0  0  0
   68.2278   46.0672   53.1809 C   0  0  0  0  0  0  0  0  0  0  0  0
   68.4196   46.6732   54.3900 C   0  0  0  0  0  0  0  0  0  0  0  0
   69.0039   47.9497   54.4931 C   0  0  0  0  0  0  0  0  0  0  0  0
   69.1756   48.5076   55.8137 N   0  0  0  0  0  0  0  0  0  0  0  0
   69.7632   49.7720   55.9940 C   0  0  0  0  0  0  0  0  0  0  0  0
   70.2828   50.0236   57.1344 O   0  0  0  0  0  0  0  0  0  0  0  0
   71.0242   51.7957   55.3251 C   0  0  0  0  0  0  0  0  0  0  0  0
   72.4426   52.4525   53.5132 O   0  0  0  0  0  0  0  0  0  0  0  0
   72.1253   51.5452   54.3524 C   0  0  0  0  0  0  0  0  0  0  0  0
   72.8304   50.3149   54.3431 N   0  0  0  0  0  0  0  0  0  0  0  0
   73.8210   50.1452   53.4368 O   0  0  0  0  0  0  0  0  0  0  0  0
   68.7375   47.7458   56.9778 C   0  0  0  0  0  0  0  0  0  0  0  0
   69.7722   46.7238   57.3783 C   0  0  0  0  0  0  0  0  0  0  0  0
   70.8792   47.1216   57.8101 O   0  0  0  0  0  0  0  0  0  0  0  0
   69.4484   45.3636   57.2476 N   0  0  0  0  0  0  0  0  0  0  0  0
   70.3051   44.2888   57.5767 C   0  0  0  0  0  0  0  0  0  0  0  0
   71.5818   44.4125   58.0624 C   0  0  0  0  0  0  0  0  0  0  0  0
   72.3514   43.2756   58.3591 C   0  0  0  0  0  0  0  0  0  0  0  0
   73.6095   43.4686   58.8375 F   0  0  0  0  0  0  0  0  0  0  0  0
   71.8474   42.0292   58.1730 C   0  0  0  0  0  0  0  0  0  0  0  0
   70.5794   41.9086   57.6919 C   0  0  0  0  0  0  0  0  0  0  0  0
   69.8122   43.0042   57.3950 C   0  0  0  0  0  0  0  0  0  0  0  0
   68.5445   42.8792   56.9139 F   0  0  0  0  0  0  0  0  0  0  0  0
 13 14  2  0
 14 12  1  0
 14 15  1  0
  1 12  1  1
  1  2  1  0
  1 10  1  0
  2  3  1  0
  3  4  1  0
  3  8  2  0
  4  5  2  0
  5  6  1  0
  6  7  2  0
  7  8  1  0
  8  9  1  0
  9 17  1  0
  9 10  1  0
 17 18  1  0
 18 19  2  0
 18 20  1  0
 20 21  1  0
 21 22  2  0
 21 27  1  0
 22 23  1  0
 23 24  1  0
 23 25  2  0
 25 26  1  0
 26 27  2  0
 27 28  1  0
 10 11  2  0
 15 16  1  0
M  END
>  <minimizedAffinity>  (436) 
-8.55149

$$$$
data/reference_output_2/data/smiles/125859.pdb
     RDKit          3D

 22 24  0  0  0  0  0  0  0  0999 V2000
   70.3014   46.3584   57.6689 O   0  0  0  0  0  0  0  0  0  0  0  0
   69.4016   46.2873   56.8007 C   0  0  0  0  0  0  0  0  0  0  0  0
   68.8561   45.0019   56.5221 N   0  0  0  0  0  0  0  0  0  0  0  0
   69.3231   43.8695   57.2043 N   0  0  0  0  0  0  0  0  0  0  0  0
   68.7896   42.7001   57.0753 C   0  0  0  0  0  0  0  0  0  0  0  0
   67.6489   42.3848   56.2232 C   0  0  0  0  0  0  0  0  0  0  0  0
   67.0560   43.2342   55.5116 O   0  0  0  0  0  0  0  0  0  0  0  0
   67.4080   41.0059   56.3898 N   0  0  0  0  0  0  0  0  0  0  0  0
   68.3308   40.4216   57.3004 C   0  0  0  0  0  0  0  0  0  0  0  0
   68.4806   39.1222   57.7655 C   0  0  0  0  0  0  0  0  0  0  0  0
   69.4779   38.8096   58.6661 C   0  0  0  0  0  0  0  0  0  0  0  0
   70.3061   39.8322   59.0768 C   0  0  0  0  0  0  0  0  0  0  0  0
   70.1569   41.1317   58.6105 C   0  0  0  0  0  0  0  0  0  0  0  0
   69.1585   41.4418   57.7104 C   0  0  0  0  0  0  0  0  0  0  0  0
   68.9613   47.5256   56.1241 C   0  0  0  0  0  0  0  0  0  0  0  0
   68.7196   47.2151   54.6949 C   0  0  0  0  0  0  0  0  0  0  0  0
   69.3859   47.9178   53.6999 C   0  0  0  0  0  0  0  0  0  0  0  0
   69.1693   47.6386   52.3765 C   0  0  0  0  0  0  0  0  0  0  0  0
   68.2856   46.6522   51.9778 C   0  0  0  0  0  0  0  0  0  0  0  0
   68.0672   46.3711   50.6680 F   0  0  0  0  0  0  0  0  0  0  0  0
   67.6204   45.9493   52.9533 C   0  0  0  0  0  0  0  0  0  0  0  0
   67.8445   46.2380   54.2793 C   0  0  0  0  0  0  0  0  0  0  0  0
  1  2  2  0
  2 15  1  0
  2  3  1  0
 15 16  1  0
 16 17  2  0
 16 22  1  0
 17 18  1  0
 18 19  2  0
 19 20  1  0
 19 21  1  0
 21 22  2  0
  3  4  1  0
  4  5  2  0
  5  6  1  0
  5 14  1  0
  6  7  2  0
  6  8  1  0
  8  9  1  0
  9 10  1  0
  9 14  2  0
 10 11  2  0
 11 12  1  0
 12 13  2  0
 13 14  1  0
M  END
>  <minimizedAffinity>  (437) 
-8.52308

$$$$
data/reference_output_2/data/smiles/126005.pdb
     RDKit          3D

 25 27  0  0  0  0  0  0  0  0999 V2000
   70.4778   49.6200   53.9659 C   0  0  0  0  0  0  0  0  0  0  0  0
   69.9940   49.1066   55.1553 C   0  0  0  0  0  0  0  0  0  0  0  0
   69.1920   48.0196   55.2282 N   0  0  0  0  0  0  0  0  0  0  0  0
   68.8000   47.3460   54.1400 C   0  0  0  0  0  0  0  0  0  0  0  0
   67.9921   46.2267   54.2021 C   0  0  0  0  0  0  0  0  0  0  0  0
   67.6084   45.5400   53.0450 C   0  0  0  0  0  0  0  0  0  0  0  0
   68.0639   46.0168   51.8362 C   0  0  0  0  0  0  0  0  0  0  0  0
   68.8695   47.1329   51.7889 C   0  0  0  0  0  0  0  0  0  0  0  0
   69.2551   47.8192   52.9207 C   0  0  0  0  0  0  0  0  0  0  0  0
   70.0807   48.9398   52.8362 C   0  0  0  0  0  0  0  0  0  0  0  0
   70.4562   49.3146   51.7102 O   0  0  0  0  0  0  0  0  0  0  0  0
   72.6122   50.9152   54.5241 N   0  0  0  0  0  0  0  0  0  0  0  0
   71.3384   50.7971   53.9692 C   0  0  0  0  0  0  0  0  0  0  0  0
   70.8832   51.8415   53.4034 O   0  0  0  0  0  0  0  0  0  0  0  0
   72.7815   53.6722   55.4060 C   0  0  0  0  0  0  0  0  0  0  0  0
   73.5436   52.3734   54.4658 S   0  0  0  0  0  0  0  0  0  0  0  0
   73.7194   52.7909   53.0413 O   0  0  0  0  0  0  0  0  0  0  0  0
   74.9052   52.1165   55.0478 O   0  0  0  0  0  0  0  0  0  0  0  0
   68.6990   47.5829   56.5349 C   0  0  0  0  0  0  0  0  0  0  0  0
   69.7634   46.9765   57.3777 C   0  0  0  0  0  0  0  0  0  0  0  0
   70.5896   47.6518   58.2297 C   0  0  0  0  0  0  0  0  0  0  0  0
   71.5505   47.0037   58.9666 C   0  0  0  0  0  0  0  0  0  0  0  0
   71.7247   45.6232   58.8761 C   0  0  0  0  0  0  0  0  0  0  0  0
   70.8855   44.9500   58.0140 C   0  0  0  0  0  0  0  0  0  0  0  0
   69.9247   45.5892   57.2761 C   0  0  0  0  0  0  0  0  0  0  0  0
 15 16  1  0
 16 17  2  0
 16 18  2  0
 16 12  1  0
 12 13  1  0
 13 14  2  0
 13  1  1  0
  1  2  2  0
  1 10  1  0
  2  3  1  0
  3 19  1  0
  3  4  1  0
 19 20  1  0
 20 21  2  0
 20 25  1  0
 21 22  1  0
 22 23  2  0
 23 24  1  0
 24 25  2  0
  4  5  1  0
  4  9  2  0
  5  6  2  0
  6  7  1  0
  7  8  2  0
  8  9  1  0
  9 10  1  0
 10 11  2  0
M  END
>  <minimizedAffinity>  (438) 
-8.60312

$$$$
data/reference_output_2/data/smiles/126049.pdb
     RDKit          3D

 25 28  0  0  0  0  0  0  0  0999 V2000
   68.2238   43.8428   56.2578 N   0  0  0  0  0  0  0  0  0  0  0  0
   69.2723   43.3605   57.0637 C   0  0  0  0  0  0  0  0  0  0  0  0
   70.3493   43.9885   57.0663 O   0  0  0  0  0  0  0  0  0  0  0  0
   69.1544   42.1504   57.9040 C   0  0  1  0  0  0  0  0  0  0  0  0
   70.4942   41.4988   58.1074 C   0  0  0  0  0  0  0  0  0  0  0  0
   70.3255   40.2270   58.9061 C   0  0  2  0  0  0  0  0  0  0  0  0
   69.4121   39.2527   58.1640 C   0  0  0  0  0  0  0  0  0  0  0  0
   68.0703   39.8980   57.9484 C   0  0  1  0  0  0  0  0  0  0  0  0
   67.4129   40.3017   59.2487 C   0  0  0  0  0  0  0  0  0  0  0  0
   68.3669   41.1759   60.0156 C   0  0  1  0  0  0  0  0  0  0  0  0
   69.6935   40.4812   60.2491 C   0  0  0  0  0  0  0  0  0  0  0  0
   68.5755   42.4622   59.2636 C   0  0  0  0  0  0  0  0  0  0  0  0
   68.2839   41.1626   57.1443 C   0  0  0  0  0  0  0  0  0  0  0  0
   68.5531   47.3421   53.9076 C   0  0  0  0  0  0  0  0  0  0  0  0
   69.0105   47.2819   55.2187 C   0  0  0  0  0  0  0  0  0  0  0  0
   68.8979   46.1287   55.9826 C   0  0  0  0  0  0  0  0  0  0  0  0
   68.3211   45.0020   55.4457 C   0  0  0  0  0  0  0  0  0  0  0  0
   67.8640   45.0481   54.1492 C   0  0  0  0  0  0  0  0  0  0  0  0
   67.9793   46.2007   53.3901 C   0  0  0  0  0  0  0  0  0  0  0  0
   67.5263   46.2520   52.1006 F   0  0  0  0  0  0  0  0  0  0  0  0
   68.6914   48.5219   53.1893 O   0  0  0  0  0  0  0  0  0  0  0  0
   70.1375   47.1900   51.2348 N   0  0  0  0  0  0  0  0  0  0  0  0
   70.0370   48.6409   52.1450 S   0  0  0  0  0  0  0  0  0  0  0  0
   71.2971   48.9329   52.8980 O   0  0  0  0  0  0  0  0  0  0  0  0
   69.7245   49.7614   51.1774 O   0  0  0  0  0  0  0  0  0  0  0  0
 22 23  1  0
 23 24  2  0
 23 25  2  0
 23 21  1  0
 21 14  1  0
 14 15  2  0
 14 19  1  0
 15 16  1  0
 16 17  2  0
 17  1  1  0
 17 18  1  0
  1  2  1  0
  2  3  2  0
  4  2  1  6
  4  5  1  0
  4 12  1  0
  4 13  1  0
  6  5  1  6
  6  7  1  0
  6 11  1  0
  8  7  1  1
  8  9  1  0
  8 13  1  0
 10  9  1  6
 10 11  1  0
 10 12  1  0
 18 19  2  0
 19 20  1  0
M  END
>  <minimizedAffinity>  (439) 
-8.81074

$$$$
data/reference_output_2/data/smiles/126097.pdb
     RDKit          3D

 23 25  0  0  0  0  0  0  0  0999 V2000
   68.3186   43.8461   56.0630 C   0  0  0  0  0  0  0  0  0  0  0  0
   69.2801   44.6038   56.6745 N   0  0  0  0  0  0  0  0  0  0  0  0
   70.0702   44.0908   57.6330 C   0  0  0  0  0  0  0  0  0  0  0  0
   71.0373   44.8961   58.2261 C   0  0  0  0  0  0  0  0  0  0  0  0
   71.8531   44.3879   59.2059 C   0  0  0  0  0  0  0  0  0  0  0  0
   71.7255   43.0727   59.6153 C   0  0  0  0  0  0  0  0  0  0  0  0
   70.7775   42.2826   59.0337 C   0  0  0  0  0  0  0  0  0  0  0  0
   69.9527   42.7727   58.0521 C   0  0  0  0  0  0  0  0  0  0  0  0
   69.0080   42.0248   57.4537 N   0  0  0  0  0  0  0  0  0  0  0  0
   68.2080   42.5500   56.4786 C   0  0  0  0  0  0  0  0  0  0  0  0
   67.1751   41.7102   55.8572 C   0  0  0  0  0  0  0  0  0  0  0  0
   65.9550   42.0660   55.8178 O   0  0  0  0  0  0  0  0  0  0  0  0
   67.4950   40.4949   55.2879 O   0  0  0  0  0  0  0  0  0  0  0  0
   67.5065   44.4414   55.0656 N   0  0  0  0  0  0  0  0  0  0  0  0
   69.2654   47.5913   52.7355 C   0  0  0  0  0  0  0  0  0  0  0  0
   68.6889   46.4787   52.1549 C   0  0  0  0  0  0  0  0  0  0  0  0
   68.1099   45.4780   52.8977 C   0  0  0  0  0  0  0  0  0  0  0  0
   68.0638   45.5121   54.2753 C   0  0  0  0  0  0  0  0  0  0  0  0
   68.6418   46.6299   54.8763 C   0  0  0  0  0  0  0  0  0  0  0  0
   69.2216   47.6356   54.1356 C   0  0  0  0  0  0  0  0  0  0  0  0
   70.5318   48.3611   50.9424 O   0  0  0  0  0  0  0  0  0  0  0  0
   69.8883   48.6588   51.9727 C   0  0  0  0  0  0  0  0  0  0  0  0
   69.8134   49.9973   52.3257 O   0  0  0  0  0  0  0  0  0  0  0  0
 21 22  2  0
 22 23  1  0
 22 15  1  0
 15 16  2  0
 15 20  1  0
 16 17  1  0
 17 18  2  0
 18 14  1  0
 18 19  1  0
 14  1  1  0
  1  2  2  0
  1 10  1  0
  2  3  1  0
  3  4  2  0
  3  8  1  0
  4  5  1  0
  5  6  2  0
  6  7  1  0
  7  8  2  0
  8  9  1  0
  9 10  2  0
 10 11  1  0
 11 12  2  0
 11 13  1  0
 19 20  2  0
M  END
>  <minimizedAffinity>  (440) 
-8.73023

$$$$
data/reference_output_2/data/smiles/126120.pdb
     RDKit          3D

 23 25  0  0  0  0  0  0  0  0999 V2000
   68.6101   47.3938   56.8206 C   0  0  0  0  0  0  0  0  0  0  0  0
   69.2975   46.6915   57.7896 N   0  0  0  0  0  0  0  0  0  0  0  0
   69.5615   45.4879   57.3657 N   0  0  0  0  0  0  0  0  0  0  0  0
   69.0892   45.3520   56.1687 N   0  0  0  0  0  0  0  0  0  0  0  0
   68.5007   46.5324   55.8332 N   0  0  0  0  0  0  0  0  0  0  0  0
   70.3099   49.6923   56.0891 F   0  0  0  0  0  0  0  0  0  0  0  0
   69.1140   49.8181   56.6678 C   0  0  0  0  0  0  0  0  0  0  0  0
   68.2990   48.7978   57.0153 C   0  0  0  0  0  0  0  0  0  0  0  0
   67.0378   49.0966   57.5762 C   0  0  0  0  0  0  0  0  0  0  0  0
   66.5930   50.3655   57.7923 C   0  0  0  0  0  0  0  0  0  0  0  0
   67.4371   51.3931   57.4342 C   0  0  0  0  0  0  0  0  0  0  0  0
   68.6693   51.1366   56.8840 C   0  0  0  0  0  0  0  0  0  0  0  0
   69.5677   52.2609   56.5039 C   0  0  0  0  0  0  0  0  0  0  0  0
   68.9359   53.4371   56.8472 F   0  0  0  0  0  0  0  0  0  0  0  0
   70.7645   52.2227   57.2065 F   0  0  0  0  0  0  0  0  0  0  0  0
   69.8536   52.1996   55.1516 F   0  0  0  0  0  0  0  0  0  0  0  0
   67.8919   46.6264   54.5354 C   0  0  0  0  0  0  0  0  0  0  0  0
   68.6797   47.2829   53.5035 C   0  0  0  0  0  0  0  0  0  0  0  0
   69.1157   48.5718   53.5780 C   0  0  0  0  0  0  0  0  0  0  0  0
   69.8543   49.1247   52.5566 C   0  0  0  0  0  0  0  0  0  0  0  0
   70.1688   48.3883   51.4375 C   0  0  0  0  0  0  0  0  0  0  0  0
   69.7461   47.1168   51.3524 N   0  0  0  0  0  0  0  0  0  0  0  0
   69.0263   46.5828   52.3500 C   0  0  0  0  0  0  0  0  0  0  0  0
  6  7  1  0
  7  8  2  0
  7 12  1  0
  8  1  1  0
  8  9  1  0
  1  2  2  0
  1  5  1  0
  2  3  1  0
  3  4  2  0
  4  5  1  0
  5 17  1  0
 17 18  1  0
 18 19  2  0
 18 23  1  0
 19 20  1  0
 20 21  2  0
 21 22  1  0
 22 23  2  0
  9 10  2  0
 10 11  1  0
 11 12  2  0
 12 13  1  0
 13 14  1  0
 13 15  1  0
 13 16  1  0
M  END
>  <minimizedAffinity>  (441) 
-8.53858

$$$$
data/reference_output_2/data/smiles/126230.pdb
     RDKit          3D

 28 32  0  0  0  0  0  0  0  0999 V2000
   76.4545   34.4180   55.9191 C   0  0  0  0  0  0  0  0  0  0  0  0
   75.2049   34.8195   55.2146 C   0  0  0  0  0  0  0  0  0  0  0  0
   75.2137   35.5156   54.0574 N   0  0  0  0  0  0  0  0  0  0  0  0
   73.9281   35.7050   53.7076 C   0  0  0  0  0  0  0  0  0  0  0  0
   73.1289   35.1292   54.6429 C   0  0  0  0  0  0  0  0  0  0  0  0
   73.9334   34.5872   55.5662 N   0  0  0  0  0  0  0  0  0  0  0  0
   76.3120   36.0004   53.2823 C   0  0  0  0  0  0  0  0  0  0  0  0
   76.3580   35.4335   51.9135 C   0  0  0  0  0  0  0  0  0  0  0  0
   75.4982   34.4322   51.5086 C   0  0  0  0  0  0  0  0  0  0  0  0
   75.5370   33.8992   50.2299 C   0  0  0  0  0  0  0  0  0  0  0  0
   76.4558   34.3651   49.3100 C   0  0  0  0  0  0  0  0  0  0  0  0
   76.4996   33.8385   48.0356 C   0  0  0  0  0  0  0  0  0  0  0  0
   77.4202   34.3130   47.1314 C   0  0  0  0  0  0  0  0  0  0  0  0
   78.2886   35.3264   47.5431 C   0  0  0  0  0  0  0  0  0  0  0  0
   78.2207   35.8330   48.8224 C   0  0  0  0  0  0  0  0  0  0  0  0
   77.3058   35.3699   49.7442 C   0  0  0  0  0  0  0  0  0  0  0  0
   77.2443   35.8722   51.0005 N   0  0  0  0  0  0  0  0  0  0  0  0
   73.5304   33.8577   56.7693 C   0  0  0  0  0  0  0  0  0  0  0  0
   72.6898   34.7362   57.6369 C   0  0  0  0  0  0  0  0  0  0  0  0
   72.0291   34.1749   58.6945 C   0  0  0  0  0  0  0  0  0  0  0  0
   71.2353   34.9394   59.5326 C   0  0  0  0  0  0  0  0  0  0  0  0
   71.1083   36.2913   59.2995 C   0  0  0  0  0  0  0  0  0  0  0  0
   70.3297   37.0818   60.1099 C   0  0  0  0  0  0  0  0  0  0  0  0
   70.2175   38.4427   59.8540 C   0  0  0  0  0  0  0  0  0  0  0  0
   70.8743   39.0194   58.7983 C   0  0  0  0  0  0  0  0  0  0  0  0
   71.6495   38.2329   57.9917 C   0  0  0  0  0  0  0  0  0  0  0  0
   71.7661   36.8737   58.2408 C   0  0  0  0  0  0  0  0  0  0  0  0
   72.5568   36.0827   57.4128 C   0  0  0  0  0  0  0  0  0  0  0  0
  1  2  1  0
  2  3  1  0
  2  6  2  0
  3  7  1  0
  3  4  1  0
  7  8  1  0
  8  9  2  0
  8 17  1  0
  9 10  1  0
 10 11  2  0
 11 12  1  0
 11 16  1  0
 12 13  2  0
 13 14  1  0
 14 15  2  0
 15 16  1  0
 16 17  2  0
  4  5  2  0
  5  6  1  0
  6 18  1  0
 18 19  1  0
 19 20  2  0
 19 28  1  0
 20 21  1  0
 21 22  2  0
 22 23  1  0
 22 27  1  0
 23 24  2  0
 24 25  1  0
 25 26  2  0
 26 27  1  0
 27 28  2  0
M  CHG  1   6   1
M  END
>  <minimizedAffinity>  (442) 
-9.56864

$$$$
data/reference_output_2/data/smiles/126619.pdb
     RDKit          3D

 29 32  0  0  0  0  0  0  0  0999 V2000
   68.1028   41.1427   58.1996 C   0  0  2  0  0  0  0  0  0  0  0  0
   69.4824   40.8383   58.6692 C   0  0  0  0  0  0  0  0  0  0  0  0
   70.4306   41.5991   59.0169 O   0  0  0  0  0  0  0  0  0  0  0  0
   69.3180   39.4327   58.5758 N   0  0  0  0  0  0  0  0  0  0  0  0
   67.9575   39.6349   58.2086 C   0  0  1  0  0  0  0  0  0  0  0  0
   70.2135   38.3601   58.7716 C   0  0  0  0  0  0  0  0  0  0  0  0
   70.0294   37.4955   59.8241 C   0  0  0  0  0  0  0  0  0  0  0  0
   70.9053   36.4585   60.0028 C   0  0  0  0  0  0  0  0  0  0  0  0
   71.9751   36.2475   59.1608 C   0  0  0  0  0  0  0  0  0  0  0  0
   72.1716   37.1033   58.1039 C   0  0  0  0  0  0  0  0  0  0  0  0
   71.3047   38.1509   57.9063 C   0  0  0  0  0  0  0  0  0  0  0  0
   66.8926   39.2131   59.1069 C   0  0  0  0  0  0  0  0  0  0  0  0
   66.2457   40.0591   59.9793 C   0  0  0  0  0  0  0  0  0  0  0  0
   65.2289   39.6405   60.8301 C   0  0  0  0  0  0  0  0  0  0  0  0
   64.8580   38.3552   60.8048 N   0  0  0  0  0  0  0  0  0  0  0  0
   65.4460   37.4877   59.9819 C   0  0  0  0  0  0  0  0  0  0  0  0
   66.4745   37.9048   59.1197 C   0  0  0  0  0  0  0  0  0  0  0  0
   67.9554   43.1639   56.7501 N   0  0  0  0  0  0  0  0  0  0  0  0
   68.0223   41.7619   56.8781 C   0  0  0  0  0  0  0  0  0  0  0  0
   68.0119   41.0393   55.8588 O   0  0  0  0  0  0  0  0  0  0  0  0
   68.7229   45.7280   56.2509 O   0  0  0  0  0  0  0  0  0  0  0  0
   68.2884   45.0795   55.2391 C   0  0  0  0  0  0  0  0  0  0  0  0
   67.8784   43.7389   55.4573 N   0  0  0  0  0  0  0  0  0  0  0  0
   68.2489   45.7558   53.9623 C   0  0  0  0  0  0  0  0  0  0  0  0
   67.5595   45.2649   52.8792 C   0  0  0  0  0  0  0  0  0  0  0  0
   67.5424   45.9462   51.6571 C   0  0  0  0  0  0  0  0  0  0  0  0
   68.2015   47.1039   51.5073 N   0  0  0  0  0  0  0  0  0  0  0  0
   68.8749   47.5910   52.5560 C   0  0  0  0  0  0  0  0  0  0  0  0
   68.9176   46.9523   53.7766 C   0  0  0  0  0  0  0  0  0  0  0  0
 21 22  2  0
 22 23  1  0
 22 24  1  0
 23 18  1  0
 18 19  1  0
 19 20  2  0
  1 19  1  6
  1  2  1  0
  1  5  1  0
  2  3  2  0
  2  4  1  0
  4  6  1  0
  4  5  1  0
  6  7  2  0
  6 11  1  0
  7  8  1  0
  8  9  2  0
  9 10  1  0
 10 11  2  0
  5 12  1  1
 12 13  2  0
 12 17  1  0
 13 14  1  0
 14 15  2  0
 15 16  1  0
 16 17  2  0
 24 25  2  0
 24 29  1  0
 25 26  1  0
 26 27  2  0
 27 28  1  0
 28 29  2  0
M  END
>  <minimizedAffinity>  (443) 
-9.08476

$$$$
data/reference_output_2/data/smiles/126624.pdb
     RDKit          3D

 26 29  0  0  0  0  0  0  0  0999 V2000
   69.3747   47.1110   56.7574 C   0  0  0  0  0  0  0  0  0  0  0  0
   69.9940   48.2085   57.2596 C   0  0  0  0  0  0  0  0  0  0  0  0
   71.0514   48.0836   58.1604 C   0  0  0  0  0  0  0  0  0  0  0  0
   71.4631   46.8133   58.5396 C   0  0  0  0  0  0  0  0  0  0  0  0
   70.8673   45.6759   58.0579 C   0  0  0  0  0  0  0  0  0  0  0  0
   69.8190   45.8462   57.1632 C   0  0  0  0  0  0  0  0  0  0  0  0
   69.2165   44.7170   56.6766 F   0  0  0  0  0  0  0  0  0  0  0  0
   67.1393   47.5298   56.2735 O   0  0  0  0  0  0  0  0  0  0  0  0
   68.2627   47.1283   55.8337 C   0  0  0  0  0  0  0  0  0  0  0  0
   68.3604   46.7128   54.4606 C   0  0  0  0  0  0  0  0  0  0  0  0
   67.8785   45.6565   53.7586 C   0  0  0  0  0  0  0  0  0  0  0  0
   68.3020   45.7611   52.4656 N   0  0  0  0  0  0  0  0  0  0  0  0
   69.0452   46.8604   52.3158 C   0  0  0  0  0  0  0  0  0  0  0  0
   69.6799   47.3853   51.2270 N   0  0  0  0  0  0  0  0  0  0  0  0
   70.3565   48.5151   51.3946 C   0  0  0  0  0  0  0  0  0  0  0  0
   70.4451   49.1556   52.5623 N   0  0  0  0  0  0  0  0  0  0  0  0
   69.8155   48.6336   53.6348 C   0  0  0  0  0  0  0  0  0  0  0  0
   69.0984   47.4656   53.5282 C   0  0  0  0  0  0  0  0  0  0  0  0
   71.2438   44.3631   58.4378 N   0  0  0  0  0  0  0  0  0  0  0  0
   70.6635   43.5546   59.8129 S   0  0  0  0  0  0  0  0  0  0  0  0
   71.2529   44.1033   61.0881 O   0  0  0  0  0  0  0  0  0  0  0  0
   69.1747   43.8457   59.9030 O   0  0  0  0  0  0  0  0  0  0  0  0
   70.8395   41.8322   59.6771 C   0  0  0  0  0  0  0  0  0  0  0  0
   70.3515   41.2226   58.3559 C   0  0  0  0  0  0  0  0  0  0  0  0
   71.4956   40.2141   58.5382 C   0  0  0  0  0  0  0  0  0  0  0  0
   72.2371   41.3594   59.2435 C   0  0  0  0  0  0  0  0  0  0  0  0
  8  9  2  0
  9  1  1  0
  9 10  1  0
  1  2  2  0
  1  6  1  0
  2  3  1  0
  3  4  2  0
  4  5  1  0
  5 19  1  0
  5  6  2  0
 19 20  1  0
 20 21  2  0
 20 22  2  0
 20 23  1  0
 23 24  1  0
 23 26  1  0
 24 25  1  0
 25 26  1  0
  6  7  1  0
 10 11  2  0
 10 18  1  0
 11 12  1  0
 12 13  1  0
 13 14  1  0
 13 18  2  0
 14 15  2  0
 15 16  1  0
 16 17  2  0
 17 18  1  0
M  END
>  <minimizedAffinity>  (444) 
-8.71147

$$$$
data/reference_output_2/data/smiles/126648.pdb
     RDKit          3D

 24 26  0  0  0  0  0  0  0  0999 V2000
   69.4993   44.9116   56.7887 N   0  0  0  0  0  0  0  0  0  0  0  0
   69.7482   45.9855   57.6653 C   0  0  0  0  0  0  0  0  0  0  0  0
   69.8706   45.7195   58.9003 O   0  0  0  0  0  0  0  0  0  0  0  0
   68.9470   40.7663   57.6724 C   0  0  0  0  0  0  0  0  0  0  0  0
   68.0765   41.4935   56.8998 C   0  0  0  0  0  0  0  0  0  0  0  0
   68.2761   42.8267   56.6299 C   0  0  0  0  0  0  0  0  0  0  0  0
   69.3771   43.5451   57.1182 C   0  0  0  0  0  0  0  0  0  0  0  0
   70.2473   42.8139   57.8916 C   0  0  0  0  0  0  0  0  0  0  0  0
   70.0306   41.4516   58.1594 C   0  0  0  0  0  0  0  0  0  0  0  0
   69.5892   38.5197   58.6611 N   0  0  0  0  0  0  0  0  0  0  0  0
   68.7063   39.3582   57.9380 C   0  0  0  0  0  0  0  0  0  0  0  0
   67.6490   38.8459   57.5014 O   0  0  0  0  0  0  0  0  0  0  0  0
   69.8708   47.4077   57.2222 C   0  0  0  0  0  0  0  0  0  0  0  0
   69.0362   47.8085   56.2108 O   0  0  0  0  0  0  0  0  0  0  0  0
   69.2922   48.1057   54.9079 C   0  0  0  0  0  0  0  0  0  0  0  0
   70.0496   49.1879   54.5383 C   0  0  0  0  0  0  0  0  0  0  0  0
   70.3008   49.4840   53.1965 C   0  0  0  0  0  0  0  0  0  0  0  0
   69.7814   48.6785   52.2170 C   0  0  0  0  0  0  0  0  0  0  0  0
   69.0186   47.5874   52.5643 C   0  0  0  0  0  0  0  0  0  0  0  0
   68.5019   46.7835   51.5850 C   0  0  0  0  0  0  0  0  0  0  0  0
   67.7304   45.6787   51.8820 C   0  0  0  0  0  0  0  0  0  0  0  0
   67.4914   45.3998   53.2058 C   0  0  0  0  0  0  0  0  0  0  0  0
   68.0041   46.1979   54.2036 C   0  0  0  0  0  0  0  0  0  0  0  0
   68.7757   47.3037   53.9133 C   0  0  0  0  0  0  0  0  0  0  0  0
 10 11  1  0
 11 12  2  0
 11  4  1  0
  4  5  2  0
  4  9  1  0
  5  6  1  0
  6  7  2  0
  7  1  1  0
  7  8  1  0
  1  2  1  0
  2  3  2  0
  2 13  1  0
 13 14  1  0
 14 15  1  0
 15 16  2  0
 15 24  1  0
 16 17  1  0
 17 18  2  0
 18 19  1  0
 19 20  1  0
 19 24  2  0
 20 21  2  0
 21 22  1  0
 22 23  2  0
 23 24  1  0
  8  9  2  0
M  END
>  <minimizedAffinity>  (445) 
-8.57333

$$$$
data/reference_output_2/data/smiles/126716.pdb
     RDKit          3D

 33 36  0  0  0  0  0  0  0  0999 V2000
   65.6556   39.9155   60.8932 C   0  0  0  0  0  0  0  0  0  0  0  0
   66.4655   40.4496   59.9907 C   0  0  0  0  0  0  0  0  0  0  0  0
   67.0465   39.6382   59.0849 N   0  0  0  0  0  0  0  0  0  0  0  0
   67.8729   40.1632   58.1603 C   0  0  0  0  0  0  0  0  0  0  0  0
   68.4245   39.4149   57.3053 O   0  0  0  0  0  0  0  0  0  0  0  0
   68.1624   41.5123   58.0872 C   0  0  0  0  0  0  0  0  0  0  0  0
   68.9772   42.0133   57.1717 C   0  0  0  0  0  0  0  0  0  0  0  0
   67.5835   42.3237   58.9906 N   0  0  0  0  0  0  0  0  0  0  0  0
   66.7529   41.7922   59.9191 C   0  0  0  0  0  0  0  0  0  0  0  0
   66.2186   42.5576   60.7562 O   0  0  0  0  0  0  0  0  0  0  0  0
   69.2919   43.4322   57.0839 C   0  0  0  0  0  0  0  0  0  0  0  0
   70.3258   43.9188   57.8735 C   0  0  0  0  0  0  0  0  0  0  0  0
   70.6647   45.2537   57.8301 C   0  0  0  0  0  0  0  0  0  0  0  0
   69.9835   46.1176   57.0042 C   0  0  0  0  0  0  0  0  0  0  0  0
   68.9514   45.6700   56.2064 C   0  0  0  0  0  0  0  0  0  0  0  0
   68.6422   44.3300   56.2775 C   0  0  0  0  0  0  0  0  0  0  0  0
   68.2583   46.6278   55.3577 C   0  0  0  0  0  0  0  0  0  0  0  0
   67.4164   47.3899   55.9560 O   0  0  0  0  0  0  0  0  0  0  0  0
   68.4551   46.7662   53.9304 C   0  0  0  0  0  0  0  0  0  0  0  0
   67.7433   45.9670   53.0546 C   0  0  0  0  0  0  0  0  0  0  0  0
   67.8943   46.0710   51.6710 C   0  0  0  0  0  0  0  0  0  0  0  0
   68.7654   46.9867   51.1968 N   0  0  0  0  0  0  0  0  0  0  0  0
   69.4478   47.7540   52.0382 C   0  0  0  0  0  0  0  0  0  0  0  0
   69.3290   47.6833   53.4098 C   0  0  0  0  0  0  0  0  0  0  0  0
   65.9654   37.5043   61.7110 C   0  0  0  0  0  0  0  0  0  0  0  0
   65.4196   36.3007   61.4147 N   0  0  0  0  0  0  0  0  0  0  0  0
   64.5128   36.5041   60.4577 C   0  0  0  0  0  0  0  0  0  0  0  0
   64.4812   37.8068   60.1520 N   0  0  0  0  0  0  0  0  0  0  0  0
   65.3839   38.4703   60.9228 C   0  0  0  0  0  0  0  0  0  0  0  0
   66.5633   38.7769   63.7146 C   0  0  0  0  0  0  0  0  0  0  0  0
   67.0100   37.7314   62.7162 C   0  0  0  0  0  0  0  0  0  0  0  0
   67.2729   36.4596   63.5128 C   0  0  0  0  0  0  0  0  0  0  0  0
   68.2929   38.0907   62.0257 C   0  0  0  0  0  0  0  0  0  0  0  0
 30 31  1  0
 31 32  1  0
 31 33  1  0
 31 25  1  0
 25 26  1  0
 25 29  2  0
 26 27  1  0
 27 28  2  0
 28 29  1  0
 29  1  1  0
  1  2  2  0
  2  3  1  0
  2  9  1  0
  3  4  1  0
  4  5  2  0
  4  6  1  0
  6  7  2  0
  6  8  1  0
  7 11  1  0
 11 12  2  0
 11 16  1  0
 12 13  1  0
 13 14  2  0
 14 15  1  0
 15 17  1  0
 15 16  2  0
 17 18  2  0
 17 19  1  0
 19 20  2  0
 19 24  1  0
 20 21  1  0
 21 22  2  0
 22 23  1  0
 23 24  2  0
  8  9  1  0
  9 10  2  0
M  CHG  1  28   1
M  END
>  <minimizedAffinity>  (446) 
-9.49609

$$$$
data/reference_output_2/data/smiles/126764.pdb
     RDKit          3D

 31 34  0  0  0  0  0  0  0  0999 V2000
   71.6579   47.1435   58.9457 C   0  0  0  0  0  0  0  0  0  0  0  0
   70.8178   47.9640   58.1776 C   0  0  0  0  0  0  0  0  0  0  0  0
   69.9489   47.4552   57.2593 C   0  0  0  0  0  0  0  0  0  0  0  0
   69.9402   46.0519   57.1229 C   0  0  0  0  0  0  0  0  0  0  0  0
   70.7567   45.2555   57.8689 C   0  0  0  0  0  0  0  0  0  0  0  0
   70.7079   43.9128   57.6962 F   0  0  0  0  0  0  0  0  0  0  0  0
   71.6144   45.7916   58.7779 C   0  0  0  0  0  0  0  0  0  0  0  0
   72.4266   44.9744   59.5198 F   0  0  0  0  0  0  0  0  0  0  0  0
   77.3136   50.1137   56.7187 C   0  0  0  0  0  0  0  0  0  0  0  0
   77.1146   49.9126   58.1790 C   0  0  0  0  0  0  0  0  0  0  0  0
   77.6456   50.6833   59.0218 O   0  0  0  0  0  0  0  0  0  0  0  0
   76.3195   48.8443   58.6719 N   0  0  0  0  0  0  0  0  0  0  0  0
   76.1472   48.6842   60.1000 C   0  0  0  0  0  0  0  0  0  0  0  0
   74.6817   48.8779   60.4060 C   0  0  0  0  0  0  0  0  0  0  0  0
   73.8138   48.2433   59.4345 N   0  0  0  0  0  0  0  0  0  0  0  0
   72.5495   47.7804   59.8792 C   0  0  0  0  0  0  0  0  0  0  0  0
   72.2004   47.9269   61.0985 O   0  0  0  0  0  0  0  0  0  0  0  0
   74.1661   48.0692   58.0508 C   0  0  0  0  0  0  0  0  0  0  0  0
   75.6468   47.8758   57.8317 C   0  0  0  0  0  0  0  0  0  0  0  0
   69.0388   48.2785   56.4223 C   0  0  0  0  0  0  0  0  0  0  0  0
   69.3738   48.3324   55.0103 C   0  0  0  0  0  0  0  0  0  0  0  0
   70.3222   49.2404   54.6195 N   0  0  0  0  0  0  0  0  0  0  0  0
   70.7523   49.3553   53.3868 N   0  0  0  0  0  0  0  0  0  0  0  0
   70.2789   48.5640   52.3805 C   0  0  0  0  0  0  0  0  0  0  0  0
   70.7196   48.7047   51.2027 O   0  0  0  0  0  0  0  0  0  0  0  0
   69.3301   47.6367   52.6961 C   0  0  0  0  0  0  0  0  0  0  0  0
   68.7988   46.8183   51.7231 C   0  0  0  0  0  0  0  0  0  0  0  0
   67.8232   45.8851   52.0206 C   0  0  0  0  0  0  0  0  0  0  0  0
   67.4035   45.8081   53.3396 C   0  0  0  0  0  0  0  0  0  0  0  0
   67.9369   46.6266   54.3095 C   0  0  0  0  0  0  0  0  0  0  0  0
   68.8952   47.5365   53.9987 C   0  0  0  0  0  0  0  0  0  0  0  0
  9 10  1  0
 10 11  2  0
 10 12  1  0
 12 13  1  0
 12 19  1  0
 13 14  1  0
 14 15  1  0
 15 16  1  0
 15 18  1  0
 16 17  2  0
 16  1  1  0
  1  2  2  0
  1  7  1  0
  2  3  1  0
  3 20  1  0
  3  4  2  0
 20 21  1  0
 21 22  2  0
 21 31  1  0
 22 23  1  0
 23 24  1  0
 24 25  2  0
 24 26  1  0
 26 27  1  0
 26 31  2  0
 27 28  2  0
 28 29  1  0
 29 30  2  0
 30 31  1  0
  4  5  1  0
  5  6  1  0
  5  7  2  0
  7  8  1  0
 18 19  1  0
M  END
>  <minimizedAffinity>  (447) 
-9.29303

$$$$
data/reference_output_2/data/smiles/126825.pdb
     RDKit          3D

 23 25  0  0  0  0  0  0  0  0999 V2000
   72.1135   50.1520   53.8620 N   0  0  0  0  0  0  0  0  0  0  0  0
   72.6008   51.0563   54.8362 C   0  0  0  0  0  0  0  0  0  0  0  0
   74.1323   50.9597   55.3976 S   0  0  0  0  0  0  0  0  0  0  0  0
   71.7778   52.0919   55.3808 N   0  0  0  0  0  0  0  0  0  0  0  0
   67.9507   51.2732   57.1031 C   0  0  0  0  0  0  0  0  0  0  0  0
   68.0762   51.8993   55.8868 C   0  0  0  0  0  0  0  0  0  0  0  0
   69.3209   52.1751   55.3100 C   0  0  0  0  0  0  0  0  0  0  0  0
   70.4966   51.8308   55.9396 C   0  0  0  0  0  0  0  0  0  0  0  0
   70.3816   51.2005   57.1679 C   0  0  0  0  0  0  0  0  0  0  0  0
   69.1581   50.9282   57.7357 C   0  0  0  0  0  0  0  0  0  0  0  0
   66.4958   49.6885   58.2314 C   0  0  0  0  0  0  0  0  0  0  0  0
   66.7556   50.9705   57.7273 O   0  0  0  0  0  0  0  0  0  0  0  0
   70.8332   50.2281   53.3219 N   0  0  0  0  0  0  0  0  0  0  0  0
   70.2725   49.0089   52.7871 C   0  0  0  0  0  0  0  0  0  0  0  0
   70.4558   48.6530   51.5175 N   0  0  0  0  0  0  0  0  0  0  0  0
   69.9268   47.5365   51.0460 N   0  0  0  0  0  0  0  0  0  0  0  0
   69.1884   46.7064   51.7883 C   0  0  0  0  0  0  0  0  0  0  0  0
   68.9619   47.0175   53.1048 C   0  0  0  0  0  0  0  0  0  0  0  0
   68.1946   46.1915   53.9069 C   0  0  0  0  0  0  0  0  0  0  0  0
   67.9569   46.5042   55.2258 C   0  0  0  0  0  0  0  0  0  0  0  0
   68.5195   47.6719   55.6924 C   0  0  0  0  0  0  0  0  0  0  0  0
   69.2863   48.5091   54.9136 C   0  0  0  0  0  0  0  0  0  0  0  0
   69.5195   48.1945   53.6030 C   0  0  0  0  0  0  0  0  0  0  0  0
 11 12  1  0
 12  5  1  0
  5  6  2  0
  5 10  1  0
  6  7  1  0
  7  8  2  0
  8  4  1  0
  8  9  1  0
  4  2  1  0
  2  3  2  0
  2  1  1  0
  1 13  1  0
 13 14  1  0
 14 15  2  0
 14 23  1  0
 15 16  1  0
 16 17  2  0
 17 18  1  0
 18 19  1  0
 18 23  2  0
 19 20  2  0
 20 21  1  0
 21 22  2  0
 22 23  1  0
  9 10  2  0
M  END
>  <minimizedAffinity>  (448) 
-8.59296

$$$$
data/reference_output_2/data/smiles/126904.pdb
     RDKit          3D

 32 36  0  0  0  0  0  0  0  0999 V2000
   70.4066   47.2219   57.8841 C   0  0  0  0  0  0  0  0  0  0  0  0
   69.9580   47.4829   56.6317 N   0  0  0  0  0  0  0  0  0  0  0  0
   69.9922   48.7352   56.1480 C   0  0  0  0  0  0  0  0  0  0  0  0
   70.4735   49.8081   56.8698 C   0  0  0  0  0  0  0  0  0  0  0  0
   70.9331   49.5236   58.1628 C   0  0  0  0  0  0  0  0  0  0  0  0
   71.3839   50.4218   58.8965 O   0  0  0  0  0  0  0  0  0  0  0  0
   70.8729   48.2576   58.5911 N   0  0  0  0  0  0  0  0  0  0  0  0
   70.5878   51.1598   56.3420 C   0  0  2  0  0  0  0  0  0  0  0  0
   70.1080   52.2641   57.2327 C   0  0  0  0  0  0  0  0  0  0  0  0
   69.2919   53.1682   56.3469 C   0  0  0  0  0  0  0  0  0  0  0  0
   69.7518   52.8090   54.9517 C   0  0  0  0  0  0  0  0  0  0  0  0
   69.8518   51.3418   55.1170 N   0  0  0  0  0  0  0  0  0  0  0  0
   69.3792   50.2532   54.3703 C   0  0  0  0  0  0  0  0  0  0  0  0
   68.8914   50.4565   53.2252 O   0  0  0  0  0  0  0  0  0  0  0  0
   69.4209   48.9215   54.8416 N   0  0  0  0  0  0  0  0  0  0  0  0
   68.9362   47.8316   54.0908 C   0  0  0  0  0  0  0  0  0  0  0  0
   69.3144   47.6497   52.7786 C   0  0  0  0  0  0  0  0  0  0  0  0
   68.8578   46.5964   52.0259 C   0  0  0  0  0  0  0  0  0  0  0  0
   67.9943   45.6655   52.5533 C   0  0  0  0  0  0  0  0  0  0  0  0
   67.6084   45.8358   53.8623 C   0  0  0  0  0  0  0  0  0  0  0  0
   68.0617   46.8898   54.6262 C   0  0  0  0  0  0  0  0  0  0  0  0
   70.9715   45.5859   59.4804 O   0  0  0  0  0  0  0  0  0  0  0  0
   70.3632   45.8453   58.3998 C   0  0  0  0  0  0  0  0  0  0  0  0
   69.6949   44.7876   57.7830 N   0  0  0  0  0  0  0  0  0  0  0  0
   69.6876   43.4712   58.3300 N   0  0  0  0  0  0  0  0  0  0  0  0
   69.3661   42.5350   57.4712 C   0  0  0  0  0  0  0  0  0  0  0  0
   69.3108   41.1347   57.8637 C   0  0  0  0  0  0  0  0  0  0  0  0
   68.1616   40.4112   57.6865 C   0  0  0  0  0  0  0  0  0  0  0  0
   68.1679   39.0878   58.0765 C   0  0  0  0  0  0  0  0  0  0  0  0
   69.2675   38.4718   58.6305 C   0  0  0  0  0  0  0  0  0  0  0  0
   70.4236   39.2079   58.8063 C   0  0  0  0  0  0  0  0  0  0  0  0
   70.4203   40.5371   58.4148 C   0  0  0  0  0  0  0  0  0  0  0  0
 22 23  2  0
 23 24  1  0
 23  1  1  0
 24 25  1  0
 25 26  2  0
 26 27  1  0
 27 28  2  0
 27 32  1  0
 28 29  1  0
 29 30  2  0
 30 31  1  0
 31 32  2  0
  1  2  2  0
  1  7  1  0
  2  3  1  0
  3  4  2  0
  3 15  1  0
  4  5  1  0
  4  8  1  0
  5  6  2  0
  5  7  1  0
  8  9  1  1
  8 12  1  0
  9 10  1  0
 10 11  1  0
 11 12  1  0
 12 13  1  0
 13 14  2  0
 13 15  1  0
 15 16  1  0
 16 17  2  0
 16 21  1  0
 17 18  1  0
 18 19  2  0
 19 20  1  0
 20 21  2  0
M  END
>  <minimizedAffinity>  (449) 
-8.52382

$$$$
data/reference_output_2/data/smiles/127155.pdb
     RDKit          3D

 27 30  0  0  0  0  0  0  0  0999 V2000
   71.2224   47.3571   58.6713 C   0  0  0  0  0  0  0  0  0  0  0  0
   71.0879   45.9855   58.5643 C   0  0  0  0  0  0  0  0  0  0  0  0
   70.2287   45.3651   57.6660 C   0  0  0  0  0  0  0  0  0  0  0  0
   69.5084   46.2187   56.8743 C   0  0  0  0  0  0  0  0  0  0  0  0
   69.6154   47.5930   56.9500 N   0  0  0  0  0  0  0  0  0  0  0  0
   70.4632   48.1406   57.8414 C   0  0  0  0  0  0  0  0  0  0  0  0
   70.5262   49.3941   57.8834 O   0  0  0  0  0  0  0  0  0  0  0  0
   74.1434   49.1980   60.4630 C   0  0  0  0  0  0  0  0  0  0  0  0
   73.2867   48.6908   59.4054 N   0  0  0  0  0  0  0  0  0  0  0  0
   72.1405   47.9125   59.6310 C   0  0  0  0  0  0  0  0  0  0  0  0
   71.9136   47.6861   60.8792 O   0  0  0  0  0  0  0  0  0  0  0  0
   70.1406   43.9133   57.6095 C   0  0  0  0  0  0  0  0  0  0  0  0
   71.1404   43.1847   57.8231 O   0  0  0  0  0  0  0  0  0  0  0  0
   68.9098   43.2933   57.3093 N   0  0  0  0  0  0  0  0  0  0  0  0
   68.7799   41.8321   57.2417 C   0  0  0  0  0  0  0  0  0  0  0  0
   67.6672   41.2992   56.3521 C   0  0  0  0  0  0  0  0  0  0  0  0
   67.6129   41.1950   57.8515 C   0  0  0  0  0  0  0  0  0  0  0  0
   68.7925   48.3145   55.9983 C   0  0  0  0  0  0  0  0  0  0  0  0
   69.1895   48.1915   54.5967 C   0  0  0  0  0  0  0  0  0  0  0  0
   70.1294   49.1234   54.1118 C   0  0  0  0  0  0  0  0  0  0  0  0
   70.4981   49.1114   52.7987 C   0  0  0  0  0  0  0  0  0  0  0  0
   69.9664   48.1881   51.9046 C   0  0  0  0  0  0  0  0  0  0  0  0
   69.0496   47.2692   52.3568 C   0  0  0  0  0  0  0  0  0  0  0  0
   68.4233   46.3156   51.7287 O   0  0  0  0  0  0  0  0  0  0  0  0
   67.6375   45.6621   52.5426 C   0  0  0  0  0  0  0  0  0  0  0  0
   67.7835   46.2601   53.8007 C   0  0  0  0  0  0  0  0  0  0  0  0
   68.6853   47.2946   53.6944 C   0  0  0  0  0  0  0  0  0  0  0  0
  8  9  1  0
  9 10  1  0
 10 11  2  0
 10  1  1  0
  1  2  2  0
  1  6  1  0
  2  3  1  0
  3 12  1  0
  3  4  2  0
 12 13  2  0
 12 14  1  0
 14 15  1  0
 15 16  1  0
 15 17  1  0
 16 17  1  0
  4  5  1  0
  5 18  1  0
  5  6  1  0
 18 19  1  0
 19 20  2  0
 19 27  1  0
 20 21  1  0
 21 22  2  0
 22 23  1  0
 23 24  1  0
 23 27  2  0
 24 25  1  0
 25 26  2  0
 26 27  1  0
  6  7  2  0
M  END
>  <minimizedAffinity>  (450) 
-8.71751

$$$$
data/reference_output_2/data/smiles/127374.pdb
     RDKit          3D

 29 31  0  0  0  0  0  0  0  0999 V2000
   70.6326   46.5383   57.8165 C   0  0  0  0  0  0  0  0  0  0  0  0
   71.3665   46.8228   58.9585 C   0  0  0  0  0  0  0  0  0  0  0  0
   71.7759   45.8394   59.8323 C   0  0  0  0  0  0  0  0  0  0  0  0
   71.4507   44.5348   59.5680 C   0  0  0  0  0  0  0  0  0  0  0  0
   70.7071   44.1695   58.4224 C   0  0  0  0  0  0  0  0  0  0  0  0
   70.3299   45.2167   57.5899 C   0  0  0  0  0  0  0  0  0  0  0  0
   70.4400   42.7717   58.1894 C   0  0  0  0  0  0  0  0  0  0  0  0
   71.0011   42.2947   57.1140 O   0  0  0  0  0  0  0  0  0  0  0  0
   69.6894   41.8649   58.9118 N   0  0  0  0  0  0  0  0  0  0  0  0
   68.9473   41.9944   60.1407 C   0  0  0  0  0  0  0  0  0  0  0  0
   67.4975   41.9846   59.7528 C   0  0  0  0  0  0  0  0  0  0  0  0
   67.1482   40.6526   59.1453 C   0  0  0  0  0  0  0  0  0  0  0  0
   68.0444   40.3459   57.9913 C   0  0  2  0  0  0  0  0  0  0  0  0
   69.5131   40.4624   58.3686 C   0  0  0  0  0  0  0  0  0  0  0  0
   67.7740   41.2030   56.7940 C   0  0  0  0  0  0  0  0  0  0  0  0
   67.6848   40.5295   55.5358 N   0  0  0  0  0  0  0  0  0  0  0  0
   67.6283   42.4375   56.8548 O   0  0  0  0  0  0  0  0  0  0  0  0
   70.2156   47.6393   57.0201 N   0  0  0  0  0  0  0  0  0  0  0  0
   68.7557   47.8470   56.2133 S   0  0  0  0  0  0  0  0  0  0  0  0
   68.3846   49.3281   56.2527 O   0  0  0  0  0  0  0  0  0  0  0  0
   67.6409   47.1172   56.9515 O   0  0  0  0  0  0  0  0  0  0  0  0
   70.1932   49.2747   53.9362 C   0  0  0  0  0  0  0  0  0  0  0  0
   69.3662   48.0909   53.5872 C   0  0  0  0  0  0  0  0  0  0  0  0
   69.2857   47.7109   52.2544 C   0  0  0  0  0  0  0  0  0  0  0  0
   68.5459   46.6196   51.8486 C   0  0  0  0  0  0  0  0  0  0  0  0
   67.8787   45.9084   52.8265 C   0  0  0  0  0  0  0  0  0  0  0  0
   67.1341   44.8256   52.4888 F   0  0  0  0  0  0  0  0  0  0  0  0
   67.9477   46.2717   54.1519 C   0  0  0  0  0  0  0  0  0  0  0  0
   68.7032   47.3836   54.5518 C   0  0  0  0  0  0  0  0  0  0  0  0
 22 23  1  0
 23 24  2  0
 23 29  1  0
 24 25  1  0
 25 26  2  0
 26 27  1  0
 26 28  1  0
 28 29  2  0
 29 19  1  0
 19 20  2  0
 19 21  2  0
 19 18  1  0
 18  1  1  0
  1  2  2  0
  1  6  1  0
  2  3  1  0
  3  4  2  0
  4  5  1  0
  5  7  1  0
  5  6  2  0
  7  8  2  0
  7  9  1  0
  9 10  1  0
  9 14  1  0
 10 11  1  0
 11 12  1  0
 12 13  1  0
 13 15  1  6
 13 14  1  0
 15 16  1  0
 15 17  2  0
M  END
>  <minimizedAffinity>  (451) 
-8.83253

$$$$
data/reference_output_2/data/smiles/127420.pdb
     RDKit          3D

 26 28  0  0  0  0  0  0  0  0999 V2000
   69.3361   47.2088   56.2643 N   0  0  0  0  0  0  0  0  0  0  0  0
   69.8179   48.2355   55.6119 N   0  0  0  0  0  0  0  0  0  0  0  0
   69.6902   48.4222   54.2646 C   0  0  0  0  0  0  0  0  0  0  0  0
   69.0126   47.4736   53.5427 C   0  0  0  0  0  0  0  0  0  0  0  0
   68.8056   47.5267   52.1880 C   0  0  0  0  0  0  0  0  0  0  0  0
   68.1061   46.5371   51.4831 C   0  0  0  0  0  0  0  0  0  0  0  0
   67.6022   45.4661   52.1512 C   0  0  0  0  0  0  0  0  0  0  0  0
   67.7986   45.3876   53.5231 C   0  0  0  0  0  0  0  0  0  0  0  0
   68.4865   46.3681   54.2007 C   0  0  0  0  0  0  0  0  0  0  0  0
   68.6667   46.2683   55.5602 C   0  0  0  0  0  0  0  0  0  0  0  0
   68.1710   45.2400   56.1268 O   0  0  0  0  0  0  0  0  0  0  0  0
   70.2665   49.5842   53.6277 C   0  0  0  0  0  0  0  0  0  0  0  0
   69.7126   50.6373   53.2968 O   0  0  0  0  0  0  0  0  0  0  0  0
   71.6446   49.5045   53.3473 O   0  0  0  0  0  0  0  0  0  0  0  0
   69.4978   47.0570   57.7033 C   0  0  0  0  0  0  0  0  0  0  0  0
   71.6952   47.1973   58.5098 O   0  0  0  0  0  0  0  0  0  0  0  0
   70.8306   46.4677   57.9883 C   0  0  0  0  0  0  0  0  0  0  0  0
   71.1223   45.1282   57.6855 N   0  0  0  0  0  0  0  0  0  0  0  0
   72.3384   44.4476   57.8967 C   0  0  0  0  0  0  0  0  0  0  0  0
   73.5277   44.9763   58.2862 C   0  0  0  0  0  0  0  0  0  0  0  0
   74.6566   44.1897   58.4651 C   0  0  0  0  0  0  0  0  0  0  0  0
   74.6425   42.8141   58.2592 C   0  0  0  0  0  0  0  0  0  0  0  0
   75.7370   42.0418   58.4328 F   0  0  0  0  0  0  0  0  0  0  0  0
   73.4264   42.2929   57.8647 C   0  0  0  0  0  0  0  0  0  0  0  0
   72.3215   43.0567   57.6878 C   0  0  0  0  0  0  0  0  0  0  0  0
   71.1848   42.4159   57.2972 F   0  0  0  0  0  0  0  0  0  0  0  0
 16 17  2  0
 17 15  1  0
 17 18  1  0
 15  1  1  0
  1  2  1  0
  1 10  1  0
  2  3  2  0
  3 12  1  0
  3  4  1  0
 12 13  2  0
 12 14  1  0
  4  5  2  0
  4  9  1  0
  5  6  1  0
  6  7  2  0
  7  8  1  0
  8  9  2  0
  9 10  1  0
 10 11  2  0
 18 19  1  0
 19 20  2  0
 19 25  1  0
 20 21  1  0
 21 22  2  0
 22 23  1  0
 22 24  1  0
 24 25  2  0
 25 26  1  0
M  END
>  <minimizedAffinity>  (452) 
-8.63386

$$$$
data/reference_output_2/data/smiles/127466.pdb
     RDKit          3D

 21 23  0  0  0  0  0  0  0  0999 V2000
   69.3814   47.6034   54.3603 C   0  0  0  0  0  0  0  0  0  0  0  0
   70.1745   48.6542   53.9683 C   0  0  0  0  0  0  0  0  0  0  0  0
   70.2444   49.0395   52.6346 C   0  0  0  0  0  0  0  0  0  0  0  0
   69.5259   48.3860   51.6649 C   0  0  0  0  0  0  0  0  0  0  0  0
   68.7114   47.3169   52.0211 C   0  0  0  0  0  0  0  0  0  0  0  0
   67.9924   46.6611   51.0631 N   0  0  0  0  0  0  0  0  0  0  0  0
   67.2078   45.6298   51.4117 C   0  0  0  0  0  0  0  0  0  0  0  0
   66.4412   44.9254   50.4113 N   0  0  0  0  0  0  0  0  0  0  0  0
   67.1518   45.2714   52.7023 N   0  0  0  0  0  0  0  0  0  0  0  0
   67.8555   45.9039   53.6838 C   0  0  0  0  0  0  0  0  0  0  0  0
   67.7844   45.5151   55.0292 N   0  0  0  0  0  0  0  0  0  0  0  0
   68.6595   46.9583   53.3341 C   0  0  0  0  0  0  0  0  0  0  0  0
   69.2376   47.1463   55.6232 O   0  0  0  0  0  0  0  0  0  0  0  0
   69.2739   47.6473   56.8860 C   0  0  0  0  0  0  0  0  0  0  0  0
   68.8797   52.6106   56.6077 C   0  0  0  0  0  0  0  0  0  0  0  0
   68.2753   51.3008   57.0069 C   0  0  0  0  0  0  0  0  0  0  0  0
   67.0177   51.2286   57.5857 C   0  0  0  0  0  0  0  0  0  0  0  0
   66.4864   50.0059   57.9425 C   0  0  0  0  0  0  0  0  0  0  0  0
   67.2088   48.8619   57.7236 C   0  0  0  0  0  0  0  0  0  0  0  0
   68.4523   48.8685   57.1564 C   0  0  0  0  0  0  0  0  0  0  0  0
   68.9597   50.1302   56.8068 C   0  0  0  0  0  0  0  0  0  0  0  0
 15 16  1  0
 16 17  2  0
 16 21  1  0
 17 18  1  0
 18 19  2  0
 19 20  1  0
 20 14  1  0
 20 21  2  0
 14 13  1  0
 13  1  1  0
  1  2  2  0
  1 12  1  0
  2  3  1  0
  3  4  2  0
  4  5  1  0
  5  6  1  0
  5 12  2  0
  6  7  2  0
  7  8  1  0
  7  9  1  0
  9 10  2  0
 10 11  1  0
 10 12  1  0
M  END
>  <minimizedAffinity>  (453) 
-8.60878

$$$$
data/reference_output_2/data/smiles/127500.pdb
     RDKit          3D

 27 29  0  0  0  0  0  0  0  0999 V2000
   71.7811   50.8437   54.2745 C   0  0  0  0  0  0  0  0  0  0  0  0
   71.1044   49.7392   53.9070 N   0  0  0  0  0  0  0  0  0  0  0  0
   69.8180   49.6447   53.7710 N   0  0  0  0  0  0  0  0  0  0  0  0
   69.0476   50.7195   54.0060 C   0  0  0  0  0  0  0  0  0  0  0  0
   69.6414   51.8979   54.3872 C   0  0  0  0  0  0  0  0  0  0  0  0
   71.0270   51.9541   54.5211 C   0  0  0  0  0  0  0  0  0  0  0  0
   71.5526   53.0281   54.8669 O   0  0  0  0  0  0  0  0  0  0  0  0
   69.1959   48.3919   53.3664 C   0  0  0  0  0  0  0  0  0  0  0  0
   68.5479   47.5997   54.2724 C   0  0  0  0  0  0  0  0  0  0  0  0
   67.9588   46.4113   53.8833 C   0  0  0  0  0  0  0  0  0  0  0  0
   68.0100   45.9939   52.5632 C   0  0  0  0  0  0  0  0  0  0  0  0
   67.4307   44.8297   52.1919 F   0  0  0  0  0  0  0  0  0  0  0  0
   68.6615   46.7858   51.6383 C   0  0  0  0  0  0  0  0  0  0  0  0
   69.2423   47.9693   52.0553 C   0  0  0  0  0  0  0  0  0  0  0  0
   74.0393   51.2980   55.4126 N   0  0  0  0  0  0  0  0  0  0  0  0
   73.2452   50.7876   54.3845 C   0  0  0  0  0  0  0  0  0  0  0  0
   73.8571   50.2147   53.4448 O   0  0  0  0  0  0  0  0  0  0  0  0
   76.1309   50.0412   55.8388 C   0  0  0  0  0  0  0  0  0  0  0  0
   75.4137   49.0553   56.1591 O   0  0  0  0  0  0  0  0  0  0  0  0
   75.4531   51.2062   55.4516 N   0  0  0  0  0  0  0  0  0  0  0  0
   81.8798   49.4414   55.9822 C   0  0  0  0  0  0  0  0  0  0  0  0
   80.3909   49.6107   55.9561 C   0  0  0  0  0  0  0  0  0  0  0  0
   79.5973   48.7366   55.2450 C   0  0  0  0  0  0  0  0  0  0  0  0
   78.2129   48.8864   55.2138 C   0  0  0  0  0  0  0  0  0  0  0  0
   77.5843   49.9111   55.8899 C   0  0  0  0  0  0  0  0  0  0  0  0
   78.3930   50.7726   56.5941 C   0  0  0  0  0  0  0  0  0  0  0  0
   79.7698   50.6365   56.6342 C   0  0  0  0  0  0  0  0  0  0  0  0
 21 22  1  0
 22 23  2  0
 22 27  1  0
 23 24  1  0
 24 25  2  0
 25 18  1  0
 25 26  1  0
 18 19  2  0
 18 20  1  0
 20 15  1  0
 15 16  1  0
 16 17  2  0
 16  1  1  0
  1  2  2  0
  1  6  1  0
  2  3  1  0
  3  8  1  0
  3  4  1  0
  8  9  2  0
  8 14  1  0
  9 10  1  0
 10 11  2  0
 11 12  1  0
 11 13  1  0
 13 14  2  0
  4  5  2  0
  5  6  1  0
  6  7  2  0
 26 27  2  0
M  END
>  <minimizedAffinity>  (454) 
-8.91756

$$$$
data/reference_output_2/data/smiles/127532.pdb
     RDKit          3D

 28 31  0  0  0  0  0  0  0  0999 V2000
   69.8630   42.2393   58.1350 N   0  0  0  0  0  0  0  0  0  0  0  0
   70.5423   43.4720   58.1646 C   0  0  0  0  0  0  0  0  0  0  0  0
   69.9080   44.4998   57.8315 O   0  0  0  0  0  0  0  0  0  0  0  0
   71.9362   43.5871   58.5644 C   0  0  0  0  0  0  0  0  0  0  0  0
   72.7655   42.3808   58.4547 C   0  0  0  0  0  0  0  0  0  0  0  0
   72.0067   41.1410   58.4192 N   0  0  0  0  0  0  0  0  0  0  0  0
   72.5064   39.9201   58.5250 N   0  0  0  0  0  0  0  0  0  0  0  0
   71.5317   39.0281   58.4506 C   0  0  0  0  0  0  0  0  0  0  0  0
   70.3542   39.7235   58.2895 C   0  0  0  0  0  0  0  0  0  0  0  0
   70.6892   41.0653   58.2730 C   0  0  0  0  0  0  0  0  0  0  0  0
   71.6262   37.5512   58.5238 C   0  0  0  0  0  0  0  0  0  0  0  0
   72.3964   36.9089   57.5713 C   0  0  0  0  0  0  0  0  0  0  0  0
   72.5294   35.5231   57.5772 C   0  0  0  0  0  0  0  0  0  0  0  0
   71.8660   34.8291   58.5663 C   0  0  0  0  0  0  0  0  0  0  0  0
   71.0953   35.4806   59.5182 C   0  0  0  0  0  0  0  0  0  0  0  0
   70.9690   36.8623   59.5026 C   0  0  0  0  0  0  0  0  0  0  0  0
   68.4483   42.1144   57.9810 C   0  0  0  0  0  0  0  0  0  0  0  0
   67.8127   43.6575   56.0543 N   0  0  0  0  0  0  0  0  0  0  0  0
   67.9912   42.3668   56.5967 C   0  0  0  0  0  0  0  0  0  0  0  0
   67.7517   41.3728   55.8741 O   0  0  0  0  0  0  0  0  0  0  0  0
   67.3710   43.9518   54.7115 C   0  0  0  0  0  0  0  0  0  0  0  0
   69.6191   48.9011   52.6750 C   0  0  0  0  0  0  0  0  0  0  0  0
   69.0461   47.6428   53.2131 C   0  0  0  0  0  0  0  0  0  0  0  0
   68.5066   46.6880   52.3776 C   0  0  0  0  0  0  0  0  0  0  0  0
   67.9761   45.5223   52.8776 C   0  0  0  0  0  0  0  0  0  0  0  0
   67.9510   45.2353   54.2504 C   0  0  0  0  0  0  0  0  0  0  0  0
   68.4929   46.1955   55.0756 C   0  0  0  0  0  0  0  0  0  0  0  0
   69.0279   47.3709   54.5725 C   0  0  0  0  0  0  0  0  0  0  0  0
 22 23  1  0
 23 24  2  0
 23 28  1  0
 24 25  1  0
 25 26  2  0
 26 21  1  0
 26 27  1  0
 21 18  1  0
 18 19  1  0
 19 20  2  0
 19 17  1  0
 17  1  1  0
  1  2  1  0
  1 10  1  0
  2  3  2  0
  2  4  1  0
  4  5  1  0
  5  6  1  0
  6  7  1  0
  6 10  1  0
  7  8  2  0
  8 11  1  0
  8  9  1  0
 11 12  2  0
 11 16  1  0
 12 13  1  0
 13 14  2  0
 14 15  1  0
 15 16  2  0
  9 10  2  0
 27 28  2  0
M  END
>  <minimizedAffinity>  (455) 
-8.62468

$$$$
data/reference_output_2/data/smiles/127585.pdb
     RDKit          3D

 31 34  0  0  0  0  0  0  0  0999 V2000
   70.0221   38.7760   60.2832 S   0  0  0  0  0  0  0  0  0  0  0  0
   68.8085   38.1749   60.9715 O   0  0  0  0  0  0  0  0  0  0  0  0
   70.9506   39.1991   61.3885 O   0  0  0  0  0  0  0  0  0  0  0  0
   69.5594   40.0933   59.3853 N   0  0  0  0  0  0  0  0  0  0  0  0
   68.4667   40.0534   58.5332 C   0  0  0  0  0  0  0  0  0  0  0  0
   68.3595   41.2220   57.6325 C   0  0  0  0  0  0  0  0  0  0  0  0
   67.3540   41.2713   56.6549 C   0  0  0  0  0  0  0  0  0  0  0  0
   67.2226   42.3416   55.8077 C   0  0  0  0  0  0  0  0  0  0  0  0
   68.0831   43.4300   55.8779 C   0  0  0  0  0  0  0  0  0  0  0  0
   69.0610   43.3865   56.8236 C   0  0  0  0  0  0  0  0  0  0  0  0
   69.2009   42.2970   57.6935 C   0  0  0  0  0  0  0  0  0  0  0  0
   70.2904   42.3170   58.6978 C   0  0  0  0  0  0  0  0  0  0  0  0
   70.0384   41.3497   59.8266 C   0  0  1  0  0  0  0  0  0  0  0  0
   68.9760   41.9779   60.6737 C   0  0  0  0  0  0  0  0  0  0  0  0
   68.4078   41.3646   61.6192 O   0  0  0  0  0  0  0  0  0  0  0  0
   68.5530   43.3182   60.4459 N   0  0  0  0  0  0  0  0  0  0  0  0
   67.5850   43.8925   61.2096 O   0  0  0  0  0  0  0  0  0  0  0  0
   72.3003   35.6854   57.7824 C   0  0  0  0  0  0  0  0  0  0  0  0
   71.5488   35.2967   58.8758 C   0  0  0  0  0  0  0  0  0  0  0  0
   70.8478   36.2031   59.6568 C   0  0  0  0  0  0  0  0  0  0  0  0
   70.8723   37.5394   59.3708 C   0  0  0  0  0  0  0  0  0  0  0  0
   71.6159   37.9443   58.2831 C   0  0  0  0  0  0  0  0  0  0  0  0
   72.3141   37.0380   57.5073 C   0  0  0  0  0  0  0  0  0  0  0  0
   73.1764   33.5636   57.4176 O   0  0  0  0  0  0  0  0  0  0  0  0
   73.0604   34.7364   56.9720 C   0  0  0  0  0  0  0  0  0  0  0  0
   73.6782   35.0423   55.7153 C   0  0  0  0  0  0  0  0  0  0  0  0
   75.0454   35.0166   55.5832 C   0  0  0  0  0  0  0  0  0  0  0  0
   75.6448   35.2870   54.3416 C   0  0  0  0  0  0  0  0  0  0  0  0
   74.8462   35.5795   53.2568 C   0  0  0  0  0  0  0  0  0  0  0  0
   73.4796   35.6078   53.3777 C   0  0  0  0  0  0  0  0  0  0  0  0
   72.9254   35.3374   54.6106 C   0  0  0  0  0  0  0  0  0  0  0  0
 24 25  2  0
 25 26  1  0
 25 18  1  0
 26 27  2  0
 26 31  1  0
 27 28  1  0
 28 29  2  0
 29 30  1  0
 30 31  2  0
 18 19  2  0
 18 23  1  0
 19 20  1  0
 20 21  2  0
 21  1  1  0
 21 22  1  0
  1  2  2  0
  1  3  2  0
  1  4  1  0
  4  5  1  0
  4 13  1  0
  5  6  1  0
  6  7  2  0
  6 11  1  0
  7  8  1  0
  8  9  2  0
  9 10  1  0
 10 11  2  0
 11 12  1  0
 12 13  1  0
 13 14  1  1
 14 15  2  0
 14 16  1  0
 16 17  1  0
 22 23  2  0
M  END
>  <minimizedAffinity>  (456) 
-8.82082

$$$$
data/reference_output_2/data/smiles/127606.pdb
     RDKit          3D

 28 29  0  0  0  0  0  0  0  0999 V2000
   70.0367   37.8258   59.2812 C   0  0  0  0  0  0  0  0  0  0  0  0
   69.7721   38.9108   58.4416 C   0  0  0  0  0  0  0  0  0  0  0  0
   68.5061   39.4485   58.3518 C   0  0  0  0  0  0  0  0  0  0  0  0
   67.5210   38.8761   59.1197 C   0  0  0  0  0  0  0  0  0  0  0  0
   67.7146   37.8134   59.9623 C   0  0  0  0  0  0  0  0  0  0  0  0
   69.0122   37.2914   60.0289 C   0  0  0  0  0  0  0  0  0  0  0  0
   68.3158   40.5540   57.4712 N   0  0  0  0  0  0  0  0  0  0  0  0
   68.7890   41.8122   57.6119 C   0  0  0  0  0  0  0  0  0  0  0  0
   68.3975   42.6099   56.5573 C   0  0  0  0  0  0  0  0  0  0  0  0
   67.6687   41.7775   55.7751 N   0  0  0  0  0  0  0  0  0  0  0  0
   67.6356   40.5786   56.3314 N   0  0  0  0  0  0  0  0  0  0  0  0
   68.6867   44.0183   56.3166 C   0  0  0  0  0  0  0  0  0  0  0  0
   69.5280   44.6220   57.0163 O   0  0  0  0  0  0  0  0  0  0  0  0
   68.0250   44.7267   55.2925 N   0  0  0  0  0  0  0  0  0  0  0  0
   68.2702   46.1270   55.0052 C   0  0  0  0  0  0  0  0  0  0  0  0
   68.4326   46.2757   53.5087 C   0  0  0  0  0  0  0  0  0  0  0  0
   68.8019   47.6222   53.1345 N   0  0  0  0  0  0  0  0  0  0  0  0
   69.6066   47.9376   52.0290 C   0  0  0  0  0  0  0  0  0  0  0  0
   70.0012   47.0020   51.2452 N   0  0  0  0  0  0  0  0  0  0  0  0
   69.9950   49.2726   51.7564 N   0  0  0  0  0  0  0  0  0  0  0  0
   72.1487   37.4980   58.1034 C   0  0  0  0  0  0  0  0  0  0  0  0
   71.3890   37.2399   59.3881 C   0  0  0  0  0  0  0  0  0  0  0  0
   71.3451   35.7442   59.6228 C   0  0  0  0  0  0  0  0  0  0  0  0
   72.1409   37.8406   60.5504 C   0  0  0  0  0  0  0  0  0  0  0  0
   66.6205   37.2224   60.7776 C   0  0  0  0  0  0  0  0  0  0  0  0
   65.4593   36.9471   59.8460 C   0  0  0  0  0  0  0  0  0  0  0  0
   66.1830   38.1778   61.8642 C   0  0  0  0  0  0  0  0  0  0  0  0
   67.0660   35.8953   61.3500 C   0  0  0  0  0  0  0  0  0  0  0  0
 21 22  1  0
 22 23  1  0
 22 24  1  0
 22  1  1  0
  1  2  2  0
  1  6  1  0
  2  3  1  0
  3  7  1  0
  3  4  2  0
  7  8  1  0
  7 11  1  0
  8  9  2  0
  9 12  1  0
  9 10  1  0
 12 13  2  0
 12 14  1  0
 14 15  1  0
 15 16  1  0
 16 17  1  0
 17 18  1  0
 18 19  2  0
 18 20  1  0
 10 11  2  0
  4  5  1  0
  5 25  1  0
  5  6  2  0
 25 26  1  0
 25 27  1  0
 25 28  1  0
M  CHG  1  19   1
M  END
>  <minimizedAffinity>  (457) 
-8.54870

$$$$
data/reference_output_2/data/smiles/127618.pdb
     RDKit          3D

 23 24  0  0  0  0  0  0  0  0999 V2000
   68.3445   44.6596   56.4341 N   0  0  0  0  0  0  0  0  0  0  0  0
   72.0896   40.9546   58.6795 C   0  0  0  0  0  0  0  0  0  0  0  0
   71.1262   41.9287   58.0988 C   0  0  0  0  0  0  0  0  0  0  0  0
   71.4038   43.2782   58.0317 C   0  0  0  0  0  0  0  0  0  0  0  0
   70.5083   44.1850   57.4921 C   0  0  0  0  0  0  0  0  0  0  0  0
   69.3002   43.7840   56.9975 C   0  0  0  0  0  0  0  0  0  0  0  0
   69.0029   42.4191   57.0577 C   0  0  0  0  0  0  0  0  0  0  0  0
   69.9063   41.5273   57.5991 C   0  0  0  0  0  0  0  0  0  0  0  0
   67.4795   41.8607   56.4395 S   0  0  0  0  0  0  0  0  0  0  0  0
   67.7111   40.3199   55.7132 N   0  0  0  0  0  0  0  0  0  0  0  0
   66.8483   42.8404   55.4978 O   0  0  0  0  0  0  0  0  0  0  0  0
   66.5356   41.6790   57.5905 O   0  0  0  0  0  0  0  0  0  0  0  0
   68.7092   46.2742   55.9617 S   0  0  0  0  0  0  0  0  0  0  0  0
   67.7427   47.2286   56.6238 O   0  0  0  0  0  0  0  0  0  0  0  0
   70.0801   46.6797   56.4183 O   0  0  0  0  0  0  0  0  0  0  0  0
   68.6073   46.5147   54.2348 C   0  0  0  0  0  0  0  0  0  0  0  0
   67.9909   45.6072   53.4164 C   0  0  0  0  0  0  0  0  0  0  0  0
   67.9285   45.8334   52.0617 C   0  0  0  0  0  0  0  0  0  0  0  0
   68.4855   46.9737   51.5210 C   0  0  0  0  0  0  0  0  0  0  0  0
   69.1110   47.9005   52.3250 C   0  0  0  0  0  0  0  0  0  0  0  0
   69.8234   49.3557   51.6414 Cl  0  0  0  0  0  0  0  0  0  0  0  0
   69.1571   47.6452   53.6734 C   0  0  0  0  0  0  0  0  0  0  0  0
   69.9658   48.8511   54.6898 Cl  0  0  0  0  0  0  0  0  0  0  0  0
  2  3  1  0
  3  4  2  0
  3  8  1  0
  4  5  1  0
  5  6  2  0
  6  1  1  0
  6  7  1  0
  1 13  1  0
 13 14  2  0
 13 15  2  0
 13 16  1  0
 16 17  2  0
 16 22  1  0
 17 18  1  0
 18 19  2  0
 19 20  1  0
 20 21  1  0
 20 22  2  0
 22 23  1  0
  7  9  1  0
  7  8  2  0
  9 10  1  0
  9 11  2  0
  9 12  2  0
M  END
>  <minimizedAffinity>  (458) 
-8.64898

$$$$
data/reference_output_2/data/smiles/127723.pdb
     RDKit          3D

 27 29  0  0  0  0  0  0  0  0999 V2000
   66.4069   42.5110   55.9848 O   0  0  0  0  0  0  0  0  0  0  0  0
   67.4868   42.1544   56.5331 C   0  0  0  0  0  0  0  0  0  0  0  0
   67.7810   40.8921   57.1521 N   0  0  0  0  0  0  0  0  0  0  0  0
   69.1271   40.9018   57.6502 C   0  0  0  0  0  0  0  0  0  0  0  0
   69.8697   39.9352   58.3068 C   0  0  0  0  0  0  0  0  0  0  0  0
   71.1855   40.2020   58.6791 C   0  0  0  0  0  0  0  0  0  0  0  0
   71.7613   41.4247   58.4011 C   0  0  0  0  0  0  0  0  0  0  0  0
   70.9807   42.3480   57.7488 C   0  0  0  0  0  0  0  0  0  0  0  0
   69.6783   42.1293   57.3604 C   0  0  0  0  0  0  0  0  0  0  0  0
   68.6751   42.9522   56.6545 C   0  0  0  0  0  0  0  0  0  0  0  0
   68.8139   44.1451   56.2087 N   0  0  0  0  0  0  0  0  0  0  0  0
   73.4209   41.7327   58.8645 S   0  0  0  0  0  0  0  0  0  0  0  0
   73.4146   42.7276   59.9791 O   0  0  0  0  0  0  0  0  0  0  0  0
   74.1171   40.4782   59.3051 O   0  0  0  0  0  0  0  0  0  0  0  0
   74.2452   42.4074   57.5622 O   0  0  0  0  0  0  0  0  0  0  0  0
   67.8545   44.8857   55.5285 N   0  0  0  0  0  0  0  0  0  0  0  0
   68.2531   45.8412   54.5800 C   0  0  0  0  0  0  0  0  0  0  0  0
   67.9247   45.7137   53.2490 C   0  0  0  0  0  0  0  0  0  0  0  0
   67.2223   44.6381   52.8170 F   0  0  0  0  0  0  0  0  0  0  0  0
   68.2972   46.6669   52.3066 C   0  0  0  0  0  0  0  0  0  0  0  0
   67.9735   46.5440   50.9964 F   0  0  0  0  0  0  0  0  0  0  0  0
   69.0066   47.7579   52.7018 C   0  0  0  0  0  0  0  0  0  0  0  0
   69.3998   48.7304   51.8123 F   0  0  0  0  0  0  0  0  0  0  0  0
   69.3475   47.9122   54.0149 C   0  0  0  0  0  0  0  0  0  0  0  0
   70.0500   48.9999   54.3969 F   0  0  0  0  0  0  0  0  0  0  0  0
   68.9668   46.9468   54.9540 C   0  0  0  0  0  0  0  0  0  0  0  0
   69.3083   47.1090   56.2449 F   0  0  0  0  0  0  0  0  0  0  0  0
  1  2  2  0
  2  3  1  0
  2 10  1  0
  3  4  1  0
  4  5  2  0
  4  9  1  0
  5  6  1  0
  6  7  2  0
  7 12  1  0
  7  8  1  0
 12 13  2  0
 12 14  2  0
 12 15  1  0
  8  9  2  0
  9 10  1  0
 10 11  2  0
 11 16  1  0
 16 17  1  0
 17 18  2  0
 17 26  1  0
 18 19  1  0
 18 20  1  0
 20 21  1  0
 20 22  2  0
 22 23  1  0
 22 24  1  0
 24 25  1  0
 24 26  2  0
 26 27  1  0
M  CHG  1  15  -1
M  END
>  <minimizedAffinity>  (459) 
-9.08658

$$$$
data/reference_output_2/data/smiles/127738.pdb
     RDKit          3D

 25 27  0  0  0  0  0  0  0  0999 V2000
   68.6934   47.7069   56.6442 C   0  0  0  0  0  0  0  0  0  0  0  0
   67.4307   47.5507   56.7972 O   0  0  0  0  0  0  0  0  0  0  0  0
   69.1307   48.0394   55.3097 C   0  0  0  0  0  0  0  0  0  0  0  0
   69.9841   49.1334   55.1029 C   0  0  0  0  0  0  0  0  0  0  0  0
   70.4467   49.5191   53.8765 C   0  0  0  0  0  0  0  0  0  0  0  0
   71.2106   50.5057   53.7280 O   0  0  0  0  0  0  0  0  0  0  0  0
   70.0875   48.8396   52.7788 N   0  0  0  0  0  0  0  0  0  0  0  0
   69.2745   47.7847   52.9124 C   0  0  0  0  0  0  0  0  0  0  0  0
   68.9258   47.1091   51.7668 C   0  0  0  0  0  0  0  0  0  0  0  0
   68.0904   46.0142   51.8430 C   0  0  0  0  0  0  0  0  0  0  0  0
   67.6160   45.6139   53.0776 C   0  0  0  0  0  0  0  0  0  0  0  0
   67.9660   46.2922   54.2256 C   0  0  0  0  0  0  0  0  0  0  0  0
   68.7865   47.3691   54.1617 C   0  0  0  0  0  0  0  0  0  0  0  0
   69.4229   47.5326   57.7790 O   0  0  0  0  0  0  0  0  0  0  0  0
   70.4813   46.6071   57.8026 C   0  0  0  0  0  0  0  0  0  0  0  0
   69.7696   44.7346   59.1645 O   0  0  0  0  0  0  0  0  0  0  0  0
   69.9764   45.2118   58.0186 C   0  0  0  0  0  0  0  0  0  0  0  0
   69.6988   44.3348   56.9328 N   0  0  0  0  0  0  0  0  0  0  0  0
   69.2223   43.0144   57.1180 C   0  0  0  0  0  0  0  0  0  0  0  0
   69.7831   42.0909   57.9449 C   0  0  0  0  0  0  0  0  0  0  0  0
   69.2603   40.8175   58.0751 C   0  0  0  0  0  0  0  0  0  0  0  0
   68.1304   40.4387   57.3535 C   0  0  0  0  0  0  0  0  0  0  0  0
   67.5657   41.3689   56.5213 C   0  0  0  0  0  0  0  0  0  0  0  0
   68.0974   42.6217   56.4072 C   0  0  0  0  0  0  0  0  0  0  0  0
   67.4914   43.5089   55.5598 F   0  0  0  0  0  0  0  0  0  0  0  0
 16 17  2  0
 17 15  1  0
 17 18  1  0
 15 14  1  0
 14  1  1  0
  1  2  2  0
  1  3  1  0
  3  4  2  0
  3 13  1  0
  4  5  1  0
  5  6  2  0
  5  7  1  0
  7  8  1  0
  8  9  1  0
  8 13  2  0
  9 10  2  0
 10 11  1  0
 11 12  2  0
 12 13  1  0
 18 19  1  0
 19 20  2  0
 19 24  1  0
 20 21  1  0
 21 22  2  0
 22 23  1  0
 23 24  2  0
 24 25  1  0
M  END
>  <minimizedAffinity>  (460) 
-9.27482

$$$$
data/reference_output_2/data/smiles/127740.pdb
     RDKit          3D

 24 25  0  0  0  0  0  0  0  0999 V2000
   68.1586   43.6338   55.8187 C   0  0  0  0  0  0  0  0  0  0  0  0
   69.2031   44.1201   56.3411 O   0  0  0  0  0  0  0  0  0  0  0  0
   67.5926   44.4136   54.8065 N   0  0  0  0  0  0  0  0  0  0  0  0
   68.1652   45.6780   54.3931 C   0  0  0  0  0  0  0  0  0  0  0  0
   68.3951   45.9470   53.0637 C   0  0  0  0  0  0  0  0  0  0  0  0
   68.9370   47.1599   52.6507 C   0  0  0  0  0  0  0  0  0  0  0  0
   69.2645   48.1382   53.5615 C   0  0  0  0  0  0  0  0  0  0  0  0
   69.0384   47.8772   54.8915 C   0  0  0  0  0  0  0  0  0  0  0  0
   68.4954   46.6607   55.3007 C   0  0  0  0  0  0  0  0  0  0  0  0
   69.9354   49.6502   52.9887 S   0  0  0  0  0  0  0  0  0  0  0  0
   69.8395   49.7315   51.2724 N   0  0  0  0  0  0  0  0  0  0  0  0
   69.2581   50.8180   53.6435 O   0  0  0  0  0  0  0  0  0  0  0  0
   71.4077   49.7493   53.3446 O   0  0  0  0  0  0  0  0  0  0  0  0
   67.6730   42.3278   56.3277 C   0  0  0  0  0  0  0  0  0  0  0  0
   68.0313   42.0255   57.5473 C   0  0  0  0  0  0  0  0  0  0  0  0
   67.7010   40.8350   58.2741 C   0  0  0  0  0  0  0  0  0  0  0  0
   68.3419   39.6169   58.1949 C   0  0  0  0  0  0  0  0  0  0  0  0
   67.9606   38.5019   58.9166 C   0  0  0  0  0  0  0  0  0  0  0  0
   66.8909   38.5631   59.7715 C   0  0  0  0  0  0  0  0  0  0  0  0
   66.2192   39.7664   59.8814 C   0  0  0  0  0  0  0  0  0  0  0  0
   66.6076   40.8724   59.1580 C   0  0  0  0  0  0  0  0  0  0  0  0
   65.5197   41.5546   54.9983 C   0  0  0  0  0  0  0  0  0  0  0  0
   66.8769   41.4482   55.5408 C   0  0  0  0  0  0  0  0  0  0  0  0
   67.4368   40.3190   55.2333 O   0  0  0  0  0  0  0  0  0  0  0  0
 22 23  1  0
 23 24  2  0
 23 14  1  0
 14 15  2  0
 14  1  1  0
 15 16  1  0
 16 17  2  0
 16 21  1  0
 17 18  1  0
 18 19  2  0
 19 20  1  0
 20 21  2  0
  1  2  2  0
  1  3  1  0
  3  4  1  0
  4  5  2  0
  4  9  1  0
  5  6  1  0
  6  7  2  0
  7 10  1  0
  7  8  1  0
 10 11  1  0
 10 12  2  0
 10 13  2  0
  8  9  2  0
M  END
>  <minimizedAffinity>  (461) 
-8.58881

$$$$
data/reference_output_2/data/smiles/127932.pdb
     RDKit          3D

 29 31  0  0  0  0  0  0  0  0999 V2000
   71.5854   48.1802   57.9418 C   0  0  0  0  0  0  0  0  0  0  0  0
   72.7273   48.8753   57.4875 O   0  0  0  0  0  0  0  0  0  0  0  0
   70.4801   48.7869   57.3841 N   0  0  0  0  0  0  0  0  0  0  0  0
   69.0598   48.7401   57.5802 C   0  0  0  0  0  0  0  0  0  0  0  0
   68.3098   48.2733   56.3414 C   0  0  0  0  0  0  0  0  0  0  0  0
   69.3911   47.9808   55.3169 C   0  0  0  0  0  0  0  0  0  0  0  0
   70.0633   49.2977   55.0250 C   0  0  0  0  0  0  0  0  0  0  0  0
   70.7922   49.7665   56.2465 C   0  0  0  0  0  0  0  0  0  0  0  0
   68.8518   47.3406   54.1063 C   0  0  0  0  0  0  0  0  0  0  0  0
   69.1414   47.7743   52.8274 C   0  0  0  0  0  0  0  0  0  0  0  0
   68.5966   47.1212   51.7447 C   0  0  0  0  0  0  0  0  0  0  0  0
   67.7602   46.0317   51.9165 C   0  0  0  0  0  0  0  0  0  0  0  0
   67.2324   45.3986   50.8468 F   0  0  0  0  0  0  0  0  0  0  0  0
   67.4598   45.5831   53.1807 C   0  0  0  0  0  0  0  0  0  0  0  0
   68.0168   46.2537   54.2469 C   0  0  0  0  0  0  0  0  0  0  0  0
   71.8875   46.0013   59.0615 C   0  0  0  0  0  0  0  0  0  0  0  0
   72.1184   47.2010   58.7609 C   0  0  0  0  0  0  0  0  0  0  0  0
   71.0991   44.0140   57.7321 N   0  0  0  0  0  0  0  0  0  0  0  0
   70.9392   45.0428   58.6534 C   0  0  0  0  0  0  0  0  0  0  0  0
   69.7729   45.1433   59.1908 O   0  0  0  0  0  0  0  0  0  0  0  0
   68.7424   41.1418   57.5998 C   0  0  0  0  0  0  0  0  0  0  0  0
   67.7751   41.6079   56.7199 C   0  0  0  0  0  0  0  0  0  0  0  0
   67.9055   42.8491   56.1841 C   0  0  0  0  0  0  0  0  0  0  0  0
   69.0072   43.6283   56.5289 C   0  0  0  0  0  0  0  0  0  0  0  0
   69.9682   43.1771   57.3976 C   0  0  0  0  0  0  0  0  0  0  0  0
   69.8482   41.9236   57.9461 C   0  0  0  0  0  0  0  0  0  0  0  0
   67.8008   38.8589   57.5101 N   0  0  0  0  0  0  0  0  0  0  0  0
   68.5957   39.8190   58.1660 C   0  0  0  0  0  0  0  0  0  0  0  0
   69.1665   39.5090   59.2386 O   0  0  0  0  0  0  0  0  0  0  0  0
 27 28  1  0
 28 29  2  0
 28 21  1  0
 21 22  2  0
 21 26  1  0
 22 23  1  0
 23 24  2  0
 24 25  1  0
 25 18  1  0
 25 26  2  0
 18 19  1  0
 19 20  2  0
 19 16  1  0
 16 17  2  0
 17  1  1  0
  1  2  2  0
  1  3  1  0
  3  4  1  0
  3  8  1  0
  4  5  1  0
  5  6  1  0
  6  9  1  0
  6  7  1  0
  9 10  2  0
  9 15  1  0
 10 11  1  0
 11 12  2  0
 12 13  1  0
 12 14  1  0
 14 15  2  0
  7  8  1  0
M  END
>  <minimizedAffinity>  (462) 
-8.57913

$$$$
data/reference_output_2/data/smiles/127996.pdb
     RDKit          3D

 20 22  0  0  0  0  0  0  0  0999 V2000
   69.3359   47.9758   52.7146 C   0  0  0  0  0  0  0  0  0  0  0  0
   69.4691   47.9798   54.1056 C   0  0  0  0  0  0  0  0  0  0  0  0
   68.9695   46.9600   54.8853 C   0  0  0  0  0  0  0  0  0  0  0  0
   68.9821   46.7563   56.2469 C   0  0  0  0  0  0  0  0  0  0  0  0
   68.3314   45.5707   56.4135 N   0  0  0  0  0  0  0  0  0  0  0  0
   67.9504   45.0884   55.2425 N   0  0  0  0  0  0  0  0  0  0  0  0
   68.3294   45.9270   54.2658 C   0  0  0  0  0  0  0  0  0  0  0  0
   68.1818   45.8952   52.8779 C   0  0  0  0  0  0  0  0  0  0  0  0
   68.6851   46.9217   52.1062 C   0  0  0  0  0  0  0  0  0  0  0  0
   68.5357   46.8890   50.7132 O   0  0  0  0  0  0  0  0  0  0  0  0
   69.6223   50.4057   52.2943 N   0  0  0  0  0  0  0  0  0  0  0  0
   69.8684   49.0583   51.9174 C   0  0  0  0  0  0  0  0  0  0  0  0
   70.5452   48.7817   50.8950 O   0  0  0  0  0  0  0  0  0  0  0  0
   69.5670   47.6192   57.3063 C   0  0  0  0  0  0  0  0  0  0  0  0
   68.7896   48.8840   57.3759 C   0  0  0  0  0  0  0  0  0  0  0  0
   67.4530   48.8963   57.7075 C   0  0  0  0  0  0  0  0  0  0  0  0
   66.7357   50.0906   57.7692 C   0  0  0  0  0  0  0  0  0  0  0  0
   67.3376   51.3012   57.5021 C   0  0  0  0  0  0  0  0  0  0  0  0
   68.6767   51.2914   57.1702 C   0  0  0  0  0  0  0  0  0  0  0  0
   69.3915   50.0945   57.1088 C   0  0  0  0  0  0  0  0  0  0  0  0
 11 12  1  0
 12 13  2  0
 12  1  1  0
  1  2  2  0
  1  9  1  0
  2  3  1  0
  3  4  1  0
  3  7  2  0
  4 14  1  0
  4  5  2  0
 14 15  1  0
 15 16  2  0
 15 20  1  0
 16 17  1  0
 17 18  2  0
 18 19  1  0
 19 20  2  0
  5  6  1  0
  6  7  1  0
  7  8  1  0
  8  9  2  0
  9 10  1  0
M  END
>  <minimizedAffinity>  (463) 
-8.91133

$$$$
data/reference_output_2/data/smiles/128048.pdb
     RDKit          3D

 29 32  0  0  0  0  0  0  0  0999 V2000
   68.5604   38.9976   57.6517 O   0  0  0  0  0  0  0  0  0  0  0  0
   67.8734   39.8096   58.3299 C   0  0  0  0  0  0  0  0  0  0  0  0
   66.9990   39.3422   59.2418 N   0  0  0  0  0  0  0  0  0  0  0  0
   66.2913   40.2473   59.9379 C   0  0  0  0  0  0  0  0  0  0  0  0
   65.4396   39.8008   60.8258 C   0  0  0  0  0  0  0  0  0  0  0  0
   66.4833   41.6118   59.6936 C   0  0  0  0  0  0  0  0  0  0  0  0
   65.7976   42.4159   60.3701 O   0  0  0  0  0  0  0  0  0  0  0  0
   67.3661   42.0424   58.7735 N   0  0  0  0  0  0  0  0  0  0  0  0
   68.0717   41.1552   58.0807 C   0  0  0  0  0  0  0  0  0  0  0  0
   68.9279   41.6142   57.1874 C   0  0  0  0  0  0  0  0  0  0  0  0
   69.0960   43.0449   56.9660 C   0  0  0  0  0  0  0  0  0  0  0  0
   70.0802   43.6663   57.7060 C   0  0  0  0  0  0  0  0  0  0  0  0
   70.3620   45.0092   57.6117 C   0  0  0  0  0  0  0  0  0  0  0  0
   69.5975   45.7507   56.7147 C   0  0  0  0  0  0  0  0  0  0  0  0
   68.6127   45.1282   55.9753 C   0  0  0  0  0  0  0  0  0  0  0  0
   68.3470   43.7787   56.0849 C   0  0  0  0  0  0  0  0  0  0  0  0
   67.8873   45.9264   55.0999 O   0  0  0  0  0  0  0  0  0  0  0  0
   68.4847   46.6637   54.0970 C   0  0  0  0  0  0  0  0  0  0  0  0
   68.5624   46.1869   52.8094 C   0  0  0  0  0  0  0  0  0  0  0  0
   69.1716   46.9559   51.8226 C   0  0  0  0  0  0  0  0  0  0  0  0
   69.7000   48.2089   52.1512 C   0  0  0  0  0  0  0  0  0  0  0  0
   70.2970   48.9759   51.2103 F   0  0  0  0  0  0  0  0  0  0  0  0
   69.6240   48.6875   53.4333 C   0  0  0  0  0  0  0  0  0  0  0  0
   69.0139   47.9025   54.3910 C   0  0  0  0  0  0  0  0  0  0  0  0
   65.2719   38.3486   61.0471 C   0  0  0  0  0  0  0  0  0  0  0  0
   65.8907   37.5654   61.9255 N   0  0  0  0  0  0  0  0  0  0  0  0
   65.4017   36.3263   61.7444 C   0  0  0  0  0  0  0  0  0  0  0  0
   64.4621   36.3392   60.7354 C   0  0  0  0  0  0  0  0  0  0  0  0
   64.4062   37.6254   60.3208 N   0  0  0  0  0  0  0  0  0  0  0  0
  1  2  2  0
  2  3  1  0
  2  9  1  0
  3  4  1  0
  4  5  2  0
  4  6  1  0
  5 25  1  0
 25 26  2  0
 25 29  1  0
 26 27  1  0
 27 28  2  0
 28 29  1  0
  6  7  2  0
  6  8  1  0
  8  9  1  0
  9 10  2  0
 10 11  1  0
 11 12  2  0
 11 16  1  0
 12 13  1  0
 13 14  2  0
 14 15  1  0
 15 17  1  0
 15 16  2  0
 17 18  1  0
 18 19  2  0
 18 24  1  0
 19 20  1  0
 20 21  2  0
 21 22  1  0
 21 23  1  0
 23 24  2  0
M  CHG  1  26   1
M  END
>  <minimizedAffinity>  (464) 
-9.10918

$$$$
data/reference_output_2/data/smiles/128135.pdb
     RDKit          3D

 27 29  0  0  0  0  0  0  0  0999 V2000
   68.3586   45.8606   54.1583 C   0  0  0  0  0  0  0  0  0  0  0  0
   67.7232   45.3886   53.0157 C   0  0  0  0  0  0  0  0  0  0  0  0
   67.7649   46.0326   51.8078 C   0  0  0  0  0  0  0  0  0  0  0  0
   68.4620   47.1976   51.7137 C   0  0  0  0  0  0  0  0  0  0  0  0
   69.1179   47.7265   52.8040 C   0  0  0  0  0  0  0  0  0  0  0  0
   69.0529   47.0433   54.0170 C   0  0  0  0  0  0  0  0  0  0  0  0
   67.8384   43.7963   55.5090 N   0  0  0  0  0  0  0  0  0  0  0  0
   68.2782   45.1286   55.4185 C   0  0  0  0  0  0  0  0  0  0  0  0
   68.6194   45.7187   56.4750 O   0  0  0  0  0  0  0  0  0  0  0  0
   67.0533   41.2137   55.4050 C   0  0  0  0  0  0  0  0  0  0  0  0
   67.3888   41.8558   56.6923 C   0  0  0  0  0  0  0  0  0  0  0  0
   67.7703   43.1083   56.7474 N   0  0  0  0  0  0  0  0  0  0  0  0
   67.2889   41.0681   57.9137 C   0  0  0  0  0  0  0  0  0  0  0  0
   66.5845   41.5665   58.9809 C   0  0  0  0  0  0  0  0  0  0  0  0
   66.4629   40.8676   60.1462 C   0  0  0  0  0  0  0  0  0  0  0  0
   67.0546   39.6291   60.2708 C   0  0  0  0  0  0  0  0  0  0  0  0
   67.7557   39.1401   59.1986 C   0  0  0  0  0  0  0  0  0  0  0  0
   67.8821   39.8319   58.0337 C   0  0  0  0  0  0  0  0  0  0  0  0
   70.0099   49.2255   52.6620 S   0  0  0  0  0  0  0  0  0  0  0  0
   69.6397   49.8660   51.3640 O   0  0  0  0  0  0  0  0  0  0  0  0
   71.4811   48.9391   52.6847 O   0  0  0  0  0  0  0  0  0  0  0  0
   69.5876   50.2802   53.9529 N   0  0  0  0  0  0  0  0  0  0  0  0
   70.4434   50.0625   55.1044 C   0  0  0  0  0  0  0  0  0  0  0  0
   70.3228   51.1538   56.1281 C   0  0  0  0  0  0  0  0  0  0  0  0
   69.2957   52.0254   55.9351 O   0  0  0  0  0  0  0  0  0  0  0  0
   69.0817   52.4722   54.6737 C   0  0  0  0  0  0  0  0  0  0  0  0
   69.7631   51.6731   53.5838 C   0  0  0  0  0  0  0  0  0  0  0  0
 10 11  1  0
 11 12  2  0
 11 13  1  0
 12  7  1  0
  7  8  1  0
  8  9  2  0
  8  1  1  0
  1  2  2  0
  1  6  1  0
  2  3  1  0
  3  4  2  0
  4  5  1  0
  5 19  1  0
  5  6  2  0
 19 20  2  0
 19 21  2  0
 19 22  1  0
 22 23  1  0
 22 27  1  0
 23 24  1  0
 24 25  1  0
 25 26  1  0
 26 27  1  0
 13 14  2  0
 13 18  1  0
 14 15  1  0
 15 16  2  0
 16 17  1  0
 17 18  2  0
M  END
>  <minimizedAffinity>  (465) 
-8.51488

$$$$
data/reference_output_2/data/smiles/128156.pdb
     RDKit          3D

 27 30  0  0  0  0  0  0  0  0999 V2000
   68.9567   41.6061   57.6015 C   0  0  0  0  0  0  0  0  0  0  0  0
   67.5128   41.9166   56.5254 S   0  0  0  0  0  0  0  0  0  0  0  0
   68.2769   43.5628   55.9748 C   0  0  0  0  0  0  0  0  0  0  0  0
   69.2477   43.5368   56.5847 N   0  0  0  0  0  0  0  0  0  0  0  0
   69.7119   42.6586   57.4133 N   0  0  0  0  0  0  0  0  0  0  0  0
   70.9808   42.8285   58.0845 C   0  0  0  0  0  0  0  0  0  0  0  0
   71.0784   43.4407   59.3151 C   0  0  0  0  0  0  0  0  0  0  0  0
   72.2872   43.6057   59.9602 C   0  0  0  0  0  0  0  0  0  0  0  0
   73.4444   43.1466   59.3650 C   0  0  0  0  0  0  0  0  0  0  0  0
   73.3898   42.5280   58.1333 C   0  0  0  0  0  0  0  0  0  0  0  0
   72.1611   42.3845   57.5235 C   0  0  0  0  0  0  0  0  0  0  0  0
   69.9352   39.4222   58.0959 C   0  0  0  0  0  0  0  0  0  0  0  0
   69.1026   40.3850   58.4473 C   0  0  0  0  0  0  0  0  0  0  0  0
   70.8381   34.6419   61.0076 O   0  0  0  0  0  0  0  0  0  0  0  0
   70.6124   35.8311   60.2844 C   0  0  0  0  0  0  0  0  0  0  0  0
   71.4292   36.1991   59.2435 C   0  0  0  0  0  0  0  0  0  0  0  0
   71.1748   37.3694   58.5605 C   0  0  0  0  0  0  0  0  0  0  0  0
   70.1289   38.2093   58.8672 C   0  0  0  0  0  0  0  0  0  0  0  0
   69.3270   37.8150   59.9140 C   0  0  0  0  0  0  0  0  0  0  0  0
   69.5550   36.6495   60.6169 C   0  0  0  0  0  0  0  0  0  0  0  0
   67.5070   44.3683   55.0061 N   0  0  0  0  0  0  0  0  0  0  0  0
   68.0025   45.4853   54.3369 C   0  0  0  0  0  0  0  0  0  0  0  0
   67.9109   45.5286   52.9599 C   0  0  0  0  0  0  0  0  0  0  0  0
   68.3898   46.5728   52.2107 C   0  0  0  0  0  0  0  0  0  0  0  0
   68.9960   47.6413   52.8315 C   0  0  0  0  0  0  0  0  0  0  0  0
   69.1045   47.6289   54.2050 C   0  0  0  0  0  0  0  0  0  0  0  0
   68.6055   46.5483   54.9500 C   0  0  0  0  0  0  0  0  0  0  0  0
 14 15  1  0
 15 16  2  0
 15 20  1  0
 16 17  1  0
 17 18  2  0
 18 12  1  0
 18 19  1  0
 12 13  2  0
 13  1  1  0
  1  2  1  0
  1  5  2  0
  2  3  1  0
  3 21  1  0
  3  4  2  0
 21 22  1  0
 22 23  2  0
 22 27  1  0
 23 24  1  0
 24 25  2  0
 25 26  1  0
 26 27  2  0
  4  5  1  0
  5  6  1  0
  6  7  2  0
  6 11  1  0
  7  8  1  0
  8  9  2  0
  9 10  1  0
 10 11  2  0
 19 20  2  0
M  CHG  1   5   1
M  END
>  <minimizedAffinity>  (466) 
-8.52020

$$$$
data/reference_output_2/data/smiles/128226.pdb
     RDKit          3D

 25 26  0  0  0  0  0  0  0  0999 V2000
   71.5995   49.9049   54.7246 N   0  0  0  0  0  0  0  0  0  0  0  0
   70.5606   49.7687   53.8127 C   0  0  0  0  0  0  0  0  0  0  0  0
   70.3372   50.8148   53.0949 O   0  0  0  0  0  0  0  0  0  0  0  0
   69.7457   48.5802   53.6250 C   0  0  0  0  0  0  0  0  0  0  0  0
   69.1906   47.8352   54.6242 C   0  0  0  0  0  0  0  0  0  0  0  0
   69.3818   48.1854   55.9132 F   0  0  0  0  0  0  0  0  0  0  0  0
   68.4141   46.7009   54.4223 C   0  0  0  0  0  0  0  0  0  0  0  0
   67.8960   46.0110   55.4798 F   0  0  0  0  0  0  0  0  0  0  0  0
   68.1923   46.3046   53.1228 C   0  0  0  0  0  0  0  0  0  0  0  0
   67.4413   45.2054   52.8991 F   0  0  0  0  0  0  0  0  0  0  0  0
   68.7314   47.0226   52.0695 C   0  0  0  0  0  0  0  0  0  0  0  0
   68.5063   46.6240   50.7941 F   0  0  0  0  0  0  0  0  0  0  0  0
   69.4893   48.1335   52.3136 C   0  0  0  0  0  0  0  0  0  0  0  0
   70.0405   48.8719   51.3017 F   0  0  0  0  0  0  0  0  0  0  0  0
   72.3868   51.1304   54.8702 C   0  0  2  0  0  0  0  0  0  0  0  0
   74.8553   51.5044   55.3003 N   0  0  0  0  0  0  0  0  0  0  0  0
   73.8040   50.9224   54.5560 C   0  0  0  0  0  0  0  0  0  0  0  0
   74.1213   50.1982   53.5871 O   0  0  0  0  0  0  0  0  0  0  0  0
   72.2549   51.5222   56.3387 C   0  0  0  0  0  0  0  0  0  0  0  0
   70.8075   51.5362   56.7311 C   0  0  0  0  0  0  0  0  0  0  0  0
   70.3596   50.6639   57.7023 C   0  0  0  0  0  0  0  0  0  0  0  0
   69.0281   50.6809   58.0593 C   0  0  0  0  0  0  0  0  0  0  0  0
   68.1326   51.5488   57.4689 C   0  0  0  0  0  0  0  0  0  0  0  0
   68.6144   52.4152   56.4951 C   0  0  0  0  0  0  0  0  0  0  0  0
   69.9328   52.4335   56.1077 C   0  0  0  0  0  0  0  0  0  0  0  0
 16 17  1  0
 17 18  2  0
 17 15  1  0
 15 19  1  1
 15  1  1  0
 19 20  1  0
 20 21  2  0
 20 25  1  0
 21 22  1  0
 22 23  2  0
 23 24  1  0
 24 25  2  0
  1  2  1  0
  2  3  2  0
  2  4  1  0
  4  5  2  0
  4 13  1  0
  5  6  1  0
  5  7  1  0
  7  8  1  0
  7  9  2  0
  9 10  1  0
  9 11  1  0
 11 12  1  0
 11 13  2  0
 13 14  1  0
M  END
>  <minimizedAffinity>  (467) 
-9.00947

$$$$
data/reference_output_2/data/smiles/128366.pdb
     RDKit          3D

 24 26  0  0  0  0  0  0  0  0999 V2000
   70.4798   47.6299   57.3702 C   0  0  0  0  0  0  0  0  0  0  0  0
   70.0015   46.2486   57.1774 C   0  0  0  0  0  0  0  0  0  0  0  0
   70.5146   45.1821   57.9000 C   0  0  0  0  0  0  0  0  0  0  0  0
   69.8320   44.0792   57.4522 C   0  0  0  0  0  0  0  0  0  0  0  0
   69.9933   42.7727   57.8974 C   0  0  0  0  0  0  0  0  0  0  0  0
   69.2039   41.8193   57.3393 C   0  0  0  0  0  0  0  0  0  0  0  0
   68.3100   42.1995   56.3854 C   0  0  0  0  0  0  0  0  0  0  0  0
   68.1757   43.5162   55.9643 C   0  0  0  0  0  0  0  0  0  0  0  0
   68.9494   44.4477   56.5087 N   0  0  0  0  0  0  0  0  0  0  0  0
   69.0292   45.7988   56.3063 C   0  0  0  0  0  0  0  0  0  0  0  0
   71.5785   45.2506   58.9143 C   0  0  0  0  0  0  0  0  0  0  0  0
   71.5975   46.0309   59.8433 N   0  0  0  0  0  0  0  0  0  0  0  0
   71.8324   46.7385   60.8762 N   0  0  0  0  0  0  0  0  0  0  0  0
   73.0718   47.4139   61.2018 C   0  0  0  0  0  0  0  0  0  0  0  0
   73.1694   48.1534   62.4081 N   0  0  0  0  0  0  0  0  0  0  0  0
   74.0714   47.3589   60.4372 O   0  0  0  0  0  0  0  0  0  0  0  0
   68.2559   46.6362   55.3985 C   0  0  0  0  0  0  0  0  0  0  0  0
   67.3001   47.3296   55.8728 O   0  0  0  0  0  0  0  0  0  0  0  0
   68.4635   46.7717   53.9717 C   0  0  0  0  0  0  0  0  0  0  0  0
   67.8173   45.9822   53.0410 C   0  0  0  0  0  0  0  0  0  0  0  0
   68.0230   46.1632   51.7286 C   0  0  0  0  0  0  0  0  0  0  0  0
   68.8587   47.1084   51.2166 N   0  0  0  0  0  0  0  0  0  0  0  0
   69.5159   47.9081   52.0788 C   0  0  0  0  0  0  0  0  0  0  0  0
   69.3084   47.7283   53.4521 C   0  0  0  0  0  0  0  0  0  0  0  0
  1  2  1  0
  2  3  1  0
  2 10  2  0
  3 11  1  0
  3  4  2  0
 11 12  2  0
 12 13  1  0
 13 14  1  0
 14 15  1  0
 14 16  2  0
  4  5  1  0
  4  9  1  0
  5  6  2  0
  6  7  1  0
  7  8  2  0
  8  9  1  0
  9 10  1  0
 10 17  1  0
 17 18  2  0
 17 19  1  0
 19 20  2  0
 19 24  1  0
 20 21  1  0
 21 22  2  0
 22 23  1  0
 23 24  2  0
M  END
>  <minimizedAffinity>  (468) 
-8.73261

$$$$
data/reference_output_2/data/smiles/128431.pdb
     RDKit          3D

 24 26  0  0  0  0  0  0  0  0999 V2000
   70.1623   43.6945   57.7793 C   0  0  0  0  0  0  0  0  0  0  0  0
   69.5922   44.8150   57.6383 N   0  0  0  0  0  0  0  0  0  0  0  0
   70.4155   45.8966   57.8727 N   0  0  0  0  0  0  0  0  0  0  0  0
   70.2175   47.2788   57.5377 C   0  0  0  0  0  0  0  0  0  0  0  0
   71.1145   48.0999   57.8546 O   0  0  0  0  0  0  0  0  0  0  0  0
   71.5775   45.3620   58.5509 C   0  0  0  0  0  0  0  0  0  0  0  0
   71.5659   43.9162   58.1596 C   0  0  0  0  0  0  0  0  0  0  0  0
   69.2476   40.0595   58.0155 C   0  0  0  0  0  0  0  0  0  0  0  0
   68.1627   40.0252   57.1883 C   0  0  0  0  0  0  0  0  0  0  0  0
   67.7234   41.1707   56.5519 C   0  0  0  0  0  0  0  0  0  0  0  0
   68.3712   42.3834   56.7380 C   0  0  0  0  0  0  0  0  0  0  0  0
   67.9268   43.5653   56.0889 N   0  0  0  0  0  0  0  0  0  0  0  0
   69.4669   42.4035   57.5783 C   0  0  0  0  0  0  0  0  0  0  0  0
   69.8964   41.2550   58.2072 C   0  0  0  0  0  0  0  0  0  0  0  0
   70.9943   38.3798   58.4221 C   0  0  0  0  0  0  0  0  0  0  0  0
   69.7475   38.9537   58.6876 O   0  0  0  0  0  0  0  0  0  0  0  0
   69.0454   47.7786   56.8583 C   0  0  0  0  0  0  0  0  0  0  0  0
   69.1495   48.4262   55.5482 C   0  0  0  0  0  0  0  0  0  0  0  0
   68.8579   47.6570   54.3547 C   0  0  0  0  0  0  0  0  0  0  0  0
   69.4188   48.0632   53.1372 C   0  0  0  0  0  0  0  0  0  0  0  0
   69.1585   47.3806   51.9676 C   0  0  0  0  0  0  0  0  0  0  0  0
   68.3318   46.2719   51.9659 C   0  0  0  0  0  0  0  0  0  0  0  0
   67.7757   45.8637   53.1491 C   0  0  0  0  0  0  0  0  0  0  0  0
   68.0483   46.5668   54.3301 C   0  0  0  0  0  0  0  0  0  0  0  0
 15 16  1  0
 16  8  1  0
  8  9  2  0
  8 14  1  0
  9 10  1  0
 10 11  2  0
 11 12  1  0
 11 13  1  0
 13  1  1  0
 13 14  2  0
  1  2  2  0
  1  7  1  0
  2  3  1  0
  3  4  1  0
  3  6  1  0
  4  5  2  0
  4 17  1  0
 17 18  1  0
 18 19  1  0
 19 20  2  0
 19 24  1  0
 20 21  1  0
 21 22  2  0
 22 23  1  0
 23 24  2  0
  6  7  1  0
M  END
>  <minimizedAffinity>  (469) 
-8.55687

$$$$
data/reference_output_2/data/smiles/128510.pdb
     RDKit          3D

 23 24  0  0  0  0  0  0  0  0999 V2000
   72.2386   50.5284   53.9669 N   0  0  0  0  0  0  0  0  0  0  0  0
   69.6503   50.8993   53.6323 C   0  0  0  0  0  0  0  0  0  0  0  0
   70.1728   49.5405   53.5747 C   0  0  0  0  0  0  0  0  0  0  0  0
   71.4758   49.3942   53.7480 N   0  0  0  0  0  0  0  0  0  0  0  0
   69.4171   48.3312   53.2836 C   0  0  0  0  0  0  0  0  0  0  0  0
   68.5599   47.7688   54.1948 C   0  0  0  0  0  0  0  0  0  0  0  0
   67.8042   46.6434   53.9128 C   0  0  0  0  0  0  0  0  0  0  0  0
   67.9053   46.0631   52.6904 C   0  0  0  0  0  0  0  0  0  0  0  0
   67.1307   44.9249   52.4229 O   0  0  0  0  0  0  0  0  0  0  0  0
   68.7492   46.5773   51.7282 C   0  0  0  0  0  0  0  0  0  0  0  0
   69.4959   47.7178   52.0569 C   0  0  0  0  0  0  0  0  0  0  0  0
   70.3270   48.1980   51.0602 O   0  0  0  0  0  0  0  0  0  0  0  0
   72.8997   50.8024   55.1592 C   0  0  0  0  0  0  0  0  0  0  0  0
   73.4586   52.3666   55.3165 S   0  0  0  0  0  0  0  0  0  0  0  0
   73.1495   49.9589   56.2418 N   0  0  0  0  0  0  0  0  0  0  0  0
   72.4083   49.8913   57.4800 C   0  0  0  0  0  0  0  0  0  0  0  0
   71.1500   49.1619   57.3717 C   0  0  0  0  0  0  0  0  0  0  0  0
   69.8692   49.8102   57.3979 C   0  0  0  0  0  0  0  0  0  0  0  0
   69.7865   51.1815   57.2947 C   0  0  0  0  0  0  0  0  0  0  0  0
   68.5375   51.8248   57.2830 C   0  0  0  0  0  0  0  0  0  0  0  0
   67.3759   51.1232   57.3727 C   0  0  0  0  0  0  0  0  0  0  0  0
   67.4496   49.7450   57.4778 C   0  0  0  0  0  0  0  0  0  0  0  0
   68.6763   49.1139   57.4896 C   0  0  0  0  0  0  0  0  0  0  0  0
  2  3  1  0
  3  4  2  0
  3  5  1  0
  4  1  1  0
  1 13  1  0
 13 14  2  0
 13 15  1  0
 15 16  1  0
 16 17  1  0
 17 18  1  0
 18 19  2  0
 18 23  1  0
 19 20  1  0
 20 21  2  0
 21 22  1  0
 22 23  2  0
  5  6  2  0
  5 11  1  0
  6  7  1  0
  7  8  2  0
  8  9  1  0
  8 10  1  0
 10 11  2  0
 11 12  1  0
M  END
>  <minimizedAffinity>  (470) 
-8.53667

$$$$
data/reference_output_2/data/smiles/128533.pdb
     RDKit          3D

 29 31  0  0  0  0  0  0  0  0999 V2000
   70.8559   43.3594   57.9339 C   0  0  0  0  0  0  0  0  0  0  0  0
   69.7607   43.4381   57.0993 C   0  0  0  0  0  0  0  0  0  0  0  0
   69.2022   44.6428   56.7278 C   0  0  0  0  0  0  0  0  0  0  0  0
   69.7224   45.8370   57.1810 C   0  0  0  0  0  0  0  0  0  0  0  0
   70.8171   45.7713   58.0160 C   0  0  0  0  0  0  0  0  0  0  0  0
   71.3766   44.5588   58.3881 C   0  0  0  0  0  0  0  0  0  0  0  0
   72.5921   42.0580   58.7641 O   0  0  0  0  0  0  0  0  0  0  0  0
   71.4216   42.0687   58.3075 C   0  0  0  0  0  0  0  0  0  0  0  0
   70.7590   40.8385   58.1972 N   0  0  0  0  0  0  0  0  0  0  0  0
   71.3137   39.6090   58.5592 N   0  0  0  0  0  0  0  0  0  0  0  0
   70.4649   38.4795   58.5998 C   0  0  0  0  0  0  0  0  0  0  0  0
   69.2367   38.6516   58.3022 O   0  0  0  0  0  0  0  0  0  0  0  0
   70.8946   37.1525   58.9540 C   0  0  0  0  0  0  0  0  0  0  0  0
   70.3919   36.5255   60.0718 C   0  0  0  0  0  0  0  0  0  0  0  0
   70.8034   35.2506   60.4152 C   0  0  0  0  0  0  0  0  0  0  0  0
   71.7224   34.5635   59.6579 C   0  0  0  0  0  0  0  0  0  0  0  0
   72.2326   35.1797   58.5360 C   0  0  0  0  0  0  0  0  0  0  0  0
   71.8145   36.4530   58.2039 C   0  0  0  0  0  0  0  0  0  0  0  0
   72.3362   37.0621   57.0717 O   0  0  0  0  0  0  0  0  0  0  0  0
   69.0194   47.3868   56.7148 S   0  0  0  0  0  0  0  0  0  0  0  0
   69.4937   48.4618   57.6881 O   0  0  0  0  0  0  0  0  0  0  0  0
   67.5339   47.3837   56.8234 O   0  0  0  0  0  0  0  0  0  0  0  0
   69.5954   47.8767   55.1668 N   0  0  0  0  0  0  0  0  0  0  0  0
   69.0218   47.2704   54.0197 C   0  0  0  0  0  0  0  0  0  0  0  0
   69.4256   47.7088   52.7809 C   0  0  0  0  0  0  0  0  0  0  0  0
   68.8949   47.1448   51.6405 C   0  0  0  0  0  0  0  0  0  0  0  0
   67.9630   46.1449   51.7128 C   0  0  0  0  0  0  0  0  0  0  0  0
   67.5683   45.7145   52.9563 C   0  0  0  0  0  0  0  0  0  0  0  0
   68.0912   46.2714   54.0990 C   0  0  0  0  0  0  0  0  0  0  0  0
  7  8  2  0
  8  9  1  0
  8  1  1  0
  9 10  1  0
 10 11  1  0
 11 12  2  0
 11 13  1  0
 13 14  2  0
 13 18  1  0
 14 15  1  0
 15 16  2  0
 16 17  1  0
 17 18  2  0
 18 19  1  0
  1  2  2  0
  1  6  1  0
  2  3  1  0
  3  4  2  0
  4 20  1  0
  4  5  1  0
 20 21  2  0
 20 22  2  0
 20 23  1  0
 23 24  1  0
 24 25  2  0
 24 29  1  0
 25 26  1  0
 26 27  2  0
 27 28  1  0
 28 29  2  0
  5  6  2  0
M  END
>  <minimizedAffinity>  (471) 
-8.73920

$$$$
data/reference_output_2/data/smiles/128832.pdb
     RDKit          3D

 23 25  0  0  0  0  0  0  0  0999 V2000
   68.6026   42.4242   56.7414 C   0  0  0  0  0  0  0  0  0  0  0  0
   68.7577   43.6466   56.4655 N   0  0  0  0  0  0  0  0  0  0  0  0
   73.0222   40.0073   59.6360 C   0  0  0  0  0  0  0  0  0  0  0  0
   71.8698   40.6045   58.8944 C   0  0  0  0  0  0  0  0  0  0  0  0
   71.9909   41.8123   58.2313 C   0  0  0  0  0  0  0  0  0  0  0  0
   70.9483   42.3823   57.5487 C   0  0  0  0  0  0  0  0  0  0  0  0
   69.6885   41.7671   57.4830 C   0  0  0  0  0  0  0  0  0  0  0  0
   69.5709   40.5736   58.1381 C   0  0  0  0  0  0  0  0  0  0  0  0
   70.6454   39.9923   58.8383 C   0  0  0  0  0  0  0  0  0  0  0  0
   67.3737   41.7896   56.3217 C   0  0  0  0  0  0  0  0  0  0  0  0
   66.2807   42.2204   56.7482 O   0  0  0  0  0  0  0  0  0  0  0  0
   67.3064   40.7102   55.4558 O   0  0  0  0  0  0  0  0  0  0  0  0
   67.9584   44.5457   55.7995 N   0  0  0  0  0  0  0  0  0  0  0  0
   68.5052   45.8743   55.6429 C   0  0  0  0  0  0  0  0  0  0  0  0
   68.9238   46.5688   56.6996 N   0  0  0  0  0  0  0  0  0  0  0  0
   69.4578   47.8069   56.5708 C   0  0  0  0  0  0  0  0  0  0  0  0
   69.5690   48.3567   55.3386 N   0  0  0  0  0  0  0  0  0  0  0  0
   69.1703   47.7191   54.2365 C   0  0  0  0  0  0  0  0  0  0  0  0
   69.2965   48.2788   52.9910 C   0  0  0  0  0  0  0  0  0  0  0  0
   68.8718   47.5648   51.8677 C   0  0  0  0  0  0  0  0  0  0  0  0
   68.3385   46.3201   52.0276 C   0  0  0  0  0  0  0  0  0  0  0  0
   68.2055   45.7392   53.2901 C   0  0  0  0  0  0  0  0  0  0  0  0
   68.6211   46.4376   54.3973 C   0  0  0  0  0  0  0  0  0  0  0  0
  3  4  1  0
  4  5  2  0
  4  9  1  0
  5  6  1  0
  6  7  2  0
  7  1  1  0
  7  8  1  0
  1  2  2  0
  1 10  1  0
  2 13  1  0
 13 14  1  0
 14 15  2  0
 14 23  1  0
 15 16  1  0
 16 17  2  0
 17 18  1  0
 18 19  1  0
 18 23  2  0
 19 20  2  0
 20 21  1  0
 21 22  2  0
 22 23  1  0
 10 11  2  0
 10 12  1  0
  8  9  2  0
M  END
>  <minimizedAffinity>  (472) 
-8.70557

$$$$
data/reference_output_2/data/smiles/128907.pdb
     RDKit          3D

 25 27  0  0  0  0  0  0  0  0999 V2000
   69.3230   47.3624   55.7961 C   0  0  0  0  0  0  0  0  0  0  0  0
   68.9049   47.1136   54.4145 C   0  0  0  0  0  0  0  0  0  0  0  0
   67.9490   46.2231   54.0757 C   0  0  0  0  0  0  0  0  0  0  0  0
   67.6211   46.0599   52.7287 C   0  0  0  0  0  0  0  0  0  0  0  0
   68.2207   46.7587   51.7205 C   0  0  0  0  0  0  0  0  0  0  0  0
   69.1975   47.6663   52.0738 C   0  0  0  0  0  0  0  0  0  0  0  0
   69.5345   47.8405   53.4097 C   0  0  0  0  0  0  0  0  0  0  0  0
   68.5161   48.4461   56.4430 C   0  0  0  0  0  0  0  0  0  0  0  0
   68.9121   49.7492   56.2339 C   0  0  0  0  0  0  0  0  0  0  0  0
   68.2431   50.8409   56.7980 C   0  0  0  0  0  0  0  0  0  0  0  0
   67.1590   50.5857   57.5819 C   0  0  0  0  0  0  0  0  0  0  0  0
   66.7645   49.2830   57.7891 C   0  0  0  0  0  0  0  0  0  0  0  0
   67.4326   48.2187   57.2275 C   0  0  0  0  0  0  0  0  0  0  0  0
   68.7148   44.8823   56.1223 N   0  0  0  0  0  0  0  0  0  0  0  0
   69.2323   46.1123   56.5974 C   0  0  0  0  0  0  0  0  0  0  0  0
   69.6343   46.0887   57.8144 O   0  0  0  0  0  0  0  0  0  0  0  0
   67.0613   42.7879   55.6394 O   0  0  0  0  0  0  0  0  0  0  0  0
   67.7947   42.6719   56.6588 C   0  0  0  0  0  0  0  0  0  0  0  0
   68.6724   43.7360   56.9524 N   0  0  0  0  0  0  0  0  0  0  0  0
   67.6921   41.4629   57.4600 C   0  0  0  0  0  0  0  0  0  0  0  0
   66.9854   41.3873   58.6239 C   0  0  0  0  0  0  0  0  0  0  0  0
   66.9172   40.2060   59.3562 C   0  0  0  0  0  0  0  0  0  0  0  0
   67.5787   39.0906   58.8945 C   0  0  0  0  0  0  0  0  0  0  0  0
   68.2846   39.1944   57.7167 C   0  0  0  0  0  0  0  0  0  0  0  0
   68.3265   40.3571   57.0369 N   0  0  0  0  0  0  0  0  0  0  0  0
 17 18  2  0
 18 19  1  0
 18 20  1  0
 19 14  1  0
 14 15  1  0
 15 16  2  0
 15  1  1  0
  1  2  1  0
  1  8  1  0
  2  3  2  0
  2  7  1  0
  3  4  1  0
  4  5  2  0
  5  6  1  0
  6  7  2  0
  8  9  2  0
  8 13  1  0
  9 10  1  0
 10 11  2  0
 11 12  1  0
 12 13  2  0
 20 21  2  0
 20 25  1  0
 21 22  1  0
 22 23  2  0
 23 24  1  0
 24 25  2  0
M  END
>  <minimizedAffinity>  (473) 
-9.17021

$$$$
data/reference_output_2/data/smiles/128971.pdb
     RDKit          3D

 25 28  0  0  0  0  0  0  0  0999 V2000
   70.3187   39.9183   58.2309 C   0  0  0  0  0  0  0  0  0  0  0  0
   71.3116   40.8736   58.2965 C   0  0  0  0  0  0  0  0  0  0  0  0
   71.0983   42.2022   57.9670 C   0  0  0  0  0  0  0  0  0  0  0  0
   69.8494   42.6183   57.5521 C   0  0  0  0  0  0  0  0  0  0  0  0
   68.8562   41.6650   57.4855 C   0  0  0  0  0  0  0  0  0  0  0  0
   69.0742   40.3405   57.8154 C   0  0  0  0  0  0  0  0  0  0  0  0
   69.1829   38.4726   60.5942 C   0  0  0  0  0  0  0  0  0  0  0  0
   70.0987   37.8863   59.6481 N   0  0  0  0  0  0  0  0  0  0  0  0
   70.6074   38.5289   58.5925 C   0  0  0  0  0  0  0  0  0  0  0  0
   71.4276   37.6257   57.9520 C   0  0  0  0  0  0  0  0  0  0  0  0
   71.3886   36.4508   58.6506 N   0  0  0  0  0  0  0  0  0  0  0  0
   72.0031   35.2691   58.4471 C   0  0  0  0  0  0  0  0  0  0  0  0
   71.7908   34.2352   59.3083 C   0  0  0  0  0  0  0  0  0  0  0  0
   70.9555   34.3613   60.3940 C   0  0  0  0  0  0  0  0  0  0  0  0
   70.3400   35.5794   60.5784 C   0  0  0  0  0  0  0  0  0  0  0  0
   70.5642   36.6182   59.6999 C   0  0  0  0  0  0  0  0  0  0  0  0
   69.5721   44.0040   57.1938 C   0  0  0  0  0  0  0  0  0  0  0  0
   68.6234   44.3479   56.3929 N   0  0  0  0  0  0  0  0  0  0  0  0
   68.3492   45.6706   56.0428 N   0  0  0  0  0  0  0  0  0  0  0  0
   68.3387   45.9842   54.6506 C   0  0  0  0  0  0  0  0  0  0  0  0
   68.9727   47.0649   54.1582 N   0  0  0  0  0  0  0  0  0  0  0  0
   68.9944   47.4068   52.8593 C   0  0  0  0  0  0  0  0  0  0  0  0
   68.3322   46.6152   51.9485 C   0  0  0  0  0  0  0  0  0  0  0  0
   67.6826   45.5079   52.4490 C   0  0  0  0  0  0  0  0  0  0  0  0
   67.6855   45.2022   53.7581 N   0  0  0  0  0  0  0  0  0  0  0  0
  7  8  1  0
  8  9  1  0
  8 16  2  0
  9  1  1  0
  9 10  2  0
  1  2  2  0
  1  6  1  0
  2  3  1  0
  3  4  2  0
  4 17  1  0
  4  5  1  0
 17 18  2  0
 18 19  1  0
 19 20  1  0
 20 21  2  0
 20 25  1  0
 21 22  1  0
 22 23  2  0
 23 24  1  0
 24 25  2  0
  5  6  2  0
 10 11  1  0
 11 12  1  0
 11 16  1  0
 12 13  2  0
 13 14  1  0
 14 15  2  0
 15 16  1  0
M  CHG  1   8   1
M  END
>  <minimizedAffinity>  (474) 
-8.78354

$$$$
data/reference_output_2/data/smiles/129035.pdb
     RDKit          3D

 24 26  0  0  0  0  0  0  0  0999 V2000
   70.8810   44.2198   58.4402 C   0  0  0  0  0  0  0  0  0  0  0  0
   69.9557   43.2076   57.9709 N   0  0  0  0  0  0  0  0  0  0  0  0
   68.9374   43.4198   57.1559 N   0  0  0  0  0  0  0  0  0  0  0  0
   68.2746   42.2935   56.9070 C   0  0  0  0  0  0  0  0  0  0  0  0
   68.9036   41.2756   57.6083 C   0  0  0  0  0  0  0  0  0  0  0  0
   69.9481   41.8902   58.2595 C   0  0  0  0  0  0  0  0  0  0  0  0
   70.7121   40.8921   59.0646 C   0  0  0  0  0  0  0  0  0  0  0  0
   69.6505   39.8011   59.2680 C   0  0  0  0  0  0  0  0  0  0  0  0
   68.9322   39.8305   57.9463 C   0  0  0  0  0  0  0  0  0  0  0  0
   67.0812   42.0666   56.0565 C   0  0  0  0  0  0  0  0  0  0  0  0
   67.2786   40.8638   55.3805 F   0  0  0  0  0  0  0  0  0  0  0  0
   66.9410   43.0917   55.1385 F   0  0  0  0  0  0  0  0  0  0  0  0
   65.9822   41.9914   56.8987 F   0  0  0  0  0  0  0  0  0  0  0  0
   71.1007   46.6048   58.2456 O   0  0  0  0  0  0  0  0  0  0  0  0
   70.4986   45.5669   57.8836 C   0  0  0  0  0  0  0  0  0  0  0  0
   69.4495   45.6961   56.9380 N   0  0  0  0  0  0  0  0  0  0  0  0
   69.0047   46.9326   56.3412 C   0  0  0  0  0  0  0  0  0  0  0  0
   68.7622   46.8340   54.8993 C   0  0  0  0  0  0  0  0  0  0  0  0
   68.0236   45.8066   54.3737 C   0  0  0  0  0  0  0  0  0  0  0  0
   67.7770   45.7028   53.0122 C   0  0  0  0  0  0  0  0  0  0  0  0
   68.2772   46.6473   52.1414 C   0  0  0  0  0  0  0  0  0  0  0  0
   68.0119   46.5046   50.8315 F   0  0  0  0  0  0  0  0  0  0  0  0
   69.0190   47.6812   52.6506 C   0  0  0  0  0  0  0  0  0  0  0  0
   69.2639   47.7812   54.0188 C   0  0  0  0  0  0  0  0  0  0  0  0
 14 15  2  0
 15  1  1  0
 15 16  1  0
  1  2  1  0
  2  3  1  0
  2  6  1  0
  3  4  2  0
  4 10  1  0
  4  5  1  0
 10 11  1  0
 10 12  1  0
 10 13  1  0
  5  6  2  0
  5  9  1  0
  6  7  1  0
  7  8  1  0
  8  9  1  0
 16 17  1  0
 17 18  1  0
 18 19  2  0
 18 24  1  0
 19 20  1  0
 20 21  2  0
 21 22  1  0
 21 23  1  0
 23 24  2  0
M  END
>  <minimizedAffinity>  (475) 
-8.66019

$$$$
data/reference_output_2/data/smiles/129093.pdb
     RDKit          3D

 32 35  0  0  0  0  0  0  0  0999 V2000
   68.0844   46.0166   53.3986 C   0  0  0  0  0  0  0  0  0  0  0  0
   68.4947   47.1966   53.9964 C   0  0  0  0  0  0  0  0  0  0  0  0
   68.9075   47.2687   55.3041 C   0  0  0  0  0  0  0  0  0  0  0  0
   68.8916   46.0646   56.0174 C   0  0  0  0  0  0  0  0  0  0  0  0
   68.4919   44.8841   55.4523 C   0  0  0  0  0  0  0  0  0  0  0  0
   68.1055   44.9269   54.1605 N   0  0  0  0  0  0  0  0  0  0  0  0
   69.3220   48.4748   55.9133 N   0  0  0  0  0  0  0  0  0  0  0  0
   70.2424   48.3957   57.0336 C   0  0  0  0  0  0  0  0  0  0  0  0
   71.0159   49.6961   57.1910 C   0  0  0  0  0  0  0  0  0  0  0  0
   71.2685   50.1680   55.8563 N   0  0  0  0  0  0  0  0  0  0  0  0
   72.5771   50.2379   55.3387 C   0  0  0  0  0  0  0  0  0  0  0  0
   73.7374   49.8600   56.0655 N   0  0  0  0  0  0  0  0  0  0  0  0
   72.7944   50.6583   54.1514 O   0  0  0  0  0  0  0  0  0  0  0  0
   70.1463   50.5693   55.0471 C   0  0  0  0  0  0  0  0  0  0  0  0
   68.9068   49.7982   55.5231 C   0  0  0  0  0  0  0  0  0  0  0  0
   68.4856   43.6283   56.2042 C   0  0  0  0  0  0  0  0  0  0  0  0
   67.5663   42.6274   56.0209 C   0  0  0  0  0  0  0  0  0  0  0  0
   67.6013   41.4486   56.7648 C   0  0  0  0  0  0  0  0  0  0  0  0
   68.5606   41.2239   57.7247 C   0  0  0  0  0  0  0  0  0  0  0  0
   69.4943   42.2257   57.9184 C   0  0  0  0  0  0  0  0  0  0  0  0
   69.4532   43.3879   57.1799 C   0  0  0  0  0  0  0  0  0  0  0  0
   68.5816   40.0431   58.4584 O   0  0  0  0  0  0  0  0  0  0  0  0
   67.4834   39.5315   59.1192 C   0  0  0  0  0  0  0  0  0  0  0  0
   67.1812   38.1996   58.9945 C   0  0  0  0  0  0  0  0  0  0  0  0
   66.1004   37.6098   59.6218 C   0  0  0  0  0  0  0  0  0  0  0  0
   65.2813   38.3845   60.4103 C   0  0  0  0  0  0  0  0  0  0  0  0
   64.1899   37.8595   61.0590 F   0  0  0  0  0  0  0  0  0  0  0  0
   65.5498   39.7264   60.5617 C   0  0  0  0  0  0  0  0  0  0  0  0
   66.6471   40.2922   59.9161 C   0  0  0  0  0  0  0  0  0  0  0  0
   68.2079   46.8836   51.0335 N   0  0  0  0  0  0  0  0  0  0  0  0
   67.6599   46.0140   52.0033 C   0  0  0  0  0  0  0  0  0  0  0  0
   66.7679   45.2009   51.6625 O   0  0  0  0  0  0  0  0  0  0  0  0
 30 31  1  0
 31 32  2  0
 31  1  1  0
  1  2  2  0
  1  6  1  0
  2  3  1  0
  3  7  1  0
  3  4  2  0
  7  8  1  0
  7 15  1  0
  8  9  1  0
  9 10  1  0
 10 11  1  0
 10 14  1  0
 11 12  1  0
 11 13  2  0
 14 15  1  0
  4  5  1  0
  5 16  1  0
  5  6  2  0
 16 17  2  0
 16 21  1  0
 17 18  1  0
 18 19  2  0
 19 22  1  0
 19 20  1  0
 22 23  1  0
 23 24  2  0
 23 29  1  0
 24 25  1  0
 25 26  2  0
 26 27  1  0
 26 28  1  0
 28 29  2  0
 20 21  2  0
M  END
>  <minimizedAffinity>  (476) 
-8.78340

$$$$
data/reference_output_2/data/smiles/129187.pdb
     RDKit          3D

 26 28  0  0  0  0  0  0  0  0999 V2000
   68.2323   46.6503   53.3693 C   0  0  0  0  0  0  0  0  0  0  0  0
   69.2052   47.4709   52.8410 C   0  0  0  0  0  0  0  0  0  0  0  0
   69.8929   48.3898   53.5996 C   0  0  0  0  0  0  0  0  0  0  0  0
   69.5879   48.4947   54.9732 C   0  0  0  0  0  0  0  0  0  0  0  0
   68.6230   47.6913   55.5309 C   0  0  0  0  0  0  0  0  0  0  0  0
   67.9716   46.7959   54.7278 C   0  0  0  0  0  0  0  0  0  0  0  0
   68.3661   47.8593   56.9836 C   0  0  0  0  0  0  0  0  0  0  0  0
   69.7448   47.9073   57.6119 C   0  0  2  0  0  0  0  0  0  0  0  0
   70.2887   49.2751   57.2602 C   0  0  0  0  0  0  0  0  0  0  0  0
   70.3172   49.4856   55.7932 C   0  0  0  0  0  0  0  0  0  0  0  0
   67.3016   44.5491   52.9918 O   0  0  0  0  0  0  0  0  0  0  0  0
   67.5215   45.6862   52.5335 C   0  0  0  0  0  0  0  0  0  0  0  0
   67.0576   45.9593   51.2223 N   0  0  0  0  0  0  0  0  0  0  0  0
   66.3941   45.0186   50.4781 O   0  0  0  0  0  0  0  0  0  0  0  0
   70.5431   46.8715   57.0108 N   0  0  0  0  0  0  0  0  0  0  0  0
   70.2694   45.3227   57.6902 S   0  0  0  0  0  0  0  0  0  0  0  0
   69.7583   45.5335   59.0982 O   0  0  0  0  0  0  0  0  0  0  0  0
   69.2987   44.5089   56.9247 O   0  0  0  0  0  0  0  0  0  0  0  0
   71.7966   44.4843   57.8313 C   0  0  0  0  0  0  0  0  0  0  0  0
   72.9591   45.2064   58.0160 C   0  0  0  0  0  0  0  0  0  0  0  0
   74.1905   44.6042   58.1379 C   0  0  0  0  0  0  0  0  0  0  0  0
   74.2800   43.2234   58.0743 C   0  0  0  0  0  0  0  0  0  0  0  0
   75.8398   42.4301   58.2283 Cl  0  0  0  0  0  0  0  0  0  0  0  0
   73.1177   42.5074   57.8903 C   0  0  0  0  0  0  0  0  0  0  0  0
   71.8731   43.1097   57.7656 C   0  0  0  0  0  0  0  0  0  0  0  0
   70.4216   42.1629   57.5267 Cl  0  0  0  0  0  0  0  0  0  0  0  0
 11 12  2  0
 12 13  1  0
 12  1  1  0
 13 14  1  0
  1  2  2  0
  1  6  1  0
  2  3  1  0
  3  4  2  0
  4  5  1  0
  4 10  1  0
  5  6  2  0
  5  7  1  0
  7  8  1  0
  8 15  1  6
  8  9  1  0
 15 16  1  0
 16 17  2  0
 16 18  2  0
 16 19  1  0
 19 20  2  0
 19 25  1  0
 20 21  1  0
 21 22  2  0
 22 23  1  0
 22 24  1  0
 24 25  2  0
 25 26  1  0
  9 10  1  0
M  END
>  <minimizedAffinity>  (477) 
-8.50895

$$$$
data/reference_output_2/data/smiles/129229.pdb
     RDKit          3D

 25 27  0  0  0  0  0  0  0  0999 V2000
   68.5710   42.0285   56.5227 O   0  0  0  0  0  0  0  0  0  0  0  0
   69.4525   42.5623   57.2188 C   0  0  0  0  0  0  0  0  0  0  0  0
   69.5183   43.9937   57.1539 N   0  0  0  0  0  0  0  0  0  0  0  0
   68.6332   44.7293   56.3459 N   0  0  0  0  0  0  0  0  0  0  0  0
   68.8553   46.0996   56.0612 C   0  0  0  0  0  0  0  0  0  0  0  0
   69.8727   46.6331   56.5583 O   0  0  0  0  0  0  0  0  0  0  0  0
   67.9609   46.9176   55.2229 C   0  0  0  0  0  0  0  0  0  0  0  0
   68.6808   47.3536   54.0064 C   0  0  0  0  0  0  0  0  0  0  0  0
   69.3239   48.5673   54.0127 C   0  0  0  0  0  0  0  0  0  0  0  0
   69.9969   48.9711   52.8709 C   0  0  0  0  0  0  0  0  0  0  0  0
   70.0488   48.2044   51.7241 C   0  0  0  0  0  0  0  0  0  0  0  0
   69.3998   46.9935   51.7363 C   0  0  0  0  0  0  0  0  0  0  0  0
   68.7235   46.5873   52.8831 C   0  0  0  0  0  0  0  0  0  0  0  0
   70.3815   41.7882   58.0658 C   0  0  0  0  0  0  0  0  0  0  0  0
   69.7664   40.8271   58.8467 O   0  0  0  0  0  0  0  0  0  0  0  0
   70.1039   39.4972   58.9845 C   0  0  0  0  0  0  0  0  0  0  0  0
   69.4759   38.7055   59.9407 C   0  0  0  0  0  0  0  0  0  0  0  0
   69.8105   37.3761   60.0787 C   0  0  0  0  0  0  0  0  0  0  0  0
   70.7688   36.7708   59.2887 C   0  0  0  0  0  0  0  0  0  0  0  0
   71.1327   35.4465   59.3949 C   0  0  0  0  0  0  0  0  0  0  0  0
   72.0956   34.8719   58.5886 C   0  0  0  0  0  0  0  0  0  0  0  0
   72.7198   35.6536   57.6408 C   0  0  0  0  0  0  0  0  0  0  0  0
   72.3678   36.9719   57.5248 C   0  0  0  0  0  0  0  0  0  0  0  0
   71.4008   37.5426   58.3360 C   0  0  0  0  0  0  0  0  0  0  0  0
   71.0553   38.8941   58.2016 C   0  0  0  0  0  0  0  0  0  0  0  0
  1  2  2  0
  2 14  1  0
  2  3  1  0
 14 15  1  0
 15 16  1  0
 16 17  2  0
 16 25  1  0
 17 18  1  0
 18 19  2  0
 19 20  1  0
 19 24  1  0
 20 21  2  0
 21 22  1  0
 22 23  2  0
 23 24  1  0
 24 25  2  0
  3  4  1  0
  4  5  1  0
  5  6  2  0
  5  7  1  0
  7  8  1  0
  8  9  2  0
  8 13  1  0
  9 10  1  0
 10 11  2  0
 11 12  1  0
 12 13  2  0
M  END
>  <minimizedAffinity>  (478) 
-8.96304

$$$$
data/reference_output_2/data/smiles/129260.pdb
     RDKit          3D

 28 30  0  0  0  0  0  0  0  0999 V2000
   69.7275   41.8249   57.7212 O   0  0  0  0  0  0  0  0  0  0  0  0
   69.4503   40.8368   58.6451 C   0  0  0  0  0  0  0  0  0  0  0  0
   68.9093   41.1734   59.7271 O   0  0  0  0  0  0  0  0  0  0  0  0
   69.7548   39.4364   58.4173 C   0  0  0  0  0  0  0  0  0  0  0  0
   70.9297   38.9454   58.7248 C   0  0  0  0  0  0  0  0  0  0  0  0
   71.3540   37.5659   58.5442 C   0  0  0  0  0  0  0  0  0  0  0  0
   71.0369   36.6305   59.4875 C   0  0  0  0  0  0  0  0  0  0  0  0
   71.4651   35.3096   59.2753 C   0  0  0  0  0  0  0  0  0  0  0  0
   72.1853   34.9706   58.1497 C   0  0  0  0  0  0  0  0  0  0  0  0
   72.6167   33.6705   57.9250 C   0  0  0  0  0  0  0  0  0  0  0  0
   73.3382   33.3156   56.8027 C   0  0  0  0  0  0  0  0  0  0  0  0
   73.6187   34.3197   55.8986 C   0  0  0  0  0  0  0  0  0  0  0  0
   73.1963   35.6216   56.1064 C   0  0  0  0  0  0  0  0  0  0  0  0
   72.4704   35.9562   57.2454 C   0  0  0  0  0  0  0  0  0  0  0  0
   72.0554   37.2316   57.4490 N   0  0  0  0  0  0  0  0  0  0  0  0
   70.6698   42.8326   57.8509 C   0  0  0  0  0  0  0  0  0  0  0  0
   69.9138   44.5301   59.3454 O   0  0  0  0  0  0  0  0  0  0  0  0
   70.1243   44.1764   58.1330 C   0  0  0  0  0  0  0  0  0  0  0  0
   69.7946   45.1547   57.1713 N   0  0  0  0  0  0  0  0  0  0  0  0
   69.2797   46.4220   57.5221 N   0  0  0  0  0  0  0  0  0  0  0  0
   68.8288   47.3539   56.5819 C   0  0  0  0  0  0  0  0  0  0  0  0
   68.9080   46.9922   55.3607 O   0  0  0  0  0  0  0  0  0  0  0  0
   68.2896   48.6700   56.8615 C   0  0  0  0  0  0  0  0  0  0  0  0
   67.1822   48.7995   57.6554 C   0  0  0  0  0  0  0  0  0  0  0  0
   66.6369   50.0613   57.9436 C   0  0  0  0  0  0  0  0  0  0  0  0
   67.2067   51.2006   57.4318 C   0  0  0  0  0  0  0  0  0  0  0  0
   68.3252   51.0469   56.6317 C   0  0  0  0  0  0  0  0  0  0  0  0
   68.8556   49.8037   56.3529 C   0  0  0  0  0  0  0  0  0  0  0  0
 17 18  2  0
 18 16  1  0
 18 19  1  0
 16  1  1  0
  1  2  1  0
  2  3  2  0
  2  4  1  0
  4  5  2  0
  5  6  1  0
  6  7  2  0
  6 15  1  0
  7  8  1  0
  8  9  2  0
  9 10  1  0
  9 14  1  0
 10 11  2  0
 11 12  1  0
 12 13  2  0
 13 14  1  0
 14 15  2  0
 19 20  1  0
 20 21  1  0
 21 22  2  0
 21 23  1  0
 23 24  2  0
 23 28  1  0
 24 25  1  0
 25 26  2  0
 26 27  1  0
 27 28  2  0
M  END
>  <minimizedAffinity>  (479) 
-8.90855

$$$$
data/reference_output_2/data/smiles/129498.pdb
     RDKit          3D

 26 28  0  0  0  0  0  0  0  0999 V2000
   69.0945   42.8592   57.2230 C   0  0  0  0  0  0  0  0  0  0  0  0
   69.2145   44.0821   56.6782 N   0  0  0  0  0  0  0  0  0  0  0  0
   68.3904   44.5466   55.7059 C   0  0  0  0  0  0  0  0  0  0  0  0
   67.4124   43.7553   55.2624 N   0  0  0  0  0  0  0  0  0  0  0  0
   67.2202   42.5000   55.7594 C   0  0  0  0  0  0  0  0  0  0  0  0
   66.2918   41.7671   55.3296 O   0  0  0  0  0  0  0  0  0  0  0  0
   68.0736   42.0616   56.7453 C   0  0  0  0  0  0  0  0  0  0  0  0
   67.9234   40.7898   57.2880 O   0  0  0  0  0  0  0  0  0  0  0  0
   68.5755   45.8832   55.1587 C   0  0  0  0  0  0  0  0  0  0  0  0
   68.3890   46.0754   53.7828 C   0  0  0  0  0  0  0  0  0  0  0  0
   68.5360   47.2821   53.1670 C   0  0  0  0  0  0  0  0  0  0  0  0
   68.8856   48.3671   53.9303 C   0  0  0  0  0  0  0  0  0  0  0  0
   69.0246   49.5543   53.2867 F   0  0  0  0  0  0  0  0  0  0  0  0
   69.0777   48.2121   55.2874 C   0  0  0  0  0  0  0  0  0  0  0  0
   68.9237   46.9677   55.9119 C   0  0  0  0  0  0  0  0  0  0  0  0
   69.8104   42.7283   59.4475 O   0  0  0  0  0  0  0  0  0  0  0  0
   69.9979   42.3851   58.2751 C   0  0  0  0  0  0  0  0  0  0  0  0
   71.0884   41.5361   57.9695 N   0  0  0  0  0  0  0  0  0  0  0  0
   72.0420   40.9996   58.8871 C   0  0  0  0  0  0  0  0  0  0  0  0
   72.1427   39.5322   58.8300 C   0  0  0  0  0  0  0  0  0  0  0  0
   71.1033   38.7892   58.3376 C   0  0  0  0  0  0  0  0  0  0  0  0
   71.1626   37.4026   58.2583 C   0  0  0  0  0  0  0  0  0  0  0  0
   72.3240   36.7719   58.6991 C   0  0  0  0  0  0  0  0  0  0  0  0
   72.3852   34.8763   58.5827 Br  0  0  0  0  0  0  0  0  0  0  0  0
   73.3716   37.4935   59.1933 C   0  0  0  0  0  0  0  0  0  0  0  0
   73.2727   38.8786   59.2553 C   0  0  0  0  0  0  0  0  0  0  0  0
 16 17  2  0
 17 18  1  0
 17  1  1  0
 18 19  1  0
 19 20  1  0
 20 21  2  0
 20 26  1  0
 21 22  1  0
 22 23  2  0
 23 24  1  0
 23 25  1  0
 25 26  2  0
  1  2  1  0
  1  7  2  0
  2  3  2  0
  3  9  1  0
  3  4  1  0
  9 10  2  0
  9 15  1  0
 10 11  1  0
 11 12  2  0
 12 13  1  0
 12 14  1  0
 14 15  2  0
  4  5  1  0
  5  6  2  0
  5  7  1  0
  7  8  1  0
M  END
>  <minimizedAffinity>  (480) 
-8.58001

$$$$
data/reference_output_2/data/smiles/129583.pdb
     RDKit          3D

 30 34  0  0  0  0  0  0  0  0999 V2000
   71.3142   47.1058   58.7568 C   0  0  0  0  0  0  0  0  0  0  0  0
   71.2667   45.7370   58.5333 C   0  0  0  0  0  0  0  0  0  0  0  0
   69.9763   45.5784   57.3746 S   0  0  0  0  0  0  0  0  0  0  0  0
   69.5543   47.3904   57.2426 C   0  0  0  0  0  0  0  0  0  0  0  0
   70.4637   47.8974   58.1112 C   0  0  0  0  0  0  0  0  0  0  0  0
   71.9796   47.7171   60.9221 O   0  0  0  0  0  0  0  0  0  0  0  0
   72.3321   47.6016   59.7256 C   0  0  0  0  0  0  0  0  0  0  0  0
   73.6370   47.9334   59.3437 N   0  0  0  0  0  0  0  0  0  0  0  0
   74.0671   47.8107   57.9790 C   0  0  0  0  0  0  0  0  0  0  0  0
   74.7051   49.1242   57.5034 C   0  0  0  0  0  0  0  0  0  0  0  0
   75.7937   49.3551   58.5128 N   0  0  0  0  0  0  0  0  0  0  0  0
   77.1186   49.2497   58.1351 C   0  0  0  0  0  0  0  0  0  0  0  0
   77.3111   48.9399   56.8673 O   0  0  0  0  0  0  0  0  0  0  0  0
   75.2998   49.6673   59.8065 C   0  0  0  0  0  0  0  0  0  0  0  0
   74.5705   48.4115   60.3421 C   0  0  0  0  0  0  0  0  0  0  0  0
   78.3589   49.4174   58.8767 C   0  0  0  0  0  0  0  0  0  0  0  0
   79.0863   50.7177   58.9753 C   0  0  0  0  0  0  0  0  0  0  0  0
   79.7017   49.5978   58.2617 C   0  0  0  0  0  0  0  0  0  0  0  0
   68.4870   47.8899   56.3573 C   0  0  0  0  0  0  0  0  0  0  0  0
   68.9553   48.0947   54.9737 C   0  0  0  0  0  0  0  0  0  0  0  0
   69.8297   49.1059   54.7522 N   0  0  0  0  0  0  0  0  0  0  0  0
   70.3655   49.3930   53.5910 N   0  0  0  0  0  0  0  0  0  0  0  0
   70.0705   48.6720   52.4972 C   0  0  0  0  0  0  0  0  0  0  0  0
   70.5827   48.9467   51.3901 O   0  0  0  0  0  0  0  0  0  0  0  0
   69.1855   47.6284   52.6596 C   0  0  0  0  0  0  0  0  0  0  0  0
   68.8264   46.8570   51.5912 C   0  0  0  0  0  0  0  0  0  0  0  0
   67.9301   45.8130   51.7252 C   0  0  0  0  0  0  0  0  0  0  0  0
   67.3954   45.5505   52.9504 C   0  0  0  0  0  0  0  0  0  0  0  0
   67.7275   46.3003   54.0564 C   0  0  0  0  0  0  0  0  0  0  0  0
   68.6187   47.3295   53.8970 C   0  0  0  0  0  0  0  0  0  0  0  0
  6  7  2  0
  7  1  1  0
  7  8  1  0
  1  2  2  0
  1  5  1  0
  2  3  1  0
  3  4  1  0
  4 19  1  0
  4  5  2  0
 19 20  1  0
 20 21  2  0
 20 30  1  0
 21 22  1  0
 22 23  1  0
 23 24  2  0
 23 25  1  0
 25 26  1  0
 25 30  2  0
 26 27  2  0
 27 28  1  0
 28 29  2  0
 29 30  1  0
  8  9  1  0
  8 15  1  0
  9 10  1  0
 10 11  1  0
 11 12  1  0
 11 14  1  0
 12 13  2  0
 12 16  1  0
 16 17  1  0
 16 18  1  0
 17 18  1  0
 14 15  1  0
M  END
>  <minimizedAffinity>  (481) 
-8.79381

$$$$
data/reference_output_2/data/smiles/129605.pdb
     RDKit          3D

 30 33  0  0  0  0  0  0  0  0999 V2000
   70.4077   49.9971   57.0439 N   0  0  0  0  0  0  0  0  0  0  0  0
   69.2614   50.8788   57.2983 C   0  0  0  0  0  0  0  0  0  0  0  0
   69.0078   51.4853   55.9292 C   0  0  0  0  0  0  0  0  0  0  0  0
   70.3344   51.5299   55.2637 C   0  0  1  0  0  0  0  0  0  0  0  0
   70.8864   52.8073   55.2153 O   0  0  0  0  0  0  0  0  0  0  0  0
   71.1786   50.6153   56.0409 C   0  0  0  0  0  0  0  0  0  0  0  0
   72.4273   50.3889   55.8611 O   0  0  0  0  0  0  0  0  0  0  0  0
   72.2280   44.2549   61.7472 O   0  0  0  0  0  0  0  0  0  0  0  0
   72.2652   45.1036   60.8397 C   0  0  0  0  0  0  0  0  0  0  0  0
   73.2655   46.1869   60.8511 C   0  0  0  0  0  0  0  0  0  0  0  0
   72.6730   47.5559   60.6373 C   0  0  0  0  0  0  0  0  0  0  0  0
   71.7518   47.5125   59.4888 C   0  0  0  0  0  0  0  0  0  0  0  0
   71.4977   48.6959   58.8056 C   0  0  0  0  0  0  0  0  0  0  0  0
   70.6437   48.7512   57.7246 C   0  0  0  0  0  0  0  0  0  0  0  0
   70.0357   47.5748   57.3331 C   0  0  0  0  0  0  0  0  0  0  0  0
   70.2698   46.3873   57.9921 C   0  0  0  0  0  0  0  0  0  0  0  0
   71.1328   46.3602   59.0742 C   0  0  0  0  0  0  0  0  0  0  0  0
   71.3592   45.0981   59.7298 N   0  0  0  0  0  0  0  0  0  0  0  0
   70.2401   50.9543   53.8719 C   0  0  0  0  0  0  0  0  0  0  0  0
   70.3147   51.6994   52.8740 O   0  0  0  0  0  0  0  0  0  0  0  0
   70.0674   49.5758   53.6959 N   0  0  0  0  0  0  0  0  0  0  0  0
   69.9629   48.8799   52.4333 C   0  0  0  0  0  0  0  0  0  0  0  0
   69.1284   47.6555   52.6469 C   0  0  0  0  0  0  0  0  0  0  0  0
   69.0089   47.1079   53.9297 C   0  0  0  0  0  0  0  0  0  0  0  0
   68.2522   45.9932   54.2064 C   0  0  0  0  0  0  0  0  0  0  0  0
   68.1799   45.5140   55.4746 F   0  0  0  0  0  0  0  0  0  0  0  0
   67.5739   45.3809   53.1614 C   0  0  0  0  0  0  0  0  0  0  0  0
   67.6851   45.9082   51.9103 C   0  0  0  0  0  0  0  0  0  0  0  0
   67.0173   45.3038   50.8818 F   0  0  0  0  0  0  0  0  0  0  0  0
   68.4492   47.0359   51.6245 C   0  0  0  0  0  0  0  0  0  0  0  0
  8  9  2  0
  9 10  1  0
  9 18  1  0
 10 11  1  0
 11 12  1  0
 12 13  1  0
 12 17  2  0
 13 14  2  0
 14  1  1  0
 14 15  1  0
  1  2  1  0
  1  6  1  0
  2  3  1  0
  3  4  1  0
  4  5  1  6
  4 19  1  0
  4  6  1  0
 19 20  2  0
 19 21  1  0
 21 22  1  0
 22 23  1  0
 23 24  2  0
 23 30  1  0
 24 25  1  0
 25 26  1  0
 25 27  2  0
 27 28  1  0
 28 29  1  0
 28 30  2  0
  6  7  2  0
 15 16  2  0
 16 17  1  0
 17 18  1  0
M  END
>  <minimizedAffinity>  (482) 
-8.59911

$$$$
data/reference_output_2/data/smiles/129729.pdb
     RDKit          3D

 29 32  0  0  0  0  0  0  0  0999 V2000
   70.2897   44.0313   58.2735 C   0  0  0  0  0  0  0  0  0  0  0  0
   71.0476   43.0404   57.6895 C   0  0  0  0  0  0  0  0  0  0  0  0
   71.0966   41.7538   58.1949 C   0  0  0  0  0  0  0  0  0  0  0  0
   70.3725   41.4229   59.3222 C   0  0  0  0  0  0  0  0  0  0  0  0
   69.6219   42.4333   59.8875 C   0  0  0  0  0  0  0  0  0  0  0  0
   69.5929   43.6903   59.3693 N   0  0  0  0  0  0  0  0  0  0  0  0
   70.3992   40.0902   59.8812 N   0  0  0  0  0  0  0  0  0  0  0  0
   71.6393   39.6927   60.4834 C   0  0  0  0  0  0  0  0  0  0  0  0
   71.6545   38.2747   60.9504 C   0  0  0  0  0  0  0  0  0  0  0  0
   70.8384   37.5173   59.9946 N   0  0  0  0  0  0  0  0  0  0  0  0
   69.4218   37.8185   60.0352 C   0  0  0  0  0  0  0  0  0  0  0  0
   69.2056   39.2769   59.7934 C   0  0  0  0  0  0  0  0  0  0  0  0
   71.4398   36.5889   59.1110 C   0  0  0  0  0  0  0  0  0  0  0  0
   72.0421   36.9967   57.9378 C   0  0  0  0  0  0  0  0  0  0  0  0
   72.6513   36.0810   57.0658 C   0  0  0  0  0  0  0  0  0  0  0  0
   72.6520   34.7698   57.3750 N   0  0  0  0  0  0  0  0  0  0  0  0
   72.0819   34.3192   58.5019 C   0  0  0  0  0  0  0  0  0  0  0  0
   71.4775   35.2353   59.3661 C   0  0  0  0  0  0  0  0  0  0  0  0
   71.1500   46.1797   58.0436 O   0  0  0  0  0  0  0  0  0  0  0  0
   70.2387   45.3877   57.7355 C   0  0  0  0  0  0  0  0  0  0  0  0
   69.2039   45.8365   56.8870 N   0  0  0  0  0  0  0  0  0  0  0  0
   69.0521   47.1263   56.3047 C   0  0  0  0  0  0  0  0  0  0  0  0
   68.8172   47.0038   54.8524 C   0  0  0  0  0  0  0  0  0  0  0  0
   68.0849   45.9487   54.3408 C   0  0  0  0  0  0  0  0  0  0  0  0
   67.8348   45.8034   53.0079 C   0  0  0  0  0  0  0  0  0  0  0  0
   68.3447   46.7605   52.1518 C   0  0  0  0  0  0  0  0  0  0  0  0
   68.1033   46.6280   50.8174 F   0  0  0  0  0  0  0  0  0  0  0  0
   69.0785   47.8233   52.6271 C   0  0  0  0  0  0  0  0  0  0  0  0
   69.3106   47.9363   53.9904 C   0  0  0  0  0  0  0  0  0  0  0  0
 19 20  2  0
 20 21  1  0
 20  1  1  0
 21 22  1  0
 22 23  1  0
 23 24  2  0
 23 29  1  0
 24 25  1  0
 25 26  2  0
 26 27  1  0
 26 28  1  0
 28 29  2  0
  1  2  2  0
  1  6  1  0
  2  3  1  0
  3  4  2  0
  4  7  1  0
  4  5  1  0
  7  8  1  0
  7 12  1  0
  8  9  1  0
  9 10  1  0
 10 13  1  0
 10 11  1  0
 13 14  2  0
 13 18  1  0
 14 15  1  0
 15 16  2  0
 16 17  1  0
 17 18  2  0
 11 12  1  0
  5  6  2  0
M  END
>  <minimizedAffinity>  (483) 
-8.91245

$$$$
data/reference_output_2/data/smiles/129802.pdb
     RDKit          3D

 25 26  0  0  0  0  0  0  0  0999 V2000
   73.2195   51.4074   54.5620 C   0  0  0  0  0  0  0  0  0  0  0  0
   74.0377   52.2815   54.1574 O   0  0  0  0  0  0  0  0  0  0  0  0
   73.7835   50.1677   54.9450 N   0  0  0  0  0  0  0  0  0  0  0  0
   75.1866   49.9439   54.8700 N   0  0  0  0  0  0  0  0  0  0  0  0
   76.0247   50.1493   55.9831 C   0  0  0  0  0  0  0  0  0  0  0  0
   75.4045   50.5486   57.0400 O   0  0  0  0  0  0  0  0  0  0  0  0
   77.4627   49.9591   56.0370 C   0  0  0  0  0  0  0  0  0  0  0  0
   78.1712   50.5512   57.0970 C   0  0  0  0  0  0  0  0  0  0  0  0
   79.5351   50.4085   57.2069 C   0  0  0  0  0  0  0  0  0  0  0  0
   80.2762   49.6903   56.2999 C   0  0  0  0  0  0  0  0  0  0  0  0
   81.6491   49.5517   56.4176 O   0  0  0  0  0  0  0  0  0  0  0  0
   79.6021   49.1077   55.2621 C   0  0  0  0  0  0  0  0  0  0  0  0
   78.2295   49.2541   55.1567 C   0  0  0  0  0  0  0  0  0  0  0  0
   77.6265   48.6362   54.0829 O   0  0  0  0  0  0  0  0  0  0  0  0
   71.7685   51.6989   54.6180 C   0  0  0  0  0  0  0  0  0  0  0  0
   71.1169   50.9475   53.6287 O   0  0  0  0  0  0  0  0  0  0  0  0
   69.0298   46.8958   51.8041 C   0  0  0  0  0  0  0  0  0  0  0  0
   69.3468   47.7892   52.9571 C   0  0  0  0  0  0  0  0  0  0  0  0
   70.0846   48.9645   52.7804 C   0  0  0  0  0  0  0  0  0  0  0  0
   70.3908   49.8015   53.8177 C   0  0  0  0  0  0  0  0  0  0  0  0
   69.9290   49.4336   55.0876 C   0  0  0  0  0  0  0  0  0  0  0  0
   69.2017   48.2887   55.3041 C   0  0  0  0  0  0  0  0  0  0  0  0
   68.7312   47.9332   56.6628 C   0  0  0  0  0  0  0  0  0  0  0  0
   68.9134   47.4684   54.2310 C   0  0  0  0  0  0  0  0  0  0  0  0
   67.9910   45.9975   54.4476 Cl  0  0  0  0  0  0  0  0  0  0  0  0
 17 18  1  0
 18 19  2  0
 18 24  1  0
 19 20  1  0
 20 16  1  0
 20 21  2  0
 16 15  1  0
 15  1  1  0
  1  2  2  0
  1  3  1  0
  3  4  1  0
  4  5  1  0
  5  6  2  0
  5  7  1  0
  7  8  2  0
  7 13  1  0
  8  9  1  0
  9 10  2  0
 10 11  1  0
 10 12  1  0
 12 13  2  0
 13 14  1  0
 21 22  1  0
 22 23  1  0
 22 24  2  0
 24 25  1  0
M  END
>  <minimizedAffinity>  (484) 
-8.78955

$$$$
data/reference_output_2/data/smiles/129890.pdb
     RDKit          3D

 26 27  0  0  0  0  0  0  0  0999 V2000
   70.2024   45.2940   59.1354 N   0  0  0  0  0  0  0  0  0  0  0  0
   70.2116   42.9648   58.3327 C   0  0  0  0  0  0  0  0  0  0  0  0
   71.2737   43.3433   57.7125 O   0  0  0  0  0  0  0  0  0  0  0  0
   69.6387   44.0354   59.1029 N   0  0  0  0  0  0  0  0  0  0  0  0
   68.5276   41.1873   57.7302 C   0  0  0  0  0  0  0  0  0  0  0  0
   68.2051   39.8396   57.6839 C   0  0  0  0  0  0  0  0  0  0  0  0
   69.0738   38.8776   58.1220 C   0  0  0  0  0  0  0  0  0  0  0  0
   70.2837   39.2820   58.6144 C   0  0  0  0  0  0  0  0  0  0  0  0
   71.4144   38.0711   59.1832 Cl  0  0  0  0  0  0  0  0  0  0  0  0
   70.5941   40.6123   58.6572 C   0  0  0  0  0  0  0  0  0  0  0  0
   69.7284   41.6270   58.2159 C   0  0  0  0  0  0  0  0  0  0  0  0
   67.1567   42.2906   55.9952 C   0  0  0  0  0  0  0  0  0  0  0  0
   67.6314   42.1071   57.2820 O   0  0  0  0  0  0  0  0  0  0  0  0
   70.3314   46.1930   58.1081 C   0  0  0  0  0  0  0  0  0  0  0  0
   71.1203   47.6352   58.6475 S   0  0  0  0  0  0  0  0  0  0  0  0
   70.0245   46.2226   56.7593 N   0  0  0  0  0  0  0  0  0  0  0  0
   68.8467   46.6874   56.1697 C   0  0  0  0  0  0  0  0  0  0  0  0
   67.9372   47.1448   56.8980 O   0  0  0  0  0  0  0  0  0  0  0  0
   68.6279   46.6616   54.7176 C   0  0  0  0  0  0  0  0  0  0  0  0
   67.8850   45.6520   54.1501 C   0  0  0  0  0  0  0  0  0  0  0  0
   67.6555   45.5884   52.7970 C   0  0  0  0  0  0  0  0  0  0  0  0
   68.1785   46.5626   51.9594 C   0  0  0  0  0  0  0  0  0  0  0  0
   67.9574   46.5113   50.6109 F   0  0  0  0  0  0  0  0  0  0  0  0
   68.9217   47.5767   52.5147 C   0  0  0  0  0  0  0  0  0  0  0  0
   69.4447   48.5380   51.7258 F   0  0  0  0  0  0  0  0  0  0  0  0
   69.1427   47.6176   53.9095 C   0  0  0  0  0  0  0  0  0  0  0  0
 12 13  1  0
 13  5  1  0
  5  6  2  0
  5 11  1  0
  6  7  1  0
  7  8  2  0
  8  9  1  0
  8 10  1  0
 10 11  2  0
 11  2  1  0
  2  3  2  0
  2  4  1  0
  4  1  1  0
  1 14  1  0
 14 15  2  0
 14 16  1  0
 16 17  1  0
 17 18  2  0
 17 19  1  0
 19 20  2  0
 19 26  1  0
 20 21  1  0
 21 22  2  0
 22 23  1  0
 22 24  1  0
 24 25  1  0
 24 26  2  0
M  END
>  <minimizedAffinity>  (485) 
-9.00105

$$$$
data/reference_output_2/data/smiles/130073.pdb
     RDKit          3D

 29 32  0  0  0  0  0  0  0  0999 V2000
   68.2653   46.3244   54.3309 C   0  0  0  0  0  0  0  0  0  0  0  0
   67.7905   45.4150   53.3977 C   0  0  0  0  0  0  0  0  0  0  0  0
   67.9137   45.6706   52.0457 C   0  0  0  0  0  0  0  0  0  0  0  0
   68.5130   46.8339   51.6093 C   0  0  0  0  0  0  0  0  0  0  0  0
   68.9961   47.7587   52.5252 C   0  0  0  0  0  0  0  0  0  0  0  0
   68.8593   47.4765   53.8758 C   0  0  0  0  0  0  0  0  0  0  0  0
   69.4579   48.5986   54.5881 C   0  0  0  0  0  0  0  0  0  0  0  0
   69.5181   48.6863   55.8408 O   0  0  0  0  0  0  0  0  0  0  0  0
   69.9672   49.5821   53.6577 N   0  0  0  0  0  0  0  0  0  0  0  0
   69.6708   49.0432   52.3881 C   0  0  0  0  0  0  0  0  0  0  0  0
   69.9272   49.5541   51.2801 O   0  0  0  0  0  0  0  0  0  0  0  0
   70.5873   50.8055   54.0704 C   0  0  1  0  0  0  0  0  0  0  0  0
   69.7219   52.0094   54.1373 C   0  0  0  0  0  0  0  0  0  0  0  0
   68.8455   52.1529   55.3298 C   0  0  0  0  0  0  0  0  0  0  0  0
   69.5084   51.7263   56.5646 C   0  0  0  0  0  0  0  0  0  0  0  0
   68.8700   51.7736   57.6748 O   0  0  0  0  0  0  0  0  0  0  0  0
   70.8434   51.2641   56.5458 N   0  0  0  0  0  0  0  0  0  0  0  0
   71.2865   50.6195   55.3503 C   0  0  0  0  0  0  0  0  0  0  0  0
   72.2951   49.8764   55.3865 O   0  0  0  0  0  0  0  0  0  0  0  0
   68.1544   46.0750   55.6975 N   0  0  0  0  0  0  0  0  0  0  0  0
   70.7015   43.7437   58.0888 C   0  0  0  0  0  0  0  0  0  0  0  0
   69.7503   43.1545   57.2873 C   0  0  0  0  0  0  0  0  0  0  0  0
   68.9226   43.9319   56.5074 C   0  0  0  0  0  0  0  0  0  0  0  0
   69.0234   45.3054   56.5109 C   0  0  0  0  0  0  0  0  0  0  0  0
   69.9634   45.8925   57.3028 C   0  0  0  0  0  0  0  0  0  0  0  0
   70.7864   45.1204   58.0765 C   0  0  0  0  0  0  0  0  0  0  0  0
   71.5987   42.9029   58.9335 C   0  0  0  0  0  0  0  0  0  0  0  0
   73.6993   42.7973   57.6414 C   0  0  0  0  0  0  0  0  0  0  0  0
   72.4809   42.0270   58.0426 C   0  0  0  0  0  0  0  0  0  0  0  0
 28 29  1  0
 29 27  1  0
 27 21  1  0
 21 22  2  0
 21 26  1  0
 22 23  1  0
 23 24  2  0
 24 20  1  0
 24 25  1  0
 20  1  1  0
  1  2  2  0
  1  6  1  0
  2  3  1  0
  3  4  2  0
  4  5  1  0
  5  6  2  0
  5 10  1  0
  6  7  1  0
  7  8  2  0
  7  9  1  0
 12  9  1  1
  9 10  1  0
 12 13  1  0
 12 18  1  0
 13 14  1  0
 14 15  1  0
 15 16  2  0
 15 17  1  0
 17 18  1  0
 18 19  2  0
 10 11  2  0
 25 26  2  0
M  END
>  <minimizedAffinity>  (486) 
-9.04774

$$$$
data/reference_output_2/data/smiles/130164.pdb
     RDKit          3D

 19 21  0  0  0  0  0  0  0  0999 V2000
   69.9405   49.8061   50.8784 N   0  0  0  0  0  0  0  0  0  0  0  0
   69.4684   48.7413   51.6875 C   0  0  0  0  0  0  0  0  0  0  0  0
   68.8232   47.6273   51.3415 N   0  0  0  0  0  0  0  0  0  0  0  0
   68.5565   46.8849   52.4293 C   0  0  0  0  0  0  0  0  0  0  0  0
   67.9390   45.6610   52.5944 C   0  0  0  0  0  0  0  0  0  0  0  0
   67.8127   45.0952   53.8425 C   0  0  0  0  0  0  0  0  0  0  0  0
   68.3061   45.7482   54.9467 C   0  0  0  0  0  0  0  0  0  0  0  0
   68.2009   45.2096   56.2282 O   0  0  0  0  0  0  0  0  0  0  0  0
   68.9287   46.9749   54.8112 C   0  0  0  0  0  0  0  0  0  0  0  0
   69.0475   47.5351   53.5599 C   0  0  0  0  0  0  0  0  0  0  0  0
   69.6164   48.7000   53.0953 C   0  0  0  0  0  0  0  0  0  0  0  0
   70.3138   49.6958   53.8484 C   0  0  0  0  0  0  0  0  0  0  0  0
   71.6014   49.7395   53.6799 O   0  0  0  0  0  0  0  0  0  0  0  0
   69.8385   50.6863   54.7750 C   0  0  0  0  0  0  0  0  0  0  0  0
   69.4778   51.9617   54.3921 C   0  0  0  0  0  0  0  0  0  0  0  0
   69.0151   52.8799   55.3056 C   0  0  0  0  0  0  0  0  0  0  0  0
   68.8797   52.5982   56.6457 C   0  0  0  0  0  0  0  0  0  0  0  0
   69.2433   51.3144   57.0208 C   0  0  0  0  0  0  0  0  0  0  0  0
   69.7049   50.3896   56.1295 C   0  0  0  0  0  0  0  0  0  0  0  0
  1  2  1  0
  2  3  1  0
  2 11  2  0
  3  4  1  0
  4  5  2  0
  4 10  1  0
  5  6  1  0
  6  7  2  0
  7  8  1  0
  7  9  1  0
  9 10  2  0
 10 11  1  0
 11 12  1  0
 12 13  2  0
 12 14  1  0
 14 15  2  0
 14 19  1  0
 15 16  1  0
 16 17  2  0
 17 18  1  0
 18 19  2  0
M  END
>  <minimizedAffinity>  (487) 
-8.63317

$$$$
data/reference_output_2/data/smiles/130188.pdb
     RDKit          3D

 28 30  0  0  0  0  0  0  0  0999 V2000
   69.1347   41.6521   57.6109 C   0  0  0  0  0  0  0  0  0  0  0  0
   69.5969   40.3989   57.8240 N   0  0  0  0  0  0  0  0  0  0  0  0
   70.8650   40.1447   58.1915 C   0  0  0  0  0  0  0  0  0  0  0  0
   71.7321   41.2043   58.3583 C   0  0  0  0  0  0  0  0  0  0  0  0
   73.3935   40.9313   58.8368 Cl  0  0  0  0  0  0  0  0  0  0  0  0
   71.3330   42.4976   58.1594 C   0  0  0  0  0  0  0  0  0  0  0  0
   72.1707   43.5831   58.3171 C   0  0  0  0  0  0  0  0  0  0  0  0
   71.6897   44.8528   58.0967 C   0  0  0  0  0  0  0  0  0  0  0  0
   70.3852   45.0935   57.7198 C   0  0  0  0  0  0  0  0  0  0  0  0
   69.5570   44.0023   57.5653 C   0  0  0  0  0  0  0  0  0  0  0  0
   70.0093   42.7070   57.7799 C   0  0  0  0  0  0  0  0  0  0  0  0
   65.8548   41.8171   56.0209 N   0  0  0  0  0  0  0  0  0  0  0  0
   67.1772   41.3957   56.2624 C   0  0  0  0  0  0  0  0  0  0  0  0
   67.7776   40.3953   55.4621 N   0  0  0  0  0  0  0  0  0  0  0  0
   67.8186   41.9441   57.2265 N   0  0  0  0  0  0  0  0  0  0  0  0
   69.7862   46.7340   57.4416 S   0  0  0  0  0  0  0  0  0  0  0  0
   69.4262   47.2951   58.7642 O   0  0  0  0  0  0  0  0  0  0  0  0
   70.9012   47.5216   56.8066 O   0  0  0  0  0  0  0  0  0  0  0  0
   68.3901   46.7012   56.4390 N   0  0  0  0  0  0  0  0  0  0  0  0
   68.4897   46.6651   55.0109 C   0  0  0  0  0  0  0  0  0  0  0  0
   67.8712   45.6941   54.2593 C   0  0  0  0  0  0  0  0  0  0  0  0
   67.9574   45.6467   52.8837 C   0  0  0  0  0  0  0  0  0  0  0  0
   68.7007   46.6251   52.2505 C   0  0  0  0  0  0  0  0  0  0  0  0
   69.3399   47.6208   52.9531 C   0  0  0  0  0  0  0  0  0  0  0  0
   69.2217   47.6242   54.3389 C   0  0  0  0  0  0  0  0  0  0  0  0
   70.1166   48.6424   52.2756 C   0  0  0  0  0  0  0  0  0  0  0  0
   69.7118   49.0773   51.1735 O   0  0  0  0  0  0  0  0  0  0  0  0
   71.2875   49.1562   52.7958 O   0  0  0  0  0  0  0  0  0  0  0  0
 12 13  1  0
 13 14  1  0
 13 15  2  0
 15  1  1  0
  1  2  2  0
  1 11  1  0
  2  3  1  0
  3  4  2  0
  4  5  1  0
  4  6  1  0
  6  7  1  0
  6 11  2  0
  7  8  2  0
  8  9  1  0
  9 16  1  0
  9 10  2  0
 16 17  2  0
 16 18  2  0
 16 19  1  0
 19 20  1  0
 20 21  2  0
 20 25  1  0
 21 22  1  0
 22 23  2  0
 23 24  1  0
 24 26  1  0
 24 25  2  0
 26 27  2  0
 26 28  1  0
 10 11  1  0
M  CHG  1  15   1
M  END
>  <minimizedAffinity>  (488) 
-8.55291

$$$$
data/reference_output_2/data/smiles/130241.pdb
     RDKit          3D

 28 32  0  0  0  0  0  0  0  0999 V2000
   71.1339   44.2928   58.3751 O   0  0  0  0  0  0  0  0  0  0  0  0
   70.1840   43.8495   57.6577 C   0  0  0  0  0  0  0  0  0  0  0  0
   69.5906   44.6965   56.8036 N   0  0  0  0  0  0  0  0  0  0  0  0
   68.5817   44.2425   56.0368 C   0  0  0  0  0  0  0  0  0  0  0  0
   68.0031   45.0808   55.1988 C   0  0  0  0  0  0  0  0  0  0  0  0
   68.1974   42.9190   56.1608 C   0  0  0  0  0  0  0  0  0  0  0  0
   67.2391   42.5513   55.4084 O   0  0  0  0  0  0  0  0  0  0  0  0
   68.7900   42.0691   57.0145 N   0  0  0  0  0  0  0  0  0  0  0  0
   69.7905   42.5262   57.7731 C   0  0  0  0  0  0  0  0  0  0  0  0
   70.4200   41.7262   58.6442 C   0  0  0  0  0  0  0  0  0  0  0  0
   68.3995   46.4808   55.0595 C   0  0  0  0  0  0  0  0  0  0  0  0
   68.3980   47.4673   56.0297 C   0  0  0  0  0  0  0  0  0  0  0  0
   68.8378   48.6243   55.4957 N   0  0  0  0  0  0  0  0  0  0  0  0
   69.1368   48.4430   54.1845 C   0  0  0  0  0  0  0  0  0  0  0  0
   69.6156   49.3072   53.2123 C   0  0  0  0  0  0  0  0  0  0  0  0
   69.8305   48.8335   51.9360 C   0  0  0  0  0  0  0  0  0  0  0  0
   69.5547   47.5016   51.6778 C   0  0  0  0  0  0  0  0  0  0  0  0
   69.0780   46.6493   52.6534 C   0  0  0  0  0  0  0  0  0  0  0  0
   68.8656   47.1171   53.9151 C   0  0  0  0  0  0  0  0  0  0  0  0
   70.0390   40.3398   58.7940 C   0  0  0  0  0  0  0  0  0  0  0  0
   68.7800   39.8189   58.9684 C   0  0  0  0  0  0  0  0  0  0  0  0
   68.8672   38.4581   59.0670 N   0  0  0  0  0  0  0  0  0  0  0  0
   70.1410   38.0922   58.9609 C   0  0  0  0  0  0  0  0  0  0  0  0
   70.7441   36.8564   58.9948 C   0  0  0  0  0  0  0  0  0  0  0  0
   72.1132   36.7145   58.8615 C   0  0  0  0  0  0  0  0  0  0  0  0
   72.8728   37.8510   58.6909 C   0  0  0  0  0  0  0  0  0  0  0  0
   72.2542   39.0985   58.6580 C   0  0  0  0  0  0  0  0  0  0  0  0
   70.8913   39.2584   58.7890 C   0  0  0  0  0  0  0  0  0  0  0  0
  1  2  2  0
  2  3  1  0
  2  9  1  0
  3  4  1  0
  4  5  2  0
  4  6  1  0
  5 11  1  0
 11 12  2  0
 11 19  1  0
 12 13  1  0
 13 14  1  0
 14 15  1  0
 14 19  2  0
 15 16  2  0
 16 17  1  0
 17 18  2  0
 18 19  1  0
  6  7  2  0
  6  8  1  0
  8  9  1  0
  9 10  2  0
 10 20  1  0
 20 21  2  0
 20 28  1  0
 21 22  1  0
 22 23  1  0
 23 24  1  0
 23 28  2  0
 24 25  2  0
 25 26  1  0
 26 27  2  0
 27 28  1  0
M  END
>  <minimizedAffinity>  (489) 
-8.64275

$$$$
data/reference_output_2/data/smiles/130291.pdb
     RDKit          3D

 25 28  0  0  0  0  0  0  0  0999 V2000
   68.9017   42.2156   56.7609 C   0  0  0  0  0  0  0  0  0  0  0  0
   70.1064   42.3548   57.4012 C   0  0  0  0  0  0  0  0  0  0  0  0
   70.6290   43.6172   57.6559 C   0  0  0  0  0  0  0  0  0  0  0  0
   69.9126   44.7147   57.2539 C   0  0  0  0  0  0  0  0  0  0  0  0
   68.7225   44.5905   56.6188 N   0  0  0  0  0  0  0  0  0  0  0  0
   68.2354   43.3601   56.3817 C   0  0  0  0  0  0  0  0  0  0  0  0
   67.1088   43.2992   55.7792 O   0  0  0  0  0  0  0  0  0  0  0  0
   70.2814   46.0643   57.6307 C   0  0  0  0  0  0  0  0  0  0  0  0
   71.4087   46.1874   58.4645 C   0  0  0  0  0  0  0  0  0  0  0  0
   71.6201   47.5381   58.6011 C   0  0  0  0  0  0  0  0  0  0  0  0
   70.6586   48.1920   57.8789 C   0  0  0  0  0  0  0  0  0  0  0  0
   69.8176   47.2588   57.2667 N   0  0  0  0  0  0  0  0  0  0  0  0
   72.0875   45.0113   59.0660 C   0  0  0  0  0  0  0  0  0  0  0  0
   71.9397   43.7597   58.2739 C   0  0  0  0  0  0  0  0  0  0  0  0
   68.5937   47.7750   56.2295 S   0  0  0  0  0  0  0  0  0  0  0  0
   68.6009   49.3436   56.2288 O   0  0  0  0  0  0  0  0  0  0  0  0
   67.1812   47.5060   56.6300 O   0  0  0  0  0  0  0  0  0  0  0  0
   68.7627   47.4076   54.5462 C   0  0  0  0  0  0  0  0  0  0  0  0
   69.5305   48.1221   53.6988 C   0  0  0  0  0  0  0  0  0  0  0  0
   69.7157   47.9157   52.3450 C   0  0  0  0  0  0  0  0  0  0  0  0
   69.0205   46.8299   51.7904 C   0  0  0  0  0  0  0  0  0  0  0  0
   68.2266   46.0644   52.5945 C   0  0  0  0  0  0  0  0  0  0  0  0
   68.0853   46.3288   53.9426 C   0  0  0  0  0  0  0  0  0  0  0  0
   67.8381   39.8747   56.2691 N   0  0  0  0  0  0  0  0  0  0  0  0
   68.3138   40.9451   56.4985 C   0  0  0  0  0  0  0  0  0  0  0  0
 24 25  3  0
 25  1  1  0
  1  2  2  0
  1  6  1  0
  2  3  1  0
  3  4  2  0
  3 14  1  0
  4  5  1  0
  4  8  1  0
  5  6  1  0
  6  7  2  0
  8  9  2  0
  8 12  1  0
  9 10  1  0
  9 13  1  0
 10 11  2  0
 11 12  1  0
 12 15  1  0
 15 16  2  0
 15 17  2  0
 15 18  1  0
 18 19  2  0
 18 23  1  0
 19 20  1  0
 20 21  2  0
 21 22  1  0
 22 23  2  0
 13 14  1  0
M  END
>  <minimizedAffinity>  (490) 
-8.52716

$$$$
data/reference_output_2/data/smiles/130342.pdb
     RDKit          3D

 26 29  0  0  0  0  0  0  0  0999 V2000
   69.0568   43.7845   56.5730 C   0  0  0  0  0  0  0  0  0  0  0  0
   68.7216   42.5509   56.8727 C   0  0  0  0  0  0  0  0  0  0  0  0
   67.3744   42.0111   56.5658 C   0  0  0  0  0  0  0  0  0  0  0  0
   66.4093   42.5969   56.0135 O   0  0  0  0  0  0  0  0  0  0  0  0
   67.3351   40.6831   57.0065 N   0  0  0  0  0  0  0  0  0  0  0  0
   68.5889   40.3529   57.5766 C   0  0  0  0  0  0  0  0  0  0  0  0
   69.0522   39.1875   58.1448 C   0  0  0  0  0  0  0  0  0  0  0  0
   70.3186   39.1242   58.6290 C   0  0  0  0  0  0  0  0  0  0  0  0
   71.1543   40.2147   58.5598 C   0  0  0  0  0  0  0  0  0  0  0  0
   72.3929   40.0827   59.0575 N   0  0  0  0  0  0  0  0  0  0  0  0
   73.2557   41.1056   59.0222 C   0  0  0  0  0  0  0  0  0  0  0  0
   72.8732   42.3068   58.4718 C   0  0  0  0  0  0  0  0  0  0  0  0
   71.5893   42.4837   57.9421 C   0  0  0  0  0  0  0  0  0  0  0  0
   70.7329   41.4188   57.9946 C   0  0  0  0  0  0  0  0  0  0  0  0
   69.4390   41.4614   57.5074 C   0  0  0  0  0  0  0  0  0  0  0  0
   68.1050   44.6453   55.9312 N   0  0  0  0  0  0  0  0  0  0  0  0
   69.2930   48.1387   53.8676 C   0  0  0  0  0  0  0  0  0  0  0  0
   69.4569   47.9995   55.2289 C   0  0  0  0  0  0  0  0  0  0  0  0
   69.0728   46.8638   55.9108 C   0  0  0  0  0  0  0  0  0  0  0  0
   68.4919   45.7948   55.2224 C   0  0  0  0  0  0  0  0  0  0  0  0
   68.3331   45.9452   53.8629 C   0  0  0  0  0  0  0  0  0  0  0  0
   68.7234   47.0873   53.1983 C   0  0  0  0  0  0  0  0  0  0  0  0
   69.7617   49.3461   51.3263 N   0  0  0  0  0  0  0  0  0  0  0  0
   69.7894   49.5889   53.0316 S   0  0  0  0  0  0  0  0  0  0  0  0
   71.1391   50.0506   53.4989 O   0  0  0  0  0  0  0  0  0  0  0  0
   68.7990   50.6711   53.3593 O   0  0  0  0  0  0  0  0  0  0  0  0
 23 24  1  0
 24 25  2  0
 24 26  2  0
 24 17  1  0
 17 18  2  0
 17 22  1  0
 18 19  1  0
 19 20  2  0
 20 16  1  0
 20 21  1  0
 16  1  1  0
  1  2  2  0
  2  3  1  0
  2 15  1  0
  3  4  2  0
  3  5  1  0
  5  6  1  0
  6  7  1  0
  6 15  2  0
  7  8  2  0
  8  9  1  0
  9 10  1  0
  9 14  2  0
 10 11  2  0
 11 12  1  0
 12 13  2  0
 13 14  1  0
 14 15  1  0
 21 22  2  0
M  END
>  <minimizedAffinity>  (491) 
-8.63133

$$$$
data/reference_output_2/data/smiles/130377.pdb
     RDKit          3D

 27 30  0  0  0  0  0  0  0  0999 V2000
   71.9908   47.3096   59.2169 Cl  0  0  0  0  0  0  0  0  0  0  0  0
   70.9480   46.2199   58.3272 C   0  0  0  0  0  0  0  0  0  0  0  0
   71.0835   44.8716   58.4839 N   0  0  0  0  0  0  0  0  0  0  0  0
   70.2965   44.0127   57.8150 C   0  0  0  0  0  0  0  0  0  0  0  0
   69.3633   44.4907   56.9788 N   0  0  0  0  0  0  0  0  0  0  0  0
   69.1397   45.7831   56.7458 C   0  0  0  0  0  0  0  0  0  0  0  0
   69.9804   46.6553   57.4621 C   0  0  0  0  0  0  0  0  0  0  0  0
   69.8039   48.3880   57.2569 Cl  0  0  0  0  0  0  0  0  0  0  0  0
   70.4825   42.6314   58.0186 N   0  0  0  0  0  0  0  0  0  0  0  0
   71.7085   42.1314   58.1968 C   0  0  0  0  0  0  0  0  0  0  0  0
   71.9191   40.7724   58.3986 C   0  0  0  0  0  0  0  0  0  0  0  0
   70.8515   39.8950   58.4194 C   0  0  0  0  0  0  0  0  0  0  0  0
   69.5950   40.4311   58.2327 C   0  0  0  0  0  0  0  0  0  0  0  0
   69.4359   41.8034   58.0343 C   0  0  0  0  0  0  0  0  0  0  0  0
   71.0289   38.4643   58.6265 C   0  0  0  0  0  0  0  0  0  0  0  0
   70.3425   37.7571   59.5896 C   0  0  0  0  0  0  0  0  0  0  0  0
   70.5251   36.3913   59.7728 C   0  0  0  0  0  0  0  0  0  0  0  0
   71.3912   35.7343   58.9961 N   0  0  0  0  0  0  0  0  0  0  0  0
   72.0710   36.4055   58.0513 C   0  0  0  0  0  0  0  0  0  0  0  0
   71.9201   37.7581   57.8363 C   0  0  0  0  0  0  0  0  0  0  0  0
   68.1798   46.3247   55.8843 N   0  0  0  0  0  0  0  0  0  0  0  0
   68.3364   46.4969   54.5168 C   0  0  0  0  0  0  0  0  0  0  0  0
   67.7297   45.6188   53.6332 C   0  0  0  0  0  0  0  0  0  0  0  0
   67.8407   45.7516   52.2645 C   0  0  0  0  0  0  0  0  0  0  0  0
   68.5847   46.7999   51.7532 C   0  0  0  0  0  0  0  0  0  0  0  0
   69.1987   47.6883   52.5993 C   0  0  0  0  0  0  0  0  0  0  0  0
   69.0659   47.5257   53.9894 C   0  0  0  0  0  0  0  0  0  0  0  0
  1  2  1  0
  2  3  2  0
  2  7  1  0
  3  4  1  0
  4  9  1  0
  4  5  2  0
  9 10  2  0
  9 14  1  0
 10 11  1  0
 11 12  2  0
 12 15  1  0
 12 13  1  0
 15 16  2  0
 15 20  1  0
 16 17  1  0
 17 18  2  0
 18 19  1  0
 19 20  2  0
 13 14  2  0
  5  6  1  0
  6 21  1  0
  6  7  2  0
 21 22  1  0
 22 23  2  0
 22 27  1  0
 23 24  1  0
 24 25  2  0
 25 26  1  0
 26 27  2  0
  7  8  1  0
M  CHG  1   9   1
M  END
>  <minimizedAffinity>  (492) 
-9.49122

$$$$
data/reference_output_2/data/smiles/130472.pdb
     RDKit          3D

 28 31  0  0  0  0  0  0  0  0999 V2000
   67.6969   41.4685   56.8997 C   0  0  0  0  0  0  0  0  0  0  0  0
   66.6143   41.5823   56.0402 C   0  0  0  0  0  0  0  0  0  0  0  0
   66.7075   42.7597   55.4043 N   0  0  0  0  0  0  0  0  0  0  0  0
   67.7816   43.4296   55.7887 N   0  0  0  0  0  0  0  0  0  0  0  0
   68.3919   42.6549   56.6977 C   0  0  0  0  0  0  0  0  0  0  0  0
   69.6441   43.0565   57.3736 C   0  0  0  0  0  0  0  0  0  0  0  0
   68.1402   44.7093   55.2861 C   0  0  0  0  0  0  0  0  0  0  0  0
   68.1134   44.9928   53.9563 N   0  0  0  0  0  0  0  0  0  0  0  0
   68.4534   46.2069   53.4755 C   0  0  0  0  0  0  0  0  0  0  0  0
   68.8441   47.2100   54.3346 C   0  0  0  0  0  0  0  0  0  0  0  0
   68.8701   46.9180   55.6774 C   0  0  0  0  0  0  0  0  0  0  0  0
   69.2170   47.7925   56.5004 O   0  0  0  0  0  0  0  0  0  0  0  0
   68.5232   45.6956   56.1089 N   0  0  0  0  0  0  0  0  0  0  0  0
   69.1672   48.4448   53.5746 C   0  0  0  0  0  0  0  0  0  0  0  0
   69.5684   47.8266   52.2284 C   0  0  0  0  0  0  0  0  0  0  0  0
   68.5043   46.7584   52.0999 C   0  0  0  0  0  0  0  0  0  0  0  0
   67.4845   40.3661   59.1101 N   0  0  0  0  0  0  0  0  0  0  0  0
   68.0337   40.3736   57.8002 C   0  0  0  0  0  0  0  0  0  0  0  0
   68.7959   39.4304   57.4576 O   0  0  0  0  0  0  0  0  0  0  0  0
   67.0680   42.1764   60.7270 C   0  0  0  0  0  0  0  0  0  0  0  0
   66.6155   41.4340   59.5133 C   0  0  0  0  0  0  0  0  0  0  0  0
   67.7906   39.2939   60.0466 C   0  0  0  0  0  0  0  0  0  0  0  0
   66.6809   38.3556   60.2356 C   0  0  0  0  0  0  0  0  0  0  0  0
   66.0101   38.3598   61.4406 C   0  0  0  0  0  0  0  0  0  0  0  0
   64.9494   37.4854   61.6666 C   0  0  0  0  0  0  0  0  0  0  0  0
   64.5869   36.6192   60.6644 C   0  0  0  0  0  0  0  0  0  0  0  0
   65.2416   36.5946   59.4506 C   0  0  0  0  0  0  0  0  0  0  0  0
   66.2925   37.4730   59.2501 C   0  0  0  0  0  0  0  0  0  0  0  0
 20 21  1  0
 21 17  1  0
 17 22  1  0
 17 18  1  0
 22 23  1  0
 23 24  2  0
 23 28  1  0
 24 25  1  0
 25 26  2  0
 26 27  1  0
 27 28  2  0
 18 19  2  0
 18  1  1  0
  1  2  1  0
  1  5  2  0
  2  3  2  0
  3  4  1  0
  4  7  1  0
  4  5  1  0
  7  8  2  0
  7 13  1  0
  8  9  1  0
  9 10  2  0
  9 16  1  0
 10 11  1  0
 10 14  1  0
 11 12  2  0
 11 13  1  0
 14 15  1  0
 15 16  1  0
  5  6  1  0
M  END
>  <minimizedAffinity>  (493) 
-9.17710

$$$$
data/reference_output_2/data/smiles/130496.pdb
     RDKit          3D

 25 27  0  0  0  0  0  0  0  0999 V2000
   68.4138   46.0859   54.0985 C   0  0  0  0  0  0  0  0  0  0  0  0
   67.8795   45.6671   52.8989 C   0  0  0  0  0  0  0  0  0  0  0  0
   68.0276   46.4168   51.7433 C   0  0  0  0  0  0  0  0  0  0  0  0
   68.7235   47.6112   51.7848 C   0  0  0  0  0  0  0  0  0  0  0  0
   69.2784   48.0706   52.9734 C   0  0  0  0  0  0  0  0  0  0  0  0
   69.0980   47.2823   54.0873 C   0  0  0  0  0  0  0  0  0  0  0  0
   68.0056   43.9469   55.4099 N   0  0  0  0  0  0  0  0  0  0  0  0
   68.2781   45.3242   55.3319 C   0  0  0  0  0  0  0  0  0  0  0  0
   68.4143   45.9456   56.4141 O   0  0  0  0  0  0  0  0  0  0  0  0
   66.5736   41.6427   55.4471 C   0  0  0  0  0  0  0  0  0  0  0  0
   67.2134   42.1291   56.6898 C   0  0  0  0  0  0  0  0  0  0  0  0
   67.8779   43.2299   56.6045 N   0  0  0  0  0  0  0  0  0  0  0  0
   67.0790   41.3782   57.9349 C   0  0  0  0  0  0  0  0  0  0  0  0
   67.7207   40.1936   58.2485 C   0  0  0  0  0  0  0  0  0  0  0  0
   67.3291   39.7997   59.5226 C   0  0  0  0  0  0  0  0  0  0  0  0
   66.4442   40.8016   59.9194 C   0  0  0  0  0  0  0  0  0  0  0  0
   66.3387   41.6785   58.9749 O   0  0  0  0  0  0  0  0  0  0  0  0
   70.1621   49.5656   53.0743 S   0  0  0  0  0  0  0  0  0  0  0  0
   69.8346   50.3888   51.8731 O   0  0  0  0  0  0  0  0  0  0  0  0
   71.6426   49.2424   53.0573 O   0  0  0  0  0  0  0  0  0  0  0  0
   69.8067   50.4699   54.4748 N   0  0  0  0  0  0  0  0  0  0  0  0
   70.9576   51.2559   54.8383 C   0  0  0  0  0  0  0  0  0  0  0  0
   70.4436   52.4667   55.5822 C   0  0  0  0  0  0  0  0  0  0  0  0
   68.9920   52.5801   55.1798 C   0  0  0  0  0  0  0  0  0  0  0  0
   68.7044   51.3866   54.3031 C   0  0  0  0  0  0  0  0  0  0  0  0
 10 11  1  0
 11 12  2  0
 11 13  1  0
 12  7  1  0
  7  8  1  0
  8  9  2  0
  8  1  1  0
  1  2  2  0
  1  6  1  0
  2  3  1  0
  3  4  2  0
  4  5  1  0
  5 18  1  0
  5  6  2  0
 18 19  2  0
 18 20  2  0
 18 21  1  0
 21 22  1  0
 21 25  1  0
 22 23  1  0
 23 24  1  0
 24 25  1  0
 13 14  2  0
 13 17  1  0
 14 15  1  0
 15 16  2  0
 16 17  1  0
M  END
>  <minimizedAffinity>  (494) 
-8.73678

$$$$
data/reference_output_2/data/smiles/130568.pdb
     RDKit          3D

 22 24  0  0  0  0  0  0  0  0999 V2000
   68.9682   45.8597   56.2310 C   0  0  0  0  0  0  0  0  0  0  0  0
   69.9723   45.9452   57.0052 O   0  0  0  0  0  0  0  0  0  0  0  0
   68.3763   44.6087   56.0349 N   0  0  0  0  0  0  0  0  0  0  0  0
   68.8938   43.4380   56.6968 C   0  0  0  0  0  0  0  0  0  0  0  0
   70.2120   43.2627   57.0483 N   0  0  0  0  0  0  0  0  0  0  0  0
   70.6074   42.2010   57.6332 C   0  0  0  0  0  0  0  0  0  0  0  0
   69.6649   41.1777   57.9296 C   0  0  0  0  0  0  0  0  0  0  0  0
   68.1730   42.0204   57.2255 S   0  0  0  0  0  0  0  0  0  0  0  0
   72.0483   41.9764   58.0322 C   0  0  0  0  0  0  0  0  0  0  0  0
   72.4086   40.9846   58.9016 C   0  0  0  0  0  0  0  0  0  0  0  0
   73.7310   40.7803   59.2662 C   0  0  0  0  0  0  0  0  0  0  0  0
   74.6737   41.5985   58.7341 N   0  0  0  0  0  0  0  0  0  0  0  0
   74.3540   42.5763   57.8813 C   0  0  0  0  0  0  0  0  0  0  0  0
   73.0115   42.7773   57.5172 C   0  0  0  0  0  0  0  0  0  0  0  0
   68.5011   47.1148   55.5901 C   0  0  0  0  0  0  0  0  0  0  0  0
   70.3370   48.7831   51.3189 N   0  0  0  0  0  0  0  0  0  0  0  0
   69.5031   47.9078   52.0499 C   0  0  0  0  0  0  0  0  0  0  0  0
   68.7336   46.9689   51.3860 C   0  0  0  0  0  0  0  0  0  0  0  0
   67.8983   46.0847   52.0386 C   0  0  0  0  0  0  0  0  0  0  0  0
   67.8301   46.1412   53.4149 C   0  0  0  0  0  0  0  0  0  0  0  0
   68.5849   47.0668   54.1276 C   0  0  0  0  0  0  0  0  0  0  0  0
   69.4052   47.9302   53.4324 C   0  0  0  0  0  0  0  0  0  0  0  0
 16 17  1  0
 17 18  2  0
 17 22  1  0
 18 19  1  0
 19 20  2  0
 20 21  1  0
 21 15  1  0
 21 22  2  0
 15  1  1  0
  1  2  2  0
  1  3  1  0
  3  4  1  0
  4  5  2  0
  4  8  1  0
  5  6  1  0
  6  9  1  0
  6  7  2  0
  9 10  2  0
  9 14  1  0
 10 11  1  0
 11 12  2  0
 12 13  1  0
 13 14  2  0
  7  8  1  0
M  END
>  <minimizedAffinity>  (495) 
-8.65430

$$$$
data/reference_output_2/data/smiles/130650.pdb
     RDKit          3D

 32 35  0  0  0  0  0  0  0  0999 V2000
   70.9269   48.8454   58.2275 C   0  0  0  0  0  0  0  0  0  0  0  0
   72.0816   49.5845   58.1932 C   0  0  0  0  0  0  0  0  0  0  0  0
   72.0378   50.8868   57.7179 C   0  0  0  0  0  0  0  0  0  0  0  0
   70.8351   51.4314   57.2829 C   0  0  0  0  0  0  0  0  0  0  0  0
   69.6808   50.7071   57.3116 C   0  0  0  0  0  0  0  0  0  0  0  0
   69.7461   49.4188   57.7863 C   0  0  0  0  0  0  0  0  0  0  0  0
   68.3338   51.0774   56.9135 C   0  0  0  0  0  0  0  0  0  0  0  0
   68.1718   51.6855   55.5656 C   0  0  0  0  0  0  0  0  0  0  0  0
   69.4451   52.1568   55.1024 N   0  0  0  0  0  0  0  0  0  0  0  0
   69.9949   51.4960   53.9794 C   0  0  0  0  0  0  0  0  0  0  0  0
   71.1044   51.8283   53.4932 O   0  0  0  0  0  0  0  0  0  0  0  0
   70.2056   53.2399   55.6840 C   0  0  0  0  0  0  0  0  0  0  0  0
   71.0571   52.8027   56.8335 C   0  0  0  0  0  0  0  0  0  0  0  0
   71.4165   45.2439   58.6816 C   0  0  1  0  0  0  0  0  0  0  0  0
   70.4343   46.2954   58.1366 C   0  0  0  0  0  0  0  0  0  0  0  0
   70.9824   47.5044   58.7185 N   0  0  0  0  0  0  0  0  0  0  0  0
   71.6138   47.0824   59.9248 C   0  0  0  0  0  0  0  0  0  0  0  0
   72.1418   47.8754   60.7558 O   0  0  0  0  0  0  0  0  0  0  0  0
   71.5396   45.6787   60.0068 O   0  0  0  0  0  0  0  0  0  0  0  0
   70.8926   43.8657   58.5068 C   0  0  0  0  0  0  0  0  0  0  0  0
   67.9038   42.7598   56.2586 C   0  0  0  0  0  0  0  0  0  0  0  0
   69.0923   42.7015   57.1604 C   0  0  0  0  0  0  0  0  0  0  0  0
   69.4842   41.5518   57.4646 O   0  0  0  0  0  0  0  0  0  0  0  0
   69.7467   43.8343   57.6497 N   0  0  0  0  0  0  0  0  0  0  0  0
   69.2889   50.4571   53.4068 O   0  0  0  0  0  0  0  0  0  0  0  0
   69.9400   49.3405   52.8189 C   0  0  0  0  0  0  0  0  0  0  0  0
   69.2382   48.1003   53.2293 C   0  0  0  0  0  0  0  0  0  0  0  0
   68.9974   47.8404   54.5582 C   0  0  0  0  0  0  0  0  0  0  0  0
   68.3452   46.6935   54.9970 C   0  0  0  0  0  0  0  0  0  0  0  0
   67.9266   45.7811   54.0274 C   0  0  0  0  0  0  0  0  0  0  0  0
   68.1487   46.0053   52.7028 C   0  0  0  0  0  0  0  0  0  0  0  0
   68.7970   47.1509   52.3075 C   0  0  0  0  0  0  0  0  0  0  0  0
 21 22  1  0
 22 23  2  0
 22 24  1  0
 24 20  1  0
 14 20  1  1
 14 15  1  0
 14 19  1  0
 15 16  1  0
 16  1  1  0
 16 17  1  0
  1  2  2  0
  1  6  1  0
  2  3  1  0
  3  4  2  0
  4  5  1  0
  4 13  1  0
  5  6  2  0
  5  7  1  0
  7  8  1  0
  8  9  1  0
  9 10  1  0
  9 12  1  0
 10 11  2  0
 10 25  1  0
 25 26  1  0
 26 27  1  0
 27 28  2  0
 27 32  1  0
 28 29  1  0
 29 30  2  0
 30 31  1  0
 31 32  2  0
 12 13  1  0
 17 18  2  0
 17 19  1  0
M  END
>  <minimizedAffinity>  (496) 
-8.82077

$$$$
data/reference_output_2/data/smiles/130690.pdb
     RDKit          3D

 33 37  0  0  0  0  0  0  0  0999 V2000
   68.1883   41.5023   56.7615 C   0  0  0  0  0  0  0  0  0  0  0  0
   69.1111   42.4551   57.2571 C   0  0  0  0  0  0  0  0  0  0  0  0
   69.1509   43.7534   56.8193 C   0  0  0  0  0  0  0  0  0  0  0  0
   68.2662   44.2037   55.8491 C   0  0  0  0  0  0  0  0  0  0  0  0
   67.3674   43.2855   55.3798 C   0  0  0  0  0  0  0  0  0  0  0  0
   67.3140   41.9460   55.8185 C   0  0  0  0  0  0  0  0  0  0  0  0
   66.3637   41.1066   55.3370 F   0  0  0  0  0  0  0  0  0  0  0  0
   68.3868   45.5536   55.2905 C   0  0  0  0  0  0  0  0  0  0  0  0
   68.8057   46.5964   56.1283 C   0  0  0  0  0  0  0  0  0  0  0  0
   69.2145   47.8166   55.5793 C   0  0  0  0  0  0  0  0  0  0  0  0
   69.2375   48.0601   54.2172 C   0  0  0  0  0  0  0  0  0  0  0  0
   68.8096   47.0080   53.4138 C   0  0  0  0  0  0  0  0  0  0  0  0
   68.3994   45.8022   53.9302 C   0  0  0  0  0  0  0  0  0  0  0  0
   68.7833   47.2956   51.9471 C   0  0  0  0  0  0  0  0  0  0  0  0
   70.1671   47.9542   51.6418 C   0  0  0  0  0  0  0  0  0  0  0  0
   70.0993   49.2781   52.2538 N   0  0  0  0  0  0  0  0  0  0  0  0
   69.8946   49.2374   53.6701 C   0  0  0  0  0  0  0  0  0  0  0  0
   70.2495   50.1481   54.4228 O   0  0  0  0  0  0  0  0  0  0  0  0
   68.3627   40.1148   57.2384 C   0  0  0  0  0  0  0  0  0  0  0  0
   69.2419   40.0309   58.4982 C   0  0  2  0  0  0  0  0  0  0  0  0
   69.9220   38.7215   58.4246 N   0  0  0  0  0  0  0  0  0  0  0  0
   71.3273   38.6098   58.4337 C   0  0  0  0  0  0  0  0  0  0  0  0
   72.0218   39.6159   58.4909 O   0  0  0  0  0  0  0  0  0  0  0  0
   71.9420   37.2445   58.3752 C   0  0  1  0  0  0  0  0  0  0  0  0
   73.3060   37.4611   59.0905 C   0  0  0  0  0  0  0  0  0  0  0  0
   74.2388   36.3154   58.9117 C   0  0  0  0  0  0  0  0  0  0  0  0
   73.3547   35.1521   58.3965 C   0  0  1  0  0  0  0  0  0  0  0  0
   72.1808   35.0280   59.3285 C   0  0  0  0  0  0  0  0  0  0  0  0
   71.1848   36.1640   59.0366 C   0  0  0  0  0  0  0  0  0  0  0  0
   72.8995   35.5533   57.0022 C   0  0  0  0  0  0  0  0  0  0  0  0
   72.3028   36.8727   57.0434 N   0  0  0  0  0  0  0  0  0  0  0  0
   67.6827   39.6915   60.5619 N   0  0  0  0  0  0  0  0  0  0  0  0
   68.3538   39.8348   59.6928 C   0  0  0  0  0  0  0  0  0  0  0  0
 32 33  3  0
 20 33  1  1
 20 19  1  0
 20 21  1  0
 19  1  1  0
  1  2  2  0
  1  6  1  0
  2  3  1  0
  3  4  2  0
  4  8  1  0
  4  5  1  0
  8  9  2  0
  8 13  1  0
  9 10  1  0
 10 11  2  0
 11 12  1  0
 11 17  1  0
 12 13  2  0
 12 14  1  0
 14 15  1  0
 15 16  1  0
 16 17  1  0
 17 18  2  0
  5  6  2  0
  6  7  1  0
 21 22  1  0
 22 23  2  0
 24 22  1  6
 24 25  1  0
 24 29  1  0
 24 31  1  0
 25 26  1  0
 27 26  1  1
 27 28  1  0
 27 30  1  0
 28 29  1  0
 30 31  1  0
M  CHG  1  31   1
M  END
>  <minimizedAffinity>  (497) 
-8.75759

$$$$
data/reference_output_2/data/smiles/130730.pdb
     RDKit          3D

 32 35  0  0  0  0  0  0  0  0999 V2000
   71.7398   34.2750   59.5890 C   0  0  0  0  0  0  0  0  0  0  0  0
   71.9057   35.7481   59.3662 C   0  0  0  0  0  0  0  0  0  0  0  0
   70.8396   36.5790   59.0988 C   0  0  0  0  0  0  0  0  0  0  0  0
   70.9661   37.9372   58.8898 C   0  0  0  0  0  0  0  0  0  0  0  0
   72.2343   38.5028   58.9501 C   0  0  0  0  0  0  0  0  0  0  0  0
   73.3135   37.6832   59.2170 C   0  0  0  0  0  0  0  0  0  0  0  0
   73.1587   36.3149   59.4243 C   0  0  0  0  0  0  0  0  0  0  0  0
   74.3375   35.4636   59.7090 C   0  0  0  0  0  0  0  0  0  0  0  0
   72.3545   39.8270   58.7462 N   0  0  0  0  0  0  0  0  0  0  0  0
   73.5941   40.4126   58.7998 O   0  0  0  0  0  0  0  0  0  0  0  0
   71.2923   40.6243   58.4852 C   0  0  0  0  0  0  0  0  0  0  0  0
   71.3989   41.9702   58.2752 C   0  0  0  0  0  0  0  0  0  0  0  0
   70.3319   42.8020   58.0083 C   0  0  0  0  0  0  0  0  0  0  0  0
   69.0770   42.2348   57.9490 C   0  0  0  0  0  0  0  0  0  0  0  0
   68.9215   40.8659   58.1560 C   0  0  0  0  0  0  0  0  0  0  0  0
   70.0225   40.0597   58.4238 C   0  0  0  0  0  0  0  0  0  0  0  0
   69.9122   38.7345   58.6291 N   0  0  0  0  0  0  0  0  0  0  0  0
   68.6743   38.1522   58.5749 O   0  0  0  0  0  0  0  0  0  0  0  0
   70.5286   44.2504   57.7928 C   0  0  0  0  0  0  0  0  0  0  0  0
   70.1127   45.1321   58.6050 N   0  0  0  0  0  0  0  0  0  0  0  0
   70.2711   46.5107   58.4517 N   0  0  0  0  0  0  0  0  0  0  0  0
   69.4720   47.1843   57.5070 C   0  0  0  0  0  0  0  0  0  0  0  0
   68.6385   46.4926   56.8358 O   0  0  0  0  0  0  0  0  0  0  0  0
   69.5233   48.5628   57.2485 N   0  0  0  0  0  0  0  0  0  0  0  0
   68.6844   49.2122   56.2656 C   0  0  0  0  0  0  0  0  0  0  0  0
   69.4507   49.7085   55.0655 C   0  0  0  0  0  0  0  0  0  0  0  0
   69.3574   48.7245   53.9570 C   0  0  0  0  0  0  0  0  0  0  0  0
   70.1748   48.8665   52.8629 C   0  0  0  0  0  0  0  0  0  0  0  0
   70.1265   47.9725   51.7978 C   0  0  0  0  0  0  0  0  0  0  0  0
   69.2308   46.9335   51.8663 C   0  0  0  0  0  0  0  0  0  0  0  0
   68.3912   46.7540   52.9443 C   0  0  0  0  0  0  0  0  0  0  0  0
   68.4779   47.6638   53.9716 C   0  0  0  0  0  0  0  0  0  0  0  0
  1  2  1  0
  2  3  2  0
  2  7  1  0
  3  4  1  0
  4  5  2  0
  4 17  1  0
  5  6  1  0
  5  9  1  0
  6  7  2  0
  7  8  1  0
  9 10  1  0
  9 11  2  0
 11 12  1  0
 11 16  1  0
 12 13  2  0
 13 19  1  0
 13 14  1  0
 19 20  2  0
 20 21  1  0
 21 22  1  0
 22 23  2  0
 22 24  1  0
 24 25  1  0
 25 26  1  0
 26 27  1  0
 27 28  2  0
 27 32  1  0
 28 29  1  0
 29 30  2  0
 30 31  1  0
 31 32  2  0
 14 15  2  0
 15 16  1  0
 16 17  2  0
 17 18  1  0
M  CHG  4   9   1  10  -1  17   1  18  -1
M  END
>  <minimizedAffinity>  (498) 
-8.62808

$$$$
data/reference_output_2/data/smiles/130734.pdb
     RDKit          3D

 29 31  0  0  0  0  0  0  0  0999 V2000
   68.9772   47.6852   52.7560 C   0  0  0  0  0  0  0  0  0  0  0  0
   68.3576   47.1700   51.6406 C   0  0  0  0  0  0  0  0  0  0  0  0
   67.6954   45.9610   51.6583 C   0  0  0  0  0  0  0  0  0  0  0  0
   67.6818   45.2830   52.8583 C   0  0  0  0  0  0  0  0  0  0  0  0
   68.2826   45.7384   54.0138 C   0  0  0  0  0  0  0  0  0  0  0  0
   68.9310   46.9529   53.9436 C   0  0  0  0  0  0  0  0  0  0  0  0
   69.7959   49.2217   52.6415 S   0  0  0  0  0  0  0  0  0  0  0  0
   71.2762   48.9816   52.9047 O   0  0  0  0  0  0  0  0  0  0  0  0
   69.6990   49.8051   51.2651 O   0  0  0  0  0  0  0  0  0  0  0  0
   69.2335   50.2687   53.8550 N   0  0  0  0  0  0  0  0  0  0  0  0
   67.2024   50.3407   57.6254 C   0  0  0  0  0  0  0  0  0  0  0  0
   68.5903   49.9788   57.2535 C   0  0  0  0  0  0  0  0  0  0  0  0
   69.0341   48.8524   57.6159 O   0  0  0  0  0  0  0  0  0  0  0  0
   69.3753   50.8990   56.5082 N   0  0  0  0  0  0  0  0  0  0  0  0
   70.7242   50.4942   56.1782 C   0  0  0  0  0  0  0  0  0  0  0  0
   71.1710   51.1818   54.9215 C   0  0  0  0  0  0  0  0  0  0  0  0
   69.9768   51.4648   54.0504 C   0  0  0  0  0  0  0  0  0  0  0  0
   69.1842   52.5749   54.7358 C   0  0  0  0  0  0  0  0  0  0  0  0
   68.7971   52.1543   56.1399 C   0  0  0  0  0  0  0  0  0  0  0  0
   68.2383   44.9657   55.2597 C   0  0  0  0  0  0  0  0  0  0  0  0
   68.3382   45.5954   56.3587 O   0  0  0  0  0  0  0  0  0  0  0  0
   68.0927   43.5725   55.3216 N   0  0  0  0  0  0  0  0  0  0  0  0
   68.0491   42.8311   56.5350 C   0  0  0  0  0  0  0  0  0  0  0  0
   66.8891   42.1477   56.8344 C   0  0  0  0  0  0  0  0  0  0  0  0
   66.7698   41.3979   58.0079 C   0  0  0  0  0  0  0  0  0  0  0  0
   67.8161   41.3245   58.8993 C   0  0  0  0  0  0  0  0  0  0  0  0
   67.6917   40.5870   60.0480 F   0  0  0  0  0  0  0  0  0  0  0  0
   68.9635   42.0136   58.5807 C   0  0  0  0  0  0  0  0  0  0  0  0
   69.0904   42.7602   57.4184 C   0  0  0  0  0  0  0  0  0  0  0  0
 11 12  1  0
 12 13  2  0
 12 14  1  0
 14 15  1  0
 14 19  1  0
 15 16  1  0
 16 17  1  0
 17 10  1  0
 17 18  1  0
 10  7  1  0
  7  8  2  0
  7  9  2  0
  7  1  1  0
  1  2  2  0
  1  6  1  0
  2  3  1  0
  3  4  2  0
  4  5  1  0
  5 20  1  0
  5  6  2  0
 20 21  2  0
 20 22  1  0
 22 23  1  0
 23 24  2  0
 23 29  1  0
 24 25  1  0
 25 26  2  0
 26 27  1  0
 26 28  1  0
 28 29  2  0
 18 19  1  0
M  END
>  <minimizedAffinity>  (499) 
-8.61213

$$$$
data/reference_output_2/data/smiles/130808.pdb
     RDKit          3D

 30 33  0  0  0  0  0  0  0  0999 V2000
   69.3476   44.2807   57.0906 C   0  0  0  0  0  0  0  0  0  0  0  0
   68.3343   44.3144   56.2136 N   0  0  0  0  0  0  0  0  0  0  0  0
   67.7355   43.1627   56.2178 N   0  0  0  0  0  0  0  0  0  0  0  0
   68.3340   42.3255   57.1011 C   0  0  0  0  0  0  0  0  0  0  0  0
   69.3363   43.0566   57.6292 N   0  0  0  0  0  0  0  0  0  0  0  0
   70.2705   42.5872   58.6342 C   0  0  0  0  0  0  0  0  0  0  0  0
   70.8428   41.2201   58.2607 C   0  0  0  0  0  0  0  0  0  0  0  0
   69.8788   40.2531   58.5312 N   0  0  1  0  0  0  0  0  0  0  0  0
   68.9163   39.9458   57.5702 C   0  0  0  0  0  0  0  0  0  0  0  0
   67.8599   40.9616   57.3071 C   0  0  0  0  0  0  0  0  0  0  0  0
   70.2563   45.4087   57.3600 C   0  0  0  0  0  0  0  0  0  0  0  0
   69.6089   47.3894   55.5464 O   0  0  0  0  0  0  0  0  0  0  0  0
   69.1635   47.5851   56.7150 C   0  0  0  0  0  0  0  0  0  0  0  0
   69.4725   46.5906   57.6797 N   0  0  0  0  0  0  0  0  0  0  0  0
   68.3856   48.7825   56.9875 C   0  0  0  0  0  0  0  0  0  0  0  0
   67.2487   48.6901   57.7606 C   0  0  0  0  0  0  0  0  0  0  0  0
   66.4557   49.7704   58.0669 C   0  0  0  0  0  0  0  0  0  0  0  0
   66.7807   51.0226   57.5957 C   0  0  0  0  0  0  0  0  0  0  0  0
   67.9116   51.1428   56.8220 C   0  0  0  0  0  0  0  0  0  0  0  0
   68.2357   52.3678   56.3570 F   0  0  0  0  0  0  0  0  0  0  0  0
   68.7068   50.0344   56.5200 C   0  0  0  0  0  0  0  0  0  0  0  0
   70.0815   39.3630   59.6063 C   0  0  0  0  0  0  0  0  0  0  0  0
   70.6766   38.0538   59.2323 C   0  0  0  0  0  0  0  0  0  0  0  0
   70.3276   36.9213   59.9378 C   0  0  0  0  0  0  0  0  0  0  0  0
   70.8680   35.6752   59.6122 C   0  0  0  0  0  0  0  0  0  0  0  0
   70.5182   34.5611   60.3142 F   0  0  0  0  0  0  0  0  0  0  0  0
   71.7660   35.5561   58.5712 C   0  0  0  0  0  0  0  0  0  0  0  0
   72.1280   36.6762   57.8532 C   0  0  0  0  0  0  0  0  0  0  0  0
   73.0196   36.5749   56.8151 F   0  0  0  0  0  0  0  0  0  0  0  0
   71.5769   37.8944   58.1983 C   0  0  0  0  0  0  0  0  0  0  0  0
 12 13  2  0
 13 14  1  0
 13 15  1  0
 14 11  1  0
 11  1  1  0
  1  2  2  0
  1  5  1  0
  2  3  1  0
  3  4  2  0
  4  5  1  0
  4 10  1  0
  5  6  1  0
  6  7  1  0
  7  8  1  0
  8 22  1  6
  8  9  1  0
 22 23  1  0
 23 24  2  0
 23 30  1  0
 24 25  1  0
 25 26  1  0
 25 27  2  0
 27 28  1  0
 28 29  1  0
 28 30  2  0
  9 10  1  0
 15 16  2  0
 15 21  1  0
 16 17  1  0
 17 18  2  0
 18 19  1  0
 19 20  1  0
 19 21  2  0
M  CHG  1   8   1
M  END
>  <minimizedAffinity>  (500) 
-8.81721

$$$$
data/reference_output_2/data/smiles/130820.pdb
     RDKit          3D

 29 32  0  0  0  0  0  0  0  0999 V2000
   71.5708   47.1495   59.0329 C   0  0  0  0  0  0  0  0  0  0  0  0
   70.5994   47.7468   58.2684 C   0  0  0  0  0  0  0  0  0  0  0  0
   69.7781   47.0442   57.3760 C   0  0  0  0  0  0  0  0  0  0  0  0
   69.9358   45.6854   57.2428 C   0  0  0  0  0  0  0  0  0  0  0  0
   70.9228   45.0824   58.0203 C   0  0  0  0  0  0  0  0  0  0  0  0
   71.7242   45.7807   58.8945 C   0  0  0  0  0  0  0  0  0  0  0  0
   72.6850   45.1751   59.6477 F   0  0  0  0  0  0  0  0  0  0  0  0
   76.5654   47.0241   59.5564 C   0  0  0  0  0  0  0  0  0  0  0  0
   76.3822   48.4354   59.6890 N   0  0  1  0  0  0  0  0  0  0  0  0
   76.0139   49.0306   58.4486 C   0  0  0  0  0  0  0  0  0  0  0  0
   74.9818   48.2799   57.6707 C   0  0  0  0  0  0  0  0  0  0  0  0
   73.6138   48.7624   58.0817 C   0  0  0  0  0  0  0  0  0  0  0  0
   73.4788   48.7206   59.5164 N   0  0  0  0  0  0  0  0  0  0  0  0
   72.4224   47.8825   59.9559 C   0  0  0  0  0  0  0  0  0  0  0  0
   72.2018   47.7599   61.1822 O   0  0  0  0  0  0  0  0  0  0  0  0
   74.2697   49.4125   60.4849 C   0  0  0  0  0  0  0  0  0  0  0  0
   75.5769   48.7763   60.8177 C   0  0  0  0  0  0  0  0  0  0  0  0
   68.7799   47.8138   56.5906 C   0  0  0  0  0  0  0  0  0  0  0  0
   69.2919   48.1123   55.2345 C   0  0  0  0  0  0  0  0  0  0  0  0
   70.2231   49.0805   55.0311 N   0  0  0  0  0  0  0  0  0  0  0  0
   70.7190   49.3635   53.8285 N   0  0  0  0  0  0  0  0  0  0  0  0
   70.2888   48.6676   52.7515 C   0  0  0  0  0  0  0  0  0  0  0  0
   70.7853   48.9682   51.6289 O   0  0  0  0  0  0  0  0  0  0  0  0
   69.3481   47.6696   52.8536 C   0  0  0  0  0  0  0  0  0  0  0  0
   68.9336   46.9974   51.7263 C   0  0  0  0  0  0  0  0  0  0  0  0
   67.9796   46.0114   51.8611 C   0  0  0  0  0  0  0  0  0  0  0  0
   67.4647   45.7209   53.1150 C   0  0  0  0  0  0  0  0  0  0  0  0
   67.8996   46.4108   54.2301 C   0  0  0  0  0  0  0  0  0  0  0  0
   68.8615   47.4115   54.1298 C   0  0  0  0  0  0  0  0  0  0  0  0
  9  8  1  6
  9 10  1  0
  9 17  1  0
 10 11  1  0
 11 12  1  0
 12 13  1  0
 13 14  1  0
 13 16  1  0
 14 15  2  0
 14  1  1  0
  1  2  2  0
  1  6  1  0
  2  3  1  0
  3 18  1  0
  3  4  2  0
 18 19  1  0
 19 20  2  0
 19 29  1  0
 20 21  1  0
 21 22  1  0
 22 23  2  0
 22 24  1  0
 24 25  1  0
 24 29  2  0
 25 26  2  0
 26 27  1  0
 27 28  2  0
 28 29  1  0
  4  5  1  0
  5  6  2  0
  6  7  1  0
 16 17  1  0
M  CHG  1   9   1
M  END
>  <minimizedAffinity>  (501) 
-8.96421

$$$$
data/reference_output_2/data/smiles/130825.pdb
     RDKit          3D

 27 30  0  0  0  0  0  0  0  0999 V2000
   69.1233   47.1440   55.7795 N   0  0  0  0  0  0  0  0  0  0  0  0
   68.4680   46.1506   55.1636 C   0  0  0  0  0  0  0  0  0  0  0  0
   68.0202   45.1412   55.7859 O   0  0  0  0  0  0  0  0  0  0  0  0
   68.2388   46.1559   53.7947 C   0  0  0  0  0  0  0  0  0  0  0  0
   67.5944   45.2568   52.9400 C   0  0  0  0  0  0  0  0  0  0  0  0
   67.6397   45.7317   51.6450 C   0  0  0  0  0  0  0  0  0  0  0  0
   68.3206   46.9289   51.7308 C   0  0  0  0  0  0  0  0  0  0  0  0
   68.6672   47.1619   53.0175 N   0  0  0  0  0  0  0  0  0  0  0  0
   69.3282   48.1644   53.6258 C   0  0  0  0  0  0  0  0  0  0  0  0
   69.7885   49.2171   52.8727 C   0  0  0  0  0  0  0  0  0  0  0  0
   70.4743   50.2716   53.4550 C   0  0  0  0  0  0  0  0  0  0  0  0
   70.6633   50.1957   54.8229 C   0  0  0  0  0  0  0  0  0  0  0  0
   70.2221   49.1785   55.5735 N   0  0  0  0  0  0  0  0  0  0  0  0
   69.5573   48.1667   54.9766 C   0  0  0  0  0  0  0  0  0  0  0  0
   69.3424   47.2017   57.1869 C   0  0  0  0  0  0  0  0  0  0  0  0
   70.5266   46.5790   57.7716 C   0  0  0  0  0  0  0  0  0  0  0  0
   69.9173   44.8952   59.3101 O   0  0  0  0  0  0  0  0  0  0  0  0
   70.5187   45.2239   58.2750 C   0  0  0  0  0  0  0  0  0  0  0  0
   71.2133   44.1749   57.5972 N   0  0  0  0  0  0  0  0  0  0  0  0
   71.1864   42.8421   58.1199 C   0  0  0  0  0  0  0  0  0  0  0  0
   69.9772   42.0977   57.6863 C   0  0  0  0  0  0  0  0  0  0  0  0
   69.0294   42.5942   56.8182 C   0  0  0  0  0  0  0  0  0  0  0  0
   67.9217   41.8528   56.4294 C   0  0  0  0  0  0  0  0  0  0  0  0
   67.7211   40.5732   56.9009 C   0  0  0  0  0  0  0  0  0  0  0  0
   68.6588   40.0567   57.7715 C   0  0  0  0  0  0  0  0  0  0  0  0
   69.7556   40.7967   58.1530 C   0  0  0  0  0  0  0  0  0  0  0  0
   70.6840   40.2776   59.0183 F   0  0  0  0  0  0  0  0  0  0  0  0
 17 18  2  0
 18 16  1  0
 18 19  1  0
 16 15  1  0
 15  1  1  0
  1  2  1  0
  1 14  1  0
  2  3  2  0
  2  4  1  0
  4  5  2  0
  4  8  1  0
  5  6  1  0
  6  7  2  0
  7  8  1  0
  8  9  1  0
  9 10  1  0
  9 14  2  0
 10 11  2  0
 11 12  1  0
 12 13  2  0
 13 14  1  0
 19 20  1  0
 20 21  1  0
 21 22  2  0
 21 26  1  0
 22 23  1  0
 23 24  2  0
 24 25  1  0
 25 26  2  0
 26 27  1  0
M  END
>  <minimizedAffinity>  (502) 
-8.77908

$$$$
data/reference_output_2/data/smiles/130898.pdb
     RDKit          3D

 31 34  0  0  0  0  0  0  0  0999 V2000
   69.3199   41.3446   57.9768 C   0  0  0  0  0  0  0  0  0  0  0  0
   68.2936   40.9452   57.1648 C   0  0  0  0  0  0  0  0  0  0  0  0
   67.7087   41.8085   56.2344 C   0  0  0  0  0  0  0  0  0  0  0  0
   68.1463   43.1070   56.0956 C   0  0  0  0  0  0  0  0  0  0  0  0
   67.7924   44.1451   55.3104 N   0  0  0  0  0  0  0  0  0  0  0  0
   68.5600   45.2133   55.5862 C   0  0  0  0  0  0  0  0  0  0  0  0
   69.3987   44.8283   56.5543 N   0  0  0  0  0  0  0  0  0  0  0  0
   69.1787   43.5326   56.9006 C   0  0  0  0  0  0  0  0  0  0  0  0
   69.7455   42.6724   57.8134 C   0  0  0  0  0  0  0  0  0  0  0  0
   68.4446   46.5350   54.9083 C   0  0  1  0  0  0  0  0  0  0  0  0
   69.2757   47.6021   55.5509 C   0  0  0  0  0  0  0  0  0  0  0  0
   69.3039   48.6609   54.4396 C   0  0  2  0  0  0  0  0  0  0  0  0
   68.2259   49.5331   54.6774 O   0  0  0  0  0  0  0  0  0  0  0  0
   68.9786   47.8321   53.2359 C   0  0  2  0  0  0  0  0  0  0  0  0
   68.9310   46.5047   53.6154 O   0  0  0  0  0  0  0  0  0  0  0  0
   69.9631   48.0489   52.1030 C   0  0  0  0  0  0  0  0  0  0  0  0
   69.6958   47.1754   51.0496 O   0  0  0  0  0  0  0  0  0  0  0  0
   69.3812   40.2268   60.0644 O   0  0  0  0  0  0  0  0  0  0  0  0
   69.9760   40.4935   58.9716 C   0  0  0  0  0  0  0  0  0  0  0  0
   71.2446   39.9562   58.7623 N   0  0  0  0  0  0  0  0  0  0  0  0
   71.9729   39.0975   59.6912 C   0  0  0  0  0  0  0  0  0  0  0  0
   71.8676   37.6708   59.3028 C   0  0  0  0  0  0  0  0  0  0  0  0
   71.1525   36.7512   60.0271 C   0  0  0  0  0  0  0  0  0  0  0  0
   71.0743   35.4153   59.6149 C   0  0  0  0  0  0  0  0  0  0  0  0
   71.7102   35.0135   58.4857 C   0  0  0  0  0  0  0  0  0  0  0  0
   72.4377   35.9130   57.7359 C   0  0  0  0  0  0  0  0  0  0  0  0
   72.5085   37.2249   58.1507 C   0  0  0  0  0  0  0  0  0  0  0  0
   73.1223   35.4393   56.5055 C   0  0  0  0  0  0  0  0  0  0  0  0
   72.8715   34.1288   56.2373 F   0  0  0  0  0  0  0  0  0  0  0  0
   72.6481   36.2172   55.4554 F   0  0  0  0  0  0  0  0  0  0  0  0
   74.4833   35.6166   56.5517 F   0  0  0  0  0  0  0  0  0  0  0  0
 18 19  2  0
 19 20  1  0
 19  1  1  0
 20 21  1  0
 21 22  1  0
 22 23  2  0
 22 27  1  0
 23 24  1  0
 24 25  2  0
 25 26  1  0
 26 28  1  0
 26 27  2  0
 28 29  1  0
 28 30  1  0
 28 31  1  0
  1  2  2  0
  1  9  1  0
  2  3  1  0
  3  4  2  0
  4  5  1  0
  4  8  1  0
  5  6  1  0
 10  6  1  1
  6  7  2  0
 10 11  1  0
 10 15  1  0
 11 12  1  0
 12 13  1  1
 12 14  1  0
 14 16  1  6
 14 15  1  0
 16 17  1  0
  7  8  1  0
  8  9  2  0
M  CHG  1   7   1
M  END
>  <minimizedAffinity>  (503) 
-9.04198

$$$$
data/reference_output_2/data/smiles/130912.pdb
     RDKit          3D

 30 33  0  0  0  0  0  0  0  0999 V2000
   72.0232   45.8962   58.5657 C   0  0  0  0  0  0  0  0  0  0  0  0
   71.9547   47.2676   58.4812 C   0  0  0  0  0  0  0  0  0  0  0  0
   70.8935   47.9146   57.8344 C   0  0  0  0  0  0  0  0  0  0  0  0
   69.8728   47.1994   57.2567 C   0  0  0  0  0  0  0  0  0  0  0  0
   69.9286   45.8169   57.3350 C   0  0  0  0  0  0  0  0  0  0  0  0
   70.9765   45.1877   57.9729 C   0  0  0  0  0  0  0  0  0  0  0  0
   68.5284   47.9671   56.4330 S   0  0  0  0  0  0  0  0  0  0  0  0
   68.6743   49.4732   56.4556 O   0  0  0  0  0  0  0  0  0  0  0  0
   67.2221   47.6068   57.0306 O   0  0  0  0  0  0  0  0  0  0  0  0
   68.6084   47.4739   54.7490 C   0  0  0  0  0  0  0  0  0  0  0  0
   67.8930   46.4083   54.3038 C   0  0  0  0  0  0  0  0  0  0  0  0
   67.9388   46.0019   52.9859 C   0  0  0  0  0  0  0  0  0  0  0  0
   67.2368   44.9490   52.5259 F   0  0  0  0  0  0  0  0  0  0  0  0
   68.7395   46.6963   52.0776 C   0  0  0  0  0  0  0  0  0  0  0  0
   69.4554   47.7746   52.5569 C   0  0  0  0  0  0  0  0  0  0  0  0
   70.2474   48.4713   51.6872 F   0  0  0  0  0  0  0  0  0  0  0  0
   69.4066   48.1785   53.8759 C   0  0  0  0  0  0  0  0  0  0  0  0
   73.1359   45.1893   59.2421 C   0  0  0  0  0  0  0  0  0  0  0  0
   73.8980   45.4474   61.9666 O   0  0  0  0  0  0  0  0  0  0  0  0
   73.0696   44.5238   61.6942 C   0  0  0  0  0  0  0  0  0  0  0  0
   72.6853   44.3912   60.3375 N   0  0  0  0  0  0  0  0  0  0  0  0
   72.5642   43.6637   62.7665 C   0  0  0  0  0  0  0  0  0  0  0  0
   71.3157   43.0946   62.6139 C   0  0  0  0  0  0  0  0  0  0  0  0
   70.7496   42.2888   63.5326 N   0  0  0  0  0  0  0  0  0  0  0  0
   71.3867   41.9877   64.6791 C   0  0  0  0  0  0  0  0  0  0  0  0
   71.0667   41.2307   65.7413 N   0  0  0  0  0  0  0  0  0  0  0  0
   72.0788   41.2877   66.5982 N   0  0  0  0  0  0  0  0  0  0  0  0
   73.0518   42.0815   66.0869 C   0  0  0  0  0  0  0  0  0  0  0  0
   72.6356   42.5455   64.8539 C   0  0  0  0  0  0  0  0  0  0  0  0
   73.2406   43.3805   63.9202 C   0  0  0  0  0  0  0  0  0  0  0  0
 19 20  2  0
 20 21  1  0
 20 22  1  0
 21 18  1  0
 18  1  1  0
  1  2  2  0
  1  6  1  0
  2  3  1  0
  3  4  2  0
  4  7  1  0
  4  5  1  0
  7  8  2  0
  7  9  2  0
  7 10  1  0
 10 11  2  0
 10 17  1  0
 11 12  1  0
 12 13  1  0
 12 14  2  0
 14 15  1  0
 15 16  1  0
 15 17  2  0
  5  6  2  0
 22 23  2  0
 22 30  1  0
 23 24  1  0
 24 25  2  0
 25 26  1  0
 25 29  1  0
 26 27  1  0
 27 28  2  0
 28 29  1  0
 29 30  2  0
M  END
>  <minimizedAffinity>  (504) 
-9.09485

$$$$
data/reference_output_2/data/smiles/130919.pdb
     RDKit          3D

 22 23  0  0  0  0  0  0  0  0999 V2000
   66.8478   42.1954   55.7403 C   0  0  0  0  0  0  0  0  0  0  0  0
   68.1216   42.5040   56.4572 C   0  0  0  0  0  0  0  0  0  0  0  0
   68.6829   43.6635   56.4217 N   0  0  0  0  0  0  0  0  0  0  0  0
   68.7257   41.3963   57.2263 C   0  0  0  0  0  0  0  0  0  0  0  0
   68.0348   40.2081   57.3901 C   0  0  0  0  0  0  0  0  0  0  0  0
   68.5759   39.1601   58.1018 C   0  0  0  0  0  0  0  0  0  0  0  0
   69.8219   39.2459   58.6803 C   0  0  0  0  0  0  0  0  0  0  0  0
   70.4910   37.8989   59.5824 Cl  0  0  0  0  0  0  0  0  0  0  0  0
   70.5144   40.4323   58.5170 C   0  0  0  0  0  0  0  0  0  0  0  0
   72.0940   40.5443   59.2464 Cl  0  0  0  0  0  0  0  0  0  0  0  0
   69.9731   41.4939   57.7994 C   0  0  0  0  0  0  0  0  0  0  0  0
   68.0622   44.6703   55.6743 N   0  0  0  0  0  0  0  0  0  0  0  0
   68.5846   45.9794   55.5593 C   0  0  0  0  0  0  0  0  0  0  0  0
   69.6778   46.1971   56.1844 O   0  0  0  0  0  0  0  0  0  0  0  0
   67.9352   47.0443   54.7758 C   0  0  0  0  0  0  0  0  0  0  0  0
   68.4012   47.1112   53.3878 C   0  0  0  0  0  0  0  0  0  0  0  0
   69.3152   47.9914   52.8478 C   0  0  0  0  0  0  0  0  0  0  0  0
   70.0550   49.0876   53.5762 C   0  0  0  0  0  0  0  0  0  0  0  0
   69.4107   47.6704   51.5466 N   0  0  0  0  0  0  0  0  0  0  0  0
   68.6277   46.6566   51.2266 N   0  0  0  0  0  0  0  0  0  0  0  0
   67.9821   46.2871   52.3683 C   0  0  0  0  0  0  0  0  0  0  0  0
   67.0707   45.2358   52.3831 O   0  0  0  0  0  0  0  0  0  0  0  0
  1  2  1  0
  2  3  2  0
  2  4  1  0
  3 12  1  0
 12 13  1  0
 13 14  2  0
 13 15  1  0
 15 16  1  0
 16 17  1  0
 16 21  2  0
 17 18  1  0
 17 19  2  0
 19 20  1  0
 20 21  1  0
 21 22  1  0
  4  5  2  0
  4 11  1  0
  5  6  1  0
  6  7  2  0
  7  8  1  0
  7  9  1  0
  9 10  1  0
  9 11  2  0
M  END
>  <minimizedAffinity>  (505) 
-8.64069

$$$$
data/reference_output_2/data/smiles/131145.pdb
     RDKit          3D

 27 30  0  0  0  0  0  0  0  0999 V2000
   73.2976   42.4742   58.5183 C   0  0  0  0  0  0  0  0  0  0  0  0
   71.9415   42.7549   58.0915 N   0  0  0  0  0  0  0  0  0  0  0  0
   71.5435   43.9543   57.6788 N   0  0  0  0  0  0  0  0  0  0  0  0
   70.2461   43.9636   57.3384 C   0  0  0  0  0  0  0  0  0  0  0  0
   69.8404   42.6426   57.5727 C   0  0  0  0  0  0  0  0  0  0  0  0
   70.9049   41.8908   58.0444 C   0  0  0  0  0  0  0  0  0  0  0  0
   70.8591   40.4829   58.3921 C   0  0  0  0  0  0  0  0  0  0  0  0
   71.9657   39.7782   58.8658 C   0  0  0  0  0  0  0  0  0  0  0  0
   71.8647   38.4368   59.1851 C   0  0  0  0  0  0  0  0  0  0  0  0
   70.6800   37.7446   59.0521 C   0  0  0  0  0  0  0  0  0  0  0  0
   69.5952   38.4169   58.5927 C   0  0  0  0  0  0  0  0  0  0  0  0
   69.6895   39.7777   58.2666 C   0  0  0  0  0  0  0  0  0  0  0  0
   68.2044   40.4910   57.6866 S   0  0  0  0  0  0  0  0  0  0  0  0
   67.8173   39.7036   56.4538 O   0  0  0  0  0  0  0  0  0  0  0  0
   67.0927   40.2771   58.7021 O   0  0  0  0  0  0  0  0  0  0  0  0
   68.4542   42.1883   57.3306 C   0  0  0  0  0  0  0  0  0  0  0  0
   69.5529   45.1269   56.8564 C   0  0  0  0  0  0  0  0  0  0  0  0
   69.5777   46.1550   57.6431 O   0  0  0  0  0  0  0  0  0  0  0  0
   68.8467   45.3428   55.6685 N   0  0  0  0  0  0  0  0  0  0  0  0
   68.1972   46.6049   55.3406 C   0  0  0  0  0  0  0  0  0  0  0  0
   68.7668   47.2990   54.1900 C   0  0  0  0  0  0  0  0  0  0  0  0
   69.5149   48.4677   54.3468 C   0  0  0  0  0  0  0  0  0  0  0  0
   70.0672   49.1407   53.2723 C   0  0  0  0  0  0  0  0  0  0  0  0
   69.8461   48.6037   52.0195 C   0  0  0  0  0  0  0  0  0  0  0  0
   69.1091   47.4476   51.8344 C   0  0  0  0  0  0  0  0  0  0  0  0
   68.5680   46.7929   52.9134 C   0  0  0  0  0  0  0  0  0  0  0  0
   67.6372   45.3366   52.7040 Cl  0  0  0  0  0  0  0  0  0  0  0  0
  1  2  1  0
  2  3  1  0
  2  6  1  0
  3  4  2  0
  4 17  1  0
  4  5  1  0
 17 18  2  0
 17 19  1  0
 19 20  1  0
 20 21  1  0
 21 22  2  0
 21 26  1  0
 22 23  1  0
 23 24  2  0
 24 25  1  0
 25 26  2  0
 26 27  1  0
  5  6  2  0
  5 16  1  0
  6  7  1  0
  7  8  2  0
  7 12  1  0
  8  9  1  0
  9 10  2  0
 10 11  1  0
 11 12  2  0
 12 13  1  0
 13 14  2  0
 13 15  2  0
 13 16  1  0
M  END
>  <minimizedAffinity>  (506) 
-8.51234

$$$$
data/reference_output_2/data/smiles/131168.pdb
     RDKit          3D

 31 34  0  0  0  0  0  0  0  0999 V2000
   70.5057   48.1362   57.7294 C   0  0  0  0  0  0  0  0  0  0  0  0
   71.2676   49.1362   57.8016 O   0  0  0  0  0  0  0  0  0  0  0  0
   70.8864   46.8393   58.1552 N   0  0  0  0  0  0  0  0  0  0  0  0
   70.0441   45.7324   58.0650 N   0  0  0  0  0  0  0  0  0  0  0  0
   70.8787   44.5605   58.2132 C   0  0  0  0  0  0  0  0  0  0  0  0
   72.0772   44.9817   58.9967 C   0  0  0  0  0  0  0  0  0  0  0  0
   72.1331   46.4766   58.7345 C   0  0  2  0  0  0  0  0  0  0  0  0
   72.3756   47.1207   60.0584 C   0  0  0  0  0  0  0  0  0  0  0  0
   71.3787   47.1119   60.8219 O   0  0  0  0  0  0  0  0  0  0  0  0
   73.5709   47.6899   60.4595 N   0  0  0  0  0  0  0  0  0  0  0  0
   73.7442   48.3037   61.7520 C   0  0  0  0  0  0  0  0  0  0  0  0
   74.6877   47.5233   62.5944 C   0  0  0  0  0  0  0  0  0  0  0  0
   75.9832   48.0368   62.7775 C   0  0  0  0  0  0  0  0  0  0  0  0
   76.8934   47.3715   63.5345 C   0  0  0  0  0  0  0  0  0  0  0  0
   76.5712   46.1854   64.1380 C   0  0  0  0  0  0  0  0  0  0  0  0
   75.2938   45.6529   63.9736 C   0  0  0  0  0  0  0  0  0  0  0  0
   74.9209   44.1466   64.7571 Cl  0  0  0  0  0  0  0  0  0  0  0  0
   74.3560   46.3345   63.1959 C   0  0  0  0  0  0  0  0  0  0  0  0
   69.1523   48.4033   57.1598 C   0  0  0  0  0  0  0  0  0  0  0  0
   69.7048   49.6405   51.1683 N   0  0  0  0  0  0  0  0  0  0  0  0
   69.8455   50.0240   52.5067 C   0  0  0  0  0  0  0  0  0  0  0  0
   70.3120   51.1642   52.7758 O   0  0  0  0  0  0  0  0  0  0  0  0
   69.4881   49.1894   53.6339 N   0  0  0  0  0  0  0  0  0  0  0  0
   69.6090   49.5204   54.9211 C   0  0  0  0  0  0  0  0  0  0  0  0
   69.1701   48.4660   55.6795 C   0  0  0  0  0  0  0  0  0  0  0  0
   68.7795   47.4849   54.8095 C   0  0  0  0  0  0  0  0  0  0  0  0
   68.2481   46.2042   54.9704 C   0  0  0  0  0  0  0  0  0  0  0  0
   67.9409   45.4331   53.8721 C   0  0  0  0  0  0  0  0  0  0  0  0
   68.1349   45.8725   52.5812 C   0  0  0  0  0  0  0  0  0  0  0  0
   68.6605   47.1417   52.4323 C   0  0  0  0  0  0  0  0  0  0  0  0
   68.9788   47.9382   53.5112 C   0  0  0  0  0  0  0  0  0  0  0  0
 20 21  1  0
 21 22  2  0
 21 23  1  0
 23 24  1  0
 23 31  1  0
 24 25  2  0
 25 19  1  0
 25 26  1  0
 19  1  1  0
  1  2  2  0
  1  3  1  0
  3  4  1  0
  3  7  1  0
  4  5  1  0
  5  6  1  0
  6  7  1  0
  7  8  1  1
  8  9  2  0
  8 10  1  0
 10 11  1  0
 11 12  1  0
 12 13  2  0
 12 18  1  0
 13 14  1  0
 14 15  2  0
 15 16  1  0
 16 17  1  0
 16 18  2  0
 26 27  1  0
 26 31  2  0
 27 28  2  0
 28 29  1  0
 29 30  2  0
 30 31  1  0
M  END
>  <minimizedAffinity>  (507) 
-8.75374

$$$$
data/reference_output_2/data/smiles/131248.pdb
     RDKit          3D

 30 33  0  0  0  0  0  0  0  0999 V2000
   71.5771   47.3587   58.9780 C   0  0  0  0  0  0  0  0  0  0  0  0
   70.7508   48.0674   58.1039 C   0  0  0  0  0  0  0  0  0  0  0  0
   69.9198   47.5046   57.1855 C   0  0  0  0  0  0  0  0  0  0  0  0
   69.9289   46.1027   57.1507 C   0  0  0  0  0  0  0  0  0  0  0  0
   70.7241   45.3580   57.9901 C   0  0  0  0  0  0  0  0  0  0  0  0
   71.5441   45.9893   58.9003 C   0  0  0  0  0  0  0  0  0  0  0  0
   72.3537   45.2958   59.7543 F   0  0  0  0  0  0  0  0  0  0  0  0
   76.1550   49.1172   58.8533 N   0  0  0  0  0  0  0  0  0  0  0  0
   75.6616   49.0295   60.2038 C   0  0  0  0  0  0  0  0  0  0  0  0
   74.3256   49.6575   60.4349 C   0  0  0  0  0  0  0  0  0  0  0  0
   73.4542   48.9386   59.4790 N   0  0  0  0  0  0  0  0  0  0  0  0
   72.4350   48.0771   59.9195 C   0  0  0  0  0  0  0  0  0  0  0  0
   72.2344   47.8974   61.1406 O   0  0  0  0  0  0  0  0  0  0  0  0
   73.7980   49.2186   58.1085 C   0  0  0  0  0  0  0  0  0  0  0  0
   75.2550   48.9717   57.8142 C   0  0  0  0  0  0  0  0  0  0  0  0
   77.4154   48.4633   58.8328 C   0  0  0  0  0  0  0  0  0  0  0  0
   78.5441   50.7191   58.5727 C   0  0  0  0  0  0  0  0  0  0  0  0
   78.6621   49.2502   58.8364 C   0  0  0  0  0  0  0  0  0  0  0  0
   69.0004   48.1784   56.2702 C   0  0  0  0  0  0  0  0  0  0  0  0
   69.3912   48.3077   54.8793 C   0  0  0  0  0  0  0  0  0  0  0  0
   70.2674   49.2493   54.5022 N   0  0  0  0  0  0  0  0  0  0  0  0
   70.6272   49.4363   53.2430 N   0  0  0  0  0  0  0  0  0  0  0  0
   70.1412   48.6918   52.2380 C   0  0  0  0  0  0  0  0  0  0  0  0
   70.4645   48.8485   51.0351 O   0  0  0  0  0  0  0  0  0  0  0  0
   69.2238   47.6920   52.5654 C   0  0  0  0  0  0  0  0  0  0  0  0
   68.7223   46.8968   51.5723 C   0  0  0  0  0  0  0  0  0  0  0  0
   67.8338   45.8836   51.8549 C   0  0  0  0  0  0  0  0  0  0  0  0
   67.4664   45.6948   53.1662 C   0  0  0  0  0  0  0  0  0  0  0  0
   67.9689   46.4922   54.1564 C   0  0  0  0  0  0  0  0  0  0  0  0
   68.8521   47.5037   53.8910 C   0  0  0  0  0  0  0  0  0  0  0  0
 17 18  1  0
 18 16  1  0
 16  8  1  0
  8  9  1  0
  8 15  1  0
  9 10  1  0
 10 11  1  0
 11 12  1  0
 11 14  1  0
 12 13  2  0
 12  1  1  0
  1  2  2  0
  1  6  1  0
  2  3  1  0
  3 19  1  0
  3  4  2  0
 19 20  1  0
 20 21  2  0
 20 30  1  0
 21 22  1  0
 22 23  1  0
 23 24  2  0
 23 25  1  0
 25 26  1  0
 25 30  2  0
 26 27  2  0
 27 28  1  0
 28 29  2  0
 29 30  1  0
  4  5  1  0
  5  6  2  0
  6  7  1  0
 14 15  1  0
M  CHG  1   8   1
M  END
>  <minimizedAffinity>  (508) 
-9.48792

$$$$
data/reference_output_2/data/smiles/131281.pdb
     RDKit          3D

 23 24  0  0  0  0  0  0  0  0999 V2000
   68.2636   42.5822   56.7355 C   0  0  0  0  0  0  0  0  0  0  0  0
   67.1786   42.5001   56.1283 O   0  0  0  0  0  0  0  0  0  0  0  0
   68.9002   43.8254   56.7771 N   0  0  0  0  0  0  0  0  0  0  0  0
   69.8793   39.0359   58.5954 C   0  0  0  0  0  0  0  0  0  0  0  0
   70.5414   40.2411   58.5934 C   0  0  0  0  0  0  0  0  0  0  0  0
   70.0032   41.3614   57.9921 C   0  0  0  0  0  0  0  0  0  0  0  0
   68.7755   41.3488   57.3562 C   0  0  0  0  0  0  0  0  0  0  0  0
   68.1071   40.1489   57.3536 C   0  0  0  0  0  0  0  0  0  0  0  0
   68.6563   39.0123   57.9650 C   0  0  0  0  0  0  0  0  0  0  0  0
   72.0081   35.8807   59.2254 C   0  0  0  0  0  0  0  0  0  0  0  0
   71.4375   37.1111   58.6019 C   0  0  0  0  0  0  0  0  0  0  0  0
   71.8541   37.5463   57.4793 O   0  0  0  0  0  0  0  0  0  0  0  0
   70.4086   37.8668   59.2071 N   0  0  0  0  0  0  0  0  0  0  0  0
   68.5597   45.0494   56.2583 N   0  0  0  0  0  0  0  0  0  0  0  0
   69.1324   46.3109   56.4247 C   0  0  0  0  0  0  0  0  0  0  0  0
   70.1309   46.4343   57.1572 O   0  0  0  0  0  0  0  0  0  0  0  0
   68.5755   47.5394   55.7409 C   0  0  0  0  0  0  0  0  0  0  0  0
   68.6129   47.2831   54.2839 C   0  0  0  0  0  0  0  0  0  0  0  0
   67.8309   46.3160   53.6898 C   0  0  0  0  0  0  0  0  0  0  0  0
   67.8866   46.0954   52.3104 C   0  0  0  0  0  0  0  0  0  0  0  0
   68.7254   46.8383   51.5011 C   0  0  0  0  0  0  0  0  0  0  0  0
   69.5048   47.8029   52.0959 C   0  0  0  0  0  0  0  0  0  0  0  0
   69.4507   48.0209   53.4563 C   0  0  0  0  0  0  0  0  0  0  0  0
 10 11  1  0
 11 12  2  0
 11 13  1  0
 13  4  1  0
  4  5  2  0
  4  9  1  0
  5  6  1  0
  6  7  2  0
  7  1  1  0
  7  8  1  0
  1  2  2  0
  1  3  1  0
  3 14  1  0
 14 15  1  0
 15 16  2  0
 15 17  1  0
 17 18  1  0
 18 19  2  0
 18 23  1  0
 19 20  1  0
 20 21  2  0
 21 22  1  0
 22 23  2  0
  8  9  2  0
M  END
>  <minimizedAffinity>  (509) 
-8.65070

$$$$
data/reference_output_2/data/smiles/131333.pdb
     RDKit          3D

 28 30  0  0  0  0  0  0  0  0999 V2000
   68.2776   42.7681   57.5357 O   0  0  0  0  0  0  0  0  0  0  0  0
   69.4433   43.1666   57.3080 C   0  0  0  0  0  0  0  0  0  0  0  0
   69.5545   44.4416   56.6283 N   0  0  0  0  0  0  0  0  0  0  0  0
   70.5866   42.3787   57.7117 C   0  0  0  0  0  0  0  0  0  0  0  0
   71.8722   42.8459   57.7843 C   0  0  0  0  0  0  0  0  0  0  0  0
   72.9370   42.0410   58.1805 C   0  0  0  0  0  0  0  0  0  0  0  0
   74.2006   42.5267   58.2448 F   0  0  0  0  0  0  0  0  0  0  0  0
   72.6929   40.7257   58.5123 C   0  0  0  0  0  0  0  0  0  0  0  0
   71.3987   40.2156   58.4493 C   0  0  0  0  0  0  0  0  0  0  0  0
   70.4037   41.0505   58.0556 C   0  0  0  0  0  0  0  0  0  0  0  0
   71.1565   38.8125   58.8057 C   0  0  0  0  0  0  0  0  0  0  0  0
   70.1898   38.3939   59.6564 C   0  0  0  0  0  0  0  0  0  0  0  0
   70.0385   37.0332   59.9326 C   0  0  0  0  0  0  0  0  0  0  0  0
   70.8768   36.1018   59.3361 C   0  0  0  0  0  0  0  0  0  0  0  0
   71.8651   36.5194   58.4669 C   0  0  0  0  0  0  0  0  0  0  0  0
   71.9836   37.8695   58.2196 C   0  0  0  0  0  0  0  0  0  0  0  0
   68.4504   45.1557   56.2645 N   0  0  0  0  0  0  0  0  0  0  0  0
   68.6033   46.8194   56.1264 S   0  0  0  0  0  0  0  0  0  0  0  0
   67.2952   47.5145   56.5437 O   0  0  0  0  0  0  0  0  0  0  0  0
   69.6005   47.3545   57.1507 O   0  0  0  0  0  0  0  0  0  0  0  0
   68.9618   47.4540   54.5461 C   0  0  0  0  0  0  0  0  0  0  0  0
   69.7797   48.5764   54.4177 C   0  0  0  0  0  0  0  0  0  0  0  0
   70.1182   49.0690   53.2026 C   0  0  0  0  0  0  0  0  0  0  0  0
   69.6443   48.4461   52.0557 C   0  0  0  0  0  0  0  0  0  0  0  0
   68.8442   47.3491   52.1463 C   0  0  0  0  0  0  0  0  0  0  0  0
   68.3440   46.6898   51.0215 O   0  0  0  0  0  0  0  0  0  0  0  0
   68.5058   46.8576   53.4088 C   0  0  0  0  0  0  0  0  0  0  0  0
   67.6496   45.7794   53.4041 F   0  0  0  0  0  0  0  0  0  0  0  0
  1  2  2  0
  2  3  1  0
  2  4  1  0
  3 17  1  0
 17 18  1  0
 18 19  2  0
 18 20  2  0
 18 21  1  0
 21 22  2  0
 21 27  1  0
 22 23  1  0
 23 24  2  0
 24 25  1  0
 25 26  1  0
 25 27  2  0
 27 28  1  0
  4  5  2  0
  4 10  1  0
  5  6  1  0
  6  7  1  0
  6  8  2  0
  8  9  1  0
  9 11  1  0
  9 10  2  0
 11 12  2  0
 11 16  1  0
 12 13  1  0
 13 14  2  0
 14 15  1  0
 15 16  2  0
M  END
>  <minimizedAffinity>  (510) 
-9.64258

$$$$
data/reference_output_2/data/smiles/131494.pdb
     RDKit          3D

 27 29  0  0  0  0  0  0  0  0999 V2000
   69.2235   49.1663   54.1614 N   0  0  0  0  0  0  0  0  0  0  0  0
   68.9136   47.8472   54.1278 C   0  0  0  0  0  0  0  0  0  0  0  0
   68.4138   47.1459   55.2194 C   0  0  0  0  0  0  0  0  0  0  0  0
   68.2537   47.8993   56.3414 C   0  0  0  0  0  0  0  0  0  0  0  0
   67.8038   47.4110   57.4239 O   0  0  0  0  0  0  0  0  0  0  0  0
   68.5655   49.2723   56.3869 C   0  0  0  0  0  0  0  0  0  0  0  0
   68.3811   50.0163   57.5318 C   0  0  0  0  0  0  0  0  0  0  0  0
   68.6850   51.3739   57.5406 C   0  0  0  0  0  0  0  0  0  0  0  0
   69.1874   52.0212   56.4089 C   0  0  0  0  0  0  0  0  0  0  0  0
   69.4894   53.4807   56.4286 C   0  0  0  0  0  0  0  0  0  0  0  0
   69.3414   51.2335   55.3393 N   0  0  0  0  0  0  0  0  0  0  0  0
   69.0554   49.9221   55.2907 C   0  0  0  0  0  0  0  0  0  0  0  0
   68.3017   45.7095   55.1958 C   0  0  0  0  0  0  0  0  0  0  0  0
   67.9559   45.2250   54.0002 O   0  0  0  0  0  0  0  0  0  0  0  0
   68.4676   44.7074   56.0804 N   0  0  0  0  0  0  0  0  0  0  0  0
   68.5004   43.4577   56.5289 N   0  0  0  0  0  0  0  0  0  0  0  0
   69.6335   42.9489   57.3209 C   0  0  0  0  0  0  0  0  0  0  0  0
   70.5327   43.8025   57.5364 O   0  0  0  0  0  0  0  0  0  0  0  0
   69.7606   41.6229   57.8080 C   0  0  0  0  0  0  0  0  0  0  0  0
   68.7088   40.7013   57.7800 C   0  0  0  0  0  0  0  0  0  0  0  0
   68.9071   39.3698   58.2068 C   0  0  0  0  0  0  0  0  0  0  0  0
   70.1408   38.9586   58.6530 C   0  0  0  0  0  0  0  0  0  0  0  0
   70.3810   37.2904   59.2230 Cl  0  0  0  0  0  0  0  0  0  0  0  0
   71.2004   39.8523   58.6942 C   0  0  0  0  0  0  0  0  0  0  0  0
   70.9633   41.1614   58.2666 C   0  0  0  0  0  0  0  0  0  0  0  0
   70.0476   48.7589   51.9528 C   0  0  0  0  0  0  0  0  0  0  0  0
   69.7893   49.7922   53.0032 C   0  0  0  0  0  0  0  0  0  0  0  0
 26 27  1  0
 27  1  1  0
  1  2  1  0
  1 12  1  0
  2  3  2  0
  3 13  1  0
  3  4  1  0
 13 14  2  0
 13 15  1  0
 15 16  1  0
 16 17  1  0
 17 18  2  0
 17 19  1  0
 19 20  2  0
 19 25  1  0
 20 21  1  0
 21 22  2  0
 22 23  1  0
 22 24  1  0
 24 25  2  0
  4  5  2  0
  4  6  1  0
  6  7  1  0
  6 12  2  0
  7  8  2  0
  8  9  1  0
  9 10  1  0
  9 11  2  0
 11 12  1  0
M  END
>  <minimizedAffinity>  (511) 
-8.68939

$$$$
data/reference_output_2/data/smiles/131523.pdb
     RDKit          3D

 21 22  0  0  0  0  0  0  0  0999 V2000
   67.8897   44.0446   55.3465 N   0  0  0  0  0  0  0  0  0  0  0  0
   68.1848   45.4168   55.1731 C   0  0  0  0  0  0  0  0  0  0  0  0
   68.3082   46.1357   56.1981 O   0  0  0  0  0  0  0  0  0  0  0  0
   68.3516   46.0320   53.8668 C   0  0  0  0  0  0  0  0  0  0  0  0
   67.6056   45.5505   52.7835 C   0  0  0  0  0  0  0  0  0  0  0  0
   67.7298   46.1008   51.5291 C   0  0  0  0  0  0  0  0  0  0  0  0
   68.5846   47.1470   51.2624 C   0  0  0  0  0  0  0  0  0  0  0  0
   69.3207   47.6251   52.3222 C   0  0  0  0  0  0  0  0  0  0  0  0
   69.2022   47.0776   53.5877 C   0  0  0  0  0  0  0  0  0  0  0  0
   70.2129   48.7033   52.0894 N   0  0  0  0  0  0  0  0  0  0  0  0
   70.0391   49.4023   51.0738 O   0  0  0  0  0  0  0  0  0  0  0  0
   71.2457   49.0254   52.9040 O   0  0  0  0  0  0  0  0  0  0  0  0
   67.7343   43.4471   56.5464 O   0  0  0  0  0  0  0  0  0  0  0  0
   67.3980   42.1235   56.5025 C   0  0  0  0  0  0  0  0  0  0  0  0
   71.2860   38.8079   59.2158 C   0  0  0  0  0  0  0  0  0  0  0  0
   70.3027   39.6868   58.5168 C   0  0  0  0  0  0  0  0  0  0  0  0
   70.5632   41.0149   58.2570 C   0  0  0  0  0  0  0  0  0  0  0  0
   69.6280   41.7941   57.6078 C   0  0  0  0  0  0  0  0  0  0  0  0
   68.4071   41.3048   57.1891 C   0  0  0  0  0  0  0  0  0  0  0  0
   68.1551   39.9607   57.4569 C   0  0  0  0  0  0  0  0  0  0  0  0
   69.0889   39.1798   58.1059 C   0  0  0  0  0  0  0  0  0  0  0  0
 15 16  1  0
 16 17  2  0
 16 21  1  0
 17 18  1  0
 18 19  2  0
 19 14  1  0
 19 20  1  0
 14 13  1  0
 13  1  1  0
  1  2  1  0
  2  3  2  0
  2  4  1  0
  4  5  2  0
  4  9  1  0
  5  6  1  0
  6  7  2  0
  7  8  1  0
  8 10  1  0
  8  9  2  0
 10 11  2  0
 10 12  1  0
 20 21  2  0
M  CHG  2  10   1  12  -1
M  END
>  <minimizedAffinity>  (512) 
-9.05141

$$$$
data/reference_output_2/data/smiles/131578.pdb
     RDKit          3D

 24 26  0  0  0  0  0  0  0  0999 V2000
   69.3708   47.5715   56.1422 N   0  0  0  0  0  0  0  0  0  0  0  0
   69.9508   48.5414   55.4607 N   0  0  0  0  0  0  0  0  0  0  0  0
   69.8867   48.6370   54.0924 C   0  0  0  0  0  0  0  0  0  0  0  0
   69.1795   47.6630   53.4439 C   0  0  0  0  0  0  0  0  0  0  0  0
   69.0627   47.6767   52.0851 C   0  0  0  0  0  0  0  0  0  0  0  0
   68.3252   46.6512   51.4749 C   0  0  0  0  0  0  0  0  0  0  0  0
   67.7230   45.6438   52.1932 C   0  0  0  0  0  0  0  0  0  0  0  0
   67.8377   45.6228   53.5741 C   0  0  0  0  0  0  0  0  0  0  0  0
   68.5545   46.6222   54.1511 C   0  0  0  0  0  0  0  0  0  0  0  0
   68.6737   46.6076   55.5266 C   0  0  0  0  0  0  0  0  0  0  0  0
   68.1736   45.7480   56.2850 O   0  0  0  0  0  0  0  0  0  0  0  0
   70.5635   49.7480   53.4365 C   0  0  0  0  0  0  0  0  0  0  0  0
   71.8347   49.8666   53.5779 O   0  0  0  0  0  0  0  0  0  0  0  0
   70.0192   50.7311   52.6549 O   0  0  0  0  0  0  0  0  0  0  0  0
   69.5053   47.5752   57.5481 C   0  0  0  0  0  0  0  0  0  0  0  0
   70.6627   46.8618   58.1415 C   0  0  0  0  0  0  0  0  0  0  0  0
   70.3920   45.5172   58.4611 O   0  0  0  0  0  0  0  0  0  0  0  0
   74.9618   43.8440   58.4054 C   0  0  0  0  0  0  0  0  0  0  0  0
   73.5003   43.6124   58.1961 C   0  0  0  0  0  0  0  0  0  0  0  0
   73.0540   42.3748   57.7851 C   0  0  0  0  0  0  0  0  0  0  0  0
   71.6818   42.1934   57.5983 C   0  0  0  0  0  0  0  0  0  0  0  0
   70.7884   43.2099   57.8146 C   0  0  0  0  0  0  0  0  0  0  0  0
   71.2191   44.4474   58.2233 C   0  0  0  0  0  0  0  0  0  0  0  0
   72.5849   44.6034   58.4020 C   0  0  0  0  0  0  0  0  0  0  0  0
 18 19  1  0
 19 20  2  0
 19 24  1  0
 20 21  1  0
 21 22  2  0
 22 23  1  0
 23 17  1  0
 23 24  2  0
 17 16  1  0
 16 15  1  0
 15  1  1  0
  1  2  1  0
  1 10  1  0
  2  3  2  0
  3 12  1  0
  3  4  1  0
 12 13  2  0
 12 14  1  0
  4  5  2  0
  4  9  1  0
  5  6  1  0
  6  7  2  0
  7  8  1  0
  8  9  2  0
  9 10  1  0
 10 11  2  0
M  END
>  <minimizedAffinity>  (513) 
-8.57067

$$$$
data/reference_output_2/data/smiles/131664.pdb
     RDKit          3D

 22 23  0  0  0  0  0  0  0  0999 V2000
   67.3239   42.8311   56.0814 N   0  0  0  0  0  0  0  0  0  0  0  0
   68.0023   43.8507   55.6757 C   0  0  0  0  0  0  0  0  0  0  0  0
   67.7651   40.1558   55.6786 O   0  0  0  0  0  0  0  0  0  0  0  0
   67.9975   40.5794   56.8563 C   0  0  0  0  0  0  0  0  0  0  0  0
   67.7742   41.9492   57.0716 N   0  0  0  0  0  0  0  0  0  0  0  0
   68.4640   39.6360   57.8591 C   0  0  0  0  0  0  0  0  0  0  0  0
   67.5604   38.9392   58.6319 C   0  0  0  0  0  0  0  0  0  0  0  0
   67.9560   38.0283   59.6023 C   0  0  0  0  0  0  0  0  0  0  0  0
   69.2719   37.8206   59.7925 N   0  0  0  0  0  0  0  0  0  0  0  0
   70.1872   38.4790   59.0616 C   0  0  0  0  0  0  0  0  0  0  0  0
   69.8003   39.3997   58.0802 C   0  0  0  0  0  0  0  0  0  0  0  0
   67.4758   44.6945   54.6694 N   0  0  0  0  0  0  0  0  0  0  0  0
   68.1772   45.8022   54.1368 C   0  0  0  0  0  0  0  0  0  0  0  0
   68.5155   46.8463   55.0049 C   0  0  0  0  0  0  0  0  0  0  0  0
   69.1955   47.9344   54.5206 C   0  0  0  0  0  0  0  0  0  0  0  0
   69.5546   48.0313   53.2063 C   0  0  0  0  0  0  0  0  0  0  0  0
   69.2266   47.0130   52.3535 C   0  0  0  0  0  0  0  0  0  0  0  0
   69.5985   47.1216   51.0116 O   0  0  0  0  0  0  0  0  0  0  0  0
   68.5401   45.9007   52.8128 C   0  0  0  0  0  0  0  0  0  0  0  0
   70.2855   49.2148   52.7166 C   0  0  0  0  0  0  0  0  0  0  0  0
   71.4121   49.5219   53.1843 O   0  0  0  0  0  0  0  0  0  0  0  0
   69.7559   50.0187   51.7327 O   0  0  0  0  0  0  0  0  0  0  0  0
  3  4  2  0
  4  5  1  0
  4  6  1  0
  5  1  1  0
  1  2  2  0
  2 12  1  0
 12 13  1  0
 13 14  2  0
 13 19  1  0
 14 15  1  0
 15 16  2  0
 16 20  1  0
 16 17  1  0
 20 21  2  0
 20 22  1  0
 17 18  1  0
 17 19  2  0
  6  7  2  0
  6 11  1  0
  7  8  1  0
  8  9  2  0
  9 10  1  0
 10 11  2  0
M  END
>  <minimizedAffinity>  (514) 
-8.63308

$$$$
data/reference_output_2/data/smiles/131751.pdb
     RDKit          3D

 29 33  0  0  0  0  0  0  0  0999 V2000
   71.4937   37.3568   58.3060 N   0  0  0  0  0  0  0  0  0  0  0  0
   72.3679   36.8926   57.4449 N   0  0  0  0  0  0  0  0  0  0  0  0
   72.8073   35.6108   57.3718 C   0  0  0  0  0  0  0  0  0  0  0  0
   72.2906   34.7455   58.2772 C   0  0  0  0  0  0  0  0  0  0  0  0
   71.3610   35.2069   59.2010 C   0  0  0  0  0  0  0  0  0  0  0  0
   70.9612   36.5248   59.2141 C   0  0  0  0  0  0  0  0  0  0  0  0
   70.1280   36.9922   60.0245 O   0  0  0  0  0  0  0  0  0  0  0  0
   73.8353   35.3635   56.3883 C   0  0  0  0  0  0  0  0  0  0  0  0
   75.1507   35.2233   56.8477 C   0  0  0  0  0  0  0  0  0  0  0  0
   76.1980   35.0037   55.9818 C   0  0  0  0  0  0  0  0  0  0  0  0
   75.9735   34.9160   54.6152 C   0  0  0  0  0  0  0  0  0  0  0  0
   74.7002   35.0562   54.1723 C   0  0  0  0  0  0  0  0  0  0  0  0
   74.5891   34.9895   52.8250 C   0  0  0  0  0  0  0  0  0  0  0  0
   73.3286   35.1581   52.2635 C   0  0  0  0  0  0  0  0  0  0  0  0
   72.2479   35.3856   53.0799 C   0  0  0  0  0  0  0  0  0  0  0  0
   72.3803   35.4499   54.4625 C   0  0  0  0  0  0  0  0  0  0  0  0
   73.6172   35.2813   55.0457 C   0  0  0  0  0  0  0  0  0  0  0  0
   75.9299   34.7381   52.2717 C   0  0  0  0  0  0  0  0  0  0  0  0
   76.8560   34.6918   53.4538 C   0  0  0  0  0  0  0  0  0  0  0  0
   70.2949   41.4463   58.3475 C   0  0  0  0  0  0  0  0  0  0  0  0
   71.6088   41.0749   58.5374 C   0  0  0  0  0  0  0  0  0  0  0  0
   71.9886   39.7474   58.5216 C   0  0  0  0  0  0  0  0  0  0  0  0
   71.0792   38.7286   58.3179 C   0  0  0  0  0  0  0  0  0  0  0  0
   69.7679   39.1138   58.1291 C   0  0  0  0  0  0  0  0  0  0  0  0
   69.3794   40.4368   58.1428 C   0  0  0  0  0  0  0  0  0  0  0  0
   69.1971   43.5210   59.9575 N   0  0  0  0  0  0  0  0  0  0  0  0
   69.7982   43.1343   58.3644 S   0  0  0  0  0  0  0  0  0  0  0  0
   71.0366   43.9491   58.1186 O   0  0  0  0  0  0  0  0  0  0  0  0
   68.7488   43.3725   57.3221 O   0  0  0  0  0  0  0  0  0  0  0  0
 26 27  1  0
 27 28  2  0
 27 29  2  0
 27 20  1  0
 20 21  2  0
 20 25  1  0
 21 22  1  0
 22 23  2  0
 23  1  1  0
 23 24  1  0
  1  2  1  0
  1  6  1  0
  2  3  2  0
  3  8  1  0
  3  4  1  0
  8  9  2  0
  8 17  1  0
  9 10  1  0
 10 11  2  0
 11 12  1  0
 11 19  1  0
 12 13  1  0
 12 17  2  0
 13 14  2  0
 13 18  1  0
 14 15  1  0
 15 16  2  0
 16 17  1  0
 18 19  1  0
  4  5  2  0
  5  6  1  0
  6  7  2  0
 24 25  2  0
M  END
>  <minimizedAffinity>  (515) 
-8.78514

$$$$
data/reference_output_2/data/smiles/131885.pdb
     RDKit          3D

 23 25  0  0  0  0  0  0  0  0999 V2000
   68.2997   47.0672   56.0907 C   0  0  0  0  0  0  0  0  0  0  0  0
   68.4060   46.8957   54.6159 C   0  0  0  0  0  0  0  0  0  0  0  0
   67.6868   45.9338   53.9358 C   0  0  0  0  0  0  0  0  0  0  0  0
   67.8108   45.8020   52.5660 C   0  0  0  0  0  0  0  0  0  0  0  0
   67.1042   44.8604   51.9161 F   0  0  0  0  0  0  0  0  0  0  0  0
   68.6637   46.6352   51.8390 C   0  0  0  0  0  0  0  0  0  0  0  0
   69.3813   47.5953   52.5092 C   0  0  0  0  0  0  0  0  0  0  0  0
   69.2381   47.7030   53.8731 C   0  0  0  0  0  0  0  0  0  0  0  0
   69.9802   48.6832   54.5009 O   0  0  0  0  0  0  0  0  0  0  0  0
   70.6402   49.6438   53.6999 C   0  0  0  0  0  0  0  0  0  0  0  0
   71.1844   49.1563   52.5428 O   0  0  0  0  0  0  0  0  0  0  0  0
   70.2860   48.4755   51.7297 C   0  0  0  0  0  0  0  0  0  0  0  0
   68.6439   44.5500   56.3372 N   0  0  0  0  0  0  0  0  0  0  0  0
   68.9042   45.8735   56.7280 C   0  0  0  0  0  0  0  0  0  0  0  0
   69.7266   45.9890   57.7047 O   0  0  0  0  0  0  0  0  0  0  0  0
   68.7933   42.1021   56.9873 C   0  0  0  0  0  0  0  0  0  0  0  0
   69.4864   41.1884   57.6555 C   0  0  0  0  0  0  0  0  0  0  0  0
   70.6367   41.5589   58.3417 C   0  0  0  0  0  0  0  0  0  0  0  0
   70.6562   43.3469   57.9513 S   0  0  0  0  0  0  0  0  0  0  0  0
   69.2898   43.4045   57.0248 C   0  0  0  0  0  0  0  0  0  0  0  0
   67.5005   40.6064   55.4625 N   0  0  0  0  0  0  0  0  0  0  0  0
   67.5543   41.7843   56.2263 C   0  0  0  0  0  0  0  0  0  0  0  0
   66.5863   42.5500   56.2683 O   0  0  0  0  0  0  0  0  0  0  0  0
 21 22  1  0
 22 23  2  0
 22 16  1  0
 16 17  1  0
 16 20  2  0
 17 18  2  0
 18 19  1  0
 19 20  1  0
 20 13  1  0
 13 14  1  0
 14 15  2  0
 14  1  1  0
  1  2  1  0
  2  3  2  0
  2  8  1  0
  3  4  1  0
  4  5  1  0
  4  6  2  0
  6  7  1  0
  7  8  2  0
  7 12  1  0
  8  9  1  0
  9 10  1  0
 10 11  1  0
 11 12  1  0
M  END
>  <minimizedAffinity>  (516) 
-8.61738

$$$$
data/reference_output_2/data/smiles/131962.pdb
     RDKit          3D

 29 31  0  0  0  0  0  0  0  0999 V2000
   69.7873   45.7074   57.6343 C   0  0  0  0  0  0  0  0  0  0  0  0
   70.0357   45.7281   58.8678 O   0  0  0  0  0  0  0  0  0  0  0  0
   69.4110   44.4679   57.0902 N   0  0  0  0  0  0  0  0  0  0  0  0
   69.3362   43.3571   57.9316 N   0  0  0  0  0  0  0  0  0  0  0  0
   68.7233   42.1650   57.5016 C   0  0  0  0  0  0  0  0  0  0  0  0
   68.2670   42.2303   56.2973 O   0  0  0  0  0  0  0  0  0  0  0  0
   68.5720   40.9380   58.2613 C   0  0  0  0  0  0  0  0  0  0  0  0
   69.6656   40.0698   58.2864 C   0  0  0  0  0  0  0  0  0  0  0  0
   69.6536   38.8748   58.9693 C   0  0  0  0  0  0  0  0  0  0  0  0
   70.7483   38.0342   58.9771 C   0  0  0  0  0  0  0  0  0  0  0  0
   70.7025   36.8572   59.6645 C   0  0  0  0  0  0  0  0  0  0  0  0
   69.5808   36.4700   60.3643 C   0  0  0  0  0  0  0  0  0  0  0  0
   68.4968   37.2920   60.3615 C   0  0  0  0  0  0  0  0  0  0  0  0
   68.5271   38.4881   59.6699 C   0  0  0  0  0  0  0  0  0  0  0  0
   67.4506   39.3155   59.6611 C   0  0  0  0  0  0  0  0  0  0  0  0
   67.4898   40.5251   58.9588 C   0  0  0  0  0  0  0  0  0  0  0  0
   66.3654   41.2846   59.0086 O   0  0  0  0  0  0  0  0  0  0  0  0
   69.9008   46.9489   56.8483 C   0  0  0  0  0  0  0  0  0  0  0  0
   68.6240   47.3142   56.1577 C   0  0  2  0  0  0  0  0  0  0  0  0
   68.6374   47.1361   54.6891 C   0  0  0  0  0  0  0  0  0  0  0  0
   69.3073   48.0012   53.8427 C   0  0  0  0  0  0  0  0  0  0  0  0
   69.3093   47.8525   52.4748 C   0  0  0  0  0  0  0  0  0  0  0  0
   68.6106   46.7897   51.8860 C   0  0  0  0  0  0  0  0  0  0  0  0
   67.9321   45.9106   52.7014 C   0  0  0  0  0  0  0  0  0  0  0  0
   67.9632   46.1061   54.0686 C   0  0  0  0  0  0  0  0  0  0  0  0
   66.8004   50.3549   57.7899 C   0  0  0  0  0  0  0  0  0  0  0  0
   67.2073   48.9710   57.4274 C   0  0  0  0  0  0  0  0  0  0  0  0
   66.6249   47.9793   57.9560 O   0  0  0  0  0  0  0  0  0  0  0  0
   68.2413   48.6978   56.4975 N   0  0  0  0  0  0  0  0  0  0  0  0
 26 27  1  0
 27 28  2  0
 27 29  1  0
 29 19  1  0
 19 18  1  6
 19 20  1  0
 18  1  1  0
  1  2  2  0
  1  3  1  0
  3  4  1  0
  4  5  1  0
  5  6  2  0
  5  7  1  0
  7  8  2  0
  7 16  1  0
  8  9  1  0
  9 10  2  0
  9 14  1  0
 10 11  1  0
 11 12  2  0
 12 13  1  0
 13 14  2  0
 14 15  1  0
 15 16  2  0
 16 17  1  0
 20 21  2  0
 20 25  1  0
 21 22  1  0
 22 23  2  0
 23 24  1  0
 24 25  2  0
M  END
>  <minimizedAffinity>  (517) 
-9.00548

$$$$
data/reference_output_2/data/smiles/132021.pdb
     RDKit          3D

 25 26  0  0  0  0  0  0  0  0999 V2000
   70.2632   46.4703   57.9206 C   0  0  0  0  0  0  0  0  0  0  0  0
   70.8742   47.9591   58.4638 S   0  0  0  0  0  0  0  0  0  0  0  0
   70.0112   46.4772   56.5372 N   0  0  0  0  0  0  0  0  0  0  0  0
   68.8357   46.7474   55.8267 C   0  0  0  0  0  0  0  0  0  0  0  0
   67.8264   47.0196   56.5245 O   0  0  0  0  0  0  0  0  0  0  0  0
   68.6945   46.7319   54.3621 C   0  0  0  0  0  0  0  0  0  0  0  0
   67.9133   45.7348   53.7661 C   0  0  0  0  0  0  0  0  0  0  0  0
   67.7070   45.7179   52.3845 C   0  0  0  0  0  0  0  0  0  0  0  0
   68.2546   46.6721   51.5722 C   0  0  0  0  0  0  0  0  0  0  0  0
   69.0132   47.6404   52.1457 C   0  0  0  0  0  0  0  0  0  0  0  0
   69.2430   47.6793   53.5558 C   0  0  0  0  0  0  0  0  0  0  0  0
   70.0537   48.7411   53.9921 N   0  0  0  0  0  0  0  0  0  0  0  0
   71.0849   49.0284   53.2954 O   0  0  0  0  0  0  0  0  0  0  0  0
   69.8468   49.4997   55.0724 O   0  0  0  0  0  0  0  0  0  0  0  0
   70.1354   45.5113   58.8883 N   0  0  0  0  0  0  0  0  0  0  0  0
   71.1800   43.4470   57.3553 O   0  0  0  0  0  0  0  0  0  0  0  0
   70.1817   43.1451   58.0916 C   0  0  0  0  0  0  0  0  0  0  0  0
   69.6588   44.2146   58.8649 N   0  0  0  0  0  0  0  0  0  0  0  0
   69.6842   41.7798   58.0798 C   0  0  0  0  0  0  0  0  0  0  0  0
   70.3140   40.8239   58.8863 C   0  0  0  0  0  0  0  0  0  0  0  0
   69.8303   39.5399   58.8986 C   0  0  0  0  0  0  0  0  0  0  0  0
   68.7205   39.2118   58.1063 C   0  0  0  0  0  0  0  0  0  0  0  0
   68.0854   40.1209   57.3099 C   0  0  0  0  0  0  0  0  0  0  0  0
   68.6009   41.4333   57.3133 C   0  0  0  0  0  0  0  0  0  0  0  0
   67.8678   42.6689   56.3265 Cl  0  0  0  0  0  0  0  0  0  0  0  0
 16 17  2  0
 17 18  1  0
 17 19  1  0
 18 15  1  0
 15  1  1  0
  1  2  2  0
  1  3  1  0
  3  4  1  0
  4  5  2  0
  4  6  1  0
  6  7  2  0
  6 11  1  0
  7  8  1  0
  8  9  2  0
  9 10  1  0
 10 11  2  0
 11 12  1  0
 12 13  2  0
 12 14  1  0
 19 20  2  0
 19 24  1  0
 20 21  1  0
 21 22  2  0
 22 23  1  0
 23 24  2  0
 24 25  1  0
M  CHG  2  12   1  14  -1
M  END
>  <minimizedAffinity>  (518) 
-8.58359

$$$$
data/reference_output_2/data/smiles/132155.pdb
     RDKit          3D

 29 32  0  0  0  0  0  0  0  0999 V2000
   68.9790   44.2410   56.6784 C   0  0  0  0  0  0  0  0  0  0  0  0
   67.9185   43.9011   55.8563 N   0  0  0  0  0  0  0  0  0  0  0  0
   67.6690   42.6233   55.9507 N   0  0  0  0  0  0  0  0  0  0  0  0
   68.5362   42.0483   56.8284 C   0  0  0  0  0  0  0  0  0  0  0  0
   69.3543   43.0523   57.2824 C   0  0  0  0  0  0  0  0  0  0  0  0
   70.4346   42.7343   58.2232 C   0  0  0  0  0  0  0  0  0  0  0  0
   70.3504   41.4670   58.9759 C   0  0  0  0  0  0  0  0  0  0  0  0
   69.6948   40.3748   58.2850 N   0  0  0  0  0  0  0  0  0  0  0  0
   68.6988   40.6952   57.3227 C   0  0  0  0  0  0  0  0  0  0  0  0
   67.9271   39.7833   56.8772 O   0  0  0  0  0  0  0  0  0  0  0  0
   69.4964   45.5547   56.7808 N   0  0  0  0  0  0  0  0  0  0  0  0
   68.9515   46.9880   56.0857 S   0  0  0  0  0  0  0  0  0  0  0  0
   69.7086   48.1838   56.5982 O   0  0  0  0  0  0  0  0  0  0  0  0
   67.5063   47.2197   56.6146 O   0  0  0  0  0  0  0  0  0  0  0  0
   67.1510   45.1488   51.5016 C   0  0  0  0  0  0  0  0  0  0  0  0
   67.9872   46.1358   52.2629 C   0  0  0  0  0  0  0  0  0  0  0  0
   68.7028   47.0890   51.5799 C   0  0  0  0  0  0  0  0  0  0  0  0
   69.4651   47.9891   52.2734 C   0  0  0  0  0  0  0  0  0  0  0  0
   69.5178   47.9421   53.6512 C   0  0  0  0  0  0  0  0  0  0  0  0
   70.2974   48.8672   54.2957 F   0  0  0  0  0  0  0  0  0  0  0  0
   68.8105   46.9968   54.3645 C   0  0  0  0  0  0  0  0  0  0  0  0
   68.0497   46.1001   53.6471 C   0  0  0  0  0  0  0  0  0  0  0  0
   70.0828   39.0315   58.6383 C   0  0  0  0  0  0  0  0  0  0  0  0
   71.4683   38.6388   58.3104 C   0  0  0  0  0  0  0  0  0  0  0  0
   72.5683   39.1878   59.1419 C   0  0  0  0  0  0  0  0  0  0  0  0
   72.6651   38.5194   60.5038 C   0  0  0  0  0  0  0  0  0  0  0  0
   71.5852   37.5688   60.5956 N   0  0  0  0  0  0  0  0  0  0  0  0
   71.6791   36.5285   59.6130 C   0  0  0  0  0  0  0  0  0  0  0  0
   71.5068   37.1163   58.2391 C   0  0  0  0  0  0  0  0  0  0  0  0
 15 16  1  0
 16 17  2  0
 16 22  1  0
 17 18  1  0
 18 19  2  0
 19 20  1  0
 19 21  1  0
 21 12  1  0
 21 22  2  0
 12 13  2  0
 12 14  2  0
 12 11  1  0
 11  1  1  0
  1  2  2  0
  1  5  1  0
  2  3  1  0
  3  4  1  0
  4  5  2  0
  4  9  1  0
  5  6  1  0
  6  7  1  0
  7  8  1  0
  8 23  1  0
  8  9  1  0
 23 24  1  0
 24 25  1  0
 24 29  1  0
 25 26  1  0
 26 27  1  0
 27 28  1  0
 28 29  1  0
  9 10  2  0
M  CHG  1  27   1
M  END
>  <minimizedAffinity>  (519) 
-9.03905

$$$$
data/reference_output_2/data/smiles/132268.pdb
     RDKit          3D

 22 23  0  0  0  0  0  0  0  0999 V2000
   69.5651   45.9144   56.6325 N   0  0  0  0  0  0  0  0  0  0  0  0
   68.7014   46.6495   56.0585 C   0  0  0  0  0  0  0  0  0  0  0  0
   67.7957   47.4006   56.8169 N   0  0  0  0  0  0  0  0  0  0  0  0
   68.6528   46.7116   54.6164 C   0  0  0  0  0  0  0  0  0  0  0  0
   67.9159   45.7890   53.8611 C   0  0  0  0  0  0  0  0  0  0  0  0
   67.8788   45.8609   52.4841 C   0  0  0  0  0  0  0  0  0  0  0  0
   68.5622   46.8385   51.7941 C   0  0  0  0  0  0  0  0  0  0  0  0
   69.3080   47.7766   52.5186 C   0  0  0  0  0  0  0  0  0  0  0  0
   69.3241   47.6762   53.8936 C   0  0  0  0  0  0  0  0  0  0  0  0
   70.0156   48.7891   51.8184 N   0  0  0  0  0  0  0  0  0  0  0  0
   70.7014   48.5253   50.8227 O   0  0  0  0  0  0  0  0  0  0  0  0
   69.9496   50.0857   52.2418 O   0  0  0  0  0  0  0  0  0  0  0  0
   69.6472   45.8251   58.0009 O   0  0  0  0  0  0  0  0  0  0  0  0
   70.1632   44.7317   58.6719 C   0  0  0  0  0  0  0  0  0  0  0  0
   69.4986   44.2395   59.6036 O   0  0  0  0  0  0  0  0  0  0  0  0
   70.3040   42.0966   57.6742 C   0  0  0  0  0  0  0  0  0  0  0  0
   71.5282   42.9191   57.7823 C   0  0  0  0  0  0  0  0  0  0  0  0
   72.7507   42.3881   57.3903 C   0  0  0  0  0  0  0  0  0  0  0  0
   73.8885   43.1540   57.4912 C   0  0  0  0  0  0  0  0  0  0  0  0
   73.8209   44.4418   57.9778 C   0  0  0  0  0  0  0  0  0  0  0  0
   72.6154   44.9715   58.3665 C   0  0  0  0  0  0  0  0  0  0  0  0
   71.4488   44.2021   58.2691 C   0  0  0  0  0  0  0  0  0  0  0  0
 16 17  1  0
 17 18  2  0
 17 22  1  0
 18 19  1  0
 19 20  2  0
 20 21  1  0
 21 22  2  0
 22 14  1  0
 14 15  2  0
 14 13  1  0
 13  1  1  0
  1  2  2  0
  2  3  1  0
  2  4  1  0
  4  5  2  0
  4  9  1  0
  5  6  1  0
  6  7  2  0
  7  8  1  0
  8 10  1  0
  8  9  2  0
 10 11  2  0
 10 12  1  0
M  CHG  3   1   1  10   1  12  -1
M  END
>  <minimizedAffinity>  (520) 
-9.15339

$$$$
data/reference_output_2/data/smiles/132390.pdb
     RDKit          3D

 30 33  0  0  0  0  0  0  0  0999 V2000
   69.8059   50.1388   56.3213 N   0  0  0  0  0  0  0  0  0  0  0  0
   68.8103   50.7823   57.1245 C   0  0  0  0  0  0  0  0  0  0  0  0
   69.4182   50.8045   58.5238 C   0  0  0  0  0  0  0  0  0  0  0  0
   70.8586   50.6283   58.4132 C   0  0  2  0  0  0  0  0  0  0  0  0
   71.0777   50.4410   56.9103 C   0  0  0  0  0  0  0  0  0  0  0  0
   69.1031   47.8487   52.8918 C   0  0  0  0  0  0  0  0  0  0  0  0
   69.4810   49.1594   52.7950 C   0  0  0  0  0  0  0  0  0  0  0  0
   69.7261   49.9360   53.8890 C   0  0  0  0  0  0  0  0  0  0  0  0
   69.5842   49.3686   55.1647 C   0  0  0  0  0  0  0  0  0  0  0  0
   69.2011   48.0347   55.3195 C   0  0  0  0  0  0  0  0  0  0  0  0
   69.0596   47.4434   56.5592 C   0  0  0  0  0  0  0  0  0  0  0  0
   68.6916   46.1520   56.6505 N   0  0  0  0  0  0  0  0  0  0  0  0
   68.4712   45.4634   55.5268 C   0  0  0  0  0  0  0  0  0  0  0  0
   68.5988   46.0005   54.3050 N   0  0  0  0  0  0  0  0  0  0  0  0
   68.9674   47.2990   54.1598 C   0  0  0  0  0  0  0  0  0  0  0  0
   67.6099   46.3177   51.5684 N   0  0  0  0  0  0  0  0  0  0  0  0
   68.8382   47.0071   51.7319 C   0  0  0  0  0  0  0  0  0  0  0  0
   69.7029   46.8640   50.8312 O   0  0  0  0  0  0  0  0  0  0  0  0
   71.6426   49.6665   59.1919 C   0  0  0  0  0  0  0  0  0  0  0  0
   71.9197   48.3507   58.7833 N   0  0  0  0  0  0  0  0  0  0  0  0
   71.8876   47.1270   59.4739 C   0  0  0  0  0  0  0  0  0  0  0  0
   71.5838   47.1025   60.6911 O   0  0  0  0  0  0  0  0  0  0  0  0
   72.1947   45.8488   58.8407 C   0  0  0  0  0  0  0  0  0  0  0  0
   73.5258   45.4959   58.6028 C   0  0  0  0  0  0  0  0  0  0  0  0
   73.9217   44.3337   58.0217 C   0  0  0  0  0  0  0  0  0  0  0  0
   72.9640   43.4363   57.6379 C   0  0  0  0  0  0  0  0  0  0  0  0
   73.3716   42.2778   57.0585 F   0  0  0  0  0  0  0  0  0  0  0  0
   71.6327   43.7197   57.8436 C   0  0  0  0  0  0  0  0  0  0  0  0
   70.6757   42.8303   57.4639 F   0  0  0  0  0  0  0  0  0  0  0  0
   71.2656   44.9317   58.4461 C   0  0  0  0  0  0  0  0  0  0  0  0
 16 17  1  0
 17 18  2  0
 17  6  1  0
  6  7  2  0
  6 15  1  0
  7  8  1  0
  8  9  2  0
  9  1  1  0
  9 10  1  0
  1  2  1  0
  1  5  1  0
  2  3  1  0
  3  4  1  0
  4 19  1  1
  4  5  1  0
 19 20  1  0
 20 21  1  0
 21 22  2  0
 21 23  1  0
 23 24  2  0
 23 30  1  0
 24 25  1  0
 25 26  2  0
 26 27  1  0
 26 28  1  0
 28 29  1  0
 28 30  2  0
 10 11  1  0
 10 15  2  0
 11 12  2  0
 12 13  1  0
 13 14  2  0
 14 15  1  0
M  END
>  <minimizedAffinity>  (521) 
-8.75086

$$$$
data/reference_output_2/data/smiles/132550.pdb
     RDKit          3D

 29 32  0  0  0  0  0  0  0  0999 V2000
   70.8749   43.3467   59.0413 C   0  0  0  0  0  0  0  0  0  0  0  0
   72.0137   42.7932   58.2238 C   0  0  0  0  0  0  0  0  0  0  0  0
   72.0097   41.2905   58.4320 C   0  0  0  0  0  0  0  0  0  0  0  0
   70.7539   40.6884   58.1111 N   0  0  0  0  0  0  0  0  0  0  0  0
   69.7365   41.5777   57.6612 C   0  0  0  0  0  0  0  0  0  0  0  0
   69.5765   42.8312   58.4575 C   0  0  0  0  0  0  0  0  0  0  0  0
   71.3864   45.4397   59.9140 O   0  0  0  0  0  0  0  0  0  0  0  0
   70.8101   44.8275   59.0013 C   0  0  0  0  0  0  0  0  0  0  0  0
   70.1391   45.5459   57.9960 N   0  0  0  0  0  0  0  0  0  0  0  0
   70.0070   46.9590   57.8337 C   0  0  0  0  0  0  0  0  0  0  0  0
   68.9610   47.4636   56.8984 C   0  0  1  0  0  0  0  0  0  0  0  0
   69.2497   48.6974   56.1609 C   0  0  0  0  0  0  0  0  0  0  0  0
   69.3818   48.5297   54.7598 O   0  0  0  0  0  0  0  0  0  0  0  0
   68.8301   47.4524   54.0901 C   0  0  0  0  0  0  0  0  0  0  0  0
   68.8126   47.4425   52.7131 C   0  0  0  0  0  0  0  0  0  0  0  0
   68.2575   46.3598   52.0222 C   0  0  0  0  0  0  0  0  0  0  0  0
   67.7349   45.3168   52.7154 C   0  0  0  0  0  0  0  0  0  0  0  0
   67.7581   45.3364   54.1215 C   0  0  0  0  0  0  0  0  0  0  0  0
   68.3008   46.3954   54.7979 C   0  0  0  0  0  0  0  0  0  0  0  0
   68.3283   46.4235   56.1615 O   0  0  0  0  0  0  0  0  0  0  0  0
   70.2333   39.4897   59.1992 S   0  0  0  0  0  0  0  0  0  0  0  0
   70.6379   39.9163   60.5893 O   0  0  0  0  0  0  0  0  0  0  0  0
   68.7503   39.3412   59.2002 O   0  0  0  0  0  0  0  0  0  0  0  0
   70.9481   37.9186   58.8834 C   0  0  0  0  0  0  0  0  0  0  0  0
   71.8329   37.7511   57.8402 C   0  0  0  0  0  0  0  0  0  0  0  0
   72.3884   36.5221   57.5972 C   0  0  0  0  0  0  0  0  0  0  0  0
   72.1117   35.4045   58.3538 C   0  0  0  0  0  0  0  0  0  0  0  0
   71.2226   35.5924   59.3964 C   0  0  0  0  0  0  0  0  0  0  0  0
   70.6541   36.8179   59.6550 C   0  0  0  0  0  0  0  0  0  0  0  0
  7  8  2  0
  8  9  1  0
  8  1  1  0
  9 10  1  0
 11 10  1  6
 11 12  1  0
 11 20  1  0
 12 13  1  0
 13 14  1  0
 14 15  2  0
 14 19  1  0
 15 16  1  0
 16 17  2  0
 17 18  1  0
 18 19  2  0
 19 20  1  0
  1  2  1  0
  1  6  1  0
  2  3  1  0
  3  4  1  0
  4 21  1  0
  4  5  1  0
 21 22  2  0
 21 23  2  0
 21 24  1  0
 24 25  2  0
 24 29  1  0
 25 26  1  0
 26 27  2  0
 27 28  1  0
 28 29  2  0
  5  6  1  0
M  END
>  <minimizedAffinity>  (522) 
-8.85138

$$$$
data/reference_output_2/data/smiles/132678.pdb
     RDKit          3D

 24 26  0  0  0  0  0  0  0  0999 V2000
   68.6188   42.5326   57.2803 C   0  0  0  0  0  0  0  0  0  0  0  0
   69.8099   42.9331   57.5044 O   0  0  0  0  0  0  0  0  0  0  0  0
   67.8569   43.3733   56.4263 N   0  0  0  0  0  0  0  0  0  0  0  0
   67.0754   38.9809   59.0884 C   0  0  0  0  0  0  0  0  0  0  0  0
   66.6502   40.2420   59.4450 C   0  0  0  0  0  0  0  0  0  0  0  0
   67.1562   41.3897   58.8518 C   0  0  0  0  0  0  0  0  0  0  0  0
   68.1148   41.3019   57.8749 C   0  0  0  0  0  0  0  0  0  0  0  0
   68.5477   40.0494   57.5103 C   0  0  0  0  0  0  0  0  0  0  0  0
   68.0387   38.8881   58.1067 C   0  0  0  0  0  0  0  0  0  0  0  0
   67.4087   37.3635   60.8997 C   0  0  0  0  0  0  0  0  0  0  0  0
   66.5115   37.7593   59.7455 C   0  0  0  0  0  0  0  0  0  0  0  0
   65.1642   38.1216   60.3454 C   0  0  0  0  0  0  0  0  0  0  0  0
   68.4013   44.5536   55.8809 N   0  0  0  0  0  0  0  0  0  0  0  0
   67.9178   45.0079   54.7762 C   0  0  0  0  0  0  0  0  0  0  0  0
   68.4402   46.2369   54.1502 C   0  0  0  0  0  0  0  0  0  0  0  0
   68.4730   47.4160   54.8573 C   0  0  0  0  0  0  0  0  0  0  0  0
   68.9645   48.5925   54.2785 C   0  0  0  0  0  0  0  0  0  0  0  0
   69.4271   48.5840   52.9808 C   0  0  0  0  0  0  0  0  0  0  0  0
   69.3993   47.4080   52.2619 C   0  0  0  0  0  0  0  0  0  0  0  0
   68.9062   46.2492   52.8568 C   0  0  0  0  0  0  0  0  0  0  0  0
   69.9053   47.7027   51.0488 N   0  0  0  0  0  0  0  0  0  0  0  0
   70.2175   48.9761   51.0387 O   0  0  0  0  0  0  0  0  0  0  0  0
   69.9460   49.5290   52.1695 N   0  0  0  0  0  0  0  0  0  0  0  0
   70.1484   50.8659   52.5080 O   0  0  0  0  0  0  0  0  0  0  0  0
 10 11  1  0
 11 12  1  0
 11  4  1  0
  4  5  2  0
  4  9  1  0
  5  6  1  0
  6  7  2  0
  7  1  1  0
  7  8  1  0
  1  2  2  0
  1  3  1  0
  3 13  1  0
 13 14  2  0
 14 15  1  0
 15 16  1  0
 15 20  2  0
 16 17  2  0
 17 18  1  0
 18 19  1  0
 18 23  2  0
 19 20  1  0
 19 21  2  0
 21 22  1  0
 22 23  1  0
 23 24  1  0
  8  9  2  0
M  CHG  2  23   1  24  -1
M  END
>  <minimizedAffinity>  (523) 
-9.07188

$$$$
data/reference_output_2/data/smiles/132773.pdb
     RDKit          3D

 29 32  0  0  0  0  0  0  0  0999 V2000
   68.5495   42.5690   56.9060 C   0  0  0  0  0  0  0  0  0  0  0  0
   68.9051   42.1383   58.1588 C   0  0  0  0  0  0  0  0  0  0  0  0
   68.7650   40.8344   58.5841 C   0  0  0  0  0  0  0  0  0  0  0  0
   68.2377   39.9266   57.6936 C   0  0  0  0  0  0  0  0  0  0  0  0
   67.8710   40.3418   56.4252 C   0  0  0  0  0  0  0  0  0  0  0  0
   68.0353   41.6277   56.0733 N   0  0  0  0  0  0  0  0  0  0  0  0
   70.0954   46.9637   57.3651 O   0  0  0  0  0  0  0  0  0  0  0  0
   69.4721   46.1213   56.6789 C   0  0  0  0  0  0  0  0  0  0  0  0
   69.3284   44.8536   57.0999 N   0  0  0  0  0  0  0  0  0  0  0  0
   68.6732   43.9205   56.4026 C   0  0  0  0  0  0  0  0  0  0  0  0
   68.1399   44.2886   55.2280 N   0  0  0  0  0  0  0  0  0  0  0  0
   68.2486   45.5501   54.7472 C   0  0  0  0  0  0  0  0  0  0  0  0
   68.9284   46.5007   55.4782 C   0  0  0  0  0  0  0  0  0  0  0  0
   68.9226   47.8006   54.7670 C   0  0  0  0  0  0  0  0  0  0  0  0
   68.7220   47.3614   53.3234 C   0  0  0  0  0  0  0  0  0  0  0  0
   67.7559   46.1968   53.4976 C   0  0  0  0  0  0  0  0  0  0  0  0
   69.2335   40.3405   60.1943 S   0  0  0  0  0  0  0  0  0  0  0  0
   69.7014   41.5497   60.9514 O   0  0  0  0  0  0  0  0  0  0  0  0
   68.0312   39.7147   60.8670 O   0  0  0  0  0  0  0  0  0  0  0  0
   70.5109   39.1863   60.0812 N   0  0  0  0  0  0  0  0  0  0  0  0
   69.9477   37.9034   59.8700 C   0  0  0  0  0  0  0  0  0  0  0  0
   70.8949   36.8574   59.3666 C   0  0  0  0  0  0  0  0  0  0  0  0
   71.6909   37.4124   58.2065 C   0  0  0  0  0  0  0  0  0  0  0  0
   72.5041   38.5524   58.7826 C   0  0  0  0  0  0  0  0  0  0  0  0
   71.5151   39.6136   59.1775 C   0  0  0  0  0  0  0  0  0  0  0  0
   72.5639   36.3520   57.5821 C   0  0  0  0  0  0  0  0  0  0  0  0
   72.0127   35.1254   57.9404 F   0  0  0  0  0  0  0  0  0  0  0  0
   73.8601   36.4862   57.9838 F   0  0  0  0  0  0  0  0  0  0  0  0
   72.5059   36.4313   56.2200 F   0  0  0  0  0  0  0  0  0  0  0  0
  7  8  2  0
  8  9  1  0
  8 13  1  0
  9 10  1  0
 10  1  1  0
 10 11  2  0
  1  2  2  0
  1  6  1  0
  2  3  1  0
  3 17  1  0
  3  4  2  0
 17 18  2  0
 17 19  2  0
 17 20  1  0
 20 21  1  0
 20 25  1  0
 21 22  1  0
 22 23  1  0
 23 26  1  0
 23 24  1  0
 26 27  1  0
 26 28  1  0
 26 29  1  0
 24 25  1  0
  4  5  1  0
  5  6  2  0
 11 12  1  0
 12 13  2  0
 12 16  1  0
 13 14  1  0
 14 15  1  0
 15 16  1  0
M  END
>  <minimizedAffinity>  (524) 
-8.74475

$$$$
data/reference_output_2/data/smiles/132775.pdb
     RDKit          3D

 27 29  0  0  0  0  0  0  0  0999 V2000
   69.1659   43.8111   57.0231 N   0  0  0  0  0  0  0  0  0  0  0  0
   68.7217   42.5955   57.0213 C   0  0  0  0  0  0  0  0  0  0  0  0
   67.5440   42.1182   56.3145 C   0  0  0  0  0  0  0  0  0  0  0  0
   66.8118   42.8605   55.6097 O   0  0  0  0  0  0  0  0  0  0  0  0
   67.4460   40.7439   56.5965 N   0  0  0  0  0  0  0  0  0  0  0  0
   68.4983   40.3080   57.4488 C   0  0  0  0  0  0  0  0  0  0  0  0
   68.8431   39.0815   58.0049 C   0  0  0  0  0  0  0  0  0  0  0  0
   69.9458   38.9280   58.8199 C   0  0  0  0  0  0  0  0  0  0  0  0
   70.7143   40.0436   59.0760 C   0  0  0  0  0  0  0  0  0  0  0  0
   70.3695   41.2701   58.5199 C   0  0  0  0  0  0  0  0  0  0  0  0
   69.2660   41.4261   57.7030 C   0  0  0  0  0  0  0  0  0  0  0  0
   69.9683   46.5062   57.0731 O   0  0  0  0  0  0  0  0  0  0  0  0
   68.9745   46.1905   56.3694 C   0  0  0  0  0  0  0  0  0  0  0  0
   68.5371   44.8438   56.3167 N   0  0  0  0  0  0  0  0  0  0  0  0
   68.2594   47.2110   55.5998 C   0  0  0  0  0  0  0  0  0  0  0  0
   68.8691   47.5118   54.2980 C   0  0  0  0  0  0  0  0  0  0  0  0
   68.7075   46.7550   53.1699 C   0  0  0  0  0  0  0  0  0  0  0  0
   69.3078   47.0927   51.9796 C   0  0  0  0  0  0  0  0  0  0  0  0
   70.1045   48.2118   51.8604 C   0  0  0  0  0  0  0  0  0  0  0  0
   70.7129   48.5545   50.6581 O   0  0  0  0  0  0  0  0  0  0  0  0
   70.2669   48.9752   53.0054 C   0  0  0  0  0  0  0  0  0  0  0  0
   69.6696   48.6449   54.2036 C   0  0  0  0  0  0  0  0  0  0  0  0
   71.8430   39.9332   59.8988 O   0  0  0  0  0  0  0  0  0  0  0  0
   73.1073   39.6033   59.3530 C   0  0  0  0  0  0  0  0  0  0  0  0
   73.5588   40.7033   58.6494 F   0  0  0  0  0  0  0  0  0  0  0  0
   74.0050   39.2411   60.3507 F   0  0  0  0  0  0  0  0  0  0  0  0
   73.0286   38.5244   58.4921 F   0  0  0  0  0  0  0  0  0  0  0  0
 12 13  2  0
 13 15  1  0
 13 14  1  0
 15 16  1  0
 16 17  2  0
 16 22  1  0
 17 18  1  0
 18 19  2  0
 19 20  1  0
 19 21  1  0
 21 22  2  0
 14  1  1  0
  1  2  2  0
  2  3  1  0
  2 11  1  0
  3  4  2  0
  3  5  1  0
  5  6  1  0
  6  7  1  0
  6 11  2  0
  7  8  2  0
  8  9  1  0
  9 23  1  0
  9 10  2  0
 23 24  1  0
 24 25  1  0
 24 26  1  0
 24 27  1  0
 10 11  1  0
M  END
>  <minimizedAffinity>  (525) 
-8.92971

$$$$
data/reference_output_2/data/smiles/132784.pdb
     RDKit          3D

 22 24  0  0  0  0  0  0  0  0999 V2000
   68.9627   47.1580   56.0616 C   0  0  0  0  0  0  0  0  0  0  0  0
   68.2797   46.0427   56.3416 N   0  0  0  0  0  0  0  0  0  0  0  0
   67.8836   45.4496   55.2361 N   0  0  0  0  0  0  0  0  0  0  0  0
   68.2916   46.1532   54.1426 C   0  0  0  0  0  0  0  0  0  0  0  0
   68.1588   45.9854   52.7935 C   0  0  0  0  0  0  0  0  0  0  0  0
   68.7087   46.9018   51.9392 C   0  0  0  0  0  0  0  0  0  0  0  0
   69.3995   47.9948   52.4220 C   0  0  0  0  0  0  0  0  0  0  0  0
   69.5196   48.1404   53.7875 C   0  0  0  0  0  0  0  0  0  0  0  0
   68.9791   47.2408   54.6870 C   0  0  0  0  0  0  0  0  0  0  0  0
   67.6588   49.2834   57.1642 O   0  0  0  0  0  0  0  0  0  0  0  0
   68.8952   49.1941   57.5015 C   0  0  0  0  0  0  0  0  0  0  0  0
   69.5711   48.0864   56.9325 N   0  0  0  0  0  0  0  0  0  0  0  0
   69.4492   50.2011   58.4010 C   0  0  0  0  0  0  0  0  0  0  0  0
   69.8837   51.4509   57.7237 C   0  0  0  0  0  0  0  0  0  0  0  0
   68.9736   52.2006   56.9954 C   0  0  0  0  0  0  0  0  0  0  0  0
   69.3511   53.3735   56.3412 C   0  0  0  0  0  0  0  0  0  0  0  0
   70.6679   53.7999   56.4203 C   0  0  0  0  0  0  0  0  0  0  0  0
   71.5682   53.0656   57.1350 C   0  0  0  0  0  0  0  0  0  0  0  0
   71.1807   51.8977   57.7839 C   0  0  0  0  0  0  0  0  0  0  0  0
   69.9870   48.9607   51.5594 N   0  0  0  0  0  0  0  0  0  0  0  0
   70.7432   48.5541   50.6647 O   0  0  0  0  0  0  0  0  0  0  0  0
   69.7210   50.2901   51.7171 O   0  0  0  0  0  0  0  0  0  0  0  0
 10 11  2  0
 11 13  1  0
 11 12  1  0
 13 14  1  0
 14 15  2  0
 14 19  1  0
 15 16  1  0
 16 17  2  0
 17 18  1  0
 18 19  2  0
 12  1  1  0
  1  2  2  0
  1  9  1  0
  2  3  1  0
  3  4  1  0
  4  5  1  0
  4  9  2  0
  5  6  2  0
  6  7  1  0
  7 20  1  0
  7  8  2  0
 20 21  2  0
 20 22  1  0
  8  9  1  0
M  CHG  2  20   1  22  -1
M  END
>  <minimizedAffinity>  (526) 
-8.51653

$$$$
data/reference_output_2/data/smiles/132901.pdb
     RDKit          3D

 23 24  0  0  0  0  0  0  0  0999 V2000
   69.5614   47.8318   54.8085 C   0  0  0  0  0  0  0  0  0  0  0  0
   69.1441   47.6282   52.3042 C   0  0  0  0  0  0  0  0  0  0  0  0
   68.3980   47.0539   51.3073 N   0  0  0  0  0  0  0  0  0  0  0  0
   67.4737   46.1213   51.5362 C   0  0  0  0  0  0  0  0  0  0  0  0
   66.7904   45.6004   50.5963 O   0  0  0  0  0  0  0  0  0  0  0  0
   67.2860   45.7462   52.8106 N   0  0  0  0  0  0  0  0  0  0  0  0
   67.9712   46.2598   53.8284 C   0  0  0  0  0  0  0  0  0  0  0  0
   67.7599   45.8732   55.0215 O   0  0  0  0  0  0  0  0  0  0  0  0
   68.9408   47.2414   53.5926 C   0  0  0  0  0  0  0  0  0  0  0  0
   69.8802   49.4224   51.0051 O   0  0  0  0  0  0  0  0  0  0  0  0
   70.1628   48.5819   51.9299 C   0  0  0  0  0  0  0  0  0  0  0  0
   71.4202   48.7032   52.4407 O   0  0  0  0  0  0  0  0  0  0  0  0
   69.2933   49.3065   54.9622 C   0  0  0  0  0  0  0  0  0  0  0  0
   68.4504   49.7063   56.0631 C   0  0  0  0  0  0  0  0  0  0  0  0
   67.8628   48.6640   56.8046 C   0  0  0  0  0  0  0  0  0  0  0  0
   67.0033   48.9401   57.8350 C   0  0  0  0  0  0  0  0  0  0  0  0
   66.7163   50.2387   58.1421 C   0  0  0  0  0  0  0  0  0  0  0  0
   67.2853   51.2462   57.4254 C   0  0  0  0  0  0  0  0  0  0  0  0
   68.1725   51.0170   56.3607 C   0  0  0  0  0  0  0  0  0  0  0  0
   68.8146   52.1093   55.6449 C   0  0  0  0  0  0  0  0  0  0  0  0
   68.6572   53.2608   56.4471 F   0  0  0  0  0  0  0  0  0  0  0  0
   68.3237   52.4584   54.4350 F   0  0  0  0  0  0  0  0  0  0  0  0
   70.2104   51.9532   55.6032 F   0  0  0  0  0  0  0  0  0  0  0  0
 10 11  2  0
 11 12  1  0
 11  2  1  0
  2  3  1  0
  2  9  2  0
  3  4  1  0
  4  5  2  0
  4  6  1  0
  6  7  1  0
  7  8  2  0
  7  9  1  0
  9  1  1  0
  1 13  1  0
 13 14  1  0
 14 15  2  0
 14 19  1  0
 15 16  1  0
 16 17  2  0
 17 18  1  0
 18 19  2  0
 19 20  1  0
 20 21  1  0
 20 22  1  0
 20 23  1  0
M  END
>  <minimizedAffinity>  (527) 
-9.33331

$$$$
data/reference_output_2/data/smiles/132940.pdb
     RDKit          3D

 27 29  0  0  0  0  0  0  0  0999 V2000
   68.9940   42.8348   57.2323 C   0  0  0  0  0  0  0  0  0  0  0  0
   67.8130   42.4324   57.3611 O   0  0  0  0  0  0  0  0  0  0  0  0
   69.2262   44.0555   56.5674 N   0  0  0  0  0  0  0  0  0  0  0  0
   71.2642   40.0463   58.4139 C   0  0  0  0  0  0  0  0  0  0  0  0
   72.3590   40.8004   58.7641 C   0  0  0  0  0  0  0  0  0  0  0  0
   72.3561   42.1900   58.6174 C   0  0  0  0  0  0  0  0  0  0  0  0
   71.2432   42.8096   58.1166 C   0  0  0  0  0  0  0  0  0  0  0  0
   70.1113   42.0712   57.7501 C   0  0  0  0  0  0  0  0  0  0  0  0
   70.1548   40.7205   57.9085 C   0  0  0  0  0  0  0  0  0  0  0  0
   72.5819   35.3715   57.6417 C   0  0  0  0  0  0  0  0  0  0  0  0
   71.8798   36.5403   58.2605 C   0  0  0  0  0  0  0  0  0  0  0  0
   70.9753   36.5464   59.2918 C   0  0  0  0  0  0  0  0  0  0  0  0
   70.6391   37.8855   59.4659 C   0  0  0  0  0  0  0  0  0  0  0  0
   69.6784   38.3481   60.4890 C   0  0  0  0  0  0  0  0  0  0  0  0
   71.3119   38.6393   58.5794 N   0  0  0  0  0  0  0  0  0  0  0  0
   72.0570   37.7897   57.8627 N   0  0  0  0  0  0  0  0  0  0  0  0
   68.1904   44.8409   56.0448 N   0  0  0  0  0  0  0  0  0  0  0  0
   68.6402   46.4865   56.0025 S   0  0  0  0  0  0  0  0  0  0  0  0
   67.5466   47.3524   56.5756 O   0  0  0  0  0  0  0  0  0  0  0  0
   69.8890   46.7167   56.8036 O   0  0  0  0  0  0  0  0  0  0  0  0
   68.8533   46.9813   54.3327 C   0  0  0  0  0  0  0  0  0  0  0  0
   69.5528   48.1144   53.9744 C   0  0  0  0  0  0  0  0  0  0  0  0
   69.7209   48.5057   52.6612 C   0  0  0  0  0  0  0  0  0  0  0  0
   69.1800   47.7524   51.6402 C   0  0  0  0  0  0  0  0  0  0  0  0
   68.4759   46.6135   51.9701 C   0  0  0  0  0  0  0  0  0  0  0  0
   68.3130   46.2324   53.2857 C   0  0  0  0  0  0  0  0  0  0  0  0
   67.6237   45.1178   53.6020 F   0  0  0  0  0  0  0  0  0  0  0  0
 10 11  1  0
 11 12  1  0
 11 16  2  0
 12 13  2  0
 13 14  1  0
 13 15  1  0
 15  4  1  0
 15 16  1  0
  4  5  2  0
  4  9  1  0
  5  6  1  0
  6  7  2  0
  7  8  1  0
  8  1  1  0
  8  9  2  0
  1  2  2  0
  1  3  1  0
  3 17  1  0
 17 18  1  0
 18 19  2  0
 18 20  2  0
 18 21  1  0
 21 22  2  0
 21 26  1  0
 22 23  1  0
 23 24  2  0
 24 25  1  0
 25 26  2  0
 26 27  1  0
M  END
>  <minimizedAffinity>  (528) 
-9.11716

$$$$
data/reference_output_2/data/smiles/132989.pdb
     RDKit          3D

 19 20  0  0  0  0  0  0  0  0999 V2000
   68.1879   46.3124   55.8770 N   0  0  0  0  0  0  0  0  0  0  0  0
   69.3286   47.7040   52.5700 C   0  0  0  0  0  0  0  0  0  0  0  0
   68.6352   46.8814   51.7123 C   0  0  0  0  0  0  0  0  0  0  0  0
   67.8200   45.9097   52.2268 C   0  0  0  0  0  0  0  0  0  0  0  0
   67.6922   45.7513   53.5811 C   0  0  0  0  0  0  0  0  0  0  0  0
   68.3743   46.5600   54.5039 C   0  0  0  0  0  0  0  0  0  0  0  0
   69.1825   47.5245   53.9523 C   0  0  0  0  0  0  0  0  0  0  0  0
   69.9717   49.3524   51.0003 O   0  0  0  0  0  0  0  0  0  0  0  0
   70.2076   48.7531   52.0770 C   0  0  0  0  0  0  0  0  0  0  0  0
   71.3354   49.1251   52.7834 O   0  0  0  0  0  0  0  0  0  0  0  0
   69.1852   46.4402   56.8709 C   0  0  0  0  0  0  0  0  0  0  0  0
   69.6834   47.6842   57.2409 C   0  0  0  0  0  0  0  0  0  0  0  0
   70.6632   47.8012   58.2006 C   0  0  0  0  0  0  0  0  0  0  0  0
   71.1935   46.6938   58.8359 C   0  0  0  0  0  0  0  0  0  0  0  0
   70.6816   45.4739   58.4498 C   0  0  0  0  0  0  0  0  0  0  0  0
   69.7230   45.3942   57.5080 N   0  0  0  0  0  0  0  0  0  0  0  0
   72.1943   46.7696   59.8216 N   0  0  0  0  0  0  0  0  0  0  0  0
   73.3712   46.5304   59.5228 O   0  0  0  0  0  0  0  0  0  0  0  0
   71.8483   47.1082   61.1011 O   0  0  0  0  0  0  0  0  0  0  0  0
  8  9  2  0
  9 10  1  0
  9  2  1  0
  2  3  2  0
  2  7  1  0
  3  4  1  0
  4  5  2  0
  5  6  1  0
  6  1  1  0
  6  7  2  0
  1 11  1  0
 11 12  2  0
 11 16  1  0
 12 13  1  0
 13 14  2  0
 14 17  1  0
 14 15  1  0
 17 18  2  0
 17 19  1  0
 15 16  2  0
M  CHG  2  17   1  19  -1
M  END
>  <minimizedAffinity>  (529) 
-8.55772

$$$$
data/reference_output_2/data/smiles/133211.pdb
     RDKit          3D

 23 25  0  0  0  0  0  0  0  0999 V2000
   69.3859   43.0044   57.3091 C   0  0  0  0  0  0  0  0  0  0  0  0
   70.5334   42.3921   57.7557 C   0  0  0  0  0  0  0  0  0  0  0  0
   70.5666   41.0423   58.0826 C   0  0  0  0  0  0  0  0  0  0  0  0
   71.7174   40.4297   58.5274 C   0  0  0  0  0  0  0  0  0  0  0  0
   71.7514   39.0730   58.8565 C   0  0  0  0  0  0  0  0  0  0  0  0
   70.6175   38.2909   58.7427 C   0  0  0  0  0  0  0  0  0  0  0  0
   70.6515   36.9394   59.0691 O   0  0  0  0  0  0  0  0  0  0  0  0
   69.4655   38.9094   58.2948 C   0  0  0  0  0  0  0  0  0  0  0  0
   69.4430   40.2565   57.9723 C   0  0  0  0  0  0  0  0  0  0  0  0
   68.2898   40.8675   57.5245 C   0  0  0  0  0  0  0  0  0  0  0  0
   68.2592   42.2137   57.1989 C   0  0  0  0  0  0  0  0  0  0  0  0
   67.0939   42.8075   56.7516 O   0  0  0  0  0  0  0  0  0  0  0  0
   70.0252   45.2252   57.6585 O   0  0  0  0  0  0  0  0  0  0  0  0
   69.3359   44.4430   56.9502 C   0  0  0  0  0  0  0  0  0  0  0  0
   68.5766   44.9339   55.8919 N   0  0  0  0  0  0  0  0  0  0  0  0
   68.5288   46.3373   55.5573 C   0  0  0  0  0  0  0  0  0  0  0  0
   68.4497   46.4843   54.0884 C   0  0  0  0  0  0  0  0  0  0  0  0
   67.6270   45.6026   53.3655 C   0  0  0  0  0  0  0  0  0  0  0  0
   67.5657   45.7115   51.9865 C   0  0  0  0  0  0  0  0  0  0  0  0
   68.3091   46.6833   51.3240 C   0  0  0  0  0  0  0  0  0  0  0  0
   69.1170   47.5516   52.0221 C   0  0  0  0  0  0  0  0  0  0  0  0
   69.8815   48.5449   51.3844 O   0  0  0  0  0  0  0  0  0  0  0  0
   69.1670   47.4277   53.4012 C   0  0  0  0  0  0  0  0  0  0  0  0
 13 14  2  0
 14 15  1  0
 14  1  1  0
 15 16  1  0
 16 17  1  0
 17 18  2  0
 17 23  1  0
 18 19  1  0
 19 20  2  0
 20 21  1  0
 21 22  1  0
 21 23  2  0
  1  2  2  0
  1 11  1  0
  2  3  1  0
  3  4  2  0
  3  9  1  0
  4  5  1  0
  5  6  2  0
  6  7  1  0
  6  8  1  0
  8  9  2  0
  9 10  1  0
 10 11  2  0
 11 12  1  0
M  END
>  <minimizedAffinity>  (530) 
-8.55879

$$$$
data/reference_output_2/data/smiles/133313.pdb
     RDKit          3D

 20 22  0  0  0  0  0  0  0  0999 V2000
   66.6746   44.9041   50.8185 O   0  0  0  0  0  0  0  0  0  0  0  0
   67.3184   45.6974   51.5859 C   0  0  0  0  0  0  0  0  0  0  0  0
   68.1826   46.5652   51.0407 N   0  0  0  0  0  0  0  0  0  0  0  0
   68.8780   47.4177   51.8204 C   0  0  0  0  0  0  0  0  0  0  0  0
   69.6935   48.2353   51.3428 O   0  0  0  0  0  0  0  0  0  0  0  0
   68.6969   47.3924   53.1779 C   0  0  0  0  0  0  0  0  0  0  0  0
   69.4367   48.2857   53.9373 C   0  0  0  0  0  0  0  0  0  0  0  0
   69.1914   48.1843   55.3230 C   0  0  0  0  0  0  0  0  0  0  0  0
   68.2950   47.2735   55.8312 C   0  0  0  0  0  0  0  0  0  0  0  0
   68.1063   47.2197   57.0943 O   0  0  0  0  0  0  0  0  0  0  0  0
   67.6298   46.4595   55.0517 O   0  0  0  0  0  0  0  0  0  0  0  0
   67.7975   46.4878   53.7652 C   0  0  0  0  0  0  0  0  0  0  0  0
   67.1449   45.6739   52.9179 N   0  0  0  0  0  0  0  0  0  0  0  0
   70.3332   49.3028   53.5184 C   0  0  0  0  0  0  0  0  0  0  0  0
   69.5292   50.5661   53.2439 C   0  0  0  0  0  0  0  0  0  0  0  0
   69.6714   51.5290   54.3773 C   0  0  0  0  0  0  0  0  0  0  0  0
   68.6959   52.1114   55.1465 C   0  0  0  0  0  0  0  0  0  0  0  0
   69.0745   52.9449   56.1032 C   0  0  0  0  0  0  0  0  0  0  0  0
   70.4041   53.1988   56.2974 C   0  0  0  0  0  0  0  0  0  0  0  0
   71.1559   52.1546   54.9991 S   0  0  0  0  0  0  0  0  0  0  0  0
  1  2  2  0
  2  3  1  0
  2 13  1  0
  3  4  1  0
  4  5  2  0
  4  6  1  0
  6  7  1  0
  6 12  2  0
  7 14  1  0
  7  8  2  0
 14 15  1  0
 15 16  1  0
 16 17  2  0
 16 20  1  0
 17 18  1  0
 18 19  2  0
 19 20  1  0
  8  9  1  0
  9 10  2  0
  9 11  1  0
 11 12  1  0
 12 13  1  0
M  END
>  <minimizedAffinity>  (531) 
-8.93706

$$$$
data/reference_output_2/data/smiles/133350.pdb
     RDKit          3D

 22 24  0  0  0  0  0  0  0  0999 V2000
   70.1846   44.9967   57.6555 C   0  0  0  0  0  0  0  0  0  0  0  0
   71.2235   45.2476   58.5655 C   0  0  0  0  0  0  0  0  0  0  0  0
   71.5889   46.5034   58.9328 C   0  0  0  0  0  0  0  0  0  0  0  0
   70.9343   47.5905   58.4102 C   0  0  0  0  0  0  0  0  0  0  0  0
   69.9166   47.3490   57.5214 C   0  0  0  0  0  0  0  0  0  0  0  0
   69.5252   46.0548   57.1327 C   0  0  0  0  0  0  0  0  0  0  0  0
   70.0132   43.5692   57.3106 C   0  0  0  0  0  0  0  0  0  0  0  0
   68.6932   43.0514   57.5076 N   0  0  0  0  0  0  0  0  0  0  0  0
   65.3517   41.5637   54.1442 N   0  0  0  0  0  0  0  0  0  0  0  0
   66.4409   41.5889   55.0785 C   0  0  0  0  0  0  0  0  0  0  0  0
   67.2838   40.5885   55.3911 N   0  0  0  0  0  0  0  0  0  0  0  0
   68.1585   41.0052   56.2880 N   0  0  0  0  0  0  0  0  0  0  0  0
   67.9017   42.3208   56.5903 C   0  0  0  0  0  0  0  0  0  0  0  0
   66.8580   42.6203   55.8349 N   0  0  0  0  0  0  0  0  0  0  0  0
   68.5055   45.9818   56.2619 O   0  0  0  0  0  0  0  0  0  0  0  0
   68.3873   46.1088   54.9375 C   0  0  0  0  0  0  0  0  0  0  0  0
   67.7764   45.2050   54.1224 C   0  0  0  0  0  0  0  0  0  0  0  0
   67.6874   45.4004   52.7450 C   0  0  0  0  0  0  0  0  0  0  0  0
   68.2302   46.5387   52.1992 C   0  0  0  0  0  0  0  0  0  0  0  0
   68.1405   46.7184   50.8480 F   0  0  0  0  0  0  0  0  0  0  0  0
   68.8570   47.4802   52.9850 C   0  0  0  0  0  0  0  0  0  0  0  0
   68.9263   47.2523   54.3404 C   0  0  0  0  0  0  0  0  0  0  0  0
  9 10  1  0
 10 11  2  0
 10 14  1  0
 11 12  1  0
 12 13  1  0
 13  8  1  0
 13 14  2  0
  8  7  1  0
  7  1  1  0
  1  2  2  0
  1  6  1  0
  2  3  1  0
  3  4  2  0
  4  5  1  0
  5  6  2  0
  6 15  1  0
 15 16  1  0
 16 17  2  0
 16 22  1  0
 17 18  1  0
 18 19  2  0
 19 20  1  0
 19 21  1  0
 21 22  2  0
M  END
>  <minimizedAffinity>  (532) 
-8.96674

$$$$
data/reference_output_2/data/smiles/133612.pdb
     RDKit          3D

 26 28  0  0  0  0  0  0  0  0999 V2000
   67.8095   44.2476   55.5121 C   0  0  0  0  0  0  0  0  0  0  0  0
   67.5228   44.2292   54.1956 N   0  0  0  0  0  0  0  0  0  0  0  0
   67.9884   45.3462   53.6078 C   0  0  0  0  0  0  0  0  0  0  0  0
   67.9865   45.8541   52.3273 C   0  0  0  0  0  0  0  0  0  0  0  0
   68.5565   47.0639   52.0014 C   0  0  0  0  0  0  0  0  0  0  0  0
   69.1658   47.8302   52.9759 C   0  0  0  0  0  0  0  0  0  0  0  0
   69.1681   47.3216   54.2588 C   0  0  0  0  0  0  0  0  0  0  0  0
   68.5977   46.1068   54.5933 C   0  0  0  0  0  0  0  0  0  0  0  0
   68.4620   45.3971   55.7282 N   0  0  0  0  0  0  0  0  0  0  0  0
   68.4487   42.4127   57.0875 C   0  0  0  0  0  0  0  0  0  0  0  0
   69.6594   42.6359   56.7716 O   0  0  0  0  0  0  0  0  0  0  0  0
   67.4685   43.2250   56.4574 N   0  0  0  0  0  0  0  0  0  0  0  0
   68.2921   40.0308   57.6801 C   0  0  0  0  0  0  0  0  0  0  0  0
   68.1629   41.4229   57.9988 O   0  0  0  0  0  0  0  0  0  0  0  0
   69.9039   49.3804   52.5927 S   0  0  0  0  0  0  0  0  0  0  0  0
   71.2978   49.3548   53.1164 O   0  0  0  0  0  0  0  0  0  0  0  0
   69.9400   49.6009   51.1073 O   0  0  0  0  0  0  0  0  0  0  0  0
   69.0635   50.6692   53.3757 N   0  0  0  0  0  0  0  0  0  0  0  0
   69.8812   51.1951   54.4802 C   0  0  0  0  0  0  0  0  0  0  0  0
   69.2378   50.8200   55.7608 C   0  0  0  0  0  0  0  0  0  0  0  0
   69.8946   50.0027   56.6484 C   0  0  0  0  0  0  0  0  0  0  0  0
   69.2630   49.6715   57.8390 C   0  0  0  0  0  0  0  0  0  0  0  0
   68.0079   50.1506   58.1224 C   0  0  0  0  0  0  0  0  0  0  0  0
   67.3388   50.9699   57.2430 C   0  0  0  0  0  0  0  0  0  0  0  0
   66.0953   51.4283   57.5554 F   0  0  0  0  0  0  0  0  0  0  0  0
   67.9670   51.3029   56.0537 C   0  0  0  0  0  0  0  0  0  0  0  0
 13 14  1  0
 14 10  1  0
 10 11  2  0
 10 12  1  0
 12  1  1  0
  1  2  2  0
  1  9  1  0
  2  3  1  0
  3  4  2  0
  3  8  1  0
  4  5  1  0
  5  6  2  0
  6 15  1  0
  6  7  1  0
 15 16  2  0
 15 17  2  0
 15 18  1  0
 18 19  1  0
 19 20  1  0
 20 21  2  0
 20 26  1  0
 21 22  1  0
 22 23  2  0
 23 24  1  0
 24 25  1  0
 24 26  2  0
  7  8  2  0
  8  9  1  0
M  CHG  1   2   1
M  END
>  <minimizedAffinity>  (533) 
-8.58720

$$$$
data/reference_output_2/data/smiles/133931.pdb
     RDKit          3D

 26 28  0  0  0  0  0  0  0  0999 V2000
   68.8199   42.3310   57.0700 C   0  0  0  0  0  0  0  0  0  0  0  0
   68.9610   43.5894   56.6173 N   0  0  0  0  0  0  0  0  0  0  0  0
   68.2157   44.2025   55.6920 C   0  0  0  0  0  0  0  0  0  0  0  0
   67.2175   43.4732   55.1612 N   0  0  0  0  0  0  0  0  0  0  0  0
   66.9927   42.2093   55.5459 C   0  0  0  0  0  0  0  0  0  0  0  0
   66.0571   41.5265   55.0483 O   0  0  0  0  0  0  0  0  0  0  0  0
   67.7966   41.5926   56.5220 C   0  0  0  0  0  0  0  0  0  0  0  0
   67.5111   40.2836   56.8730 O   0  0  0  0  0  0  0  0  0  0  0  0
   68.4764   45.5752   55.2914 C   0  0  0  0  0  0  0  0  0  0  0  0
   68.2458   46.0030   54.0289 C   0  0  0  0  0  0  0  0  0  0  0  0
   68.4927   47.3126   53.6491 C   0  0  0  0  0  0  0  0  0  0  0  0
   68.9839   48.2267   54.5481 C   0  0  0  0  0  0  0  0  0  0  0  0
   69.3280   50.0368   54.0331 Br  0  0  0  0  0  0  0  0  0  0  0  0
   69.2244   47.8022   55.8440 C   0  0  0  0  0  0  0  0  0  0  0  0
   68.9685   46.4759   56.2073 C   0  0  0  0  0  0  0  0  0  0  0  0
   69.9402   42.5717   59.0744 O   0  0  0  0  0  0  0  0  0  0  0  0
   69.7130   41.7943   58.0846 C   0  0  0  0  0  0  0  0  0  0  0  0
   70.3483   40.5658   58.1277 N   0  0  0  0  0  0  0  0  0  0  0  0
   71.2382   40.0684   59.1715 C   0  0  0  0  0  0  0  0  0  0  0  0
   71.2767   38.5941   59.0620 C   0  0  0  0  0  0  0  0  0  0  0  0
   72.0487   38.0406   58.0458 C   0  0  0  0  0  0  0  0  0  0  0  0
   72.1642   36.6622   57.8689 C   0  0  0  0  0  0  0  0  0  0  0  0
   71.4984   35.8327   58.7208 C   0  0  0  0  0  0  0  0  0  0  0  0
   71.6183   34.4989   58.5385 F   0  0  0  0  0  0  0  0  0  0  0  0
   70.7280   36.3753   59.7350 C   0  0  0  0  0  0  0  0  0  0  0  0
   70.6142   37.7446   59.9105 C   0  0  0  0  0  0  0  0  0  0  0  0
 16 17  2  0
 17 18  1  0
 17  1  1  0
 18 19  1  0
 19 20  1  0
 20 21  2  0
 20 26  1  0
 21 22  1  0
 22 23  2  0
 23 24  1  0
 23 25  1  0
 25 26  2  0
  1  2  1  0
  1  7  2  0
  2  3  2  0
  3  9  1  0
  3  4  1  0
  9 10  2  0
  9 15  1  0
 10 11  1  0
 11 12  2  0
 12 13  1  0
 12 14  1  0
 14 15  2  0
  4  5  1  0
  5  6  2  0
  5  7  1  0
  7  8  1  0
M  END
>  <minimizedAffinity>  (534) 
-8.69898

$$$$
data/reference_output_2/data/smiles/134046.pdb
     RDKit          3D

 29 32  0  0  0  0  0  0  0  0999 V2000
   69.7505   39.4995   58.9898 C   0  0  0  0  0  0  0  0  0  0  0  0
   69.3466   40.7718   59.7333 C   0  0  0  0  0  0  0  0  0  0  0  0
   69.0961   41.8004   58.6107 C   0  0  0  0  0  0  0  0  0  0  0  0
   68.0922   41.2601   57.7178 N   0  0  0  0  0  0  0  0  0  0  0  0
   67.7419   41.9630   56.5593 C   0  0  0  0  0  0  0  0  0  0  0  0
   66.8725   41.4926   55.7926 O   0  0  0  0  0  0  0  0  0  0  0  0
   67.4734   39.9799   58.0687 C   0  0  0  0  0  0  0  0  0  0  0  0
   68.5028   38.9156   58.3908 C   0  0  0  0  0  0  0  0  0  0  0  0
   68.3525   43.2314   56.2082 C   0  0  0  0  0  0  0  0  0  0  0  0
   69.5068   43.4391   56.6280 O   0  0  0  0  0  0  0  0  0  0  0  0
   67.6990   44.2002   55.4331 N   0  0  0  0  0  0  0  0  0  0  0  0
   68.2364   45.4575   55.0540 C   0  0  0  0  0  0  0  0  0  0  0  0
   68.6332   46.4532   55.8909 C   0  0  0  0  0  0  0  0  0  0  0  0
   69.1532   47.6651   55.4188 C   0  0  0  0  0  0  0  0  0  0  0  0
   69.2881   47.9043   54.0678 C   0  0  0  0  0  0  0  0  0  0  0  0
   68.8937   46.9131   53.1940 C   0  0  0  0  0  0  0  0  0  0  0  0
   68.3903   45.7403   53.6806 C   0  0  0  0  0  0  0  0  0  0  0  0
   69.1428   47.4238   51.8127 C   0  0  0  0  0  0  0  0  0  0  0  0
   69.6995   48.7609   51.9860 C   0  0  0  0  0  0  0  0  0  0  0  0
   70.0494   49.5420   51.0788 O   0  0  0  0  0  0  0  0  0  0  0  0
   69.7795   49.0354   53.3680 N   0  0  0  0  0  0  0  0  0  0  0  0
   70.4842   38.6008   59.9259 C   0  0  0  0  0  0  0  0  0  0  0  0
   73.0529   34.2451   57.0784 C   0  0  0  0  0  0  0  0  0  0  0  0
   72.3821   35.3414   57.8255 C   0  0  0  0  0  0  0  0  0  0  0  0
   72.5381   36.6493   57.4402 C   0  0  0  0  0  0  0  0  0  0  0  0
   71.9365   37.7007   58.1016 C   0  0  0  0  0  0  0  0  0  0  0  0
   71.1261   37.4657   59.2156 C   0  0  0  0  0  0  0  0  0  0  0  0
   70.9735   36.1520   59.5970 C   0  0  0  0  0  0  0  0  0  0  0  0
   71.5866   35.0926   58.9218 C   0  0  0  0  0  0  0  0  0  0  0  0
 23 24  1  0
 24 25  2  0
 24 29  1  0
 25 26  1  0
 26 27  2  0
 27 22  1  0
 27 28  1  0
 22  1  1  0
  1  2  1  0
  1  8  1  0
  2  3  1  0
  3  4  1  0
  4  5  1  0
  4  7  1  0
  5  6  2  0
  5  9  1  0
  9 10  2  0
  9 11  1  0
 11 12  1  0
 12 13  2  0
 12 17  1  0
 13 14  1  0
 14 15  2  0
 15 16  1  0
 15 21  1  0
 16 17  2  0
 16 18  1  0
 18 19  1  0
 19 20  2  0
 19 21  1  0
  7  8  1  0
 28 29  2  0
M  END
>  <minimizedAffinity>  (535) 
-9.93679

$$$$
data/reference_output_2/data/smiles/134082.pdb
     RDKit          3D

 25 27  0  0  0  0  0  0  0  0999 V2000
   68.8659   45.2395   56.2043 C   0  0  0  0  0  0  0  0  0  0  0  0
   69.4711   46.1292   57.1080 C   0  0  0  0  0  0  0  0  0  0  0  0
   69.5684   47.4752   56.8704 C   0  0  0  0  0  0  0  0  0  0  0  0
   69.0692   48.0347   55.7138 C   0  0  0  0  0  0  0  0  0  0  0  0
   68.4734   47.1791   54.8201 C   0  0  0  0  0  0  0  0  0  0  0  0
   68.3739   45.7968   55.0654 C   0  0  0  0  0  0  0  0  0  0  0  0
   67.7757   45.0067   54.1446 F   0  0  0  0  0  0  0  0  0  0  0  0
   68.3060   39.7180   57.3466 N   0  0  0  0  0  0  0  0  0  0  0  0
   68.4626   41.1074   57.0662 C   0  0  0  0  0  0  0  0  0  0  0  0
   67.4864   41.8462   56.4332 C   0  0  0  0  0  0  0  0  0  0  0  0
   67.6642   43.1502   56.1840 N   0  0  0  0  0  0  0  0  0  0  0  0
   68.8047   43.8263   56.5342 C   0  0  0  0  0  0  0  0  0  0  0  0
   69.7528   43.0787   57.1563 C   0  0  0  0  0  0  0  0  0  0  0  0
   69.5869   41.7483   57.4179 N   0  0  0  0  0  0  0  0  0  0  0  0
   69.1845   49.4708   55.4580 C   0  0  0  0  0  0  0  0  0  0  0  0
   69.4093   50.3195   56.5292 C   0  0  0  0  0  0  0  0  0  0  0  0
   69.5494   51.6795   56.3636 C   0  0  0  0  0  0  0  0  0  0  0  0
   69.4699   52.2474   55.1165 C   0  0  0  0  0  0  0  0  0  0  0  0
   69.2464   51.4128   54.0420 C   0  0  0  0  0  0  0  0  0  0  0  0
   69.1066   50.0509   54.2164 C   0  0  0  0  0  0  0  0  0  0  0  0
   68.8559   49.2420   53.0875 N   0  0  0  0  0  0  0  0  0  0  0  0
   70.0700   48.8475   51.9283 S   0  0  0  0  0  0  0  0  0  0  0  0
   69.8543   47.2329   51.3525 N   0  0  0  0  0  0  0  0  0  0  0  0
   71.4330   48.9220   52.5526 O   0  0  0  0  0  0  0  0  0  0  0  0
   70.0134   49.7589   50.7380 O   0  0  0  0  0  0  0  0  0  0  0  0
  8  9  1  0
  9 10  2  0
  9 14  1  0
 10 11  1  0
 11 12  2  0
 12  1  1  0
 12 13  1  0
  1  2  2  0
  1  6  1  0
  2  3  1  0
  3  4  2  0
  4 15  1  0
  4  5  1  0
 15 16  2  0
 15 20  1  0
 16 17  1  0
 17 18  2  0
 18 19  1  0
 19 20  2  0
 20 21  1  0
 21 22  1  0
 22 23  1  0
 22 24  2  0
 22 25  2  0
  5  6  2  0
  6  7  1  0
 13 14  2  0
M  END
>  <minimizedAffinity>  (536) 
-8.69771

$$$$
data/reference_output_2/data/smiles/134097.pdb
     RDKit          3D

 24 27  0  0  0  0  0  0  0  0999 V2000
   69.5599   50.5517   54.5070 N   0  0  0  0  0  0  0  0  0  0  0  0
   68.8482   51.8040   54.3781 C   0  0  0  0  0  0  0  0  0  0  0  0
   68.7835   52.3979   55.7671 C   0  0  0  0  0  0  0  0  0  0  0  0
   69.3169   51.3325   56.6543 C   0  0  0  0  0  0  0  0  0  0  0  0
   69.4171   51.2707   58.0274 C   0  0  0  0  0  0  0  0  0  0  0  0
   69.9500   50.1815   58.6811 C   0  0  0  0  0  0  0  0  0  0  0  0
   70.3996   49.1110   57.9399 C   0  0  0  0  0  0  0  0  0  0  0  0
   70.2942   49.1843   56.5685 C   0  0  0  0  0  0  0  0  0  0  0  0
   69.7651   50.2635   55.8834 C   0  0  0  0  0  0  0  0  0  0  0  0
   70.9589   47.9460   58.5473 N   0  0  0  0  0  0  0  0  0  0  0  0
   72.0031   48.1397   59.5201 C   0  0  0  0  0  0  0  0  0  0  0  0
   72.2576   46.9849   60.4256 C   0  0  0  0  0  0  0  0  0  0  0  0
   71.5117   45.7970   60.0743 N   0  0  0  0  0  0  0  0  0  0  0  0
   71.4517   45.6143   58.6349 C   0  0  0  0  0  0  0  0  0  0  0  0
   70.4417   46.6585   58.1412 C   0  0  0  0  0  0  0  0  0  0  0  0
   71.5277   49.2623   53.2472 O   0  0  0  0  0  0  0  0  0  0  0  0
   70.0637   49.5911   53.1655 S   0  0  0  0  0  0  0  0  0  0  0  0
   69.8694   50.3455   51.8619 O   0  0  0  0  0  0  0  0  0  0  0  0
   69.1815   48.0865   53.0895 C   0  0  0  0  0  0  0  0  0  0  0  0
   69.0013   47.4589   51.8777 C   0  0  0  0  0  0  0  0  0  0  0  0
   68.3043   46.2699   51.8136 C   0  0  0  0  0  0  0  0  0  0  0  0
   67.7687   45.6696   52.9395 C   0  0  0  0  0  0  0  0  0  0  0  0
   67.9697   46.3267   54.1328 C   0  0  0  0  0  0  0  0  0  0  0  0
   68.6605   47.5135   54.2234 C   0  0  0  0  0  0  0  0  0  0  0  0
 16 17  2  0
 17 18  2  0
 17 19  1  0
 17  1  1  0
 19 20  2  0
 19 24  1  0
 20 21  1  0
 21 22  2  0
 22 23  1  0
 23 24  2  0
  1  2  1  0
  1  9  1  0
  2  3  1  0
  3  4  1  0
  4  5  1  0
  4  9  2  0
  5  6  2  0
  6  7  1  0
  7 10  1  0
  7  8  2  0
 10 11  1  0
 10 15  1  0
 11 12  1  0
 12 13  1  0
 13 14  1  0
 14 15  1  0
  8  9  1  0
M  CHG  1  13   1
M  END
>  <minimizedAffinity>  (537) 
-8.65230

$$$$
data/reference_output_2/data/smiles/134117.pdb
     RDKit          3D

 26 27  0  0  0  0  0  0  0  0999 V2000
   69.0406   47.7394   56.8225 S   0  0  0  0  0  0  0  0  0  0  0  0
   69.2563   48.8979   57.7219 O   0  0  0  0  0  0  0  0  0  0  0  0
   67.6157   47.2905   56.9709 O   0  0  0  0  0  0  0  0  0  0  0  0
   70.0353   46.4088   57.4438 C   0  0  0  0  0  0  0  0  0  0  0  0
   69.6628   45.1953   57.1495 C   0  0  0  0  0  0  0  0  0  0  0  0
   70.2479   43.9337   57.4938 C   0  0  0  0  0  0  0  0  0  0  0  0
   71.5576   43.9865   58.0133 C   0  0  0  0  0  0  0  0  0  0  0  0
   72.2598   42.9010   58.4405 C   0  0  0  0  0  0  0  0  0  0  0  0
   71.6877   41.6625   58.3756 C   0  0  0  0  0  0  0  0  0  0  0  0
   70.4238   41.5723   57.8788 C   0  0  0  0  0  0  0  0  0  0  0  0
   69.6947   42.6860   57.4377 C   0  0  0  0  0  0  0  0  0  0  0  0
   68.3440   42.4055   56.9348 C   0  0  0  0  0  0  0  0  0  0  0  0
   68.3826   41.1192   56.3053 F   0  0  0  0  0  0  0  0  0  0  0  0
   68.0849   43.2340   55.8540 F   0  0  0  0  0  0  0  0  0  0  0  0
   67.3660   42.2605   57.8539 F   0  0  0  0  0  0  0  0  0  0  0  0
   69.4411   48.0780   55.1848 N   0  0  0  0  0  0  0  0  0  0  0  0
   69.0977   47.7702   52.8299 C   0  0  0  0  0  0  0  0  0  0  0  0
   68.5711   47.0307   51.8022 C   0  0  0  0  0  0  0  0  0  0  0  0
   67.8578   45.8606   52.0091 C   0  0  0  0  0  0  0  0  0  0  0  0
   67.6887   45.4531   53.3201 C   0  0  0  0  0  0  0  0  0  0  0  0
   68.2016   46.1680   54.3697 C   0  0  0  0  0  0  0  0  0  0  0  0
   68.9024   47.3228   54.1198 C   0  0  0  0  0  0  0  0  0  0  0  0
   69.3607   50.6122   53.2109 N   0  0  0  0  0  0  0  0  0  0  0  0
   69.9722   49.2184   52.4534 S   0  0  0  0  0  0  0  0  0  0  0  0
   71.4098   48.9942   52.9050 O   0  0  0  0  0  0  0  0  0  0  0  0
   70.0304   49.3827   50.9656 O   0  0  0  0  0  0  0  0  0  0  0  0
 23 24  1  0
 24 25  2  0
 24 26  2  0
 24 17  1  0
 17 18  2  0
 17 22  1  0
 18 19  1  0
 19 20  2  0
 20 21  1  0
 21 22  2  0
 22 16  1  0
 16  1  1  0
  1  2  2  0
  1  3  2  0
  1  4  1  0
  4  5  2  0
  5  6  1  0
  6  7  2  0
  6 11  1  0
  7  8  1  0
  8  9  2  0
  9 10  1  0
 10 11  2  0
 11 12  1  0
 12 13  1  0
 12 14  1  0
 12 15  1  0
M  END
>  <minimizedAffinity>  (538) 
-8.89555

$$$$
data/reference_output_2/data/smiles/134259.pdb
     RDKit          3D

 27 29  0  0  0  0  0  0  0  0999 V2000
   72.0352   44.4473   59.4769 C   0  0  0  0  0  0  0  0  0  0  0  0
   73.4980   45.2869   59.5229 S   0  0  0  0  0  0  0  0  0  0  0  0
   70.9820   42.6445   57.4436 O   0  0  0  0  0  0  0  0  0  0  0  0
   71.6576   42.2093   58.3701 C   0  0  0  0  0  0  0  0  0  0  0  0
   72.1675   43.0767   59.3594 N   0  0  0  0  0  0  0  0  0  0  0  0
   71.9677   40.7577   58.4942 C   0  0  0  0  0  0  0  0  0  0  0  0
   71.0016   39.8668   58.5624 C   0  0  0  0  0  0  0  0  0  0  0  0
   71.1696   38.4312   58.6838 C   0  0  0  0  0  0  0  0  0  0  0  0
   72.0372   37.7448   57.8669 C   0  0  0  0  0  0  0  0  0  0  0  0
   72.1902   36.3572   57.9945 C   0  0  0  0  0  0  0  0  0  0  0  0
   71.4816   35.6434   58.9354 C   0  0  0  0  0  0  0  0  0  0  0  0
   71.6244   34.2968   59.0655 F   0  0  0  0  0  0  0  0  0  0  0  0
   70.6206   36.3243   59.7471 C   0  0  0  0  0  0  0  0  0  0  0  0
   70.4738   37.6855   59.6170 C   0  0  0  0  0  0  0  0  0  0  0  0
   70.9148   45.2691   59.5349 N   0  0  0  0  0  0  0  0  0  0  0  0
   69.9482   45.5654   58.5909 N   0  0  0  0  0  0  0  0  0  0  0  0
   69.9878   46.7683   57.8152 C   0  0  0  0  0  0  0  0  0  0  0  0
   70.9496   47.5494   58.0355 O   0  0  0  0  0  0  0  0  0  0  0  0
   68.9424   47.0532   56.8184 C   0  0  1  0  0  0  0  0  0  0  0  0
   68.4429   48.4252   56.5889 C   0  0  0  0  0  0  0  0  0  0  0  0
   69.4149   47.8971   55.6002 C   0  0  2  0  0  0  0  0  0  0  0  0
   68.9884   47.3567   54.3103 C   0  0  0  0  0  0  0  0  0  0  0  0
   69.4852   47.8955   53.1460 C   0  0  0  0  0  0  0  0  0  0  0  0
   69.1174   47.4262   51.9011 C   0  0  0  0  0  0  0  0  0  0  0  0
   68.2085   46.3651   51.8533 C   0  0  0  0  0  0  0  0  0  0  0  0
   67.6892   45.8012   52.9952 C   0  0  0  0  0  0  0  0  0  0  0  0
   68.0959   46.3146   54.2103 C   0  0  0  0  0  0  0  0  0  0  0  0
  3  4  2  0
  4  6  1  0
  4  5  1  0
  6  7  2  0
  7  8  1  0
  8  9  2  0
  8 14  1  0
  9 10  1  0
 10 11  2  0
 11 12  1  0
 11 13  1  0
 13 14  2  0
  5  1  1  0
  1  2  2  0
  1 15  1  0
 15 16  1  0
 16 17  1  0
 17 18  2  0
 19 17  1  1
 19 20  1  0
 19 21  1  0
 20 21  1  0
 21 22  1  6
 22 23  2  0
 22 27  1  0
 23 24  1  0
 24 25  2  0
 25 26  1  0
 26 27  2  0
M  END
>  <minimizedAffinity>  (539) 
-8.97741

$$$$
data/reference_output_2/data/smiles/134293.pdb
     RDKit          3D

 26 29  0  0  0  0  0  0  0  0999 V2000
   71.0623   45.7142   59.7592 O   0  0  0  0  0  0  0  0  0  0  0  0
   70.8933   46.0047   58.5564 C   0  0  0  0  0  0  0  0  0  0  0  0
   70.6927   44.9254   57.6099 N   0  0  0  0  0  0  0  0  0  0  0  0
   70.6820   43.5653   58.0081 C   0  0  2  0  0  0  0  0  0  0  0  0
   71.9602   42.8266   57.6963 C   0  0  0  0  0  0  0  0  0  0  0  0
   71.9434   41.5072   58.4152 C   0  0  0  0  0  0  0  0  0  0  0  0
   70.5828   40.9950   58.7426 C   0  0  0  0  0  0  0  0  0  0  0  0
   69.5274   41.4392   57.7990 C   0  0  0  0  0  0  0  0  0  0  0  0
   68.5473   40.5951   57.3184 C   0  0  0  0  0  0  0  0  0  0  0  0
   67.6213   41.1209   56.4484 C   0  0  0  0  0  0  0  0  0  0  0  0
   67.6599   42.4357   56.0636 C   0  0  0  0  0  0  0  0  0  0  0  0
   68.6450   43.2666   56.5516 C   0  0  0  0  0  0  0  0  0  0  0  0
   69.5707   42.7740   57.4120 C   0  0  0  0  0  0  0  0  0  0  0  0
   70.8852   47.3471   58.0474 C   0  0  0  0  0  0  0  0  0  0  0  0
   69.7159   47.9818   57.4607 C   0  0  0  0  0  0  0  0  0  0  0  0
   69.5172   47.9158   56.0336 N   0  0  0  0  0  0  0  0  0  0  0  0
   70.1287   48.7683   55.2024 C   0  0  0  0  0  0  0  0  0  0  0  0
   69.9757   48.6694   53.8951 N   0  0  0  0  0  0  0  0  0  0  0  0
   69.2099   47.7245   53.3246 C   0  0  0  0  0  0  0  0  0  0  0  0
   69.0446   47.6121   51.9675 C   0  0  0  0  0  0  0  0  0  0  0  0
   68.2434   46.6162   51.4477 C   0  0  0  0  0  0  0  0  0  0  0  0
   67.5944   45.7157   52.2862 C   0  0  0  0  0  0  0  0  0  0  0  0
   67.7554   45.8234   53.6430 C   0  0  0  0  0  0  0  0  0  0  0  0
   68.5644   46.8292   54.1477 C   0  0  0  0  0  0  0  0  0  0  0  0
   68.7406   46.9554   55.5194 C   0  0  0  0  0  0  0  0  0  0  0  0
   68.1144   46.1040   56.2517 O   0  0  0  0  0  0  0  0  0  0  0  0
  1  2  2  0
  2 14  1  0
  2  3  1  0
 14 15  1  0
 15 16  1  0
 16 17  1  0
 16 25  1  0
 17 18  2  0
 18 19  1  0
 19 20  2  0
 19 24  1  0
 20 21  1  0
 21 22  2  0
 22 23  1  0
 23 24  2  0
 24 25  1  0
 25 26  2  0
  4  3  1  6
  4  5  1  0
  4 13  1  0
  5  6  1  0
  6  7  1  0
  7  8  1  0
  8  9  2  0
  8 13  1  0
  9 10  1  0
 10 11  2  0
 11 12  1  0
 12 13  2  0
M  END
>  <minimizedAffinity>  (540) 
-9.20262

$$$$
data/reference_output_2/data/smiles/134311.pdb
     RDKit          3D

 26 29  0  0  0  0  0  0  0  0999 V2000
   71.9884   49.9183   56.6919 C   0  0  0  0  0  0  0  0  0  0  0  0
   73.2633   50.4281   56.1508 C   0  0  1  0  0  0  0  0  0  0  0  0
   74.4976   49.8878   56.8244 C   0  0  0  0  0  0  0  0  0  0  0  0
   75.5194   50.0013   55.7323 C   0  0  0  0  0  0  0  0  0  0  0  0
   74.8876   50.1776   54.6453 N   0  0  0  0  0  0  0  0  0  0  0  0
   73.5241   50.2060   54.8081 O   0  0  0  0  0  0  0  0  0  0  0  0
   76.9544   49.9123   55.9859 C   0  0  0  0  0  0  0  0  0  0  0  0
   77.8008   49.2133   55.1306 C   0  0  0  0  0  0  0  0  0  0  0  0
   79.1630   49.1334   55.3793 C   0  0  0  0  0  0  0  0  0  0  0  0
   79.7131   49.7471   56.4835 C   0  0  0  0  0  0  0  0  0  0  0  0
   81.0899   49.6391   56.6935 O   0  0  0  0  0  0  0  0  0  0  0  0
   78.8901   50.4403   57.3372 C   0  0  0  0  0  0  0  0  0  0  0  0
   79.4644   51.0296   58.4101 F   0  0  0  0  0  0  0  0  0  0  0  0
   77.5503   50.5065   57.0732 C   0  0  0  0  0  0  0  0  0  0  0  0
   70.7374   50.3139   56.0138 C   0  0  0  0  0  0  0  0  0  0  0  0
   68.9278   47.9610   56.8448 O   0  0  0  0  0  0  0  0  0  0  0  0
   69.2661   48.2418   55.6495 C   0  0  0  0  0  0  0  0  0  0  0  0
   68.8416   47.4751   54.4722 C   0  0  0  0  0  0  0  0  0  0  0  0
   68.0462   46.3570   54.3292 C   0  0  0  0  0  0  0  0  0  0  0  0
   67.7779   45.7947   53.0909 C   0  0  0  0  0  0  0  0  0  0  0  0
   68.3126   46.3566   51.9520 C   0  0  0  0  0  0  0  0  0  0  0  0
   69.1092   47.4767   52.0999 C   0  0  0  0  0  0  0  0  0  0  0  0
   69.3775   48.0363   53.3344 C   0  0  0  0  0  0  0  0  0  0  0  0
   70.1557   49.1790   53.7910 C   0  0  0  0  0  0  0  0  0  0  0  0
   70.7941   49.9376   53.0032 O   0  0  0  0  0  0  0  0  0  0  0  0
   70.0940   49.3147   55.2156 N   0  0  0  0  0  0  0  0  0  0  0  0
 16 17  2  0
 17 18  1  0
 17 26  1  0
 18 19  2  0
 18 23  1  0
 19 20  1  0
 20 21  2  0
 21 22  1  0
 22 23  2  0
 23 24  1  0
 24 25  2  0
 24 26  1  0
 26 15  1  0
 15  1  1  0
  2  1  1  1
  2  3  1  0
  2  6  1  0
  3  4  1  0
  4  7  1  0
  4  5  2  0
  7  8  2  0
  7 14  1  0
  8  9  1  0
  9 10  2  0
 10 11  1  0
 10 12  1  0
 12 13  1  0
 12 14  2  0
  5  6  1  0
M  END
>  <minimizedAffinity>  (541) 
-8.58361

$$$$
data/reference_output_2/data/smiles/134380.pdb
     RDKit          3D

 26 28  0  0  0  0  0  0  0  0999 V2000
   66.9586   42.1182   55.5630 O   0  0  0  0  0  0  0  0  0  0  0  0
   67.6628   41.5895   56.4652 C   0  0  0  0  0  0  0  0  0  0  0  0
   67.4458   40.2452   56.8735 N   0  0  0  0  0  0  0  0  0  0  0  0
   68.2168   39.6146   57.8854 C   0  0  0  0  0  0  0  0  0  0  0  0
   68.0110   38.4165   58.2363 O   0  0  0  0  0  0  0  0  0  0  0  0
   69.2697   40.3029   58.5619 N   0  0  0  0  0  0  0  0  0  0  0  0
   69.4962   41.6491   58.1610 C   0  0  0  0  0  0  0  0  0  0  0  0
   70.4109   42.3283   58.7110 O   0  0  0  0  0  0  0  0  0  0  0  0
   68.7145   42.3294   57.1168 C   0  0  0  0  0  0  0  0  0  0  0  0
   68.9392   43.5794   56.7583 C   0  0  0  0  0  0  0  0  0  0  0  0
   70.0752   39.6868   59.5987 C   0  0  0  0  0  0  0  0  0  0  0  0
   70.6982   38.4328   59.1460 C   0  0  0  0  0  0  0  0  0  0  0  0
   71.5416   38.4414   58.0701 C   0  0  0  0  0  0  0  0  0  0  0  0
   72.1297   37.2693   57.6429 C   0  0  0  0  0  0  0  0  0  0  0  0
   71.8779   36.0807   58.2859 C   0  0  0  0  0  0  0  0  0  0  0  0
   72.4585   34.9435   57.8577 F   0  0  0  0  0  0  0  0  0  0  0  0
   71.0302   36.0492   59.3725 C   0  0  0  0  0  0  0  0  0  0  0  0
   70.4500   37.2507   59.7844 C   0  0  0  0  0  0  0  0  0  0  0  0
   68.1924   44.2502   55.7509 N   0  0  0  0  0  0  0  0  0  0  0  0
   68.5400   45.6345   55.4534 C   0  0  0  0  0  0  0  0  0  0  0  0
   68.3186   45.9390   54.0187 C   0  0  0  0  0  0  0  0  0  0  0  0
   69.0307   46.9551   53.4358 C   0  0  0  0  0  0  0  0  0  0  0  0
   68.8247   47.2331   52.1151 C   0  0  0  0  0  0  0  0  0  0  0  0
   67.9145   46.5059   51.3729 C   0  0  0  0  0  0  0  0  0  0  0  0
   67.2142   45.4981   51.9673 N   0  0  0  0  0  0  0  0  0  0  0  0
   67.4180   45.2264   53.2644 C   0  0  0  0  0  0  0  0  0  0  0  0
  1  2  2  0
  2  3  1  0
  2  9  1  0
  3  4  1  0
  4  5  2  0
  4  6  1  0
  6 11  1  0
  6  7  1  0
 11 12  1  0
 12 13  2  0
 12 18  1  0
 13 14  1  0
 14 15  2  0
 15 16  1  0
 15 17  1  0
 17 18  2  0
  7  8  2  0
  7  9  1  0
  9 10  2  0
 10 19  1  0
 19 20  1  0
 20 21  1  0
 21 22  2  0
 21 26  1  0
 22 23  1  0
 23 24  2  0
 24 25  1  0
 25 26  2  0
M  END
>  <minimizedAffinity>  (542) 
-8.63466

$$$$
data/reference_output_2/data/smiles/134590.pdb
     RDKit          3D

 28 31  0  0  0  0  0  0  0  0999 V2000
   71.7380   45.7083   58.7855 O   0  0  0  0  0  0  0  0  0  0  0  0
   70.6189   45.2572   58.4350 C   0  0  0  0  0  0  0  0  0  0  0  0
   69.7543   46.1165   57.7198 N   0  0  0  0  0  0  0  0  0  0  0  0
   70.2890   43.8648   58.7966 C   0  0  2  0  0  0  0  0  0  0  0  0
   71.4150   42.8950   58.5009 C   0  0  0  0  0  0  0  0  0  0  0  0
   70.6788   41.6129   58.3908 C   0  0  0  0  0  0  0  0  0  0  0  0
   69.3684   41.9302   58.1132 C   0  0  0  0  0  0  0  0  0  0  0  0
   68.4831   40.8826   57.9637 C   0  0  0  0  0  0  0  0  0  0  0  0
   68.8537   39.5589   58.0813 C   0  0  0  0  0  0  0  0  0  0  0  0
   70.1841   39.2445   58.3631 C   0  0  0  0  0  0  0  0  0  0  0  0
   70.5969   37.9346   58.4891 C   0  0  0  0  0  0  0  0  0  0  0  0
   71.9150   37.6058   58.7696 C   0  0  0  0  0  0  0  0  0  0  0  0
   72.8040   38.6443   58.9196 C   0  0  0  0  0  0  0  0  0  0  0  0
   72.3929   39.9517   58.7939 C   0  0  0  0  0  0  0  0  0  0  0  0
   71.0704   40.2993   58.5125 C   0  0  0  0  0  0  0  0  0  0  0  0
   69.2402   43.3328   58.0428 O   0  0  0  0  0  0  0  0  0  0  0  0
   70.0822   47.4318   57.3853 N   0  0  0  0  0  0  0  0  0  0  0  0
   68.7309   48.1323   56.5756 S   0  0  0  0  0  0  0  0  0  0  0  0
   67.4519   47.5654   57.1664 O   0  0  0  0  0  0  0  0  0  0  0  0
   68.6965   49.6190   56.8034 O   0  0  0  0  0  0  0  0  0  0  0  0
   68.7772   47.7382   54.8706 C   0  0  0  0  0  0  0  0  0  0  0  0
   69.1805   48.6579   53.9234 C   0  0  0  0  0  0  0  0  0  0  0  0
   69.2223   48.3575   52.5722 C   0  0  0  0  0  0  0  0  0  0  0  0
   68.8509   47.1005   52.1396 C   0  0  0  0  0  0  0  0  0  0  0  0
   68.8758   46.7565   50.8174 F   0  0  0  0  0  0  0  0  0  0  0  0
   68.4486   46.1721   53.0570 C   0  0  0  0  0  0  0  0  0  0  0  0
   68.4142   46.4927   54.4035 C   0  0  0  0  0  0  0  0  0  0  0  0
   68.0122   45.5576   55.2850 F   0  0  0  0  0  0  0  0  0  0  0  0
  1  2  2  0
  2  3  1  0
  4  2  1  6
  3 17  1  0
 17 18  1  0
 18 19  2  0
 18 20  2  0
 18 21  1  0
 21 22  2  0
 21 27  1  0
 22 23  1  0
 23 24  2  0
 24 25  1  0
 24 26  1  0
 26 27  2  0
 27 28  1  0
  4  5  1  0
  4 16  1  0
  5  6  1  0
  6  7  2  0
  6 15  1  0
  7  8  1  0
  7 16  1  0
  8  9  2  0
  9 10  1  0
 10 11  1  0
 10 15  2  0
 11 12  2  0
 12 13  1  0
 13 14  2  0
 14 15  1  0
M  END
>  <minimizedAffinity>  (543) 
-8.72825

$$$$
data/reference_output_2/data/smiles/134680.pdb
     RDKit          3D

 23 25  0  0  0  0  0  0  0  0999 V2000
   69.2317   46.5273   57.2194 N   0  0  0  0  0  0  0  0  0  0  0  0
   68.7594   47.2762   56.3153 C   0  0  0  0  0  0  0  0  0  0  0  0
   68.6494   46.8865   54.9244 C   0  0  0  0  0  0  0  0  0  0  0  0
   67.9507   45.8478   54.3884 C   0  0  0  0  0  0  0  0  0  0  0  0
   67.7977   45.6403   53.0222 C   0  0  0  0  0  0  0  0  0  0  0  0
   68.3860   46.5315   52.1627 C   0  0  0  0  0  0  0  0  0  0  0  0
   69.1098   47.6042   52.6481 C   0  0  0  0  0  0  0  0  0  0  0  0
   69.2317   47.7675   54.0035 C   0  0  0  0  0  0  0  0  0  0  0  0
   68.3286   48.6159   56.7488 C   0  0  0  0  0  0  0  0  0  0  0  0
   68.8096   49.8101   56.3479 C   0  0  0  0  0  0  0  0  0  0  0  0
   68.2386   51.0314   56.7322 C   0  0  0  0  0  0  0  0  0  0  0  0
   67.1500   51.0692   57.5511 C   0  0  0  0  0  0  0  0  0  0  0  0
   66.6369   49.8690   57.9816 C   0  0  0  0  0  0  0  0  0  0  0  0
   67.2045   48.6729   57.5966 C   0  0  0  0  0  0  0  0  0  0  0  0
   70.8237   46.0654   59.2785 O   0  0  0  0  0  0  0  0  0  0  0  0
   70.6111   45.0820   58.5182 C   0  0  0  0  0  0  0  0  0  0  0  0
   69.7492   45.3146   57.3998 N   0  0  0  0  0  0  0  0  0  0  0  0
   71.2487   43.8272   58.8336 C   0  0  0  0  0  0  0  0  0  0  0  0
   71.7592   43.0171   57.7902 N   0  0  0  0  0  0  0  0  0  0  0  0
   73.1566   43.3732   57.5125 C   0  0  0  0  0  0  0  0  0  0  0  0
   74.0305   42.4448   58.2852 C   0  0  0  0  0  0  0  0  0  0  0  0
   73.0528   41.5256   58.9764 C   0  0  0  0  0  0  0  0  0  0  0  0
   71.8634   41.6062   58.0646 C   0  0  0  0  0  0  0  0  0  0  0  0
 15 16  2  0
 16 18  1  0
 16 17  1  0
 18 19  1  0
 19 20  1  0
 19 23  1  0
 20 21  1  0
 21 22  1  0
 22 23  1  0
 17  1  1  0
  1  2  2  0
  2  3  1  0
  2  9  1  0
  3  4  2  0
  3  8  1  0
  4  5  1  0
  5  6  2  0
  6  7  1  0
  7  8  2  0
  9 10  2  0
  9 14  1  0
 10 11  1  0
 11 12  2  0
 12 13  1  0
 13 14  2  0
M  CHG  1  19   1
M  END
>  <minimizedAffinity>  (544) 
-8.59352

$$$$
data/reference_output_2/data/smiles/134694.pdb
     RDKit          3D

 31 34  0  0  0  0  0  0  0  0999 V2000
   73.0443   45.7623   58.6866 N   0  0  0  0  0  0  0  0  0  0  0  0
   72.8554   44.4030   58.1494 C   0  0  0  0  0  0  0  0  0  0  0  0
   71.4276   44.4587   57.6149 C   0  0  0  0  0  0  0  0  0  0  0  0
   70.6928   45.3836   58.5272 C   0  0  1  0  0  0  0  0  0  0  0  0
   69.7985   44.7144   59.3461 O   0  0  0  0  0  0  0  0  0  0  0  0
   71.7838   46.0862   59.2655 C   0  0  0  0  0  0  0  0  0  0  0  0
   71.6807   46.8621   60.2564 O   0  0  0  0  0  0  0  0  0  0  0  0
   78.5379   50.9140   57.5522 O   0  0  0  0  0  0  0  0  0  0  0  0
   77.8058   49.9415   57.3614 C   0  0  0  0  0  0  0  0  0  0  0  0
   76.8592   49.8717   56.2329 C   0  0  0  0  0  0  0  0  0  0  0  0
   75.4797   49.6093   56.7595 C   0  0  0  0  0  0  0  0  0  0  0  0
   75.4861   48.4137   57.6355 C   0  0  0  0  0  0  0  0  0  0  0  0
   74.3341   47.6403   57.7814 C   0  0  0  0  0  0  0  0  0  0  0  0
   74.2362   46.5202   58.5702 C   0  0  0  0  0  0  0  0  0  0  0  0
   75.3821   46.1518   59.2660 C   0  0  0  0  0  0  0  0  0  0  0  0
   76.5332   46.9003   59.1391 C   0  0  0  0  0  0  0  0  0  0  0  0
   76.5945   48.0136   58.3393 C   0  0  0  0  0  0  0  0  0  0  0  0
   77.8044   48.7821   58.2154 N   0  0  0  0  0  0  0  0  0  0  0  0
   70.0331   46.4476   57.7341 C   0  0  0  0  0  0  0  0  0  0  0  0
   70.4268   47.6346   57.9944 O   0  0  0  0  0  0  0  0  0  0  0  0
   69.0370   46.2457   56.7571 N   0  0  0  0  0  0  0  0  0  0  0  0
   68.4761   47.4451   56.1157 C   0  0  0  0  0  0  0  0  0  0  0  0
   68.5745   47.1790   54.6331 C   0  0  0  0  0  0  0  0  0  0  0  0
   67.8316   46.1521   54.0726 C   0  0  0  0  0  0  0  0  0  0  0  0
   67.9047   45.8929   52.7391 C   0  0  0  0  0  0  0  0  0  0  0  0
   67.1470   44.8632   52.2380 F   0  0  0  0  0  0  0  0  0  0  0  0
   68.7127   46.6384   51.9179 C   0  0  0  0  0  0  0  0  0  0  0  0
   69.4584   47.6678   52.4789 C   0  0  0  0  0  0  0  0  0  0  0  0
   70.2521   48.3885   51.6310 F   0  0  0  0  0  0  0  0  0  0  0  0
   69.3842   47.9332   53.8409 C   0  0  0  0  0  0  0  0  0  0  0  0
   70.1444   48.9601   54.3282 F   0  0  0  0  0  0  0  0  0  0  0  0
  8  9  2  0
  9 10  1  0
  9 18  1  0
 10 11  1  0
 11 12  1  0
 12 13  1  0
 12 17  2  0
 13 14  2  0
 14  1  1  0
 14 15  1  0
  1  2  1  0
  1  6  1  0
  2  3  1  0
  3  4  1  0
  4  5  1  1
  4 19  1  0
  4  6  1  0
 19 20  2  0
 19 21  1  0
 21 22  1  0
 22 23  1  0
 23 24  2  0
 23 30  1  0
 24 25  1  0
 25 26  1  0
 25 27  2  0
 27 28  1  0
 28 29  1  0
 28 30  2  0
 30 31  1  0
  6  7  2  0
 15 16  2  0
 16 17  1  0
 17 18  1  0
M  END
>  <minimizedAffinity>  (545) 
-9.05156

$$$$
data/reference_output_2/data/smiles/134855.pdb
     RDKit          3D

 21 23  0  0  0  0  0  0  0  0999 V2000
   69.4782   48.2877   54.0100 C   0  0  0  0  0  0  0  0  0  0  0  0
   69.2878   48.0887   55.4068 C   0  0  0  0  0  0  0  0  0  0  0  0
   68.4285   47.1276   55.8234 C   0  0  0  0  0  0  0  0  0  0  0  0
   68.2500   46.9420   57.0882 O   0  0  0  0  0  0  0  0  0  0  0  0
   67.7772   46.3875   54.9670 O   0  0  0  0  0  0  0  0  0  0  0  0
   67.8848   46.4918   53.6767 C   0  0  0  0  0  0  0  0  0  0  0  0
   67.1944   45.6989   52.8383 N   0  0  0  0  0  0  0  0  0  0  0  0
   67.3329   45.8247   51.5118 C   0  0  0  0  0  0  0  0  0  0  0  0
   66.6660   45.0596   50.7257 O   0  0  0  0  0  0  0  0  0  0  0  0
   68.1621   46.7421   51.0192 N   0  0  0  0  0  0  0  0  0  0  0  0
   68.8864   47.5735   51.8090 C   0  0  0  0  0  0  0  0  0  0  0  0
   69.6516   48.4100   51.3191 O   0  0  0  0  0  0  0  0  0  0  0  0
   68.7631   47.4718   53.1722 C   0  0  0  0  0  0  0  0  0  0  0  0
   70.3419   49.3685   53.5928 C   0  0  0  0  0  0  0  0  0  0  0  0
   69.8477   50.7533   53.6755 C   0  0  0  0  0  0  0  0  0  0  0  0
   68.8168   51.2782   54.5395 C   0  0  0  0  0  0  0  0  0  0  0  0
   68.9901   51.6373   55.9574 C   0  0  0  0  0  0  0  0  0  0  0  0
   69.3390   53.1647   56.0865 C   0  0  0  0  0  0  0  0  0  0  0  0
   70.1043   52.0556   56.7618 C   0  0  0  0  0  0  0  0  0  0  0  0
   67.8446   50.3449   57.7818 C   0  0  0  0  0  0  0  0  0  0  0  0
   67.6516   51.4419   56.7889 C   0  0  0  0  0  0  0  0  0  0  0  0
 20 21  1  0
 21 17  1  0
 17 16  1  0
 17 18  1  0
 17 19  1  0
 16 15  1  0
 15 14  1  0
 14  1  1  0
  1  2  2  0
  1 13  1  0
  2  3  1  0
  3  4  2  0
  3  5  1  0
  5  6  1  0
  6  7  1  0
  6 13  2  0
  7  8  1  0
  8  9  2  0
  8 10  1  0
 10 11  1  0
 11 12  2  0
 11 13  1  0
 18 19  1  0
M  END
>  <minimizedAffinity>  (546) 
-9.23488

$$$$
data/reference_output_2/data/smiles/134939.pdb
     RDKit          3D

 26 29  0  0  0  0  0  0  0  0999 V2000
   69.3458   48.7557   53.0993 C   0  0  0  0  0  0  0  0  0  0  0  0
   69.3555   48.4215   51.7770 N   0  0  0  0  0  0  0  0  0  0  0  0
   68.9318   47.1786   51.6209 N   0  0  0  0  0  0  0  0  0  0  0  0
   68.6231   46.6305   52.8118 C   0  0  0  0  0  0  0  0  0  0  0  0
   68.1493   45.3998   53.2253 C   0  0  0  0  0  0  0  0  0  0  0  0
   67.9173   45.1059   54.5619 C   0  0  0  0  0  0  0  0  0  0  0  0
   68.1806   46.0895   55.4418 N   0  0  0  0  0  0  0  0  0  0  0  0
   68.6477   47.3101   55.0603 C   0  0  0  0  0  0  0  0  0  0  0  0
   68.8844   47.6233   53.7370 C   0  0  0  0  0  0  0  0  0  0  0  0
   72.9191   51.6316   54.9448 C   0  0  0  0  0  0  0  0  0  0  0  0
   71.4958   51.3942   54.5782 C   0  0  0  0  0  0  0  0  0  0  0  0
   71.0693   50.2023   54.0159 C   0  0  0  0  0  0  0  0  0  0  0  0
   69.7381   50.0285   53.6924 C   0  0  0  0  0  0  0  0  0  0  0  0
   68.7885   51.0050   53.9056 C   0  0  0  0  0  0  0  0  0  0  0  0
   69.2594   52.1876   54.4719 C   0  0  0  0  0  0  0  0  0  0  0  0
   70.5602   52.3375   54.7810 N   0  0  0  0  0  0  0  0  0  0  0  0
   67.4278   43.8383   54.9816 N   0  0  0  0  0  0  0  0  0  0  0  0
   67.9269   43.0994   56.0815 C   0  0  0  0  0  0  0  0  0  0  0  0
   68.8732   43.6033   56.7389 O   0  0  0  0  0  0  0  0  0  0  0  0
   67.4114   41.8321   56.4685 N   0  0  0  0  0  0  0  0  0  0  0  0
   67.9235   41.0839   57.5896 C   0  0  0  0  0  0  0  0  0  0  0  0
   67.2500   41.4367   58.8595 C   0  0  0  0  0  0  0  0  0  0  0  0
   66.3570   40.7041   59.5996 C   0  0  0  0  0  0  0  0  0  0  0  0
   66.0159   41.4587   60.6911 C   0  0  0  0  0  0  0  0  0  0  0  0
   66.6841   42.6086   60.6079 N   0  0  0  0  0  0  0  0  0  0  0  0
   67.4111   42.5854   59.5194 N   0  0  0  0  0  0  0  0  0  0  0  0
 10 11  1  0
 11 12  2  0
 11 16  1  0
 12 13  1  0
 13  1  1  0
 13 14  2  0
  1  2  2  0
  1  9  1  0
  2  3  1  0
  3  4  1  0
  4  5  1  0
  4  9  2  0
  5  6  2  0
  6 17  1  0
  6  7  1  0
 17 18  1  0
 18 19  2  0
 18 20  1  0
 20 21  1  0
 21 22  1  0
 22 23  1  0
 22 26  2  0
 23 24  2  0
 24 25  1  0
 25 26  1  0
  7  8  2  0
  8  9  1  0
 14 15  1  0
 15 16  2  0
M  END
>  <minimizedAffinity>  (547) 
-8.54935

$$$$
data/reference_output_2/data/smiles/135141.pdb
     RDKit          3D

 25 28  0  0  0  0  0  0  0  0999 V2000
   67.8866   43.3389   56.6587 N   0  0  0  0  0  0  0  0  0  0  0  0
   67.8953   41.9287   56.8459 C   0  0  0  0  0  0  0  0  0  0  0  0
   67.9101   41.2375   55.7736 O   0  0  0  0  0  0  0  0  0  0  0  0
   67.8870   41.2673   58.1607 C   0  0  2  0  0  0  0  0  0  0  0  0
   68.1203   39.7858   57.9703 C   0  0  0  0  0  0  0  0  0  0  0  0
   68.0234   39.0615   59.2915 C   0  0  1  0  0  0  0  0  0  0  0  0
   69.0664   39.6039   60.2231 C   0  0  0  0  0  0  0  0  0  0  0  0
   68.8521   41.0881   60.4002 C   0  0  2  0  0  0  0  0  0  0  0  0
   67.5010   41.3408   61.0398 C   0  0  0  0  0  0  0  0  0  0  0  0
   66.4569   40.7335   60.1347 C   0  0  2  0  0  0  0  0  0  0  0  0
   66.6706   39.2527   59.9294 C   0  0  0  0  0  0  0  0  0  0  0  0
   66.5131   41.4088   58.8059 C   0  0  0  0  0  0  0  0  0  0  0  0
   68.9083   41.8318   59.1062 C   0  0  0  0  0  0  0  0  0  0  0  0
   68.5835   45.9286   56.1261 O   0  0  0  0  0  0  0  0  0  0  0  0
   68.2610   45.2461   55.1206 C   0  0  0  0  0  0  0  0  0  0  0  0
   67.8951   43.8981   55.3693 N   0  0  0  0  0  0  0  0  0  0  0  0
   68.2795   45.8533   53.7966 C   0  0  0  0  0  0  0  0  0  0  0  0
   67.5209   45.4190   52.7371 C   0  0  0  0  0  0  0  0  0  0  0  0
   67.5587   46.0124   51.4951 C   0  0  0  0  0  0  0  0  0  0  0  0
   68.3830   47.0948   51.2691 C   0  0  0  0  0  0  0  0  0  0  0  0
   69.1594   47.5611   52.3035 C   0  0  0  0  0  0  0  0  0  0  0  0
   69.0973   46.9357   53.5506 C   0  0  0  0  0  0  0  0  0  0  0  0
   70.0351   48.6887   52.1098 N   0  0  0  0  0  0  0  0  0  0  0  0
   69.8512   49.5127   51.2116 O   0  0  0  0  0  0  0  0  0  0  0  0
   71.0966   48.8316   52.9601 O   0  0  0  0  0  0  0  0  0  0  0  0
 14 15  2  0
 15 16  1  0
 15 17  1  0
 16  1  1  0
  1  2  1  0
  2  3  2  0
  4  2  1  6
  4  5  1  0
  4 12  1  0
  4 13  1  0
  6  5  1  6
  6  7  1  0
  6 11  1  0
  8  7  1  6
  8  9  1  0
  8 13  1  0
 10  9  1  1
 10 11  1  0
 10 12  1  0
 17 18  2  0
 17 22  1  0
 18 19  1  0
 19 20  2  0
 20 21  1  0
 21 23  1  0
 21 22  2  0
 23 24  2  0
 23 25  1  0
M  CHG  2  23   1  25  -1
M  END
>  <minimizedAffinity>  (548) 
-8.75431

$$$$
data/reference_output_2/data/smiles/135264.pdb
     RDKit          3D

 25 28  0  0  0  0  0  0  0  0999 V2000
   69.0089   47.5392   56.6219 S   0  0  0  0  0  0  0  0  0  0  0  0
   69.3483   46.0516   56.7226 O   0  0  0  0  0  0  0  0  0  0  0  0
   67.5461   47.6005   56.9661 O   0  0  0  0  0  0  0  0  0  0  0  0
   67.0023   45.3638   50.6727 N   0  0  0  0  0  0  0  0  0  0  0  0
   67.5817   46.0102   51.8018 C   0  0  0  0  0  0  0  0  0  0  0  0
   67.3242   45.6413   53.0979 C   0  0  0  0  0  0  0  0  0  0  0  0
   67.8876   46.2700   54.1903 C   0  0  0  0  0  0  0  0  0  0  0  0
   68.7504   47.3185   53.9504 C   0  0  0  0  0  0  0  0  0  0  0  0
   69.3532   47.9924   54.9949 C   0  0  0  0  0  0  0  0  0  0  0  0
   70.2064   49.0286   54.6756 C   0  0  0  0  0  0  0  0  0  0  0  0
   70.4676   49.4014   53.3703 C   0  0  0  0  0  0  0  0  0  0  0  0
   69.8703   48.7349   52.3222 C   0  0  0  0  0  0  0  0  0  0  0  0
   70.1447   49.1243   51.0162 O   0  0  0  0  0  0  0  0  0  0  0  0
   69.0172   47.7002   52.6292 C   0  0  0  0  0  0  0  0  0  0  0  0
   68.4308   47.0408   51.6152 N   0  0  0  0  0  0  0  0  0  0  0  0
   69.9697   48.3218   57.8076 N   0  0  0  0  0  0  0  0  0  0  0  0
   70.0039   49.7230   58.1847 C   0  0  0  0  0  0  0  0  0  0  0  0
   71.4354   49.9583   58.6546 C   0  0  0  0  0  0  0  0  0  0  0  0
   71.8233   48.6142   59.1620 C   0  0  0  0  0  0  0  0  0  0  0  0
   72.8553   48.2635   59.9975 C   0  0  0  0  0  0  0  0  0  0  0  0
   73.9445   49.5031   60.6204 Cl  0  0  0  0  0  0  0  0  0  0  0  0
   73.0536   46.9480   60.3592 C   0  0  0  0  0  0  0  0  0  0  0  0
   72.1715   45.9968   59.8467 C   0  0  0  0  0  0  0  0  0  0  0  0
   71.1409   46.3690   59.0081 C   0  0  0  0  0  0  0  0  0  0  0  0
   70.9470   47.6855   58.6502 C   0  0  0  0  0  0  0  0  0  0  0  0
  4  5  1  0
  5  6  2  0
  5 15  1  0
  6  7  1  0
  7  8  2  0
  8  9  1  0
  8 14  1  0
  9  1  1  0
  9 10  2  0
  1  2  2  0
  1  3  2  0
  1 16  1  0
 16 17  1  0
 16 25  1  0
 17 18  1  0
 18 19  1  0
 19 20  1  0
 19 25  2  0
 20 21  1  0
 20 22  2  0
 22 23  1  0
 23 24  2  0
 24 25  1  0
 10 11  1  0
 11 12  2  0
 12 13  1  0
 12 14  1  0
 14 15  2  0
M  END
>  <minimizedAffinity>  (549) 
-8.76348

$$$$
data/reference_output_2/data/smiles/135283.pdb
     RDKit          3D

 21 22  0  0  0  0  0  0  0  0999 V2000
   68.5830   47.5199   55.2745 C   0  0  0  0  0  0  0  0  0  0  0  0
   67.7901   46.5617   54.6033 C   0  0  0  0  0  0  0  0  0  0  0  0
   67.8958   46.3916   53.2490 C   0  0  0  0  0  0  0  0  0  0  0  0
   67.0950   45.4286   52.5960 O   0  0  0  0  0  0  0  0  0  0  0  0
   68.7488   47.1056   52.4351 C   0  0  0  0  0  0  0  0  0  0  0  0
   68.8145   46.8911   51.0715 O   0  0  0  0  0  0  0  0  0  0  0  0
   69.5308   48.0510   53.1008 C   0  0  0  0  0  0  0  0  0  0  0  0
   69.4230   48.2228   54.4610 C   0  0  0  0  0  0  0  0  0  0  0  0
   70.4284   48.8266   52.3297 N   0  0  0  0  0  0  0  0  0  0  0  0
   71.6143   49.0130   52.6613 O   0  0  0  0  0  0  0  0  0  0  0  0
   70.0286   49.4351   51.1431 O   0  0  0  0  0  0  0  0  0  0  0  0
   68.4547   47.6323   56.7134 C   0  0  0  0  0  0  0  0  0  0  0  0
   68.9856   46.7598   57.4819 O   0  0  0  0  0  0  0  0  0  0  0  0
   67.7238   48.7344   57.3626 C   0  0  0  0  0  0  0  0  0  0  0  0
   70.5075   53.7691   56.4949 C   0  0  0  0  0  0  0  0  0  0  0  0
   69.8043   52.4657   56.7424 C   0  0  0  0  0  0  0  0  0  0  0  0
   68.5626   52.2410   56.1796 C   0  0  0  0  0  0  0  0  0  0  0  0
   67.8937   51.0482   56.3833 C   0  0  0  0  0  0  0  0  0  0  0  0
   68.4306   50.0371   57.1505 C   0  0  0  0  0  0  0  0  0  0  0  0
   69.6685   50.2567   57.7144 C   0  0  0  0  0  0  0  0  0  0  0  0
   70.3449   51.4615   57.5093 C   0  0  0  0  0  0  0  0  0  0  0  0
 15 16  1  0
 16 17  2  0
 16 21  1  0
 17 18  1  0
 18 19  2  0
 19 14  1  0
 19 20  1  0
 14 12  1  0
 12 13  2  0
 12  1  1  0
  1  2  2  0
  1  8  1  0
  2  3  1  0
  3  4  1  0
  3  5  2  0
  5  6  1  0
  5  7  1  0
  7  9  1  0
  7  8  2  0
  9 10  2  0
  9 11  1  0
 20 21  2  0
M  CHG  2   9   1  11  -1
M  END
>  <minimizedAffinity>  (550) 
-8.73739

$$$$
data/reference_output_2/data/smiles/135316.pdb
     RDKit          3D

 31 34  0  0  0  0  0  0  0  0999 V2000
   71.8339   47.5858   58.8343 C   0  0  0  0  0  0  0  0  0  0  0  0
   70.6635   47.8328   58.1546 C   0  0  0  0  0  0  0  0  0  0  0  0
   70.5806   48.7673   57.1368 C   0  0  0  0  0  0  0  0  0  0  0  0
   71.7615   49.4503   56.8315 C   0  0  0  0  0  0  0  0  0  0  0  0
   72.9484   49.2503   57.4637 C   0  0  0  0  0  0  0  0  0  0  0  0
   72.9766   48.3092   58.4712 C   0  0  0  0  0  0  0  0  0  0  0  0
   74.1669   48.1029   59.1111 F   0  0  0  0  0  0  0  0  0  0  0  0
   69.7816   43.0448   59.5434 C   0  0  0  0  0  0  0  0  0  0  0  0
   68.9665   43.2331   58.5594 O   0  0  0  0  0  0  0  0  0  0  0  0
   71.1621   43.2364   59.3762 N   0  0  0  0  0  0  0  0  0  0  0  0
   71.6919   43.6443   58.0998 C   0  0  0  0  0  0  0  0  0  0  0  0
   72.6452   44.8159   58.3874 C   0  0  0  0  0  0  0  0  0  0  0  0
   72.3990   45.3386   59.7268 N   0  0  0  0  0  0  0  0  0  0  0  0
   72.0007   46.6686   59.9279 C   0  0  0  0  0  0  0  0  0  0  0  0
   71.7841   47.0699   61.0992 O   0  0  0  0  0  0  0  0  0  0  0  0
   72.6050   44.4096   60.8311 C   0  0  0  0  0  0  0  0  0  0  0  0
   72.0765   43.0406   60.4549 C   0  0  0  0  0  0  0  0  0  0  0  0
   67.6716   42.2150   60.5450 C   0  0  0  0  0  0  0  0  0  0  0  0
   69.1118   42.6270   60.7945 C   0  0  0  0  0  0  0  0  0  0  0  0
   69.3502   49.0791   56.3812 C   0  0  0  0  0  0  0  0  0  0  0  0
   69.5976   48.9281   54.9304 C   0  0  0  0  0  0  0  0  0  0  0  0
   70.3875   49.8340   54.2682 N   0  0  0  0  0  0  0  0  0  0  0  0
   70.6450   49.7613   52.9784 N   0  0  0  0  0  0  0  0  0  0  0  0
   70.1359   48.7669   52.2069 C   0  0  0  0  0  0  0  0  0  0  0  0
   70.4190   48.7523   50.9817 O   0  0  0  0  0  0  0  0  0  0  0  0
   69.3322   47.8161   52.7979 C   0  0  0  0  0  0  0  0  0  0  0  0
   69.0873   47.9265   54.1455 C   0  0  0  0  0  0  0  0  0  0  0  0
   68.2583   46.9403   54.7389 N   0  0  0  0  0  0  0  0  0  0  0  0
   68.0127   45.6841   54.0666 C   0  0  0  0  0  0  0  0  0  0  0  0
   67.7739   45.8676   52.5877 C   0  0  0  0  0  0  0  0  0  0  0  0
   68.7924   46.7610   51.9441 C   0  0  0  0  0  0  0  0  0  0  0  0
 18 19  1  0
 19  8  1  0
  8  9  2  0
  8 10  1  0
 10 11  1  0
 10 17  1  0
 11 12  1  0
 12 13  1  0
 13 14  1  0
 13 16  1  0
 14 15  2  0
 14  1  1  0
  1  2  2  0
  1  6  1  0
  2  3  1  0
  3 20  1  0
  3  4  2  0
 20 21  1  0
 21 22  2  0
 21 27  1  0
 22 23  1  0
 23 24  1  0
 24 25  2  0
 24 26  1  0
 26 27  2  0
 26 31  1  0
 27 28  1  0
 28 29  1  0
 29 30  1  0
 30 31  1  0
  4  5  1  0
  5  6  2  0
  6  7  1  0
 16 17  1  0
M  END
>  <minimizedAffinity>  (551) 
-8.50628

$$$$
data/reference_output_2/data/smiles/135353.pdb
     RDKit          3D

 26 28  0  0  0  0  0  0  0  0999 V2000
   69.6148   48.2271   55.6232 N   0  0  0  0  0  0  0  0  0  0  0  0
   69.9336   48.8680   54.5427 N   0  0  0  0  0  0  0  0  0  0  0  0
   69.5916   48.4978   53.2700 C   0  0  0  0  0  0  0  0  0  0  0  0
   68.8448   47.3499   53.1099 C   0  0  0  0  0  0  0  0  0  0  0  0
   68.4521   46.8916   51.8719 C   0  0  0  0  0  0  0  0  0  0  0  0
   67.7046   45.7363   51.7245 C   0  0  0  0  0  0  0  0  0  0  0  0
   67.3637   45.0538   52.8698 C   0  0  0  0  0  0  0  0  0  0  0  0
   67.7493   45.5003   54.1123 C   0  0  0  0  0  0  0  0  0  0  0  0
   68.4983   46.6560   54.2713 C   0  0  0  0  0  0  0  0  0  0  0  0
   68.8854   47.1023   55.5054 C   0  0  0  0  0  0  0  0  0  0  0  0
   68.5303   46.4186   56.5017 O   0  0  0  0  0  0  0  0  0  0  0  0
   70.0136   49.3085   52.1647 C   0  0  0  0  0  0  0  0  0  0  0  0
   69.9073   50.5244   52.0876 O   0  0  0  0  0  0  0  0  0  0  0  0
   70.6061   48.6794   51.0521 O   0  0  0  0  0  0  0  0  0  0  0  0
   69.9986   48.6532   56.9526 C   0  0  0  0  0  0  0  0  0  0  0  0
   70.5159   51.1100   56.6349 N   0  0  0  0  0  0  0  0  0  0  0  0
   69.7661   50.0672   57.2492 C   0  0  0  0  0  0  0  0  0  0  0  0
   68.8845   50.4121   58.0722 O   0  0  0  0  0  0  0  0  0  0  0  0
   69.2927   53.1048   55.9886 C   0  0  0  0  0  0  0  0  0  0  0  0
   70.2826   52.5252   56.9354 C   0  0  2  0  0  0  0  0  0  0  0  0
   71.5578   53.2829   56.8866 C   0  0  0  0  0  0  0  0  0  0  0  0
   72.0447   53.7017   55.6703 C   0  0  0  0  0  0  0  0  0  0  0  0
   73.2232   54.4077   55.5470 C   0  0  0  0  0  0  0  0  0  0  0  0
   73.9725   54.7283   56.6558 C   0  0  0  0  0  0  0  0  0  0  0  0
   73.5001   54.3152   57.8865 C   0  0  0  0  0  0  0  0  0  0  0  0
   72.3038   53.6002   57.9983 C   0  0  0  0  0  0  0  0  0  0  0  0
 20 19  1  6
 20 16  1  0
 20 21  1  0
 16 17  1  0
 17 18  2  0
 17 15  1  0
 15  1  1  0
  1  2  1  0
  1 10  1  0
  2  3  2  0
  3 12  1  0
  3  4  1  0
 12 13  2  0
 12 14  1  0
  4  5  2  0
  4  9  1  0
  5  6  1  0
  6  7  2  0
  7  8  1  0
  8  9  2  0
  9 10  1  0
 10 11  2  0
 21 22  2  0
 21 26  1  0
 22 23  1  0
 23 24  2  0
 24 25  1  0
 25 26  2  0
M  END
>  <minimizedAffinity>  (552) 
-8.68614

$$$$
data/reference_output_2/data/smiles/135411.pdb
     RDKit          3D

 29 32  0  0  0  0  0  0  0  0999 V2000
   68.5432   41.5032   57.5657 C   0  0  1  0  0  0  0  0  0  0  0  0
   68.1386   41.8347   59.0076 C   0  0  0  0  0  0  0  0  0  0  0  0
   68.6881   40.6405   59.6981 C   0  0  0  0  0  0  0  0  0  0  0  0
   68.8649   40.5364   60.9311 O   0  0  0  0  0  0  0  0  0  0  0  0
   68.9887   39.6201   58.7581 N   0  0  0  0  0  0  0  0  0  0  0  0
   68.2581   40.0335   57.5448 C   0  0  0  0  0  0  0  0  0  0  0  0
   69.8027   38.4528   58.9147 C   0  0  0  0  0  0  0  0  0  0  0  0
   69.5428   37.5246   59.9031 C   0  0  0  0  0  0  0  0  0  0  0  0
   70.3391   36.3901   60.0520 C   0  0  0  0  0  0  0  0  0  0  0  0
   71.4107   36.1461   59.2286 C   0  0  0  0  0  0  0  0  0  0  0  0
   71.6762   37.0713   58.2367 C   0  0  0  0  0  0  0  0  0  0  0  0
   70.8817   38.1973   58.0933 C   0  0  0  0  0  0  0  0  0  0  0  0
   72.7630   36.7999   57.4207 O   0  0  0  0  0  0  0  0  0  0  0  0
   73.2345   35.5011   57.1389 C   0  0  0  0  0  0  0  0  0  0  0  0
   72.9052   34.4899   58.1987 C   0  0  0  0  0  0  0  0  0  0  0  0
   72.2403   35.0418   59.3207 O   0  0  0  0  0  0  0  0  0  0  0  0
   67.5752   44.2695   55.1326 N   0  0  0  0  0  0  0  0  0  0  0  0
   68.2784   43.4569   56.0862 C   0  0  0  0  0  0  0  0  0  0  0  0
   69.4151   43.8700   56.4550 O   0  0  0  0  0  0  0  0  0  0  0  0
   67.7731   42.2601   56.6111 N   0  0  0  0  0  0  0  0  0  0  0  0
   69.2088   47.8605   53.5210 C   0  0  0  0  0  0  0  0  0  0  0  0
   69.1344   47.6502   54.8852 C   0  0  0  0  0  0  0  0  0  0  0  0
   68.6080   46.4912   55.4338 C   0  0  0  0  0  0  0  0  0  0  0  0
   68.1270   45.4815   54.6248 C   0  0  0  0  0  0  0  0  0  0  0  0
   68.2005   45.6898   53.2626 C   0  0  0  0  0  0  0  0  0  0  0  0
   68.7259   46.8459   52.7196 C   0  0  0  0  0  0  0  0  0  0  0  0
   69.4504   50.4394   53.4652 C   0  0  0  0  0  0  0  0  0  0  0  0
   69.7670   49.0865   52.9581 C   0  0  0  0  0  0  0  0  0  0  0  0
   70.5579   48.9840   51.9913 O   0  0  0  0  0  0  0  0  0  0  0  0
 27 28  1  0
 28 29  2  0
 28 21  1  0
 21 22  2  0
 21 26  1  0
 22 23  1  0
 23 24  2  0
 24 17  1  0
 24 25  1  0
 17 18  1  0
 18 19  2  0
 18 20  1  0
  1 20  1  6
  1  2  1  0
  1  6  1  0
  2  3  1  0
  3  4  2  0
  3  5  1  0
  5  7  1  0
  5  6  1  0
  7  8  2  0
  7 12  1  0
  8  9  1  0
  9 10  2  0
 10 11  1  0
 10 16  1  0
 11 12  2  0
 11 13  1  0
 13 14  1  0
 14 15  1  0
 15 16  1  0
 25 26  2  0
M  END
>  <minimizedAffinity>  (553) 
-8.67115

$$$$
data/reference_output_2/data/smiles/135455.pdb
     RDKit          3D

 19 20  0  0  0  0  0  0  0  0999 V2000
   70.4222   46.1960   57.6492 C   0  0  0  0  0  0  0  0  0  0  0  0
   70.4869   44.8222   57.7022 C   0  0  0  0  0  0  0  0  0  0  0  0
   69.6413   44.0943   56.8902 C   0  0  0  0  0  0  0  0  0  0  0  0
   68.7350   44.7104   56.0263 C   0  0  0  0  0  0  0  0  0  0  0  0
   68.6756   46.0970   55.9774 C   0  0  0  0  0  0  0  0  0  0  0  0
   69.5252   46.8098   56.7936 C   0  0  0  0  0  0  0  0  0  0  0  0
   71.3127   47.0148   58.5034 C   0  0  0  0  0  0  0  0  0  0  0  0
   72.5975   47.6284   61.6547 N   0  0  0  0  0  0  0  0  0  0  0  0
   71.8626   47.2782   60.7139 N   0  0  0  0  0  0  0  0  0  0  0  0
   71.3568   46.5261   59.8619 N   0  0  0  0  0  0  0  0  0  0  0  0
   67.7504   46.7034   55.0866 N   0  0  0  0  0  0  0  0  0  0  0  0
   67.9849   46.6477   53.6974 C   0  0  0  0  0  0  0  0  0  0  0  0
   69.0421   47.2822   53.0842 C   0  0  0  0  0  0  0  0  0  0  0  0
   69.2576   47.2136   51.7256 C   0  0  0  0  0  0  0  0  0  0  0  0
   70.2209   47.7944   51.1821 O   0  0  0  0  0  0  0  0  0  0  0  0
   68.4107   46.5040   50.9751 N   0  0  0  0  0  0  0  0  0  0  0  0
   67.3675   45.8732   51.5611 C   0  0  0  0  0  0  0  0  0  0  0  0
   66.5856   45.2112   50.8248 O   0  0  0  0  0  0  0  0  0  0  0  0
   67.1632   45.9490   52.9015 N   0  0  0  0  0  0  0  0  0  0  0  0
  8  9  2  0
  9 10  2  0
 10  7  1  0
  7  1  1  0
  1  2  2  0
  1  6  1  0
  2  3  1  0
  3  4  2  0
  4  5  1  0
  5 11  1  0
  5  6  2  0
 11 12  1  0
 12 13  2  0
 12 19  1  0
 13 14  1  0
 14 15  2  0
 14 16  1  0
 16 17  1  0
 17 18  2  0
 17 19  1  0
M  CHG  2   8  -1   9   1
M  END
>  <minimizedAffinity>  (554) 
-8.51033

$$$$
data/reference_output_2/data/smiles/135619.pdb
     RDKit          3D

 27 29  0  0  0  0  0  0  0  0999 V2000
   70.3824   49.6004   54.0605 C   0  0  0  0  0  0  0  0  0  0  0  0
   69.9100   49.0331   55.2423 C   0  0  0  0  0  0  0  0  0  0  0  0
   69.1463   47.9253   55.3213 N   0  0  0  0  0  0  0  0  0  0  0  0
   68.8087   47.3193   54.1507 C   0  0  0  0  0  0  0  0  0  0  0  0
   68.0192   46.2096   54.1188 C   0  0  0  0  0  0  0  0  0  0  0  0
   67.6281   45.5555   52.9377 C   0  0  0  0  0  0  0  0  0  0  0  0
   68.0748   46.0763   51.7421 C   0  0  0  0  0  0  0  0  0  0  0  0
   68.8697   47.1968   51.7411 C   0  0  0  0  0  0  0  0  0  0  0  0
   69.2294   47.8085   52.9292 C   0  0  0  0  0  0  0  0  0  0  0  0
   70.0244   48.9631   52.9074 C   0  0  0  0  0  0  0  0  0  0  0  0
   70.3853   49.3792   51.8005 O   0  0  0  0  0  0  0  0  0  0  0  0
   71.1971   50.7933   54.1663 C   0  0  0  0  0  0  0  0  0  0  0  0
   70.9926   51.7766   53.3755 O   0  0  0  0  0  0  0  0  0  0  0  0
   72.2748   50.9490   55.1523 C   0  0  0  0  0  0  0  0  0  0  0  0
   73.5083   51.2607   54.3449 C   0  0  0  0  0  0  0  0  0  0  0  0
   73.9181   50.3227   53.6105 O   0  0  0  0  0  0  0  0  0  0  0  0
   73.7798   53.4796   53.6860 O   0  0  0  0  0  0  0  0  0  0  0  0
   74.2016   52.5256   54.3839 C   0  0  0  0  0  0  0  0  0  0  0  0
   75.3172   52.6704   55.1873 O   0  0  0  0  0  0  0  0  0  0  0  0
   68.7124   47.3590   56.5583 C   0  0  0  0  0  0  0  0  0  0  0  0
   69.7709   46.7225   57.3710 C   0  0  0  0  0  0  0  0  0  0  0  0
   70.6013   47.4516   58.2040 C   0  0  0  0  0  0  0  0  0  0  0  0
   71.5866   46.8272   58.9826 C   0  0  0  0  0  0  0  0  0  0  0  0
   71.7112   45.4581   58.8979 C   0  0  0  0  0  0  0  0  0  0  0  0
   70.8965   44.7355   58.0789 C   0  0  0  0  0  0  0  0  0  0  0  0
   69.9298   45.3639   57.3178 C   0  0  0  0  0  0  0  0  0  0  0  0
   69.1883   44.5385   56.4930 F   0  0  0  0  0  0  0  0  0  0  0  0
 17 18  2  0
 18 19  1  0
 18 15  1  0
 15 16  2  0
 15 14  1  0
 14 12  1  0
 12 13  2  0
 12  1  1  0
  1  2  2  0
  1 10  1  0
  2  3  1  0
  3 20  1  0
  3  4  1  0
 20 21  1  0
 21 22  2  0
 21 26  1  0
 22 23  1  0
 23 24  2  0
 24 25  1  0
 25 26  2  0
 26 27  1  0
  4  5  1  0
  4  9  2  0
  5  6  2  0
  6  7  1  0
  7  8  2  0
  8  9  1  0
  9 10  1  0
 10 11  2  0
M  END
>  <minimizedAffinity>  (555) 
-9.43302

$$$$
data/reference_output_2/data/smiles/135723.pdb
     RDKit          3D

 27 29  0  0  0  0  0  0  0  0999 V2000
   68.3599   45.9494   54.0688 C   0  0  0  0  0  0  0  0  0  0  0  0
   67.7733   45.4277   52.9179 C   0  0  0  0  0  0  0  0  0  0  0  0
   67.8414   46.0626   51.6966 C   0  0  0  0  0  0  0  0  0  0  0  0
   68.5210   47.2741   51.6080 C   0  0  0  0  0  0  0  0  0  0  0  0
   69.1127   47.8243   52.7146 C   0  0  0  0  0  0  0  0  0  0  0  0
   69.0172   47.1487   53.9159 C   0  0  0  0  0  0  0  0  0  0  0  0
   67.8806   43.8838   55.4291 N   0  0  0  0  0  0  0  0  0  0  0  0
   68.2556   45.2333   55.3346 C   0  0  0  0  0  0  0  0  0  0  0  0
   68.5090   45.8412   56.4034 O   0  0  0  0  0  0  0  0  0  0  0  0
   66.7146   41.4795   55.4701 C   0  0  0  0  0  0  0  0  0  0  0  0
   67.2316   42.0527   56.7366 C   0  0  0  0  0  0  0  0  0  0  0  0
   67.7861   43.2104   56.6784 N   0  0  0  0  0  0  0  0  0  0  0  0
   67.1067   41.3090   58.0097 C   0  0  0  0  0  0  0  0  0  0  0  0
   67.7047   40.1116   58.3451 C   0  0  0  0  0  0  0  0  0  0  0  0
   67.2959   39.8097   59.6269 C   0  0  0  0  0  0  0  0  0  0  0  0
   66.4689   40.8338   60.0155 C   0  0  0  0  0  0  0  0  0  0  0  0
   65.8011   40.9099   61.3445 C   0  0  0  0  0  0  0  0  0  0  0  0
   66.3863   41.6909   59.0367 O   0  0  0  0  0  0  0  0  0  0  0  0
   69.9666   49.3544   52.5785 S   0  0  0  0  0  0  0  0  0  0  0  0
   71.4279   49.0670   52.7866 O   0  0  0  0  0  0  0  0  0  0  0  0
   69.8352   49.8674   51.1728 O   0  0  0  0  0  0  0  0  0  0  0  0
   69.3658   50.5221   53.6536 N   0  0  0  0  0  0  0  0  0  0  0  0
   70.0793   51.7493   53.6594 C   0  0  0  0  0  0  0  0  0  0  0  0
   71.3974   51.5695   54.3550 C   0  0  0  0  0  0  0  0  0  0  0  0
   71.2913   50.9523   55.7073 C   0  0  0  0  0  0  0  0  0  0  0  0
   70.2889   49.8540   55.8289 C   0  0  0  0  0  0  0  0  0  0  0  0
   69.0709   50.0641   54.9624 C   0  0  0  0  0  0  0  0  0  0  0  0
 10 11  1  0
 11 12  2  0
 11 13  1  0
 12  7  1  0
  7  8  1  0
  8  9  2  0
  8  1  1  0
  1  2  2  0
  1  6  1  0
  2  3  1  0
  3  4  2  0
  4  5  1  0
  5 19  1  0
  5  6  2  0
 19 20  2  0
 19 21  2  0
 19 22  1  0
 22 23  1  0
 22 27  1  0
 23 24  1  0
 24 25  1  0
 25 26  1  0
 26 27  1  0
 13 14  2  0
 13 18  1  0
 14 15  1  0
 15 16  2  0
 16 17  1  0
 16 18  1  0
M  END
>  <minimizedAffinity>  (556) 
-8.87881

$$$$
data/reference_output_2/data/smiles/136098.pdb
     RDKit          3D

 33 37  0  0  0  0  0  0  0  0999 V2000
   72.0503   48.3405   59.2468 C   0  0  0  0  0  0  0  0  0  0  0  0
   70.8011   48.2990   58.6147 C   0  0  0  0  0  0  0  0  0  0  0  0
   70.3672   49.2116   57.7015 C   0  0  0  0  0  0  0  0  0  0  0  0
   71.2696   50.2499   57.4028 C   0  0  0  0  0  0  0  0  0  0  0  0
   72.5017   50.3130   58.0085 C   0  0  0  0  0  0  0  0  0  0  0  0
   72.9017   49.3702   58.9285 C   0  0  0  0  0  0  0  0  0  0  0  0
   74.1121   49.4204   59.5406 F   0  0  0  0  0  0  0  0  0  0  0  0
   72.3221   47.6312   61.4386 O   0  0  0  0  0  0  0  0  0  0  0  0
   72.3866   47.3231   60.2292 C   0  0  0  0  0  0  0  0  0  0  0  0
   72.7772   46.0360   59.8524 N   0  0  0  0  0  0  0  0  0  0  0  0
   73.0964   45.0542   60.8953 C   0  0  0  0  0  0  0  0  0  0  0  0
   74.5991   44.8513   60.8159 C   0  0  0  0  0  0  0  0  0  0  0  0
   75.0909   45.5053   59.6172 N   0  0  0  0  0  0  0  0  0  0  0  0
   74.3952   45.0404   58.4337 C   0  0  0  0  0  0  0  0  0  0  0  0
   72.9362   45.5439   58.4964 C   0  0  1  0  0  0  0  0  0  0  0  0
   72.1121   44.3748   58.1737 C   0  0  0  0  0  0  0  0  0  0  0  0
   70.7535   44.5434   58.0236 C   0  0  0  0  0  0  0  0  0  0  0  0
   69.9074   43.4890   57.6911 C   0  0  0  0  0  0  0  0  0  0  0  0
   70.4540   42.2393   57.5094 C   0  0  0  0  0  0  0  0  0  0  0  0
   71.8067   42.0462   57.6549 C   0  0  0  0  0  0  0  0  0  0  0  0
   72.6294   43.1042   57.9839 C   0  0  0  0  0  0  0  0  0  0  0  0
   69.0356   49.2086   57.0441 C   0  0  0  0  0  0  0  0  0  0  0  0
   68.8076   48.1239   56.1008 C   0  0  0  0  0  0  0  0  0  0  0  0
   68.2811   46.9411   56.5492 N   0  0  0  0  0  0  0  0  0  0  0  0
   68.0055   45.9353   55.7398 N   0  0  0  0  0  0  0  0  0  0  0  0
   68.2186   45.9927   54.4164 C   0  0  0  0  0  0  0  0  0  0  0  0
   67.9597   45.0462   53.6429 O   0  0  0  0  0  0  0  0  0  0  0  0
   68.7560   47.1592   53.8584 C   0  0  0  0  0  0  0  0  0  0  0  0
   69.0284   48.1836   54.7499 C   0  0  0  0  0  0  0  0  0  0  0  0
   69.6258   49.3669   54.2363 N   0  0  0  0  0  0  0  0  0  0  0  0
   69.5714   49.5896   52.8084 C   0  0  0  0  0  0  0  0  0  0  0  0
   70.0902   48.2834   52.1805 C   0  0  0  0  0  0  0  0  0  0  0  0
   69.0039   47.2519   52.3947 C   0  0  0  0  0  0  0  0  0  0  0  0
  8  9  2  0
  9  1  1  0
  9 10  1  0
  1  2  2  0
  1  6  1  0
  2  3  1  0
  3 22  1  0
  3  4  2  0
 22 23  1  0
 23 24  2  0
 23 29  1  0
 24 25  1  0
 25 26  1  0
 26 27  2  0
 26 28  1  0
 28 29  2  0
 28 33  1  0
 29 30  1  0
 30 31  1  0
 31 32  1  0
 32 33  1  0
  4  5  1  0
  5  6  2  0
  6  7  1  0
 10 11  1  0
 10 15  1  0
 11 12  1  0
 12 13  1  0
 13 14  1  0
 14 15  1  0
 15 16  1  1
 16 17  2  0
 16 21  1  0
 17 18  1  0
 18 19  2  0
 19 20  1  0
 20 21  2  0
M  CHG  1  13   1
M  END
>  <minimizedAffinity>  (557) 
-8.97988

$$$$
data/reference_output_2/data/smiles/136524.pdb
     RDKit          3D

 26 30  0  0  0  0  0  0  0  0999 V2000
   69.7541   46.1815   57.1509 C   0  0  0  0  0  0  0  0  0  0  0  0
   69.2283   44.9406   56.8903 N   0  0  0  0  0  0  0  0  0  0  0  0
   69.5985   43.8446   57.5558 C   0  0  0  0  0  0  0  0  0  0  0  0
   70.5175   43.9907   58.5055 N   0  0  0  0  0  0  0  0  0  0  0  0
   71.0976   45.1848   58.8340 C   0  0  0  0  0  0  0  0  0  0  0  0
   70.7073   46.3255   58.1364 C   0  0  0  0  0  0  0  0  0  0  0  0
   71.2768   47.6477   58.3941 C   0  0  0  0  0  0  0  0  0  0  0  0
   72.1146   47.6068   59.6658 C   0  0  0  0  0  0  0  0  0  0  0  0
   72.9470   46.3951   59.6739 N   0  0  0  0  0  0  0  0  0  0  0  0
   72.1190   45.2297   59.9135 C   0  0  0  0  0  0  0  0  0  0  0  0
   69.1597   47.1219   51.6438 C   0  0  0  0  0  0  0  0  0  0  0  0
   68.2114   46.2092   52.0648 C   0  0  0  0  0  0  0  0  0  0  0  0
   67.8297   46.2238   53.4084 C   0  0  0  0  0  0  0  0  0  0  0  0
   68.3761   47.1186   54.3006 C   0  0  0  0  0  0  0  0  0  0  0  0
   69.3186   48.0225   53.8706 C   0  0  0  0  0  0  0  0  0  0  0  0
   69.7210   48.0278   52.5175 C   0  0  0  0  0  0  0  0  0  0  0  0
   69.8994   48.9910   54.8171 C   0  0  0  0  0  0  0  0  0  0  0  0
   69.9472   48.5578   56.2520 C   0  0  0  0  0  0  0  0  0  0  0  0
   69.3116   47.2993   56.4274 N   0  0  0  0  0  0  0  0  0  0  0  0
   68.0038   47.1568   55.7494 C   0  0  0  0  0  0  0  0  0  0  0  0
   69.0128   42.5439   57.2448 C   0  0  0  0  0  0  0  0  0  0  0  0
   68.0436   42.3854   56.2758 C   0  0  0  0  0  0  0  0  0  0  0  0
   67.4872   41.1551   55.9797 C   0  0  0  0  0  0  0  0  0  0  0  0
   67.8873   40.0569   56.6476 N   0  0  0  0  0  0  0  0  0  0  0  0
   68.8320   40.1804   57.6008 C   0  0  0  0  0  0  0  0  0  0  0  0
   69.4058   41.4042   57.9157 C   0  0  0  0  0  0  0  0  0  0  0  0
 11 12  2  0
 11 16  1  0
 12 13  1  0
 13 14  2  0
 14 15  1  0
 14 20  1  0
 15 16  2  0
 15 17  1  0
 17 18  1  0
 18 19  1  0
 19  1  1  0
 19 20  1  0
  1  2  2  0
  1  6  1  0
  2  3  1  0
  3 21  1  0
  3  4  2  0
 21 22  2  0
 21 26  1  0
 22 23  1  0
 23 24  2  0
 24 25  1  0
 25 26  2  0
  4  5  1  0
  5  6  2  0
  5 10  1  0
  6  7  1  0
  7  8  1  0
  8  9  1  0
  9 10  1  0
M  CHG  1   9   1
M  END
>  <minimizedAffinity>  (558) 
-8.72634

$$$$
data/reference_output_2/data/smiles/136596.pdb
     RDKit          3D

 27 30  0  0  0  0  0  0  0  0999 V2000
   67.7984   43.4626   55.7894 N   0  0  0  0  0  0  0  0  0  0  0  0
   66.7560   42.7851   55.3756 N   0  0  0  0  0  0  0  0  0  0  0  0
   66.6894   41.5818   55.9597 C   0  0  0  0  0  0  0  0  0  0  0  0
   67.7695   41.4868   56.8074 C   0  0  0  0  0  0  0  0  0  0  0  0
   68.4492   42.6806   56.6811 C   0  0  0  0  0  0  0  0  0  0  0  0
   69.6945   43.1061   57.3766 C   0  0  0  0  0  0  0  0  0  0  0  0
   68.1612   40.3789   57.6795 C   0  0  0  0  0  0  0  0  0  0  0  0
   68.9166   39.5136   57.2064 O   0  0  0  0  0  0  0  0  0  0  0  0
   67.7069   40.2779   59.0193 N   0  0  0  0  0  0  0  0  0  0  0  0
   66.8305   41.2296   59.6579 C   0  0  0  0  0  0  0  0  0  0  0  0
   65.6233   40.5612   60.2538 C   0  0  0  0  0  0  0  0  0  0  0  0
   65.7363   39.0877   60.3468 C   0  0  0  0  0  0  0  0  0  0  0  0
   64.5623   38.3791   60.6554 C   0  0  0  0  0  0  0  0  0  0  0  0
   64.5657   37.0069   60.7659 C   0  0  0  0  0  0  0  0  0  0  0  0
   65.7435   36.3192   60.5689 C   0  0  0  0  0  0  0  0  0  0  0  0
   66.9101   37.0208   60.2623 C   0  0  0  0  0  0  0  0  0  0  0  0
   66.9059   38.3891   60.1526 C   0  0  0  0  0  0  0  0  0  0  0  0
   68.1345   39.1537   59.8244 C   0  0  0  0  0  0  0  0  0  0  0  0
   68.4644   46.6793   52.1787 C   0  0  0  0  0  0  0  0  0  0  0  0
   68.4921   46.3198   53.6286 C   0  0  0  0  0  0  0  0  0  0  0  0
   68.1455   45.0916   54.0661 N   0  0  0  0  0  0  0  0  0  0  0  0
   68.1744   44.7785   55.3745 C   0  0  0  0  0  0  0  0  0  0  0  0
   68.5612   45.7345   56.2344 N   0  0  0  0  0  0  0  0  0  0  0  0
   68.9156   46.9718   55.8484 C   0  0  0  0  0  0  0  0  0  0  0  0
   69.2774   47.8610   56.6767 O   0  0  0  0  0  0  0  0  0  0  0  0
   68.8908   47.3069   54.5065 C   0  0  0  0  0  0  0  0  0  0  0  0
   69.2705   48.6597   54.0192 C   0  0  0  0  0  0  0  0  0  0  0  0
 19 20  1  0
 20 21  1  0
 20 26  2  0
 21 22  2  0
 22  1  1  0
 22 23  1  0
  1  2  1  0
  1  5  1  0
  2  3  2  0
  3  4  1  0
  4  7  1  0
  4  5  2  0
  7  8  2  0
  7  9  1  0
  9 10  1  0
  9 18  1  0
 10 11  1  0
 11 12  1  0
 12 13  2  0
 12 17  1  0
 13 14  1  0
 14 15  2  0
 15 16  1  0
 16 17  2  0
 17 18  1  0
  5  6  1  0
 23 24  1  0
 24 25  2  0
 24 26  1  0
 26 27  1  0
M  END
>  <minimizedAffinity>  (559) 
-8.50735

$$$$
data/reference_output_2/data/smiles/136647.pdb
     RDKit          3D

 25 27  0  0  0  0  0  0  0  0999 V2000
   70.0101   44.9942   59.0832 N   0  0  0  0  0  0  0  0  0  0  0  0
   69.9316   43.6291   58.8510 N   0  0  0  0  0  0  0  0  0  0  0  0
   69.0846   42.7902   59.6717 C   0  0  0  0  0  0  0  0  0  0  0  0
   68.4600   43.4008   60.5752 O   0  0  0  0  0  0  0  0  0  0  0  0
   68.9781   41.3329   59.4470 C   0  0  1  0  0  0  0  0  0  0  0  0
   68.4060   40.8596   58.1536 C   0  0  0  0  0  0  0  0  0  0  0  0
   69.8684   40.5996   58.5253 C   0  0  2  0  0  0  0  0  0  0  0  0
   70.2486   39.1855   58.8135 C   0  0  0  0  0  0  0  0  0  0  0  0
   69.5709   38.4000   59.7213 C   0  0  0  0  0  0  0  0  0  0  0  0
   69.9333   37.0893   59.9806 C   0  0  0  0  0  0  0  0  0  0  0  0
   71.0060   36.5279   59.3205 C   0  0  0  0  0  0  0  0  0  0  0  0
   71.6952   37.2927   58.4125 C   0  0  0  0  0  0  0  0  0  0  0  0
   71.3195   38.6169   58.1588 C   0  0  0  0  0  0  0  0  0  0  0  0
   70.2652   45.9656   58.1642 C   0  0  0  0  0  0  0  0  0  0  0  0
   71.2323   47.2303   58.7472 S   0  0  0  0  0  0  0  0  0  0  0  0
   67.9465   47.2722   56.9075 O   0  0  0  0  0  0  0  0  0  0  0  0
   68.8224   46.7280   56.2140 C   0  0  0  0  0  0  0  0  0  0  0  0
   69.9212   46.1143   56.8350 N   0  0  0  0  0  0  0  0  0  0  0  0
   68.6622   46.7556   54.7699 C   0  0  0  0  0  0  0  0  0  0  0  0
   69.1607   47.7066   53.9186 C   0  0  0  0  0  0  0  0  0  0  0  0
   68.9498   47.6425   52.5316 C   0  0  0  0  0  0  0  0  0  0  0  0
   68.2363   46.6271   51.9613 C   0  0  0  0  0  0  0  0  0  0  0  0
   68.0164   46.5413   50.6198 F   0  0  0  0  0  0  0  0  0  0  0  0
   67.7255   45.6601   52.7972 C   0  0  0  0  0  0  0  0  0  0  0  0
   67.9353   45.7285   54.1547 C   0  0  0  0  0  0  0  0  0  0  0  0
 16 17  2  0
 17 18  1  0
 17 19  1  0
 18 14  1  0
 14 15  2  0
 14  1  1  0
  1  2  1  0
  2  3  1  0
  3  4  2  0
  5  3  1  6
  5  6  1  0
  5  7  1  0
  6  7  1  0
  7  8  1  1
  8  9  2  0
  8 13  1  0
  9 10  1  0
 10 11  2  0
 11 12  1  0
 12 13  2  0
 19 20  2  0
 19 25  1  0
 20 21  1  0
 21 22  2  0
 22 23  1  0
 22 24  1  0
 24 25  2  0
M  END
>  <minimizedAffinity>  (560) 
-8.91046

$$$$
data/reference_output_2/data/smiles/136728.pdb
     RDKit          3D

 22 24  0  0  0  0  0  0  0  0999 V2000
   69.1613   48.0255   56.4994 C   0  0  2  0  0  0  0  0  0  0  0  0
   69.7312   48.3844   55.1779 C   0  0  0  0  0  0  0  0  0  0  0  0
   70.7285   49.2863   54.8767 C   0  0  0  0  0  0  0  0  0  0  0  0
   70.9460   49.3113   53.5488 N   0  0  0  0  0  0  0  0  0  0  0  0
   70.1084   48.4407   52.9676 C   0  0  0  0  0  0  0  0  0  0  0  0
   69.8995   48.0637   51.6493 C   0  0  0  0  0  0  0  0  0  0  0  0
   70.5955   48.5993   50.7479 O   0  0  0  0  0  0  0  0  0  0  0  0
   68.9761   47.1539   51.3744 N   0  0  0  0  0  0  0  0  0  0  0  0
   68.2313   46.5792   52.3165 C   0  0  0  0  0  0  0  0  0  0  0  0
   67.2618   45.6125   51.9376 N   0  0  0  0  0  0  0  0  0  0  0  0
   68.4232   46.9345   53.5974 N   0  0  0  0  0  0  0  0  0  0  0  0
   69.3362   47.8483   53.9734 C   0  0  0  0  0  0  0  0  0  0  0  0
   68.2526   49.0905   56.9105 C   0  0  0  0  0  0  0  0  0  0  0  0
   68.3996   50.4277   56.6110 C   0  0  0  0  0  0  0  0  0  0  0  0
   67.5146   51.4037   57.0200 C   0  0  0  0  0  0  0  0  0  0  0  0
   66.4112   51.0399   57.7738 C   0  0  0  0  0  0  0  0  0  0  0  0
   66.2347   49.7077   58.0910 C   0  0  0  0  0  0  0  0  0  0  0  0
   67.1457   48.7498   57.6630 C   0  0  0  0  0  0  0  0  0  0  0  0
   70.2937   47.7653   57.4451 C   0  0  0  0  0  0  0  0  0  0  0  0
   69.7083   45.2775   57.4379 N   0  0  0  0  0  0  0  0  0  0  0  0
   70.2472   46.4083   58.0433 C   0  0  0  0  0  0  0  0  0  0  0  0
   70.7435   46.2880   59.2012 O   0  0  0  0  0  0  0  0  0  0  0  0
 20 21  1  0
 21 22  2  0
 21 19  1  0
  1 19  1  1
  1 13  1  0
  1  2  1  0
 13 14  2  0
 13 18  1  0
 14 15  1  0
 15 16  2  0
 16 17  1  0
 17 18  2  0
  2  3  2  0
  2 12  1  0
  3  4  1  0
  4  5  1  0
  5  6  1  0
  5 12  2  0
  6  7  2  0
  6  8  1  0
  8  9  1  0
  9 10  1  0
  9 11  2  0
 11 12  1  0
M  END
>  <minimizedAffinity>  (561) 
-8.50277

$$$$
data/reference_output_2/data/smiles/136806.pdb
     RDKit          3D

 24 26  0  0  0  0  0  0  0  0999 V2000
   68.0427   44.4370   55.3954 C   0  0  0  0  0  0  0  0  0  0  0  0
   67.1059   43.6011   54.9042 N   0  0  0  0  0  0  0  0  0  0  0  0
   67.0786   42.4758   55.6258 N   0  0  0  0  0  0  0  0  0  0  0  0
   68.0029   42.5751   56.5957 C   0  0  0  0  0  0  0  0  0  0  0  0
   68.5811   43.7721   56.4418 N   0  0  0  0  0  0  0  0  0  0  0  0
   69.5359   49.6954   53.4932 C   0  0  0  0  0  0  0  0  0  0  0  0
   69.1499   48.3367   53.9855 C   0  0  0  0  0  0  0  0  0  0  0  0
   68.6583   47.3690   53.1350 C   0  0  0  0  0  0  0  0  0  0  0  0
   68.3054   46.1171   53.6018 C   0  0  0  0  0  0  0  0  0  0  0  0
   68.4241   45.7675   54.9322 C   0  0  0  0  0  0  0  0  0  0  0  0
   68.9171   46.7397   55.7806 C   0  0  0  0  0  0  0  0  0  0  0  0
   69.2697   47.9915   55.3151 C   0  0  0  0  0  0  0  0  0  0  0  0
   68.2627   41.5655   57.5629 N   0  0  0  0  0  0  0  0  0  0  0  0
   68.1668   40.1734   57.2428 C   0  0  0  0  0  0  0  0  0  0  0  0
   67.8464   39.8927   56.0756 O   0  0  0  0  0  0  0  0  0  0  0  0
   68.4348   39.1198   58.2416 C   0  0  0  0  0  0  0  0  0  0  0  0
   69.7673   39.0576   58.6084 O   0  0  0  0  0  0  0  0  0  0  0  0
   70.6044   37.9753   58.6365 C   0  0  0  0  0  0  0  0  0  0  0  0
   71.6941   37.8113   57.8026 C   0  0  0  0  0  0  0  0  0  0  0  0
   72.4639   36.6750   57.9263 C   0  0  0  0  0  0  0  0  0  0  0  0
   72.1709   35.7125   58.8515 C   0  0  0  0  0  0  0  0  0  0  0  0
   71.0898   35.8664   59.6849 C   0  0  0  0  0  0  0  0  0  0  0  0
   70.3109   36.9883   59.5802 C   0  0  0  0  0  0  0  0  0  0  0  0
   69.2529   37.1223   60.4070 F   0  0  0  0  0  0  0  0  0  0  0  0
  6  7  1  0
  7  8  2  0
  7 12  1  0
  8  9  1  0
  9 10  2  0
 10  1  1  0
 10 11  1  0
  1  2  2  0
  1  5  1  0
  2  3  1  0
  3  4  1  0
  4 13  1  0
  4  5  2  0
 13 14  1  0
 14 15  2  0
 14 16  1  0
 16 17  1  0
 17 18  1  0
 18 19  2  0
 18 23  1  0
 19 20  1  0
 20 21  2  0
 21 22  1  0
 22 23  2  0
 23 24  1  0
 11 12  2  0
M  END
>  <minimizedAffinity>  (562) 
-8.76173

$$$$
data/reference_output_2/data/smiles/136827.pdb
     RDKit          3D

 26 27  0  0  0  0  0  0  0  0999 V2000
   69.0828   47.8404   56.9129 S   0  0  0  0  0  0  0  0  0  0  0  0
   69.2736   49.2531   57.5343 O   0  0  0  0  0  0  0  0  0  0  0  0
   67.6341   47.5374   57.1986 O   0  0  0  0  0  0  0  0  0  0  0  0
   71.7595   46.1506   59.2373 C   0  0  0  0  0  0  0  0  0  0  0  0
   71.9098   44.8887   59.3351 C   0  0  0  0  0  0  0  0  0  0  0  0
   70.7347   44.4457   58.1822 C   0  0  0  0  0  0  0  0  0  0  0  0
   70.0731   45.3759   57.5887 C   0  0  0  0  0  0  0  0  0  0  0  0
   70.1362   46.7534   57.7084 C   0  0  0  0  0  0  0  0  0  0  0  0
   71.1189   47.1065   58.6628 C   0  0  0  0  0  0  0  0  0  0  0  0
   73.6753   47.0914   60.9797 C   0  0  0  0  0  0  0  0  0  0  0  0
   72.8857   46.6946   60.2648 C   0  0  0  0  0  0  0  0  0  0  0  0
   74.9234   49.0731   61.7003 C   0  0  0  0  0  0  0  0  0  0  0  0
   74.6832   47.5717   61.8967 C   0  0  0  0  0  0  0  0  0  0  0  0
   74.2152   47.3777   63.3358 C   0  0  0  0  0  0  0  0  0  0  0  0
   75.9677   46.8183   61.6413 C   0  0  0  0  0  0  0  0  0  0  0  0
   69.3401   48.0613   55.2522 N   0  0  0  0  0  0  0  0  0  0  0  0
   68.8185   47.3079   54.1853 C   0  0  0  0  0  0  0  0  0  0  0  0
   68.1749   46.1264   54.3694 C   0  0  0  0  0  0  0  0  0  0  0  0
   67.7285   45.3931   53.2620 C   0  0  0  0  0  0  0  0  0  0  0  0
   67.9385   45.8506   51.9869 C   0  0  0  0  0  0  0  0  0  0  0  0
   68.5842   47.0345   51.8140 C   0  0  0  0  0  0  0  0  0  0  0  0
   69.0289   47.7731   52.9072 C   0  0  0  0  0  0  0  0  0  0  0  0
   69.8498   49.3012   52.6338 S   0  0  0  0  0  0  0  0  0  0  0  0
   69.8264   49.7222   50.9588 N   0  0  0  0  0  0  0  0  0  0  0  0
   71.3131   49.0936   52.9809 O   0  0  0  0  0  0  0  0  0  0  0  0
   69.2104   50.3698   53.5049 O   0  0  0  0  0  0  0  0  0  0  0  0
 12 13  1  0
 13 14  1  0
 13 15  1  0
 13 10  1  0
 10 11  3  0
 11  4  1  0
  4  5  2  0
  4  9  1  0
  5  6  1  0
  6  7  2  0
  7  8  1  0
  8  1  1  0
  8  9  2  0
  1  2  2  0
  1  3  2  0
  1 16  1  0
 16 17  1  0
 17 18  2  0
 17 22  1  0
 18 19  1  0
 19 20  2  0
 20 21  1  0
 21 22  2  0
 22 23  1  0
 23 24  1  0
 23 25  2  0
 23 26  2  0
M  END
>  <minimizedAffinity>  (563) 
-8.50469

$$$$
data/reference_output_2/data/smiles/136949.pdb
     RDKit          3D

 28 31  0  0  0  0  0  0  0  0999 V2000
   68.8288   46.9927   56.6437 C   0  0  2  0  0  0  0  0  0  0  0  0
   68.7436   46.8969   55.1231 C   0  0  0  0  0  0  0  0  0  0  0  0
   69.3715   47.8346   54.3629 C   0  0  0  0  0  0  0  0  0  0  0  0
   69.3178   47.7830   52.9622 C   0  0  0  0  0  0  0  0  0  0  0  0
   68.6178   46.7671   52.3825 C   0  0  0  0  0  0  0  0  0  0  0  0
   67.9721   45.8062   53.1088 C   0  0  0  0  0  0  0  0  0  0  0  0
   68.0459   45.8867   54.5049 C   0  0  0  0  0  0  0  0  0  0  0  0
   68.2706   48.2666   56.9918 C   0  0  0  0  0  0  0  0  0  0  0  0
   66.9371   48.1183   57.1333 O   0  0  0  0  0  0  0  0  0  0  0  0
   68.7374   49.5994   57.2184 C   0  0  0  0  0  0  0  0  0  0  0  0
   69.2752   50.0060   58.4616 C   0  0  0  0  0  0  0  0  0  0  0  0
   69.6256   51.2930   58.4090 N   0  0  0  0  0  0  0  0  0  0  0  0
   69.3585   51.8009   57.1926 C   0  0  0  0  0  0  0  0  0  0  0  0
   69.5449   53.0639   56.6730 C   0  0  0  0  0  0  0  0  0  0  0  0
   69.1720   53.2906   55.3722 C   0  0  0  0  0  0  0  0  0  0  0  0
   68.6300   52.2577   54.6428 C   0  0  0  0  0  0  0  0  0  0  0  0
   68.4503   50.9981   55.1795 C   0  0  0  0  0  0  0  0  0  0  0  0
   68.8081   50.7374   56.4648 C   0  0  0  0  0  0  0  0  0  0  0  0
   70.0640   46.5575   57.0411 O   0  0  0  0  0  0  0  0  0  0  0  0
   70.4559   46.2647   58.3319 C   0  0  0  0  0  0  0  0  0  0  0  0
   69.9193   45.2961   58.9142 O   0  0  0  0  0  0  0  0  0  0  0  0
   73.9692   49.4899   60.9245 O   0  0  0  0  0  0  0  0  0  0  0  0
   73.4094   48.5038   60.4356 C   0  0  0  0  0  0  0  0  0  0  0  0
   73.7279   48.0629   59.0562 C   0  0  0  0  0  0  0  0  0  0  0  0
   72.4549   47.8425   58.2908 C   0  0  0  0  0  0  0  0  0  0  0  0
   71.4850   47.0488   59.0582 C   0  0  0  0  0  0  0  0  0  0  0  0
   71.5064   47.0192   60.3394 N   0  0  0  0  0  0  0  0  0  0  0  0
   72.4362   47.7195   61.1243 N   0  0  0  0  0  0  0  0  0  0  0  0
 22 23  2  0
 23 24  1  0
 23 28  1  0
 24 25  1  0
 25 26  1  0
 26 20  1  0
 26 27  2  0
 20 21  2  0
 20 19  1  0
  1 19  1  6
  1  8  1  0
  1  2  1  0
  8  9  2  0
  8 10  1  0
 10 11  2  0
 10 18  1  0
 11 12  1  0
 12 13  1  0
 13 14  1  0
 13 18  2  0
 14 15  2  0
 15 16  1  0
 16 17  2  0
 17 18  1  0
  2  3  2  0
  2  7  1  0
  3  4  1  0
  4  5  2  0
  5  6  1  0
  6  7  2  0
 27 28  1  0
M  END
>  <minimizedAffinity>  (564) 
-8.68929

$$$$
data/reference_output_2/data/smiles/137004.pdb
     RDKit          3D

 27 30  0  0  0  0  0  0  0  0999 V2000
   69.4546   47.7154   57.2771 C   0  0  0  0  0  0  0  0  0  0  0  0
   70.3169   46.8736   57.7399 C   0  0  0  0  0  0  0  0  0  0  0  0
   70.4114   45.5646   57.2704 N   0  0  0  0  0  0  0  0  0  0  0  0
   70.7255   44.4142   58.0390 C   0  0  0  0  0  0  0  0  0  0  0  0
   71.7361   44.7053   59.1279 C   0  0  1  0  0  0  0  0  0  0  0  0
   72.9421   43.8651   58.9081 C   0  0  0  0  0  0  0  0  0  0  0  0
   72.8204   42.4752   58.8872 C   0  0  0  0  0  0  0  0  0  0  0  0
   73.9055   41.6457   58.6875 C   0  0  0  0  0  0  0  0  0  0  0  0
   75.1512   42.1950   58.5017 C   0  0  0  0  0  0  0  0  0  0  0  0
   75.2866   43.5872   58.5211 C   0  0  0  0  0  0  0  0  0  0  0  0
   74.1977   44.4083   58.7212 C   0  0  0  0  0  0  0  0  0  0  0  0
   74.3926   45.8803   58.7340 C   0  0  0  0  0  0  0  0  0  0  0  0
   73.4005   46.4206   59.7730 C   0  0  0  0  0  0  0  0  0  0  0  0
   72.0921   46.1024   59.2304 N   0  0  0  0  0  0  0  0  0  0  0  0
   71.2644   47.1884   58.8489 C   0  0  0  0  0  0  0  0  0  0  0  0
   71.2833   48.3254   59.3573 O   0  0  0  0  0  0  0  0  0  0  0  0
   67.2319   47.5019   56.7934 O   0  0  0  0  0  0  0  0  0  0  0  0
   68.4802   47.4830   56.2782 C   0  0  0  0  0  0  0  0  0  0  0  0
   68.4678   47.2269   54.8659 C   0  0  0  0  0  0  0  0  0  0  0  0
   67.9207   46.1667   54.1905 C   0  0  0  0  0  0  0  0  0  0  0  0
   68.0115   45.9350   52.8422 C   0  0  0  0  0  0  0  0  0  0  0  0
   68.7059   46.8309   52.0662 C   0  0  0  0  0  0  0  0  0  0  0  0
   69.2792   47.9217   52.6768 C   0  0  0  0  0  0  0  0  0  0  0  0
   69.1732   48.1223   54.0171 C   0  0  0  0  0  0  0  0  0  0  0  0
   70.0032   48.8517   51.8468 N   0  0  0  0  0  0  0  0  0  0  0  0
   70.6603   48.4570   50.8631 O   0  0  0  0  0  0  0  0  0  0  0  0
   69.9937   50.1991   52.1101 O   0  0  0  0  0  0  0  0  0  0  0  0
 17 18  2  0
 18  1  1  0
 18 19  1  0
  1  2  2  0
  2  3  1  0
  2 15  1  0
  3  4  1  0
  5  4  1  6
  5  6  1  0
  5 14  1  0
  6  7  2  0
  6 11  1  0
  7  8  1  0
  8  9  2  0
  9 10  1  0
 10 11  2  0
 11 12  1  0
 12 13  1  0
 13 14  1  0
 14 15  1  0
 15 16  2  0
 19 20  2  0
 19 24  1  0
 20 21  1  0
 21 22  2  0
 22 23  1  0
 23 25  1  0
 23 24  2  0
 25 26  2  0
 25 27  1  0
M  CHG  2  25   1  27  -1
M  END
>  <minimizedAffinity>  (565) 
-8.76830

$$$$
data/reference_output_2/data/smiles/137022.pdb
     RDKit          3D

 31 34  0  0  0  0  0  0  0  0999 V2000
   69.7664   43.2749   57.7199 C   0  0  0  0  0  0  0  0  0  0  0  0
   68.6483   42.5068   57.9532 C   0  0  0  0  0  0  0  0  0  0  0  0
   68.7496   41.1684   58.2565 C   0  0  0  0  0  0  0  0  0  0  0  0
   69.9840   40.5067   58.3466 C   0  0  0  0  0  0  0  0  0  0  0  0
   71.0880   41.2842   58.1116 C   0  0  0  0  0  0  0  0  0  0  0  0
   72.3239   40.7373   58.1725 F   0  0  0  0  0  0  0  0  0  0  0  0
   70.9839   42.6494   57.8023 C   0  0  0  0  0  0  0  0  0  0  0  0
   71.0590   45.2820   59.2944 N   0  0  0  0  0  0  0  0  0  0  0  0
   70.3184   45.6564   58.1668 C   0  0  0  0  0  0  0  0  0  0  0  0
   70.2382   46.9640   57.8563 N   0  0  0  0  0  0  0  0  0  0  0  0
   69.5330   47.3746   56.7746 C   0  0  0  0  0  0  0  0  0  0  0  0
   68.9009   46.4323   55.9995 C   0  0  0  0  0  0  0  0  0  0  0  0
   68.9945   45.1437   56.3266 N   0  0  0  0  0  0  0  0  0  0  0  0
   69.6865   44.7138   57.3927 C   0  0  0  0  0  0  0  0  0  0  0  0
   68.1084   46.8483   54.7892 C   0  0  1  0  0  0  0  0  0  0  0  0
   68.6387   48.1170   54.1819 C   0  0  0  0  0  0  0  0  0  0  0  0
   69.8136   47.8313   53.2419 C   0  0  0  0  0  0  0  0  0  0  0  0
   69.2458   47.0464   52.1143 C   0  0  0  0  0  0  0  0  0  0  0  0
   69.6433   47.1413   50.9255 O   0  0  0  0  0  0  0  0  0  0  0  0
   68.1879   46.1424   52.4423 N   0  0  0  0  0  0  0  0  0  0  0  0
   68.1227   45.6896   53.8153 C   0  0  0  0  0  0  0  0  0  0  0  0
   70.0045   39.0876   58.6758 C   0  0  0  0  0  0  0  0  0  0  0  0
   68.9587   38.4121   58.4328 O   0  0  0  0  0  0  0  0  0  0  0  0
   71.0612   38.3676   59.2406 N   0  0  0  0  0  0  0  0  0  0  0  0
   71.0450   36.9471   59.5582 C   0  0  0  0  0  0  0  0  0  0  0  0
   71.7799   36.1899   58.5197 C   0  0  0  0  0  0  0  0  0  0  0  0
   71.9290   34.8136   58.7125 C   0  0  0  0  0  0  0  0  0  0  0  0
   72.6075   34.0200   57.8048 C   0  0  0  0  0  0  0  0  0  0  0  0
   73.1597   34.5591   56.6785 C   0  0  0  0  0  0  0  0  0  0  0  0
   73.0164   35.9223   56.4802 C   0  0  0  0  0  0  0  0  0  0  0  0
   72.3367   36.7107   57.3932 C   0  0  0  0  0  0  0  0  0  0  0  0
  8  9  1  0
  9 10  2  0
  9 14  1  0
 10 11  1  0
 11 12  2  0
 15 12  1  1
 12 13  1  0
 15 16  1  0
 15 21  1  0
 16 17  1  0
 17 18  1  0
 18 19  2  0
 18 20  1  0
 20 21  1  0
 13 14  2  0
 14  1  1  0
  1  2  2  0
  1  7  1  0
  2  3  1  0
  3  4  2  0
  4 22  1  0
  4  5  1  0
 22 23  2  0
 22 24  1  0
 24 25  1  0
 25 26  1  0
 26 27  2  0
 26 31  1  0
 27 28  1  0
 28 29  2  0
 29 30  1  0
 30 31  2  0
  5  6  1  0
  5  7  2  0
M  END
>  <minimizedAffinity>  (566) 
-9.54803

$$$$
data/reference_output_2/data/smiles/137055.pdb
     RDKit          3D

 27 30  0  0  0  0  0  0  0  0999 V2000
   73.7829   50.0828   56.5895 C   0  0  0  0  0  0  0  0  0  0  0  0
   73.0650   49.2948   57.4642 C   0  0  0  0  0  0  0  0  0  0  0  0
   71.6979   49.1510   57.3773 C   0  0  0  0  0  0  0  0  0  0  0  0
   70.9930   49.7989   56.4016 C   0  0  0  0  0  0  0  0  0  0  0  0
   71.7397   50.5933   55.5232 C   0  0  0  0  0  0  0  0  0  0  0  0
   73.0504   50.6995   55.6471 N   0  0  0  0  0  0  0  0  0  0  0  0
   75.5994   49.3896   54.6316 O   0  0  0  0  0  0  0  0  0  0  0  0
   76.1027   49.8419   55.6953 C   0  0  0  0  0  0  0  0  0  0  0  0
   75.2011   50.2049   56.7102 N   0  0  0  0  0  0  0  0  0  0  0  0
   77.5544   49.9512   55.7843 C   0  0  0  0  0  0  0  0  0  0  0  0
   78.4142   48.9923   55.2906 C   0  0  0  0  0  0  0  0  0  0  0  0
   79.7984   49.1453   55.3996 C   0  0  0  0  0  0  0  0  0  0  0  0
   80.3600   50.2507   55.9997 C   0  0  0  0  0  0  0  0  0  0  0  0
   79.5051   51.2126   56.4948 C   0  0  0  0  0  0  0  0  0  0  0  0
   78.1328   51.0517   56.3821 C   0  0  0  0  0  0  0  0  0  0  0  0
   69.5432   49.7714   56.1758 C   0  0  0  0  0  0  0  0  0  0  0  0
   69.0653   48.4569   55.7085 C   0  0  0  0  0  0  0  0  0  0  0  0
   68.8021   47.5033   56.6785 N   0  0  0  0  0  0  0  0  0  0  0  0
   68.4139   46.2989   56.3557 N   0  0  0  0  0  0  0  0  0  0  0  0
   68.2614   45.9539   55.0800 C   0  0  0  0  0  0  0  0  0  0  0  0
   67.8865   44.7872   54.7921 O   0  0  0  0  0  0  0  0  0  0  0  0
   68.5032   46.8500   54.0721 C   0  0  0  0  0  0  0  0  0  0  0  0
   68.9153   48.1317   54.4126 C   0  0  0  0  0  0  0  0  0  0  0  0
   69.1249   49.0712   53.3074 C   0  0  0  0  0  0  0  0  0  0  0  0
   69.9366   48.4505   52.1833 C   0  0  0  0  0  0  0  0  0  0  0  0
   69.6322   47.0053   51.9541 C   0  0  0  0  0  0  0  0  0  0  0  0
   68.3601   46.5315   52.6282 C   0  0  0  0  0  0  0  0  0  0  0  0
  7  8  2  0
  8  9  1  0
  8 10  1  0
  9  1  1  0
  1  2  2  0
  1  6  1  0
  2  3  1  0
  3  4  2  0
  4 16  1  0
  4  5  1  0
 16 17  1  0
 17 18  2  0
 17 23  1  0
 18 19  1  0
 19 20  1  0
 20 21  2  0
 20 22  1  0
 22 23  2  0
 22 27  1  0
 23 24  1  0
 24 25  1  0
 25 26  1  0
 26 27  1  0
  5  6  2  0
 10 11  2  0
 10 15  1  0
 11 12  1  0
 12 13  2  0
 13 14  1  0
 14 15  2  0
M  END
>  <minimizedAffinity>  (567) 
-9.34898

$$$$
data/reference_output_2/data/smiles/137471.pdb
     RDKit          3D

 26 28  0  0  0  0  0  0  0  0999 V2000
   71.8654   41.8525   58.1766 C   0  0  0  0  0  0  0  0  0  0  0  0
   73.2299   41.9994   58.0134 C   0  0  0  0  0  0  0  0  0  0  0  0
   73.8053   43.2481   57.9040 C   0  0  0  0  0  0  0  0  0  0  0  0
   72.9489   44.3549   57.9674 C   0  0  0  0  0  0  0  0  0  0  0  0
   73.5366   45.5396   57.8592 F   0  0  0  0  0  0  0  0  0  0  0  0
   71.6092   44.2845   58.1257 C   0  0  0  0  0  0  0  0  0  0  0  0
   71.0844   42.9861   58.2303 C   0  0  0  0  0  0  0  0  0  0  0  0
   71.4165   36.8750   58.6805 C   0  0  0  0  0  0  0  0  0  0  0  0
   71.0852   38.3278   58.5144 C   0  0  0  0  0  0  0  0  0  0  0  0
   69.8275   38.9068   58.4019 C   0  0  0  0  0  0  0  0  0  0  0  0
   70.0140   40.2296   58.2710 N   0  0  0  0  0  0  0  0  0  0  0  0
   71.2833   40.5550   58.2886 N   0  0  0  0  0  0  0  0  0  0  0  0
   71.9606   39.3926   58.4384 C   0  0  0  0  0  0  0  0  0  0  0  0
   70.6640   45.3817   58.1998 C   0  0  0  0  0  0  0  0  0  0  0  0
   70.6200   46.1115   59.2623 O   0  0  0  0  0  0  0  0  0  0  0  0
   69.7469   45.7610   57.2024 N   0  0  0  0  0  0  0  0  0  0  0  0
   68.8799   46.8591   57.4155 N   0  0  0  0  0  0  0  0  0  0  0  0
   69.2100   48.0414   56.2004 S   0  0  0  0  0  0  0  0  0  0  0  0
   68.3184   49.2437   56.4446 O   0  0  0  0  0  0  0  0  0  0  0  0
   70.6271   48.5214   56.3235 O   0  0  0  0  0  0  0  0  0  0  0  0
   68.8939   47.4554   54.6068 C   0  0  0  0  0  0  0  0  0  0  0  0
   68.1008   46.3732   54.3133 C   0  0  0  0  0  0  0  0  0  0  0  0
   67.8823   45.9511   53.0272 C   0  0  0  0  0  0  0  0  0  0  0  0
   68.4664   46.6120   51.9502 C   0  0  0  0  0  0  0  0  0  0  0  0
   69.2643   47.6990   52.2295 C   0  0  0  0  0  0  0  0  0  0  0  0
   69.4713   48.1085   53.5245 C   0  0  0  0  0  0  0  0  0  0  0  0
  8  9  1  0
  9 10  1  0
  9 13  2  0
 10 11  2  0
 11 12  1  0
 12  1  1  0
 12 13  1  0
  1  2  2  0
  1  7  1  0
  2  3  1  0
  3  4  2  0
  4  5  1  0
  4  6  1  0
  6 14  1  0
  6  7  2  0
 14 15  2  0
 14 16  1  0
 16 17  1  0
 17 18  1  0
 18 19  2  0
 18 20  2  0
 18 21  1  0
 21 22  2  0
 21 26  1  0
 22 23  1  0
 23 24  2  0
 24 25  1  0
 25 26  2  0
M  END
>  <minimizedAffinity>  (568) 
-8.75560

$$$$
data/reference_output_2/data/smiles/137525.pdb
     RDKit          3D

 28 31  0  0  0  0  0  0  0  0999 V2000
   71.4399   35.6637   59.1974 C   0  0  0  0  0  0  0  0  0  0  0  0
   70.3138   36.2265   59.8325 C   0  0  0  0  0  0  0  0  0  0  0  0
   69.9741   37.5424   59.6222 C   0  0  0  0  0  0  0  0  0  0  0  0
   70.7139   38.3681   58.7855 C   0  0  0  0  0  0  0  0  0  0  0  0
   71.8020   37.8084   58.1759 C   0  0  0  0  0  0  0  0  0  0  0  0
   72.1667   36.4586   58.3793 C   0  0  0  0  0  0  0  0  0  0  0  0
   70.2704   39.7659   58.6337 C   0  0  2  0  0  0  0  0  0  0  0  0
   69.4750   39.9364   57.4975 O   0  0  0  0  0  0  0  0  0  0  0  0
   68.7420   41.1144   57.6720 C   0  0  1  0  0  0  0  0  0  0  0  0
   69.6603   42.2809   57.5912 C   0  0  1  0  0  0  0  0  0  0  0  0
   69.0338   43.3464   58.2795 O   0  0  0  0  0  0  0  0  0  0  0  0
   71.0204   42.1026   58.1584 C   0  0  2  0  0  0  0  0  0  0  0  0
   71.9252   42.5169   57.1460 O   0  0  0  0  0  0  0  0  0  0  0  0
   71.4091   40.7229   58.5610 C   0  0  1  0  0  0  0  0  0  0  0  0
   72.0612   40.8406   59.8164 O   0  0  0  0  0  0  0  0  0  0  0  0
   67.7215   41.1956   56.5593 C   0  0  0  0  0  0  0  0  0  0  0  0
   67.8138   40.0658   55.7171 O   0  0  0  0  0  0  0  0  0  0  0  0
   70.9188   33.6664   60.5130 C   0  0  0  0  0  0  0  0  0  0  0  0
   71.7955   34.2786   59.4636 C   0  0  0  0  0  0  0  0  0  0  0  0
   73.3401   36.0072   57.6504 C   0  0  0  0  0  0  0  0  0  0  0  0
   73.1048   35.2518   56.4072 C   0  0  0  0  0  0  0  0  0  0  0  0
   73.2471   33.8632   56.3879 C   0  0  0  0  0  0  0  0  0  0  0  0
   73.0750   33.1352   55.2379 C   0  0  0  0  0  0  0  0  0  0  0  0
   72.7569   33.7702   54.0799 C   0  0  0  0  0  0  0  0  0  0  0  0
   72.6063   35.1299   54.0451 C   0  0  0  0  0  0  0  0  0  0  0  0
   72.7836   35.8412   55.2093 C   0  0  0  0  0  0  0  0  0  0  0  0
   72.2893   35.1723   52.5954 C   0  0  0  0  0  0  0  0  0  0  0  0
   72.4479   33.6863   52.6325 C   0  0  0  0  0  0  0  0  0  0  0  0
 18 19  1  0
 19  1  1  0
  1  2  2  0
  1  6  1  0
  2  3  1  0
  3  4  2  0
  7  4  1  6
  4  5  1  0
  7  8  1  0
  7 14  1  0
  8  9  1  0
  9 16  1  6
  9 10  1  0
 16 17  1  0
 10 11  1  1
 10 12  1  0
 12 13  1  6
 12 14  1  0
 14 15  1  1
  5  6  2  0
  6 20  1  0
 20 21  1  0
 21 22  2  0
 21 26  1  0
 22 23  1  0
 23 24  2  0
 24 25  1  0
 24 28  1  0
 25 26  2  0
 25 27  1  0
 27 28  1  0
M  END
>  <minimizedAffinity>  (569) 
-8.89650

$$$$
data/reference_output_2/data/smiles/137620.pdb
     RDKit          3D

 28 32  0  0  0  0  0  0  0  0999 V2000
   71.3653   46.8379   58.9326 C   0  0  0  0  0  0  0  0  0  0  0  0
   70.6133   47.7565   58.1849 C   0  0  0  0  0  0  0  0  0  0  0  0
   69.7883   47.3731   57.1776 C   0  0  0  0  0  0  0  0  0  0  0  0
   69.7200   45.9997   56.9120 C   0  0  0  0  0  0  0  0  0  0  0  0
   70.4385   45.0774   57.6213 C   0  0  0  0  0  0  0  0  0  0  0  0
   71.2658   45.5061   58.6369 C   0  0  0  0  0  0  0  0  0  0  0  0
   72.0068   44.6413   59.3772 F   0  0  0  0  0  0  0  0  0  0  0  0
   71.7934   47.1548   61.1825 O   0  0  0  0  0  0  0  0  0  0  0  0
   72.2359   47.3220   60.0102 C   0  0  0  0  0  0  0  0  0  0  0  0
   73.4840   47.9334   59.7597 N   0  0  0  0  0  0  0  0  0  0  0  0
   74.5400   48.5000   60.5586 C   0  0  0  0  0  0  0  0  0  0  0  0
   74.9556   49.2686   59.3821 C   0  0  0  0  0  0  0  0  0  0  0  0
   76.3758   49.5791   59.1405 C   0  0  0  0  0  0  0  0  0  0  0  0
   75.9679   50.9033   58.7033 N   0  0  0  0  0  0  0  0  0  0  0  0
   74.6380   50.6978   59.2537 C   0  0  0  0  0  0  0  0  0  0  0  0
   74.2634   48.2551   58.5933 C   0  0  0  0  0  0  0  0  0  0  0  0
   68.9543   48.2234   56.3140 C   0  0  0  0  0  0  0  0  0  0  0  0
   69.4106   48.2826   54.9074 C   0  0  0  0  0  0  0  0  0  0  0  0
   70.3755   49.1883   54.5563 N   0  0  0  0  0  0  0  0  0  0  0  0
   70.8138   49.3565   53.3353 N   0  0  0  0  0  0  0  0  0  0  0  0
   70.2923   48.6003   52.3594 C   0  0  0  0  0  0  0  0  0  0  0  0
   70.6848   48.7313   51.1710 O   0  0  0  0  0  0  0  0  0  0  0  0
   69.3218   47.6654   52.6183 C   0  0  0  0  0  0  0  0  0  0  0  0
   68.7806   46.8652   51.6365 C   0  0  0  0  0  0  0  0  0  0  0  0
   67.8161   45.9145   51.8986 C   0  0  0  0  0  0  0  0  0  0  0  0
   67.3836   45.7653   53.1930 C   0  0  0  0  0  0  0  0  0  0  0  0
   67.9123   46.5566   54.1867 C   0  0  0  0  0  0  0  0  0  0  0  0
   68.8765   47.5108   53.9283 C   0  0  0  0  0  0  0  0  0  0  0  0
  8  9  2  0
  9  1  1  0
  9 10  1  0
  1  2  2  0
  1  6  1  0
  2  3  1  0
  3 17  1  0
  3  4  2  0
 17 18  1  0
 18 19  2  0
 18 28  1  0
 19 20  1  0
 20 21  1  0
 21 22  2  0
 21 23  1  0
 23 24  1  0
 23 28  2  0
 24 25  2  0
 25 26  1  0
 26 27  2  0
 27 28  1  0
  4  5  1  0
  5  6  2  0
  6  7  1  0
 10 11  1  0
 10 16  1  0
 11 12  1  0
 12 13  1  0
 12 15  1  0
 12 16  1  0
 13 14  1  0
 14 15  1  0
M  CHG  1  14   1
M  END
>  <minimizedAffinity>  (570) 
-9.60240

$$$$
data/reference_output_2/data/smiles/137897.pdb
     RDKit          3D

 25 27  0  0  0  0  0  0  0  0999 V2000
   70.6782   49.6199   56.2600 C   0  0  0  0  0  0  0  0  0  0  0  0
   66.8548   45.2846   50.8789 N   0  0  0  0  0  0  0  0  0  0  0  0
   67.6376   46.1519   51.6888 C   0  0  0  0  0  0  0  0  0  0  0  0
   68.5346   46.9853   51.1111 N   0  0  0  0  0  0  0  0  0  0  0  0
   69.3008   47.8267   51.8637 C   0  0  0  0  0  0  0  0  0  0  0  0
   70.2384   48.7055   51.2740 N   0  0  0  0  0  0  0  0  0  0  0  0
   69.1866   47.8531   53.2396 C   0  0  0  0  0  0  0  0  0  0  0  0
   69.9526   48.6988   54.0230 C   0  0  0  0  0  0  0  0  0  0  0  0
   69.8477   48.7419   55.4015 C   0  0  0  0  0  0  0  0  0  0  0  0
   68.9113   47.8682   55.9574 C   0  0  0  0  0  0  0  0  0  0  0  0
   68.1491   47.0261   55.1824 C   0  0  0  0  0  0  0  0  0  0  0  0
   68.2657   46.9952   53.8059 C   0  0  0  0  0  0  0  0  0  0  0  0
   67.5316   46.1854   53.0291 N   0  0  0  0  0  0  0  0  0  0  0  0
   71.5835   48.9470   57.1330 N   0  0  0  0  0  0  0  0  0  0  0  0
   71.5225   48.9118   58.5506 C   0  0  0  0  0  0  0  0  0  0  0  0
   70.6048   49.5200   59.1322 O   0  0  0  0  0  0  0  0  0  0  0  0
   72.5205   48.1715   59.3539 C   0  0  0  0  0  0  0  0  0  0  0  0
   72.7856   46.8206   58.8574 C   0  0  0  0  0  0  0  0  0  0  0  0
   74.0522   46.3537   58.6276 C   0  0  0  0  0  0  0  0  0  0  0  0
   74.2691   45.0681   58.1545 C   0  0  0  0  0  0  0  0  0  0  0  0
   73.1920   44.2435   57.9091 C   0  0  0  0  0  0  0  0  0  0  0  0
   73.5131   42.6096   57.3065 Cl  0  0  0  0  0  0  0  0  0  0  0  0
   71.9107   44.6772   58.1278 C   0  0  0  0  0  0  0  0  0  0  0  0
   70.5484   43.6165   57.8157 Cl  0  0  0  0  0  0  0  0  0  0  0  0
   71.7267   45.9602   58.5985 C   0  0  0  0  0  0  0  0  0  0  0  0
  2  3  1  0
  3  4  2  0
  3 13  1  0
  4  5  1  0
  5  6  1  0
  5  7  2  0
  7  8  1  0
  7 12  1  0
  8  9  2  0
  9  1  1  0
  9 10  1  0
  1 14  1  0
 14 15  1  0
 15 16  2  0
 15 17  1  0
 17 18  1  0
 18 19  2  0
 18 25  1  0
 19 20  1  0
 20 21  2  0
 21 22  1  0
 21 23  1  0
 23 24  1  0
 23 25  2  0
 10 11  2  0
 11 12  1  0
 12 13  2  0
M  END
>  <minimizedAffinity>  (571) 
-8.66480

$$$$
data/reference_output_2/data/smiles/137898.pdb
     RDKit          3D

 22 24  0  0  0  0  0  0  0  0999 V2000
   69.1942   47.4259   55.9260 C   0  0  0  0  0  0  0  0  0  0  0  0
   68.8698   47.1511   54.5070 C   0  0  0  0  0  0  0  0  0  0  0  0
   68.0426   46.1051   54.1875 C   0  0  0  0  0  0  0  0  0  0  0  0
   67.7120   45.7885   52.8752 C   0  0  0  0  0  0  0  0  0  0  0  0
   68.2126   46.5301   51.8316 C   0  0  0  0  0  0  0  0  0  0  0  0
   69.0447   47.5862   52.1290 C   0  0  0  0  0  0  0  0  0  0  0  0
   69.3589   47.8813   53.4405 C   0  0  0  0  0  0  0  0  0  0  0  0
   68.4885   48.5907   56.4947 C   0  0  0  0  0  0  0  0  0  0  0  0
   68.9406   49.8505   56.2390 C   0  0  0  0  0  0  0  0  0  0  0  0
   68.2922   50.9340   56.7806 C   0  0  0  0  0  0  0  0  0  0  0  0
   67.1985   50.7825   57.5728 C   0  0  0  0  0  0  0  0  0  0  0  0
   66.7441   49.4969   57.8273 C   0  0  0  0  0  0  0  0  0  0  0  0
   67.3940   48.4085   57.2860 C   0  0  0  0  0  0  0  0  0  0  0  0
   69.4333   46.2755   56.7874 C   0  0  0  0  0  0  0  0  0  0  0  0
   69.8470   45.5957   58.9573 O   0  0  0  0  0  0  0  0  0  0  0  0
   70.2025   46.3504   58.0043 C   0  0  0  0  0  0  0  0  0  0  0  0
   71.3137   47.1724   58.2564 N   0  0  0  0  0  0  0  0  0  0  0  0
   71.9720   47.1441   59.4930 C   0  0  0  0  0  0  0  0  0  0  0  0
   72.8579   46.2487   59.9865 N   0  0  0  0  0  0  0  0  0  0  0  0
   73.2365   46.6124   61.2208 C   0  0  0  0  0  0  0  0  0  0  0  0
   72.5951   47.7436   61.5253 N   0  0  0  0  0  0  0  0  0  0  0  0
   71.8355   48.0635   60.4889 N   0  0  0  0  0  0  0  0  0  0  0  0
 15 16  2  0
 16 14  1  0
 16 17  1  0
 14  1  1  0
  1  2  1  0
  1  8  1  0
  2  3  2  0
  2  7  1  0
  3  4  1  0
  4  5  2  0
  5  6  1  0
  6  7  2  0
  8  9  2  0
  8 13  1  0
  9 10  1  0
 10 11  2  0
 11 12  1  0
 12 13  2  0
 17 18  1  0
 18 19  1  0
 18 22  2  0
 19 20  2  0
 20 21  1  0
 21 22  1  0
M  END
>  <minimizedAffinity>  (572) 
-8.77906

$$$$
data/reference_output_2/data/smiles/137939.pdb
     RDKit          3D

 22 24  0  0  0  0  0  0  0  0999 V2000
   68.4167   43.3962   56.1871 C   0  0  0  0  0  0  0  0  0  0  0  0
   67.4850   42.3780   56.1296 C   0  0  0  0  0  0  0  0  0  0  0  0
   67.6439   41.1917   56.8374 C   0  0  0  0  0  0  0  0  0  0  0  0
   68.7555   40.9916   57.6293 C   0  0  0  0  0  0  0  0  0  0  0  0
   69.6665   42.0280   57.6646 C   0  0  0  0  0  0  0  0  0  0  0  0
   69.4867   43.1681   56.9692 N   0  0  0  0  0  0  0  0  0  0  0  0
   68.9631   39.7609   58.3890 C   0  0  0  0  0  0  0  0  0  0  0  0
   67.9713   39.1747   59.1480 C   0  0  0  0  0  0  0  0  0  0  0  0
   68.1711   38.0123   59.8640 C   0  0  0  0  0  0  0  0  0  0  0  0
   69.3993   37.3839   59.8425 C   0  0  0  0  0  0  0  0  0  0  0  0
   70.4112   37.9563   59.0854 C   0  0  0  0  0  0  0  0  0  0  0  0
   70.1881   39.1249   58.3737 C   0  0  0  0  0  0  0  0  0  0  0  0
   69.4268   45.8555   56.9977 O   0  0  0  0  0  0  0  0  0  0  0  0
   68.7915   45.8520   55.9123 C   0  0  0  0  0  0  0  0  0  0  0  0
   68.2588   44.6199   55.4615 N   0  0  0  0  0  0  0  0  0  0  0  0
   68.6072   47.1232   55.1228 C   0  0  0  0  0  0  0  0  0  0  0  0
   68.3342   46.8220   53.7015 C   0  0  0  0  0  0  0  0  0  0  0  0
   67.3515   45.9280   53.3481 C   0  0  0  0  0  0  0  0  0  0  0  0
   67.0883   45.6413   52.0718 N   0  0  0  0  0  0  0  0  0  0  0  0
   67.7830   46.2231   51.0942 C   0  0  0  0  0  0  0  0  0  0  0  0
   68.7428   47.0945   51.3966 N   0  0  0  0  0  0  0  0  0  0  0  0
   69.0379   47.4098   52.6659 C   0  0  0  0  0  0  0  0  0  0  0  0
 13 14  2  0
 14 16  1  0
 14 15  1  0
 16 17  1  0
 17 18  2  0
 17 22  1  0
 18 19  1  0
 19 20  2  0
 20 21  1  0
 21 22  2  0
 15  1  1  0
  1  2  2  0
  1  6  1  0
  2  3  1  0
  3  4  2  0
  4  7  1  0
  4  5  1  0
  7  8  2  0
  7 12  1  0
  8  9  1  0
  9 10  2  0
 10 11  1  0
 11 12  2  0
  5  6  2  0
M  END
>  <minimizedAffinity>  (573) 
-8.56621

$$$$
data/reference_output_2/data/smiles/138071.pdb
     RDKit          3D

 25 28  0  0  0  0  0  0  0  0999 V2000
   68.2463   43.6436   56.0845 C   0  0  0  0  0  0  0  0  0  0  0  0
   69.1359   43.0838   56.9658 C   0  0  0  0  0  0  0  0  0  0  0  0
   68.7323   41.8789   57.4072 N   0  0  0  0  0  0  0  0  0  0  0  0
   67.5299   41.6757   56.7719 C   0  0  0  0  0  0  0  0  0  0  0  0
   67.2513   42.7240   55.9921 N   0  0  0  0  0  0  0  0  0  0  0  0
   68.0404   46.1926   53.3335 C   0  0  0  0  0  0  0  0  0  0  0  0
   68.3063   47.3556   54.0171 C   0  0  0  0  0  0  0  0  0  0  0  0
   68.5475   47.2696   55.3655 C   0  0  0  0  0  0  0  0  0  0  0  0
   68.5254   46.0818   56.0104 N   0  0  0  0  0  0  0  0  0  0  0  0
   68.2663   44.9098   55.3724 C   0  0  0  0  0  0  0  0  0  0  0  0
   68.0262   44.9998   54.0206 C   0  0  0  0  0  0  0  0  0  0  0  0
   66.8501   45.6357   51.3554 O   0  0  0  0  0  0  0  0  0  0  0  0
   67.7833   46.2769   51.9036 C   0  0  0  0  0  0  0  0  0  0  0  0
   68.5666   47.0722   51.0921 O   0  0  0  0  0  0  0  0  0  0  0  0
   69.3440   40.9845   58.3600 C   0  0  0  0  0  0  0  0  0  0  0  0
   68.5564   39.7863   58.7643 C   0  0  0  0  0  0  0  0  0  0  0  0
   69.2936   38.5597   58.5276 N   0  0  0  0  0  0  0  0  0  0  0  0
   69.5578   37.9043   59.8570 C   0  0  0  0  0  0  0  0  0  0  0  0
   70.6064   36.9407   59.3843 C   0  0  0  0  0  0  0  0  0  0  0  0
   70.9586   35.6533   59.7171 C   0  0  0  0  0  0  0  0  0  0  0  0
   72.0192   35.0304   59.0445 C   0  0  0  0  0  0  0  0  0  0  0  0
   72.7326   35.6670   58.0480 C   0  0  0  0  0  0  0  0  0  0  0  0
   72.3776   36.9695   57.7120 C   0  0  0  0  0  0  0  0  0  0  0  0
   71.3343   37.5608   58.3843 C   0  0  0  0  0  0  0  0  0  0  0  0
   70.7230   38.9050   58.2756 C   0  0  0  0  0  0  0  0  0  0  0  0
 12 13  2  0
 13 14  1  0
 13  6  1  0
  6  7  2  0
  6 11  1  0
  7  8  1  0
  8  9  2  0
  9 10  1  0
 10  1  1  0
 10 11  2  0
  1  2  2  0
  1  5  1  0
  2  3  1  0
  3 15  1  0
  3  4  1  0
 15 16  1  0
 16 17  1  0
 17 18  1  0
 17 25  1  0
 18 19  1  0
 19 20  1  0
 19 24  2  0
 20 21  2  0
 21 22  1  0
 22 23  2  0
 23 24  1  0
 24 25  1  0
  4  5  2  0
M  CHG  1  17   1
M  END
>  <minimizedAffinity>  (574) 
-8.98343

$$$$
data/reference_output_2/data/smiles/138087.pdb
     RDKit          3D

 28 30  0  0  0  0  0  0  0  0999 V2000
   68.6477   46.5103   54.1899 C   0  0  0  0  0  0  0  0  0  0  0  0
   68.4113   46.1682   52.8732 C   0  0  0  0  0  0  0  0  0  0  0  0
   68.7754   46.9743   51.8117 C   0  0  0  0  0  0  0  0  0  0  0  0
   69.3978   48.1681   52.0402 C   0  0  0  0  0  0  0  0  0  0  0  0
   69.6566   48.5534   53.3410 C   0  0  0  0  0  0  0  0  0  0  0  0
   69.2782   47.7205   54.3999 C   0  0  0  0  0  0  0  0  0  0  0  0
   70.4483   50.0733   53.6046 S   0  0  0  0  0  0  0  0  0  0  0  0
   71.9272   49.8824   53.6290 O   0  0  0  0  0  0  0  0  0  0  0  0
   70.1157   50.9819   52.4555 O   0  0  0  0  0  0  0  0  0  0  0  0
   69.9575   50.8353   55.0671 N   0  0  0  0  0  0  0  0  0  0  0  0
   69.3792   52.1247   54.8600 C   0  0  0  0  0  0  0  0  0  0  0  0
   68.9671   52.6788   56.2059 C   0  0  0  0  0  0  0  0  0  0  0  0
   69.0929   51.7009   57.2681 N   0  0  0  0  0  0  0  0  0  0  0  0
   68.1230   50.6509   57.1408 C   0  0  0  0  0  0  0  0  0  0  0  0
   70.4552   51.2108   57.3789 C   0  0  0  0  0  0  0  0  0  0  0  0
   71.0471   50.9298   56.0189 C   0  0  0  0  0  0  0  0  0  0  0  0
   68.2521   45.6384   55.2905 C   0  0  0  0  0  0  0  0  0  0  0  0
   68.3066   46.0965   56.4585 O   0  0  0  0  0  0  0  0  0  0  0  0
   67.8226   44.3469   55.1541 O   0  0  0  0  0  0  0  0  0  0  0  0
   68.7807   41.1843   57.7826 C   0  0  0  0  0  0  0  0  0  0  0  0
   69.5573   42.3224   57.7282 C   0  0  0  0  0  0  0  0  0  0  0  0
   69.2413   43.3565   56.8666 C   0  0  0  0  0  0  0  0  0  0  0  0
   68.1497   43.3135   56.0249 C   0  0  0  0  0  0  0  0  0  0  0  0
   67.3734   42.1708   56.0813 C   0  0  0  0  0  0  0  0  0  0  0  0
   67.6889   41.1386   56.9423 C   0  0  0  0  0  0  0  0  0  0  0  0
   70.4662   39.4791   58.4296 C   0  0  0  0  0  0  0  0  0  0  0  0
   69.0958   40.0534   58.7004 C   0  0  0  0  0  0  0  0  0  0  0  0
   68.0836   38.9463   58.4996 C   0  0  0  0  0  0  0  0  0  0  0  0
 26 27  1  0
 27 28  1  0
 27 20  1  0
 20 21  2  0
 20 25  1  0
 21 22  1  0
 22 23  2  0
 23 19  1  0
 23 24  1  0
 19 17  1  0
 17 18  2  0
 17  1  1  0
  1  2  2  0
  1  6  1  0
  2  3  1  0
  3  4  2  0
  4  5  1  0
  5  7  1  0
  5  6  2  0
  7  8  2  0
  7  9  2  0
  7 10  1  0
 10 11  1  0
 10 16  1  0
 11 12  1  0
 12 13  1  0
 13 14  1  0
 13 15  1  0
 15 16  1  0
 24 25  2  0
M  CHG  1  13   1
M  END
>  <minimizedAffinity>  (575) 
-9.44772

$$$$
data/reference_output_2/data/smiles/138118.pdb
     RDKit          3D

 23 25  0  0  0  0  0  0  0  0999 V2000
   70.2206   44.4151   57.7116 C   0  0  0  0  0  0  0  0  0  0  0  0
   71.0264   45.3318   58.3446 C   0  0  0  0  0  0  0  0  0  0  0  0
   70.6078   46.5813   57.9563 C   0  0  0  0  0  0  0  0  0  0  0  0
   69.5488   46.4303   57.0873 C   0  0  0  0  0  0  0  0  0  0  0  0
   69.3527   45.1241   56.9704 N   0  0  0  0  0  0  0  0  0  0  0  0
   70.2975   42.9379   57.7879 C   0  0  0  0  0  0  0  0  0  0  0  0
   71.2825   42.3428   57.3028 O   0  0  0  0  0  0  0  0  0  0  0  0
   69.1802   42.2235   58.4416 C   0  0  0  0  0  0  0  0  0  0  0  0
   69.2126   39.8952   57.9959 O   0  0  0  0  0  0  0  0  0  0  0  0
   68.7792   41.0240   57.6943 C   0  0  0  0  0  0  0  0  0  0  0  0
   67.8563   41.1476   56.5756 C   0  0  0  0  0  0  0  0  0  0  0  0
   67.0011   42.1791   56.3080 N   0  0  0  0  0  0  0  0  0  0  0  0
   66.3108   41.9089   55.1793 C   0  0  0  0  0  0  0  0  0  0  0  0
   66.7301   40.7155   54.7422 N   0  0  0  0  0  0  0  0  0  0  0  0
   67.6453   40.2759   55.5791 N   0  0  0  0  0  0  0  0  0  0  0  0
   68.8015   47.5563   56.4110 C   0  0  0  0  0  0  0  0  0  0  0  0
   68.6503   47.2384   54.9774 C   0  0  0  0  0  0  0  0  0  0  0  0
   67.9491   46.1534   54.5420 C   0  0  0  0  0  0  0  0  0  0  0  0
   67.8160   45.8724   53.1723 C   0  0  0  0  0  0  0  0  0  0  0  0
   68.3997   46.7007   52.2384 C   0  0  0  0  0  0  0  0  0  0  0  0
   68.2799   46.4421   50.8917 F   0  0  0  0  0  0  0  0  0  0  0  0
   69.1026   47.7884   52.6727 C   0  0  0  0  0  0  0  0  0  0  0  0
   69.2368   48.0706   54.0250 C   0  0  0  0  0  0  0  0  0  0  0  0
  9 10  2  0
 10  8  1  0
 10 11  1  0
  8  6  1  0
  6  7  2  0
  6  1  1  0
  1  2  2  0
  1  5  1  0
  2  3  1  0
  3  4  2  0
  4 16  1  0
  4  5  1  0
 16 17  1  0
 17 18  2  0
 17 23  1  0
 18 19  1  0
 19 20  2  0
 20 21  1  0
 20 22  1  0
 22 23  2  0
 11 12  1  0
 11 15  2  0
 12 13  2  0
 13 14  1  0
 14 15  1  0
M  END
>  <minimizedAffinity>  (576) 
-9.02983

$$$$
data/reference_output_2/data/smiles/138151.pdb
     RDKit          3D

 30 33  0  0  0  0  0  0  0  0999 V2000
   71.1880   37.6617   58.7623 C   0  0  0  0  0  0  0  0  0  0  0  0
   70.8467   36.7040   59.6774 C   0  0  0  0  0  0  0  0  0  0  0  0
   71.2400   35.4029   59.4962 C   0  0  0  0  0  0  0  0  0  0  0  0
   71.9830   35.0356   58.3961 C   0  0  0  0  0  0  0  0  0  0  0  0
   72.3516   35.9715   57.4437 C   0  0  0  0  0  0  0  0  0  0  0  0
   71.9404   37.2648   57.6581 C   0  0  0  0  0  0  0  0  0  0  0  0
   70.7014   39.3433   58.9589 S   0  0  0  0  0  0  0  0  0  0  0  0
   71.7832   40.1668   58.2870 O   0  0  0  0  0  0  0  0  0  0  0  0
   70.5942   39.6907   60.3975 O   0  0  0  0  0  0  0  0  0  0  0  0
   65.9840   40.9337   61.6802 C   0  0  0  0  0  0  0  0  0  0  0  0
   66.5848   41.6342   60.5137 C   0  0  0  0  0  0  0  0  0  0  0  0
   66.5701   42.8913   60.4841 O   0  0  0  0  0  0  0  0  0  0  0  0
   67.1695   40.9218   59.4381 N   0  0  0  0  0  0  0  0  0  0  0  0
   67.1752   39.4855   59.4933 C   0  0  0  0  0  0  0  0  0  0  0  0
   68.1443   38.8617   58.5283 C   0  0  0  0  0  0  0  0  0  0  0  0
   69.2334   39.6730   58.1574 N   0  0  0  0  0  0  0  0  0  0  0  0
   68.9917   41.0138   57.8339 C   0  0  0  0  0  0  0  0  0  0  0  0
   67.7345   41.6246   58.3374 C   0  0  0  0  0  0  0  0  0  0  0  0
   73.1353   35.5412   56.2982 C   0  0  0  0  0  0  0  0  0  0  0  0
   74.1161   34.7694   56.4600 O   0  0  0  0  0  0  0  0  0  0  0  0
   72.8588   35.9477   54.9673 N   0  0  0  0  0  0  0  0  0  0  0  0
   73.6430   35.5120   53.8547 C   0  0  0  0  0  0  0  0  0  0  0  0
   73.0144   34.8049   52.8529 C   0  0  0  0  0  0  0  0  0  0  0  0
   73.7290   34.3512   51.7383 C   0  0  0  0  0  0  0  0  0  0  0  0
   75.0791   34.6086   51.6294 C   0  0  0  0  0  0  0  0  0  0  0  0
   75.7280   35.3142   52.6210 C   0  0  0  0  0  0  0  0  0  0  0  0
   74.9868   35.7456   53.7061 C   0  0  0  0  0  0  0  0  0  0  0  0
   77.1699   35.4447   52.2459 C   0  0  0  0  0  0  0  0  0  0  0  0
   77.2196   35.1817   50.7745 C   0  0  0  0  0  0  0  0  0  0  0  0
   76.0528   34.2323   50.5436 C   0  0  0  0  0  0  0  0  0  0  0  0
 10 11  1  0
 11 12  2  0
 11 13  1  0
 13 14  1  0
 13 18  1  0
 14 15  1  0
 15 16  1  0
 16  7  1  0
 16 17  1  0
  7  8  2  0
  7  9  2  0
  7  1  1  0
  1  2  2  0
  1  6  1  0
  2  3  1  0
  3  4  2  0
  4  5  1  0
  5 19  1  0
  5  6  2  0
 19 20  2  0
 19 21  1  0
 21 22  1  0
 22 23  2  0
 22 27  1  0
 23 24  1  0
 24 25  2  0
 25 26  1  0
 25 30  1  0
 26 27  2  0
 26 28  1  0
 28 29  1  0
 29 30  1  0
 17 18  1  0
M  END
>  <minimizedAffinity>  (577) 
-8.54262

$$$$
data/reference_output_2/data/smiles/138222.pdb
     RDKit          3D

 23 25  0  0  0  0  0  0  0  0999 V2000
   69.2920   48.8173   56.2896 C   0  0  0  0  0  0  0  0  0  0  0  0
   69.6483   48.6385   54.8572 C   0  0  0  0  0  0  0  0  0  0  0  0
   70.6864   49.3551   54.3234 N   0  0  0  0  0  0  0  0  0  0  0  0
   71.0398   49.2745   53.0617 N   0  0  0  0  0  0  0  0  0  0  0  0
   70.3580   48.4568   52.2528 C   0  0  0  0  0  0  0  0  0  0  0  0
   70.6914   48.3765   51.0448 O   0  0  0  0  0  0  0  0  0  0  0  0
   69.2790   47.6903   52.7329 C   0  0  0  0  0  0  0  0  0  0  0  0
   68.9256   47.7878   54.0602 C   0  0  0  0  0  0  0  0  0  0  0  0
   67.8260   46.9733   54.5872 C   0  0  0  0  0  0  0  0  0  0  0  0
   67.9445   45.6133   53.8832 C   0  0  0  0  0  0  0  0  0  0  0  0
   67.8129   45.7461   52.4083 C   0  0  0  0  0  0  0  0  0  0  0  0
   68.5738   46.8341   51.7594 C   0  0  0  0  0  0  0  0  0  0  0  0
   70.7465   45.7960   58.0289 C   0  0  0  0  0  0  0  0  0  0  0  0
   71.8064   46.3532   58.6976 C   0  0  0  0  0  0  0  0  0  0  0  0
   72.0577   47.7066   58.5983 C   0  0  0  0  0  0  0  0  0  0  0  0
   71.2318   48.4822   57.8215 C   0  0  0  0  0  0  0  0  0  0  0  0
   70.1480   47.9321   57.1336 C   0  0  0  0  0  0  0  0  0  0  0  0
   69.9165   46.5891   57.2454 C   0  0  0  0  0  0  0  0  0  0  0  0
   70.4765   44.3415   58.1422 C   0  0  0  0  0  0  0  0  0  0  0  0
   69.2747   43.9711   57.4709 N   0  0  0  0  0  0  0  0  0  0  0  0
   67.7832   42.1714   56.6819 C   0  0  0  0  0  0  0  0  0  0  0  0
   69.1809   42.6329   57.0039 C   0  0  0  0  0  0  0  0  0  0  0  0
   69.7014   41.7243   58.1136 C   0  0  0  0  0  0  0  0  0  0  0  0
 21 22  1  0
 22 23  1  0
 22 20  1  0
 20 19  1  0
 19 13  1  0
 13 14  2  0
 13 18  1  0
 14 15  1  0
 15 16  2  0
 16 17  1  0
 17  1  1  0
 17 18  2  0
  1  2  1  0
  2  3  2  0
  2  8  1  0
  3  4  1  0
  4  5  1  0
  5  6  2  0
  5  7  1  0
  7  8  2  0
  7 12  1  0
  8  9  1  0
  9 10  1  0
 10 11  1  0
 11 12  1  0
M  CHG  1  20   1
M  END
>  <minimizedAffinity>  (578) 
-8.76996

$$$$
data/reference_output_2/data/smiles/138347.pdb
     RDKit          3D

 24 26  0  0  0  0  0  0  0  0999 V2000
   72.9752   52.0614   54.8624 C   0  0  0  0  0  0  0  0  0  0  0  0
   72.2446   52.2316   56.1950 C   0  0  0  0  0  0  0  0  0  0  0  0
   71.9017   53.7144   56.2777 C   0  0  0  0  0  0  0  0  0  0  0  0
   73.1169   54.3453   55.6691 C   0  0  0  0  0  0  0  0  0  0  0  0
   73.4314   53.4581   54.4959 C   0  0  0  0  0  0  0  0  0  0  0  0
   75.8206   50.0436   55.7546 C   0  0  0  0  0  0  0  0  0  0  0  0
   74.9578   51.0355   56.0242 N   0  0  0  0  0  0  0  0  0  0  0  0
   74.0952   51.1273   55.0132 C   0  0  0  0  0  0  0  0  0  0  0  0
   74.4415   50.1854   54.1313 N   0  0  0  0  0  0  0  0  0  0  0  0
   75.4692   49.5560   54.5954 O   0  0  0  0  0  0  0  0  0  0  0  0
   76.9684   49.5753   56.6056 C   0  0  0  0  0  0  0  0  0  0  0  0
   78.7524   51.1086   56.4927 C   0  0  0  0  0  0  0  0  0  0  0  0
   77.6150   50.6800   57.2495 N   0  0  0  0  0  0  0  0  0  0  0  0
   77.9931   50.3965   58.6152 C   0  0  0  0  0  0  0  0  0  0  0  0
   71.9767   51.6107   53.9071 N   0  0  0  0  0  0  0  0  0  0  0  0
   71.3028   50.3880   53.9968 C   0  0  0  0  0  0  0  0  0  0  0  0
   71.5424   49.6082   54.9367 O   0  0  0  0  0  0  0  0  0  0  0  0
   70.3168   49.9561   53.0428 N   0  0  0  0  0  0  0  0  0  0  0  0
   69.6434   48.7176   53.1458 C   0  0  0  0  0  0  0  0  0  0  0  0
   69.6308   47.8516   52.0790 C   0  0  0  0  0  0  0  0  0  0  0  0
   68.9773   46.6205   52.1430 C   0  0  0  0  0  0  0  0  0  0  0  0
   68.3280   46.2527   53.2886 C   0  0  0  0  0  0  0  0  0  0  0  0
   68.3341   47.1116   54.3603 C   0  0  0  0  0  0  0  0  0  0  0  0
   68.9889   48.3422   54.2945 C   0  0  0  0  0  0  0  0  0  0  0  0
 12 13  1  0
 13 14  1  0
 13 11  1  0
 11  6  1  0
  6  7  2  0
  6 10  1  0
  7  8  1  0
  8  1  1  0
  8  9  2  0
  1 15  1  0
  1  2  1  0
  1  5  1  0
 15 16  1  0
 16 17  2  0
 16 18  1  0
 18 19  1  0
 19 20  2  0
 19 24  1  0
 20 21  1  0
 21 22  2  0
 22 23  1  0
 23 24  2  0
  2  3  1  0
  3  4  1  0
  4  5  1  0
  9 10  1  0
M  CHG  1  13   1
M  END
>  <minimizedAffinity>  (579) 
-8.81177

$$$$
data/reference_output_2/data/smiles/138483.pdb
     RDKit          3D

 26 29  0  0  0  0  0  0  0  0999 V2000
   69.4494   47.4916   56.0423 N   0  0  0  0  0  0  0  0  0  0  0  0
   69.9838   48.4076   55.2708 N   0  0  0  0  0  0  0  0  0  0  0  0
   69.8165   48.4342   53.9104 C   0  0  0  0  0  0  0  0  0  0  0  0
   69.0566   47.4696   53.2962 C   0  0  0  0  0  0  0  0  0  0  0  0
   68.8293   47.4072   51.9577 C   0  0  0  0  0  0  0  0  0  0  0  0
   68.0386   46.3854   51.4105 C   0  0  0  0  0  0  0  0  0  0  0  0
   67.4620   45.4090   52.1906 C   0  0  0  0  0  0  0  0  0  0  0  0
   67.6877   45.4651   53.5499 C   0  0  0  0  0  0  0  0  0  0  0  0
   68.4737   46.4816   54.0911 C   0  0  0  0  0  0  0  0  0  0  0  0
   68.7059   46.5458   55.4555 C   0  0  0  0  0  0  0  0  0  0  0  0
   68.1506   45.6194   56.1325 O   0  0  0  0  0  0  0  0  0  0  0  0
   70.4473   49.4792   53.1801 C   0  0  0  0  0  0  0  0  0  0  0  0
   71.6834   49.7185   53.4233 O   0  0  0  0  0  0  0  0  0  0  0  0
   69.8881   50.2723   52.2342 O   0  0  0  0  0  0  0  0  0  0  0  0
   69.6351   47.4806   57.4827 C   0  0  0  0  0  0  0  0  0  0  0  0
   70.6937   48.8677   59.0155 O   0  0  0  0  0  0  0  0  0  0  0  0
   69.8352   48.8051   58.0685 C   0  0  0  0  0  0  0  0  0  0  0  0
   69.1669   50.0385   57.6880 C   0  0  0  0  0  0  0  0  0  0  0  0
   67.8226   50.2924   57.8210 C   0  0  0  0  0  0  0  0  0  0  0  0
   67.6065   51.5346   57.3730 N   0  0  0  0  0  0  0  0  0  0  0  0
   68.7662   52.0783   56.9618 C   0  0  0  0  0  0  0  0  0  0  0  0
   69.0916   53.3123   56.4245 C   0  0  0  0  0  0  0  0  0  0  0  0
   70.3972   53.5900   56.0918 C   0  0  0  0  0  0  0  0  0  0  0  0
   71.4202   52.6819   56.2698 C   0  0  0  0  0  0  0  0  0  0  0  0
   71.0926   51.4577   56.8040 C   0  0  0  0  0  0  0  0  0  0  0  0
   69.7700   51.1551   57.1493 C   0  0  0  0  0  0  0  0  0  0  0  0
 16 17  2  0
 17 15  1  0
 17 18  1  0
 15  1  1  0
  1  2  1  0
  1 10  1  0
  2  3  2  0
  3 12  1  0
  3  4  1  0
 12 13  2  0
 12 14  1  0
  4  5  2  0
  4  9  1  0
  5  6  1  0
  6  7  2  0
  7  8  1  0
  8  9  2  0
  9 10  1  0
 10 11  2  0
 18 19  2  0
 18 26  1  0
 19 20  1  0
 20 21  1  0
 21 22  1  0
 21 26  2  0
 22 23  2  0
 23 24  1  0
 24 25  2  0
 25 26  1  0
M  END
>  <minimizedAffinity>  (580) 
-8.96318

$$$$
data/reference_output_2/data/smiles/138614.pdb
     RDKit          3D

 24 26  0  0  0  0  0  0  0  0999 V2000
   67.4454   42.1971   55.6963 O   0  0  0  0  0  0  0  0  0  0  0  0
   68.1744   42.8396   56.4603 C   0  0  0  0  0  0  0  0  0  0  0  0
   68.3449   44.2297   56.0981 N   0  0  0  0  0  0  0  0  0  0  0  0
   68.8102   42.3056   57.6085 C   0  0  0  0  0  0  0  0  0  0  0  0
   69.1975   43.2378   58.4624 O   0  0  0  0  0  0  0  0  0  0  0  0
   69.0810   40.9548   57.9841 C   0  0  0  0  0  0  0  0  0  0  0  0
   68.0334   39.9817   57.9762 C   0  0  0  0  0  0  0  0  0  0  0  0
   68.5521   38.7797   58.2382 N   0  0  0  0  0  0  0  0  0  0  0  0
   69.8603   38.8617   58.4239 C   0  0  0  0  0  0  0  0  0  0  0  0
   70.8142   37.9510   58.7251 C   0  0  0  0  0  0  0  0  0  0  0  0
   72.1478   38.3424   58.8907 C   0  0  0  0  0  0  0  0  0  0  0  0
   72.4842   39.6592   58.7471 C   0  0  0  0  0  0  0  0  0  0  0  0
   71.5072   40.5987   58.4376 C   0  0  0  0  0  0  0  0  0  0  0  0
   70.1883   40.2128   58.2686 C   0  0  0  0  0  0  0  0  0  0  0  0
   67.7013   44.7149   54.9764 N   0  0  0  0  0  0  0  0  0  0  0  0
   68.2469   45.7904   54.1804 C   0  0  0  0  0  0  0  0  0  0  0  0
   68.7965   46.8908   54.8081 C   0  0  0  0  0  0  0  0  0  0  0  0
   69.3335   47.9709   54.0933 C   0  0  0  0  0  0  0  0  0  0  0  0
   69.3251   47.9601   52.7169 C   0  0  0  0  0  0  0  0  0  0  0  0
   68.7790   46.8667   52.0895 C   0  0  0  0  0  0  0  0  0  0  0  0
   68.2440   45.7893   52.8070 C   0  0  0  0  0  0  0  0  0  0  0  0
   69.8679   49.0467   51.9593 N   0  0  0  0  0  0  0  0  0  0  0  0
   70.4976   48.7738   50.9240 O   0  0  0  0  0  0  0  0  0  0  0  0
   69.7342   50.3632   52.3045 O   0  0  0  0  0  0  0  0  0  0  0  0
  1  2  2  0
  2  3  1  0
  2  4  1  0
  3 15  1  0
 15 16  1  0
 16 17  2  0
 16 21  1  0
 17 18  1  0
 18 19  2  0
 19 22  1  0
 19 20  1  0
 22 23  2  0
 22 24  1  0
 20 21  2  0
  4  5  2  0
  4  6  1  0
  6  7  2  0
  6 14  1  0
  7  8  1  0
  8  9  1  0
  9 10  1  0
  9 14  2  0
 10 11  2  0
 11 12  1  0
 12 13  2  0
 13 14  1  0
M  CHG  2  22   1  24  -1
M  END
>  <minimizedAffinity>  (581) 
-9.30997

$$$$
data/reference_output_2/data/smiles/138703.pdb
     RDKit          3D

 29 32  0  0  0  0  0  0  0  0999 V2000
   71.5551   48.9741   58.0485 N   0  0  0  0  0  0  0  0  0  0  0  0
   72.6790   49.1984   57.1973 C   0  0  0  0  0  0  0  0  0  0  0  0
   73.8502   48.8052   57.4342 O   0  0  0  0  0  0  0  0  0  0  0  0
   72.2188   49.9186   56.0874 N   0  0  0  0  0  0  0  0  0  0  0  0
   70.7760   50.0334   56.0687 C   0  0  2  0  0  0  0  0  0  0  0  0
   70.3645   51.4601   55.8949 C   0  0  0  0  0  0  0  0  0  0  0  0
   70.4001   49.5775   57.4270 C   0  0  0  0  0  0  0  0  0  0  0  0
   69.2459   49.7182   57.9104 O   0  0  0  0  0  0  0  0  0  0  0  0
   70.1824   49.1775   55.0144 C   0  0  0  0  0  0  0  0  0  0  0  0
   70.3556   49.5048   53.7034 C   0  0  0  0  0  0  0  0  0  0  0  0
   69.8139   48.7257   52.6758 C   0  0  0  0  0  0  0  0  0  0  0  0
   69.0806   47.5932   52.9609 C   0  0  0  0  0  0  0  0  0  0  0  0
   68.5242   46.7897   51.9784 C   0  0  0  0  0  0  0  0  0  0  0  0
   67.7912   45.6591   52.2724 C   0  0  0  0  0  0  0  0  0  0  0  0
   67.6254   45.3412   53.6114 C   0  0  0  0  0  0  0  0  0  0  0  0
   68.1799   46.1407   54.5888 C   0  0  0  0  0  0  0  0  0  0  0  0
   68.9109   47.2715   54.2951 C   0  0  0  0  0  0  0  0  0  0  0  0
   69.4509   48.0465   55.3124 C   0  0  0  0  0  0  0  0  0  0  0  0
   71.4846   48.2929   59.3010 C   0  0  0  0  0  0  0  0  0  0  0  0
   70.9893   46.2852   57.8735 N   0  0  0  0  0  0  0  0  0  0  0  0
   71.2935   46.8384   59.1427 C   0  0  0  0  0  0  0  0  0  0  0  0
   71.3902   46.0469   60.1093 O   0  0  0  0  0  0  0  0  0  0  0  0
   68.0386   42.6529   56.5946 C   0  0  0  0  0  0  0  0  0  0  0  0
   69.3378   43.1486   57.1269 C   0  0  0  0  0  0  0  0  0  0  0  0
   70.2849   42.2101   57.4800 C   0  0  0  0  0  0  0  0  0  0  0  0
   71.4919   42.6316   57.9734 C   0  0  0  0  0  0  0  0  0  0  0  0
   71.7832   43.9725   58.1271 C   0  0  0  0  0  0  0  0  0  0  0  0
   70.8127   44.8794   57.7645 C   0  0  0  0  0  0  0  0  0  0  0  0
   69.6294   44.4452   57.2800 N   0  0  0  0  0  0  0  0  0  0  0  0
 23 24  1  0
 24 25  2  0
 24 29  1  0
 25 26  1  0
 26 27  2  0
 27 28  1  0
 28 20  1  0
 28 29  2  0
 20 21  1  0
 21 22  2  0
 21 19  1  0
 19  1  1  0
  1  2  1  0
  1  7  1  0
  2  3  2  0
  2  4  1  0
  4  5  1  0
  5  6  1  6
  5  9  1  0
  5  7  1  0
  9 10  2  0
  9 18  1  0
 10 11  1  0
 11 12  2  0
 12 13  1  0
 12 17  1  0
 13 14  2  0
 14 15  1  0
 15 16  2  0
 16 17  1  0
 17 18  2  0
  7  8  2  0
M  END
>  <minimizedAffinity>  (582) 
-8.59447

$$$$
data/reference_output_2/data/smiles/138784.pdb
     RDKit          3D

 28 30  0  0  0  0  0  0  0  0999 V2000
   70.4137   50.9313   58.2736 C   0  0  0  0  0  0  0  0  0  0  0  0
   71.2689   51.9224   57.5106 C   0  0  0  0  0  0  0  0  0  0  0  0
   71.2909   51.5377   56.0638 C   0  0  0  0  0  0  0  0  0  0  0  0
   70.6299   50.3051   55.7757 N   0  0  0  0  0  0  0  0  0  0  0  0
   69.2643   50.2566   56.1998 C   0  0  0  0  0  0  0  0  0  0  0  0
   69.1011   50.8274   57.5681 C   0  0  0  0  0  0  0  0  0  0  0  0
   70.3303   48.3883   58.4456 N   0  0  0  0  0  0  0  0  0  0  0  0
   71.0747   49.5919   58.2958 C   0  0  0  0  0  0  0  0  0  0  0  0
   72.3251   49.4520   58.1840 O   0  0  0  0  0  0  0  0  0  0  0  0
   69.1513   46.2569   57.3750 O   0  0  0  0  0  0  0  0  0  0  0  0
   70.2951   46.0406   57.8797 C   0  0  0  0  0  0  0  0  0  0  0  0
   70.9698   47.1425   58.4647 N   0  0  0  0  0  0  0  0  0  0  0  0
   70.8622   44.6904   57.8393 C   0  0  0  0  0  0  0  0  0  0  0  0
   70.1021   43.5871   57.6109 C   0  0  0  0  0  0  0  0  0  0  0  0
   70.6752   42.3410   57.5817 C   0  0  0  0  0  0  0  0  0  0  0  0
   72.0344   42.2260   57.7863 C   0  0  0  0  0  0  0  0  0  0  0  0
   72.8371   43.3149   58.0184 C   0  0  0  0  0  0  0  0  0  0  0  0
   72.2368   44.5533   58.0442 C   0  0  0  0  0  0  0  0  0  0  0  0
   70.6739   50.0357   54.0706 S   0  0  0  0  0  0  0  0  0  0  0  0
   72.1095   49.8728   53.6488 O   0  0  0  0  0  0  0  0  0  0  0  0
   70.1514   51.2608   53.3815 O   0  0  0  0  0  0  0  0  0  0  0  0
   69.7355   48.6448   53.6086 C   0  0  0  0  0  0  0  0  0  0  0  0
   69.6995   48.2740   52.2848 C   0  0  0  0  0  0  0  0  0  0  0  0
   68.9796   47.1843   51.8368 C   0  0  0  0  0  0  0  0  0  0  0  0
   68.2573   46.4135   52.7231 C   0  0  0  0  0  0  0  0  0  0  0  0
   67.3426   45.0301   52.1558 Cl  0  0  0  0  0  0  0  0  0  0  0  0
   68.2891   46.7798   54.0565 C   0  0  0  0  0  0  0  0  0  0  0  0
   69.0163   47.8776   54.5005 C   0  0  0  0  0  0  0  0  0  0  0  0
 10 11  2  0
 11 12  1  0
 11 13  1  0
 12  7  1  0
  7  8  1  0
  8  9  2  0
  8  1  1  0
  1  2  1  0
  1  6  1  0
  2  3  1  0
  3  4  1  0
  4 19  1  0
  4  5  1  0
 19 20  2  0
 19 21  2  0
 19 22  1  0
 22 23  2  0
 22 28  1  0
 23 24  1  0
 24 25  2  0
 25 26  1  0
 25 27  1  0
 27 28  2  0
  5  6  1  0
 13 14  2  0
 13 18  1  0
 14 15  1  0
 15 16  2  0
 16 17  1  0
 17 18  2  0
M  END
>  <minimizedAffinity>  (583) 
-8.60688

$$$$
data/reference_output_2/data/smiles/138829.pdb
     RDKit          3D

 23 24  0  0  0  0  0  0  0  0999 V2000
   70.9927   46.4245   58.4932 C   0  0  0  0  0  0  0  0  0  0  0  0
   69.9718   46.8900   57.6617 C   0  0  0  0  0  0  0  0  0  0  0  0
   69.2100   46.0259   56.9085 C   0  0  0  0  0  0  0  0  0  0  0  0
   69.4387   44.7020   56.9622 N   0  0  0  0  0  0  0  0  0  0  0  0
   70.4217   44.1818   57.7548 C   0  0  0  0  0  0  0  0  0  0  0  0
   71.1842   45.0600   58.5100 C   0  0  0  0  0  0  0  0  0  0  0  0
   70.6232   42.7147   57.7699 C   0  0  0  0  0  0  0  0  0  0  0  0
   70.5045   42.2673   59.0860 F   0  0  0  0  0  0  0  0  0  0  0  0
   71.8454   42.3258   57.3053 F   0  0  0  0  0  0  0  0  0  0  0  0
   69.5946   42.1526   57.0384 F   0  0  0  0  0  0  0  0  0  0  0  0
   71.6901   47.0003   60.7115 N   0  0  0  0  0  0  0  0  0  0  0  0
   71.8323   47.3269   59.3169 C   0  0  0  0  0  0  0  0  0  0  0  0
   68.2023   46.5246   56.0927 O   0  0  0  0  0  0  0  0  0  0  0  0
   68.3833   46.7282   54.7323 C   0  0  0  0  0  0  0  0  0  0  0  0
   67.9852   45.7440   53.8543 C   0  0  0  0  0  0  0  0  0  0  0  0
   68.1417   45.8930   52.4759 C   0  0  0  0  0  0  0  0  0  0  0  0
   68.7150   47.0640   51.9675 C   0  0  0  0  0  0  0  0  0  0  0  0
   69.1167   48.0551   52.8353 C   0  0  0  0  0  0  0  0  0  0  0  0
   68.9437   47.8709   54.2105 C   0  0  0  0  0  0  0  0  0  0  0  0
   69.7163   49.2845   52.3338 C   0  0  0  0  0  0  0  0  0  0  0  0
   70.1229   49.3415   51.1450 O   0  0  0  0  0  0  0  0  0  0  0  0
   69.8661   50.4423   53.1379 N   0  0  0  0  0  0  0  0  0  0  0  0
   70.4341   51.5861   52.6394 O   0  0  0  0  0  0  0  0  0  0  0  0
 11 12  1  0
 12  1  1  0
  1  2  2  0
  1  6  1  0
  2  3  1  0
  3 13  1  0
  3  4  2  0
 13 14  1  0
 14 15  2  0
 14 19  1  0
 15 16  1  0
 16 17  2  0
 17 18  1  0
 18 20  1  0
 18 19  2  0
 20 21  2  0
 20 22  1  0
 22 23  1  0
  4  5  1  0
  5  7  1  0
  5  6  2  0
  7  8  1  0
  7  9  1  0
  7 10  1  0
M  CHG  1  11   1
M  END
>  <minimizedAffinity>  (584) 
-8.97892

$$$$
data/reference_output_2/data/smiles/138917.pdb
     RDKit          3D

 25 28  0  0  0  0  0  0  0  0999 V2000
   73.9617   51.2404   55.6899 C   0  0  0  0  0  0  0  0  0  0  0  0
   73.9511   52.4225   54.9890 C   0  0  0  0  0  0  0  0  0  0  0  0
   72.7939   52.8964   54.3725 C   0  0  0  0  0  0  0  0  0  0  0  0
   71.6450   52.1508   54.4789 C   0  0  0  0  0  0  0  0  0  0  0  0
   71.6125   50.9372   55.1845 C   0  0  0  0  0  0  0  0  0  0  0  0
   72.7841   50.5262   55.7679 C   0  0  0  0  0  0  0  0  0  0  0  0
   76.0663   49.8705   55.6837 C   0  0  0  0  0  0  0  0  0  0  0  0
   75.6957   49.4092   54.5741 O   0  0  0  0  0  0  0  0  0  0  0  0
   75.1797   50.8292   56.2882 N   0  0  0  0  0  0  0  0  0  0  0  0
   77.2685   48.7427   57.6551 C   0  0  0  0  0  0  0  0  0  0  0  0
   77.3275   49.4528   56.3184 C   0  0  0  0  0  0  0  0  0  0  0  0
   78.4659   50.4342   56.1859 C   0  0  0  0  0  0  0  0  0  0  0  0
   78.5057   49.0731   55.4775 C   0  0  0  0  0  0  0  0  0  0  0  0
   70.3136   50.2016   55.2727 C   0  0  0  0  0  0  0  0  0  0  0  0
   70.0834   49.3204   54.1001 C   0  0  0  0  0  0  0  0  0  0  0  0
   70.8255   49.5169   52.9566 N   0  0  0  0  0  0  0  0  0  0  0  0
   70.6823   48.7428   51.9000 N   0  0  0  0  0  0  0  0  0  0  0  0
   69.7917   47.7349   51.9357 C   0  0  0  0  0  0  0  0  0  0  0  0
   69.6489   46.9890   50.9300 O   0  0  0  0  0  0  0  0  0  0  0  0
   69.0232   47.4890   53.0469 C   0  0  0  0  0  0  0  0  0  0  0  0
   69.1757   48.3144   54.1692 C   0  0  0  0  0  0  0  0  0  0  0  0
   68.2927   48.0053   55.3028 C   0  0  0  0  0  0  0  0  0  0  0  0
   68.4084   46.5300   55.6533 C   0  0  0  0  0  0  0  0  0  0  0  0
   68.3888   45.6460   54.4394 C   0  0  0  0  0  0  0  0  0  0  0  0
   68.0275   46.4034   53.1808 C   0  0  0  0  0  0  0  0  0  0  0  0
 10 11  1  0
 11  7  1  0
 11 12  1  0
 11 13  1  0
  7  8  2  0
  7  9  1  0
  9  1  1  0
  1  2  2  0
  1  6  1  0
  2  3  1  0
  3  4  2  0
  4  5  1  0
  5 14  1  0
  5  6  2  0
 14 15  1  0
 15 16  2  0
 15 21  1  0
 16 17  1  0
 17 18  1  0
 18 19  2  0
 18 20  1  0
 20 21  2  0
 20 25  1  0
 21 22  1  0
 22 23  1  0
 23 24  1  0
 24 25  1  0
 12 13  1  0
M  END
>  <minimizedAffinity>  (585) 
-8.76049

$$$$
data/reference_output_2/data/smiles/139040.pdb
     RDKit          3D

 27 30  0  0  0  0  0  0  0  0999 V2000
   69.5777   50.6875   56.6992 N   0  0  2  0  0  0  0  0  0  0  0  0
   68.2737   51.2951   56.6424 C   0  0  0  0  0  0  0  0  0  0  0  0
   67.2782   50.7305   57.5788 C   0  0  0  0  0  0  0  0  0  0  0  0
   67.4221   49.2937   57.9122 C   0  0  0  0  0  0  0  0  0  0  0  0
   68.4492   48.5324   57.1498 C   0  0  2  0  0  0  0  0  0  0  0  0
   69.4307   49.3153   56.3609 C   0  0  0  0  0  0  0  0  0  0  0  0
   70.3104   50.9846   57.8767 C   0  0  0  0  0  0  0  0  0  0  0  0
   73.7956   50.3110   56.5764 C   0  0  0  0  0  0  0  0  0  0  0  0
   74.3444   49.6066   57.6192 C   0  0  0  0  0  0  0  0  0  0  0  0
   73.5821   49.3548   58.7389 C   0  0  0  0  0  0  0  0  0  0  0  0
   72.2871   49.8253   58.7694 C   0  0  0  0  0  0  0  0  0  0  0  0
   71.7157   50.5425   57.7191 C   0  0  0  0  0  0  0  0  0  0  0  0
   72.4883   50.7817   56.6167 C   0  0  0  0  0  0  0  0  0  0  0  0
   73.7895   50.4095   53.7220 N   0  0  0  0  0  0  0  0  0  0  0  0
   74.7454   50.6418   55.1432 S   0  0  0  0  0  0  0  0  0  0  0  0
   75.9475   49.7414   55.1109 O   0  0  0  0  0  0  0  0  0  0  0  0
   75.2052   52.0638   55.2195 O   0  0  0  0  0  0  0  0  0  0  0  0
   67.8456   47.5357   56.2689 N   0  0  0  0  0  0  0  0  0  0  0  0
   68.2624   47.3395   54.9293 C   0  0  0  0  0  0  0  0  0  0  0  0
   67.7680   46.2355   54.2452 C   0  0  0  0  0  0  0  0  0  0  0  0
   68.1397   46.0126   52.9490 C   0  0  0  0  0  0  0  0  0  0  0  0
   69.0004   46.8810   52.3267 C   0  0  0  0  0  0  0  0  0  0  0  0
   69.5222   46.9008   51.0780 N   0  0  0  0  0  0  0  0  0  0  0  0
   70.3194   47.9546   50.9273 N   0  0  0  0  0  0  0  0  0  0  0  0
   70.3232   48.6362   52.0928 C   0  0  0  0  0  0  0  0  0  0  0  0
   69.5028   47.9796   52.9791 C   0  0  0  0  0  0  0  0  0  0  0  0
   69.1217   48.1996   54.2926 C   0  0  0  0  0  0  0  0  0  0  0  0
 14 15  1  0
 15 16  2  0
 15 17  2  0
 15  8  1  0
  8  9  2  0
  8 13  1  0
  9 10  1  0
 10 11  2  0
 11 12  1  0
 12  7  1  0
 12 13  2  0
  1  7  1  1
  1  2  1  0
  1  6  1  0
  2  3  1  0
  3  4  1  0
  4  5  1  0
  5 18  1  6
  5  6  1  0
 18 19  1  0
 19 20  2  0
 19 27  1  0
 20 21  1  0
 21 22  2  0
 22 23  1  0
 22 26  1  0
 23 24  1  0
 24 25  2  0
 25 26  1  0
 26 27  2  0
M  CHG  1   1   1
M  END
>  <minimizedAffinity>  (586) 
-9.44312

$$$$
data/reference_output_2/data/smiles/139089.pdb
     RDKit          3D

 28 30  0  0  0  0  0  0  0  0999 V2000
   73.0440   51.9807   54.7542 C   0  0  0  0  0  0  0  0  0  0  0  0
   70.7575   51.6454   53.1932 O   0  0  0  0  0  0  0  0  0  0  0  0
   71.0685   50.6775   53.9342 C   0  0  0  0  0  0  0  0  0  0  0  0
   72.2183   50.8182   54.7317 N   0  0  0  0  0  0  0  0  0  0  0  0
   70.2636   49.4721   53.9569 C   0  0  0  0  0  0  0  0  0  0  0  0
   69.8938   48.9159   55.1914 C   0  0  0  0  0  0  0  0  0  0  0  0
   69.1376   47.7688   55.2855 C   0  0  0  0  0  0  0  0  0  0  0  0
   68.7028   47.1040   54.1594 C   0  0  0  0  0  0  0  0  0  0  0  0
   67.9438   45.9521   54.2252 C   0  0  0  0  0  0  0  0  0  0  0  0
   67.5138   45.2935   53.1339 N   0  0  0  0  0  0  0  0  0  0  0  0
   67.8583   45.8115   51.9177 C   0  0  0  0  0  0  0  0  0  0  0  0
   68.6141   46.9598   51.8278 C   0  0  0  0  0  0  0  0  0  0  0  0
   69.0562   47.6375   52.9384 C   0  0  0  0  0  0  0  0  0  0  0  0
   69.8220   48.7979   52.8460 C   0  0  0  0  0  0  0  0  0  0  0  0
   72.5465   53.0830   55.6053 C   0  0  0  0  0  0  0  0  0  0  0  0
   72.1025   52.6949   57.2451 S   0  0  0  0  0  0  0  0  0  0  0  0
   72.1337   53.9700   58.0832 O   0  0  0  0  0  0  0  0  0  0  0  0
   73.2185   51.8443   57.8242 O   0  0  0  0  0  0  0  0  0  0  0  0
   70.5689   51.9329   57.4508 C   0  0  0  0  0  0  0  0  0  0  0  0
   69.4362   52.3898   56.7695 C   0  0  0  0  0  0  0  0  0  0  0  0
   68.1995   51.8033   56.8966 C   0  0  0  0  0  0  0  0  0  0  0  0
   68.0914   50.7179   57.7383 C   0  0  0  0  0  0  0  0  0  0  0  0
   69.2134   50.2659   58.4131 C   0  0  0  0  0  0  0  0  0  0  0  0
   70.4008   50.8736   58.2551 N   0  0  0  0  0  0  0  0  0  0  0  0
   66.7812   50.0443   57.9074 C   0  0  0  0  0  0  0  0  0  0  0  0
   66.4610   49.8315   59.2265 F   0  0  0  0  0  0  0  0  0  0  0  0
   65.7495   50.8485   57.3978 F   0  0  0  0  0  0  0  0  0  0  0  0
   66.7510   48.8372   57.2548 F   0  0  0  0  0  0  0  0  0  0  0  0
  2  3  2  0
  3  4  1  0
  3  5  1  0
  4  1  1  0
  1 15  1  0
 15 16  1  0
 16 17  2  0
 16 18  2  0
 16 19  1  0
 19 20  2  0
 19 24  1  0
 20 21  1  0
 21 22  2  0
 22 25  1  0
 22 23  1  0
 25 26  1  0
 25 27  1  0
 25 28  1  0
 23 24  2  0
  5  6  2  0
  5 14  1  0
  6  7  1  0
  7  8  2  0
  8  9  1  0
  8 13  1  0
  9 10  2  0
 10 11  1  0
 11 12  2  0
 12 13  1  0
 13 14  2  0
M  END
>  <minimizedAffinity>  (587) 
-8.52027

$$$$
data/reference_output_2/data/smiles/139151.pdb
     RDKit          3D

 26 28  0  0  0  0  0  0  0  0999 V2000
   69.0732   47.7145   55.0134 N   0  0  0  0  0  0  0  0  0  0  0  0
   69.8887   48.8059   54.8943 C   0  0  0  0  0  0  0  0  0  0  0  0
   70.3376   49.3362   53.7166 C   0  0  0  0  0  0  0  0  0  0  0  0
   69.9503   48.7380   52.5420 C   0  0  0  0  0  0  0  0  0  0  0  0
   70.3453   49.2040   51.4489 O   0  0  0  0  0  0  0  0  0  0  0  0
   69.1293   47.6331   52.6219 C   0  0  0  0  0  0  0  0  0  0  0  0
   68.7305   46.9873   51.4707 C   0  0  0  0  0  0  0  0  0  0  0  0
   67.9280   45.8667   51.4610 C   0  0  0  0  0  0  0  0  0  0  0  0
   67.5185   45.3854   52.6834 C   0  0  0  0  0  0  0  0  0  0  0  0
   67.9145   46.0307   53.8633 C   0  0  0  0  0  0  0  0  0  0  0  0
   67.4788   45.4378   54.9889 F   0  0  0  0  0  0  0  0  0  0  0  0
   68.7087   47.1446   53.8612 C   0  0  0  0  0  0  0  0  0  0  0  0
   71.2179   50.5231   53.6873 C   0  0  0  0  0  0  0  0  0  0  0  0
   72.4220   50.3528   53.9715 O   0  0  0  0  0  0  0  0  0  0  0  0
   70.7769   51.7891   53.3655 O   0  0  0  0  0  0  0  0  0  0  0  0
   68.6226   47.3146   56.3321 C   0  0  0  0  0  0  0  0  0  0  0  0
   71.7650   47.1787   59.2884 C   0  0  0  0  0  0  0  0  0  0  0  0
   71.2525   46.0424   58.7016 C   0  0  0  0  0  0  0  0  0  0  0  0
   70.2508   46.1370   57.7637 C   0  0  0  0  0  0  0  0  0  0  0  0
   69.7039   47.3642   57.3593 C   0  0  0  0  0  0  0  0  0  0  0  0
   70.2054   48.4782   57.9335 C   0  0  0  0  0  0  0  0  0  0  0  0
   71.2253   48.3645   58.8858 C   0  0  0  0  0  0  0  0  0  0  0  0
   73.1438   45.3836   61.0306 C   0  0  0  0  0  0  0  0  0  0  0  0
   73.0371   47.0685   60.4790 S   0  0  0  0  0  0  0  0  0  0  0  0
   74.3497   47.5563   59.9482 O   0  0  0  0  0  0  0  0  0  0  0  0
   72.7003   47.9034   61.6985 O   0  0  0  0  0  0  0  0  0  0  0  0
 23 24  1  0
 24 25  2  0
 24 26  2  0
 24 17  1  0
 17 18  2  0
 17 22  1  0
 18 19  1  0
 19 20  2  0
 20 16  1  0
 20 21  1  0
 16  1  1  0
  1  2  1  0
  1 12  1  0
  2  3  2  0
  3 13  1  0
  3  4  1  0
 13 14  2  0
 13 15  1  0
  4  5  2  0
  4  6  1  0
  6  7  1  0
  6 12  2  0
  7  8  2  0
  8  9  1  0
  9 10  2  0
 10 11  1  0
 10 12  1  0
 21 22  2  0
M  END
>  <minimizedAffinity>  (588) 
-8.57683

$$$$
data/reference_output_2/data/smiles/139289.pdb
     RDKit          3D

 23 25  0  0  0  0  0  0  0  0999 V2000
   69.7147   51.4300   54.6331 N   0  0  0  0  0  0  0  0  0  0  0  0
   70.8051   52.1682   55.0612 C   0  0  0  0  0  0  0  0  0  0  0  0
   71.9855   52.4648   54.6597 O   0  0  0  0  0  0  0  0  0  0  0  0
   70.1019   52.5681   56.2905 C   0  0  2  0  0  0  0  0  0  0  0  0
   70.8542   51.7906   57.6979 Cl  0  0  0  0  0  0  0  0  0  0  0  0
   68.9116   51.9347   55.7075 C   0  0  2  0  0  0  0  0  0  0  0  0
   68.1607   50.9505   56.5128 C   0  0  0  0  0  0  0  0  0  0  0  0
   67.0493   51.1937   57.2605 C   0  0  0  0  0  0  0  0  0  0  0  0
   66.4348   50.2043   58.0144 C   0  0  0  0  0  0  0  0  0  0  0  0
   66.9372   48.9241   58.0274 C   0  0  0  0  0  0  0  0  0  0  0  0
   68.0545   48.6603   57.2822 C   0  0  0  0  0  0  0  0  0  0  0  0
   68.5556   47.3564   57.3079 O   0  0  0  0  0  0  0  0  0  0  0  0
   68.6430   49.6443   56.5498 C   0  0  0  0  0  0  0  0  0  0  0  0
   71.4361   49.4630   53.5903 O   0  0  0  0  0  0  0  0  0  0  0  0
   70.3142   49.5835   53.0774 C   0  0  0  0  0  0  0  0  0  0  0  0
   69.4287   50.5709   53.5806 N   0  0  0  0  0  0  0  0  0  0  0  0
   69.9160   48.6800   51.9383 C   0  0  0  0  0  0  0  0  0  0  0  0
   69.0964   47.5430   52.4799 C   0  0  0  0  0  0  0  0  0  0  0  0
   68.3909   46.6981   51.6258 C   0  0  0  0  0  0  0  0  0  0  0  0
   67.6315   45.6573   52.1011 C   0  0  0  0  0  0  0  0  0  0  0  0
   67.5660   45.4422   53.4642 C   0  0  0  0  0  0  0  0  0  0  0  0
   68.2550   46.2642   54.3461 C   0  0  0  0  0  0  0  0  0  0  0  0
   69.0042   47.2936   53.8300 C   0  0  0  0  0  0  0  0  0  0  0  0
 14 15  2  0
 15 17  1  0
 15 16  1  0
 17 18  1  0
 18 19  2  0
 18 23  1  0
 19 20  1  0
 20 21  2  0
 21 22  1  0
 22 23  2  0
 16  1  1  0
  1  2  1  0
  1  6  1  0
  2  3  2  0
  2  4  1  0
  4  5  1  1
  4  6  1  0
  6  7  1  1
  7  8  2  0
  7 13  1  0
  8  9  1  0
  9 10  2  0
 10 11  1  0
 11 12  1  0
 11 13  2  0
M  END
>  <minimizedAffinity>  (589) 
-8.53157

$$$$
data/reference_output_2/data/smiles/139340.pdb
     RDKit          3D

 28 32  0  0  0  0  0  0  0  0999 V2000
   69.5136   47.7652   57.7472 C   0  0  0  0  0  0  0  0  0  0  0  0
   69.4042   47.7439   56.2812 N   0  0  0  0  0  0  0  0  0  0  0  0
   69.9908   48.6677   55.5700 N   0  0  0  0  0  0  0  0  0  0  0  0
   69.9216   48.6978   54.1952 C   0  0  0  0  0  0  0  0  0  0  0  0
   69.2175   47.7320   53.5178 C   0  0  0  0  0  0  0  0  0  0  0  0
   69.1024   47.6946   52.1458 C   0  0  0  0  0  0  0  0  0  0  0  0
   68.3661   46.6782   51.5078 C   0  0  0  0  0  0  0  0  0  0  0  0
   67.7446   45.6987   52.2545 C   0  0  0  0  0  0  0  0  0  0  0  0
   67.8733   45.7572   53.6257 C   0  0  0  0  0  0  0  0  0  0  0  0
   68.5853   46.7364   54.2750 C   0  0  0  0  0  0  0  0  0  0  0  0
   68.7165   46.7986   55.6406 C   0  0  0  0  0  0  0  0  0  0  0  0
   68.1556   45.9137   56.3344 O   0  0  0  0  0  0  0  0  0  0  0  0
   70.6001   49.7565   53.4842 C   0  0  0  0  0  0  0  0  0  0  0  0
   71.8825   49.6961   53.5002 O   0  0  0  0  0  0  0  0  0  0  0  0
   70.0892   50.8155   52.7947 O   0  0  0  0  0  0  0  0  0  0  0  0
   71.6620   47.3740   58.6067 O   0  0  0  0  0  0  0  0  0  0  0  0
   70.6058   46.8622   58.1567 C   0  0  0  0  0  0  0  0  0  0  0  0
   70.5588   45.4630   58.0826 N   0  0  0  0  0  0  0  0  0  0  0  0
   71.5792   44.5323   58.4640 C   0  0  1  0  0  0  0  0  0  0  0  0
   72.9533   44.9820   57.9696 C   0  0  0  0  0  0  0  0  0  0  0  0
   73.9576   43.9040   58.2206 C   0  0  2  0  0  0  0  0  0  0  0  0
   73.5696   42.6686   57.4345 C   0  0  0  0  0  0  0  0  0  0  0  0
   72.2861   42.1556   58.0083 C   0  0  1  0  0  0  0  0  0  0  0  0
   72.3544   41.9053   59.4979 C   0  0  0  0  0  0  0  0  0  0  0  0
   72.6920   43.1907   60.1714 C   0  0  1  0  0  0  0  0  0  0  0  0
   74.0596   43.6412   59.7006 C   0  0  0  0  0  0  0  0  0  0  0  0
   71.6836   44.2812   59.9292 C   0  0  0  0  0  0  0  0  0  0  0  0
   71.2189   43.2049   57.7850 C   0  0  0  0  0  0  0  0  0  0  0  0
 16 17  2  0
 17  1  1  0
 17 18  1  0
  1  2  1  0
  2  3  1  0
  2 11  1  0
  3  4  2  0
  4 13  1  0
  4  5  1  0
 13 14  2  0
 13 15  1  0
  5  6  2  0
  5 10  1  0
  6  7  1  0
  7  8  2  0
  8  9  1  0
  9 10  2  0
 10 11  1  0
 11 12  2  0
 19 18  1  1
 19 20  1  0
 19 27  1  0
 19 28  1  0
 21 20  1  1
 21 22  1  0
 21 26  1  0
 23 22  1  1
 23 24  1  0
 23 28  1  0
 25 24  1  6
 25 26  1  0
 25 27  1  0
M  END
>  <minimizedAffinity>  (590) 
-8.64198

$$$$
data/reference_output_2/data/smiles/139467.pdb
     RDKit          3D

 24 26  0  0  0  0  0  0  0  0999 V2000
   67.9799   43.7915   55.8915 N   0  0  0  0  0  0  0  0  0  0  0  0
   68.9172   43.2681   56.8081 C   0  0  0  0  0  0  0  0  0  0  0  0
   69.9614   43.9421   56.9968 O   0  0  0  0  0  0  0  0  0  0  0  0
   68.7445   42.0143   57.5337 C   0  0  0  0  0  0  0  0  0  0  0  0
   67.5090   41.6855   58.0516 C   0  0  0  0  0  0  0  0  0  0  0  0
   67.2707   40.5236   58.7457 C   0  0  0  0  0  0  0  0  0  0  0  0
   68.2876   39.6131   58.9574 C   0  0  0  0  0  0  0  0  0  0  0  0
   68.0878   38.4343   59.6501 C   0  0  0  0  0  0  0  0  0  0  0  0
   69.1080   37.5270   59.8589 C   0  0  0  0  0  0  0  0  0  0  0  0
   70.3489   37.8391   59.3476 C   0  0  0  0  0  0  0  0  0  0  0  0
   70.5522   39.0270   58.6499 C   0  0  0  0  0  0  0  0  0  0  0  0
   69.5285   39.9264   58.4454 C   0  0  0  0  0  0  0  0  0  0  0  0
   69.7649   41.1108   57.7406 C   0  0  0  0  0  0  0  0  0  0  0  0
   68.5729   47.4434   53.8090 C   0  0  0  0  0  0  0  0  0  0  0  0
   68.0114   46.3398   53.1828 C   0  0  0  0  0  0  0  0  0  0  0  0
   67.8236   45.1651   53.8662 C   0  0  0  0  0  0  0  0  0  0  0  0
   68.1853   45.0410   55.1874 C   0  0  0  0  0  0  0  0  0  0  0  0
   68.7413   46.1221   55.8213 C   0  0  0  0  0  0  0  0  0  0  0  0
   68.9282   47.2992   55.1345 C   0  0  0  0  0  0  0  0  0  0  0  0
   68.7744   48.6500   53.1395 O   0  0  0  0  0  0  0  0  0  0  0  0
   69.7278   49.9430   50.8995 N   0  0  0  0  0  0  0  0  0  0  0  0
   70.0999   48.6742   52.0410 S   0  0  0  0  0  0  0  0  0  0  0  0
   71.3842   48.9280   52.7382 O   0  0  0  0  0  0  0  0  0  0  0  0
   70.1382   47.3958   51.2473 O   0  0  0  0  0  0  0  0  0  0  0  0
 21 22  1  0
 22 23  2  0
 22 24  2  0
 22 20  1  0
 20 14  1  0
 14 15  2  0
 14 19  1  0
 15 16  1  0
 16 17  2  0
 17  1  1  0
 17 18  1  0
  1  2  1  0
  2  3  2  0
  2  4  1  0
  4  5  2  0
  4 13  1  0
  5  6  1  0
  6  7  2  0
  7  8  1  0
  7 12  1  0
  8  9  2  0
  9 10  1  0
 10 11  2  0
 11 12  1  0
 12 13  2  0
 18 19  2  0
M  END
>  <minimizedAffinity>  (591) 
-8.95039

$$$$
data/reference_output_2/data/smiles/139505.pdb
     RDKit          3D

 29 32  0  0  0  0  0  0  0  0999 V2000
   69.8472   50.7031   53.1685 C   0  0  0  0  0  0  0  0  0  0  0  0
   69.8267   50.9017   51.8421 N   0  0  0  0  0  0  0  0  0  0  0  0
   69.5387   49.7813   51.2064 N   0  0  0  0  0  0  0  0  0  0  0  0
   69.3657   48.8241   52.1376 C   0  0  0  0  0  0  0  0  0  0  0  0
   69.0565   47.4941   52.0355 C   0  0  0  0  0  0  0  0  0  0  0  0
   68.9284   46.6848   53.1730 C   0  0  0  0  0  0  0  0  0  0  0  0
   69.1097   47.2083   54.4233 C   0  0  0  0  0  0  0  0  0  0  0  0
   69.4220   48.5600   54.4848 C   0  0  0  0  0  0  0  0  0  0  0  0
   69.5511   49.3654   53.3955 C   0  0  0  0  0  0  0  0  0  0  0  0
   71.6742   53.1248   55.3801 C   0  0  0  0  0  0  0  0  0  0  0  0
   70.6460   53.6164   56.1900 C   0  0  0  0  0  0  0  0  0  0  0  0
   69.3685   53.1374   55.9888 C   0  0  0  0  0  0  0  0  0  0  0  0
   69.1092   52.1952   55.0121 C   0  0  0  0  0  0  0  0  0  0  0  0
   70.1265   51.6958   54.1963 C   0  0  0  0  0  0  0  0  0  0  0  0
   71.3970   52.1849   54.4103 C   0  0  0  0  0  0  0  0  0  0  0  0
   73.7281   53.5709   57.2433 N   0  0  0  0  0  0  0  0  0  0  0  0
   73.3239   53.6768   55.5654 S   0  0  0  0  0  0  0  0  0  0  0  0
   74.2458   52.7042   54.8433 O   0  0  0  0  0  0  0  0  0  0  0  0
   73.5054   55.0622   55.0325 O   0  0  0  0  0  0  0  0  0  0  0  0
   68.9978   46.4472   55.6569 C   0  0  0  0  0  0  0  0  0  0  0  0
   68.0175   45.6643   55.8070 O   0  0  0  0  0  0  0  0  0  0  0  0
   69.9232   46.5256   56.7122 N   0  0  0  0  0  0  0  0  0  0  0  0
   69.8495   45.7884   57.9534 C   0  0  0  0  0  0  0  0  0  0  0  0
   70.5804   44.5140   57.9536 C   0  0  0  0  0  0  0  0  0  0  0  0
   71.9190   44.3501   58.1621 C   0  0  0  0  0  0  0  0  0  0  0  0
   72.5529   43.1106   58.1446 C   0  0  0  0  0  0  0  0  0  0  0  0
   71.7918   41.9863   57.9050 C   0  0  0  0  0  0  0  0  0  0  0  0
   70.4285   42.1007   57.6879 C   0  0  0  0  0  0  0  0  0  0  0  0
   69.8490   43.3478   57.7151 C   0  0  0  0  0  0  0  0  0  0  0  0
 16 17  1  0
 17 18  2  0
 17 19  2  0
 17 10  1  0
 10 11  2  0
 10 15  1  0
 11 12  1  0
 12 13  2  0
 13 14  1  0
 14  1  1  0
 14 15  2  0
  1  2  2  0
  1  9  1  0
  2  3  1  0
  3  4  1  0
  4  5  1  0
  4  9  2  0
  5  6  2  0
  6  7  1  0
  7 20  1  0
  7  8  2  0
 20 21  2  0
 20 22  1  0
 22 23  1  0
 23 24  1  0
 24 25  2  0
 24 29  1  0
 25 26  1  0
 26 27  2  0
 27 28  1  0
 28 29  2  0
  8  9  1  0
M  END
>  <minimizedAffinity>  (592) 
-8.86054

$$$$
data/reference_output_2/data/smiles/139579.pdb
     RDKit          3D

 25 27  0  0  0  0  0  0  0  0999 V2000
   68.2112   43.2374   56.1116 N   0  0  0  0  0  0  0  0  0  0  0  0
   67.4364   42.2014   55.8671 N   0  0  0  0  0  0  0  0  0  0  0  0
   67.7336   41.1469   56.6416 C   0  0  0  0  0  0  0  0  0  0  0  0
   68.7772   41.5122   57.4550 C   0  0  0  0  0  0  0  0  0  0  0  0
   69.0525   42.8286   57.0988 C   0  0  0  0  0  0  0  0  0  0  0  0
   70.0972   43.6715   57.6940 C   0  0  0  0  0  0  0  0  0  0  0  0
   68.8592   48.1017   56.3639 C   0  0  0  0  0  0  0  0  0  0  0  0
   68.5123   46.8709   55.5916 C   0  0  0  0  0  0  0  0  0  0  0  0
   68.1797   46.9741   54.2598 C   0  0  0  0  0  0  0  0  0  0  0  0
   67.8648   45.8221   53.5748 C   0  0  0  0  0  0  0  0  0  0  0  0
   67.5672   45.9426   52.3609 O   0  0  0  0  0  0  0  0  0  0  0  0
   67.8791   44.6262   54.1910 N   0  0  0  0  0  0  0  0  0  0  0  0
   68.2023   44.5242   55.4899 C   0  0  0  0  0  0  0  0  0  0  0  0
   68.5102   45.6475   56.1556 N   0  0  0  0  0  0  0  0  0  0  0  0
   69.5024   40.7636   58.4808 C   0  0  0  0  0  0  0  0  0  0  0  0
   69.0691   40.6777   59.6684 O   0  0  0  0  0  0  0  0  0  0  0  0
   70.7331   40.0940   58.1936 N   0  0  0  0  0  0  0  0  0  0  0  0
   71.5069   39.3340   59.1100 C   0  0  0  0  0  0  0  0  0  0  0  0
   71.6131   37.8976   58.8839 C   0  0  0  0  0  0  0  0  0  0  0  0
   72.3172   37.4305   57.7968 C   0  0  0  0  0  0  0  0  0  0  0  0
   72.4714   36.0911   57.5153 C   0  0  0  0  0  0  0  0  0  0  0  0
   71.8965   35.1828   58.3567 C   0  0  0  0  0  0  0  0  0  0  0  0
   72.0545   33.8517   58.0798 F   0  0  0  0  0  0  0  0  0  0  0  0
   71.1798   35.6317   59.4600 C   0  0  0  0  0  0  0  0  0  0  0  0
   71.0358   36.9863   59.7285 C   0  0  0  0  0  0  0  0  0  0  0  0
  7  8  1  0
  8  9  2  0
  8 14  1  0
  9 10  1  0
 10 11  2  0
 10 12  1  0
 12 13  1  0
 13  1  1  0
 13 14  2  0
  1  2  1  0
  1  5  1  0
  2  3  2  0
  3  4  1  0
  4 15  1  0
  4  5  2  0
 15 16  2  0
 15 17  1  0
 17 18  1  0
 18 19  1  0
 19 20  2  0
 19 25  1  0
 20 21  1  0
 21 22  2  0
 22 23  1  0
 22 24  1  0
 24 25  2  0
  5  6  1  0
M  END
>  <minimizedAffinity>  (593) 
-8.69358

$$$$
data/reference_output_2/data/smiles/139654.pdb
     RDKit          3D

 32 37  0  0  0  0  0  0  0  0999 V2000
   69.3726   42.4454   61.5156 C   0  0  0  0  0  0  0  0  0  0  0  0
   68.0558   42.4031   61.8909 C   0  0  0  0  0  0  0  0  0  0  0  0
   67.0347   42.0402   61.0028 C   0  0  0  0  0  0  0  0  0  0  0  0
   67.3268   41.7133   59.7205 C   0  0  0  0  0  0  0  0  0  0  0  0
   68.6528   41.7474   59.3138 C   0  0  0  0  0  0  0  0  0  0  0  0
   69.6524   42.1094   60.2070 C   0  0  0  0  0  0  0  0  0  0  0  0
   68.9330   41.3832   57.9114 C   0  0  0  0  0  0  0  0  0  0  0  0
   67.9191   41.8852   56.9257 C   0  0  1  0  0  0  0  0  0  0  0  0
   66.5008   41.7942   57.4061 C   0  0  0  0  0  0  0  0  0  0  0  0
   66.4092   41.3394   58.7530 O   0  0  0  0  0  0  0  0  0  0  0  0
   68.3006   43.2543   56.4903 C   0  0  0  0  0  0  0  0  0  0  0  0
   67.8301   43.7867   55.3490 N   0  0  0  0  0  0  0  0  0  0  0  0
   68.1348   45.0102   54.9010 C   0  0  0  0  0  0  0  0  0  0  0  0
   67.6388   45.5342   53.7240 C   0  0  0  0  0  0  0  0  0  0  0  0
   67.9703   46.8005   53.2870 C   0  0  0  0  0  0  0  0  0  0  0  0
   68.8222   47.6052   54.0149 C   0  0  0  0  0  0  0  0  0  0  0  0
   69.3183   47.0698   55.1992 C   0  0  0  0  0  0  0  0  0  0  0  0
   68.9882   45.8074   55.6364 C   0  0  0  0  0  0  0  0  0  0  0  0
   69.4752   45.2664   56.8103 C   0  0  0  0  0  0  0  0  0  0  0  0
   70.2599   46.0012   57.4852 O   0  0  0  0  0  0  0  0  0  0  0  0
   69.1391   44.0286   57.2209 N   0  0  0  0  0  0  0  0  0  0  0  0
   69.2066   48.9437   53.6025 C   0  0  0  0  0  0  0  0  0  0  0  0
   69.0999   50.1068   54.3267 C   0  0  0  0  0  0  0  0  0  0  0  0
   69.5710   51.1005   53.5601 N   0  0  0  0  0  0  0  0  0  0  0  0
   69.9763   50.6513   52.3864 N   0  0  0  0  0  0  0  0  0  0  0  0
   69.7556   49.3094   52.3957 C   0  0  0  0  0  0  0  0  0  0  0  0
   71.0669   43.9071   62.2182 O   0  0  0  0  0  0  0  0  0  0  0  0
   70.4670   42.8175   62.4042 C   0  0  0  0  0  0  0  0  0  0  0  0
   70.9179   42.0232   63.4911 N   0  0  0  0  0  0  0  0  0  0  0  0
   72.0159   42.4200   64.3651 C   0  0  0  0  0  0  0  0  0  0  0  0
   73.0765   41.4638   64.7139 C   0  0  0  0  0  0  0  0  0  0  0  0
   72.0217   41.6903   65.7089 C   0  0  0  0  0  0  0  0  0  0  0  0
 27 28  2  0
 28 29  1  0
 28  1  1  0
 29 30  1  0
 30 31  1  0
 30 32  1  0
 31 32  1  0
  1  2  2  0
  1  6  1  0
  2  3  1  0
  3  4  2  0
  4  5  1  0
  4 10  1  0
  5  6  2  0
  5  7  1  0
  7  8  1  0
  8 11  1  1
  8  9  1  0
 11 12  2  0
 11 21  1  0
 12 13  1  0
 13 14  2  0
 13 18  1  0
 14 15  1  0
 15 16  2  0
 16 22  1  0
 16 17  1  0
 22 23  1  0
 22 26  2  0
 23 24  2  0
 24 25  1  0
 25 26  1  0
 17 18  2  0
 18 19  1  0
 19 20  2  0
 19 21  1  0
  9 10  1  0
M  END
>  <minimizedAffinity>  (594) 
-8.70106

$$$$
data/reference_output_2/data/smiles/139789.pdb
     RDKit          3D

 20 21  0  0  0  0  0  0  0  0999 V2000
   68.3969   45.9087   55.3613 C   0  0  0  0  0  0  0  0  0  0  0  0
   69.3931   47.7415   52.2690 C   0  0  0  0  0  0  0  0  0  0  0  0
   68.6241   47.0919   51.3223 C   0  0  0  0  0  0  0  0  0  0  0  0
   67.7820   46.0629   51.6728 C   0  0  0  0  0  0  0  0  0  0  0  0
   67.6842   45.6526   52.9797 C   0  0  0  0  0  0  0  0  0  0  0  0
   68.4462   46.2936   53.9298 C   0  0  0  0  0  0  0  0  0  0  0  0
   69.2837   47.3217   53.5587 C   0  0  0  0  0  0  0  0  0  0  0  0
   70.0409   49.4745   50.9236 O   0  0  0  0  0  0  0  0  0  0  0  0
   70.2640   48.8004   51.9333 N   0  0  0  0  0  0  0  0  0  0  0  0
   71.3460   49.0879   52.7102 O   0  0  0  0  0  0  0  0  0  0  0  0
   67.7562   44.6462   55.4381 O   0  0  0  0  0  0  0  0  0  0  0  0
   68.1508   43.7578   56.4072 N   0  0  0  0  0  0  0  0  0  0  0  0
   67.8056   42.5244   56.3759 C   0  0  0  0  0  0  0  0  0  0  0  0
   68.2125   41.5796   57.3869 C   0  0  0  0  0  0  0  0  0  0  0  0
   68.5752   41.9733   58.6492 C   0  0  0  0  0  0  0  0  0  0  0  0
   68.9626   41.0714   59.6101 C   0  0  0  0  0  0  0  0  0  0  0  0
   68.9892   39.7285   59.3049 C   0  0  0  0  0  0  0  0  0  0  0  0
   68.6206   39.3295   58.0251 C   0  0  0  0  0  0  0  0  0  0  0  0
   68.2389   40.2351   57.0833 C   0  0  0  0  0  0  0  0  0  0  0  0
   67.8733   39.8232   55.8097 O   0  0  0  0  0  0  0  0  0  0  0  0
  8  9  2  0
  9 10  1  0
  9  2  1  0
  2  3  2  0
  2  7  1  0
  3  4  1  0
  4  5  2  0
  5  6  1  0
  6  1  1  0
  6  7  2  0
  1 11  1  0
 11 12  1  0
 12 13  2  0
 13 14  1  0
 14 15  2  0
 14 19  1  0
 15 16  1  0
 16 17  2  0
 17 18  1  0
 18 19  2  0
 19 20  1  0
M  CHG  2   9   1  10  -1
M  END
>  <minimizedAffinity>  (595) 
-8.78278

$$$$
data/reference_output_2/data/smiles/139790.pdb
     RDKit          3D

 21 23  0  0  0  0  0  0  0  0999 V2000
   70.2449   49.9231   54.9261 N   0  0  0  0  0  0  0  0  0  0  0  0
   70.3735   49.1050   53.9198 C   0  0  0  0  0  0  0  0  0  0  0  0
   71.5748   49.3765   53.3038 N   0  0  0  0  0  0  0  0  0  0  0  0
   72.1860   50.3604   53.9295 N   0  0  0  0  0  0  0  0  0  0  0  0
   71.3858   50.7215   54.9425 C   0  0  0  0  0  0  0  0  0  0  0  0
   71.6062   51.6292   55.7817 O   0  0  0  0  0  0  0  0  0  0  0  0
   69.4534   48.0463   53.4470 C   0  0  0  0  0  0  0  0  0  0  0  0
   68.7130   47.2585   54.2765 C   0  0  0  0  0  0  0  0  0  0  0  0
   67.8565   46.2697   53.7769 C   0  0  0  0  0  0  0  0  0  0  0  0
   67.7708   46.1005   52.4166 C   0  0  0  0  0  0  0  0  0  0  0  0
   66.9250   45.1227   51.8677 O   0  0  0  0  0  0  0  0  0  0  0  0
   68.5122   46.8881   51.5574 C   0  0  0  0  0  0  0  0  0  0  0  0
   69.3334   47.8385   52.0820 C   0  0  0  0  0  0  0  0  0  0  0  0
   70.0945   48.6474   51.2164 O   0  0  0  0  0  0  0  0  0  0  0  0
   68.4322   52.0468   54.6072 C   0  0  0  0  0  0  0  0  0  0  0  0
   68.2974   51.1255   55.7700 C   0  0  0  0  0  0  0  0  0  0  0  0
   67.2933   51.3430   56.6802 C   0  0  0  0  0  0  0  0  0  0  0  0
   67.1567   50.5002   57.7592 C   0  0  0  0  0  0  0  0  0  0  0  0
   68.0387   49.4513   57.8986 C   0  0  0  0  0  0  0  0  0  0  0  0
   69.0377   49.2524   56.9748 C   0  0  0  0  0  0  0  0  0  0  0  0
   69.2125   50.0711   55.8799 C   0  0  0  0  0  0  0  0  0  0  0  0
 15 16  1  0
 16 17  2  0
 16 21  1  0
 17 18  1  0
 18 19  2  0
 19 20  1  0
 20 21  2  0
 21  1  1  0
  1  2  1  0
  1  5  1  0
  2  7  1  0
  2  3  2  0
  7  8  2  0
  7 13  1  0
  8  9  1  0
  9 10  2  0
 10 11  1  0
 10 12  1  0
 12 13  2  0
 13 14  1  0
  3  4  1  0
  4  5  1  0
  5  6  2  0
M  END
>  <minimizedAffinity>  (596) 
-9.05348

$$$$
data/reference_output_2/data/smiles/139833.pdb
     RDKit          3D

 23 25  0  0  0  0  0  0  0  0999 V2000
   68.4435   43.7637   56.1328 N   0  0  0  0  0  0  0  0  0  0  0  0
   68.2872   42.5290   56.4491 C   0  0  0  0  0  0  0  0  0  0  0  0
   67.2077   41.6857   55.9507 C   0  0  0  0  0  0  0  0  0  0  0  0
   66.2834   42.0226   55.1397 O   0  0  0  0  0  0  0  0  0  0  0  0
   67.4147   40.4103   56.5671 N   0  0  0  0  0  0  0  0  0  0  0  0
   68.5595   40.4550   57.4047 C   0  0  0  0  0  0  0  0  0  0  0  0
   69.1748   39.4956   58.2123 C   0  0  0  0  0  0  0  0  0  0  0  0
   70.2912   39.7936   58.9343 C   0  0  0  0  0  0  0  0  0  0  0  0
   70.8671   41.0436   58.9092 C   0  0  0  0  0  0  0  0  0  0  0  0
   72.2995   41.3947   59.8527 Cl  0  0  0  0  0  0  0  0  0  0  0  0
   70.2446   41.9832   58.1067 C   0  0  0  0  0  0  0  0  0  0  0  0
   69.1238   41.7179   57.3671 C   0  0  0  0  0  0  0  0  0  0  0  0
   67.6042   44.4734   55.2701 N   0  0  0  0  0  0  0  0  0  0  0  0
   69.2811   47.9822   53.5277 C   0  0  0  0  0  0  0  0  0  0  0  0
   68.7075   47.0077   52.7393 C   0  0  0  0  0  0  0  0  0  0  0  0
   68.1513   45.8626   53.2963 C   0  0  0  0  0  0  0  0  0  0  0  0
   68.1468   45.6475   54.6593 C   0  0  0  0  0  0  0  0  0  0  0  0
   68.7292   46.6399   55.4453 C   0  0  0  0  0  0  0  0  0  0  0  0
   69.2800   47.7740   54.8933 C   0  0  0  0  0  0  0  0  0  0  0  0
   69.9346   49.3803   51.1117 N   0  0  0  0  0  0  0  0  0  0  0  0
   70.0028   49.4386   52.8356 S   0  0  0  0  0  0  0  0  0  0  0  0
   69.2606   50.6158   53.3379 O   0  0  0  0  0  0  0  0  0  0  0  0
   71.4498   49.5635   53.2507 O   0  0  0  0  0  0  0  0  0  0  0  0
 20 21  1  0
 21 22  2  0
 21 23  2  0
 21 14  1  0
 14 15  2  0
 14 19  1  0
 15 16  1  0
 16 17  2  0
 17 13  1  0
 17 18  1  0
 13  1  1  0
  1  2  2  0
  2  3  1  0
  2 12  1  0
  3  4  2  0
  3  5  1  0
  5  6  1  0
  6  7  1  0
  6 12  2  0
  7  8  2  0
  8  9  1  0
  9 10  1  0
  9 11  2  0
 11 12  1  0
 18 19  2  0
M  END
>  <minimizedAffinity>  (597) 
-8.73373

$$$$
data/reference_output_2/data/smiles/139870.pdb
     RDKit          3D

 24 27  0  0  0  0  0  0  0  0999 V2000
   70.3550   48.7973   51.1398 O   0  0  0  0  0  0  0  0  0  0  0  0
   70.0325   48.8373   52.3707 C   0  0  0  0  0  0  0  0  0  0  0  0
   69.2767   47.8026   52.9596 N   0  0  0  0  0  0  0  0  0  0  0  0
   68.8731   46.6879   52.1269 C   0  0  0  0  0  0  0  0  0  0  0  0
   67.7167   45.9794   52.7727 C   0  0  0  0  0  0  0  0  0  0  0  0
   68.0693   45.6122   54.1633 C   0  0  0  0  0  0  0  0  0  0  0  0
   67.9241   44.5445   54.8897 O   0  0  0  0  0  0  0  0  0  0  0  0
   68.4164   44.7341   56.0730 N   0  0  0  0  0  0  0  0  0  0  0  0
   68.9291   46.0014   56.1665 C   0  0  0  0  0  0  0  0  0  0  0  0
   68.7074   46.5605   54.9564 C   0  0  0  0  0  0  0  0  0  0  0  0
   68.9347   47.8965   54.3609 C   0  0  0  0  0  0  0  0  0  0  0  0
   70.4698   49.9861   53.1479 C   0  0  0  0  0  0  0  0  0  0  0  0
   69.7624   51.1567   53.3769 C   0  0  0  0  0  0  0  0  0  0  0  0
   70.5255   51.9747   54.1528 C   0  0  0  0  0  0  0  0  0  0  0  0
   71.7128   51.3108   54.4095 C   0  0  0  0  0  0  0  0  0  0  0  0
   71.6515   50.1118   53.7896 N   0  0  0  0  0  0  0  0  0  0  0  0
   69.6297   46.5288   57.3751 C   0  0  0  0  0  0  0  0  0  0  0  0
   69.2922   47.7087   57.8608 O   0  0  0  0  0  0  0  0  0  0  0  0
   68.9728   48.9772   57.6806 C   0  0  0  0  0  0  0  0  0  0  0  0
   67.6569   49.4426   57.6135 C   0  0  0  0  0  0  0  0  0  0  0  0
   67.4166   50.7762   57.4249 C   0  0  0  0  0  0  0  0  0  0  0  0
   68.4206   51.6994   57.2954 C   0  0  0  0  0  0  0  0  0  0  0  0
   69.6825   51.2493   57.3598 N   0  0  0  0  0  0  0  0  0  0  0  0
   69.9737   49.9732   57.5398 C   0  0  0  0  0  0  0  0  0  0  0  0
  1  2  2  0
  2 12  1  0
  2  3  1  0
 12 13  2  0
 12 16  1  0
 13 14  1  0
 14 15  2  0
 15 16  1  0
  3  4  1  0
  3 11  1  0
  4  5  1  0
  5  6  1  0
  6  7  1  0
  6 10  2  0
  7  8  1  0
  8  9  2  0
  9 17  1  0
  9 10  1  0
 17 18  1  0
 18 19  1  0
 19 20  2  0
 19 24  1  0
 20 21  1  0
 21 22  2  0
 22 23  1  0
 23 24  2  0
 10 11  1  0
M  END
>  <minimizedAffinity>  (598) 
-8.70803

$$$$
data/reference_output_2/data/smiles/139978.pdb
     RDKit          3D

 25 27  0  0  0  0  0  0  0  0999 V2000
   69.1445   47.2032   53.1832 C   0  0  0  0  0  0  0  0  0  0  0  0
   69.1168   47.9213   54.3550 C   0  0  0  0  0  0  0  0  0  0  0  0
   69.6299   49.1715   54.3850 N   0  0  0  0  0  0  0  0  0  0  0  0
   70.1678   49.6572   53.2234 C   0  0  0  0  0  0  0  0  0  0  0  0
   70.6726   50.8325   53.2126 O   0  0  0  0  0  0  0  0  0  0  0  0
   70.2161   48.9990   52.0759 N   0  0  0  0  0  0  0  0  0  0  0  0
   69.7081   47.7635   52.0293 C   0  0  0  0  0  0  0  0  0  0  0  0
   69.7306   47.1081   50.9735 O   0  0  0  0  0  0  0  0  0  0  0  0
   67.3962   45.8771   52.1434 C   0  0  0  0  0  0  0  0  0  0  0  0
   68.5625   45.8611   53.1038 C   0  0  0  0  0  0  0  0  0  0  0  0
   68.5149   47.3291   55.5048 C   0  0  0  0  0  0  0  0  0  0  0  0
   67.2762   47.3990   55.7776 O   0  0  0  0  0  0  0  0  0  0  0  0
   69.2851   46.5580   56.4944 C   0  0  0  0  0  0  0  0  0  0  0  0
   70.0555   47.2672   57.4137 C   0  0  0  0  0  0  0  0  0  0  0  0
   70.7774   46.5517   58.3433 C   0  0  0  0  0  0  0  0  0  0  0  0
   71.5928   47.3121   59.3225 C   0  0  0  0  0  0  0  0  0  0  0  0
   70.7501   45.1500   58.3788 C   0  0  0  0  0  0  0  0  0  0  0  0
   69.9838   44.4610   57.4636 C   0  0  0  0  0  0  0  0  0  0  0  0
   69.9678   42.9777   57.5145 C   0  0  0  0  0  0  0  0  0  0  0  0
   69.2611   45.1781   56.5325 C   0  0  0  0  0  0  0  0  0  0  0  0
   69.5636   49.9625   55.5629 C   0  0  0  0  0  0  0  0  0  0  0  0
   68.4574   50.9895   55.5982 C   0  0  0  0  0  0  0  0  0  0  0  0
   67.8503   51.1341   57.0080 C   0  0  0  0  0  0  0  0  0  0  0  0
   68.9074   52.1814   57.2749 C   0  0  0  0  0  0  0  0  0  0  0  0
   68.8910   52.4075   55.7558 C   0  0  0  0  0  0  0  0  0  0  0  0
  9 10  1  0
 10  1  1  0
  1  2  2  0
  1  7  1  0
  2 11  1  0
  2  3  1  0
 11 12  2  0
 11 13  1  0
 13 14  2  0
 13 20  1  0
 14 15  1  0
 15 16  1  0
 15 17  2  0
 17 18  1  0
 18 19  1  0
 18 20  2  0
  3 21  1  0
  3  4  1  0
 21 22  1  0
 22 23  1  0
 22 25  1  0
 23 24  1  0
 24 25  1  0
  4  5  2  0
  4  6  1  0
  6  7  1  0
  7  8  2  0
M  END
>  <minimizedAffinity>  (599) 
-8.61448

$$$$
data/reference_output_2/data/smiles/140046.pdb
     RDKit          3D

 22 25  0  0  0  0  0  0  0  0999 V2000
   67.9405   45.9357   55.0762 O   0  0  0  0  0  0  0  0  0  0  0  0
   66.4215   44.9158   50.6292 N   0  0  0  0  0  0  0  0  0  0  0  0
   67.2327   45.6567   51.5396 C   0  0  0  0  0  0  0  0  0  0  0  0
   67.2109   45.4580   52.8514 N   0  0  0  0  0  0  0  0  0  0  0  0
   67.9907   46.1712   53.7160 C   0  0  0  0  0  0  0  0  0  0  0  0
   68.8269   47.1298   53.2102 C   0  0  0  0  0  0  0  0  0  0  0  0
   69.6889   47.9731   53.7571 N   0  0  0  0  0  0  0  0  0  0  0  0
   70.2742   48.7268   52.7838 C   0  0  0  0  0  0  0  0  0  0  0  0
   69.7505   48.3272   51.6064 N   0  0  0  0  0  0  0  0  0  0  0  0
   68.8566   47.3432   51.8522 C   0  0  0  0  0  0  0  0  0  0  0  0
   68.0673   46.6125   51.0359 N   0  0  0  0  0  0  0  0  0  0  0  0
   68.8817   45.3503   55.8928 C   0  0  0  0  0  0  0  0  0  0  0  0
   68.6771   43.9530   56.2633 C   0  0  0  0  0  0  0  0  0  0  0  0
   67.6240   43.2468   55.7376 C   0  0  0  0  0  0  0  0  0  0  0  0
   67.4108   41.9041   56.0659 C   0  0  0  0  0  0  0  0  0  0  0  0
   68.2694   41.2488   56.9402 C   0  0  0  0  0  0  0  0  0  0  0  0
   68.0678   39.9297   57.2682 C   0  0  0  0  0  0  0  0  0  0  0  0
   68.9382   39.3218   58.1352 C   0  0  0  0  0  0  0  0  0  0  0  0
   70.0078   39.9988   58.6832 C   0  0  0  0  0  0  0  0  0  0  0  0
   70.1791   41.3203   58.3320 C   0  0  0  0  0  0  0  0  0  0  0  0
   69.3310   41.9872   57.4614 C   0  0  0  0  0  0  0  0  0  0  0  0
   69.5368   43.3121   57.1340 C   0  0  0  0  0  0  0  0  0  0  0  0
  2  3  1  0
  3  4  2  0
  3 11  1  0
  4  5  1  0
  5  1  1  0
  5  6  2  0
  1 12  1  0
 12 13  1  0
 13 14  2  0
 13 22  1  0
 14 15  1  0
 15 16  2  0
 16 17  1  0
 16 21  1  0
 17 18  2  0
 18 19  1  0
 19 20  2  0
 20 21  1  0
 21 22  2  0
  6  7  1  0
  6 10  1  0
  7  8  1  0
  8  9  2  0
  9 10  1  0
 10 11  2  0
M  CHG  1   9   1
M  END
>  <minimizedAffinity>  (600) 
-8.76030

$$$$
data/reference_output_2/data/smiles/140358.pdb
     RDKit          3D

 30 32  0  0  0  0  0  0  0  0999 V2000
   69.0799   45.2209   56.5353 N   0  0  0  0  0  0  0  0  0  0  0  0
   70.1232   44.6840   57.2994 C   0  0  0  0  0  0  0  0  0  0  0  0
   71.0075   45.4928   57.7086 O   0  0  0  0  0  0  0  0  0  0  0  0
   70.2415   43.2679   57.6411 C   0  0  0  0  0  0  0  0  0  0  0  0
   69.1680   42.4183   57.7637 C   0  0  0  0  0  0  0  0  0  0  0  0
   69.3345   41.0754   58.0911 C   0  0  0  0  0  0  0  0  0  0  0  0
   70.5802   40.5268   58.3108 C   0  0  0  0  0  0  0  0  0  0  0  0
   71.6589   41.3776   58.1893 C   0  0  0  0  0  0  0  0  0  0  0  0
   71.5010   42.7057   57.8646 C   0  0  0  0  0  0  0  0  0  0  0  0
   70.7500   39.1369   58.6498 C   0  0  0  0  0  0  0  0  0  0  0  0
   70.9053   37.9713   58.9157 C   0  0  0  0  0  0  0  0  0  0  0  0
   71.0860   36.5782   59.2163 C   0  0  0  0  0  0  0  0  0  0  0  0
   71.8772   35.7686   58.4172 C   0  0  0  0  0  0  0  0  0  0  0  0
   72.0625   34.4320   58.6901 C   0  0  0  0  0  0  0  0  0  0  0  0
   71.4621   33.8436   59.7772 C   0  0  0  0  0  0  0  0  0  0  0  0
   70.6710   34.6298   60.5865 C   0  0  0  0  0  0  0  0  0  0  0  0
   70.4920   35.9711   60.3025 C   0  0  0  0  0  0  0  0  0  0  0  0
   68.9283   46.8805   56.1271 S   0  0  0  0  0  0  0  0  0  0  0  0
   69.9676   47.7307   56.7951 O   0  0  0  0  0  0  0  0  0  0  0  0
   67.6035   47.3273   56.7490 O   0  0  0  0  0  0  0  0  0  0  0  0
   69.3669   48.1387   53.7721 C   0  0  0  0  0  0  0  0  0  0  0  0
   69.3025   48.2066   52.3762 C   0  0  0  0  0  0  0  0  0  0  0  0
   68.7247   47.2204   51.6218 C   0  0  0  0  0  0  0  0  0  0  0  0
   68.1924   46.1267   52.2818 C   0  0  0  0  0  0  0  0  0  0  0  0
   68.2591   46.0632   53.6506 C   0  0  0  0  0  0  0  0  0  0  0  0
   68.8453   47.0649   54.4169 C   0  0  0  0  0  0  0  0  0  0  0  0
   68.8745   50.2577   55.6008 N   0  0  0  0  0  0  0  0  0  0  0  0
   70.0773   49.4687   54.6326 S   0  0  0  0  0  0  0  0  0  0  0  0
   71.2912   49.1418   55.4101 O   0  0  0  0  0  0  0  0  0  0  0  0
   70.5336   50.5138   53.6030 O   0  0  0  0  0  0  0  0  0  0  0  0
 27 28  1  0
 28 29  2  0
 28 30  2  0
 28 21  1  0
 21 22  2  0
 21 26  1  0
 22 23  1  0
 23 24  2  0
 24 25  1  0
 25 26  2  0
 26 18  1  0
 18 19  2  0
 18 20  2  0
 18  1  1  0
  1  2  1  0
  2  3  2  0
  2  4  1  0
  4  5  2  0
  4  9  1  0
  5  6  1  0
  6  7  2  0
  7 10  1  0
  7  8  1  0
 10 11  3  0
 11 12  1  0
 12 13  2  0
 12 17  1  0
 13 14  1  0
 14 15  2  0
 15 16  1  0
 16 17  2  0
  8  9  2  0
M  END
>  <minimizedAffinity>  (601) 
-9.59771

$$$$
data/reference_output_2/data/smiles/140546.pdb
     RDKit          3D

 30 33  0  0  0  0  0  0  0  0999 V2000
   67.9897   43.1529   56.3740 N   0  0  0  0  0  0  0  0  0  0  0  0
   68.3939   42.5084   57.5766 C   0  0  0  0  0  0  0  0  0  0  0  0
   69.1351   43.1625   58.3440 O   0  0  0  0  0  0  0  0  0  0  0  0
   67.9740   41.1718   57.9011 N   0  0  0  0  0  0  0  0  0  0  0  0
   68.4073   40.5496   59.1389 C   0  0  0  0  0  0  0  0  0  0  0  0
   69.5842   39.6678   58.9219 C   0  0  0  0  0  0  0  0  0  0  0  0
   70.8647   39.9202   58.4923 C   0  0  0  0  0  0  0  0  0  0  0  0
   71.8260   38.9398   58.3559 C   0  0  0  0  0  0  0  0  0  0  0  0
   71.4068   37.6630   58.6887 C   0  0  0  0  0  0  0  0  0  0  0  0
   70.1362   37.3731   59.1210 C   0  0  0  0  0  0  0  0  0  0  0  0
   69.2177   38.3881   59.2379 C   0  0  0  0  0  0  0  0  0  0  0  0
   67.8259   38.3724   59.6644 C   0  0  0  0  0  0  0  0  0  0  0  0
   66.9883   37.3680   60.0802 C   0  0  0  0  0  0  0  0  0  0  0  0
   65.6863   37.6589   60.4299 C   0  0  0  0  0  0  0  0  0  0  0  0
   65.1810   38.9565   60.3757 C   0  0  0  0  0  0  0  0  0  0  0  0
   66.0339   39.9521   59.9572 C   0  0  0  0  0  0  0  0  0  0  0  0
   67.3367   39.6567   59.6072 C   0  0  0  0  0  0  0  0  0  0  0  0
   68.1488   45.1225   54.8837 C   0  0  0  0  0  0  0  0  0  0  0  0
   67.4765   44.4796   54.0276 O   0  0  0  0  0  0  0  0  0  0  0  0
   68.4223   44.4595   56.0941 N   0  0  0  0  0  0  0  0  0  0  0  0
   69.4218   49.0904   53.8640 C   0  0  0  0  0  0  0  0  0  0  0  0
   69.2140   48.1189   52.9070 C   0  0  0  0  0  0  0  0  0  0  0  0
   68.8032   46.8464   53.2476 C   0  0  0  0  0  0  0  0  0  0  0  0
   68.5821   46.4782   54.5586 C   0  0  0  0  0  0  0  0  0  0  0  0
   68.7904   47.4464   55.5100 C   0  0  0  0  0  0  0  0  0  0  0  0
   69.2026   48.7303   55.1764 C   0  0  0  0  0  0  0  0  0  0  0  0
   68.9535   51.9115   54.1952 N   0  0  0  0  0  0  0  0  0  0  0  0
   69.9432   50.7099   53.4335 S   0  0  0  0  0  0  0  0  0  0  0  0
   71.3569   50.9650   53.8355 O   0  0  0  0  0  0  0  0  0  0  0  0
   69.8756   50.9060   51.9281 O   0  0  0  0  0  0  0  0  0  0  0  0
 27 28  1  0
 28 29  2  0
 28 30  2  0
 28 21  1  0
 21 22  2  0
 21 26  1  0
 22 23  1  0
 23 24  2  0
 24 18  1  0
 24 25  1  0
 18 19  2  0
 18 20  1  0
 20  1  1  0
  1  2  1  0
  2  3  2  0
  2  4  1  0
  4  5  1  0
  5  6  1  0
  5 17  1  0
  6  7  2  0
  6 11  1  0
  7  8  1  0
  8  9  2  0
  9 10  1  0
 10 11  2  0
 11 12  1  0
 12 13  2  0
 12 17  1  0
 13 14  1  0
 14 15  2  0
 15 16  1  0
 16 17  2  0
 25 26  2  0
M  END
>  <minimizedAffinity>  (602) 
-8.63823

$$$$
data/reference_output_2/data/smiles/140691.pdb
     RDKit          3D

 27 28  0  0  0  0  0  0  0  0999 V2000
   69.0040   47.0651   56.5853 S   0  0  0  0  0  0  0  0  0  0  0  0
   67.6880   47.5836   57.0526 O   0  0  0  0  0  0  0  0  0  0  0  0
   69.0295   45.5579   56.5398 O   0  0  0  0  0  0  0  0  0  0  0  0
   70.2203   47.5981   57.7379 C   0  0  0  0  0  0  0  0  0  0  0  0
   71.0883   46.7870   58.2624 C   0  0  0  0  0  0  0  0  0  0  0  0
   72.0930   47.2316   59.2158 C   0  0  0  0  0  0  0  0  0  0  0  0
   73.0506   48.1747   58.8202 C   0  0  0  0  0  0  0  0  0  0  0  0
   74.0350   48.6542   59.6436 C   0  0  0  0  0  0  0  0  0  0  0  0
   74.0744   48.1737   60.9337 C   0  0  0  0  0  0  0  0  0  0  0  0
   73.1545   47.2496   61.3648 C   0  0  0  0  0  0  0  0  0  0  0  0
   72.1749   46.7840   60.5133 C   0  0  0  0  0  0  0  0  0  0  0  0
   75.1223   48.6494   61.9010 C   0  0  0  0  0  0  0  0  0  0  0  0
   74.8901   48.0856   63.1348 F   0  0  0  0  0  0  0  0  0  0  0  0
   75.1308   50.0194   61.9852 F   0  0  0  0  0  0  0  0  0  0  0  0
   76.3405   48.2208   61.4521 F   0  0  0  0  0  0  0  0  0  0  0  0
   69.3243   47.6520   55.0061 N   0  0  0  0  0  0  0  0  0  0  0  0
   68.9425   47.6331   52.5947 C   0  0  0  0  0  0  0  0  0  0  0  0
   68.3690   47.0370   51.4987 C   0  0  0  0  0  0  0  0  0  0  0  0
   67.6154   45.9087   51.6084 C   0  0  0  0  0  0  0  0  0  0  0  0
   67.0481   45.3223   50.5163 F   0  0  0  0  0  0  0  0  0  0  0  0
   67.4133   45.3361   52.8405 C   0  0  0  0  0  0  0  0  0  0  0  0
   67.9928   45.9391   53.9383 C   0  0  0  0  0  0  0  0  0  0  0  0
   68.7560   47.0802   53.8382 C   0  0  0  0  0  0  0  0  0  0  0  0
   69.2406   50.3755   53.3361 N   0  0  0  0  0  0  0  0  0  0  0  0
   69.8998   49.0809   52.3940 S   0  0  0  0  0  0  0  0  0  0  0  0
   71.3156   48.8466   52.8953 O   0  0  0  0  0  0  0  0  0  0  0  0
   69.9095   49.4756   50.9547 O   0  0  0  0  0  0  0  0  0  0  0  0
 24 25  1  0
 25 26  2  0
 25 27  2  0
 25 17  1  0
 17 18  2  0
 17 23  1  0
 18 19  1  0
 19 20  1  0
 19 21  2  0
 21 22  1  0
 22 23  2  0
 23 16  1  0
 16  1  1  0
  1  2  2  0
  1  3  2  0
  1  4  1  0
  4  5  2  0
  5  6  1  0
  6  7  2  0
  6 11  1  0
  7  8  1  0
  8  9  2  0
  9 12  1  0
  9 10  1  0
 12 13  1  0
 12 14  1  0
 12 15  1  0
 10 11  2  0
M  END
>  <minimizedAffinity>  (603) 
-8.77051

$$$$
data/reference_output_2/data/smiles/140753.pdb
     RDKit          3D

 21 23  0  0  0  0  0  0  0  0999 V2000
   69.6993   50.7074   52.5854 N   0  0  0  0  0  0  0  0  0  0  0  0
   69.5432   51.3774   53.8357 C   0  0  0  0  0  0  0  0  0  0  0  0
   68.3581   51.3724   54.5287 C   0  0  0  0  0  0  0  0  0  0  0  0
   68.2639   52.0324   55.7305 C   0  0  0  0  0  0  0  0  0  0  0  0
   69.3348   52.7095   56.2748 C   0  0  0  0  0  0  0  0  0  0  0  0
   70.5490   52.7313   55.5930 C   0  0  0  0  0  0  0  0  0  0  0  0
   71.6153   53.4167   56.1545 C   0  0  0  0  0  0  0  0  0  0  0  0
   72.8010   53.4197   55.4569 C   0  0  0  0  0  0  0  0  0  0  0  0
   72.8354   52.7417   54.2595 C   0  0  0  0  0  0  0  0  0  0  0  0
   71.8008   52.0802   53.7223 N   0  0  0  0  0  0  0  0  0  0  0  0
   70.6122   52.0618   54.3931 C   0  0  0  0  0  0  0  0  0  0  0  0
   71.7300   49.1091   52.9755 O   0  0  0  0  0  0  0  0  0  0  0  0
   70.3199   49.1319   52.4336 S   0  0  0  0  0  0  0  0  0  0  0  0
   70.4261   48.7779   50.9782 O   0  0  0  0  0  0  0  0  0  0  0  0
   69.3549   47.9108   53.1995 C   0  0  0  0  0  0  0  0  0  0  0  0
   69.1842   47.8002   54.5632 C   0  0  0  0  0  0  0  0  0  0  0  0
   68.3831   46.7806   55.0819 C   0  0  0  0  0  0  0  0  0  0  0  0
   67.7477   45.8692   54.2528 C   0  0  0  0  0  0  0  0  0  0  0  0
   67.9216   45.9862   52.8957 C   0  0  0  0  0  0  0  0  0  0  0  0
   68.7158   46.9966   52.3880 C   0  0  0  0  0  0  0  0  0  0  0  0
   68.8421   47.0470   50.9981 O   0  0  0  0  0  0  0  0  0  0  0  0
 12 13  2  0
 13 14  2  0
 13  1  1  0
 13 15  1  0
  1  2  1  0
  2  3  2  0
  2 11  1  0
  3  4  1  0
  4  5  2  0
  5  6  1  0
  6  7  1  0
  6 11  2  0
  7  8  2  0
  8  9  1  0
  9 10  2  0
 10 11  1  0
 15 16  2  0
 15 20  1  0
 16 17  1  0
 17 18  2  0
 18 19  1  0
 19 20  2  0
 20 21  1  0
M  END
>  <minimizedAffinity>  (604) 
-8.69532

$$$$
data/reference_output_2/data/smiles/140790.pdb
     RDKit          3D

 23 25  0  0  0  0  0  0  0  0999 V2000
   70.1654   45.4919   57.1356 O   0  0  0  0  0  0  0  0  0  0  0  0
   69.8229   44.2896   57.2332 C   0  0  0  0  0  0  0  0  0  0  0  0
   70.3401   43.2460   58.0364 N   0  0  0  0  0  0  0  0  0  0  0  0
   69.6392   42.0258   57.8239 C   0  0  0  0  0  0  0  0  0  0  0  0
   69.7667   40.7461   58.3618 C   0  0  0  0  0  0  0  0  0  0  0  0
   68.9370   39.7160   57.9718 C   0  0  0  0  0  0  0  0  0  0  0  0
   69.0652   38.4651   58.5011 F   0  0  0  0  0  0  0  0  0  0  0  0
   67.9733   40.0041   57.0263 C   0  0  0  0  0  0  0  0  0  0  0  0
   67.8486   41.2711   56.4938 C   0  0  0  0  0  0  0  0  0  0  0  0
   68.6757   42.3116   56.8778 C   0  0  0  0  0  0  0  0  0  0  0  0
   68.7319   43.7096   56.4636 C   0  0  0  0  0  0  0  0  0  0  0  0
   67.9957   44.3353   55.6050 N   0  0  0  0  0  0  0  0  0  0  0  0
   68.1728   45.6862   55.3119 N   0  0  0  0  0  0  0  0  0  0  0  0
   68.2791   46.1896   53.9972 C   0  0  0  0  0  0  0  0  0  0  0  0
   67.6376   45.6110   52.9238 C   0  0  0  0  0  0  0  0  0  0  0  0
   66.8801   44.5275   53.1244 F   0  0  0  0  0  0  0  0  0  0  0  0
   67.7644   46.1334   51.6379 C   0  0  0  0  0  0  0  0  0  0  0  0
   67.1364   45.5721   50.5763 F   0  0  0  0  0  0  0  0  0  0  0  0
   68.5282   47.2227   51.4503 N   0  0  0  0  0  0  0  0  0  0  0  0
   69.1787   47.8213   52.4919 C   0  0  0  0  0  0  0  0  0  0  0  0
   69.9429   48.9147   52.2830 F   0  0  0  0  0  0  0  0  0  0  0  0
   69.0527   47.3028   53.7641 C   0  0  0  0  0  0  0  0  0  0  0  0
   69.6970   47.8965   54.7953 F   0  0  0  0  0  0  0  0  0  0  0  0
  1  2  2  0
  2  3  1  0
  2 11  1  0
  3  4  1  0
  4  5  2  0
  4 10  1  0
  5  6  1  0
  6  7  1  0
  6  8  2  0
  8  9  1  0
  9 10  2  0
 10 11  1  0
 11 12  2  0
 12 13  1  0
 13 14  1  0
 14 15  2  0
 14 22  1  0
 15 16  1  0
 15 17  1  0
 17 18  1  0
 17 19  2  0
 19 20  1  0
 20 21  1  0
 20 22  2  0
 22 23  1  0
M  END
>  <minimizedAffinity>  (605) 
-8.57427

$$$$
data/reference_output_2/data/smiles/140797.pdb
     RDKit          3D

 20 22  0  0  0  0  0  0  0  0999 V2000
   71.5025   52.1796   54.6916 C   0  0  0  0  0  0  0  0  0  0  0  0
   71.5279   52.9739   55.8155 C   0  0  0  0  0  0  0  0  0  0  0  0
   70.3308   53.4005   56.3400 C   0  0  0  0  0  0  0  0  0  0  0  0
   69.1411   53.0543   55.7761 C   0  0  0  0  0  0  0  0  0  0  0  0
   69.1347   52.2735   54.6750 N   0  0  0  0  0  0  0  0  0  0  0  0
   70.2910   51.8341   54.1272 C   0  0  0  0  0  0  0  0  0  0  0  0
   73.6126   52.6124   53.4594 N   0  0  0  0  0  0  0  0  0  0  0  0
   72.7246   51.6848   54.0725 C   0  0  0  0  0  0  0  0  0  0  0  0
   73.0497   50.4457   54.0479 N   0  0  0  0  0  0  0  0  0  0  0  0
   74.2015   50.0466   53.4546 O   0  0  0  0  0  0  0  0  0  0  0  0
   70.2810   51.0359   53.0018 O   0  0  0  0  0  0  0  0  0  0  0  0
   69.7702   49.7493   53.0833 C   0  0  0  0  0  0  0  0  0  0  0  0
   69.7705   48.9832   51.9203 C   0  0  0  0  0  0  0  0  0  0  0  0
   69.2662   47.7043   51.9903 C   0  0  0  0  0  0  0  0  0  0  0  0
   68.7673   47.1738   53.1728 C   0  0  0  0  0  0  0  0  0  0  0  0
   68.7735   47.9420   54.3141 C   0  0  0  0  0  0  0  0  0  0  0  0
   69.2749   49.2258   54.2670 C   0  0  0  0  0  0  0  0  0  0  0  0
   68.1941   47.1591   55.4364 C   0  0  0  0  0  0  0  0  0  0  0  0
   68.4124   45.7299   54.9786 C   0  0  0  0  0  0  0  0  0  0  0  0
   68.1820   45.8380   53.4789 C   0  0  0  0  0  0  0  0  0  0  0  0
  7  8  1  0
  8  9  2  0
  8  1  1  0
  9 10  1  0
  1  2  2  0
  1  6  1  0
  2  3  1  0
  3  4  2  0
  4  5  1  0
  5  6  2  0
  6 11  1  0
 11 12  1  0
 12 13  2  0
 12 17  1  0
 13 14  1  0
 14 15  2  0
 15 16  1  0
 15 20  1  0
 16 17  2  0
 16 18  1  0
 18 19  1  0
 19 20  1  0
M  CHG  1   9   1
M  END
>  <minimizedAffinity>  (606) 
-8.57111

$$$$
data/reference_output_2/data/smiles/140811.pdb
     RDKit          3D

 29 33  0  0  0  0  0  0  0  0999 V2000
   70.9233   44.4340   58.9196 C   0  0  2  0  0  0  0  0  0  0  0  0
   72.3666   44.3172   59.3582 C   0  0  2  0  0  0  0  0  0  0  0  0
   73.3059   44.3023   58.1956 C   0  0  0  0  0  0  0  0  0  0  0  0
   73.2183   43.0557   57.6730 C   0  0  0  0  0  0  0  0  0  0  0  0
   72.0848   42.4873   58.3977 C   0  0  2  0  0  0  0  0  0  0  0  0
   71.7897   41.0744   58.2829 C   0  0  0  0  0  0  0  0  0  0  0  0
   70.3377   41.0522   58.4934 N   0  0  0  0  0  0  0  0  0  0  0  0
   69.7974   42.3221   58.1578 C   0  0  0  0  0  0  0  0  0  0  0  0
   68.5689   42.5429   58.0617 O   0  0  0  0  0  0  0  0  0  0  0  0
   70.8550   43.2954   57.9489 C   0  0  1  0  0  0  0  0  0  0  0  0
   72.3557   42.9605   59.6929 O   0  0  0  0  0  0  0  0  0  0  0  0
   71.1584   46.7714   58.7802 O   0  0  0  0  0  0  0  0  0  0  0  0
   70.6155   45.7435   58.3323 C   0  0  0  0  0  0  0  0  0  0  0  0
   69.7054   45.8370   57.2627 N   0  0  0  0  0  0  0  0  0  0  0  0
   69.3193   47.0745   56.5975 C   0  0  0  0  0  0  0  0  0  0  0  0
   68.8621   46.8041   55.2003 C   0  0  0  0  0  0  0  0  0  0  0  0
   69.1159   47.7151   54.2109 C   0  0  0  0  0  0  0  0  0  0  0  0
   68.6660   47.4404   52.9199 C   0  0  0  0  0  0  0  0  0  0  0  0
   67.9785   46.2886   52.6106 C   0  0  0  0  0  0  0  0  0  0  0  0
   67.4265   45.9742   50.9725 Cl  0  0  0  0  0  0  0  0  0  0  0  0
   67.7386   45.3974   53.6125 C   0  0  0  0  0  0  0  0  0  0  0  0
   68.1712   45.6496   54.8849 C   0  0  0  0  0  0  0  0  0  0  0  0
   69.5648   39.9285   58.9666 C   0  0  0  0  0  0  0  0  0  0  0  0
   70.2968   38.6649   58.9878 C   0  0  0  0  0  0  0  0  0  0  0  0
   71.1587   38.3036   57.9469 C   0  0  0  0  0  0  0  0  0  0  0  0
   71.8547   37.1051   57.9650 C   0  0  0  0  0  0  0  0  0  0  0  0
   71.7084   36.2357   59.0240 C   0  0  0  0  0  0  0  0  0  0  0  0
   70.8857   36.5799   60.0184 N   0  0  0  0  0  0  0  0  0  0  0  0
   70.2020   37.7367   60.0198 C   0  0  0  0  0  0  0  0  0  0  0  0
 12 13  2  0
 13 14  1  0
  1 13  1  6
 14 15  1  0
 15 16  1  0
 16 17  2  0
 16 22  1  0
 17 18  1  0
 18 19  2  0
 19 20  1  0
 19 21  1  0
 21 22  2  0
  1  2  1  0
  1 10  1  0
  2  3  1  6
  2 11  1  0
  3  4  2  0
  5  4  1  0
  5  6  1  1
  5 10  1  0
  5 11  1  0
  6  7  1  0
  7 23  1  0
  7  8  1  0
 23 24  1  0
 24 25  2  0
 24 29  1  0
 25 26  1  0
 26 27  2  0
 27 28  1  0
 28 29  2  0
  8  9  2  0
 10  8  1  1
M  END
>  <minimizedAffinity>  (607) 
-8.53396

$$$$
data/reference_output_2/data/smiles/140824.pdb
     RDKit          3D

 29 33  0  0  0  0  0  0  0  0999 V2000
   68.6735   47.1510   55.2506 C   0  0  0  0  0  0  0  0  0  0  0  0
   68.2183   45.8245   54.9877 C   0  0  0  0  0  0  0  0  0  0  0  0
   68.0668   45.3007   53.7393 C   0  0  0  0  0  0  0  0  0  0  0  0
   68.3628   46.0742   52.6629 C   0  0  0  0  0  0  0  0  0  0  0  0
   68.7998   47.3482   52.8406 C   0  0  0  0  0  0  0  0  0  0  0  0
   69.0856   48.1044   51.7562 N   0  0  0  0  0  0  0  0  0  0  0  0
   69.5059   49.3510   51.8643 C   0  0  0  0  0  0  0  0  0  0  0  0
   69.7680   50.0358   50.8368 O   0  0  0  0  0  0  0  0  0  0  0  0
   69.6724   49.9417   53.0867 C   0  0  0  0  0  0  0  0  0  0  0  0
   70.0789   51.2431   53.1993 C   0  0  0  0  0  0  0  0  0  0  0  0
   70.2144   51.8431   54.4224 C   0  0  0  0  0  0  0  0  0  0  0  0
   69.9351   51.1176   55.5401 C   0  0  0  0  0  0  0  0  0  0  0  0
   69.5174   49.7839   55.4625 C   0  0  0  0  0  0  0  0  0  0  0  0
   69.3920   49.2051   54.2430 C   0  0  0  0  0  0  0  0  0  0  0  0
   68.9534   47.8892   54.1296 C   0  0  0  0  0  0  0  0  0  0  0  0
   68.9051   47.5389   56.6198 C   0  0  0  0  0  0  0  0  0  0  0  0
   70.1524   46.9802   57.2911 C   0  0  2  0  0  0  0  0  0  0  0  0
   69.8265   45.7606   57.9807 N   0  0  0  0  0  0  0  0  0  0  0  0
   70.8046   44.7671   58.1611 C   0  0  0  0  0  0  0  0  0  0  0  0
   71.9520   44.9752   57.7055 O   0  0  0  0  0  0  0  0  0  0  0  0
   70.5440   43.4853   58.8637 C   0  0  1  0  0  0  0  0  0  0  0  0
   69.2298   43.5016   59.4878 N   0  0  0  0  0  0  0  0  0  0  0  0
   68.6056   42.2838   59.0487 C   0  0  2  0  0  0  0  0  0  0  0  0
   69.4472   41.1447   59.5781 C   0  0  0  0  0  0  0  0  0  0  0  0
   70.6741   41.0594   58.6613 C   0  0  0  0  0  0  0  0  0  0  0  0
   70.5395   42.3323   57.8846 C   0  0  1  0  0  0  0  0  0  0  0  0
   69.0310   42.2776   57.5688 C   0  0  0  0  0  0  0  0  0  0  0  0
   70.9747   48.6598   59.1700 N   0  0  0  0  0  0  0  0  0  0  0  0
   70.6079   47.9182   58.3407 C   0  0  0  0  0  0  0  0  0  0  0  0
 28 29  3  0
 17 29  1  1
 17 16  1  0
 17 18  1  0
 16  1  1  0
  1  2  2  0
  1 15  1  0
  2  3  1  0
  3  4  2  0
  4  5  1  0
  5  6  1  0
  5 15  2  0
  6  7  1  0
  7  8  2  0
  7  9  1  0
  9 10  1  0
  9 14  2  0
 10 11  2  0
 11 12  1  0
 12 13  2  0
 13 14  1  0
 14 15  1  0
 18 19  1  0
 19 20  2  0
 21 19  1  6
 21 22  1  0
 21 26  1  0
 22 23  1  0
 23 24  1  1
 23 27  1  0
 24 25  1  0
 26 25  1  1
 26 27  1  0
M  CHG  1  22   1
M  END
>  <minimizedAffinity>  (608) 
-8.76803

$$$$
data/reference_output_2/data/smiles/140834.pdb
     RDKit          3D

 26 28  0  0  0  0  0  0  0  0999 V2000
   69.1117   47.7721   57.3315 C   0  0  0  0  0  0  0  0  0  0  0  0
   70.0177   46.7642   57.9355 C   0  0  0  0  0  0  0  0  0  0  0  0
   69.8146   45.4656   57.7891 N   0  0  0  0  0  0  0  0  0  0  0  0
   70.7667   44.7156   58.4285 N   0  0  0  0  0  0  0  0  0  0  0  0
   71.6686   45.6084   59.0474 C   0  0  0  0  0  0  0  0  0  0  0  0
   72.6609   45.2659   59.7286 O   0  0  0  0  0  0  0  0  0  0  0  0
   71.2172   46.9816   58.7367 C   0  0  0  0  0  0  0  0  0  0  0  0
   70.8077   43.2709   58.4446 C   0  0  0  0  0  0  0  0  0  0  0  0
   71.9381   42.6004   58.0349 C   0  0  0  0  0  0  0  0  0  0  0  0
   71.9880   41.2060   58.0464 C   0  0  0  0  0  0  0  0  0  0  0  0
   70.9049   40.4630   58.4690 C   0  0  0  0  0  0  0  0  0  0  0  0
   70.9526   38.5461   58.4930 Br  0  0  0  0  0  0  0  0  0  0  0  0
   69.7696   41.1292   58.8801 C   0  0  0  0  0  0  0  0  0  0  0  0
   69.7369   42.5106   58.8628 C   0  0  0  0  0  0  0  0  0  0  0  0
   68.2359   47.3625   56.3749 O   0  0  0  0  0  0  0  0  0  0  0  0
   69.3662   47.8549   52.9800 C   0  0  0  0  0  0  0  0  0  0  0  0
   68.7463   46.8222   52.2967 C   0  0  0  0  0  0  0  0  0  0  0  0
   68.9744   46.7285   50.9690 F   0  0  0  0  0  0  0  0  0  0  0  0
   67.9353   45.9448   52.9745 C   0  0  0  0  0  0  0  0  0  0  0  0
   67.7463   46.1080   54.3551 C   0  0  0  0  0  0  0  0  0  0  0  0
   68.3399   47.1173   55.0738 C   0  0  0  0  0  0  0  0  0  0  0  0
   69.1622   47.9874   54.3272 C   0  0  0  0  0  0  0  0  0  0  0  0
   69.7634   48.9934   55.0048 F   0  0  0  0  0  0  0  0  0  0  0  0
   69.7783   49.5029   51.1130 N   0  0  0  0  0  0  0  0  0  0  0  0
   70.2318   48.7847   52.2403 C   0  0  0  0  0  0  0  0  0  0  0  0
   71.4170   48.9615   52.6032 O   0  0  0  0  0  0  0  0  0  0  0  0
 24 25  1  0
 25 26  2  0
 25 16  1  0
 16 17  2  0
 16 22  1  0
 17 18  1  0
 17 19  1  0
 19 20  2  0
 20 21  1  0
 21 15  1  0
 21 22  2  0
 15  1  1  0
  1  2  1  0
  2  3  2  0
  2  7  1  0
  3  4  1  0
  4  8  1  0
  4  5  1  0
  8  9  2  0
  8 14  1  0
  9 10  1  0
 10 11  2  0
 11 12  1  0
 11 13  1  0
 13 14  2  0
  5  6  2  0
  5  7  1  0
 22 23  1  0
M  END
>  <minimizedAffinity>  (609) 
-8.58742

$$$$
data/reference_output_2/data/smiles/140979.pdb
     RDKit          3D

 30 33  0  0  0  0  0  0  0  0999 V2000
   71.4268   46.8346   58.1843 C   0  0  0  0  0  0  0  0  0  0  0  0
   72.6020   46.8765   58.6721 O   0  0  0  0  0  0  0  0  0  0  0  0
   70.8766   47.9342   57.4724 N   0  0  0  0  0  0  0  0  0  0  0  0
   71.6614   49.1102   57.2916 C   0  0  0  0  0  0  0  0  0  0  0  0
   71.4022   49.8245   55.9988 C   0  0  0  0  0  0  0  0  0  0  0  0
   70.0868   49.6747   55.4890 N   0  0  0  0  0  0  0  0  0  0  0  0
   69.1099   49.1494   56.3633 C   0  0  0  0  0  0  0  0  0  0  0  0
   69.5372   47.8431   56.9501 C   0  0  0  0  0  0  0  0  0  0  0  0
   69.6647   43.5918   58.2098 C   0  0  0  0  0  0  0  0  0  0  0  0
   70.3844   44.5638   57.5318 C   0  0  0  0  0  0  0  0  0  0  0  0
   70.6969   45.5919   58.4039 C   0  0  0  0  0  0  0  0  0  0  0  0
   70.1597   45.2166   59.5904 N   0  0  0  0  0  0  0  0  0  0  0  0
   69.5655   44.0576   59.4627 N   0  0  0  0  0  0  0  0  0  0  0  0
   67.7684   41.0314   56.1918 C   0  0  0  0  0  0  0  0  0  0  0  0
   68.1037   39.8804   56.9338 C   0  0  0  0  0  0  0  0  0  0  0  0
   68.9060   39.9542   58.0282 C   0  0  0  0  0  0  0  0  0  0  0  0
   69.4025   41.1636   58.4223 C   0  0  0  0  0  0  0  0  0  0  0  0
   69.1088   42.3356   57.7335 C   0  0  0  0  0  0  0  0  0  0  0  0
   68.2949   42.2268   56.6325 C   0  0  0  0  0  0  0  0  0  0  0  0
   65.8326   41.6589   54.8321 C   0  0  0  0  0  0  0  0  0  0  0  0
   66.9539   40.8876   55.0976 O   0  0  0  0  0  0  0  0  0  0  0  0
   69.9376   49.2889   53.8528 S   0  0  0  0  0  0  0  0  0  0  0  0
   69.1501   50.4048   53.1815 O   0  0  0  0  0  0  0  0  0  0  0  0
   71.3070   49.3013   53.2242 O   0  0  0  0  0  0  0  0  0  0  0  0
   69.1225   47.8002   53.5113 C   0  0  0  0  0  0  0  0  0  0  0  0
   68.8628   47.4221   52.2158 C   0  0  0  0  0  0  0  0  0  0  0  0
   68.2186   46.2463   51.9236 C   0  0  0  0  0  0  0  0  0  0  0  0
   67.8191   45.4182   52.9385 C   0  0  0  0  0  0  0  0  0  0  0  0
   68.0495   45.7390   54.2587 C   0  0  0  0  0  0  0  0  0  0  0  0
   68.7000   46.9314   54.5035 C   0  0  0  0  0  0  0  0  0  0  0  0
 20 21  1  0
 21 14  1  0
 14 15  2  0
 14 19  1  0
 15 16  1  0
 16 17  2  0
 17 18  1  0
 18  9  1  0
 18 19  2  0
  9 10  1  0
  9 13  2  0
 10 11  2  0
 11  1  1  0
 11 12  1  0
  1  2  2  0
  1  3  1  0
  3  4  1  0
  3  8  1  0
  4  5  1  0
  5  6  1  0
  6 22  1  0
  6  7  1  0
 22 23  2  0
 22 24  2  0
 22 25  1  0
 25 26  2  0
 25 30  1  0
 26 27  1  0
 27 28  2  0
 28 29  1  0
 29 30  2  0
  7  8  1  0
 12 13  1  0
M  END
>  <minimizedAffinity>  (610) 
-8.86156

$$$$
data/reference_output_2/data/smiles/141184.pdb
     RDKit          3D

 30 33  0  0  0  0  0  0  0  0999 V2000
   71.8980   38.4801   57.7685 O   0  0  0  0  0  0  0  0  0  0  0  0
   71.8984   37.2471   57.9975 C   0  0  0  0  0  0  0  0  0  0  0  0
   72.6301   36.4253   57.2169 N   0  0  0  0  0  0  0  0  0  0  0  0
   72.6341   35.1020   57.4584 C   0  0  0  0  0  0  0  0  0  0  0  0
   73.3582   34.2952   56.6855 C   0  0  0  0  0  0  0  0  0  0  0  0
   71.8737   34.6441   58.5151 C   0  0  0  0  0  0  0  0  0  0  0  0
   71.8716   33.4173   58.7465 O   0  0  0  0  0  0  0  0  0  0  0  0
   71.1448   35.4733   59.2901 N   0  0  0  0  0  0  0  0  0  0  0  0
   71.1337   36.8002   59.0571 C   0  0  0  0  0  0  0  0  0  0  0  0
   70.4132   37.6138   59.8247 C   0  0  0  0  0  0  0  0  0  0  0  0
   74.1553   34.7866   55.5753 C   0  0  0  0  0  0  0  0  0  0  0  0
   73.5091   35.1603   54.4139 C   0  0  0  0  0  0  0  0  0  0  0  0
   74.2164   35.6419   53.3051 C   0  0  0  0  0  0  0  0  0  0  0  0
   75.5863   35.7539   53.3551 C   0  0  0  0  0  0  0  0  0  0  0  0
   76.1944   35.3720   54.5291 C   0  0  0  0  0  0  0  0  0  0  0  0
   75.4894   34.9152   55.5688 N   0  0  0  0  0  0  0  0  0  0  0  0
   76.3381   36.2307   52.2718 O   0  0  0  0  0  0  0  0  0  0  0  0
   77.3684   35.3712   51.7757 C   0  0  0  0  0  0  0  0  0  0  0  0
   77.2129   35.1072   50.3392 C   0  0  0  0  0  0  0  0  0  0  0  0
   77.9576   35.7899   49.4084 C   0  0  0  0  0  0  0  0  0  0  0  0
   77.8121   35.5424   48.0670 C   0  0  0  0  0  0  0  0  0  0  0  0
   76.9122   34.5978   47.6141 C   0  0  0  0  0  0  0  0  0  0  0  0
   76.1729   33.9200   48.5558 C   0  0  0  0  0  0  0  0  0  0  0  0
   76.3160   34.1657   49.9004 C   0  0  0  0  0  0  0  0  0  0  0  0
   69.6168   37.1227   60.9328 C   0  0  0  0  0  0  0  0  0  0  0  0
   68.3092   36.7537   60.7687 C   0  0  0  0  0  0  0  0  0  0  0  0
   67.5551   36.2829   61.8442 C   0  0  0  0  0  0  0  0  0  0  0  0
   68.1254   36.1839   63.0982 C   0  0  0  0  0  0  0  0  0  0  0  0
   69.4438   36.5588   63.2515 C   0  0  0  0  0  0  0  0  0  0  0  0
   70.1856   37.0258   62.1758 C   0  0  0  0  0  0  0  0  0  0  0  0
  1  2  2  0
  2  3  1  0
  2  9  1  0
  3  4  1  0
  4  5  2  0
  4  6  1  0
  5 11  1  0
 11 12  2  0
 11 16  1  0
 12 13  1  0
 13 14  2  0
 14 17  1  0
 14 15  1  0
 17 18  1  0
 18 19  1  0
 19 20  2  0
 19 24  1  0
 20 21  1  0
 21 22  2  0
 22 23  1  0
 23 24  2  0
 15 16  2  0
  6  7  2  0
  6  8  1  0
  8  9  1  0
  9 10  2  0
 10 25  1  0
 25 26  2  0
 25 30  1  0
 26 27  1  0
 27 28  2  0
 28 29  1  0
 29 30  2  0
M  END
>  <minimizedAffinity>  (611) 
-8.89748

$$$$
data/reference_output_2/data/smiles/141196.pdb
     RDKit          3D

 19 20  0  0  0  0  0  0  0  0999 V2000
   68.3669   46.5318   56.1525 N   0  0  0  0  0  0  0  0  0  0  0  0
   69.3973   47.7125   52.7308 C   0  0  0  0  0  0  0  0  0  0  0  0
   68.6294   46.8423   51.9846 C   0  0  0  0  0  0  0  0  0  0  0  0
   67.8145   45.8978   52.5736 C   0  0  0  0  0  0  0  0  0  0  0  0
   67.7790   45.8357   53.9438 C   0  0  0  0  0  0  0  0  0  0  0  0
   68.5327   46.6895   54.7667 C   0  0  0  0  0  0  0  0  0  0  0  0
   69.3093   47.5907   54.1148 C   0  0  0  0  0  0  0  0  0  0  0  0
   69.9244   49.2477   51.0581 O   0  0  0  0  0  0  0  0  0  0  0  0
   70.2516   48.7033   52.1159 C   0  0  0  0  0  0  0  0  0  0  0  0
   71.4418   49.0378   52.7230 O   0  0  0  0  0  0  0  0  0  0  0  0
   68.9512   47.4007   57.1313 C   0  0  0  0  0  0  0  0  0  0  0  0
   68.2795   48.7076   57.2848 C   0  0  0  0  0  0  0  0  0  0  0  0
   69.0587   49.8180   56.9167 C   0  0  0  0  0  0  0  0  0  0  0  0
   68.5749   51.0927   56.9864 C   0  0  0  0  0  0  0  0  0  0  0  0
   69.3620   52.1851   56.6163 O   0  0  0  0  0  0  0  0  0  0  0  0
   67.2951   51.3219   57.4263 C   0  0  0  0  0  0  0  0  0  0  0  0
   66.5065   50.2533   57.7950 C   0  0  0  0  0  0  0  0  0  0  0  0
   67.0215   48.9572   57.7156 C   0  0  0  0  0  0  0  0  0  0  0  0
   66.1790   47.9455   58.1009 O   0  0  0  0  0  0  0  0  0  0  0  0
  8  9  2  0
  9 10  1  0
  9  2  1  0
  2  3  2  0
  2  7  1  0
  3  4  1  0
  4  5  2  0
  5  6  1  0
  6  1  1  0
  6  7  2  0
  1 11  1  0
 11 12  1  0
 12 13  2  0
 12 18  1  0
 13 14  1  0
 14 15  1  0
 14 16  2  0
 16 17  1  0
 17 18  2  0
 18 19  1  0
M  END
>  <minimizedAffinity>  (612) 
-8.61013

$$$$
data/reference_output_2/data/smiles/141202.pdb
     RDKit          3D

 26 28  0  0  0  0  0  0  0  0999 V2000
   69.3173   46.6816   57.2678 N   0  0  0  0  0  0  0  0  0  0  0  0
   68.9225   47.6528   56.5200 C   0  0  0  0  0  0  0  0  0  0  0  0
   68.6029   49.0080   57.1038 C   0  0  0  0  0  0  0  0  0  0  0  0
   69.4044   50.0986   56.4910 C   0  0  0  0  0  0  0  0  0  0  0  0
   69.9303   49.8260   54.8377 S   0  0  0  0  0  0  0  0  0  0  0  0
   71.4412   49.6221   54.8841 O   0  0  0  0  0  0  0  0  0  0  0  0
   69.6396   51.0353   53.9979 O   0  0  0  0  0  0  0  0  0  0  0  0
   69.2372   48.3838   54.1717 C   0  0  0  0  0  0  0  0  0  0  0  0
   69.1141   48.1469   52.8401 C   0  0  0  0  0  0  0  0  0  0  0  0
   68.5475   46.9588   52.3801 C   0  0  0  0  0  0  0  0  0  0  0  0
   68.1083   46.0182   53.3142 C   0  0  0  0  0  0  0  0  0  0  0  0
   67.5601   44.8686   52.8228 F   0  0  0  0  0  0  0  0  0  0  0  0
   68.2254   46.2419   54.6675 C   0  0  0  0  0  0  0  0  0  0  0  0
   68.7871   47.4166   55.0896 C   0  0  0  0  0  0  0  0  0  0  0  0
   69.6150   45.4422   56.7491 N   0  0  0  0  0  0  0  0  0  0  0  0
   70.0236   44.1622   57.8289 S   0  0  0  0  0  0  0  0  0  0  0  0
   69.6768   44.5337   59.2654 O   0  0  0  0  0  0  0  0  0  0  0  0
   71.5090   43.8937   57.8308 O   0  0  0  0  0  0  0  0  0  0  0  0
   66.3514   41.5811   55.1956 C   0  0  0  0  0  0  0  0  0  0  0  0
   67.4605   41.5497   56.2056 C   0  0  0  0  0  0  0  0  0  0  0  0
   67.8098   40.3817   56.8358 C   0  0  0  0  0  0  0  0  0  0  0  0
   68.8289   40.3501   57.7651 C   0  0  0  0  0  0  0  0  0  0  0  0
   69.5135   41.5327   58.0657 C   0  0  0  0  0  0  0  0  0  0  0  0
   70.6164   41.5330   59.0571 C   0  0  0  0  0  0  0  0  0  0  0  0
   69.1734   42.6953   57.4460 C   0  0  0  0  0  0  0  0  0  0  0  0
   68.1557   42.7023   56.5255 C   0  0  0  0  0  0  0  0  0  0  0  0
 19 20  1  0
 20 21  2  0
 20 26  1  0
 21 22  1  0
 22 23  2  0
 23 24  1  0
 23 25  1  0
 25 16  1  0
 25 26  2  0
 16 17  2  0
 16 18  2  0
 16 15  1  0
 15  1  1  0
  1  2  2  0
  2  3  1  0
  2 14  1  0
  3  4  1  0
  4  5  1  0
  5  6  2  0
  5  7  2  0
  5  8  1  0
  8  9  2  0
  8 14  1  0
  9 10  1  0
 10 11  2  0
 11 12  1  0
 11 13  1  0
 13 14  2  0
M  END
>  <minimizedAffinity>  (613) 
-8.89297

$$$$
data/reference_output_2/data/smiles/141271.pdb
     RDKit          3D

 22 24  0  0  0  0  0  0  0  0999 V2000
   68.4376   42.5965   56.6497 C   0  0  0  0  0  0  0  0  0  0  0  0
   69.4048   41.9507   57.3823 C   0  0  0  0  0  0  0  0  0  0  0  0
   70.4033   42.7129   57.9384 C   0  0  0  0  0  0  0  0  0  0  0  0
   71.2957   42.1408   58.6115 O   0  0  0  0  0  0  0  0  0  0  0  0
   70.4061   44.0837   57.7484 C   0  0  0  0  0  0  0  0  0  0  0  0
   71.3925   44.8603   58.3144 C   0  0  0  0  0  0  0  0  0  0  0  0
   71.4169   46.2260   58.1581 C   0  0  0  0  0  0  0  0  0  0  0  0
   70.4320   46.8343   57.4155 C   0  0  0  0  0  0  0  0  0  0  0  0
   69.3986   46.1026   56.8107 C   0  0  0  0  0  0  0  0  0  0  0  0
   69.4189   44.7388   56.9998 C   0  0  0  0  0  0  0  0  0  0  0  0
   68.4655   43.9489   56.4789 N   0  0  0  0  0  0  0  0  0  0  0  0
   66.2161   42.3523   55.9839 O   0  0  0  0  0  0  0  0  0  0  0  0
   67.3491   41.8506   56.0306 C   0  0  0  0  0  0  0  0  0  0  0  0
   67.5469   40.5945   55.4918 O   0  0  0  0  0  0  0  0  0  0  0  0
   68.4141   46.7931   55.9903 C   0  0  0  0  0  0  0  0  0  0  0  0
   67.4112   47.3761   56.4973 O   0  0  0  0  0  0  0  0  0  0  0  0
   68.5469   46.8457   54.5506 C   0  0  0  0  0  0  0  0  0  0  0  0
   67.9088   45.9004   53.7451 C   0  0  0  0  0  0  0  0  0  0  0  0
   68.0090   45.9425   52.3655 C   0  0  0  0  0  0  0  0  0  0  0  0
   68.7521   46.9361   51.7580 C   0  0  0  0  0  0  0  0  0  0  0  0
   69.3959   47.8857   52.5214 C   0  0  0  0  0  0  0  0  0  0  0  0
   69.2774   47.8158   53.8731 C   0  0  0  0  0  0  0  0  0  0  0  0
 12 13  2  0
 13 14  1  0
 13  1  1  0
  1  2  2  0
  1 11  1  0
  2  3  1  0
  3  4  2  0
  3  5  1  0
  5  6  1  0
  5 10  2  0
  6  7  2  0
  7  8  1  0
  8  9  2  0
  9 15  1  0
  9 10  1  0
 15 16  2  0
 15 17  1  0
 17 18  2  0
 17 22  1  0
 18 19  1  0
 19 20  2  0
 20 21  1  0
 21 22  2  0
 10 11  1  0
M  END
>  <minimizedAffinity>  (614) 
-8.54005

$$$$
data/reference_output_2/data/smiles/141382.pdb
     RDKit          3D

 32 37  0  0  0  0  0  0  0  0999 V2000
   69.7918   39.8998   57.8874 O   0  0  0  0  0  0  0  0  0  0  0  0
   68.9380   40.7266   58.2922 C   0  0  0  0  0  0  0  0  0  0  0  0
   68.5725   40.7060   59.6657 N   0  0  0  0  0  0  0  0  0  0  0  0
   67.5803   41.6802   60.0732 C   0  0  0  0  0  0  0  0  0  0  0  0
   67.1082   41.5076   61.4639 C   0  0  0  0  0  0  0  0  0  0  0  0
   67.1651   40.0888   61.9643 C   0  0  0  0  0  0  0  0  0  0  0  0
   68.5633   39.5446   61.8519 C   0  0  0  0  0  0  0  0  0  0  0  0
   69.1933   39.7587   60.5321 C   0  0  0  0  0  0  0  0  0  0  0  0
   66.1452   39.2028   61.3954 C   0  0  0  0  0  0  0  0  0  0  0  0
   65.5103   39.1729   60.1786 C   0  0  0  0  0  0  0  0  0  0  0  0
   64.6253   38.1514   60.1043 N   0  0  0  0  0  0  0  0  0  0  0  0
   64.6779   37.5054   61.2803 C   0  0  0  0  0  0  0  0  0  0  0  0
   63.9748   36.4000   61.7041 C   0  0  0  0  0  0  0  0  0  0  0  0
   64.2004   35.9031   62.9708 C   0  0  0  0  0  0  0  0  0  0  0  0
   65.1195   36.5080   63.8011 C   0  0  0  0  0  0  0  0  0  0  0  0
   65.8205   37.6147   63.3696 C   0  0  0  0  0  0  0  0  0  0  0  0
   65.6005   38.1228   62.0975 C   0  0  0  0  0  0  0  0  0  0  0  0
   68.3536   41.6786   57.3359 C   0  0  0  0  0  0  0  0  0  0  0  0
   67.1544   41.5355   56.6522 C   0  0  0  0  0  0  0  0  0  0  0  0
   66.9972   42.6144   55.8956 N   0  0  0  0  0  0  0  0  0  0  0  0
   68.0062   43.4549   56.0321 N   0  0  0  0  0  0  0  0  0  0  0  0
   68.8479   42.8981   56.9110 C   0  0  0  0  0  0  0  0  0  0  0  0
   68.1927   44.7102   55.3902 C   0  0  0  0  0  0  0  0  0  0  0  0
   68.6443   45.7993   56.0296 N   0  0  0  0  0  0  0  0  0  0  0  0
   68.8251   46.9874   55.4316 C   0  0  0  0  0  0  0  0  0  0  0  0
   68.5443   47.1355   54.0917 C   0  0  0  0  0  0  0  0  0  0  0  0
   68.0802   46.0254   53.4190 C   0  0  0  0  0  0  0  0  0  0  0  0
   67.8226   46.1589   52.1892 O   0  0  0  0  0  0  0  0  0  0  0  0
   67.9156   44.8570   54.0628 N   0  0  0  0  0  0  0  0  0  0  0  0
   68.8329   48.5524   53.6798 C   0  0  0  0  0  0  0  0  0  0  0  0
   69.8904   48.9280   54.7169 C   0  0  0  0  0  0  0  0  0  0  0  0
   69.3083   48.2887   55.9606 C   0  0  0  0  0  0  0  0  0  0  0  0
  1  2  2  0
  2 18  1  0
  2  3  1  0
 18 19  1  0
 18 22  2  0
 19 20  2  0
 20 21  1  0
 21 23  1  0
 21 22  1  0
 23 24  2  0
 23 29  1  0
 24 25  1  0
 25 26  2  0
 25 32  1  0
 26 27  1  0
 26 30  1  0
 27 28  2  0
 27 29  1  0
 30 31  1  0
 31 32  1  0
  3  4  1  0
  3  8  1  0
  4  5  1  0
  5  6  1  0
  6  9  1  0
  6  7  1  0
  9 10  2  0
  9 17  1  0
 10 11  1  0
 11 12  1  0
 12 13  1  0
 12 17  2  0
 13 14  2  0
 14 15  1  0
 15 16  2  0
 16 17  1  0
  7  8  1  0
M  END
>  <minimizedAffinity>  (615) 
-8.64483

$$$$
data/reference_output_2/data/smiles/141405.pdb
     RDKit          3D

 30 33  0  0  0  0  0  0  0  0999 V2000
   71.0901   41.6717   58.9661 N   0  0  0  0  0  0  0  0  0  0  0  0
   71.8262   42.4400   59.9628 C   0  0  0  0  0  0  0  0  0  0  0  0
   71.3213   43.8508   59.7614 C   0  0  0  0  0  0  0  0  0  0  0  0
   71.1328   43.8823   58.2523 C   0  0  1  0  0  0  0  0  0  0  0  0
   72.3920   44.0315   57.7058 O   0  0  0  0  0  0  0  0  0  0  0  0
   70.5219   42.5596   58.0036 C   0  0  0  0  0  0  0  0  0  0  0  0
   69.6683   42.2207   57.1352 O   0  0  0  0  0  0  0  0  0  0  0  0
   71.8711   34.0475   59.2292 O   0  0  0  0  0  0  0  0  0  0  0  0
   71.6930   35.1986   58.8291 C   0  0  0  0  0  0  0  0  0  0  0  0
   72.6288   35.8226   57.8631 C   0  0  0  0  0  0  0  0  0  0  0  0
   73.0741   37.1747   58.3402 C   0  0  0  0  0  0  0  0  0  0  0  0
   71.9287   38.0157   58.7263 C   0  0  0  0  0  0  0  0  0  0  0  0
   72.0296   39.4167   58.6591 C   0  0  0  0  0  0  0  0  0  0  0  0
   71.0043   40.2564   59.0258 C   0  0  0  0  0  0  0  0  0  0  0  0
   69.8506   39.6495   59.4700 C   0  0  0  0  0  0  0  0  0  0  0  0
   69.7211   38.2804   59.5468 C   0  0  0  0  0  0  0  0  0  0  0  0
   70.7662   37.4406   59.1732 C   0  0  0  0  0  0  0  0  0  0  0  0
   70.6038   36.0171   59.2421 N   0  0  0  0  0  0  0  0  0  0  0  0
   70.2172   45.0147   57.9199 C   0  0  0  0  0  0  0  0  0  0  0  0
   69.8218   45.6984   58.8672 O   0  0  0  0  0  0  0  0  0  0  0  0
   69.8105   45.3089   56.6097 N   0  0  0  0  0  0  0  0  0  0  0  0
   68.9510   46.3437   56.1241 C   0  0  0  0  0  0  0  0  0  0  0  0
   68.6761   46.3560   54.6760 C   0  0  0  0  0  0  0  0  0  0  0  0
   67.9737   45.3994   53.9988 C   0  0  0  0  0  0  0  0  0  0  0  0
   67.5572   44.2505   54.6271 F   0  0  0  0  0  0  0  0  0  0  0  0
   67.6874   45.4924   52.6270 C   0  0  0  0  0  0  0  0  0  0  0  0
   68.1400   46.5984   51.9479 C   0  0  0  0  0  0  0  0  0  0  0  0
   68.8580   47.5976   52.5772 C   0  0  0  0  0  0  0  0  0  0  0  0
   69.1069   47.4528   53.9172 C   0  0  0  0  0  0  0  0  0  0  0  0
   69.8055   48.4185   54.5505 F   0  0  0  0  0  0  0  0  0  0  0  0
  8  9  2  0
  9 10  1  0
  9 18  1  0
 10 11  1  0
 11 12  1  0
 12 13  1  0
 12 17  2  0
 13 14  2  0
 14  1  1  0
 14 15  1  0
  1  2  1  0
  1  6  1  0
  2  3  1  0
  3  4  1  0
  4  5  1  6
  4 19  1  0
  4  6  1  0
 19 20  2  0
 19 21  1  0
 21 22  1  0
 22 23  1  0
 23 24  2  0
 23 29  1  0
 24 25  1  0
 24 26  1  0
 26 27  2  0
 27 28  1  0
 28 29  2  0
 29 30  1  0
  6  7  2  0
 15 16  2  0
 16 17  1  0
 17 18  1  0
M  END
>  <minimizedAffinity>  (616) 
-8.58086

$$$$
data/reference_output_2/data/smiles/141556.pdb
     RDKit          3D

 26 29  0  0  0  0  0  0  0  0999 V2000
   70.3271   46.1268   58.0623 C   0  0  0  0  0  0  0  0  0  0  0  0
   69.5841   45.2135   57.7094 O   0  0  0  0  0  0  0  0  0  0  0  0
   69.9150   47.4124   57.5127 N   0  0  0  0  0  0  0  0  0  0  0  0
   72.7742   47.8849   61.8547 N   0  0  0  0  0  0  0  0  0  0  0  0
   72.6583   46.9768   60.7735 C   0  0  0  0  0  0  0  0  0  0  0  0
   71.6014   46.9678   59.9541 N   0  0  0  0  0  0  0  0  0  0  0  0
   71.5007   46.0845   58.9140 C   0  0  0  0  0  0  0  0  0  0  0  0
   72.5302   45.2076   58.7454 C   0  0  0  0  0  0  0  0  0  0  0  0
   72.5400   44.2761   57.7366 C   0  0  0  0  0  0  0  0  0  0  0  0
   73.5887   43.3860   57.5717 C   0  0  0  0  0  0  0  0  0  0  0  0
   73.5472   42.4799   56.5520 F   0  0  0  0  0  0  0  0  0  0  0  0
   74.6728   43.3972   58.4125 C   0  0  0  0  0  0  0  0  0  0  0  0
   74.6846   44.3197   59.4276 C   0  0  0  0  0  0  0  0  0  0  0  0
   73.6443   45.1959   59.5861 C   0  0  0  0  0  0  0  0  0  0  0  0
   73.6571   46.0997   60.5809 N   0  0  0  0  0  0  0  0  0  0  0  0
   68.7607   47.5007   56.6665 C   0  0  0  0  0  0  0  0  0  0  0  0
   69.1971   47.9656   55.3325 C   0  0  0  0  0  0  0  0  0  0  0  0
   70.0141   49.0804   55.1776 C   0  0  0  0  0  0  0  0  0  0  0  0
   70.4242   49.5158   53.9410 C   0  0  0  0  0  0  0  0  0  0  0  0
   70.0379   48.8593   52.8005 C   0  0  0  0  0  0  0  0  0  0  0  0
   69.2196   47.7421   52.9449 C   0  0  0  0  0  0  0  0  0  0  0  0
   68.7993   47.0420   51.8391 C   0  0  0  0  0  0  0  0  0  0  0  0
   67.9889   45.9323   51.9561 C   0  0  0  0  0  0  0  0  0  0  0  0
   67.5857   45.5076   53.2118 C   0  0  0  0  0  0  0  0  0  0  0  0
   68.0040   46.2023   54.2830 N   0  0  0  0  0  0  0  0  0  0  0  0
   68.8041   47.2994   54.1915 C   0  0  0  0  0  0  0  0  0  0  0  0
  4  5  1  0
  5  6  2  0
  5 15  1  0
  6  7  1  0
  7  1  1  0
  7  8  2  0
  1  2  2  0
  1  3  1  0
  3 16  1  0
 16 17  1  0
 17 18  2  0
 17 26  1  0
 18 19  1  0
 19 20  2  0
 20 21  1  0
 21 22  1  0
 21 26  2  0
 22 23  2  0
 23 24  1  0
 24 25  2  0
 25 26  1  0
  8  9  1  0
  8 14  1  0
  9 10  2  0
 10 11  1  0
 10 12  1  0
 12 13  2  0
 13 14  1  0
 14 15  2  0
M  END
>  <minimizedAffinity>  (617) 
-8.76750

$$$$
data/reference_output_2/data/smiles/141615.pdb
     RDKit          3D

 24 25  0  0  0  0  0  0  0  0999 V2000
   68.3856   46.0934   56.1969 O   0  0  0  0  0  0  0  0  0  0  0  0
   68.2234   45.3969   55.1417 C   0  0  0  0  0  0  0  0  0  0  0  0
   67.9256   44.0277   55.3693 N   0  0  0  0  0  0  0  0  0  0  0  0
   68.3421   45.9977   53.8224 C   0  0  0  0  0  0  0  0  0  0  0  0
   67.5868   45.4907   52.7903 C   0  0  0  0  0  0  0  0  0  0  0  0
   67.6762   46.0335   51.5390 C   0  0  0  0  0  0  0  0  0  0  0  0
   68.5227   47.0961   51.2937 C   0  0  0  0  0  0  0  0  0  0  0  0
   69.2901   47.6290   52.2926 C   0  0  0  0  0  0  0  0  0  0  0  0
   69.1803   47.0560   53.5592 C   0  0  0  0  0  0  0  0  0  0  0  0
   70.1674   48.7152   52.0787 N   0  0  0  0  0  0  0  0  0  0  0  0
   69.9955   49.4394   51.0871 O   0  0  0  0  0  0  0  0  0  0  0  0
   71.1966   48.9729   52.9490 O   0  0  0  0  0  0  0  0  0  0  0  0
   67.8157   43.4725   56.6383 N   0  0  0  0  0  0  0  0  0  0  0  0
   68.8447   42.6812   57.1727 C   0  0  0  0  0  0  0  0  0  0  0  0
   68.5079   41.2021   57.7277 S   0  0  0  0  0  0  0  0  0  0  0  0
   70.1657   43.2109   57.2097 N   0  0  0  0  0  0  0  0  0  0  0  0
   70.5789   44.1481   58.1917 C   0  0  0  0  0  0  0  0  0  0  0  0
   69.6955   44.4844   59.0336 O   0  0  0  0  0  0  0  0  0  0  0  0
   71.9358   44.7155   58.2588 C   0  0  0  0  0  0  0  0  0  0  0  0
   72.1128   46.0634   58.5499 C   0  0  0  0  0  0  0  0  0  0  0  0
   73.3686   46.6230   58.6201 C   0  0  0  0  0  0  0  0  0  0  0  0
   74.5013   45.8478   58.4006 C   0  0  0  0  0  0  0  0  0  0  0  0
   74.3350   44.5088   58.1102 C   0  0  0  0  0  0  0  0  0  0  0  0
   73.0724   43.9802   58.0475 C   0  0  0  0  0  0  0  0  0  0  0  0
  1  2  2  0
  2  3  1  0
  2  4  1  0
  3 13  1  0
 13 14  1  0
 14 15  2  0
 14 16  1  0
 16 17  1  0
 17 18  2  0
 17 19  1  0
 19 20  2  0
 19 24  1  0
 20 21  1  0
 21 22  2  0
 22 23  1  0
 23 24  2  0
  4  5  2  0
  4  9  1  0
  5  6  1  0
  6  7  2  0
  7  8  1  0
  8 10  1  0
  8  9  2  0
 10 11  2  0
 10 12  1  0
M  CHG  2  10   1  12  -1
M  END
>  <minimizedAffinity>  (618) 
-9.15648

$$$$
data/reference_output_2/data/smiles/141920.pdb
     RDKit          3D

 24 26  0  0  0  0  0  0  0  0999 V2000
   72.2786   51.0042   54.8749 C   0  0  2  0  0  0  0  0  0  0  0  0
   70.1127   50.8773   53.0573 O   0  0  0  0  0  0  0  0  0  0  0  0
   70.4328   49.7970   53.6066 C   0  0  0  0  0  0  0  0  0  0  0  0
   71.5103   49.8198   54.5194 N   0  0  0  0  0  0  0  0  0  0  0  0
   69.6893   48.5855   53.2818 C   0  0  0  0  0  0  0  0  0  0  0  0
   68.9188   47.9492   54.1860 N   0  0  0  0  0  0  0  0  0  0  0  0
   68.2344   46.8339   53.8816 C   0  0  0  0  0  0  0  0  0  0  0  0
   68.2773   46.2647   52.6182 C   0  0  0  0  0  0  0  0  0  0  0  0
   69.0586   46.8928   51.6714 C   0  0  0  0  0  0  0  0  0  0  0  0
   69.7490   48.0389   52.0179 C   0  0  0  0  0  0  0  0  0  0  0  0
   70.5479   48.6898   51.0657 O   0  0  0  0  0  0  0  0  0  0  0  0
   73.6720   50.9322   54.4785 C   0  0  0  0  0  0  0  0  0  0  0  0
   74.6507   51.5034   54.9684 O   0  0  0  0  0  0  0  0  0  0  0  0
   73.9702   50.0950   53.3763 O   0  0  0  0  0  0  0  0  0  0  0  0
   71.9573   51.4639   56.2622 C   0  0  0  0  0  0  0  0  0  0  0  0
   70.5793   51.8822   56.4774 C   0  0  0  0  0  0  0  0  0  0  0  0
   69.9916   53.1311   56.3329 C   0  0  0  0  0  0  0  0  0  0  0  0
   68.6954   53.0623   56.6688 N   0  0  0  0  0  0  0  0  0  0  0  0
   68.3679   51.7876   57.0447 C   0  0  0  0  0  0  0  0  0  0  0  0
   67.1684   51.2404   57.4511 C   0  0  0  0  0  0  0  0  0  0  0  0
   67.1460   49.8984   57.7489 C   0  0  0  0  0  0  0  0  0  0  0  0
   68.3074   49.1617   57.6309 C   0  0  0  0  0  0  0  0  0  0  0  0
   69.4875   49.7177   57.2272 C   0  0  0  0  0  0  0  0  0  0  0  0
   69.5421   51.0565   56.9232 C   0  0  0  0  0  0  0  0  0  0  0  0
  2  3  2  0
  3  4  1  0
  3  5  1  0
  4  1  1  0
  1 15  1  1
  1 12  1  0
 15 16  1  0
 16 17  2  0
 16 24  1  0
 17 18  1  0
 18 19  1  0
 19 20  1  0
 19 24  2  0
 20 21  2  0
 21 22  1  0
 22 23  2  0
 23 24  1  0
 12 13  2  0
 12 14  1  0
  5  6  2  0
  5 10  1  0
  6  7  1  0
  7  8  2  0
  8  9  1  0
  9 10  2  0
 10 11  1  0
M  END
>  <minimizedAffinity>  (619) 
-8.97000

$$$$
data/reference_output_2/data/smiles/141958.pdb
     RDKit          3D

 20 21  0  0  0  0  0  0  0  0999 V2000
   69.0102   46.7718   56.2144 S   0  0  0  0  0  0  0  0  0  0  0  0
   67.6016   47.1418   56.7961 O   0  0  0  0  0  0  0  0  0  0  0  0
   69.8428   47.9377   56.6715 O   0  0  0  0  0  0  0  0  0  0  0  0
   68.7660   46.7465   54.4874 C   0  0  0  0  0  0  0  0  0  0  0  0
   67.9907   45.8679   53.7931 C   0  0  0  0  0  0  0  0  0  0  0  0
   67.8470   45.9218   52.4148 C   0  0  0  0  0  0  0  0  0  0  0  0
   68.4929   46.8818   51.6772 C   0  0  0  0  0  0  0  0  0  0  0  0
   69.2843   47.7850   52.3436 C   0  0  0  0  0  0  0  0  0  0  0  0
   69.4158   47.7185   53.7111 C   0  0  0  0  0  0  0  0  0  0  0  0
   69.9891   48.8158   51.6367 N   0  0  0  0  0  0  0  0  0  0  0  0
   70.7802   48.5498   50.7248 O   0  0  0  0  0  0  0  0  0  0  0  0
   69.7943   50.1328   51.9648 O   0  0  0  0  0  0  0  0  0  0  0  0
   69.4135   45.2783   56.8592 N   0  0  0  0  0  0  0  0  0  0  0  0
   70.7695   42.8369   58.0676 C   0  0  0  0  0  0  0  0  0  0  0  0
   69.5299   42.8511   57.2721 C   0  0  0  0  0  0  0  0  0  0  0  0
   68.9458   41.5824   57.0782 C   0  0  0  0  0  0  0  0  0  0  0  0
   67.7860   41.4319   56.3615 C   0  0  0  0  0  0  0  0  0  0  0  0
   67.2355   42.5843   55.8513 C   0  0  0  0  0  0  0  0  0  0  0  0
   67.8046   43.7561   56.0497 N   0  0  0  0  0  0  0  0  0  0  0  0
   68.9659   43.9725   56.7575 C   0  0  0  0  0  0  0  0  0  0  0  0
 14 15  1  0
 15 16  2  0
 15 20  1  0
 16 17  1  0
 17 18  2  0
 18 19  1  0
 19 20  2  0
 20 13  1  0
 13  1  1  0
  1  2  2  0
  1  3  2  0
  1  4  1  0
  4  5  2  0
  4  9  1  0
  5  6  1  0
  6  7  2  0
  7  8  1  0
  8 10  1  0
  8  9  2  0
 10 11  2  0
 10 12  1  0
M  CHG  2  10   1  12  -1
M  END
>  <minimizedAffinity>  (620) 
-8.74694

$$$$
data/reference_output_2/data/smiles/142039.pdb
     RDKit          3D

 29 32  0  0  0  0  0  0  0  0999 V2000
   71.5034   47.3192   58.8280 C   0  0  0  0  0  0  0  0  0  0  0  0
   70.5319   47.8965   58.0591 C   0  0  0  0  0  0  0  0  0  0  0  0
   69.7021   47.1654   57.2146 C   0  0  0  0  0  0  0  0  0  0  0  0
   69.8728   45.8198   57.1580 C   0  0  0  0  0  0  0  0  0  0  0  0
   70.8550   45.1694   57.9260 C   0  0  0  0  0  0  0  0  0  0  0  0
   71.6589   45.9535   58.7557 C   0  0  0  0  0  0  0  0  0  0  0  0
   72.5916   45.2872   59.4783 F   0  0  0  0  0  0  0  0  0  0  0  0
   75.7096   50.1162   57.9990 N   0  0  0  0  0  0  0  0  0  0  0  0
   75.7577   49.6092   59.3309 C   0  0  0  0  0  0  0  0  0  0  0  0
   74.4021   49.5389   60.0060 C   0  0  0  0  0  0  0  0  0  0  0  0
   73.4815   48.7711   59.1890 N   0  0  0  0  0  0  0  0  0  0  0  0
   72.3765   48.0609   59.7160 C   0  0  0  0  0  0  0  0  0  0  0  0
   72.1763   48.0900   60.9462 O   0  0  0  0  0  0  0  0  0  0  0  0
   73.7519   48.7597   57.7636 C   0  0  0  0  0  0  0  0  0  0  0  0
   74.4172   50.0457   57.4017 C   0  0  0  0  0  0  0  0  0  0  0  0
   76.7291   50.0638   55.7704 C   0  0  0  0  0  0  0  0  0  0  0  0
   76.7905   49.6186   57.2111 C   0  0  0  0  0  0  0  0  0  0  0  0
   68.7014   47.8723   56.4032 C   0  0  0  0  0  0  0  0  0  0  0  0
   69.1505   48.0522   55.0026 C   0  0  0  0  0  0  0  0  0  0  0  0
   70.0457   49.0469   54.7055 N   0  0  0  0  0  0  0  0  0  0  0  0
   70.4703   49.3106   53.4915 N   0  0  0  0  0  0  0  0  0  0  0  0
   70.0531   48.6110   52.4152 C   0  0  0  0  0  0  0  0  0  0  0  0
   70.5063   48.9267   51.2915 O   0  0  0  0  0  0  0  0  0  0  0  0
   69.1571   47.5971   52.6296 C   0  0  0  0  0  0  0  0  0  0  0  0
   68.7057   46.8438   51.5814 C   0  0  0  0  0  0  0  0  0  0  0  0
   67.8097   45.8028   51.7718 C   0  0  0  0  0  0  0  0  0  0  0  0
   67.3802   45.5437   53.0588 C   0  0  0  0  0  0  0  0  0  0  0  0
   67.8324   46.3015   54.1169 C   0  0  0  0  0  0  0  0  0  0  0  0
   68.7164   47.3279   53.9182 C   0  0  0  0  0  0  0  0  0  0  0  0
 16 17  1  0
 17  8  1  0
  8  9  1  0
  8 15  1  0
  9 10  1  0
 10 11  1  0
 11 12  1  0
 11 14  1  0
 12 13  2  0
 12  1  1  0
  1  2  2  0
  1  6  1  0
  2  3  1  0
  3 18  1  0
  3  4  2  0
 18 19  1  0
 19 20  2  0
 19 29  1  0
 20 21  1  0
 21 22  1  0
 22 23  2  0
 22 24  1  0
 24 25  1  0
 24 29  2  0
 25 26  2  0
 26 27  1  0
 27 28  2  0
 28 29  1  0
  4  5  1  0
  5  6  2  0
  6  7  1  0
 14 15  1  0
M  CHG  1   8   1
M  END
>  <minimizedAffinity>  (621) 
-9.17752

$$$$
data/reference_output_2/data/smiles/142246.pdb
     RDKit          3D

 23 25  0  0  0  0  0  0  0  0999 V2000
   69.8521   47.1070   57.5919 C   0  0  0  0  0  0  0  0  0  0  0  0
   70.0197   46.8516   56.2881 N   0  0  0  0  0  0  0  0  0  0  0  0
   68.8394   46.9084   55.6445 C   0  0  0  0  0  0  0  0  0  0  0  0
   67.9399   47.2084   56.5981 N   0  0  0  0  0  0  0  0  0  0  0  0
   68.5591   47.3231   57.7483 O   0  0  0  0  0  0  0  0  0  0  0  0
   68.5644   46.6962   54.2280 C   0  0  0  0  0  0  0  0  0  0  0  0
   67.7695   45.6593   53.7890 C   0  0  0  0  0  0  0  0  0  0  0  0
   67.5120   45.4644   52.4308 C   0  0  0  0  0  0  0  0  0  0  0  0
   68.0453   46.3048   51.4763 C   0  0  0  0  0  0  0  0  0  0  0  0
   68.8392   47.3391   51.9260 C   0  0  0  0  0  0  0  0  0  0  0  0
   69.0981   47.5370   53.2748 C   0  0  0  0  0  0  0  0  0  0  0  0
   69.8872   48.5666   53.7041 F   0  0  0  0  0  0  0  0  0  0  0  0
   70.9324   47.1275   58.5845 C   0  0  0  0  0  0  0  0  0  0  0  0
   71.4886   45.7578   58.8771 C   0  0  0  0  0  0  0  0  0  0  0  0
   69.6152   44.4555   59.4549 O   0  0  0  0  0  0  0  0  0  0  0  0
   70.5200   44.6805   58.6300 C   0  0  0  0  0  0  0  0  0  0  0  0
   70.6012   43.8936   57.4643 N   0  0  0  0  0  0  0  0  0  0  0  0
   69.6457   42.8643   57.2659 C   0  0  0  0  0  0  0  0  0  0  0  0
   68.5124   43.0256   56.5066 C   0  0  0  0  0  0  0  0  0  0  0  0
   67.5888   42.0164   56.3208 C   0  0  0  0  0  0  0  0  0  0  0  0
   67.8233   40.7861   56.9309 C   0  0  0  0  0  0  0  0  0  0  0  0
   68.9311   40.6251   57.6741 N   0  0  0  0  0  0  0  0  0  0  0  0
   69.8181   41.6075   57.8485 C   0  0  0  0  0  0  0  0  0  0  0  0
 15 16  2  0
 16 14  1  0
 16 17  1  0
 14 13  1  0
 13  1  1  0
  1  2  2  0
  1  5  1  0
  2  3  1  0
  3  6  1  0
  3  4  2  0
  6  7  2  0
  6 11  1  0
  7  8  1  0
  8  9  2  0
  9 10  1  0
 10 11  2  0
 11 12  1  0
  4  5  1  0
 17 18  1  0
 18 19  2  0
 18 23  1  0
 19 20  1  0
 20 21  2  0
 21 22  1  0
 22 23  2  0
M  END
>  <minimizedAffinity>  (622) 
-8.55307

$$$$
data/reference_output_2/data/smiles/142527.pdb
     RDKit          3D

 24 26  0  0  0  0  0  0  0  0999 V2000
   71.3355   50.1899   56.6435 C   0  0  0  0  0  0  0  0  0  0  0  0
   73.2216   50.1459   58.0713 O   0  0  0  0  0  0  0  0  0  0  0  0
   72.7616   50.0388   56.9290 C   0  0  0  0  0  0  0  0  0  0  0  0
   73.7338   49.7552   55.9023 N   0  0  0  0  0  0  0  0  0  0  0  0
   75.0851   49.6204   56.2345 N   0  0  0  0  0  0  0  0  0  0  0  0
   75.9637   50.1422   55.4832 C   0  0  0  0  0  0  0  0  0  0  0  0
   77.4005   50.0755   55.7156 C   0  0  0  0  0  0  0  0  0  0  0  0
   78.0674   51.0254   56.4527 C   0  0  0  0  0  0  0  0  0  0  0  0
   79.4390   50.9568   56.6705 C   0  0  0  0  0  0  0  0  0  0  0  0
   80.1539   49.9074   56.1335 C   0  0  0  0  0  0  0  0  0  0  0  0
   79.5160   48.9458   55.3946 C   0  0  0  0  0  0  0  0  0  0  0  0
   78.1371   49.0358   55.1890 C   0  0  0  0  0  0  0  0  0  0  0  0
   71.1196   50.6253   55.2216 C   0  0  0  0  0  0  0  0  0  0  0  0
   70.4687   49.6089   54.3662 C   0  0  0  0  0  0  0  0  0  0  0  0
   69.6618   48.6315   54.8179 N   0  0  0  0  0  0  0  0  0  0  0  0
   69.0733   47.7102   54.0416 C   0  0  0  0  0  0  0  0  0  0  0  0
   68.2487   46.7142   54.5120 C   0  0  0  0  0  0  0  0  0  0  0  0
   67.6874   45.8095   53.6442 C   0  0  0  0  0  0  0  0  0  0  0  0
   67.9431   45.8911   52.3002 C   0  0  0  0  0  0  0  0  0  0  0  0
   68.7663   46.8847   51.8248 C   0  0  0  0  0  0  0  0  0  0  0  0
   69.3246   47.7845   52.6904 C   0  0  0  0  0  0  0  0  0  0  0  0
   70.1665   48.8033   52.2198 C   0  0  0  0  0  0  0  0  0  0  0  0
   70.3895   48.8607   50.9754 O   0  0  0  0  0  0  0  0  0  0  0  0
   70.7291   49.6996   53.0391 N   0  0  0  0  0  0  0  0  0  0  0  0
  2  3  2  0
  3  1  1  0
  3  4  1  0
  1 13  1  0
 13 14  1  0
 14 15  2  0
 14 24  1  0
 15 16  1  0
 16 17  2  0
 16 21  1  0
 17 18  1  0
 18 19  2  0
 19 20  1  0
 20 21  2  0
 21 22  1  0
 22 23  2  0
 22 24  1  0
  4  5  1  0
  5  6  2  0
  6  7  1  0
  7  8  2  0
  7 12  1  0
  8  9  1  0
  9 10  2  0
 10 11  1  0
 11 12  2  0
M  END
>  <minimizedAffinity>  (623) 
-8.83815

$$$$
data/reference_output_2/data/smiles/142642.pdb
     RDKit          3D

 31 34  0  0  0  0  0  0  0  0999 V2000
   68.4708   45.7197   55.1380 C   0  0  0  0  0  0  0  0  0  0  0  0
   68.2900   45.9833   53.7657 C   0  0  0  0  0  0  0  0  0  0  0  0
   68.3974   47.2458   53.2276 C   0  0  0  0  0  0  0  0  0  0  0  0
   68.6939   48.3117   54.0515 C   0  0  0  0  0  0  0  0  0  0  0  0
   68.8024   49.5623   53.5278 F   0  0  0  0  0  0  0  0  0  0  0  0
   68.8798   48.1180   55.3920 C   0  0  0  0  0  0  0  0  0  0  0  0
   68.7621   46.8280   55.8911 C   0  0  0  0  0  0  0  0  0  0  0  0
   69.2162   49.2610   56.3116 C   0  0  2  0  0  0  0  0  0  0  0  0
   67.9701   49.4636   57.1928 C   0  0  0  0  0  0  0  0  0  0  0  0
   68.1196   50.8709   57.6533 C   0  0  0  0  0  0  0  0  0  0  0  0
   68.8772   51.6079   56.6118 C   0  0  0  0  0  0  0  0  0  0  0  0
   69.4086   50.5575   55.6603 C   0  0  1  0  0  0  0  0  0  0  0  0
   71.1724   50.8537   55.4088 S   0  0  0  0  0  0  0  0  0  0  0  0
   71.7102   49.7521   54.5861 O   0  0  0  0  0  0  0  0  0  0  0  0
   71.3742   52.1996   54.8174 O   0  0  0  0  0  0  0  0  0  0  0  0
   71.8080   50.7217   57.0093 N   0  0  0  0  0  0  0  0  0  0  0  0
   72.8196   51.5705   57.4608 C   0  0  0  0  0  0  0  0  0  0  0  0
   71.2333   49.7109   57.8141 C   0  0  0  0  0  0  0  0  0  0  0  0
   71.5870   49.5462   59.0664 N   0  0  0  0  0  0  0  0  0  0  0  0
   70.2617   48.8784   57.2242 N   0  0  0  0  0  0  0  0  0  0  0  0
   68.9224   43.7361   56.6394 C   0  0  0  0  0  0  0  0  0  0  0  0
   69.7374   44.4709   57.3313 O   0  0  0  0  0  0  0  0  0  0  0  0
   68.3380   44.4064   55.5694 N   0  0  0  0  0  0  0  0  0  0  0  0
   66.7082   41.8807   55.8388 C   0  0  0  0  0  0  0  0  0  0  0  0
   67.8217   41.4691   56.7122 C   0  0  0  0  0  0  0  0  0  0  0  0
   67.8283   40.1395   57.1765 C   0  0  0  0  0  0  0  0  0  0  0  0
   68.8054   39.7102   58.0325 C   0  0  0  0  0  0  0  0  0  0  0  0
   68.8165   38.4296   58.4826 F   0  0  0  0  0  0  0  0  0  0  0  0
   69.7514   40.6387   58.3981 C   0  0  0  0  0  0  0  0  0  0  0  0
   69.7238   41.8960   57.9431 N   0  0  0  0  0  0  0  0  0  0  0  0
   68.7636   42.3712   57.0815 C   0  0  0  0  0  0  0  0  0  0  0  0
 24 25  1  0
 25 26  2  0
 25 31  1  0
 26 27  1  0
 27 28  1  0
 27 29  2  0
 29 30  1  0
 30 31  2  0
 31 21  1  0
 21 22  2  0
 21 23  1  0
 23  1  1  0
  1  2  2  0
  1  7  1  0
  2  3  1  0
  3  4  2  0
  4  5  1  0
  4  6  1  0
  6  7  2  0
  8  6  1  6
  8  9  1  0
  8 12  1  0
  8 20  1  0
  9 10  1  0
 10 11  1  0
 12 11  1  1
 12 13  1  0
 13 14  2  0
 13 15  2  0
 13 16  1  0
 16 17  1  0
 16 18  1  0
 18 19  2  0
 18 20  1  0
M  CHG  1  19   1
M  END
>  <minimizedAffinity>  (624) 
-8.51895

$$$$
data/reference_output_2/data/smiles/142729.pdb
     RDKit          3D

 24 26  0  0  0  0  0  0  0  0999 V2000
   69.5586   44.0510   59.4987 N   0  0  0  0  0  0  0  0  0  0  0  0
   70.3619   44.5570   58.6005 C   0  0  0  0  0  0  0  0  0  0  0  0
   71.6677   43.9649   58.3944 C   0  0  0  0  0  0  0  0  0  0  0  0
   72.8122   44.6492   58.8106 C   0  0  0  0  0  0  0  0  0  0  0  0
   74.0631   44.1006   58.6184 C   0  0  0  0  0  0  0  0  0  0  0  0
   75.2219   44.7383   59.0135 C   0  0  0  0  0  0  0  0  0  0  0  0
   76.4801   44.2028   58.8282 C   0  0  0  0  0  0  0  0  0  0  0  0
   76.6153   42.9713   58.2212 C   0  0  0  0  0  0  0  0  0  0  0  0
   75.4788   42.3055   57.8143 C   0  0  0  0  0  0  0  0  0  0  0  0
   74.2148   42.8700   58.0139 C   0  0  0  0  0  0  0  0  0  0  0  0
   73.1260   42.2530   57.6334 O   0  0  0  0  0  0  0  0  0  0  0  0
   71.9037   42.7483   57.8021 C   0  0  0  0  0  0  0  0  0  0  0  0
   70.8961   42.0776   57.3997 O   0  0  0  0  0  0  0  0  0  0  0  0
   69.8597   45.6597   57.8985 N   0  0  0  0  0  0  0  0  0  0  0  0
   69.6423   45.7454   56.5400 N   0  0  0  0  0  0  0  0  0  0  0  0
   68.6528   46.5008   55.8649 C   0  0  0  0  0  0  0  0  0  0  0  0
   67.8668   47.1753   56.5843 O   0  0  0  0  0  0  0  0  0  0  0  0
   68.5175   46.5214   54.4053 C   0  0  0  0  0  0  0  0  0  0  0  0
   67.7869   45.6217   53.6731 C   0  0  0  0  0  0  0  0  0  0  0  0
   67.7070   45.7070   52.2803 C   0  0  0  0  0  0  0  0  0  0  0  0
   68.3693   46.7103   51.6083 C   0  0  0  0  0  0  0  0  0  0  0  0
   69.1045   47.6154   52.3393 C   0  0  0  0  0  0  0  0  0  0  0  0
   69.7609   48.6075   51.6936 F   0  0  0  0  0  0  0  0  0  0  0  0
   69.1724   47.5165   53.7143 C   0  0  0  0  0  0  0  0  0  0  0  0
  1  2  2  0
  2 14  1  0
  2  3  1  0
 14 15  1  0
 15 16  1  0
 16 17  2  0
 16 18  1  0
 18 19  2  0
 18 24  1  0
 19 20  1  0
 20 21  2  0
 21 22  1  0
 22 23  1  0
 22 24  2  0
  3  4  2  0
  3 12  1  0
  4  5  1  0
  5  6  2  0
  5 10  1  0
  6  7  1  0
  7  8  2  0
  8  9  1  0
  9 10  2  0
 10 11  1  0
 11 12  1  0
 12 13  2  0
M  CHG  1   1   1
M  END
>  <minimizedAffinity>  (625) 
-8.62541

$$$$
data/reference_output_2/data/smiles/142761.pdb
     RDKit          3D

 24 26  0  0  0  0  0  0  0  0999 V2000
   68.1069   43.8615   55.7965 C   0  0  0  0  0  0  0  0  0  0  0  0
   68.9074   43.2237   56.7179 C   0  0  0  0  0  0  0  0  0  0  0  0
   68.3294   42.0210   57.0714 C   0  0  0  0  0  0  0  0  0  0  0  0
   67.1972   41.9843   56.3440 N   0  0  0  0  0  0  0  0  0  0  0  0
   67.0878   43.0561   55.6147 O   0  0  0  0  0  0  0  0  0  0  0  0
   68.7011   47.6330   53.8475 C   0  0  0  0  0  0  0  0  0  0  0  0
   69.0193   47.4504   55.2047 C   0  0  0  0  0  0  0  0  0  0  0  0
   68.8257   46.2353   55.8239 C   0  0  0  0  0  0  0  0  0  0  0  0
   68.3128   45.1502   55.1425 C   0  0  0  0  0  0  0  0  0  0  0  0
   68.0153   45.3712   53.8168 C   0  0  0  0  0  0  0  0  0  0  0  0
   68.1927   46.5684   53.1571 C   0  0  0  0  0  0  0  0  0  0  0  0
   68.9309   48.9060   53.2594 N   0  0  0  0  0  0  0  0  0  0  0  0
   71.1978   49.0772   52.8738 N   0  0  0  0  0  0  0  0  0  0  0  0
   70.0020   49.1826   52.4028 C   0  0  0  0  0  0  0  0  0  0  0  0
   69.8558   49.5693   51.0474 N   0  0  0  0  0  0  0  0  0  0  0  0
   68.8318   41.0213   58.0167 C   0  0  0  0  0  0  0  0  0  0  0  0
   69.3023   41.4092   59.1133 O   0  0  0  0  0  0  0  0  0  0  0  0
   68.8079   39.6365   57.7393 N   0  0  0  0  0  0  0  0  0  0  0  0
   69.2756   38.6317   58.6072 C   0  0  0  0  0  0  0  0  0  0  0  0
   68.5150   38.1321   59.6352 C   0  0  0  0  0  0  0  0  0  0  0  0
   68.9764   37.1453   60.4857 C   0  0  0  0  0  0  0  0  0  0  0  0
   70.2266   36.6407   60.3114 C   0  0  0  0  0  0  0  0  0  0  0  0
   71.0220   37.1179   59.2890 C   0  0  0  0  0  0  0  0  0  0  0  0
   70.5383   38.1208   58.4340 C   0  0  0  0  0  0  0  0  0  0  0  0
 13 14  2  0
 14 15  1  0
 14 12  1  0
 12  6  1  0
  6  7  2  0
  6 11  1  0
  7  8  1  0
  8  9  2  0
  9  1  1  0
  9 10  1  0
  1  2  2  0
  1  5  1  0
  2  3  1  0
  3 16  1  0
  3  4  2  0
 16 17  2  0
 16 18  1  0
 18 19  1  0
 19 20  2  0
 19 24  1  0
 20 21  1  0
 21 22  2  0
 22 23  1  0
 23 24  2  0
  4  5  1  0
 10 11  2  0
M  CHG  1  13   1
M  END
>  <minimizedAffinity>  (626) 
-8.58675

$$$$
data/reference_output_2/data/smiles/142780.pdb
     RDKit          3D

 22 24  0  0  0  0  0  0  0  0999 V2000
   70.3796   50.0550   54.7746 C   0  0  0  0  0  0  0  0  0  0  0  0
   70.1584   51.4699   54.2348 C   0  0  1  0  0  0  0  0  0  0  0  0
   70.2422   51.4626   52.8336 O   0  0  0  0  0  0  0  0  0  0  0  0
   68.9888   52.1521   54.7341 C   0  0  0  0  0  0  0  0  0  0  0  0
   67.7420   51.9650   54.5691 O   0  0  0  0  0  0  0  0  0  0  0  0
   69.4180   53.2391   55.5713 N   0  0  0  0  0  0  0  0  0  0  0  0
   70.8357   53.2789   55.5604 C   0  0  0  0  0  0  0  0  0  0  0  0
   71.6924   54.1845   56.2151 C   0  0  0  0  0  0  0  0  0  0  0  0
   73.0460   54.0356   56.0364 C   0  0  0  0  0  0  0  0  0  0  0  0
   73.5560   53.0176   55.2286 C   0  0  0  0  0  0  0  0  0  0  0  0
   72.6826   52.1559   54.6093 C   0  0  0  0  0  0  0  0  0  0  0  0
   71.3123   52.2839   54.7735 C   0  0  0  0  0  0  0  0  0  0  0  0
   71.5765   49.2141   53.0159 O   0  0  0  0  0  0  0  0  0  0  0  0
   70.4932   49.1141   53.7004 C   0  0  0  0  0  0  0  0  0  0  0  0
   69.5898   48.0716   53.2607 C   0  0  0  0  0  0  0  0  0  0  0  0
   68.7036   47.4861   54.1667 C   0  0  0  0  0  0  0  0  0  0  0  0
   67.8156   46.4893   53.8268 C   0  0  0  0  0  0  0  0  0  0  0  0
   67.7737   46.0218   52.5318 C   0  0  0  0  0  0  0  0  0  0  0  0
   66.8932   45.0181   52.1499 O   0  0  0  0  0  0  0  0  0  0  0  0
   68.6251   46.5648   51.6017 C   0  0  0  0  0  0  0  0  0  0  0  0
   69.5175   47.5783   51.9805 C   0  0  0  0  0  0  0  0  0  0  0  0
   70.3634   48.1104   51.0332 O   0  0  0  0  0  0  0  0  0  0  0  0
 13 14  2  0
 14  1  1  0
 14 15  1  0
  1  2  1  0
  2  3  1  6
  2  4  1  0
  2 12  1  0
  4  5  2  0
  4  6  1  0
  6  7  1  0
  7  8  1  0
  7 12  2  0
  8  9  2  0
  9 10  1  0
 10 11  2  0
 11 12  1  0
 15 16  2  0
 15 21  1  0
 16 17  1  0
 17 18  2  0
 18 19  1  0
 18 20  1  0
 20 21  2  0
 21 22  1  0
M  END
>  <minimizedAffinity>  (627) 
-8.65524

$$$$
data/reference_output_2/data/smiles/142787.pdb
     RDKit          3D

 30 33  0  0  0  0  0  0  0  0999 V2000
   70.0617   39.5588   58.2366 C   0  0  0  0  0  0  0  0  0  0  0  0
   70.3793   40.9999   58.5286 C   0  0  0  0  0  0  0  0  0  0  0  0
   69.7068   41.9432   57.5531 C   0  0  0  0  0  0  0  0  0  0  0  0
   68.3103   41.6389   57.3842 N   0  0  0  0  0  0  0  0  0  0  0  0
   67.5061   42.4747   56.5793 C   0  0  0  0  0  0  0  0  0  0  0  0
   66.2841   42.2373   56.4128 O   0  0  0  0  0  0  0  0  0  0  0  0
   67.7363   40.4752   58.0381 C   0  0  0  0  0  0  0  0  0  0  0  0
   68.6697   39.3122   57.8071 C   0  0  0  0  0  0  0  0  0  0  0  0
   68.0676   43.6380   55.9192 C   0  0  0  0  0  0  0  0  0  0  0  0
   69.1579   44.1868   56.2522 O   0  0  0  0  0  0  0  0  0  0  0  0
   67.3864   44.2513   54.8074 N   0  0  0  0  0  0  0  0  0  0  0  0
   67.9393   45.3892   54.1650 C   0  0  0  0  0  0  0  0  0  0  0  0
   68.0794   45.5028   52.7982 C   0  0  0  0  0  0  0  0  0  0  0  0
   68.6281   46.6393   52.2109 C   0  0  0  0  0  0  0  0  0  0  0  0
   69.0510   47.6910   52.9866 C   0  0  0  0  0  0  0  0  0  0  0  0
   68.9144   47.5856   54.3552 C   0  0  0  0  0  0  0  0  0  0  0  0
   68.3696   46.4561   54.9305 C   0  0  0  0  0  0  0  0  0  0  0  0
   69.3457   48.6562   55.1230 O   0  0  0  0  0  0  0  0  0  0  0  0
   70.3475   49.5621   54.6499 C   0  0  0  0  0  0  0  0  0  0  0  0
   70.0366   49.9191   53.2332 C   0  0  0  0  0  0  0  0  0  0  0  0
   70.1428   51.1047   52.8102 O   0  0  0  0  0  0  0  0  0  0  0  0
   69.6138   48.8564   52.3851 N   0  0  0  0  0  0  0  0  0  0  0  0
   70.5705   38.7037   59.3637 C   0  0  0  0  0  0  0  0  0  0  0  0
   72.8491   33.6464   57.8313 C   0  0  0  0  0  0  0  0  0  0  0  0
   72.2722   34.9778   58.2031 C   0  0  0  0  0  0  0  0  0  0  0  0
   72.5564   36.1107   57.4887 C   0  0  0  0  0  0  0  0  0  0  0  0
   71.9982   37.3106   57.8745 C   0  0  0  0  0  0  0  0  0  0  0  0
   71.1579   37.4211   58.9584 C   0  0  0  0  0  0  0  0  0  0  0  0
   70.8734   36.2829   59.6765 C   0  0  0  0  0  0  0  0  0  0  0  0
   71.4318   35.0880   59.2887 C   0  0  0  0  0  0  0  0  0  0  0  0
 24 25  1  0
 25 26  2  0
 25 30  1  0
 26 27  1  0
 27 28  2  0
 28 23  1  0
 28 29  1  0
 23  1  1  0
  1  2  1  0
  1  8  1  0
  2  3  1  0
  3  4  1  0
  4  5  1  0
  4  7  1  0
  5  6  2  0
  5  9  1  0
  9 10  2  0
  9 11  1  0
 11 12  1  0
 12 13  2  0
 12 17  1  0
 13 14  1  0
 14 15  2  0
 15 16  1  0
 15 22  1  0
 16 17  2  0
 16 18  1  0
 18 19  1  0
 19 20  1  0
 20 21  2  0
 20 22  1  0
  7  8  1  0
 29 30  2  0
M  END
>  <minimizedAffinity>  (628) 
-9.55789

$$$$
data/reference_output_2/data/smiles/142803.pdb
     RDKit          3D

 28 31  0  0  0  0  0  0  0  0999 V2000
   70.6183   44.7294   58.5093 C   0  0  0  0  0  0  0  0  0  0  0  0
   71.7988   44.9102   59.2019 C   0  0  0  0  0  0  0  0  0  0  0  0
   72.3975   46.1559   59.3025 C   0  0  0  0  0  0  0  0  0  0  0  0
   71.7852   47.2515   58.6855 C   0  0  0  0  0  0  0  0  0  0  0  0
   70.6058   47.1089   57.9847 C   0  0  0  0  0  0  0  0  0  0  0  0
   70.0563   45.8415   57.9199 C   0  0  0  0  0  0  0  0  0  0  0  0
   68.6189   42.0072   57.3933 C   0  0  1  0  0  0  0  0  0  0  0  0
   68.8546   43.3519   57.6742 O   0  0  0  0  0  0  0  0  0  0  0  0
   70.0398   43.3778   58.4439 C   0  0  2  0  0  0  0  0  0  0  0  0
   69.7809   42.8078   59.8236 C   0  0  2  0  0  0  0  0  0  0  0  0
   70.8813   42.0388   60.2586 O   0  0  0  0  0  0  0  0  0  0  0  0
   68.5236   42.0085   59.9031 C   0  0  1  0  0  0  0  0  0  0  0  0
   67.4873   42.8105   60.4135 O   0  0  0  0  0  0  0  0  0  0  0  0
   68.1338   41.3329   58.6321 C   0  0  2  0  0  0  0  0  0  0  0  0
   68.6158   40.0236   58.6527 O   0  0  0  0  0  0  0  0  0  0  0  0
   67.6743   40.5127   55.8100 O   0  0  0  0  0  0  0  0  0  0  0  0
   67.6662   41.8397   56.2272 C   0  0  0  0  0  0  0  0  0  0  0  0
   69.9925   48.2920   57.3474 C   0  0  0  0  0  0  0  0  0  0  0  0
   69.4533   48.0401   56.0033 C   0  0  0  0  0  0  0  0  0  0  0  0
   68.4166   47.1345   55.9626 C   0  0  0  0  0  0  0  0  0  0  0  0
   67.8895   46.4241   54.9009 C   0  0  0  0  0  0  0  0  0  0  0  0
   68.1636   46.6384   53.5668 C   0  0  0  0  0  0  0  0  0  0  0  0
   67.6660   45.8658   52.5411 C   0  0  0  0  0  0  0  0  0  0  0  0
   68.1686   46.3991   51.3709 C   0  0  0  0  0  0  0  0  0  0  0  0
   68.9762   47.4975   51.6359 C   0  0  0  0  0  0  0  0  0  0  0  0
   69.0049   47.6861   52.9845 C   0  0  0  0  0  0  0  0  0  0  0  0
   69.7033   48.6864   53.6518 C   0  0  0  0  0  0  0  0  0  0  0  0
   70.0595   48.7443   54.9836 C   0  0  0  0  0  0  0  0  0  0  0  0
 16 17  1  0
  7 17  1  6
  7  8  1  0
  7 14  1  0
  8  9  1  0
  9  1  1  1
  9 10  1  0
  1  2  2  0
  1  6  1  0
  2  3  1  0
  3  4  2  0
  4  5  1  0
  5 18  1  0
  5  6  2  0
 18 19  1  0
 19 20  2  0
 19 28  1  0
 20 21  1  0
 21 22  2  0
 22 23  1  0
 22 26  1  0
 23 24  2  0
 24 25  1  0
 25 26  2  0
 26 27  1  0
 27 28  2  0
 10 11  1  6
 10 12  1  0
 12 13  1  6
 12 14  1  0
 14 15  1  1
M  END
>  <minimizedAffinity>  (629) 
-8.54640

$$$$
data/reference_output_2/data/smiles/142851.pdb
     RDKit          3D

 24 26  0  0  0  0  0  0  0  0999 V2000
   72.3339   51.1386   54.9146 C   0  0  2  0  0  0  0  0  0  0  0  0
   70.3595   50.8556   53.0165 O   0  0  0  0  0  0  0  0  0  0  0  0
   70.5875   49.8040   53.6881 C   0  0  0  0  0  0  0  0  0  0  0  0
   71.5841   49.8946   54.6675 N   0  0  0  0  0  0  0  0  0  0  0  0
   69.8209   48.6085   53.4052 C   0  0  0  0  0  0  0  0  0  0  0  0
   69.7761   48.1324   52.1160 C   0  0  0  0  0  0  0  0  0  0  0  0
   69.0675   47.0008   51.7671 C   0  0  0  0  0  0  0  0  0  0  0  0
   68.3791   46.3284   52.7739 C   0  0  0  0  0  0  0  0  0  0  0  0
   68.4003   46.7734   54.0752 C   0  0  0  0  0  0  0  0  0  0  0  0
   67.6972   46.0663   55.0387 O   0  0  0  0  0  0  0  0  0  0  0  0
   69.1314   47.9231   54.3749 C   0  0  0  0  0  0  0  0  0  0  0  0
   73.7506   50.8969   54.6197 C   0  0  0  0  0  0  0  0  0  0  0  0
   74.6982   51.3366   55.3088 O   0  0  0  0  0  0  0  0  0  0  0  0
   74.1232   50.1277   53.5043 O   0  0  0  0  0  0  0  0  0  0  0  0
   71.9795   51.5900   56.2800 C   0  0  0  0  0  0  0  0  0  0  0  0
   70.5535   51.9016   56.4917 C   0  0  0  0  0  0  0  0  0  0  0  0
   69.9461   53.1531   56.2794 C   0  0  0  0  0  0  0  0  0  0  0  0
   68.6461   53.0829   56.6025 N   0  0  0  0  0  0  0  0  0  0  0  0
   68.3340   51.8363   57.0267 C   0  0  0  0  0  0  0  0  0  0  0  0
   67.1454   51.2635   57.4500 C   0  0  0  0  0  0  0  0  0  0  0  0
   67.0916   49.9370   57.8189 C   0  0  0  0  0  0  0  0  0  0  0  0
   68.2651   49.2167   57.7477 C   0  0  0  0  0  0  0  0  0  0  0  0
   69.4417   49.7942   57.3268 C   0  0  0  0  0  0  0  0  0  0  0  0
   69.5107   51.1231   56.9536 C   0  0  0  0  0  0  0  0  0  0  0  0
  2  3  2  0
  3  4  1  0
  3  5  1  0
  4  1  1  0
  1 15  1  1
  1 12  1  0
 15 16  1  0
 16 17  2  0
 16 24  1  0
 17 18  1  0
 18 19  1  0
 19 20  1  0
 19 24  2  0
 20 21  2  0
 21 22  1  0
 22 23  2  0
 23 24  1  0
 12 13  2  0
 12 14  1  0
  5  6  2  0
  5 11  1  0
  6  7  1  0
  7  8  2  0
  8  9  1  0
  9 10  1  0
  9 11  2  0
M  END
>  <minimizedAffinity>  (630) 
-8.80651

$$$$
data/reference_output_2/data/smiles/142952.pdb
     RDKit          3D

 23 24  0  0  0  0  0  0  0  0999 V2000
   71.1854   46.3554   58.2338 O   0  0  0  0  0  0  0  0  0  0  0  0
   70.4626   45.4050   57.8255 C   0  0  0  0  0  0  0  0  0  0  0  0
   69.3972   45.7066   56.9599 N   0  0  0  0  0  0  0  0  0  0  0  0
   70.7829   44.0446   58.2853 C   0  0  0  0  0  0  0  0  0  0  0  0
   69.6186   43.1852   58.3737 N   0  0  0  0  0  0  0  0  0  0  0  0
   69.0251   42.7101   57.2734 C   0  0  0  0  0  0  0  0  0  0  0  0
   67.9278   41.8837   57.2735 C   0  0  0  0  0  0  0  0  0  0  0  0
   67.4057   41.5247   58.4959 C   0  0  0  0  0  0  0  0  0  0  0  0
   68.0165   42.0153   59.6488 C   0  0  0  0  0  0  0  0  0  0  0  0
   69.1142   42.8386   59.5657 C   0  0  0  0  0  0  0  0  0  0  0  0
   69.6225   43.2504   60.6537 O   0  0  0  0  0  0  0  0  0  0  0  0
   67.3242   41.3895   56.0265 C   0  0  0  0  0  0  0  0  0  0  0  0
   66.4366   42.0667   55.4475 O   0  0  0  0  0  0  0  0  0  0  0  0
   67.6948   40.1921   55.4497 O   0  0  0  0  0  0  0  0  0  0  0  0
   69.0279   47.0135   56.4714 C   0  0  0  0  0  0  0  0  0  0  0  0
   68.7836   46.9116   55.0194 C   0  0  0  0  0  0  0  0  0  0  0  0
   68.0648   45.8637   54.4931 C   0  0  0  0  0  0  0  0  0  0  0  0
   67.8620   45.7728   53.1100 C   0  0  0  0  0  0  0  0  0  0  0  0
   68.4008   46.7590   52.3070 C   0  0  0  0  0  0  0  0  0  0  0  0
   68.2164   46.6929   50.9500 F   0  0  0  0  0  0  0  0  0  0  0  0
   69.1233   47.8149   52.8271 C   0  0  0  0  0  0  0  0  0  0  0  0
   69.8067   49.0619   51.7916 Cl  0  0  0  0  0  0  0  0  0  0  0  0
   69.3095   47.8809   54.1948 C   0  0  0  0  0  0  0  0  0  0  0  0
  1  2  2  0
  2  4  1  0
  2  3  1  0
  4  5  1  0
  5  6  1  0
  5 10  1  0
  6  7  2  0
  7 12  1  0
  7  8  1  0
 12 13  2  0
 12 14  1  0
  8  9  2  0
  9 10  1  0
 10 11  2  0
  3 15  1  0
 15 16  1  0
 16 17  2  0
 16 23  1  0
 17 18  1  0
 18 19  2  0
 19 20  1  0
 19 21  1  0
 21 22  1  0
 21 23  2  0
M  END
>  <minimizedAffinity>  (631) 
-8.65800

$$$$
data/reference_output_2/data/smiles/142993.pdb
     RDKit          3D

 24 26  0  0  0  0  0  0  0  0999 V2000
   70.4518   52.0078   55.8773 C   0  0  0  0  0  0  0  0  0  0  0  0
   70.0466   51.4103   57.0577 C   0  0  0  0  0  0  0  0  0  0  0  0
   69.5018   50.1429   57.0801 C   0  0  0  0  0  0  0  0  0  0  0  0
   69.3313   49.3991   55.9206 C   0  0  0  0  0  0  0  0  0  0  0  0
   69.7351   49.9933   54.7437 C   0  0  0  0  0  0  0  0  0  0  0  0
   70.2864   51.2767   54.7232 C   0  0  0  0  0  0  0  0  0  0  0  0
   70.6768   51.8304   53.5161 O   0  0  0  0  0  0  0  0  0  0  0  0
   69.5781   49.2558   53.5102 C   0  0  0  0  0  0  0  0  0  0  0  0
   69.9528   49.8098   52.4279 O   0  0  0  0  0  0  0  0  0  0  0  0
   69.0076   47.9254   53.5420 C   0  0  0  0  0  0  0  0  0  0  0  0
   68.8687   47.2370   52.3472 C   0  0  0  0  0  0  0  0  0  0  0  0
   69.2835   47.8587   51.1788 O   0  0  0  0  0  0  0  0  0  0  0  0
   68.3292   45.9743   52.3703 C   0  0  0  0  0  0  0  0  0  0  0  0
   67.9357   45.4068   53.5548 C   0  0  0  0  0  0  0  0  0  0  0  0
   68.0687   46.0821   54.7492 C   0  0  0  0  0  0  0  0  0  0  0  0
   68.6168   47.3674   54.7349 C   0  0  0  0  0  0  0  0  0  0  0  0
   68.7416   48.0503   56.0171 C   0  0  0  0  0  0  0  0  0  0  0  0
   71.0381   53.3679   55.8383 C   0  0  0  0  0  0  0  0  0  0  0  0
   72.5026   53.3759   56.1318 C   0  0  0  0  0  0  0  0  0  0  0  0
   73.3605   53.8045   54.9971 C   0  0  0  0  0  0  0  0  0  0  0  0
   73.9560   52.9839   52.8172 O   0  0  0  0  0  0  0  0  0  0  0  0
   73.6638   52.7357   54.0202 C   0  0  0  0  0  0  0  0  0  0  0  0
   73.6390   51.3666   54.4010 N   0  0  0  0  0  0  0  0  0  0  0  0
   73.9239   50.4130   53.4785 O   0  0  0  0  0  0  0  0  0  0  0  0
 21 22  2  0
 22 20  1  0
 22 23  1  0
 20 19  1  0
 19 18  1  0
 18  1  1  0
  1  2  2  0
  1  6  1  0
  2  3  1  0
  3  4  2  0
  4  5  1  0
  4 17  1  0
  5  6  2  0
  5  8  1  0
  6  7  1  0
  8  9  2  0
  8 10  1  0
 10 11  2  0
 10 16  1  0
 11 12  1  0
 11 13  1  0
 13 14  2  0
 14 15  1  0
 15 16  2  0
 16 17  1  0
 23 24  1  0
M  END
>  <minimizedAffinity>  (632) 
-8.57823

$$$$
data/reference_output_2/data/smiles/143162.pdb
     RDKit          3D

 20 22  0  0  0  0  0  0  0  0999 V2000
   70.1272   49.2821   50.9633 O   0  0  0  0  0  0  0  0  0  0  0  0
   69.8507   48.8254   52.1049 C   0  0  0  0  0  0  0  0  0  0  0  0
   70.2441   49.3741   53.4135 C   0  0  0  0  0  0  0  0  0  0  0  0
   70.9399   50.4312   53.4476 O   0  0  0  0  0  0  0  0  0  0  0  0
   69.7216   48.5477   54.4313 N   0  0  0  0  0  0  0  0  0  0  0  0
   68.9988   47.4819   53.7832 C   0  0  0  0  0  0  0  0  0  0  0  0
   68.2747   46.4026   54.2500 C   0  0  0  0  0  0  0  0  0  0  0  0
   68.1228   46.1887   55.5612 F   0  0  0  0  0  0  0  0  0  0  0  0
   67.6408   45.4961   53.3931 C   0  0  0  0  0  0  0  0  0  0  0  0
   67.7272   45.6682   52.0393 C   0  0  0  0  0  0  0  0  0  0  0  0
   68.4431   46.7400   51.5561 C   0  0  0  0  0  0  0  0  0  0  0  0
   69.0625   47.6252   52.4144 C   0  0  0  0  0  0  0  0  0  0  0  0
   69.8811   48.7405   55.8466 C   0  0  0  0  0  0  0  0  0  0  0  0
   68.7183   49.3280   56.5661 C   0  0  0  0  0  0  0  0  0  0  0  0
   67.8633   48.5326   57.3033 C   0  0  0  0  0  0  0  0  0  0  0  0
   66.7930   49.1149   57.9793 C   0  0  0  0  0  0  0  0  0  0  0  0
   66.5350   50.4702   57.9529 C   0  0  0  0  0  0  0  0  0  0  0  0
   67.3828   51.2695   57.2193 C   0  0  0  0  0  0  0  0  0  0  0  0
   68.4595   50.6839   56.5379 C   0  0  0  0  0  0  0  0  0  0  0  0
   69.2569   51.4780   55.7929 F   0  0  0  0  0  0  0  0  0  0  0  0
  1  2  2  0
  2  3  1  0
  2 12  1  0
  3  4  2  0
  3  5  1  0
  5 13  1  0
  5  6  1  0
 13 14  1  0
 14 15  2  0
 14 19  1  0
 15 16  1  0
 16 17  2  0
 17 18  1  0
 18 19  2  0
 19 20  1  0
  6  7  2  0
  6 12  1  0
  7  8  1  0
  7  9  1  0
  9 10  2  0
 10 11  1  0
 11 12  2  0
M  END
>  <minimizedAffinity>  (633) 
-8.62590

$$$$
data/reference_output_2/data/smiles/143908.pdb
     RDKit          3D

 19 20  0  0  0  0  0  0  0  0999 V2000
   68.4180   46.7157   54.0707 C   0  0  0  0  0  0  0  0  0  0  0  0
   68.4005   46.3252   52.7255 C   0  0  0  0  0  0  0  0  0  0  0  0
   69.0515   47.0220   51.7295 C   0  0  0  0  0  0  0  0  0  0  0  0
   69.7655   48.1757   52.0582 C   0  0  0  0  0  0  0  0  0  0  0  0
   70.4170   48.8689   51.0453 O   0  0  0  0  0  0  0  0  0  0  0  0
   69.8011   48.5846   53.3686 C   0  0  0  0  0  0  0  0  0  0  0  0
   69.1312   47.8511   54.3447 C   0  0  0  0  0  0  0  0  0  0  0  0
   70.5476   49.7839   53.7027 C   0  0  0  0  0  0  0  0  0  0  0  0
   69.9735   50.8461   54.0220 O   0  0  0  0  0  0  0  0  0  0  0  0
   71.9525   49.8061   53.6844 O   0  0  0  0  0  0  0  0  0  0  0  0
   67.7340   45.9349   54.9967 N   0  0  0  0  0  0  0  0  0  0  0  0
   67.7064   41.2847   56.3493 C   0  0  0  0  0  0  0  0  0  0  0  0
   68.2966   42.6533   56.4469 C   0  0  0  0  0  0  0  0  0  0  0  0
   69.3680   42.8485   57.3040 C   0  0  0  0  0  0  0  0  0  0  0  0
   69.8896   44.1310   57.3692 C   0  0  0  0  0  0  0  0  0  0  0  0
   71.0393   44.4849   58.2461 C   0  0  0  0  0  0  0  0  0  0  0  0
   69.3271   45.0575   56.6148 N   0  0  0  0  0  0  0  0  0  0  0  0
   68.2939   44.8988   55.7808 C   0  0  0  0  0  0  0  0  0  0  0  0
   67.7804   43.6414   55.7140 N   0  0  0  0  0  0  0  0  0  0  0  0
 12 13  1  0
 13 14  2  0
 13 19  1  0
 14 15  1  0
 15 16  1  0
 15 17  2  0
 17 18  1  0
 18 11  1  0
 18 19  2  0
 11  1  1  0
  1  2  2  0
  1  7  1  0
  2  3  1  0
  3  4  2  0
  4  5  1  0
  4  6  1  0
  6  8  1  0
  6  7  2  0
  8  9  2  0
  8 10  1  0
M  END
>  <minimizedAffinity>  (634) 
-8.61177

$$$$
data/reference_output_2/data/smiles/143927.pdb
     RDKit          3D

 27 29  0  0  0  0  0  0  0  0999 V2000
   69.1469   40.2373   57.7950 C   0  0  0  0  0  0  0  0  0  0  0  0
   68.0158   40.1612   57.0103 C   0  0  0  0  0  0  0  0  0  0  0  0
   67.5138   41.2905   56.3806 C   0  0  0  0  0  0  0  0  0  0  0  0
   68.1274   42.5082   56.5240 C   0  0  0  0  0  0  0  0  0  0  0  0
   69.2788   42.6372   57.3101 C   0  0  0  0  0  0  0  0  0  0  0  0
   69.7392   41.4861   57.9148 C   0  0  0  0  0  0  0  0  0  0  0  0
   70.6460   36.7883   59.7777 C   0  0  0  0  0  0  0  0  0  0  0  0
   69.4036   37.2924   60.0814 C   0  0  0  0  0  0  0  0  0  0  0  0
   68.9406   38.4098   59.4270 C   0  0  0  0  0  0  0  0  0  0  0  0
   69.6853   39.0545   58.4622 C   0  0  0  0  0  0  0  0  0  0  0  0
   70.9274   38.5275   58.1775 C   0  0  0  0  0  0  0  0  0  0  0  0
   71.4289   37.3998   58.8184 C   0  0  0  0  0  0  0  0  0  0  0  0
   71.5369   34.6830   60.9959 N   0  0  0  0  0  0  0  0  0  0  0  0
   71.1374   35.6112   60.4644 C   0  0  0  0  0  0  0  0  0  0  0  0
   69.9224   43.9293   57.4542 C   0  0  0  0  0  0  0  0  0  0  0  0
   71.0326   43.9812   58.0221 O   0  0  0  0  0  0  0  0  0  0  0  0
   69.3245   45.0955   56.9728 N   0  0  0  0  0  0  0  0  0  0  0  0
   69.9339   46.3766   57.1010 N   0  0  0  0  0  0  0  0  0  0  0  0
   68.8760   47.4765   56.2913 S   0  0  0  0  0  0  0  0  0  0  0  0
   67.4890   47.4319   56.8967 O   0  0  0  0  0  0  0  0  0  0  0  0
   69.3647   48.8897   56.4747 O   0  0  0  0  0  0  0  0  0  0  0  0
   68.7098   47.1234   54.6032 C   0  0  0  0  0  0  0  0  0  0  0  0
   69.3350   47.9089   53.6787 C   0  0  0  0  0  0  0  0  0  0  0  0
   69.1894   47.6075   52.3240 C   0  0  0  0  0  0  0  0  0  0  0  0
   68.4308   46.5401   51.9169 C   0  0  0  0  0  0  0  0  0  0  0  0
   67.8110   45.7640   52.8669 C   0  0  0  0  0  0  0  0  0  0  0  0
   67.9531   46.0592   54.2056 C   0  0  0  0  0  0  0  0  0  0  0  0
 13 14  3  0
 14  7  1  0
  7  8  2  0
  7 12  1  0
  8  9  1  0
  9 10  2  0
 10  1  1  0
 10 11  1  0
  1  2  2  0
  1  6  1  0
  2  3  1  0
  3  4  2  0
  4  5  1  0
  5 15  1  0
  5  6  2  0
 15 16  2  0
 15 17  1  0
 17 18  1  0
 18 19  1  0
 19 20  2  0
 19 21  2  0
 19 22  1  0
 22 23  2  0
 22 27  1  0
 23 24  1  0
 24 25  2  0
 25 26  1  0
 26 27  2  0
 11 12  2  0
M  END
>  <minimizedAffinity>  (635) 
-9.06960

$$$$
data/reference_output_2/data/smiles/143953.pdb
     RDKit          3D

 24 26  0  0  0  0  0  0  0  0999 V2000
   69.6706   48.8934   51.8308 C   0  0  0  0  0  0  0  0  0  0  0  0
   68.9727   47.7010   52.3922 C   0  0  0  0  0  0  0  0  0  0  0  0
   68.2749   46.8179   51.5953 C   0  0  0  0  0  0  0  0  0  0  0  0
   67.6653   45.7465   52.2118 C   0  0  0  0  0  0  0  0  0  0  0  0
   67.0320   44.9434   51.5001 O   0  0  0  0  0  0  0  0  0  0  0  0
   67.7174   45.5330   53.5023 O   0  0  0  0  0  0  0  0  0  0  0  0
   68.3688   46.3402   54.3171 C   0  0  0  0  0  0  0  0  0  0  0  0
   68.4255   46.1164   55.6759 C   0  0  0  0  0  0  0  0  0  0  0  0
   69.1183   46.9862   56.4883 C   0  0  0  0  0  0  0  0  0  0  0  0
   69.7538   48.0895   55.9048 C   0  0  0  0  0  0  0  0  0  0  0  0
   69.7069   48.3283   54.5474 C   0  0  0  0  0  0  0  0  0  0  0  0
   69.0022   47.4349   53.7507 C   0  0  0  0  0  0  0  0  0  0  0  0
   69.2334   46.8456   57.8722 O   0  0  0  0  0  0  0  0  0  0  0  0
   70.4730   46.5728   58.4344 C   0  0  0  0  0  0  0  0  0  0  0  0
   70.6816   45.1347   58.7184 C   0  0  0  0  0  0  0  0  0  0  0  0
   71.1319   44.8455   59.8726 O   0  0  0  0  0  0  0  0  0  0  0  0
   70.4075   44.1148   57.8006 N   0  0  0  0  0  0  0  0  0  0  0  0
   70.6376   42.7303   58.1180 C   0  0  0  0  0  0  0  0  0  0  0  0
   69.5350   41.9024   57.6076 C   0  0  0  0  0  0  0  0  0  0  0  0
   69.3560   40.5964   57.9694 C   0  0  0  0  0  0  0  0  0  0  0  0
   68.2958   39.8406   57.4484 C   0  0  0  0  0  0  0  0  0  0  0  0
   67.4435   40.4198   56.5767 N   0  0  0  0  0  0  0  0  0  0  0  0
   67.5863   41.6887   56.2027 C   0  0  0  0  0  0  0  0  0  0  0  0
   68.6352   42.4436   56.7141 C   0  0  0  0  0  0  0  0  0  0  0  0
  1  2  1  0
  2  3  2  0
  2 12  1  0
  3  4  1  0
  4  5  2  0
  4  6  1  0
  6  7  1  0
  7  8  1  0
  7 12  2  0
  8  9  2  0
  9 13  1  0
  9 10  1  0
 13 14  1  0
 14 15  1  0
 15 16  2  0
 15 17  1  0
 17 18  1  0
 18 19  1  0
 19 20  2  0
 19 24  1  0
 20 21  1  0
 21 22  2  0
 22 23  1  0
 23 24  2  0
 10 11  2  0
 11 12  1  0
M  END
>  <minimizedAffinity>  (636) 
-8.57128

$$$$
data/reference_output_2/data/smiles/143985.pdb
     RDKit          3D

 28 31  0  0  0  0  0  0  0  0999 V2000
   71.3015   47.2893   58.6380 C   0  0  0  0  0  0  0  0  0  0  0  0
   70.4151   48.0228   57.8803 C   0  0  0  0  0  0  0  0  0  0  0  0
   69.5433   47.4155   56.9787 C   0  0  0  0  0  0  0  0  0  0  0  0
   69.5825   46.0479   56.8575 C   0  0  0  0  0  0  0  0  0  0  0  0
   70.4771   45.2933   57.6203 C   0  0  0  0  0  0  0  0  0  0  0  0
   71.3262   45.9288   58.5032 C   0  0  0  0  0  0  0  0  0  0  0  0
   72.2102   45.2019   59.2600 F   0  0  0  0  0  0  0  0  0  0  0  0
   71.9159   47.9989   60.8117 O   0  0  0  0  0  0  0  0  0  0  0  0
   72.1932   48.0055   59.5698 C   0  0  0  0  0  0  0  0  0  0  0  0
   73.3422   48.6915   59.0885 N   0  0  0  0  0  0  0  0  0  0  0  0
   74.1232   49.3451   60.0934 C   0  0  0  0  0  0  0  0  0  0  0  0
   75.3816   48.5155   60.3277 C   0  0  0  0  0  0  0  0  0  0  0  0
   75.7519   47.7860   59.0508 C   0  0  0  0  0  0  0  0  0  0  0  0
   75.9836   48.7776   58.0410 N   0  0  0  0  0  0  0  0  0  0  0  0
   74.8748   49.0499   57.1889 C   0  0  0  0  0  0  0  0  0  0  0  0
   73.5418   48.6250   57.6860 C   0  0  0  0  0  0  0  0  0  0  0  0
   68.6098   48.2896   56.1933 C   0  0  0  0  0  0  0  0  0  0  0  0
   69.1606   48.4027   54.8153 C   0  0  0  0  0  0  0  0  0  0  0  0
   70.0875   49.3936   54.5041 C   0  0  0  0  0  0  0  0  0  0  0  0
   70.6109   49.5356   53.2754 N   0  0  0  0  0  0  0  0  0  0  0  0
   70.2414   48.7029   52.2925 C   0  0  0  0  0  0  0  0  0  0  0  0
   70.7040   48.7947   51.1237 O   0  0  0  0  0  0  0  0  0  0  0  0
   69.3262   47.7173   52.5803 C   0  0  0  0  0  0  0  0  0  0  0  0
   68.7718   46.7391   51.7855 C   0  0  0  0  0  0  0  0  0  0  0  0
   67.9076   46.0046   52.5506 C   0  0  0  0  0  0  0  0  0  0  0  0
   66.9642   44.6440   51.9685 Cl  0  0  0  0  0  0  0  0  0  0  0  0
   67.9387   46.5379   53.8041 C   0  0  0  0  0  0  0  0  0  0  0  0
   68.8012   47.5766   53.8197 N   0  0  0  0  0  0  0  0  0  0  0  0
  8  9  2  0
  9  1  1  0
  9 10  1  0
  1  2  2  0
  1  6  1  0
  2  3  1  0
  3 17  1  0
  3  4  2  0
 17 18  1  0
 18 19  2  0
 18 28  1  0
 19 20  1  0
 20 21  1  0
 21 22  2  0
 21 23  1  0
 23 24  2  0
 23 28  1  0
 24 25  1  0
 25 26  1  0
 25 27  2  0
 27 28  1  0
  4  5  1  0
  5  6  2  0
  6  7  1  0
 10 11  1  0
 10 16  1  0
 11 12  1  0
 12 13  1  0
 13 14  1  0
 14 15  1  0
 15 16  1  0
M  CHG  1  14   1
M  END
>  <minimizedAffinity>  (637) 
-8.73233

$$$$
data/reference_output_2/data/smiles/144010.pdb
     RDKit          3D

 25 27  0  0  0  0  0  0  0  0999 V2000
   69.6461   47.9611   57.4541 C   0  0  0  0  0  0  0  0  0  0  0  0
   69.2554   46.8230   56.9359 C   0  0  0  0  0  0  0  0  0  0  0  0
   70.0868   45.7357   57.5094 C   0  0  0  0  0  0  0  0  0  0  0  0
   69.9906   44.5187   57.2386 O   0  0  0  0  0  0  0  0  0  0  0  0
   71.0077   46.3191   58.4155 N   0  0  0  0  0  0  0  0  0  0  0  0
   70.7624   47.7129   58.4077 C   0  0  0  0  0  0  0  0  0  0  0  0
   71.3606   48.6120   59.0746 O   0  0  0  0  0  0  0  0  0  0  0  0
   69.8190   50.1755   56.3872 C   0  0  0  0  0  0  0  0  0  0  0  0
   69.3549   51.4449   56.1094 C   0  0  0  0  0  0  0  0  0  0  0  0
   68.1383   51.8828   56.5901 C   0  0  0  0  0  0  0  0  0  0  0  0
   67.4115   50.9939   57.3588 C   0  0  0  0  0  0  0  0  0  0  0  0
   67.8753   49.7278   57.6365 C   0  0  0  0  0  0  0  0  0  0  0  0
   69.0871   49.2816   57.1621 C   0  0  0  0  0  0  0  0  0  0  0  0
   72.1108   50.6776   55.7394 C   0  0  0  0  0  0  0  0  0  0  0  0
   71.0421   49.7509   55.8975 O   0  0  0  0  0  0  0  0  0  0  0  0
   68.2391   46.5740   55.9954 N   0  0  0  0  0  0  0  0  0  0  0  0
   68.3310   46.6180   54.5820 C   0  0  0  0  0  0  0  0  0  0  0  0
   67.6786   45.7545   53.7530 C   0  0  0  0  0  0  0  0  0  0  0  0
   67.8411   45.8437   52.3816 C   0  0  0  0  0  0  0  0  0  0  0  0
   68.6675   46.8160   51.8426 C   0  0  0  0  0  0  0  0  0  0  0  0
   69.3457   47.7112   52.6583 C   0  0  0  0  0  0  0  0  0  0  0  0
   69.1568   47.5849   54.0140 C   0  0  0  0  0  0  0  0  0  0  0  0
   70.2043   48.7318   52.1235 C   0  0  0  0  0  0  0  0  0  0  0  0
   69.9168   49.3181   51.0440 O   0  0  0  0  0  0  0  0  0  0  0  0
   71.3619   49.0914   52.7754 O   0  0  0  0  0  0  0  0  0  0  0  0
 14 15  1  0
 15  8  1  0
  8  9  2  0
  8 13  1  0
  9 10  1  0
 10 11  2  0
 11 12  1  0
 12 13  2  0
 13  1  1  0
  1  2  2  0
  1  6  1  0
  2 16  1  0
  2  3  1  0
 16 17  1  0
 17 18  2  0
 17 22  1  0
 18 19  1  0
 19 20  2  0
 20 21  1  0
 21 23  1  0
 21 22  2  0
 23 24  2  0
 23 25  1  0
  3  4  2  0
  3  5  1  0
  5  6  1  0
  6  7  2  0
M  END
>  <minimizedAffinity>  (638) 
-8.82471

$$$$
data/reference_output_2/data/smiles/144063.pdb
     RDKit          3D

 30 33  0  0  0  0  0  0  0  0999 V2000
   71.7799   42.3159   58.0579 N   0  0  0  0  0  0  0  0  0  0  0  0
   71.2671   43.5091   57.7288 C   0  0  0  0  0  0  0  0  0  0  0  0
   69.9085   43.7209   57.4286 C   0  0  0  0  0  0  0  0  0  0  0  0
   69.1379   42.5950   57.5005 C   0  0  0  0  0  0  0  0  0  0  0  0
   67.9223   42.6511   57.2577 O   0  0  0  0  0  0  0  0  0  0  0  0
   69.6699   41.3425   57.8448 C   0  0  0  0  0  0  0  0  0  0  0  0
   68.8598   40.2271   57.9077 C   0  0  0  0  0  0  0  0  0  0  0  0
   67.5404   40.3540   57.6316 F   0  0  0  0  0  0  0  0  0  0  0  0
   69.3637   38.9886   58.2449 C   0  0  0  0  0  0  0  0  0  0  0  0
   70.7120   38.8345   58.5326 C   0  0  0  0  0  0  0  0  0  0  0  0
   71.5063   39.9574   58.4647 C   0  0  0  0  0  0  0  0  0  0  0  0
   71.0119   41.2146   58.1255 C   0  0  0  0  0  0  0  0  0  0  0  0
   71.2377   37.5581   58.8828 N   0  0  0  0  0  0  0  0  0  0  0  0
   72.2197   36.9596   57.9650 C   0  0  0  0  0  0  0  0  0  0  0  0
   72.5468   35.5491   58.3689 C   0  0  0  0  0  0  0  0  0  0  0  0
   71.3078   34.9499   58.6942 O   0  0  0  0  0  0  0  0  0  0  0  0
   71.0123   35.3638   59.9909 C   0  0  0  0  0  0  0  0  0  0  0  0
   70.8400   36.8622   60.0748 C   0  0  0  0  0  0  0  0  0  0  0  0
   69.4696   45.0597   57.0884 C   0  0  0  0  0  0  0  0  0  0  0  0
   69.8151   46.0500   57.8352 O   0  0  0  0  0  0  0  0  0  0  0  0
   68.6778   45.3916   55.9865 N   0  0  0  0  0  0  0  0  0  0  0  0
   68.2459   46.7724   55.6769 C   0  0  0  0  0  0  0  0  0  0  0  0
   68.7478   47.1889   54.3419 C   0  0  0  0  0  0  0  0  0  0  0  0
   68.5416   46.4845   53.1801 C   0  0  0  0  0  0  0  0  0  0  0  0
   69.0494   46.9205   51.9492 C   0  0  0  0  0  0  0  0  0  0  0  0
   69.7791   48.0780   51.8536 C   0  0  0  0  0  0  0  0  0  0  0  0
   69.9966   48.7954   53.0005 C   0  0  0  0  0  0  0  0  0  0  0  0
   69.4985   48.3673   54.2077 C   0  0  0  0  0  0  0  0  0  0  0  0
   73.9661   43.4329   57.8866 C   0  0  0  0  0  0  0  0  0  0  0  0
   73.2053   42.2229   58.3530 C   0  0  0  0  0  0  0  0  0  0  0  0
 29 30  1  0
 30  1  1  0
  1  2  1  0
  1 12  1  0
  2  3  2  0
  3 19  1  0
  3  4  1  0
 19 20  2  0
 19 21  1  0
 21 22  1  0
 22 23  1  0
 23 24  2  0
 23 28  1  0
 24 25  1  0
 25 26  2  0
 26 27  1  0
 27 28  2  0
  4  5  2  0
  4  6  1  0
  6  7  1  0
  6 12  2  0
  7  8  1  0
  7  9  2  0
  9 10  1  0
 10 13  1  0
 10 11  2  0
 13 14  1  0
 13 18  1  0
 14 15  1  0
 15 16  1  0
 16 17  1  0
 17 18  1  0
 11 12  1  0
M  END
>  <minimizedAffinity>  (639) 
-8.76551

$$$$
data/reference_output_2/data/smiles/144527.pdb
     RDKit          3D

 26 29  0  0  0  0  0  0  0  0999 V2000
   70.5369   49.5677   53.9749 C   0  0  0  0  0  0  0  0  0  0  0  0
   69.9245   49.3580   55.1873 C   0  0  0  0  0  0  0  0  0  0  0  0
   69.0297   48.3353   55.3280 N   0  0  0  0  0  0  0  0  0  0  0  0
   68.7145   47.5104   54.3125 C   0  0  0  0  0  0  0  0  0  0  0  0
   67.8017   46.4897   54.4482 C   0  0  0  0  0  0  0  0  0  0  0  0
   67.4939   45.6728   53.3858 C   0  0  0  0  0  0  0  0  0  0  0  0
   68.1038   45.8682   52.1556 C   0  0  0  0  0  0  0  0  0  0  0  0
   69.0100   46.8867   52.0299 C   0  0  0  0  0  0  0  0  0  0  0  0
   69.6380   47.1262   50.8483 F   0  0  0  0  0  0  0  0  0  0  0  0
   69.3469   47.7333   53.0759 C   0  0  0  0  0  0  0  0  0  0  0  0
   70.2554   48.7543   52.8982 C   0  0  0  0  0  0  0  0  0  0  0  0
   70.8028   48.9323   51.7969 O   0  0  0  0  0  0  0  0  0  0  0  0
   71.0719   51.8194   53.6065 O   0  0  0  0  0  0  0  0  0  0  0  0
   71.4863   50.6650   53.8536 C   0  0  0  0  0  0  0  0  0  0  0  0
   72.8425   50.4677   54.0038 O   0  0  0  0  0  0  0  0  0  0  0  0
   68.4775   48.1628   56.6279 C   0  0  0  0  0  0  0  0  0  0  0  0
   69.5934   48.0513   57.6126 C   0  0  0  0  0  0  0  0  0  0  0  0
   70.1849   49.1038   58.2697 C   0  0  0  0  0  0  0  0  0  0  0  0
   71.2317   48.9136   59.1788 C   0  0  0  0  0  0  0  0  0  0  0  0
   71.6989   47.6519   59.4397 C   0  0  0  0  0  0  0  0  0  0  0  0
   71.1357   46.5740   58.8049 C   0  0  0  0  0  0  0  0  0  0  0  0
   70.1121   46.7843   57.9184 C   0  0  0  0  0  0  0  0  0  0  0  0
   71.8021   45.3218   59.2444 C   0  0  0  0  0  0  0  0  0  0  0  0
   72.5532   45.7355   60.4717 C   0  0  0  0  0  0  0  0  0  0  0  0
   72.7811   47.2081   60.3492 C   0  0  2  0  0  0  0  0  0  0  0  0
   72.6758   47.7905   61.6107 O   0  0  0  0  0  0  0  0  0  0  0  0
 13 14  2  0
 14 15  1  0
 14  1  1  0
  1  2  2  0
  1 11  1  0
  2  3  1  0
  3 16  1  0
  3  4  1  0
 16 17  1  0
 17 18  2  0
 17 22  1  0
 18 19  1  0
 19 20  2  0
 20 21  1  0
 20 25  1  0
 21 22  2  0
 21 23  1  0
 23 24  1  0
 24 25  1  0
 25 26  1  1
  4  5  1  0
  4 10  2  0
  5  6  2  0
  6  7  1  0
  7  8  2  0
  8  9  1  0
  8 10  1  0
 10 11  1  0
 11 12  2  0
M  END
>  <minimizedAffinity>  (640) 
-8.67562

$$$$
data/reference_output_2/data/smiles/144686.pdb
     RDKit          3D

 26 28  0  0  0  0  0  0  0  0999 V2000
   69.4923   45.7776   56.8534 N   0  0  0  0  0  0  0  0  0  0  0  0
   69.0272   47.3813   56.5700 S   0  0  0  0  0  0  0  0  0  0  0  0
   67.5505   47.5112   56.8624 O   0  0  0  0  0  0  0  0  0  0  0  0
   69.7391   48.2752   57.5356 O   0  0  0  0  0  0  0  0  0  0  0  0
   69.2897   47.9032   54.9329 C   0  0  0  0  0  0  0  0  0  0  0  0
   70.0172   49.0325   54.6232 C   0  0  0  0  0  0  0  0  0  0  0  0
   70.2163   49.4324   53.3107 C   0  0  0  0  0  0  0  0  0  0  0  0
   69.6927   48.7161   52.2583 C   0  0  0  0  0  0  0  0  0  0  0  0
   68.9642   47.5852   52.5587 C   0  0  0  0  0  0  0  0  0  0  0  0
   68.4356   46.8619   51.4822 C   0  0  0  0  0  0  0  0  0  0  0  0
   67.7146   45.7396   51.8143 C   0  0  0  0  0  0  0  0  0  0  0  0
   67.5297   45.3607   53.1201 C   0  0  0  0  0  0  0  0  0  0  0  0
   68.0510   46.0760   54.1575 N   0  0  0  0  0  0  0  0  0  0  0  0
   68.7648   47.1837   53.8632 C   0  0  0  0  0  0  0  0  0  0  0  0
   70.2349   45.5959   58.0793 C   0  0  0  0  0  0  0  0  0  0  0  0
   70.6923   43.1829   57.6380 N   0  0  0  0  0  0  0  0  0  0  0  0
   70.2419   44.1916   58.5321 C   0  0  0  0  0  0  0  0  0  0  0  0
   69.8544   43.8674   59.7038 O   0  0  0  0  0  0  0  0  0  0  0  0
   70.8517   37.6376   59.0578 C   0  0  0  0  0  0  0  0  0  0  0  0
   70.8126   39.0864   58.6871 C   0  0  0  0  0  0  0  0  0  0  0  0
   69.6315   39.6618   58.3325 C   0  0  0  0  0  0  0  0  0  0  0  0
   69.6117   40.9990   57.9938 C   0  0  0  0  0  0  0  0  0  0  0  0
   70.7334   41.7999   57.9919 C   0  0  0  0  0  0  0  0  0  0  0  0
   71.9258   41.2014   58.3541 C   0  0  0  0  0  0  0  0  0  0  0  0
   73.1970   41.9466   58.3928 C   0  0  0  0  0  0  0  0  0  0  0  0
   71.9652   39.8479   58.7008 C   0  0  0  0  0  0  0  0  0  0  0  0
 19 20  1  0
 20 21  2  0
 20 26  1  0
 21 22  1  0
 22 23  2  0
 23 16  1  0
 23 24  1  0
 16 17  1  0
 17 18  2  0
 17 15  1  0
 15  1  1  0
  1  2  1  0
  2  3  2  0
  2  4  2  0
  2  5  1  0
  5  6  2  0
  5 14  1  0
  6  7  1  0
  7  8  2  0
  8  9  1  0
  9 10  1  0
  9 14  2  0
 10 11  2  0
 11 12  1  0
 12 13  2  0
 13 14  1  0
 24 25  1  0
 24 26  2  0
M  END
>  <minimizedAffinity>  (641) 
-8.82051

$$$$
data/reference_output_2/data/smiles/144713.pdb
     RDKit          3D

 28 31  0  0  0  0  0  0  0  0999 V2000
   69.6793   40.3020   58.8578 N   0  0  0  0  0  0  0  0  0  0  0  0
   68.3956   40.6582   58.2901 C   0  0  0  0  0  0  0  0  0  0  0  0
   68.6894   41.6383   57.1436 C   0  0  0  0  0  0  0  0  0  0  0  0
   69.3551   42.8290   57.6747 C   0  0  0  0  0  0  0  0  0  0  0  0
   69.3573   44.1540   57.2955 C   0  0  0  0  0  0  0  0  0  0  0  0
   70.1805   44.7720   58.2133 N   0  0  0  0  0  0  0  0  0  0  0  0
   70.6410   43.9031   59.0733 N   0  0  0  0  0  0  0  0  0  0  0  0
   70.1627   42.6931   58.7840 C   0  0  0  0  0  0  0  0  0  0  0  0
   70.3744   41.4056   59.4472 C   0  0  0  0  0  0  0  0  0  0  0  0
   71.0869   41.2370   60.4373 O   0  0  0  0  0  0  0  0  0  0  0  0
   72.0518   35.0647   58.8789 C   0  0  0  0  0  0  0  0  0  0  0  0
   71.4221   36.4151   58.8808 C   0  0  0  0  0  0  0  0  0  0  0  0
   71.9314   37.4102   58.0854 C   0  0  0  0  0  0  0  0  0  0  0  0
   71.3571   38.6836   58.0719 C   0  0  0  0  0  0  0  0  0  0  0  0
   70.2639   39.0161   58.8412 C   0  0  0  0  0  0  0  0  0  0  0  0
   69.7711   38.0002   59.6302 C   0  0  0  0  0  0  0  0  0  0  0  0
   70.3370   36.7173   59.6541 C   0  0  0  0  0  0  0  0  0  0  0  0
   68.7020   44.8419   56.2476 N   0  0  0  0  0  0  0  0  0  0  0  0
   68.6103   46.4760   55.8972 S   0  0  0  0  0  0  0  0  0  0  0  0
   69.8857   47.1690   56.4178 O   0  0  0  0  0  0  0  0  0  0  0  0
   67.5116   47.2320   56.6003 O   0  0  0  0  0  0  0  0  0  0  0  0
   68.6402   46.7667   54.1777 C   0  0  0  0  0  0  0  0  0  0  0  0
   67.8637   45.8960   53.4087 C   0  0  0  0  0  0  0  0  0  0  0  0
   67.8034   45.9702   52.0356 C   0  0  0  0  0  0  0  0  0  0  0  0
   68.5359   46.9419   51.3803 C   0  0  0  0  0  0  0  0  0  0  0  0
   69.3028   47.7992   52.1564 C   0  0  0  0  0  0  0  0  0  0  0  0
   70.0119   48.7452   51.4679 F   0  0  0  0  0  0  0  0  0  0  0  0
   69.3515   47.7109   53.5273 C   0  0  0  0  0  0  0  0  0  0  0  0
 11 12  1  0
 12 13  2  0
 12 17  1  0
 13 14  1  0
 14 15  2  0
 15  1  1  0
 15 16  1  0
  1  2  1  0
  1  9  1  0
  2  3  1  0
  3  4  1  0
  4  5  1  0
  4  8  2  0
  5 18  1  0
  5  6  2  0
 18 19  1  0
 19 20  2  0
 19 21  2  0
 19 22  1  0
 22 23  2  0
 22 28  1  0
 23 24  1  0
 24 25  2  0
 25 26  1  0
 26 27  1  0
 26 28  2  0
  6  7  1  0
  7  8  1  0
  8  9  1  0
  9 10  2  0
 16 17  2  0
M  END
>  <minimizedAffinity>  (642) 
-9.21909

$$$$
data/reference_output_2/data/smiles/144795.pdb
     RDKit          3D

 25 27  0  0  0  0  0  0  0  0999 V2000
   70.0495   51.3200   54.0635 C   0  0  0  0  0  0  0  0  0  0  0  0
   70.7214   50.0608   53.6657 C   0  0  0  0  0  0  0  0  0  0  0  0
   72.0029   49.9840   53.7806 N   0  0  0  0  0  0  0  0  0  0  0  0
   69.9364   48.9422   53.1584 C   0  0  0  0  0  0  0  0  0  0  0  0
   69.4271   47.9706   54.0186 C   0  0  0  0  0  0  0  0  0  0  0  0
   68.6852   46.9118   53.5349 C   0  0  0  0  0  0  0  0  0  0  0  0
   68.1669   45.9324   54.3616 C   0  0  0  0  0  0  0  0  0  0  0  0
   67.4245   44.8760   53.8752 C   0  0  0  0  0  0  0  0  0  0  0  0
   67.1793   44.7737   52.5216 C   0  0  0  0  0  0  0  0  0  0  0  0
   67.6932   45.7487   51.6918 C   0  0  0  0  0  0  0  0  0  0  0  0
   68.4430   46.8161   52.1807 C   0  0  0  0  0  0  0  0  0  0  0  0
   68.9271   47.7374   51.3822 O   0  0  0  0  0  0  0  0  0  0  0  0
   69.6463   48.7662   51.8245 C   0  0  0  0  0  0  0  0  0  0  0  0
   70.0835   49.6199   51.0019 O   0  0  0  0  0  0  0  0  0  0  0  0
   72.7462   51.0637   54.2688 N   0  0  0  0  0  0  0  0  0  0  0  0
   74.1374   50.7249   55.2256 S   0  0  0  0  0  0  0  0  0  0  0  0
   74.9090   51.9674   55.5416 O   0  0  0  0  0  0  0  0  0  0  0  0
   75.0843   49.8161   54.4589 O   0  0  0  0  0  0  0  0  0  0  0  0
   73.7136   49.9322   56.7229 C   0  0  0  0  0  0  0  0  0  0  0  0
   74.5090   48.8960   57.1565 C   0  0  0  0  0  0  0  0  0  0  0  0
   74.1780   48.2567   58.3520 C   0  0  0  0  0  0  0  0  0  0  0  0
   73.0779   48.6534   59.0868 C   0  0  0  0  0  0  0  0  0  0  0  0
   72.7649   47.9505   60.3440 C   0  0  0  0  0  0  0  0  0  0  0  0
   72.2977   49.6941   58.6313 C   0  0  0  0  0  0  0  0  0  0  0  0
   72.6126   50.3282   57.4605 C   0  0  0  0  0  0  0  0  0  0  0  0
  1  2  1  0
  2  3  2  0
  2  4  1  0
  3 15  1  0
 15 16  1  0
 16 17  2  0
 16 18  2  0
 16 19  1  0
 19 20  2  0
 19 25  1  0
 20 21  1  0
 21 22  2  0
 22 23  1  0
 22 24  1  0
 24 25  2  0
  4  5  2  0
  4 13  1  0
  5  6  1  0
  6  7  2  0
  6 11  1  0
  7  8  1  0
  8  9  2  0
  9 10  1  0
 10 11  2  0
 11 12  1  0
 12 13  1  0
 13 14  2  0
M  END
>  <minimizedAffinity>  (643) 
-8.73966

$$$$
data/reference_output_2/data/smiles/144856.pdb
     RDKit          3D

 27 30  0  0  0  0  0  0  0  0999 V2000
   70.5035   46.5467   58.2673 C   0  0  0  0  0  0  0  0  0  0  0  0
   70.8811   47.5463   59.1421 N   0  0  0  0  0  0  0  0  0  0  0  0
   70.6819   48.7186   58.6058 N   0  0  0  0  0  0  0  0  0  0  0  0
   70.1693   48.5970   57.3678 C   0  0  0  0  0  0  0  0  0  0  0  0
   69.7761   49.4858   56.3971 C   0  0  0  0  0  0  0  0  0  0  0  0
   69.2586   49.0612   55.1929 C   0  0  0  0  0  0  0  0  0  0  0  0
   69.1327   47.7322   54.9553 C   0  0  0  0  0  0  0  0  0  0  0  0
   69.5428   46.8370   55.9603 C   0  0  0  0  0  0  0  0  0  0  0  0
   70.0587   47.2183   57.1595 C   0  0  0  0  0  0  0  0  0  0  0  0
   68.5793   47.1422   53.7476 C   0  0  0  0  0  0  0  0  0  0  0  0
   67.5598   46.1980   53.8120 C   0  0  0  0  0  0  0  0  0  0  0  0
   67.0573   45.6196   52.7096 N   0  0  0  0  0  0  0  0  0  0  0  0
   67.5021   45.9102   51.4784 C   0  0  0  0  0  0  0  0  0  0  0  0
   68.5067   46.8344   51.3570 C   0  0  0  0  0  0  0  0  0  0  0  0
   69.0504   47.4575   52.5000 C   0  0  0  0  0  0  0  0  0  0  0  0
   70.1080   48.4748   52.2913 C   0  0  0  0  0  0  0  0  0  0  0  0
   70.5686   48.4578   50.9713 O   0  0  0  0  0  0  0  0  0  0  0  0
   70.7449   44.7846   59.8078 O   0  0  0  0  0  0  0  0  0  0  0  0
   70.5760   45.1312   58.5761 C   0  0  0  0  0  0  0  0  0  0  0  0
   70.4888   44.0535   57.6880 N   0  0  0  0  0  0  0  0  0  0  0  0
   70.5699   42.6792   58.1516 C   0  0  0  0  0  0  0  0  0  0  0  0
   69.2261   42.0073   58.0005 C   0  0  0  0  0  0  0  0  0  0  0  0
   69.3785   40.5224   58.1449 C   0  0  0  0  0  0  0  0  0  0  0  0
   68.2316   39.7500   57.5787 C   0  0  0  0  0  0  0  0  0  0  0  0
   67.7371   40.2492   56.3860 O   0  0  0  0  0  0  0  0  0  0  0  0
   67.3404   41.5815   56.5039 C   0  0  0  0  0  0  0  0  0  0  0  0
   68.5698   42.4107   56.6870 C   0  0  0  0  0  0  0  0  0  0  0  0
 18 19  2  0
 19 20  1  0
 19  1  1  0
 20 21  1  0
 21 22  1  0
 22 23  1  0
 22 27  1  0
 23 24  1  0
 24 25  1  0
 25 26  1  0
 26 27  1  0
  1  2  2  0
  1  9  1  0
  2  3  1  0
  3  4  1  0
  4  5  1  0
  4  9  2  0
  5  6  2  0
  6  7  1  0
  7 10  1  0
  7  8  2  0
 10 11  2  0
 10 15  1  0
 11 12  1  0
 12 13  2  0
 13 14  1  0
 14 15  2  0
 15 16  1  0
 16 17  1  0
  8  9  1  0
M  END
>  <minimizedAffinity>  (644) 
-8.84116

$$$$
data/reference_output_2/data/smiles/144871.pdb
     RDKit          3D

 22 24  0  0  0  0  0  0  0  0999 V2000
   70.3087   50.0571   54.9427 N   0  0  0  0  0  0  0  0  0  0  0  0
   70.4093   49.1836   53.9497 C   0  0  0  0  0  0  0  0  0  0  0  0
   71.6056   49.4420   53.3624 N   0  0  0  0  0  0  0  0  0  0  0  0
   72.2339   50.4316   53.9524 N   0  0  0  0  0  0  0  0  0  0  0  0
   71.4284   50.8254   54.9470 C   0  0  0  0  0  0  0  0  0  0  0  0
   71.6749   51.7590   55.7538 O   0  0  0  0  0  0  0  0  0  0  0  0
   69.4875   48.1327   53.5199 C   0  0  0  0  0  0  0  0  0  0  0  0
   68.7284   47.3695   54.3597 C   0  0  0  0  0  0  0  0  0  0  0  0
   67.8758   46.3664   53.8615 C   0  0  0  0  0  0  0  0  0  0  0  0
   67.7589   46.1005   52.5250 C   0  0  0  0  0  0  0  0  0  0  0  0
   66.9060   45.1035   52.0798 O   0  0  0  0  0  0  0  0  0  0  0  0
   68.5208   46.8662   51.6716 C   0  0  0  0  0  0  0  0  0  0  0  0
   69.3551   47.8471   52.1563 C   0  0  0  0  0  0  0  0  0  0  0  0
   70.1278   48.6231   51.2883 O   0  0  0  0  0  0  0  0  0  0  0  0
   69.2224   49.4477   57.0397 C   0  0  0  0  0  0  0  0  0  0  0  0
   68.1592   49.6406   57.9199 C   0  0  0  0  0  0  0  0  0  0  0  0
   67.1725   50.5674   57.6861 C   0  0  0  0  0  0  0  0  0  0  0  0
   67.2274   51.3374   56.5475 C   0  0  0  0  0  0  0  0  0  0  0  0
   68.2537   51.1650   55.6792 C   0  0  0  0  0  0  0  0  0  0  0  0
   69.2572   50.2308   55.9045 C   0  0  0  0  0  0  0  0  0  0  0  0
   71.2187   48.8956   58.3954 C   0  0  0  0  0  0  0  0  0  0  0  0
   70.2636   48.4272   57.3430 C   0  0  0  0  0  0  0  0  0  0  0  0
 21 22  1  0
 22 15  1  0
 15 16  2  0
 15 20  1  0
 16 17  1  0
 17 18  2  0
 18 19  1  0
 19 20  2  0
 20  1  1  0
  1  2  1  0
  1  5  1  0
  2  7  1  0
  2  3  2  0
  7  8  2  0
  7 13  1  0
  8  9  1  0
  9 10  2  0
 10 11  1  0
 10 12  1  0
 12 13  2  0
 13 14  1  0
  3  4  1  0
  4  5  1  0
  5  6  2  0
M  END
>  <minimizedAffinity>  (645) 
-8.63050

$$$$
data/reference_output_2/data/smiles/144962.pdb
     RDKit          3D

 29 31  0  0  0  0  0  0  0  0999 V2000
   69.8163   43.2784   57.8801 C   0  0  0  0  0  0  0  0  0  0  0  0
   71.1511   42.5452   57.8321 C   0  0  0  0  0  0  0  0  0  0  0  0
   70.9266   41.2828   58.6704 C   0  0  0  0  0  0  0  0  0  0  0  0
   69.9234   40.4482   58.0450 N   0  0  0  0  0  0  0  0  0  0  0  0
   68.6701   41.1423   57.8591 C   0  0  0  0  0  0  0  0  0  0  0  0
   68.8636   42.4340   57.0652 C   0  0  0  0  0  0  0  0  0  0  0  0
   70.9271   45.3546   57.6279 O   0  0  0  0  0  0  0  0  0  0  0  0
   69.9369   44.6560   57.3590 C   0  0  0  0  0  0  0  0  0  0  0  0
   68.8993   45.1775   56.5397 N   0  0  0  0  0  0  0  0  0  0  0  0
   68.8712   46.4857   55.9695 C   0  0  0  0  0  0  0  0  0  0  0  0
   68.5896   46.4101   54.5171 C   0  0  0  0  0  0  0  0  0  0  0  0
   69.0882   47.4166   53.6866 C   0  0  0  0  0  0  0  0  0  0  0  0
   68.8468   47.3948   52.3314 C   0  0  0  0  0  0  0  0  0  0  0  0
   68.1183   46.3803   51.8121 N   0  0  0  0  0  0  0  0  0  0  0  0
   67.6210   45.3929   52.5765 C   0  0  0  0  0  0  0  0  0  0  0  0
   67.8563   45.4026   53.9469 C   0  0  0  0  0  0  0  0  0  0  0  0
   69.6424   39.1049   59.0837 S   0  0  0  0  0  0  0  0  0  0  0  0
   68.2204   38.6191   58.9170 O   0  0  0  0  0  0  0  0  0  0  0  0
   69.8344   39.5242   60.5336 O   0  0  0  0  0  0  0  0  0  0  0  0
   70.7244   37.7702   58.7612 C   0  0  0  0  0  0  0  0  0  0  0  0
   71.7001   37.7860   57.7882 C   0  0  0  0  0  0  0  0  0  0  0  0
   72.5307   36.7063   57.5532 C   0  0  0  0  0  0  0  0  0  0  0  0
   72.3681   35.5683   58.3330 C   0  0  0  0  0  0  0  0  0  0  0  0
   71.4074   35.5008   59.3197 C   0  0  0  0  0  0  0  0  0  0  0  0
   70.6001   36.6099   59.5155 C   0  0  0  0  0  0  0  0  0  0  0  0
   71.2175   34.2869   60.1603 C   0  0  0  0  0  0  0  0  0  0  0  0
   69.9438   34.3111   60.7211 F   0  0  0  0  0  0  0  0  0  0  0  0
   72.1364   34.1865   61.1695 F   0  0  0  0  0  0  0  0  0  0  0  0
   71.3105   33.1775   59.3331 F   0  0  0  0  0  0  0  0  0  0  0  0
  7  8  2  0
  8  9  1  0
  8  1  1  0
  9 10  1  0
 10 11  1  0
 11 12  2  0
 11 16  1  0
 12 13  1  0
 13 14  2  0
 14 15  1  0
 15 16  2  0
  1  2  1  0
  1  6  1  0
  2  3  1  0
  3  4  1  0
  4 17  1  0
  4  5  1  0
 17 18  2  0
 17 19  2  0
 17 20  1  0
 20 21  2  0
 20 25  1  0
 21 22  1  0
 22 23  2  0
 23 24  1  0
 24 26  1  0
 24 25  2  0
 26 27  1  0
 26 28  1  0
 26 29  1  0
  5  6  1  0
M  END
>  <minimizedAffinity>  (646) 
-8.71963

$$$$
data/reference_output_2/data/smiles/145088.pdb
     RDKit          3D

 22 23  0  0  0  0  0  0  0  0999 V2000
   71.4508   46.2621   58.3772 C   0  0  0  0  0  0  0  0  0  0  0  0
   70.8472   47.4631   58.0804 C   0  0  0  0  0  0  0  0  0  0  0  0
   69.7151   47.5242   57.2711 C   0  0  0  0  0  0  0  0  0  0  0  0
   69.1887   46.3571   56.7565 C   0  0  0  0  0  0  0  0  0  0  0  0
   69.8073   45.1767   57.0669 C   0  0  0  0  0  0  0  0  0  0  0  0
   70.9058   45.1526   57.8564 N   0  0  0  0  0  0  0  0  0  0  0  0
   73.8092   46.9059   61.2869 N   0  0  0  0  0  0  0  0  0  0  0  0
   72.6634   46.9277   60.4476 C   0  0  0  0  0  0  0  0  0  0  0  0
   71.6139   47.5764   60.7567 O   0  0  0  0  0  0  0  0  0  0  0  0
   72.6072   46.2293   59.2067 N   0  0  0  0  0  0  0  0  0  0  0  0
   74.6266   46.8745   63.5418 C   0  0  0  0  0  0  0  0  0  0  0  0
   73.8171   47.6348   62.5430 C   0  0  0  0  0  0  0  0  0  0  0  0
   68.0588   46.4477   55.9527 O   0  0  0  0  0  0  0  0  0  0  0  0
   68.2759   46.5606   54.5846 C   0  0  0  0  0  0  0  0  0  0  0  0
   67.6653   45.6697   53.7291 C   0  0  0  0  0  0  0  0  0  0  0  0
   67.8965   45.8015   52.3765 C   0  0  0  0  0  0  0  0  0  0  0  0
   68.7177   46.7985   51.8844 C   0  0  0  0  0  0  0  0  0  0  0  0
   69.3394   47.7020   52.7288 C   0  0  0  0  0  0  0  0  0  0  0  0
   69.0989   47.5579   54.0767 C   0  0  0  0  0  0  0  0  0  0  0  0
   70.2050   48.7535   52.2090 C   0  0  0  0  0  0  0  0  0  0  0  0
   71.2499   49.0194   52.8484 O   0  0  0  0  0  0  0  0  0  0  0  0
   69.9453   49.4695   51.0610 O   0  0  0  0  0  0  0  0  0  0  0  0
 11 12  1  0
 12  7  1  0
  7  8  1  0
  8  9  2  0
  8 10  1  0
 10  1  1  0
  1  2  2  0
  1  6  1  0
  2  3  1  0
  3  4  2  0
  4 13  1  0
  4  5  1  0
 13 14  1  0
 14 15  2  0
 14 19  1  0
 15 16  1  0
 16 17  2  0
 17 18  1  0
 18 20  1  0
 18 19  2  0
 20 21  2  0
 20 22  1  0
  5  6  2  0
M  END
>  <minimizedAffinity>  (647) 
-8.53756

$$$$
data/reference_output_2/data/smiles/145304.pdb
     RDKit          3D

 27 30  0  0  0  0  0  0  0  0999 V2000
   70.6481   45.9343   58.1373 C   0  0  0  0  0  0  0  0  0  0  0  0
   71.5004   46.6909   58.9153 C   0  0  0  0  0  0  0  0  0  0  0  0
   71.4950   48.0748   58.8398 C   0  0  0  0  0  0  0  0  0  0  0  0
   70.6400   48.7320   57.9868 C   0  0  0  0  0  0  0  0  0  0  0  0
   69.7613   47.9990   57.1826 C   0  0  0  0  0  0  0  0  0  0  0  0
   69.8005   46.6358   57.2904 C   0  0  0  0  0  0  0  0  0  0  0  0
   71.7482   43.8877   58.1199 O   0  0  0  0  0  0  0  0  0  0  0  0
   70.6478   44.4792   58.2377 C   0  0  0  0  0  0  0  0  0  0  0  0
   69.4839   43.6960   58.4601 N   0  0  0  0  0  0  0  0  0  0  0  0
   69.5312   42.2394   58.5636 C   0  0  0  0  0  0  0  0  0  0  0  0
   68.6512   41.7315   57.4732 C   0  0  0  0  0  0  0  0  0  0  0  0
   67.9249   42.4020   56.5174 C   0  0  0  0  0  0  0  0  0  0  0  0
   67.2793   41.4333   55.7441 C   0  0  0  0  0  0  0  0  0  0  0  0
   67.5947   40.2464   56.2043 O   0  0  0  0  0  0  0  0  0  0  0  0
   68.4047   40.3750   57.2268 C   0  0  0  0  0  0  0  0  0  0  0  0
   68.8289   48.7763   56.3266 C   0  0  0  0  0  0  0  0  0  0  0  0
   69.3063   48.6444   54.9187 C   0  0  0  0  0  0  0  0  0  0  0  0
   70.1300   49.5917   54.4658 N   0  0  0  0  0  0  0  0  0  0  0  0
   70.5677   49.6545   53.2213 N   0  0  0  0  0  0  0  0  0  0  0  0
   70.1871   48.7311   52.3244 C   0  0  0  0  0  0  0  0  0  0  0  0
   70.6072   48.7968   51.1290 O   0  0  0  0  0  0  0  0  0  0  0  0
   69.3349   47.7230   52.7362 C   0  0  0  0  0  0  0  0  0  0  0  0
   68.8828   47.6673   54.0489 C   0  0  0  0  0  0  0  0  0  0  0  0
   68.0422   46.5751   54.5407 C   0  0  0  0  0  0  0  0  0  0  0  0
   67.7860   45.4875   53.5206 C   0  0  0  0  0  0  0  0  0  0  0  0
   67.6428   46.0448   52.1197 C   0  0  0  0  0  0  0  0  0  0  0  0
   68.9379   46.7252   51.7051 C   0  0  0  0  0  0  0  0  0  0  0  0
  7  8  2  0
  8  9  1  0
  8  1  1  0
  9 10  1  0
 10 11  1  0
 11 12  1  0
 11 15  2  0
 12 13  2  0
 13 14  1  0
 14 15  1  0
  1  2  2  0
  1  6  1  0
  2  3  1  0
  3  4  2  0
  4  5  1  0
  5 16  1  0
  5  6  2  0
 16 17  1  0
 17 18  2  0
 17 23  1  0
 18 19  1  0
 19 20  1  0
 20 21  2  0
 20 22  1  0
 22 23  2  0
 22 27  1  0
 23 24  1  0
 24 25  1  0
 25 26  1  0
 26 27  1  0
M  END
>  <minimizedAffinity>  (648) 
-9.94783

$$$$
data/reference_output_2/data/smiles/145384.pdb
     RDKit          3D

 24 26  0  0  0  0  0  0  0  0999 V2000
   70.7247   46.5680   59.3211 O   0  0  0  0  0  0  0  0  0  0  0  0
   70.8318   45.8188   58.3130 C   0  0  0  0  0  0  0  0  0  0  0  0
   69.8339   46.0318   57.2999 N   0  0  0  0  0  0  0  0  0  0  0  0
   71.8842   44.8213   58.1946 C   0  0  0  0  0  0  0  0  0  0  0  0
   71.6787   43.5257   57.7942 C   0  0  0  0  0  0  0  0  0  0  0  0
   72.7384   42.6130   57.7006 C   0  0  0  0  0  0  0  0  0  0  0  0
   74.0302   42.9770   58.0070 C   0  0  0  0  0  0  0  0  0  0  0  0
   75.0494   42.0950   57.9167 N   0  0  0  0  0  0  0  0  0  0  0  0
   76.3206   42.4271   58.2100 C   0  0  0  0  0  0  0  0  0  0  0  0
   76.5726   43.7376   58.6218 C   0  0  0  0  0  0  0  0  0  0  0  0
   75.5441   44.6426   58.7179 C   0  0  0  0  0  0  0  0  0  0  0  0
   74.2497   44.2821   58.4116 C   0  0  0  0  0  0  0  0  0  0  0  0
   73.1988   45.1720   58.5006 C   0  0  0  0  0  0  0  0  0  0  0  0
   68.8464   46.9629   57.4037 N   0  0  0  0  0  0  0  0  0  0  0  0
   68.2378   47.4566   56.4181 C   0  0  0  0  0  0  0  0  0  0  0  0
   68.4167   47.1828   55.0002 C   0  0  0  0  0  0  0  0  0  0  0  0
   67.8230   46.1920   54.2910 C   0  0  0  0  0  0  0  0  0  0  0  0
   68.0647   46.0158   52.9243 C   0  0  0  0  0  0  0  0  0  0  0  0
   68.9111   46.8362   52.2414 C   0  0  0  0  0  0  0  0  0  0  0  0
   69.5304   47.8600   52.9484 C   0  0  0  0  0  0  0  0  0  0  0  0
   69.2798   48.0117   54.2807 C   0  0  0  0  0  0  0  0  0  0  0  0
   70.4158   48.7230   52.2474 N   0  0  0  0  0  0  0  0  0  0  0  0
   71.5239   49.0023   52.7360 O   0  0  0  0  0  0  0  0  0  0  0  0
   70.0750   49.2536   51.0435 O   0  0  0  0  0  0  0  0  0  0  0  0
  1  2  2  0
  2  3  1  0
  2  4  1  0
  3 14  1  0
 14 15  2  0
 15 16  1  0
 16 17  2  0
 16 21  1  0
 17 18  1  0
 18 19  2  0
 19 20  1  0
 20 22  1  0
 20 21  2  0
 22 23  2  0
 22 24  1  0
  4  5  2  0
  4 13  1  0
  5  6  1  0
  6  7  2  0
  7  8  1  0
  7 12  1  0
  8  9  2  0
  9 10  1  0
 10 11  2  0
 11 12  1  0
 12 13  2  0
M  CHG  2  22   1  24  -1
M  END
>  <minimizedAffinity>  (649) 
-9.25479

$$$$
data/reference_output_2/data/smiles/145416.pdb
     RDKit          3D

 28 32  0  0  0  0  0  0  0  0999 V2000
   71.1918   48.8559   58.0174 C   0  0  0  0  0  0  0  0  0  0  0  0
   71.7224   48.7723   59.3152 C   0  0  0  0  0  0  0  0  0  0  0  0
   71.8013   47.5819   60.0081 C   0  0  0  0  0  0  0  0  0  0  0  0
   71.3595   46.4231   59.4483 C   0  0  0  0  0  0  0  0  0  0  0  0
   70.8336   46.4436   58.1902 C   0  0  0  0  0  0  0  0  0  0  0  0
   70.7601   47.6646   57.5021 C   0  0  0  0  0  0  0  0  0  0  0  0
   72.6133   49.8543   55.4179 O   0  0  0  0  0  0  0  0  0  0  0  0
   71.6271   50.3475   56.0061 C   0  0  0  0  0  0  0  0  0  0  0  0
   70.6769   51.3340   55.4541 C   0  0  1  0  0  0  0  0  0  0  0  0
   69.2920   50.8403   55.2149 C   0  0  1  0  0  0  0  0  0  0  0  0
   68.6555   50.3709   56.4971 C   0  0  0  0  0  0  0  0  0  0  0  0
   68.2492   51.4083   57.2237 C   0  0  0  0  0  0  0  0  0  0  0  0
   68.9405   52.5794   56.5877 C   0  0  2  0  0  0  0  0  0  0  0  0
   68.6012   52.2266   55.1252 C   0  0  0  0  0  0  0  0  0  0  0  0
   70.3980   52.2855   56.6442 C   0  0  1  0  0  0  0  0  0  0  0  0
   70.6488   51.3568   57.8079 C   0  0  0  0  0  0  0  0  0  0  0  0
   70.4270   51.6945   58.9821 O   0  0  0  0  0  0  0  0  0  0  0  0
   71.1513   50.1081   57.3456 N   0  0  0  0  0  0  0  0  0  0  0  0
   70.2095   47.5739   56.2425 O   0  0  0  0  0  0  0  0  0  0  0  0
   68.8239   46.6298   55.9278 S   0  0  0  0  0  0  0  0  0  0  0  0
   68.9955   45.2093   56.3800 O   0  0  0  0  0  0  0  0  0  0  0  0
   67.6390   47.2229   56.6052 O   0  0  0  0  0  0  0  0  0  0  0  0
   68.5309   46.5608   54.1895 C   0  0  0  0  0  0  0  0  0  0  0  0
   69.1180   47.4867   53.3563 C   0  0  0  0  0  0  0  0  0  0  0  0
   68.8721   47.4109   51.9958 C   0  0  0  0  0  0  0  0  0  0  0  0
   68.0582   46.4319   51.4869 C   0  0  0  0  0  0  0  0  0  0  0  0
   67.4707   45.5081   52.3113 C   0  0  0  0  0  0  0  0  0  0  0  0
   67.7213   45.5911   53.6604 C   0  0  0  0  0  0  0  0  0  0  0  0
  7  8  2  0
  9  8  1  1
  8 18  1  0
  9 10  1  0
  9 15  1  0
 10 11  1  1
 10 14  1  0
 11 12  2  0
 13 12  1  1
 13 14  1  0
 13 15  1  0
 15 16  1  1
 16 17  2  0
 16 18  1  0
 18  1  1  0
  1  2  2  0
  1  6  1  0
  2  3  1  0
  3  4  2  0
  4  5  1  0
  5  6  2  0
  6 19  1  0
 19 20  1  0
 20 21  2  0
 20 22  2  0
 20 23  1  0
 23 24  2  0
 23 28  1  0
 24 25  1  0
 25 26  2  0
 26 27  1  0
 27 28  2  0
M  END
>  <minimizedAffinity>  (650) 
-8.63969

$$$$
data/reference_output_2/data/smiles/145458.pdb
     RDKit          3D

 30 33  0  0  0  0  0  0  0  0999 V2000
   71.6042   45.4269   58.6630 C   0  0  0  0  0  0  0  0  0  0  0  0
   70.6931   44.7867   57.8487 C   0  0  0  0  0  0  0  0  0  0  0  0
   69.7607   45.4750   57.1032 C   0  0  0  0  0  0  0  0  0  0  0  0
   69.7209   46.8453   57.1601 C   0  0  0  0  0  0  0  0  0  0  0  0
   70.6346   47.4682   57.9758 C   0  0  0  0  0  0  0  0  0  0  0  0
   71.5325   46.7746   58.6909 N   0  0  0  0  0  0  0  0  0  0  0  0
   68.5507   47.7841   56.2345 S   0  0  0  0  0  0  0  0  0  0  0  0
   68.9015   49.2324   56.4399 O   0  0  0  0  0  0  0  0  0  0  0  0
   67.1943   47.5485   56.8014 O   0  0  0  0  0  0  0  0  0  0  0  0
   68.6388   47.3703   54.5429 C   0  0  0  0  0  0  0  0  0  0  0  0
   69.4576   48.1216   53.7196 C   0  0  0  0  0  0  0  0  0  0  0  0
   69.5619   47.8365   52.3655 C   0  0  0  0  0  0  0  0  0  0  0  0
   70.3564   48.5566   51.5391 F   0  0  0  0  0  0  0  0  0  0  0  0
   68.8225   46.7825   51.8878 C   0  0  0  0  0  0  0  0  0  0  0  0
   68.0000   46.0207   52.6938 C   0  0  0  0  0  0  0  0  0  0  0  0
   67.2806   44.9810   52.1779 F   0  0  0  0  0  0  0  0  0  0  0  0
   67.9009   46.3165   54.0570 C   0  0  0  0  0  0  0  0  0  0  0  0
   72.5995   44.6448   59.4569 C   0  0  0  0  0  0  0  0  0  0  0  0
   74.1748   42.7087   60.4111 O   0  0  0  0  0  0  0  0  0  0  0  0
   73.1324   42.2621   59.8220 C   0  0  0  0  0  0  0  0  0  0  0  0
   72.2642   43.2530   59.2983 N   0  0  0  0  0  0  0  0  0  0  0  0
   72.8814   40.8725   59.7135 N   0  0  0  0  0  0  0  0  0  0  0  0
   71.7533   40.2640   59.0760 C   0  0  0  0  0  0  0  0  0  0  0  0
   72.1495   38.8886   58.7583 C   0  0  0  0  0  0  0  0  0  0  0  0
   71.5583   37.9417   57.9509 C   0  0  0  0  0  0  0  0  0  0  0  0
   72.1614   36.6856   57.8277 C   0  0  0  0  0  0  0  0  0  0  0  0
   73.2974   36.4398   58.5006 N   0  0  0  0  0  0  0  0  0  0  0  0
   73.8867   37.3764   59.3020 C   0  0  0  0  0  0  0  0  0  0  0  0
   73.3148   38.6314   59.4452 C   0  0  0  0  0  0  0  0  0  0  0  0
   73.7177   39.8280   60.2292 C   0  0  0  0  0  0  0  0  0  0  0  0
 19 20  2  0
 20 21  1  0
 20 22  1  0
 21 18  1  0
 18  1  1  0
  1  2  2  0
  1  6  1  0
  2  3  1  0
  3  4  2  0
  4  7  1  0
  4  5  1  0
  7  8  2  0
  7  9  2  0
  7 10  1  0
 10 11  2  0
 10 17  1  0
 11 12  1  0
 12 13  1  0
 12 14  2  0
 14 15  1  0
 15 16  1  0
 15 17  2  0
  5  6  2  0
 22 23  1  0
 22 30  1  0
 23 24  1  0
 24 25  1  0
 24 29  2  0
 25 26  2  0
 26 27  1  0
 27 28  2  0
 28 29  1  0
 29 30  1  0
M  END
>  <minimizedAffinity>  (651) 
-8.74755

$$$$
data/reference_output_2/data/smiles/145519.pdb
     RDKit          3D

 24 26  0  0  0  0  0  0  0  0999 V2000
   72.2810   50.9731   54.9244 C   0  0  2  0  0  0  0  0  0  0  0  0
   70.2079   50.8664   52.8920 O   0  0  0  0  0  0  0  0  0  0  0  0
   70.4953   49.8129   53.5568 C   0  0  0  0  0  0  0  0  0  0  0  0
   71.5030   49.8512   54.5390 N   0  0  0  0  0  0  0  0  0  0  0  0
   69.7280   48.5848   53.2428 C   0  0  0  0  0  0  0  0  0  0  0  0
   68.9473   48.0015   54.2234 C   0  0  0  0  0  0  0  0  0  0  0  0
   68.2257   46.8679   53.9709 C   0  0  0  0  0  0  0  0  0  0  0  0
   68.2329   46.2441   52.7424 C   0  0  0  0  0  0  0  0  0  0  0  0
   67.4890   45.1005   52.5331 O   0  0  0  0  0  0  0  0  0  0  0  0
   69.0039   46.8146   51.7629 C   0  0  0  0  0  0  0  0  0  0  0  0
   69.7459   47.9770   52.0138 C   0  0  0  0  0  0  0  0  0  0  0  0
   73.7394   50.8788   54.6187 C   0  0  0  0  0  0  0  0  0  0  0  0
   74.1527   50.2264   53.6219 O   0  0  0  0  0  0  0  0  0  0  0  0
   74.6759   51.4939   55.4116 O   0  0  0  0  0  0  0  0  0  0  0  0
   72.0206   51.5370   56.2911 C   0  0  0  0  0  0  0  0  0  0  0  0
   70.6147   51.9085   56.5069 C   0  0  0  0  0  0  0  0  0  0  0  0
   70.0210   53.1610   56.2915 C   0  0  0  0  0  0  0  0  0  0  0  0
   68.7144   53.0915   56.5841 N   0  0  0  0  0  0  0  0  0  0  0  0
   68.3989   51.8319   56.9931 C   0  0  0  0  0  0  0  0  0  0  0  0
   67.1958   51.2768   57.4012 C   0  0  0  0  0  0  0  0  0  0  0  0
   67.1398   49.9536   57.7791 C   0  0  0  0  0  0  0  0  0  0  0  0
   68.3206   49.2439   57.7260 C   0  0  0  0  0  0  0  0  0  0  0  0
   69.5239   49.7660   57.3267 C   0  0  0  0  0  0  0  0  0  0  0  0
   69.5703   51.1044   56.9455 C   0  0  0  0  0  0  0  0  0  0  0  0
  2  3  2  0
  3  4  1  0
  3  5  1  0
  4  1  1  0
  1 15  1  1
  1 12  1  0
 15 16  1  0
 16 17  2  0
 16 24  1  0
 17 18  1  0
 18 19  1  0
 19 20  1  0
 19 24  2  0
 20 21  2  0
 21 22  1  0
 22 23  2  0
 23 24  1  0
 12 13  2  0
 12 14  1  0
  5  6  2  0
  5 11  1  0
  6  7  1  0
  7  8  2  0
  8  9  1  0
  8 10  1  0
 10 11  2  0
M  END
>  <minimizedAffinity>  (652) 
-8.81057

$$$$
data/reference_output_2/data/smiles/145537.pdb
     RDKit          3D

 28 31  0  0  0  0  0  0  0  0999 V2000
   72.8232   51.3636   54.4597 S   0  0  0  0  0  0  0  0  0  0  0  0
   73.6572   50.2497   53.8240 O   0  0  0  0  0  0  0  0  0  0  0  0
   73.4708   52.6413   54.0235 O   0  0  0  0  0  0  0  0  0  0  0  0
   73.2689   50.2099   58.6458 C   0  0  0  0  0  0  0  0  0  0  0  0
   73.0428   51.5536   58.4640 C   0  0  0  0  0  0  0  0  0  0  0  0
   72.8981   51.9704   57.2081 C   0  0  0  0  0  0  0  0  0  0  0  0
   72.9685   51.1231   56.1746 C   0  0  0  0  0  0  0  0  0  0  0  0
   73.2691   49.5601   56.9947 S   0  0  0  0  0  0  0  0  0  0  0  0
   73.9260   47.2347   63.2586 O   0  0  0  0  0  0  0  0  0  0  0  0
   73.7980   47.9356   62.2008 C   0  0  0  0  0  0  0  0  0  0  0  0
   74.6987   48.9136   61.8799 C   0  0  0  0  0  0  0  0  0  0  0  0
   74.5361   49.6552   60.7309 C   0  0  0  0  0  0  0  0  0  0  0  0
   73.4705   49.4329   59.8833 C   0  0  0  0  0  0  0  0  0  0  0  0
   72.6029   48.4379   60.2618 C   0  0  0  0  0  0  0  0  0  0  0  0
   72.7572   47.7149   61.3764 N   0  0  0  0  0  0  0  0  0  0  0  0
   71.2524   51.1878   53.8264 N   0  0  0  0  0  0  0  0  0  0  0  0
   70.4490   50.0460   53.8995 C   0  0  0  0  0  0  0  0  0  0  0  0
   70.3023   49.1181   52.8963 C   0  0  0  0  0  0  0  0  0  0  0  0
   69.4958   47.9985   53.0815 C   0  0  0  0  0  0  0  0  0  0  0  0
   69.3485   47.0676   52.0754 C   0  0  0  0  0  0  0  0  0  0  0  0
   69.9581   47.2398   50.9693 O   0  0  0  0  0  0  0  0  0  0  0  0
   68.5691   45.9854   52.2536 N   0  0  0  0  0  0  0  0  0  0  0  0
   67.8935   45.7298   53.3834 C   0  0  0  0  0  0  0  0  0  0  0  0
   68.0209   46.6485   54.4186 C   0  0  0  0  0  0  0  0  0  0  0  0
   68.8163   47.7675   54.2574 C   0  0  0  0  0  0  0  0  0  0  0  0
   68.9621   48.7018   55.2739 C   0  0  0  0  0  0  0  0  0  0  0  0
   69.7565   49.8099   55.0979 C   0  0  0  0  0  0  0  0  0  0  0  0
   69.8456   50.6777   56.1432 F   0  0  0  0  0  0  0  0  0  0  0  0
  9 10  2  0
 10 11  1  0
 10 15  1  0
 11 12  2  0
 12 13  1  0
 13  4  1  0
 13 14  2  0
  4  5  2  0
  4  8  1  0
  5  6  1  0
  6  7  2  0
  7  1  1  0
  7  8  1  0
  1  2  2  0
  1  3  2  0
  1 16  1  0
 16 17  1  0
 17 18  2  0
 17 27  1  0
 18 19  1  0
 19 20  1  0
 19 25  2  0
 20 21  2  0
 20 22  1  0
 22 23  1  0
 23 24  2  0
 24 25  1  0
 25 26  1  0
 26 27  2  0
 27 28  1  0
 14 15  1  0
M  END
>  <minimizedAffinity>  (653) 
-8.81075

$$$$
data/reference_output_2/data/smiles/145592.pdb
     RDKit          3D

 24 26  0  0  0  0  0  0  0  0999 V2000
   70.3415   51.6192   53.2234 O   0  0  0  0  0  0  0  0  0  0  0  0
   70.7545   50.4391   53.5572 C   0  0  0  0  0  0  0  0  0  0  0  0
   71.9119   50.4130   54.3549 N   0  0  0  0  0  0  0  0  0  0  0  0
   70.0136   49.2864   53.0936 C   0  0  0  0  0  0  0  0  0  0  0  0
   69.5671   48.3292   54.0215 C   0  0  0  0  0  0  0  0  0  0  0  0
   68.8630   47.2109   53.6763 C   0  0  0  0  0  0  0  0  0  0  0  0
   68.4231   46.2732   54.5790 C   0  0  0  0  0  0  0  0  0  0  0  0
   67.7204   45.1707   54.1665 C   0  0  0  0  0  0  0  0  0  0  0  0
   67.4324   44.9757   52.8204 C   0  0  0  0  0  0  0  0  0  0  0  0
   67.8829   45.9293   51.9334 C   0  0  0  0  0  0  0  0  0  0  0  0
   68.5964   47.0536   52.3236 C   0  0  0  0  0  0  0  0  0  0  0  0
   69.0041   47.9326   51.4503 O   0  0  0  0  0  0  0  0  0  0  0  0
   69.6968   49.0295   51.7982 C   0  0  0  0  0  0  0  0  0  0  0  0
   70.0299   49.7935   50.8722 O   0  0  0  0  0  0  0  0  0  0  0  0
   72.6095   51.6370   54.7925 C   0  0  0  0  0  0  0  0  0  0  0  0
   72.3644   51.9536   56.2403 C   0  0  0  0  0  0  0  0  0  0  0  0
   71.2173   52.9284   56.4145 C   0  0  0  0  0  0  0  0  0  0  0  0
   70.0300   52.1265   56.8159 C   0  0  0  0  0  0  0  0  0  0  0  0
   68.7883   52.3119   56.2277 C   0  0  0  0  0  0  0  0  0  0  0  0
   67.7200   51.5326   56.6442 C   0  0  0  0  0  0  0  0  0  0  0  0
   67.8953   50.5890   57.6294 C   0  0  0  0  0  0  0  0  0  0  0  0
   66.8293   49.7852   58.0710 O   0  0  0  0  0  0  0  0  0  0  0  0
   69.1258   50.4068   58.2105 C   0  0  0  0  0  0  0  0  0  0  0  0
   70.1623   51.1827   57.7859 C   0  0  0  0  0  0  0  0  0  0  0  0
  1  2  2  0
  2  3  1  0
  2  4  1  0
  3 15  1  0
 15 16  1  0
 16 17  1  0
 17 18  1  0
 18 19  2  0
 18 24  1  0
 19 20  1  0
 20 21  2  0
 21 22  1  0
 21 23  1  0
 23 24  2  0
  4  5  2  0
  4 13  1  0
  5  6  1  0
  6  7  2  0
  6 11  1  0
  7  8  1  0
  8  9  2  0
  9 10  1  0
 10 11  2  0
 11 12  1  0
 12 13  1  0
 13 14  2  0
M  END
>  <minimizedAffinity>  (654) 
-8.64039

$$$$
data/reference_output_2/data/smiles/145652.pdb
     RDKit          3D

 29 33  0  0  0  0  0  0  0  0999 V2000
   68.8756   40.4477   57.8558 C   0  0  0  0  0  0  0  0  0  0  0  0
   67.7118   40.6349   57.1405 C   0  0  0  0  0  0  0  0  0  0  0  0
   67.5022   41.7742   56.3837 C   0  0  0  0  0  0  0  0  0  0  0  0
   68.4592   42.7651   56.3193 C   0  0  0  0  0  0  0  0  0  0  0  0
   69.5736   42.5372   57.0316 N   0  0  0  0  0  0  0  0  0  0  0  0
   69.7722   41.4452   57.7565 N   0  0  0  0  0  0  0  0  0  0  0  0
   68.2624   43.9464   55.5458 N   0  0  0  0  0  0  0  0  0  0  0  0
   68.7125   45.2071   55.9876 C   0  0  0  0  0  0  0  0  0  0  0  0
   69.3016   45.2302   57.1123 O   0  0  0  0  0  0  0  0  0  0  0  0
   68.5438   46.4137   55.2587 N   0  0  0  0  0  0  0  0  0  0  0  0
   67.9116   46.6213   53.9721 C   0  0  0  0  0  0  0  0  0  0  0  0
   68.8201   47.6655   53.3812 C   0  0  0  0  0  0  0  0  0  0  0  0
   69.1008   48.0489   52.0868 C   0  0  0  0  0  0  0  0  0  0  0  0
   70.0086   49.0679   51.8315 C   0  0  0  0  0  0  0  0  0  0  0  0
   70.6254   49.6918   52.8581 N   0  0  0  0  0  0  0  0  0  0  0  0
   70.3735   49.3422   54.1146 C   0  0  0  0  0  0  0  0  0  0  0  0
   69.4681   48.3244   54.4000 C   0  0  0  0  0  0  0  0  0  0  0  0
   68.9867   47.7258   55.6693 C   0  0  0  0  0  0  0  0  0  0  0  0
   68.2020   38.7072   59.3045 O   0  0  0  0  0  0  0  0  0  0  0  0
   69.1265   39.2536   58.6651 C   0  0  0  0  0  0  0  0  0  0  0  0
   70.4185   38.6700   58.7598 N   0  0  0  0  0  0  0  0  0  0  0  0
   70.7567   37.5212   59.5132 C   0  0  0  0  0  0  0  0  0  0  0  0
   71.3627   36.3950   58.7264 C   0  0  2  0  0  0  0  0  0  0  0  0
   71.8761   35.3595   59.7232 C   0  0  0  0  0  0  0  0  0  0  0  0
   73.2608   35.0529   59.2003 C   0  0  1  0  0  0  0  0  0  0  0  0
   73.1124   34.5035   57.8158 C   0  0  0  0  0  0  0  0  0  0  0  0
   72.8035   35.6928   56.9011 C   0  0  0  0  0  0  0  0  0  0  0  0
   72.5559   36.7748   57.9224 C   0  0  2  0  0  0  0  0  0  0  0  0
   73.7187   36.4886   58.8916 C   0  0  0  0  0  0  0  0  0  0  0  0
 19 20  2  0
 20 21  1  0
 20  1  1  0
 21 22  1  0
 23 22  1  1
 23 24  1  0
 23 28  1  0
 25 24  1  6
 25 26  1  0
 25 29  1  0
 26 27  1  0
 28 27  1  6
 28 29  1  0
  1  2  2  0
  1  6  1  0
  2  3  1  0
  3  4  2  0
  4  7  1  0
  4  5  1  0
  7  8  1  0
  8  9  2  0
  8 10  1  0
 10 11  1  0
 10 18  1  0
 11 12  1  0
 12 13  1  0
 12 17  2  0
 13 14  2  0
 14 15  1  0
 15 16  2  0
 16 17  1  0
 17 18  1  0
  5  6  2  0
M  END
>  <minimizedAffinity>  (655) 
-8.81152

$$$$
data/reference_output_2/data/smiles/145719.pdb
     RDKit          3D

 24 25  0  0  0  0  0  0  0  0999 V2000
   68.1049   46.2797   56.1277 O   0  0  0  0  0  0  0  0  0  0  0  0
   69.1281   47.8769   52.9165 C   0  0  0  0  0  0  0  0  0  0  0  0
   68.6757   46.9164   52.0426 C   0  0  0  0  0  0  0  0  0  0  0  0
   68.0369   45.7457   52.4765 C   0  0  0  0  0  0  0  0  0  0  0  0
   67.8553   45.5492   53.8289 C   0  0  0  0  0  0  0  0  0  0  0  0
   68.2925   46.4858   54.7462 C   0  0  0  0  0  0  0  0  0  0  0  0
   68.9126   47.6154   54.2761 C   0  0  0  0  0  0  0  0  0  0  0  0
   69.9110   50.1843   53.3485 N   0  0  0  0  0  0  0  0  0  0  0  0
   69.7881   49.0877   52.4825 C   0  0  0  0  0  0  0  0  0  0  0  0
   70.2589   49.1663   51.3223 O   0  0  0  0  0  0  0  0  0  0  0  0
   71.0382   52.0218   54.0876 C   0  0  0  0  0  0  0  0  0  0  0  0
   70.5156   51.3481   53.0094 O   0  0  0  0  0  0  0  0  0  0  0  0
   69.1780   45.7999   56.8875 C   0  0  0  0  0  0  0  0  0  0  0  0
   69.9442   46.7174   57.5742 C   0  0  0  0  0  0  0  0  0  0  0  0
   71.0214   46.3472   58.3501 C   0  0  0  0  0  0  0  0  0  0  0  0
   71.3132   45.0002   58.4182 C   0  0  0  0  0  0  0  0  0  0  0  0
   70.5488   44.0779   57.7319 C   0  0  0  0  0  0  0  0  0  0  0  0
   69.5001   44.5155   56.9861 N   0  0  0  0  0  0  0  0  0  0  0  0
   70.9046   42.6414   57.8383 C   0  0  0  0  0  0  0  0  0  0  0  0
   71.0318   42.2146   59.1292 F   0  0  0  0  0  0  0  0  0  0  0  0
   69.9701   41.8421   57.1834 F   0  0  0  0  0  0  0  0  0  0  0  0
   72.1089   42.4250   57.1958 F   0  0  0  0  0  0  0  0  0  0  0  0
   71.8559   47.3232   59.0951 C   0  0  0  0  0  0  0  0  0  0  0  0
   71.6253   47.1299   60.5017 N   0  0  0  0  0  0  0  0  0  0  0  0
 11 12  1  0
 12  8  1  0
  8  9  1  0
  9 10  2  0
  9  2  1  0
  2  3  2  0
  2  7  1  0
  3  4  1  0
  4  5  2  0
  5  6  1  0
  6  1  1  0
  6  7  2  0
  1 13  1  0
 13 14  2  0
 13 18  1  0
 14 15  1  0
 15 23  1  0
 15 16  2  0
 23 24  1  0
 16 17  1  0
 17 19  1  0
 17 18  2  0
 19 20  1  0
 19 21  1  0
 19 22  1  0
M  CHG  1  24   1
M  END
>  <minimizedAffinity>  (656) 
-8.67082

$$$$
data/reference_output_2/data/smiles/145782.pdb
     RDKit          3D

 27 29  0  0  0  0  0  0  0  0999 V2000
   68.2168   41.9763   56.6612 C   0  0  0  0  0  0  0  0  0  0  0  0
   67.8248   40.6915   56.9546 C   0  0  0  0  0  0  0  0  0  0  0  0
   68.5367   39.8828   57.8528 C   0  0  0  0  0  0  0  0  0  0  0  0
   69.6674   40.3617   58.4762 C   0  0  0  0  0  0  0  0  0  0  0  0
   70.0583   41.6489   58.1802 C   0  0  0  0  0  0  0  0  0  0  0  0
   69.3701   42.4561   57.3006 C   0  0  0  0  0  0  0  0  0  0  0  0
   67.4522   42.8129   55.7254 C   0  0  0  0  0  0  0  0  0  0  0  0
   67.7944   44.9071   54.3508 C   0  0  0  0  0  0  0  0  0  0  0  0
   67.0717   44.4510   53.4115 O   0  0  0  0  0  0  0  0  0  0  0  0
   68.0104   44.1302   55.5119 N   0  0  0  0  0  0  0  0  0  0  0  0
   69.9970   50.1418   53.6534 C   0  0  0  0  0  0  0  0  0  0  0  0
   69.4323   48.7991   53.8279 N   0  0  0  0  0  0  0  0  0  0  0  0
   69.2989   47.9713   52.7900 C   0  0  0  0  0  0  0  0  0  0  0  0
   68.7689   46.6900   52.9109 C   0  0  0  0  0  0  0  0  0  0  0  0
   68.3602   46.2395   54.1453 C   0  0  0  0  0  0  0  0  0  0  0  0
   68.4961   47.0879   55.2165 C   0  0  0  0  0  0  0  0  0  0  0  0
   68.0997   46.6993   56.5100 O   0  0  0  0  0  0  0  0  0  0  0  0
   69.0279   48.3404   55.0238 C   0  0  0  0  0  0  0  0  0  0  0  0
   69.1448   49.1108   56.0279 O   0  0  0  0  0  0  0  0  0  0  0  0
   70.3865   39.5799   59.3679 O   0  0  0  0  0  0  0  0  0  0  0  0
   70.8747   38.3326   59.0213 C   0  0  0  0  0  0  0  0  0  0  0  0
   71.7665   38.1809   57.9860 C   0  0  0  0  0  0  0  0  0  0  0  0
   72.2556   36.9492   57.6348 C   0  0  0  0  0  0  0  0  0  0  0  0
   71.8654   35.8046   58.3160 C   0  0  0  0  0  0  0  0  0  0  0  0
   72.3312   34.5802   57.9910 F   0  0  0  0  0  0  0  0  0  0  0  0
   70.9716   35.9555   59.3538 C   0  0  0  0  0  0  0  0  0  0  0  0
   70.4756   37.2127   59.7084 C   0  0  0  0  0  0  0  0  0  0  0  0
 11 12  1  0
 12 13  1  0
 12 18  1  0
 13 14  2  0
 14 15  1  0
 15  8  1  0
 15 16  2  0
  8  9  2  0
  8 10  1  0
 10  7  1  0
  7  1  1  0
  1  2  2  0
  1  6  1  0
  2  3  1  0
  3  4  2  0
  4 20  1  0
  4  5  1  0
 20 21  1  0
 21 22  2  0
 21 27  1  0
 22 23  1  0
 23 24  2  0
 24 25  1  0
 24 26  1  0
 26 27  2  0
  5  6  2  0
 16 17  1  0
 16 18  1  0
 18 19  2  0
M  END
>  <minimizedAffinity>  (657) 
-8.51974

$$$$
data/reference_output_2/data/smiles/145806.pdb
     RDKit          3D

 26 27  0  0  0  0  0  0  0  0999 V2000
   67.6861   42.0274   56.7673 S   0  0  0  0  0  0  0  0  0  0  0  0
   67.1974   41.3461   55.5223 O   0  0  0  0  0  0  0  0  0  0  0  0
   66.5509   41.9273   57.7598 O   0  0  0  0  0  0  0  0  0  0  0  0
   69.0627   41.1820   57.4344 C   0  0  0  0  0  0  0  0  0  0  0  0
   69.0181   39.8540   57.7891 C   0  0  0  0  0  0  0  0  0  0  0  0
   67.8474   39.1932   57.5760 F   0  0  0  0  0  0  0  0  0  0  0  0
   70.0961   39.1909   58.3308 C   0  0  0  0  0  0  0  0  0  0  0  0
   70.0104   37.8752   58.6646 F   0  0  0  0  0  0  0  0  0  0  0  0
   71.2764   39.8335   58.5443 C   0  0  0  0  0  0  0  0  0  0  0  0
   72.3588   39.2127   59.0761 F   0  0  0  0  0  0  0  0  0  0  0  0
   71.3554   41.1841   58.1965 C   0  0  0  0  0  0  0  0  0  0  0  0
   72.5315   41.8479   58.4062 F   0  0  0  0  0  0  0  0  0  0  0  0
   70.2603   41.8283   57.6525 C   0  0  0  0  0  0  0  0  0  0  0  0
   70.4242   43.1433   57.3464 F   0  0  0  0  0  0  0  0  0  0  0  0
   68.0416   43.6551   56.3907 N   0  0  0  0  0  0  0  0  0  0  0  0
   67.5504   44.1087   55.1938 N   0  0  0  0  0  0  0  0  0  0  0  0
   69.0923   47.6289   53.5123 C   0  0  0  0  0  0  0  0  0  0  0  0
   68.5113   46.6543   52.7184 C   0  0  0  0  0  0  0  0  0  0  0  0
   68.0215   45.5068   53.2804 C   0  0  0  0  0  0  0  0  0  0  0  0
   68.0944   45.2993   54.6352 C   0  0  0  0  0  0  0  0  0  0  0  0
   68.6769   46.2809   55.4053 C   0  0  0  0  0  0  0  0  0  0  0  0
   69.1813   47.4466   54.8760 C   0  0  0  0  0  0  0  0  0  0  0  0
   71.4132   49.2530   53.1211 N   0  0  0  0  0  0  0  0  0  0  0  0
   69.7264   49.0812   52.7862 S   0  0  0  0  0  0  0  0  0  0  0  0
   68.9305   50.2613   53.2241 O   0  0  0  0  0  0  0  0  0  0  0  0
   69.6139   48.9647   51.2669 O   0  0  0  0  0  0  0  0  0  0  0  0
 23 24  1  0
 24 25  2  0
 24 26  2  0
 24 17  1  0
 17 18  2  0
 17 22  1  0
 18 19  1  0
 19 20  2  0
 20 16  1  0
 20 21  1  0
 16 15  1  0
 15  1  1  0
  1  2  2  0
  1  3  2  0
  1  4  1  0
  4  5  2  0
  4 13  1  0
  5  6  1  0
  5  7  1  0
  7  8  1  0
  7  9  2  0
  9 10  1  0
  9 11  1  0
 11 12  1  0
 11 13  2  0
 13 14  1  0
 21 22  2  0
M  END
>  <minimizedAffinity>  (658) 
-9.48855

$$$$
data/reference_output_2/data/smiles/145858.pdb
     RDKit          3D

 27 30  0  0  0  0  0  0  0  0999 V2000
   69.6609   43.0432   57.3783 C   0  0  0  0  0  0  0  0  0  0  0  0
   68.4970   42.2969   57.2948 C   0  0  0  0  0  0  0  0  0  0  0  0
   68.4966   40.9445   57.5988 C   0  0  0  0  0  0  0  0  0  0  0  0
   69.6279   40.2734   57.9940 C   0  0  0  0  0  0  0  0  0  0  0  0
   69.6767   38.9677   58.2978 N   0  0  0  0  0  0  0  0  0  0  0  0
   70.7901   38.3201   58.6837 C   0  0  0  0  0  0  0  0  0  0  0  0
   71.9581   39.0221   58.7783 N   0  0  0  0  0  0  0  0  0  0  0  0
   71.9340   40.3356   58.4774 C   0  0  0  0  0  0  0  0  0  0  0  0
   73.0074   40.9826   58.5644 O   0  0  0  0  0  0  0  0  0  0  0  0
   70.8056   41.0132   58.0810 C   0  0  0  0  0  0  0  0  0  0  0  0
   70.7907   42.3572   57.7757 C   0  0  0  0  0  0  0  0  0  0  0  0
   73.0225   38.1364   59.2136 C   0  0  0  0  0  0  0  0  0  0  0  0
   72.5507   36.7228   58.8836 C   0  0  0  0  0  0  0  0  0  0  0  0
   71.0382   36.9022   59.0516 C   0  0  0  0  0  0  0  0  0  0  0  0
   70.0249   45.0875   59.2313 O   0  0  0  0  0  0  0  0  0  0  0  0
   69.8668   45.4539   58.0408 C   0  0  0  0  0  0  0  0  0  0  0  0
   69.6798   44.4365   57.0726 N   0  0  0  0  0  0  0  0  0  0  0  0
   69.8665   46.8587   57.6059 C   0  0  0  0  0  0  0  0  0  0  0  0
   68.6897   47.2016   56.8284 N   0  0  0  0  0  0  0  0  0  0  0  0
   69.0190   48.1160   55.7501 C   0  0  0  0  0  0  0  0  0  0  0  0
   68.8014   47.4884   54.4216 C   0  0  0  0  0  0  0  0  0  0  0  0
   67.9925   46.3782   54.3309 C   0  0  0  0  0  0  0  0  0  0  0  0
   67.7522   45.7673   53.1178 C   0  0  0  0  0  0  0  0  0  0  0  0
   68.3495   46.3043   51.9870 C   0  0  0  0  0  0  0  0  0  0  0  0
   69.1628   47.4174   52.0588 C   0  0  0  0  0  0  0  0  0  0  0  0
   69.3962   48.0211   53.2881 C   0  0  0  0  0  0  0  0  0  0  0  0
   70.1942   49.1227   53.4164 F   0  0  0  0  0  0  0  0  0  0  0  0
 15 16  2  0
 16 18  1  0
 16 17  1  0
 18 19  1  0
 19 20  1  0
 20 21  1  0
 21 22  2  0
 21 26  1  0
 22 23  1  0
 23 24  2  0
 24 25  1  0
 25 26  2  0
 26 27  1  0
 17  1  1  0
  1  2  2  0
  1 11  1  0
  2  3  1  0
  3  4  2  0
  4  5  1  0
  4 10  1  0
  5  6  2  0
  6  7  1  0
  6 14  1  0
  7  8  1  0
  7 12  1  0
  8  9  2  0
  8 10  1  0
 10 11  2  0
 12 13  1  0
 13 14  1  0
M  CHG  1  19   1
M  END
>  <minimizedAffinity>  (659) 
-8.66244

$$$$
data/reference_output_2/data/smiles/145907.pdb
     RDKit          3D

 25 27  0  0  0  0  0  0  0  0999 V2000
   67.9164   42.0179   57.2672 C   0  0  0  0  0  0  0  0  0  0  0  0
   67.2579   42.4161   56.0986 C   0  0  0  0  0  0  0  0  0  0  0  0
   67.8118   43.5834   55.6293 C   0  0  0  0  0  0  0  0  0  0  0  0
   68.7876   43.8747   56.5119 N   0  0  0  0  0  0  0  0  0  0  0  0
   68.8496   42.9622   57.4670 N   0  0  0  0  0  0  0  0  0  0  0  0
   67.0763   38.5896   59.5750 C   0  0  0  0  0  0  0  0  0  0  0  0
   68.0141   38.5030   58.5597 C   0  0  0  0  0  0  0  0  0  0  0  0
   68.2626   39.6245   57.8283 C   0  0  0  0  0  0  0  0  0  0  0  0
   67.6273   40.8257   58.0520 C   0  0  0  0  0  0  0  0  0  0  0  0
   66.6924   40.8788   59.0783 C   0  0  0  0  0  0  0  0  0  0  0  0
   66.4079   39.7708   59.8448 C   0  0  0  0  0  0  0  0  0  0  0  0
   65.4986   39.7975   60.8545 F   0  0  0  0  0  0  0  0  0  0  0  0
   65.6578   36.6688   60.0049 C   0  0  0  0  0  0  0  0  0  0  0  0
   66.7967   37.4598   60.3448 O   0  0  0  0  0  0  0  0  0  0  0  0
   67.4275   44.3087   54.4701 N   0  0  0  0  0  0  0  0  0  0  0  0
   67.9998   45.5239   54.0490 C   0  0  0  0  0  0  0  0  0  0  0  0
   68.1078   45.8183   52.7162 C   0  0  0  0  0  0  0  0  0  0  0  0
   68.7046   47.0113   52.2853 C   0  0  0  0  0  0  0  0  0  0  0  0
   69.1961   47.9107   53.2029 C   0  0  0  0  0  0  0  0  0  0  0  0
   69.0888   47.6184   54.5453 C   0  0  0  0  0  0  0  0  0  0  0  0
   68.4896   46.4231   54.9604 C   0  0  0  0  0  0  0  0  0  0  0  0
   69.9657   49.4273   52.7053 S   0  0  0  0  0  0  0  0  0  0  0  0
   69.8321   49.6224   51.0167 N   0  0  0  0  0  0  0  0  0  0  0  0
   69.3638   50.5930   53.4422 O   0  0  0  0  0  0  0  0  0  0  0  0
   71.4288   49.3109   53.0501 O   0  0  0  0  0  0  0  0  0  0  0  0
 13 14  1  0
 14  6  1  0
  6  7  2  0
  6 11  1  0
  7  8  1  0
  8  9  2  0
  9  1  1  0
  9 10  1  0
  1  2  1  0
  1  5  2  0
  2  3  2  0
  3 15  1  0
  3  4  1  0
 15 16  1  0
 16 17  2  0
 16 21  1  0
 17 18  1  0
 18 19  2  0
 19 22  1  0
 19 20  1  0
 22 23  1  0
 22 24  2  0
 22 25  2  0
 20 21  2  0
  4  5  1  0
 10 11  2  0
 11 12  1  0
M  END
>  <minimizedAffinity>  (660) 
-9.21306

$$$$
data/reference_output_2/data/smiles/145922.pdb
     RDKit          3D

 23 24  0  0  0  0  0  0  0  0999 V2000
   68.7073   50.8360   56.4976 C   0  0  0  0  0  0  0  0  0  0  0  0
   67.6681   50.9648   57.4135 C   0  0  0  0  0  0  0  0  0  0  0  0
   66.9830   49.8656   57.9026 C   0  0  0  0  0  0  0  0  0  0  0  0
   67.3056   48.5931   57.4963 C   0  0  0  0  0  0  0  0  0  0  0  0
   68.3279   48.4343   56.5938 C   0  0  0  0  0  0  0  0  0  0  0  0
   69.0090   49.5522   56.1169 C   0  0  0  0  0  0  0  0  0  0  0  0
   68.9222   52.3700   54.5401 C   0  0  0  0  0  0  0  0  0  0  0  0
   69.4039   51.9842   55.8930 C   0  0  2  0  0  0  0  0  0  0  0  0
   70.8898   51.7287   55.9141 C   0  0  0  0  0  0  0  0  0  0  0  0
   71.5058   51.9449   56.9643 O   0  0  0  0  0  0  0  0  0  0  0  0
   71.6077   51.2485   54.8013 N   0  0  0  0  0  0  0  0  0  0  0  0
   73.3160   50.9471   54.7905 S   0  0  0  0  0  0  0  0  0  0  0  0
   74.2266   52.4378   54.9603 C   0  0  0  0  0  0  0  0  0  0  0  0
   73.6192   50.0033   55.9315 O   0  0  0  0  0  0  0  0  0  0  0  0
   73.7250   50.2413   53.5179 O   0  0  0  0  0  0  0  0  0  0  0  0
   68.6275   47.1387   55.9933 C   0  0  0  0  0  0  0  0  0  0  0  0
   68.9849   46.1941   56.7008 O   0  0  0  0  0  0  0  0  0  0  0  0
   68.4737   47.0202   54.5632 C   0  0  0  0  0  0  0  0  0  0  0  0
   67.7890   46.0261   53.9563 C   0  0  0  0  0  0  0  0  0  0  0  0
   67.8385   45.8399   52.5987 C   0  0  0  0  0  0  0  0  0  0  0  0
   68.6158   46.6972   51.8146 C   0  0  0  0  0  0  0  0  0  0  0  0
   69.3152   47.7100   52.4166 C   0  0  0  0  0  0  0  0  0  0  0  0
   69.2515   47.8796   53.7710 C   0  0  0  0  0  0  0  0  0  0  0  0
  8  7  1  6
  8  9  1  0
  8  1  1  0
  9 10  2  0
  9 11  1  0
 11 12  1  0
 12 13  1  0
 12 14  2  0
 12 15  2  0
  1  2  2  0
  1  6  1  0
  2  3  1  0
  3  4  2  0
  4  5  1  0
  5 16  1  0
  5  6  2  0
 16 17  2  0
 16 18  1  0
 18 19  2  0
 18 23  1  0
 19 20  1  0
 20 21  2  0
 21 22  1  0
 22 23  2  0
M  END
>  <minimizedAffinity>  (661) 
-8.81587

$$$$
data/reference_output_2/data/smiles/146134.pdb
     RDKit          3D

 26 27  0  0  0  0  0  0  0  0999 V2000
   67.9893   42.2472   56.7184 C   0  0  0  0  0  0  0  0  0  0  0  0
   68.2112   41.9211   57.9690 C   0  0  0  0  0  0  0  0  0  0  0  0
   67.8214   40.7095   58.6614 C   0  0  0  0  0  0  0  0  0  0  0  0
   66.5690   40.4498   59.1699 C   0  0  0  0  0  0  0  0  0  0  0  0
   66.3298   39.2424   59.7818 C   0  0  0  0  0  0  0  0  0  0  0  0
   67.3304   38.2905   59.8906 C   0  0  0  0  0  0  0  0  0  0  0  0
   67.0589   37.1180   60.4964 F   0  0  0  0  0  0  0  0  0  0  0  0
   68.5953   38.5409   59.3836 C   0  0  0  0  0  0  0  0  0  0  0  0
   68.8237   39.7437   58.7773 C   0  0  0  0  0  0  0  0  0  0  0  0
   70.4462   40.0363   58.1391 Cl  0  0  0  0  0  0  0  0  0  0  0  0
   65.9161   41.6901   55.3909 C   0  0  0  0  0  0  0  0  0  0  0  0
   67.2719   41.2987   55.8824 C   0  0  0  0  0  0  0  0  0  0  0  0
   67.6959   40.1779   55.5375 O   0  0  0  0  0  0  0  0  0  0  0  0
   68.4509   43.5410   56.1652 C   0  0  0  0  0  0  0  0  0  0  0  0
   69.5524   44.0572   56.5464 O   0  0  0  0  0  0  0  0  0  0  0  0
   67.7497   44.2996   55.2039 N   0  0  0  0  0  0  0  0  0  0  0  0
   68.2723   45.5515   54.7187 C   0  0  0  0  0  0  0  0  0  0  0  0
   68.7417   46.5593   55.5244 C   0  0  0  0  0  0  0  0  0  0  0  0
   69.2342   47.7442   55.0109 C   0  0  0  0  0  0  0  0  0  0  0  0
   69.2686   47.9519   53.6440 C   0  0  0  0  0  0  0  0  0  0  0  0
   68.8046   46.9571   52.8256 C   0  0  0  0  0  0  0  0  0  0  0  0
   68.3112   45.7676   53.3644 C   0  0  0  0  0  0  0  0  0  0  0  0
   69.8980   49.4661   53.0012 S   0  0  0  0  0  0  0  0  0  0  0  0
   69.8121   49.4802   51.2657 N   0  0  0  0  0  0  0  0  0  0  0  0
   68.9711   50.5653   53.4811 O   0  0  0  0  0  0  0  0  0  0  0  0
   71.2952   49.7105   53.4863 O   0  0  0  0  0  0  0  0  0  0  0  0
 11 12  1  0
 12 13  2  0
 12  1  1  0
  1  2  2  0
  1 14  1  0
  2  3  1  0
  3  4  2  0
  3  9  1  0
  4  5  1  0
  5  6  2  0
  6  7  1  0
  6  8  1  0
  8  9  2  0
  9 10  1  0
 14 15  2  0
 14 16  1  0
 16 17  1  0
 17 18  2  0
 17 22  1  0
 18 19  1  0
 19 20  2  0
 20 23  1  0
 20 21  1  0
 23 24  1  0
 23 25  2  0
 23 26  2  0
 21 22  2  0
M  END
>  <minimizedAffinity>  (662) 
-8.70265

$$$$
data/reference_output_2/data/smiles/146167.pdb
     RDKit          3D

 30 34  0  0  0  0  0  0  0  0999 V2000
   70.2958   42.1310   58.5457 N   0  0  0  0  0  0  0  0  0  0  0  0
   70.8910   43.0839   59.4618 C   0  0  0  0  0  0  0  0  0  0  0  0
   71.3406   44.3365   58.7790 C   0  0  0  0  0  0  0  0  0  0  0  0
   70.3919   44.9018   57.8137 C   0  0  0  0  0  0  0  0  0  0  0  0
   70.1648   46.1160   57.2732 N   0  0  0  0  0  0  0  0  0  0  0  0
   69.1379   46.0736   56.4056 C   0  0  0  0  0  0  0  0  0  0  0  0
   68.6953   44.8047   56.3864 N   0  0  0  0  0  0  0  0  0  0  0  0
   69.4504   44.0821   57.2395 C   0  0  0  0  0  0  0  0  0  0  0  0
   69.3883   42.6712   57.6006 C   0  0  0  0  0  0  0  0  0  0  0  0
   68.5312   41.9423   57.0716 O   0  0  0  0  0  0  0  0  0  0  0  0
   69.1836   37.9768   60.8283 C   0  0  0  0  0  0  0  0  0  0  0  0
   70.0636   38.5948   59.8597 N   0  0  0  0  0  0  0  0  0  0  0  0
   69.9139   39.9960   59.6526 C   0  0  0  0  0  0  0  0  0  0  0  0
   69.0992   40.5448   60.4365 O   0  0  0  0  0  0  0  0  0  0  0  0
   70.6279   40.7684   58.6285 C   0  0  2  0  0  0  0  0  0  0  0  0
   72.1262   40.5359   58.8863 C   0  0  0  0  0  0  0  0  0  0  0  0
   72.5540   39.3320   58.2287 O   0  0  0  0  0  0  0  0  0  0  0  0
   72.1130   38.0204   58.4931 C   0  0  0  0  0  0  0  0  0  0  0  0
   72.9093   37.0546   57.9470 C   0  0  0  0  0  0  0  0  0  0  0  0
   72.5692   35.7166   58.1444 C   0  0  0  0  0  0  0  0  0  0  0  0
   71.4541   35.3643   58.8752 C   0  0  0  0  0  0  0  0  0  0  0  0
   70.6568   36.3490   59.4227 C   0  0  0  0  0  0  0  0  0  0  0  0
   70.9864   37.6752   59.2311 C   0  0  0  0  0  0  0  0  0  0  0  0
   68.6289   47.2501   55.6340 C   0  0  0  0  0  0  0  0  0  0  0  0
   68.5350   46.9552   54.1919 C   0  0  0  0  0  0  0  0  0  0  0  0
   69.2841   47.6995   53.3111 C   0  0  0  0  0  0  0  0  0  0  0  0
   69.2243   47.4546   51.9564 C   0  0  0  0  0  0  0  0  0  0  0  0
   68.3861   46.4337   51.4967 C   0  0  0  0  0  0  0  0  0  0  0  0
   67.6262   45.6758   52.3674 C   0  0  0  0  0  0  0  0  0  0  0  0
   67.7004   45.9372   53.7199 C   0  0  0  0  0  0  0  0  0  0  0  0
 11 12  1  0
 12 13  1  0
 12 23  1  0
 13 14  2  0
 13 15  1  0
 15  1  1  1
 15 16  1  0
  1  2  1  0
  1  9  1  0
  2  3  1  0
  3  4  1  0
  4  5  1  0
  4  8  2  0
  5  6  1  0
  6 24  1  0
  6  7  2  0
 24 25  1  0
 25 26  2  0
 25 30  1  0
 26 27  1  0
 27 28  2  0
 28 29  1  0
 29 30  2  0
  7  8  1  0
  8  9  1  0
  9 10  2  0
 16 17  1  0
 17 18  1  0
 18 19  2  0
 18 23  1  0
 19 20  1  0
 20 21  2  0
 21 22  1  0
 22 23  2  0
M  CHG  1   7   1
M  END
>  <minimizedAffinity>  (663) 
-9.02527

$$$$
data/reference_output_2/data/smiles/146206.pdb
     RDKit          3D

 26 29  0  0  0  0  0  0  0  0999 V2000
   71.8432   40.6405   59.0696 O   0  0  0  0  0  0  0  0  0  0  0  0
   70.7045   40.6219   58.5270 C   0  0  0  0  0  0  0  0  0  0  0  0
   70.1752   41.8701   57.9930 C   0  0  0  0  0  0  0  0  0  0  0  0
   70.6342   43.1698   57.9237 C   0  0  0  0  0  0  0  0  0  0  0  0
   69.6456   43.8724   57.2918 C   0  0  0  0  0  0  0  0  0  0  0  0
   68.6293   43.0520   56.9876 N   0  0  0  0  0  0  0  0  0  0  0  0
   68.9515   41.8192   57.4170 N   0  0  0  0  0  0  0  0  0  0  0  0
   68.1504   40.6442   57.2966 C   0  0  0  0  0  0  0  0  0  0  0  0
   68.5396   39.5386   58.2251 C   0  0  0  0  0  0  0  0  0  0  0  0
   69.9549   39.4185   58.4370 N   0  0  0  0  0  0  0  0  0  0  0  0
   70.6179   38.1562   58.5565 C   0  0  0  0  0  0  0  0  0  0  0  0
   70.2615   37.2724   59.5552 C   0  0  0  0  0  0  0  0  0  0  0  0
   70.8958   36.0402   59.6855 C   0  0  0  0  0  0  0  0  0  0  0  0
   71.9026   35.6565   58.8253 C   0  0  0  0  0  0  0  0  0  0  0  0
   72.5240   34.4512   58.9512 F   0  0  0  0  0  0  0  0  0  0  0  0
   72.2603   36.5372   57.8266 C   0  0  0  0  0  0  0  0  0  0  0  0
   71.6250   37.7608   57.7013 C   0  0  0  0  0  0  0  0  0  0  0  0
   69.6592   45.3120   56.9792 C   0  0  0  0  0  0  0  0  0  0  0  0
   68.5446   45.7907   56.3013 O   0  0  0  0  0  0  0  0  0  0  0  0
   68.3915   45.9740   54.9551 C   0  0  0  0  0  0  0  0  0  0  0  0
   68.8801   47.1382   54.3623 C   0  0  0  0  0  0  0  0  0  0  0  0
   68.7625   47.3943   53.0140 C   0  0  0  0  0  0  0  0  0  0  0  0
   68.1335   46.4500   52.2332 C   0  0  0  0  0  0  0  0  0  0  0  0
   67.9903   46.6479   50.9032 F   0  0  0  0  0  0  0  0  0  0  0  0
   67.6499   45.2977   52.8194 C   0  0  0  0  0  0  0  0  0  0  0  0
   67.7879   45.0919   54.1397 N   0  0  0  0  0  0  0  0  0  0  0  0
  1  2  2  0
  2  3  1  0
  2 10  1  0
  3  4  2  0
  3  7  1  0
  4  5  1  0
  5 18  1  0
  5  6  2  0
 18 19  1  0
 19 20  1  0
 20 21  2  0
 20 26  1  0
 21 22  1  0
 22 23  2  0
 23 24  1  0
 23 25  1  0
 25 26  2  0
  6  7  1  0
  7  8  1  0
  8  9  1  0
  9 10  1  0
 10 11  1  0
 11 12  2  0
 11 17  1  0
 12 13  1  0
 13 14  2  0
 14 15  1  0
 14 16  1  0
 16 17  2  0
M  END
>  <minimizedAffinity>  (664) 
-8.99537

$$$$
data/reference_output_2/data/smiles/146567.pdb
     RDKit          3D

 26 28  0  0  0  0  0  0  0  0999 V2000
   69.2188   47.7812   55.1444 C   0  0  0  0  0  0  0  0  0  0  0  0
   70.0260   48.8663   54.9971 C   0  0  0  0  0  0  0  0  0  0  0  0
   70.3996   49.3696   53.7576 C   0  0  0  0  0  0  0  0  0  0  0  0
   69.9225   48.7313   52.6093 C   0  0  0  0  0  0  0  0  0  0  0  0
   70.2808   49.2139   51.3600 O   0  0  0  0  0  0  0  0  0  0  0  0
   69.1108   47.6402   52.7320 C   0  0  0  0  0  0  0  0  0  0  0  0
   68.6565   47.0295   51.5821 C   0  0  0  0  0  0  0  0  0  0  0  0
   67.8328   45.9232   51.6337 C   0  0  0  0  0  0  0  0  0  0  0  0
   67.4799   45.4479   52.8742 C   0  0  0  0  0  0  0  0  0  0  0  0
   67.9332   46.0554   54.0172 C   0  0  0  0  0  0  0  0  0  0  0  0
   68.7599   47.1669   53.9959 C   0  0  0  0  0  0  0  0  0  0  0  0
   68.7172   47.1053   56.6635 S   0  0  0  0  0  0  0  0  0  0  0  0
   67.3303   47.6328   57.0067 O   0  0  0  0  0  0  0  0  0  0  0  0
   68.6582   45.6138   56.4922 O   0  0  0  0  0  0  0  0  0  0  0  0
   69.7363   47.4781   57.9593 N   0  0  0  0  0  0  0  0  0  0  0  0
   72.2528   50.7993   58.1271 C   0  0  0  0  0  0  0  0  0  0  0  0
   70.8952   50.9497   58.3129 C   0  0  0  0  0  0  0  0  0  0  0  0
   70.1134   49.8212   58.2463 C   0  0  0  0  0  0  0  0  0  0  0  0
   70.6446   48.5702   58.0053 C   0  0  0  0  0  0  0  0  0  0  0  0
   72.0009   48.4368   57.8223 C   0  0  0  0  0  0  0  0  0  0  0  0
   72.8097   49.5560   57.8835 C   0  0  0  0  0  0  0  0  0  0  0  0
   73.7058   52.9277   58.2403 N   0  0  0  0  0  0  0  0  0  0  0  0
   73.0684   51.9794   58.1966 C   0  0  0  0  0  0  0  0  0  0  0  0
   71.2620   50.5283   53.6232 C   0  0  0  0  0  0  0  0  0  0  0  0
   72.4780   50.4427   53.8724 O   0  0  0  0  0  0  0  0  0  0  0  0
   70.7282   51.7309   53.2149 O   0  0  0  0  0  0  0  0  0  0  0  0
 22 23  3  0
 23 16  1  0
 16 17  2  0
 16 21  1  0
 17 18  1  0
 18 19  2  0
 19 15  1  0
 19 20  1  0
 15 12  1  0
 12 13  2  0
 12 14  2  0
 12  1  1  0
  1  2  2  0
  1 11  1  0
  2  3  1  0
  3 24  1  0
  3  4  2  0
 24 25  2  0
 24 26  1  0
  4  5  1  0
  4  6  1  0
  6  7  1  0
  6 11  2  0
  7  8  2  0
  8  9  1  0
  9 10  2  0
 10 11  1  0
 20 21  2  0
M  END
>  <minimizedAffinity>  (665) 
-8.81294

$$$$
data/reference_output_2/data/smiles/146609.pdb
     RDKit          3D

 20 21  0  0  0  0  0  0  0  0999 V2000
   69.2655   47.7761   52.6873 C   0  0  0  0  0  0  0  0  0  0  0  0
   69.3807   47.7359   54.0806 C   0  0  0  0  0  0  0  0  0  0  0  0
   68.7204   46.8103   54.7948 N   0  0  0  0  0  0  0  0  0  0  0  0
   67.9474   45.9236   54.1544 C   0  0  0  0  0  0  0  0  0  0  0  0
   67.7958   45.9156   52.7817 C   0  0  0  0  0  0  0  0  0  0  0  0
   66.9991   45.0044   52.1031 O   0  0  0  0  0  0  0  0  0  0  0  0
   68.4690   46.8599   52.0477 C   0  0  0  0  0  0  0  0  0  0  0  0
   68.3325   46.8567   50.7796 O   0  0  0  0  0  0  0  0  0  0  0  0
   70.6322   48.4273   50.9097 O   0  0  0  0  0  0  0  0  0  0  0  0
   69.9819   48.7787   51.9193 C   0  0  0  0  0  0  0  0  0  0  0  0
   69.9711   50.1181   52.2673 O   0  0  0  0  0  0  0  0  0  0  0  0
   68.8214   46.7456   56.2369 C   0  0  0  0  0  0  0  0  0  0  0  0
   69.6914   47.8482   56.7931 C   0  0  0  0  0  0  0  0  0  0  0  0
   68.8228   49.0356   57.0224 C   0  0  0  0  0  0  0  0  0  0  0  0
   67.5674   48.8899   57.6002 C   0  0  0  0  0  0  0  0  0  0  0  0
   66.7548   49.9833   57.8164 C   0  0  0  0  0  0  0  0  0  0  0  0
   67.1426   51.2564   57.4746 C   0  0  0  0  0  0  0  0  0  0  0  0
   68.3922   51.4093   56.8989 C   0  0  0  0  0  0  0  0  0  0  0  0
   68.8967   53.0441   56.4567 Cl  0  0  0  0  0  0  0  0  0  0  0  0
   69.2059   50.3155   56.6819 C   0  0  0  0  0  0  0  0  0  0  0  0
  9 10  2  0
 10 11  1  0
 10  1  1  0
  1  2  2  0
  1  7  1  0
  2  3  1  0
  3 12  1  0
  3  4  1  0
 12 13  1  0
 13 14  1  0
 14 15  2  0
 14 20  1  0
 15 16  1  0
 16 17  2  0
 17 18  1  0
 18 19  1  0
 18 20  2  0
  4  5  2  0
  5  6  1  0
  5  7  1  0
  7  8  2  0
M  END
>  <minimizedAffinity>  (666) 
-8.90041

$$$$
data/reference_output_2/data/smiles/146632.pdb
     RDKit          3D

 25 28  0  0  0  0  0  0  0  0999 V2000
   68.7561   40.9222   57.6664 C   0  0  0  0  0  0  0  0  0  0  0  0
   67.7444   40.7541   56.7469 C   0  0  0  0  0  0  0  0  0  0  0  0
   67.3743   41.8321   55.9662 C   0  0  0  0  0  0  0  0  0  0  0  0
   66.4471   41.7307   55.1043 O   0  0  0  0  0  0  0  0  0  0  0  0
   67.9811   43.0413   56.0851 N   0  0  0  0  0  0  0  0  0  0  0  0
   67.7993   44.1944   55.4585 N   0  0  0  0  0  0  0  0  0  0  0  0
   68.6621   45.1077   55.9425 C   0  0  0  0  0  0  0  0  0  0  0  0
   69.3691   44.4592   56.8840 N   0  0  0  0  0  0  0  0  0  0  0  0
   68.9693   43.1785   56.9937 C   0  0  0  0  0  0  0  0  0  0  0  0
   69.3269   42.1253   57.7522 N   0  0  0  0  0  0  0  0  0  0  0  0
   69.1764   39.7666   58.5262 C   0  0  0  0  0  0  0  0  0  0  0  0
   64.6639   37.5159   61.2553 C   0  0  0  0  0  0  0  0  0  0  0  0
   65.8155   38.1187   60.5728 C   0  0  0  0  0  0  0  0  0  0  0  0
   66.2350   39.4130   60.8594 C   0  0  0  0  0  0  0  0  0  0  0  0
   67.3200   39.9638   60.2083 C   0  0  0  0  0  0  0  0  0  0  0  0
   67.9995   39.2386   59.2671 C   0  0  0  0  0  0  0  0  0  0  0  0
   67.5684   37.9571   58.9969 C   0  0  0  0  0  0  0  0  0  0  0  0
   66.4932   37.3802   59.6269 C   0  0  0  0  0  0  0  0  0  0  0  0
   68.8015   46.5436   55.5184 C   0  0  0  0  0  0  0  0  0  0  0  0
   68.6209   46.5992   54.0421 C   0  0  0  0  0  0  0  0  0  0  0  0
   67.7524   45.7820   53.3610 C   0  0  0  0  0  0  0  0  0  0  0  0
   67.6201   45.8718   51.9794 C   0  0  0  0  0  0  0  0  0  0  0  0
   68.3526   46.7812   51.2516 C   0  0  0  0  0  0  0  0  0  0  0  0
   69.2247   47.6024   51.9339 C   0  0  0  0  0  0  0  0  0  0  0  0
   69.3522   47.5083   53.3013 C   0  0  0  0  0  0  0  0  0  0  0  0
 12 13  1  0
 13 14  2  0
 13 18  1  0
 14 15  1  0
 15 16  2  0
 16 11  1  0
 16 17  1  0
 11  1  1  0
  1  2  2  0
  1 10  1  0
  2  3  1  0
  3  4  2  0
  3  5  1  0
  5  6  1  0
  5  9  1  0
  6  7  2  0
  7 19  1  0
  7  8  1  0
 19 20  1  0
 20 21  2  0
 20 25  1  0
 21 22  1  0
 22 23  2  0
 23 24  1  0
 24 25  2  0
  8  9  2  0
  9 10  1  0
 17 18  2  0
M  END
>  <minimizedAffinity>  (667) 
-8.95246

$$$$
data/reference_output_2/data/smiles/146697.pdb
     RDKit          3D

 25 27  0  0  0  0  0  0  0  0999 V2000
   70.4561   51.6951   53.1653 O   0  0  0  0  0  0  0  0  0  0  0  0
   70.8299   50.5269   53.5632 C   0  0  0  0  0  0  0  0  0  0  0  0
   71.9917   50.5320   54.3572 N   0  0  0  0  0  0  0  0  0  0  0  0
   70.0516   49.3698   53.1711 C   0  0  0  0  0  0  0  0  0  0  0  0
   69.6787   48.4248   54.1409 C   0  0  0  0  0  0  0  0  0  0  0  0
   68.9401   47.3232   53.7796 C   0  0  0  0  0  0  0  0  0  0  0  0
   68.5584   46.3781   54.7091 C   0  0  0  0  0  0  0  0  0  0  0  0
   67.8131   45.2590   54.3663 C   0  0  0  0  0  0  0  0  0  0  0  0
   67.4321   45.0732   53.0444 C   0  0  0  0  0  0  0  0  0  0  0  0
   67.7983   46.0012   52.0922 C   0  0  0  0  0  0  0  0  0  0  0  0
   67.4183   45.8212   50.7596 O   0  0  0  0  0  0  0  0  0  0  0  0
   68.5463   47.1104   52.4783 C   0  0  0  0  0  0  0  0  0  0  0  0
   68.9081   48.0065   51.5980 O   0  0  0  0  0  0  0  0  0  0  0  0
   69.6261   49.0907   51.9060 C   0  0  0  0  0  0  0  0  0  0  0  0
   69.8967   49.8608   50.9530 O   0  0  0  0  0  0  0  0  0  0  0  0
   72.7025   51.7731   54.6927 C   0  0  0  0  0  0  0  0  0  0  0  0
   72.5390   52.0681   56.1564 C   0  0  0  0  0  0  0  0  0  0  0  0
   71.3811   52.9783   56.4419 C   0  0  0  0  0  0  0  0  0  0  0  0
   70.1866   52.1856   56.8223 C   0  0  0  0  0  0  0  0  0  0  0  0
   68.9697   52.3668   56.2024 C   0  0  0  0  0  0  0  0  0  0  0  0
   67.8629   51.6037   56.5837 C   0  0  0  0  0  0  0  0  0  0  0  0
   67.9579   50.6531   57.5851 C   0  0  0  0  0  0  0  0  0  0  0  0
   66.8537   49.9003   57.9564 O   0  0  0  0  0  0  0  0  0  0  0  0
   69.1709   50.4792   58.1954 C   0  0  0  0  0  0  0  0  0  0  0  0
   70.2715   51.2408   57.8136 C   0  0  0  0  0  0  0  0  0  0  0  0
  1  2  2  0
  2  3  1  0
  2  4  1  0
  3 16  1  0
 16 17  1  0
 17 18  1  0
 18 19  1  0
 19 20  2  0
 19 25  1  0
 20 21  1  0
 21 22  2  0
 22 23  1  0
 22 24  1  0
 24 25  2  0
  4  5  2  0
  4 14  1  0
  5  6  1  0
  6  7  2  0
  6 12  1  0
  7  8  1  0
  8  9  2  0
  9 10  1  0
 10 11  1  0
 10 12  2  0
 12 13  1  0
 13 14  1  0
 14 15  2  0
M  END
>  <minimizedAffinity>  (668) 
-8.69571

$$$$
data/reference_output_2/data/smiles/146862.pdb
     RDKit          3D

 28 30  0  0  0  0  0  0  0  0999 V2000
   69.6916   49.2356   56.6965 C   0  0  0  0  0  0  0  0  0  0  0  0
   69.2129   50.2212   57.5365 C   0  0  0  0  0  0  0  0  0  0  0  0
   67.9330   50.1891   58.0192 C   0  0  0  0  0  0  0  0  0  0  0  0
   67.1630   49.1183   57.6147 C   0  0  0  0  0  0  0  0  0  0  0  0
   67.6105   48.1321   56.7873 C   0  0  0  0  0  0  0  0  0  0  0  0
   68.9243   48.1743   56.2980 C   0  0  0  0  0  0  0  0  0  0  0  0
   71.1023   49.3754   56.2034 C   0  0  0  0  0  0  0  0  0  0  0  0
   74.2483   53.9991   56.2629 N   0  0  0  0  0  0  0  0  0  0  0  0
   72.9487   53.7992   56.8976 C   0  0  1  0  0  0  0  0  0  0  0  0
   71.8566   53.7178   55.8383 C   0  0  0  0  0  0  0  0  0  0  0  0
   71.7752   52.2324   55.5992 C   0  0  2  0  0  0  0  0  0  0  0  0
   72.1552   51.5685   56.8166 N   0  0  0  0  0  0  0  0  0  0  0  0
   71.8584   50.2230   57.1464 C   0  0  0  0  0  0  0  0  0  0  0  0
   72.2483   49.7692   58.2467 O   0  0  0  0  0  0  0  0  0  0  0  0
   72.8839   52.4965   57.6340 C   0  0  0  0  0  0  0  0  0  0  0  0
   72.6812   51.8605   54.4868 C   0  0  0  0  0  0  0  0  0  0  0  0
   73.0073   52.7222   53.6374 O   0  0  0  0  0  0  0  0  0  0  0  0
   73.1807   50.5384   54.3790 N   0  0  0  0  0  0  0  0  0  0  0  0
   74.0205   50.1570   53.3654 O   0  0  0  0  0  0  0  0  0  0  0  0
   69.3343   47.1084   55.4535 N   0  0  0  0  0  0  0  0  0  0  0  0
   68.8441   46.7837   54.1908 C   0  0  0  0  0  0  0  0  0  0  0  0
   68.1641   45.5791   54.0361 C   0  0  0  0  0  0  0  0  0  0  0  0
   68.0094   44.5337   55.4282 Cl  0  0  0  0  0  0  0  0  0  0  0  0
   67.6427   45.2531   52.8062 C   0  0  0  0  0  0  0  0  0  0  0  0
   67.7725   46.0923   51.7029 C   0  0  0  0  0  0  0  0  0  0  0  0
   68.4427   47.2847   51.8483 C   0  0  0  0  0  0  0  0  0  0  0  0
   68.9796   47.6330   53.0900 C   0  0  0  0  0  0  0  0  0  0  0  0
   69.7873   49.1731   53.2129 Cl  0  0  0  0  0  0  0  0  0  0  0  0
  9  8  1  6
  9 10  1  0
  9 15  1  0
 10 11  1  0
 11 16  1  6
 11 12  1  0
 16 17  2  0
 16 18  1  0
 18 19  1  0
 12 13  1  0
 12 15  1  0
 13 14  2  0
 13  7  1  0
  7  1  1  0
  1  2  2  0
  1  6  1  0
  2  3  1  0
  3  4  2  0
  4  5  1  0
  5  6  2  0
  6 20  1  0
 20 21  1  0
 21 22  2  0
 21 27  1  0
 22 23  1  0
 22 24  1  0
 24 25  2  0
 25 26  1  0
 26 27  2  0
 27 28  1  0
M  CHG  1   8   1
M  END
>  <minimizedAffinity>  (669) 
-8.59801

$$$$
data/reference_output_2/data/smiles/147076.pdb
     RDKit          3D

 24 26  0  0  0  0  0  0  0  0999 V2000
   69.3388   45.0574   57.1784 O   0  0  0  0  0  0  0  0  0  0  0  0
   69.1423   41.4200   57.3431 C   0  0  0  0  0  0  0  0  0  0  0  0
   70.3499   41.0971   57.9219 C   0  0  0  0  0  0  0  0  0  0  0  0
   70.7120   39.8188   58.1764 F   0  0  0  0  0  0  0  0  0  0  0  0
   71.2370   42.1033   58.2615 C   0  0  0  0  0  0  0  0  0  0  0  0
   70.9156   43.4171   58.0230 C   0  0  0  0  0  0  0  0  0  0  0  0
   69.7258   43.8045   57.4489 C   0  0  0  0  0  0  0  0  0  0  0  0
   68.8592   42.7310   57.1218 C   0  0  0  0  0  0  0  0  0  0  0  0
   67.6795   43.0711   56.5542 F   0  0  0  0  0  0  0  0  0  0  0  0
   67.8081   40.2152   55.6544 N   0  0  0  0  0  0  0  0  0  0  0  0
   68.2174   40.3588   56.9879 C   0  0  0  0  0  0  0  0  0  0  0  0
   67.7746   39.5618   57.8510 O   0  0  0  0  0  0  0  0  0  0  0  0
   69.7311   46.3054   56.9256 C   0  0  0  0  0  0  0  0  0  0  0  0
   68.7486   47.3988   56.6397 C   0  0  1  0  0  0  0  0  0  0  0  0
   69.2769   48.6626   56.0518 C   0  0  0  0  0  0  0  0  0  0  0  0
   69.7561   48.4649   54.7263 O   0  0  0  0  0  0  0  0  0  0  0  0
   69.0644   47.6246   53.8535 C   0  0  0  0  0  0  0  0  0  0  0  0
   69.3510   47.5543   52.5019 C   0  0  0  0  0  0  0  0  0  0  0  0
   68.6496   46.7122   51.6551 C   0  0  0  0  0  0  0  0  0  0  0  0
   67.6361   45.9150   52.1444 C   0  0  0  0  0  0  0  0  0  0  0  0
   66.9021   45.0393   51.2820 N   0  0  0  0  0  0  0  0  0  0  0  0
   67.3650   46.0010   53.4963 C   0  0  0  0  0  0  0  0  0  0  0  0
   68.0595   46.8370   54.3512 C   0  0  0  0  0  0  0  0  0  0  0  0
   67.7539   46.8968   55.7251 O   0  0  0  0  0  0  0  0  0  0  0  0
 10 11  1  0
 11 12  2  0
 11  2  1  0
  2  3  2  0
  2  8  1  0
  3  4  1  0
  3  5  1  0
  5  6  2  0
  6  7  1  0
  7  1  1  0
  7  8  2  0
  1 13  1  0
 14 13  1  6
 14 15  1  0
 14 24  1  0
 15 16  1  0
 16 17  1  0
 17 18  2  0
 17 23  1  0
 18 19  1  0
 19 20  2  0
 20 21  1  0
 20 22  1  0
 22 23  2  0
 23 24  1  0
  8  9  1  0
M  END
>  <minimizedAffinity>  (670) 
-8.57072

$$$$
data/reference_output_2/data/smiles/147148.pdb
     RDKit          3D

 23 25  0  0  0  0  0  0  0  0999 V2000
   69.4974   48.9903   56.2286 C   0  0  0  0  0  0  0  0  0  0  0  0
   69.7680   48.7203   54.8073 C   0  0  0  0  0  0  0  0  0  0  0  0
   70.7936   49.3583   54.1864 N   0  0  0  0  0  0  0  0  0  0  0  0
   71.0488   49.1688   52.9073 N   0  0  0  0  0  0  0  0  0  0  0  0
   70.3286   48.3463   52.1333 C   0  0  0  0  0  0  0  0  0  0  0  0
   70.5730   48.1685   50.9204 O   0  0  0  0  0  0  0  0  0  0  0  0
   69.2615   47.6557   52.7002 C   0  0  0  0  0  0  0  0  0  0  0  0
   69.0084   47.8707   54.0590 C   0  0  0  0  0  0  0  0  0  0  0  0
   67.8917   47.1037   54.6403 C   0  0  0  0  0  0  0  0  0  0  0  0
   67.8872   45.6578   54.1112 C   0  0  0  0  0  0  0  0  0  0  0  0
   67.8422   45.5885   52.6289 C   0  0  0  0  0  0  0  0  0  0  0  0
   68.4157   46.7481   51.9068 C   0  0  0  0  0  0  0  0  0  0  0  0
   70.6013   46.2332   58.5646 C   0  0  0  0  0  0  0  0  0  0  0  0
   71.9104   46.5894   58.9179 C   0  0  0  0  0  0  0  0  0  0  0  0
   72.3900   47.7473   58.3700 C   0  0  0  0  0  0  0  0  0  0  0  0
   71.6453   48.5416   57.5094 C   0  0  0  0  0  0  0  0  0  0  0  0
   70.3664   48.2016   57.1575 C   0  0  0  0  0  0  0  0  0  0  0  0
   69.8631   47.0156   57.7142 C   0  0  0  0  0  0  0  0  0  0  0  0
   70.0835   45.0446   59.1264 N   0  0  0  0  0  0  0  0  0  0  0  0
   71.2075   42.6931   57.8095 C   0  0  0  0  0  0  0  0  0  0  0  0
   69.7940   43.6678   58.1674 S   0  0  0  0  0  0  0  0  0  0  0  0
   68.7263   42.7987   58.8204 O   0  0  0  0  0  0  0  0  0  0  0  0
   69.1805   44.0735   56.8279 O   0  0  0  0  0  0  0  0  0  0  0  0
 20 21  1  0
 21 22  2  0
 21 23  2  0
 21 19  1  0
 19 13  1  0
 13 14  2  0
 13 18  1  0
 14 15  1  0
 15 16  2  0
 16 17  1  0
 17  1  1  0
 17 18  2  0
  1  2  1  0
  2  3  2  0
  2  8  1  0
  3  4  1  0
  4  5  1  0
  5  6  2  0
  5  7  1  0
  7  8  2  0
  7 12  1  0
  8  9  1  0
  9 10  1  0
 10 11  1  0
 11 12  1  0
M  END
>  <minimizedAffinity>  (671) 
-8.84412

$$$$
data/reference_output_2/data/smiles/147495.pdb
     RDKit          3D

 24 26  0  0  0  0  0  0  0  0999 V2000
   66.7303   42.0012   55.9076 C   0  0  0  0  0  0  0  0  0  0  0  0
   67.5771   43.1836   55.9371 N   0  0  0  0  0  0  0  0  0  0  0  0
   68.5229   43.4417   56.8087 N   0  0  0  0  0  0  0  0  0  0  0  0
   69.0861   44.6202   56.5183 N   0  0  0  0  0  0  0  0  0  0  0  0
   68.4898   45.1352   55.4366 C   0  0  0  0  0  0  0  0  0  0  0  0
   67.5454   44.2125   55.0897 N   0  0  0  0  0  0  0  0  0  0  0  0
   68.7250   46.3885   54.7180 C   0  0  0  0  0  0  0  0  0  0  0  0
   68.7054   46.4442   53.3499 C   0  0  0  0  0  0  0  0  0  0  0  0
   68.9309   47.6531   52.6768 C   0  0  0  0  0  0  0  0  0  0  0  0
   69.1786   48.8196   53.3727 C   0  0  0  0  0  0  0  0  0  0  0  0
   69.1979   48.7601   54.7464 C   0  0  0  0  0  0  0  0  0  0  0  0
   68.9748   47.5658   55.4130 C   0  0  0  0  0  0  0  0  0  0  0  0
   68.9930   47.5107   56.7487 F   0  0  0  0  0  0  0  0  0  0  0  0
   67.6635   40.6884   57.8767 N   0  0  0  0  0  0  0  0  0  0  0  0
   67.4989   40.8265   56.4576 C   0  0  0  0  0  0  0  0  0  0  0  0
   67.9927   39.9750   55.6900 O   0  0  0  0  0  0  0  0  0  0  0  0
   67.6764   36.8525   60.9484 C   0  0  0  0  0  0  0  0  0  0  0  0
   68.3847   37.7410   59.9741 C   0  0  0  0  0  0  0  0  0  0  0  0
   69.7130   37.5140   59.6688 C   0  0  0  0  0  0  0  0  0  0  0  0
   70.3656   38.3315   58.7724 C   0  0  0  0  0  0  0  0  0  0  0  0
   71.8197   38.0839   58.4438 C   0  0  0  0  0  0  0  0  0  0  0  0
   69.6942   39.3722   58.1836 C   0  0  0  0  0  0  0  0  0  0  0  0
   68.3798   39.6120   58.4742 C   0  0  0  0  0  0  0  0  0  0  0  0
   67.7292   38.7971   59.3688 C   0  0  0  0  0  0  0  0  0  0  0  0
 17 18  1  0
 18 19  2  0
 18 24  1  0
 19 20  1  0
 20 21  1  0
 20 22  2  0
 22 23  1  0
 23 14  1  0
 23 24  2  0
 14 15  1  0
 15 16  2  0
 15  1  1  0
  1  2  1  0
  2  3  1  0
  2  6  1  0
  3  4  2  0
  4  5  1  0
  5  7  1  0
  5  6  2  0
  7  8  2  0
  7 12  1  0
  8  9  1  0
  9 10  2  0
 10 11  1  0
 11 12  2  0
 12 13  1  0
M  END
>  <minimizedAffinity>  (672) 
-8.61935

$$$$
data/reference_output_2/data/smiles/147552.pdb
     RDKit          3D

 26 28  0  0  0  0  0  0  0  0999 V2000
   68.8029   42.5325   57.1452 C   0  0  0  0  0  0  0  0  0  0  0  0
   68.9784   43.7635   56.6588 N   0  0  0  0  0  0  0  0  0  0  0  0
   68.2273   44.3166   55.6799 C   0  0  0  0  0  0  0  0  0  0  0  0
   67.2433   43.5653   55.1715 N   0  0  0  0  0  0  0  0  0  0  0  0
   67.0098   42.3181   55.6134 C   0  0  0  0  0  0  0  0  0  0  0  0
   66.0759   41.6592   55.1027 O   0  0  0  0  0  0  0  0  0  0  0  0
   67.7890   41.7769   56.6120 C   0  0  0  0  0  0  0  0  0  0  0  0
   67.5771   40.4827   57.0976 O   0  0  0  0  0  0  0  0  0  0  0  0
   68.4858   45.6692   55.1988 C   0  0  0  0  0  0  0  0  0  0  0  0
   68.9408   46.6713   56.0146 C   0  0  0  0  0  0  0  0  0  0  0  0
   69.1798   47.9602   55.5250 C   0  0  0  0  0  0  0  0  0  0  0  0
   68.9560   48.2455   54.1924 C   0  0  0  0  0  0  0  0  0  0  0  0
   69.1765   49.4960   53.6694 F   0  0  0  0  0  0  0  0  0  0  0  0
   68.4986   47.2456   53.3627 C   0  0  0  0  0  0  0  0  0  0  0  0
   68.2689   45.9744   53.8685 C   0  0  0  0  0  0  0  0  0  0  0  0
   69.6202   42.4793   59.3558 O   0  0  0  0  0  0  0  0  0  0  0  0
   69.6319   41.9538   58.2036 C   0  0  0  0  0  0  0  0  0  0  0  0
   70.4499   40.8285   57.9966 N   0  0  0  0  0  0  0  0  0  0  0  0
   71.2616   40.2590   59.0430 C   0  0  0  0  0  0  0  0  0  0  0  0
   71.3235   38.7772   59.0197 C   0  0  0  0  0  0  0  0  0  0  0  0
   72.1688   38.1513   58.0951 C   0  0  0  0  0  0  0  0  0  0  0  0
   72.2930   36.7875   58.0112 C   0  0  0  0  0  0  0  0  0  0  0  0
   71.5803   35.9594   58.8451 C   0  0  0  0  0  0  0  0  0  0  0  0
   71.7562   34.2238   58.7160 Cl  0  0  0  0  0  0  0  0  0  0  0  0
   70.7388   36.5578   59.7664 C   0  0  0  0  0  0  0  0  0  0  0  0
   70.6079   37.9507   59.8577 C   0  0  0  0  0  0  0  0  0  0  0  0
 16 17  2  0
 17 18  1  0
 17  1  1  0
 18 19  1  0
 19 20  1  0
 20 21  2  0
 20 26  1  0
 21 22  1  0
 22 23  2  0
 23 24  1  0
 23 25  1  0
 25 26  2  0
  1  2  1  0
  1  7  2  0
  2  3  2  0
  3  9  1  0
  3  4  1  0
  9 10  2  0
  9 15  1  0
 10 11  1  0
 11 12  2  0
 12 13  1  0
 12 14  1  0
 14 15  2  0
  4  5  1  0
  5  6  2  0
  5  7  1  0
  7  8  1  0
M  END
>  <minimizedAffinity>  (673) 
-8.62637

$$$$
data/reference_output_2/data/smiles/147714.pdb
     RDKit          3D

 27 29  0  0  0  0  0  0  0  0999 V2000
   67.7485   44.4429   55.0146 N   0  0  0  0  0  0  0  0  0  0  0  0
   68.2541   43.5839   56.0395 C   0  0  0  0  0  0  0  0  0  0  0  0
   69.1301   44.0909   56.7757 O   0  0  0  0  0  0  0  0  0  0  0  0
   69.8972   50.5001   55.5750 C   0  0  0  0  0  0  0  0  0  0  0  0
   69.6858   49.6652   54.3727 C   0  0  0  0  0  0  0  0  0  0  0  0
   69.9449   50.1182   53.0919 C   0  0  0  0  0  0  0  0  0  0  0  0
   69.7136   49.2608   52.0467 C   0  0  0  0  0  0  0  0  0  0  0  0
   69.9413   49.6431   50.8585 O   0  0  0  0  0  0  0  0  0  0  0  0
   69.2608   48.0500   52.2451 O   0  0  0  0  0  0  0  0  0  0  0  0
   68.9967   47.5694   53.4506 C   0  0  0  0  0  0  0  0  0  0  0  0
   68.5210   46.2896   53.6351 C   0  0  0  0  0  0  0  0  0  0  0  0
   68.2380   45.7664   54.8831 C   0  0  0  0  0  0  0  0  0  0  0  0
   68.4624   46.6079   55.9495 C   0  0  0  0  0  0  0  0  0  0  0  0
   68.9376   47.8903   55.7859 C   0  0  0  0  0  0  0  0  0  0  0  0
   69.2109   48.3838   54.5278 C   0  0  0  0  0  0  0  0  0  0  0  0
   67.8079   42.2186   56.2405 C   0  0  0  0  0  0  0  0  0  0  0  0
   67.6288   41.7031   57.6021 C   0  0  0  0  0  0  0  0  0  0  0  0
   68.5705   40.6395   58.0299 C   0  0  0  0  0  0  0  0  0  0  0  0
   69.9229   40.8277   58.1716 C   0  0  0  0  0  0  0  0  0  0  0  0
   70.7728   39.8000   58.6016 C   0  0  0  0  0  0  0  0  0  0  0  0
   70.3014   38.5509   58.9061 C   0  0  0  0  0  0  0  0  0  0  0  0
   68.9334   38.3612   58.7612 C   0  0  0  0  0  0  0  0  0  0  0  0
   68.0891   39.3585   58.3409 C   0  0  0  0  0  0  0  0  0  0  0  0
   71.1011   37.4685   59.3515 N   0  0  0  0  0  0  0  0  0  0  0  0
   71.6995   36.5522   58.4480 C   0  0  0  0  0  0  0  0  0  0  0  0
   71.5235   35.2784   58.7152 N   0  0  0  0  0  0  0  0  0  0  0  0
   72.4375   36.9739   57.3175 N   0  0  0  0  0  0  0  0  0  0  0  0
  4  5  1  0
  5  6  2  0
  5 15  1  0
  6  7  1  0
  7  8  2  0
  7  9  1  0
  9 10  1  0
 10 11  1  0
 10 15  2  0
 11 12  2  0
 12  1  1  0
 12 13  1  0
  1  2  1  0
  2  3  2  0
  2 16  1  0
 16 17  1  0
 17 18  1  0
 18 19  2  0
 18 23  1  0
 19 20  1  0
 20 21  2  0
 21 24  1  0
 21 22  1  0
 24 25  1  0
 25 26  2  0
 25 27  1  0
 22 23  2  0
 13 14  2  0
 14 15  1  0
M  CHG  1  26   1
M  END
>  <minimizedAffinity>  (674) 
-8.62911

$$$$
data/reference_output_2/data/smiles/147741.pdb
     RDKit          3D

 26 28  0  0  0  0  0  0  0  0999 V2000
   68.5474   43.6067   56.2311 C   0  0  0  0  0  0  0  0  0  0  0  0
   68.4352   42.4039   56.7186 C   0  0  0  0  0  0  0  0  0  0  0  0
   67.3984   41.5199   56.2131 C   0  0  0  0  0  0  0  0  0  0  0  0
   66.6175   41.9420   55.3139 O   0  0  0  0  0  0  0  0  0  0  0  0
   67.3140   40.2203   56.7555 N   0  0  0  0  0  0  0  0  0  0  0  0
   68.2171   39.7590   57.7840 C   0  0  0  0  0  0  0  0  0  0  0  0
   68.1068   38.5848   58.2445 O   0  0  0  0  0  0  0  0  0  0  0  0
   69.2508   40.5855   58.3154 N   0  0  0  0  0  0  0  0  0  0  0  0
   69.3379   41.8932   57.7708 C   0  0  0  0  0  0  0  0  0  0  0  0
   70.2325   42.6550   58.2100 O   0  0  0  0  0  0  0  0  0  0  0  0
   67.7223   44.1502   55.2166 N   0  0  0  0  0  0  0  0  0  0  0  0
   68.5303   47.0265   51.3141 N   0  0  0  0  0  0  0  0  0  0  0  0
   68.5636   46.7997   52.7113 C   0  0  0  0  0  0  0  0  0  0  0  0
   69.0166   47.8097   53.5333 C   0  0  0  0  0  0  0  0  0  0  0  0
   69.0504   47.6075   54.9190 C   0  0  0  0  0  0  0  0  0  0  0  0
   68.6246   46.3884   55.4369 C   0  0  0  0  0  0  0  0  0  0  0  0
   68.1700   45.3744   54.6297 C   0  0  0  0  0  0  0  0  0  0  0  0
   68.1519   45.6075   53.2752 C   0  0  0  0  0  0  0  0  0  0  0  0
   70.1349   40.0912   59.3355 C   0  0  0  0  0  0  0  0  0  0  0  0
   70.6701   38.7307   59.0765 C   0  0  0  0  0  0  0  0  0  0  0  0
   70.3292   37.6806   59.8782 C   0  0  0  0  0  0  0  0  0  0  0  0
   70.8255   36.4020   59.6332 C   0  0  0  0  0  0  0  0  0  0  0  0
   71.6781   36.2020   58.5590 C   0  0  0  0  0  0  0  0  0  0  0  0
   72.1910   34.9570   58.2816 F   0  0  0  0  0  0  0  0  0  0  0  0
   72.0194   37.2633   57.7544 C   0  0  0  0  0  0  0  0  0  0  0  0
   71.5196   38.5248   58.0076 C   0  0  0  0  0  0  0  0  0  0  0  0
 12 13  1  0
 13 14  2  0
 13 18  1  0
 14 15  1  0
 15 16  2  0
 16 17  1  0
 17 11  1  0
 17 18  2  0
 11  1  1  0
  1  2  2  0
  2  3  1  0
  2  9  1  0
  3  4  2  0
  3  5  1  0
  5  6  1  0
  6  7  2  0
  6  8  1  0
  8 19  1  0
  8  9  1  0
 19 20  1  0
 20 21  2  0
 20 26  1  0
 21 22  1  0
 22 23  2  0
 23 24  1  0
 23 25  1  0
 25 26  2  0
  9 10  2  0
M  END
>  <minimizedAffinity>  (675) 
-8.86631

$$$$
data/reference_output_2/data/smiles/147843.pdb
     RDKit          3D

 26 28  0  0  0  0  0  0  0  0999 V2000
   68.5348   45.8312   54.8525 C   0  0  0  0  0  0  0  0  0  0  0  0
   68.9866   46.8575   55.6538 C   0  0  0  0  0  0  0  0  0  0  0  0
   69.0783   46.6290   56.9782 F   0  0  0  0  0  0  0  0  0  0  0  0
   69.3324   48.0878   55.0813 C   0  0  0  0  0  0  0  0  0  0  0  0
   69.7741   49.0835   55.8880 F   0  0  0  0  0  0  0  0  0  0  0  0
   69.2326   48.3042   53.7199 C   0  0  0  0  0  0  0  0  0  0  0  0
   68.7837   47.2807   52.9316 C   0  0  0  0  0  0  0  0  0  0  0  0
   68.6875   47.4995   51.5928 F   0  0  0  0  0  0  0  0  0  0  0  0
   68.4375   46.0526   53.4962 C   0  0  0  0  0  0  0  0  0  0  0  0
   67.9951   45.0514   52.7012 F   0  0  0  0  0  0  0  0  0  0  0  0
   68.1662   42.5809   56.4395 C   0  0  0  0  0  0  0  0  0  0  0  0
   68.8517   43.7503   56.1937 C   0  0  0  0  0  0  0  0  0  0  0  0
   68.1612   44.5494   55.3447 N   0  0  0  0  0  0  0  0  0  0  0  0
   67.0467   43.8659   55.0701 N   0  0  0  0  0  0  0  0  0  0  0  0
   67.0407   42.7025   55.7110 N   0  0  0  0  0  0  0  0  0  0  0  0
   69.6210   38.0837   59.7676 C   0  0  0  0  0  0  0  0  0  0  0  0
   69.2402   39.2412   58.9042 C   0  0  0  0  0  0  0  0  0  0  0  0
   68.2035   39.1710   57.9986 C   0  0  0  0  0  0  0  0  0  0  0  0
   67.8688   40.2581   57.2097 C   0  0  0  0  0  0  0  0  0  0  0  0
   68.5458   41.4559   57.2862 C   0  0  0  0  0  0  0  0  0  0  0  0
   69.5811   41.5264   58.1920 C   0  0  0  0  0  0  0  0  0  0  0  0
   69.9246   40.4338   58.9907 C   0  0  0  0  0  0  0  0  0  0  0  0
   69.6716   49.8491   53.0397 S   0  0  0  0  0  0  0  0  0  0  0  0
   69.7195   49.7387   51.3094 N   0  0  0  0  0  0  0  0  0  0  0  0
   71.0558   50.2004   53.5101 O   0  0  0  0  0  0  0  0  0  0  0  0
   68.7523   50.9392   53.4662 O   0  0  0  0  0  0  0  0  0  0  0  0
 16 17  1  0
 17 18  2  0
 17 22  1  0
 18 19  1  0
 19 20  2  0
 20 11  1  0
 20 21  1  0
 11 12  2  0
 11 15  1  0
 12 13  1  0
 13  1  1  0
 13 14  1  0
  1  2  2  0
  1  9  1  0
  2  3  1  0
  2  4  1  0
  4  5  1  0
  4  6  2  0
  6 23  1  0
  6  7  1  0
 23 24  1  0
 23 25  2  0
 23 26  2  0
  7  8  1  0
  7  9  2  0
  9 10  1  0
 14 15  2  0
 21 22  2  0
M  END
>  <minimizedAffinity>  (676) 
-8.71674

$$$$
data/reference_output_2/data/smiles/148013.pdb
     RDKit          3D

 26 29  0  0  0  0  0  0  0  0999 V2000
   70.9536   45.9461   58.1589 C   0  0  0  0  0  0  0  0  0  0  0  0
   71.7680   46.8733   58.7660 C   0  0  0  0  0  0  0  0  0  0  0  0
   71.5115   48.2437   58.6291 C   0  0  0  0  0  0  0  0  0  0  0  0
   70.4446   48.6806   57.8865 C   0  0  0  0  0  0  0  0  0  0  0  0
   69.6083   47.7459   57.2632 C   0  0  0  0  0  0  0  0  0  0  0  0
   69.8930   46.4287   57.4228 C   0  0  0  0  0  0  0  0  0  0  0  0
   69.4687   44.0591   59.6869 O   0  0  0  0  0  0  0  0  0  0  0  0
   70.4279   43.6271   59.0006 C   0  0  0  0  0  0  0  0  0  0  0  0
   71.1651   44.5537   58.2423 N   0  0  0  0  0  0  0  0  0  0  0  0
   70.7368   42.1904   59.0173 C   0  0  0  0  0  0  0  0  0  0  0  0
   71.5159   41.4802   58.1309 C   0  0  0  0  0  0  0  0  0  0  0  0
   71.5714   40.1378   58.4792 C   0  0  0  0  0  0  0  0  0  0  0  0
   70.7912   40.0618   59.6181 C   0  0  0  0  0  0  0  0  0  0  0  0
   70.3045   41.2913   59.9198 N   0  0  0  0  0  0  0  0  0  0  0  0
   68.4956   48.3051   56.4317 C   0  0  0  0  0  0  0  0  0  0  0  0
   68.9555   48.4929   55.0087 C   0  0  0  0  0  0  0  0  0  0  0  0
   69.5946   49.6204   54.6822 N   0  0  0  0  0  0  0  0  0  0  0  0
   70.0858   49.8402   53.4836 N   0  0  0  0  0  0  0  0  0  0  0  0
   69.9720   48.9217   52.4943 C   0  0  0  0  0  0  0  0  0  0  0  0
   70.4379   49.1095   51.3333 O   0  0  0  0  0  0  0  0  0  0  0  0
   69.3249   47.7565   52.7856 C   0  0  0  0  0  0  0  0  0  0  0  0
   68.8045   47.5188   54.0401 C   0  0  0  0  0  0  0  0  0  0  0  0
   68.0584   46.2853   54.3376 C   0  0  0  0  0  0  0  0  0  0  0  0
   67.6549   45.5137   53.1272 C   0  0  0  0  0  0  0  0  0  0  0  0
   67.7476   46.2333   51.8264 C   0  0  0  0  0  0  0  0  0  0  0  0
   69.1820   46.7288   51.6928 C   0  0  0  0  0  0  0  0  0  0  0  0
  7  8  2  0
  8  9  1  0
  8 10  1  0
  9  1  1  0
  1  2  2  0
  1  6  1  0
  2  3  1  0
  3  4  2  0
  4  5  1  0
  5 15  1  0
  5  6  2  0
 15 16  1  0
 16 17  2  0
 16 22  1  0
 17 18  1  0
 18 19  1  0
 19 20  2  0
 19 21  1  0
 21 22  2  0
 21 26  1  0
 22 23  1  0
 23 24  1  0
 24 25  1  0
 25 26  1  0
 10 11  2  0
 10 14  1  0
 11 12  1  0
 12 13  2  0
 13 14  1  0
M  END
>  <minimizedAffinity>  (677) 
-8.54423

$$$$
data/reference_output_2/data/smiles/148246.pdb
     RDKit          3D

 22 24  0  0  0  0  0  0  0  0999 V2000
   68.3037   44.5542   55.8461 N   0  0  0  0  0  0  0  0  0  0  0  0
   67.9443   45.0344   54.7391 C   0  0  0  0  0  0  0  0  0  0  0  0
   68.4521   46.2500   54.1142 C   0  0  0  0  0  0  0  0  0  0  0  0
   68.4749   47.4542   54.7889 C   0  0  0  0  0  0  0  0  0  0  0  0
   68.9468   48.6236   54.2309 C   0  0  0  0  0  0  0  0  0  0  0  0
   69.4250   48.6318   52.9491 C   0  0  0  0  0  0  0  0  0  0  0  0
   69.4185   47.4434   52.2431 C   0  0  0  0  0  0  0  0  0  0  0  0
   68.9376   46.2665   52.8175 C   0  0  0  0  0  0  0  0  0  0  0  0
   69.9362   47.7546   51.0383 N   0  0  0  0  0  0  0  0  0  0  0  0
   70.2297   49.0181   51.0175 O   0  0  0  0  0  0  0  0  0  0  0  0
   69.9377   49.5839   52.1481 N   0  0  0  0  0  0  0  0  0  0  0  0
   70.1242   50.9294   52.4676 O   0  0  0  0  0  0  0  0  0  0  0  0
   68.6315   42.5000   57.1988 C   0  0  0  0  0  0  0  0  0  0  0  0
   69.8661   42.8084   57.2704 O   0  0  0  0  0  0  0  0  0  0  0  0
   67.8414   43.4065   56.4638 N   0  0  0  0  0  0  0  0  0  0  0  0
   66.6143   37.7767   59.7882 C   0  0  0  0  0  0  0  0  0  0  0  0
   67.1362   39.0157   59.1178 C   0  0  0  0  0  0  0  0  0  0  0  0
   68.0717   38.9184   58.1141 C   0  0  0  0  0  0  0  0  0  0  0  0
   68.5667   40.0504   57.4808 C   0  0  0  0  0  0  0  0  0  0  0  0
   68.1335   41.2970   57.8423 C   0  0  0  0  0  0  0  0  0  0  0  0
   67.1974   41.3760   58.8464 C   0  0  0  0  0  0  0  0  0  0  0  0
   66.6911   40.2630   59.4899 C   0  0  0  0  0  0  0  0  0  0  0  0
 16 17  1  0
 17 18  2  0
 17 22  1  0
 18 19  1  0
 19 20  2  0
 20 13  1  0
 20 21  1  0
 13 14  2  0
 13 15  1  0
 15  1  1  0
  1  2  2  0
  2  3  1  0
  3  4  1  0
  3  8  2  0
  4  5  2  0
  5  6  1  0
  6  7  1  0
  6 11  2  0
  7  8  1  0
  7  9  2  0
  9 10  1  0
 10 11  1  0
 11 12  1  0
 21 22  2  0
M  CHG  2  11   1  12  -1
M  END
>  <minimizedAffinity>  (678) 
-8.72993

$$$$
data/reference_output_2/data/smiles/148268.pdb
     RDKit          3D

 20 22  0  0  0  0  0  0  0  0999 V2000
   68.6508   45.3784   56.1054 C   0  0  0  0  0  0  0  0  0  0  0  0
   69.6120   45.9774   56.8311 N   0  0  0  0  0  0  0  0  0  0  0  0
   70.3737   45.3106   57.7170 C   0  0  0  0  0  0  0  0  0  0  0  0
   70.1762   43.9477   57.9062 C   0  0  0  0  0  0  0  0  0  0  0  0
   69.1992   43.3179   57.1752 C   0  0  0  0  0  0  0  0  0  0  0  0
   68.4660   44.0651   56.2932 N   0  0  0  0  0  0  0  0  0  0  0  0
   68.9318   41.8914   57.3177 C   0  0  0  0  0  0  0  0  0  0  0  0
   69.6156   41.1255   58.2183 C   0  0  0  0  0  0  0  0  0  0  0  0
   69.3173   39.7712   58.3086 C   0  0  0  0  0  0  0  0  0  0  0  0
   68.3558   39.2191   57.5081 C   0  0  0  0  0  0  0  0  0  0  0  0
   67.7237   40.0119   56.6512 N   0  0  0  0  0  0  0  0  0  0  0  0
   67.9679   41.3104   56.5224 C   0  0  0  0  0  0  0  0  0  0  0  0
   67.8545   46.1191   55.1674 N   0  0  0  0  0  0  0  0  0  0  0  0
   70.4234   48.9898   51.0335 N   0  0  0  0  0  0  0  0  0  0  0  0
   69.7829   48.2768   52.0720 C   0  0  0  0  0  0  0  0  0  0  0  0
   69.7494   48.7526   53.3713 C   0  0  0  0  0  0  0  0  0  0  0  0
   69.1203   48.0494   54.3850 C   0  0  0  0  0  0  0  0  0  0  0  0
   68.5109   46.8585   54.1298 C   0  0  0  0  0  0  0  0  0  0  0  0
   68.5349   46.3733   52.8443 C   0  0  0  0  0  0  0  0  0  0  0  0
   69.1616   47.0670   51.8199 C   0  0  0  0  0  0  0  0  0  0  0  0
 14 15  1  0
 15 16  2  0
 15 20  1  0
 16 17  1  0
 17 18  2  0
 18 13  1  0
 18 19  1  0
 13  1  1  0
  1  2  2  0
  1  6  1  0
  2  3  1  0
  3  4  2  0
  4  5  1  0
  5  7  1  0
  5  6  2  0
  7  8  2  0
  7 12  1  0
  8  9  1  0
  9 10  2  0
 10 11  1  0
 11 12  2  0
 19 20  2  0
M  END
>  <minimizedAffinity>  (679) 
-8.69575

$$$$
data/reference_output_2/data/smiles/148272.pdb
     RDKit          3D

 25 27  0  0  0  0  0  0  0  0999 V2000
   67.4227   42.2395   56.2058 C   0  0  0  0  0  0  0  0  0  0  0  0
   68.6428   42.3830   56.9921 C   0  0  0  0  0  0  0  0  0  0  0  0
   69.1814   43.5580   57.0955 N   0  0  0  0  0  0  0  0  0  0  0  0
   68.6191   44.6779   56.4714 N   0  0  0  0  0  0  0  0  0  0  0  0
   69.1801   45.9714   56.5181 C   0  0  0  0  0  0  0  0  0  0  0  0
   70.2636   46.0901   57.1762 O   0  0  0  0  0  0  0  0  0  0  0  0
   68.6205   47.1664   55.8773 C   0  0  2  0  0  0  0  0  0  0  0  0
   67.3266   47.3811   56.4024 O   0  0  0  0  0  0  0  0  0  0  0  0
   68.5657   46.9729   54.4008 C   0  0  0  0  0  0  0  0  0  0  0  0
   67.7784   45.9834   53.8301 C   0  0  0  0  0  0  0  0  0  0  0  0
   67.7330   45.8108   52.4615 C   0  0  0  0  0  0  0  0  0  0  0  0
   68.4619   46.6069   51.6029 C   0  0  0  0  0  0  0  0  0  0  0  0
   69.2460   47.5930   52.1634 C   0  0  0  0  0  0  0  0  0  0  0  0
   69.2920   47.7665   53.5356 C   0  0  0  0  0  0  0  0  0  0  0  0
   69.2717   41.2369   57.6654 C   0  0  0  0  0  0  0  0  0  0  0  0
   68.6249   40.1322   57.9383 C   0  0  0  0  0  0  0  0  0  0  0  0
   69.1936   38.9642   58.6015 C   0  0  0  0  0  0  0  0  0  0  0  0
   68.5162   38.3598   59.6505 C   0  0  0  0  0  0  0  0  0  0  0  0
   69.0193   37.2511   60.3092 C   0  0  0  0  0  0  0  0  0  0  0  0
   70.2306   36.6984   59.9395 C   0  0  0  0  0  0  0  0  0  0  0  0
   70.9229   37.2790   58.9003 C   0  0  0  0  0  0  0  0  0  0  0  0
   70.3962   38.3955   58.2532 C   0  0  0  0  0  0  0  0  0  0  0  0
   72.1127   36.5479   58.7102 O   0  0  0  0  0  0  0  0  0  0  0  0
   71.8816   35.2985   59.3341 C   0  0  0  0  0  0  0  0  0  0  0  0
   70.9949   35.6255   60.3734 O   0  0  0  0  0  0  0  0  0  0  0  0
  1  2  1  0
  2 15  1  0
  2  3  2  0
 15 16  2  0
 16 17  1  0
 17 18  2  0
 17 22  1  0
 18 19  1  0
 19 20  2  0
 20 21  1  0
 20 25  1  0
 21 22  2  0
 21 23  1  0
 23 24  1  0
 24 25  1  0
  3  4  1  0
  4  5  1  0
  5  6  2  0
  5  7  1  0
  7  8  1  1
  7  9  1  0
  9 10  2  0
  9 14  1  0
 10 11  1  0
 11 12  2  0
 12 13  1  0
 13 14  2  0
M  END
>  <minimizedAffinity>  (680) 
-8.92461

$$$$
data/reference_output_2/data/smiles/148274.pdb
     RDKit          3D

 28 31  0  0  0  0  0  0  0  0999 V2000
   69.3053   43.1826   57.3164 C   0  0  0  0  0  0  0  0  0  0  0  0
   68.2357   42.3984   56.8842 C   0  0  0  0  0  0  0  0  0  0  0  0
   68.1109   41.0806   57.2760 C   0  0  0  0  0  0  0  0  0  0  0  0
   69.0276   40.4638   58.1106 C   0  0  0  0  0  0  0  0  0  0  0  0
   70.0969   41.2514   58.5390 C   0  0  0  0  0  0  0  0  0  0  0  0
   70.2179   42.5686   58.1460 C   0  0  0  0  0  0  0  0  0  0  0  0
   70.9064   40.3611   59.3737 C   0  0  0  0  0  0  0  0  0  0  0  0
   71.9824   40.7308   59.9527 O   0  0  0  0  0  0  0  0  0  0  0  0
   70.3353   39.0595   59.4475 N   0  0  0  0  0  0  0  0  0  0  0  0
   69.1567   39.1160   58.6588 C   0  0  0  0  0  0  0  0  0  0  0  0
   68.3607   38.1574   58.4669 O   0  0  0  0  0  0  0  0  0  0  0  0
   70.4715   45.2249   57.2357 O   0  0  0  0  0  0  0  0  0  0  0  0
   69.4327   44.5460   56.8568 C   0  0  0  0  0  0  0  0  0  0  0  0
   68.5401   45.2472   56.0205 N   0  0  0  0  0  0  0  0  0  0  0  0
   68.7126   46.6055   55.6013 C   0  0  0  0  0  0  0  0  0  0  0  0
   68.5670   46.6468   54.1292 C   0  0  0  0  0  0  0  0  0  0  0  0
   67.8148   45.7108   53.4719 C   0  0  0  0  0  0  0  0  0  0  0  0
   67.6673   45.7181   52.1114 C   0  0  0  0  0  0  0  0  0  0  0  0
   68.2932   46.6974   51.3794 C   0  0  0  0  0  0  0  0  0  0  0  0
   69.0553   47.6537   52.0078 C   0  0  0  0  0  0  0  0  0  0  0  0
   69.1894   47.6244   53.3923 C   0  0  0  0  0  0  0  0  0  0  0  0
   70.8903   37.8989   60.1673 C   0  0  0  0  0  0  0  0  0  0  0  0
   71.4564   36.9763   59.1531 C   0  0  0  0  0  0  0  0  0  0  0  0
   72.0973   37.3594   58.0029 C   0  0  0  0  0  0  0  0  0  0  0  0
   72.6136   36.4403   57.0874 C   0  0  0  0  0  0  0  0  0  0  0  0
   72.4792   35.1366   57.3404 N   0  0  0  0  0  0  0  0  0  0  0  0
   71.8655   34.7165   58.4460 C   0  0  0  0  0  0  0  0  0  0  0  0
   71.3442   35.6184   59.3715 C   0  0  0  0  0  0  0  0  0  0  0  0
 12 13  2  0
 13 14  1  0
 13  1  1  0
 14 15  1  0
 15 16  1  0
 16 17  2  0
 16 21  1  0
 17 18  1  0
 18 19  2  0
 19 20  1  0
 20 21  2  0
  1  2  2  0
  1  6  1  0
  2  3  1  0
  3  4  2  0
  4  5  1  0
  4 10  1  0
  5  6  2  0
  5  7  1  0
  7  8  2  0
  7  9  1  0
  9 22  1  0
  9 10  1  0
 22 23  1  0
 23 24  2  0
 23 28  1  0
 24 25  1  0
 25 26  2  0
 26 27  1  0
 27 28  2  0
 10 11  2  0
M  END
>  <minimizedAffinity>  (681) 
-8.66019

$$$$
data/reference_output_2/data/smiles/148286.pdb
     RDKit          3D

 30 32  0  0  0  0  0  0  0  0999 V2000
   69.0441   45.6141   56.6188 N   0  0  0  0  0  0  0  0  0  0  0  0
   70.1067   45.1852   57.4535 C   0  0  0  0  0  0  0  0  0  0  0  0
   70.9060   45.9840   58.0253 O   0  0  0  0  0  0  0  0  0  0  0  0
   70.2954   43.7612   57.6755 C   0  0  0  0  0  0  0  0  0  0  0  0
   69.2891   42.8347   57.5509 C   0  0  0  0  0  0  0  0  0  0  0  0
   69.5299   41.4962   57.7715 C   0  0  0  0  0  0  0  0  0  0  0  0
   70.7807   41.0350   58.1265 C   0  0  0  0  0  0  0  0  0  0  0  0
   71.8041   41.9944   58.2546 C   0  0  0  0  0  0  0  0  0  0  0  0
   71.5847   43.2890   58.0407 C   0  0  0  0  0  0  0  0  0  0  0  0
   71.0524   39.6550   58.2898 C   0  0  0  0  0  0  0  0  0  0  0  0
   71.3165   38.4255   58.4321 C   0  0  0  0  0  0  0  0  0  0  0  0
   71.6301   37.0723   58.5992 C   0  0  0  0  0  0  0  0  0  0  0  0
   71.0048   36.4358   59.6909 C   0  0  0  0  0  0  0  0  0  0  0  0
   71.1726   35.0636   59.8264 C   0  0  0  0  0  0  0  0  0  0  0  0
   71.9004   34.3255   58.9500 C   0  0  0  0  0  0  0  0  0  0  0  0
   72.5225   34.9807   57.8517 C   0  0  0  0  0  0  0  0  0  0  0  0
   72.3676   36.3321   57.7184 C   0  0  0  0  0  0  0  0  0  0  0  0
   68.8330   47.2992   56.4007 S   0  0  0  0  0  0  0  0  0  0  0  0
   67.3200   47.5467   56.5925 O   0  0  0  0  0  0  0  0  0  0  0  0
   69.4333   48.1371   57.5160 O   0  0  0  0  0  0  0  0  0  0  0  0
   68.8410   47.2257   53.7124 C   0  0  0  0  0  0  0  0  0  0  0  0
   69.3176   47.6697   52.4631 C   0  0  0  0  0  0  0  0  0  0  0  0
   70.1520   48.7273   52.3329 C   0  0  0  0  0  0  0  0  0  0  0  0
   70.5638   49.4195   53.4702 C   0  0  0  0  0  0  0  0  0  0  0  0
   70.0975   48.9836   54.6927 C   0  0  0  0  0  0  0  0  0  0  0  0
   69.2596   47.9140   54.8438 C   0  0  0  0  0  0  0  0  0  0  0  0
   67.3273   45.5117   52.0658 N   0  0  0  0  0  0  0  0  0  0  0  0
   67.7090   45.9506   53.7014 S   0  0  0  0  0  0  0  0  0  0  0  0
   66.3524   46.3815   54.2559 O   0  0  0  0  0  0  0  0  0  0  0  0
   68.1009   44.7126   54.4250 O   0  0  0  0  0  0  0  0  0  0  0  0
 27 28  1  0
 28 29  2  0
 28 30  2  0
 28 21  1  0
 21 22  2  0
 21 26  1  0
 22 23  1  0
 23 24  2  0
 24 25  1  0
 25 26  2  0
 26 18  1  0
 18 19  2  0
 18 20  2  0
 18  1  1  0
  1  2  1  0
  2  3  2  0
  2  4  1  0
  4  5  2  0
  4  9  1  0
  5  6  1  0
  6  7  2  0
  7 10  1  0
  7  8  1  0
 10 11  3  0
 11 12  1  0
 12 13  2  0
 12 17  1  0
 13 14  1  0
 14 15  2  0
 15 16  1  0
 16 17  2  0
  8  9  2  0
M  END
>  <minimizedAffinity>  (682) 
-8.71656

$$$$
data/reference_output_2/data/smiles/148373.pdb
     RDKit          3D

 25 27  0  0  0  0  0  0  0  0999 V2000
   68.5667   46.2969   54.1358 C   0  0  0  0  0  0  0  0  0  0  0  0
   68.2681   45.9843   52.8267 C   0  0  0  0  0  0  0  0  0  0  0  0
   68.5509   46.8615   51.7733 C   0  0  0  0  0  0  0  0  0  0  0  0
   69.1437   48.0812   52.0150 C   0  0  0  0  0  0  0  0  0  0  0  0
   69.4483   48.4082   53.3190 C   0  0  0  0  0  0  0  0  0  0  0  0
   69.1632   47.5339   54.3453 C   0  0  0  0  0  0  0  0  0  0  0  0
   68.4987   45.8323   56.4257 O   0  0  0  0  0  0  0  0  0  0  0  0
   68.2897   45.4148   55.2652 C   0  0  0  0  0  0  0  0  0  0  0  0
   67.7931   44.0948   55.1383 N   0  0  0  0  0  0  0  0  0  0  0  0
   67.5430   43.2809   56.2748 N   0  0  0  0  0  0  0  0  0  0  0  0
   67.8124   42.0397   56.3046 C   0  0  0  0  0  0  0  0  0  0  0  0
   67.5737   41.1671   57.4469 C   0  0  0  0  0  0  0  0  0  0  0  0
   66.7947   41.5535   58.5142 C   0  0  0  0  0  0  0  0  0  0  0  0
   66.5921   40.6980   59.5757 C   0  0  0  0  0  0  0  0  0  0  0  0
   67.1432   39.4639   59.6125 N   0  0  0  0  0  0  0  0  0  0  0  0
   67.9121   39.0555   58.5814 C   0  0  0  0  0  0  0  0  0  0  0  0
   68.1208   39.9051   57.5111 C   0  0  0  0  0  0  0  0  0  0  0  0
   70.2011   49.9621   53.6034 S   0  0  0  0  0  0  0  0  0  0  0  0
   70.0145   50.8756   52.4239 O   0  0  0  0  0  0  0  0  0  0  0  0
   71.6540   49.8392   53.9095 O   0  0  0  0  0  0  0  0  0  0  0  0
   69.3381   50.6959   54.9321 N   0  0  0  0  0  0  0  0  0  0  0  0
   69.1529   52.1029   54.5995 C   0  0  0  0  0  0  0  0  0  0  0  0
   69.1217   52.8567   55.8965 C   0  0  0  0  0  0  0  0  0  0  0  0
   69.4020   51.7865   56.9523 C   0  0  0  0  0  0  0  0  0  0  0  0
   70.1781   50.7733   56.1104 C   0  0  0  0  0  0  0  0  0  0  0  0
  7  8  2  0
  8  9  1  0
  8  1  1  0
  9 10  1  0
 10 11  2  0
 11 12  1  0
 12 13  2  0
 12 17  1  0
 13 14  1  0
 14 15  2  0
 15 16  1  0
 16 17  2  0
  1  2  2  0
  1  6  1  0
  2  3  1  0
  3  4  2  0
  4  5  1  0
  5 18  1  0
  5  6  2  0
 18 19  2  0
 18 20  2  0
 18 21  1  0
 21 22  1  0
 21 25  1  0
 22 23  1  0
 23 24  1  0
 24 25  1  0
M  END
>  <minimizedAffinity>  (683) 
-9.14193

$$$$
data/reference_output_2/data/smiles/148674.pdb
     RDKit          3D

 28 30  0  0  0  0  0  0  0  0999 V2000
   68.7172   39.5612   58.5910 N   0  0  0  0  0  0  0  0  0  0  0  0
   68.3831   40.7040   57.9647 C   0  0  0  0  0  0  0  0  0  0  0  0
   67.1454   40.9408   57.7479 O   0  0  0  0  0  0  0  0  0  0  0  0
   69.3040   41.6506   57.5361 C   0  0  0  0  0  0  0  0  0  0  0  0
   70.6193   41.3530   57.7922 C   0  0  0  0  0  0  0  0  0  0  0  0
   71.6187   42.2058   57.4181 O   0  0  0  0  0  0  0  0  0  0  0  0
   70.9592   40.1593   58.4443 C   0  0  0  0  0  0  0  0  0  0  0  0
   72.2926   39.8636   58.7031 C   0  0  0  0  0  0  0  0  0  0  0  0
   72.6619   38.6906   59.3491 C   0  0  0  0  0  0  0  0  0  0  0  0
   71.6693   37.7934   59.7466 C   0  0  0  0  0  0  0  0  0  0  0  0
   70.3445   38.0784   59.4954 C   0  0  0  0  0  0  0  0  0  0  0  0
   70.0188   39.2571   58.8490 C   0  0  0  0  0  0  0  0  0  0  0  0
   68.8236   42.8436   56.8731 C   0  0  0  0  0  0  0  0  0  0  0  0
   67.9686   42.7192   55.9217 O   0  0  0  0  0  0  0  0  0  0  0  0
   69.1954   44.1768   57.1554 N   0  0  0  0  0  0  0  0  0  0  0  0
   68.6442   45.2668   56.4220 N   0  0  0  0  0  0  0  0  0  0  0  0
   69.1974   46.5744   56.5352 C   0  0  0  0  0  0  0  0  0  0  0  0
   70.1847   46.6746   57.3172 O   0  0  0  0  0  0  0  0  0  0  0  0
   68.6779   47.7425   55.8077 C   0  0  0  0  0  0  0  0  0  0  0  0
   68.7368   47.4529   54.3523 C   0  0  0  0  0  0  0  0  0  0  0  0
   69.5676   48.1637   53.5015 C   0  0  0  0  0  0  0  0  0  0  0  0
   69.6195   47.8908   52.1500 C   0  0  0  0  0  0  0  0  0  0  0  0
   68.8168   46.8802   51.6371 C   0  0  0  0  0  0  0  0  0  0  0  0
   67.9785   46.1543   52.4575 C   0  0  0  0  0  0  0  0  0  0  0  0
   67.9448   46.4452   53.8064 C   0  0  0  0  0  0  0  0  0  0  0  0
   67.6633   38.6672   58.9814 C   0  0  0  0  0  0  0  0  0  0  0  0
   65.7088   39.1891   60.4608 C   0  0  0  0  0  0  0  0  0  0  0  0
   67.2042   39.0067   60.3865 C   0  0  0  0  0  0  0  0  0  0  0  0
 27 28  1  0
 28 26  1  0
 26  1  1  0
  1  2  1  0
  1 12  1  0
  2  3  2  0
  2  4  1  0
  4 13  1  0
  4  5  2  0
 13 14  2  0
 13 15  1  0
 15 16  1  0
 16 17  1  0
 17 18  2  0
 17 19  1  0
 19 20  1  0
 20 21  2  0
 20 25  1  0
 21 22  1  0
 22 23  2  0
 23 24  1  0
 24 25  2  0
  5  6  1  0
  5  7  1  0
  7  8  1  0
  7 12  2  0
  8  9  2  0
  9 10  1  0
 10 11  2  0
 11 12  1  0
M  END
>  <minimizedAffinity>  (684) 
-8.55602

$$$$
data/reference_output_2/data/smiles/148732.pdb
     RDKit          3D

 27 30  0  0  0  0  0  0  0  0999 V2000
   68.8256   41.5900   57.5084 C   0  0  0  0  0  0  0  0  0  0  0  0
   67.4387   41.8588   56.3110 S   0  0  0  0  0  0  0  0  0  0  0  0
   68.1343   43.5768   55.8780 C   0  0  0  0  0  0  0  0  0  0  0  0
   69.0635   43.5975   56.5688 N   0  0  0  0  0  0  0  0  0  0  0  0
   69.5198   42.7218   57.4018 N   0  0  0  0  0  0  0  0  0  0  0  0
   70.7104   42.8791   58.2318 C   0  0  0  0  0  0  0  0  0  0  0  0
   71.9570   42.5668   57.7163 C   0  0  0  0  0  0  0  0  0  0  0  0
   73.1100   42.7066   58.4688 C   0  0  0  0  0  0  0  0  0  0  0  0
   72.9852   43.1666   59.7510 C   0  0  0  0  0  0  0  0  0  0  0  0
   71.7760   43.4909   60.3150 C   0  0  0  0  0  0  0  0  0  0  0  0
   70.6427   43.3357   59.5237 C   0  0  0  0  0  0  0  0  0  0  0  0
   69.9604   39.5170   58.0634 C   0  0  0  0  0  0  0  0  0  0  0  0
   68.9744   40.3649   58.2832 C   0  0  0  0  0  0  0  0  0  0  0  0
   70.8169   34.6149   60.9430 C   0  0  0  0  0  0  0  0  0  0  0  0
   70.6139   35.8742   60.1852 C   0  0  0  0  0  0  0  0  0  0  0  0
   71.4304   36.2424   59.1447 C   0  0  0  0  0  0  0  0  0  0  0  0
   71.2108   37.4189   58.4676 C   0  0  0  0  0  0  0  0  0  0  0  0
   70.1673   38.2846   58.7955 C   0  0  0  0  0  0  0  0  0  0  0  0
   69.3496   37.9262   59.8290 C   0  0  0  0  0  0  0  0  0  0  0  0
   69.5715   36.7260   60.5216 C   0  0  0  0  0  0  0  0  0  0  0  0
   67.3619   44.3264   54.8921 N   0  0  0  0  0  0  0  0  0  0  0  0
   67.9298   45.4683   54.2488 C   0  0  0  0  0  0  0  0  0  0  0  0
   68.4893   46.4979   54.9707 C   0  0  0  0  0  0  0  0  0  0  0  0
   69.0664   47.6072   54.3412 C   0  0  0  0  0  0  0  0  0  0  0  0
   69.0708   47.6619   52.9746 C   0  0  0  0  0  0  0  0  0  0  0  0
   68.5086   46.6253   52.2629 C   0  0  0  0  0  0  0  0  0  0  0  0
   67.9410   45.5338   52.8930 C   0  0  0  0  0  0  0  0  0  0  0  0
 14 15  1  0
 15 16  2  0
 15 20  1  0
 16 17  1  0
 17 18  2  0
 18 12  1  0
 18 19  1  0
 12 13  2  0
 13  1  1  0
  1  2  1  0
  1  5  2  0
  2  3  1  0
  3 21  1  0
  3  4  2  0
 21 22  1  0
 22 23  2  0
 22 27  1  0
 23 24  1  0
 24 25  2  0
 25 26  1  0
 26 27  2  0
  4  5  1  0
  5  6  1  0
  6  7  2  0
  6 11  1  0
  7  8  1  0
  8  9  2  0
  9 10  1  0
 10 11  2  0
 19 20  2  0
M  CHG  1   5   1
M  END
>  <minimizedAffinity>  (685) 
-8.54464

$$$$
data/reference_output_2/data/smiles/148928.pdb
     RDKit          3D

 27 30  0  0  0  0  0  0  0  0999 V2000
   69.3261   48.3399   57.0472 C   0  0  0  0  0  0  0  0  0  0  0  0
   68.5886   49.4730   57.3115 C   0  0  0  0  0  0  0  0  0  0  0  0
   69.1206   50.3732   58.2091 C   0  0  0  0  0  0  0  0  0  0  0  0
   70.3394   50.1583   58.8245 C   0  0  0  0  0  0  0  0  0  0  0  0
   71.0917   49.0284   58.5715 C   0  0  0  0  0  0  0  0  0  0  0  0
   70.5487   48.1352   57.6705 C   0  0  0  0  0  0  0  0  0  0  0  0
   69.4396   47.9893   52.4532 C   0  0  0  0  0  0  0  0  0  0  0  0
   68.8547   46.8084   52.0167 C   0  0  0  0  0  0  0  0  0  0  0  0
   68.3220   45.8956   52.9115 C   0  0  0  0  0  0  0  0  0  0  0  0
   68.3606   46.1399   54.2673 C   0  0  0  0  0  0  0  0  0  0  0  0
   67.9471   45.4785   55.3607 N   0  0  0  0  0  0  0  0  0  0  0  0
   68.2383   46.1725   56.4271 N   0  0  0  0  0  0  0  0  0  0  0  0
   68.8573   47.3244   56.1105 C   0  0  0  0  0  0  0  0  0  0  0  0
   68.9428   47.3182   54.7356 C   0  0  0  0  0  0  0  0  0  0  0  0
   69.4586   48.1960   53.8226 C   0  0  0  0  0  0  0  0  0  0  0  0
   69.7573   50.3320   51.7624 N   0  0  0  0  0  0  0  0  0  0  0  0
   70.0031   48.9588   51.5356 C   0  0  0  0  0  0  0  0  0  0  0  0
   70.6870   48.6077   50.5696 O   0  0  0  0  0  0  0  0  0  0  0  0
   72.3515   48.7884   59.1945 N   0  0  0  0  0  0  0  0  0  0  0  0
   72.5620   47.8797   60.2594 C   0  0  0  0  0  0  0  0  0  0  0  0
   71.5352   47.2612   60.6495 O   0  0  0  0  0  0  0  0  0  0  0  0
   73.8639   47.6330   60.9028 C   0  0  0  0  0  0  0  0  0  0  0  0
   74.8603   48.6440   60.3231 C   0  0  0  0  0  0  0  0  0  0  0  0
   76.2371   48.1482   60.7595 C   0  0  0  0  0  0  0  0  0  0  0  0
   76.1687   47.1777   61.7922 N   0  0  0  0  0  0  0  0  0  0  0  0
   75.2766   47.4654   62.8615 C   0  0  0  0  0  0  0  0  0  0  0  0
   73.8673   47.8250   62.3812 C   0  0  0  0  0  0  0  0  0  0  0  0
 16 17  1  0
 17 18  2  0
 17  7  1  0
  7  8  2  0
  7 15  1  0
  8  9  1  0
  9 10  2  0
 10 11  1  0
 10 14  1  0
 11 12  1  0
 12 13  2  0
 13  1  1  0
 13 14  1  0
  1  2  2  0
  1  6  1  0
  2  3  1  0
  3  4  2  0
  4  5  1  0
  5 19  1  0
  5  6  2  0
 19 20  1  0
 20 21  2  0
 20 22  1  0
 22 23  1  0
 22 27  1  0
 23 24  1  0
 24 25  1  0
 25 26  1  0
 26 27  1  0
 14 15  2  0
M  CHG  1  25   1
M  END
>  <minimizedAffinity>  (686) 
-9.03070

$$$$
data/reference_output_2/data/smiles/149221.pdb
     RDKit          3D

 27 30  0  0  0  0  0  0  0  0999 V2000
   69.6441   40.2609   58.3283 N   0  0  0  0  0  0  0  0  0  0  0  0
   70.2399   41.4007   59.0340 C   0  0  0  0  0  0  0  0  0  0  0  0
   70.4523   42.5730   58.1248 C   0  0  0  0  0  0  0  0  0  0  0  0
   69.3334   42.8988   57.2413 C   0  0  0  0  0  0  0  0  0  0  0  0
   68.9572   44.0627   56.6227 C   0  0  0  0  0  0  0  0  0  0  0  0
   67.8361   43.7272   55.8969 N   0  0  0  0  0  0  0  0  0  0  0  0
   67.5577   42.4697   56.0631 N   0  0  0  0  0  0  0  0  0  0  0  0
   68.4541   41.8794   56.8966 C   0  0  0  0  0  0  0  0  0  0  0  0
   68.5735   40.5297   57.4201 C   0  0  0  0  0  0  0  0  0  0  0  0
   67.7441   39.6743   57.0598 O   0  0  0  0  0  0  0  0  0  0  0  0
   71.8549   35.0890   59.3720 C   0  0  0  0  0  0  0  0  0  0  0  0
   71.2798   36.4290   59.0888 C   0  0  0  0  0  0  0  0  0  0  0  0
   70.1329   36.8723   59.6924 C   0  0  0  0  0  0  0  0  0  0  0  0
   69.5682   38.1027   59.4598 C   0  0  0  0  0  0  0  0  0  0  0  0
   70.1735   38.9770   58.5603 C   0  0  0  0  0  0  0  0  0  0  0  0
   71.3404   38.5238   57.9482 C   0  0  0  0  0  0  0  0  0  0  0  0
   71.8870   37.2740   58.2044 C   0  0  0  0  0  0  0  0  0  0  0  0
   69.4946   45.3539   56.6531 N   0  0  0  0  0  0  0  0  0  0  0  0
   68.9787   46.8220   56.0373 S   0  0  0  0  0  0  0  0  0  0  0  0
   69.8238   48.0053   56.4326 O   0  0  0  0  0  0  0  0  0  0  0  0
   67.5831   47.1359   56.6271 O   0  0  0  0  0  0  0  0  0  0  0  0
   68.6992   46.7754   54.3199 C   0  0  0  0  0  0  0  0  0  0  0  0
   69.3774   47.6571   53.4664 C   0  0  0  0  0  0  0  0  0  0  0  0
   69.2160   47.6167   52.0974 C   0  0  0  0  0  0  0  0  0  0  0  0
   68.3615   46.6818   51.5558 C   0  0  0  0  0  0  0  0  0  0  0  0
   67.6632   45.7839   52.3568 C   0  0  0  0  0  0  0  0  0  0  0  0
   67.8617   45.8654   53.7323 C   0  0  0  0  0  0  0  0  0  0  0  0
 11 12  1  0
 12 13  2  0
 12 17  1  0
 13 14  1  0
 14 15  2  0
 15  1  1  0
 15 16  1  0
  1  2  1  0
  1  9  1  0
  2  3  1  0
  3  4  1  0
  4  5  1  0
  4  8  2  0
  5 18  1  0
  5  6  2  0
 18 19  1  0
 19 20  2  0
 19 21  2  0
 19 22  1  0
 22 23  2  0
 22 27  1  0
 23 24  1  0
 24 25  2  0
 25 26  1  0
 26 27  2  0
  6  7  1  0
  7  8  1  0
  8  9  1  0
  9 10  2  0
 16 17  2  0
M  END
>  <minimizedAffinity>  (687) 
-10.13291

$$$$
data/reference_output_2/data/smiles/149278.pdb
     RDKit          3D

 30 33  0  0  0  0  0  0  0  0999 V2000
   73.8327   47.8735   58.6091 N   0  0  0  0  0  0  0  0  0  0  0  0
   75.2120   47.9567   58.0876 C   0  0  0  0  0  0  0  0  0  0  0  0
   75.4179   49.4026   57.5842 C   0  0  0  0  0  0  0  0  0  0  0  0
   74.1245   49.9500   57.2120 N   0  0  0  0  0  0  0  0  0  0  0  0
   73.8089   50.1958   55.8530 C   0  0  0  0  0  0  0  0  0  0  0  0
   74.6569   49.9434   54.9521 O   0  0  0  0  0  0  0  0  0  0  0  0
   73.1968   50.2194   58.2916 C   0  0  0  0  0  0  0  0  0  0  0  0
   73.3849   49.0580   59.2793 C   0  0  0  0  0  0  0  0  0  0  0  0
   70.6888   43.1343   57.8868 C   0  0  0  0  0  0  0  0  0  0  0  0
   71.5237   44.3488   58.0732 C   0  0  0  0  0  0  0  0  0  0  0  0
   72.8987   44.3309   57.9794 C   0  0  0  0  0  0  0  0  0  0  0  0
   73.6666   45.4890   58.1579 C   0  0  0  0  0  0  0  0  0  0  0  0
   73.0694   46.6966   58.4374 C   0  0  0  0  0  0  0  0  0  0  0  0
   71.6987   46.7032   58.5298 C   0  0  0  0  0  0  0  0  0  0  0  0
   70.9206   45.5548   58.3532 C   0  0  0  0  0  0  0  0  0  0  0  0
   72.5099   50.7436   55.4302 C   0  0  0  0  0  0  0  0  0  0  0  0
   72.0976   50.2547   54.1642 N   0  0  0  0  0  0  0  0  0  0  0  0
   70.4690   50.4196   53.7864 S   0  0  0  0  0  0  0  0  0  0  0  0
   69.7078   50.9020   54.9902 O   0  0  0  0  0  0  0  0  0  0  0  0
   70.2749   51.4306   52.6966 O   0  0  0  0  0  0  0  0  0  0  0  0
   69.7843   48.8569   53.3317 C   0  0  0  0  0  0  0  0  0  0  0  0
   69.7479   48.4351   52.0126 C   0  0  0  0  0  0  0  0  0  0  0  0
   69.2287   47.2371   51.6158 C   0  0  0  0  0  0  0  0  0  0  0  0
   68.7095   46.3944   52.5772 C   0  0  0  0  0  0  0  0  0  0  0  0
   68.7179   46.7595   53.9016 C   0  0  0  0  0  0  0  0  0  0  0  0
   68.1893   45.8893   54.8322 C   0  0  0  0  0  0  0  0  0  0  0  0
   68.2075   46.2669   56.1347 N   0  0  0  0  0  0  0  0  0  0  0  0
   68.7287   47.4627   56.5056 C   0  0  0  0  0  0  0  0  0  0  0  0
   69.2616   48.3452   55.5845 C   0  0  0  0  0  0  0  0  0  0  0  0
   69.2570   47.9891   54.2617 C   0  0  0  0  0  0  0  0  0  0  0  0
  9 10  1  0
 10 11  2  0
 10 15  1  0
 11 12  1  0
 12 13  2  0
 13  1  1  0
 13 14  1  0
  1  2  1  0
  1  8  1  0
  2  3  1  0
  3  4  1  0
  4  5  1  0
  4  7  1  0
  5  6  2  0
  5 16  1  0
 16 17  1  0
 17 18  1  0
 18 19  2  0
 18 20  2  0
 18 21  1  0
 21 22  2  0
 21 30  1  0
 22 23  1  0
 23 24  2  0
 24 25  1  0
 25 26  1  0
 25 30  2  0
 26 27  2  0
 27 28  1  0
 28 29  2  0
 29 30  1  0
  7  8  1  0
 14 15  2  0
M  END
>  <minimizedAffinity>  (688) 
-8.85270

$$$$
data/reference_output_2/data/smiles/149358.pdb
     RDKit          3D

 26 29  0  0  0  0  0  0  0  0999 V2000
   69.5825   46.7887   57.1456 C   0  0  0  0  0  0  0  0  0  0  0  0
   69.6247   48.2952   57.7222 S   0  0  0  0  0  0  0  0  0  0  0  0
   70.6588   45.8930   57.3993 N   0  0  0  0  0  0  0  0  0  0  0  0
   70.6602   44.9540   58.4668 C   0  0  0  0  0  0  0  0  0  0  0  0
   69.6749   44.8924   59.2352 O   0  0  0  0  0  0  0  0  0  0  0  0
   71.8292   44.0782   58.6389 C   0  0  1  0  0  0  0  0  0  0  0  0
   73.0842   44.8228   58.2273 C   0  0  0  0  0  0  0  0  0  0  0  0
   74.2776   43.8953   58.2743 C   0  0  2  0  0  0  0  0  0  0  0  0
   74.0043   42.6759   57.4265 C   0  0  0  0  0  0  0  0  0  0  0  0
   72.8347   41.9230   57.9770 C   0  0  1  0  0  0  0  0  0  0  0  0
   73.0953   41.5604   59.4180 C   0  0  0  0  0  0  0  0  0  0  0  0
   73.2388   42.8226   60.2390 C   0  0  1  0  0  0  0  0  0  0  0  0
   74.4791   43.5295   59.7433 C   0  0  0  0  0  0  0  0  0  0  0  0
   72.0289   43.7171   60.1025 C   0  0  0  0  0  0  0  0  0  0  0  0
   71.6140   42.8180   57.8711 C   0  0  0  0  0  0  0  0  0  0  0  0
   68.4792   46.3379   56.3736 N   0  0  0  0  0  0  0  0  0  0  0  0
   69.2574   47.5933   52.9598 C   0  0  0  0  0  0  0  0  0  0  0  0
   68.5411   46.7079   52.2061 C   0  0  0  0  0  0  0  0  0  0  0  0
   67.8085   45.7056   52.8005 C   0  0  0  0  0  0  0  0  0  0  0  0
   67.8104   45.6118   54.1624 C   0  0  0  0  0  0  0  0  0  0  0  0
   68.5244   46.4924   54.9449 C   0  0  0  0  0  0  0  0  0  0  0  0
   69.2456   47.4816   54.3385 C   0  0  0  0  0  0  0  0  0  0  0  0
   71.4644   49.3437   53.2207 N   0  0  0  0  0  0  0  0  0  0  0  0
   70.1649   48.8470   52.1688 S   0  0  0  0  0  0  0  0  0  0  0  0
   69.2891   50.0665   52.0133 O   0  0  0  0  0  0  0  0  0  0  0  0
   70.6869   48.4605   50.8348 O   0  0  0  0  0  0  0  0  0  0  0  0
 23 24  1  0
 24 25  2  0
 24 26  2  0
 24 17  1  0
 17 18  2  0
 17 22  1  0
 18 19  1  0
 19 20  2  0
 20 21  1  0
 21 16  1  0
 21 22  2  0
 16  1  1  0
  1  2  2  0
  1  3  1  0
  3  4  1  0
  4  5  2  0
  6  4  1  1
  6  7  1  0
  6 14  1  0
  6 15  1  0
  8  7  1  1
  8  9  1  0
  8 13  1  0
 10  9  1  1
 10 11  1  0
 10 15  1  0
 12 11  1  6
 12 13  1  0
 12 14  1  0
M  END
>  <minimizedAffinity>  (689) 
-8.75354

$$$$
data/reference_output_2/data/smiles/149378.pdb
     RDKit          3D

 25 28  0  0  0  0  0  0  0  0999 V2000
   69.3971   42.5726   57.5065 O   0  0  0  0  0  0  0  0  0  0  0  0
   68.5111   41.9319   56.9142 C   0  0  0  0  0  0  0  0  0  0  0  0
   67.7179   42.8109   56.0409 N   0  0  0  0  0  0  0  0  0  0  0  0
   68.0571   44.1613   56.0049 N   0  0  0  0  0  0  0  0  0  0  0  0
   68.0614   44.8853   54.9553 C   0  0  0  0  0  0  0  0  0  0  0  0
   68.4211   46.3011   54.9398 C   0  0  0  0  0  0  0  0  0  0  0  0
   68.4016   47.2121   55.9800 C   0  0  0  0  0  0  0  0  0  0  0  0
   68.8111   48.4143   55.5336 N   0  0  0  0  0  0  0  0  0  0  0  0
   69.1130   48.3511   54.2053 C   0  0  0  0  0  0  0  0  0  0  0  0
   69.5648   49.2803   53.2954 C   0  0  0  0  0  0  0  0  0  0  0  0
   69.7838   48.9088   51.9923 C   0  0  0  0  0  0  0  0  0  0  0  0
   69.5413   47.5963   51.6247 C   0  0  0  0  0  0  0  0  0  0  0  0
   69.0899   46.6635   52.5310 C   0  0  0  0  0  0  0  0  0  0  0  0
   68.8650   47.0309   53.8559 C   0  0  0  0  0  0  0  0  0  0  0  0
   68.2127   40.5384   56.9945 C   0  0  0  0  0  0  0  0  0  0  0  0
   67.7530   40.0451   55.8763 O   0  0  0  0  0  0  0  0  0  0  0  0
   68.3099   39.5673   58.0366 C   0  0  0  0  0  0  0  0  0  0  0  0
   67.2280   39.2141   58.8578 C   0  0  0  0  0  0  0  0  0  0  0  0
   67.6135   38.2924   59.7320 N   0  0  0  0  0  0  0  0  0  0  0  0
   68.9017   38.0142   59.5326 C   0  0  0  0  0  0  0  0  0  0  0  0
   69.7377   37.1394   60.1746 C   0  0  0  0  0  0  0  0  0  0  0  0
   71.0599   37.0134   59.7921 C   0  0  0  0  0  0  0  0  0  0  0  0
   71.5384   37.7672   58.7637 C   0  0  0  0  0  0  0  0  0  0  0  0
   70.6798   38.6463   58.1245 C   0  0  0  0  0  0  0  0  0  0  0  0
   69.3626   38.7970   58.4772 C   0  0  0  0  0  0  0  0  0  0  0  0
  1  2  2  0
  2  3  1  0
  2 15  1  0
  3  4  1  0
  4  5  2  0
  5  6  1  0
  6  7  2  0
  6 14  1  0
  7  8  1  0
  8  9  1  0
  9 10  1  0
  9 14  2  0
 10 11  2  0
 11 12  1  0
 12 13  2  0
 13 14  1  0
 15 16  2  0
 15 17  1  0
 17 18  2  0
 17 25  1  0
 18 19  1  0
 19 20  1  0
 20 21  1  0
 20 25  2  0
 21 22  2  0
 22 23  1  0
 23 24  2  0
 24 25  1  0
M  END
>  <minimizedAffinity>  (690) 
-9.05325

$$$$
data/reference_output_2/data/smiles/149405.pdb
     RDKit          3D

 28 31  0  0  0  0  0  0  0  0999 V2000
   70.9248   46.3376   58.5368 C   0  0  0  0  0  0  0  0  0  0  0  0
   71.9070   47.0120   59.2599 C   0  0  0  0  0  0  0  0  0  0  0  0
   72.0090   48.3825   59.1676 C   0  0  0  0  0  0  0  0  0  0  0  0
   71.1633   49.1165   58.3755 C   0  0  0  0  0  0  0  0  0  0  0  0
   70.1922   48.4830   57.6548 C   0  0  0  0  0  0  0  0  0  0  0  0
   70.0993   47.1084   57.7552 C   0  0  0  0  0  0  0  0  0  0  0  0
   71.7806   44.1567   58.2020 O   0  0  0  0  0  0  0  0  0  0  0  0
   70.8234   44.8897   58.6377 C   0  0  0  0  0  0  0  0  0  0  0  0
   69.7273   44.1844   59.1925 N   0  0  0  0  0  0  0  0  0  0  0  0
   69.6963   42.7279   59.2606 C   0  0  0  0  0  0  0  0  0  0  0  0
   68.9302   42.1602   58.1112 C   0  0  0  0  0  0  0  0  0  0  0  0
   68.8200   40.7933   57.9672 C   0  0  0  0  0  0  0  0  0  0  0  0
   68.1081   40.2529   56.9057 C   0  0  0  0  0  0  0  0  0  0  0  0
   67.5079   41.0972   55.9910 C   0  0  0  0  0  0  0  0  0  0  0  0
   67.6351   42.4732   56.1618 C   0  0  0  0  0  0  0  0  0  0  0  0
   68.3297   42.9421   57.1980 N   0  0  0  0  0  0  0  0  0  0  0  0
   69.1196   49.3932   56.6532 S   0  0  0  0  0  0  0  0  0  0  0  0
   69.4917   50.8671   56.7501 O   0  0  0  0  0  0  0  0  0  0  0  0
   67.7077   49.2947   57.1553 O   0  0  0  0  0  0  0  0  0  0  0  0
   69.2484   48.9834   54.9808 N   0  0  0  0  0  0  0  0  0  0  0  0
   69.8546   49.8381   53.9819 C   0  0  0  0  0  0  0  0  0  0  0  0
   69.8498   49.0936   52.6906 C   0  0  0  0  0  0  0  0  0  0  0  0
   69.1322   47.8214   52.9825 C   0  0  0  0  0  0  0  0  0  0  0  0
   68.7811   46.7572   52.1840 C   0  0  0  0  0  0  0  0  0  0  0  0
   68.1058   45.6649   52.6869 C   0  0  0  0  0  0  0  0  0  0  0  0
   67.7730   45.6318   54.0227 C   0  0  0  0  0  0  0  0  0  0  0  0
   68.1307   46.7100   54.8227 C   0  0  0  0  0  0  0  0  0  0  0  0
   68.8102   47.8112   54.3208 C   0  0  0  0  0  0  0  0  0  0  0  0
  7  8  2  0
  8  9  1  0
  8  1  1  0
  9 10  1  0
 10 11  1  0
 11 12  2  0
 11 16  1  0
 12 13  1  0
 13 14  2  0
 14 15  1  0
 15 16  2  0
  1  2  2  0
  1  6  1  0
  2  3  1  0
  3  4  2  0
  4  5  1  0
  5 17  1  0
  5  6  2  0
 17 18  2  0
 17 19  2  0
 17 20  1  0
 20 21  1  0
 20 28  1  0
 21 22  1  0
 22 23  1  0
 23 24  1  0
 23 28  2  0
 24 25  2  0
 25 26  1  0
 26 27  2  0
 27 28  1  0
M  END
>  <minimizedAffinity>  (691) 
-8.73754

$$$$
data/reference_output_2/data/smiles/149618.pdb
     RDKit          3D

 28 31  0  0  0  0  0  0  0  0999 V2000
   69.0335   40.2209   57.7733 C   0  0  0  0  0  0  0  0  0  0  0  0
   67.9630   40.0903   56.9077 C   0  0  0  0  0  0  0  0  0  0  0  0
   67.4895   41.1869   56.2189 C   0  0  0  0  0  0  0  0  0  0  0  0
   68.0781   42.4182   56.3861 C   0  0  0  0  0  0  0  0  0  0  0  0
   69.1650   42.6014   57.2507 C   0  0  0  0  0  0  0  0  0  0  0  0
   69.5940   41.4835   57.9089 C   0  0  0  0  0  0  0  0  0  0  0  0
   73.0187   36.3044   57.6711 C   0  0  0  0  0  0  0  0  0  0  0  0
   72.0233   36.3065   58.7190 N   0  0  0  0  0  0  0  0  0  0  0  0
   71.9778   35.4002   59.7157 C   0  0  0  0  0  0  0  0  0  0  0  0
   72.7767   34.4205   59.8979 O   0  0  0  0  0  0  0  0  0  0  0  0
   70.9328   35.7137   60.4884 N   0  0  0  0  0  0  0  0  0  0  0  0
   70.3374   36.8096   59.9706 C   0  0  0  0  0  0  0  0  0  0  0  0
   69.2671   37.5490   60.3237 N   0  0  0  0  0  0  0  0  0  0  0  0
   68.8663   38.6209   59.6256 C   0  0  0  0  0  0  0  0  0  0  0  0
   69.5140   39.0546   58.4895 C   0  0  0  0  0  0  0  0  0  0  0  0
   70.6092   38.3128   58.1112 C   0  0  0  0  0  0  0  0  0  0  0  0
   71.0262   37.2039   58.8324 C   0  0  0  0  0  0  0  0  0  0  0  0
   69.7475   43.9292   57.3899 C   0  0  0  0  0  0  0  0  0  0  0  0
   70.8140   44.0682   58.0195 O   0  0  0  0  0  0  0  0  0  0  0  0
   69.1491   45.0857   56.8343 N   0  0  0  0  0  0  0  0  0  0  0  0
   69.7109   46.4121   56.9588 C   0  0  0  0  0  0  0  0  0  0  0  0
   68.9089   47.4771   56.2506 C   0  0  0  0  0  0  0  0  0  0  0  0
   68.7618   47.1929   54.8041 C   0  0  0  0  0  0  0  0  0  0  0  0
   69.4089   47.9815   53.8793 C   0  0  0  0  0  0  0  0  0  0  0  0
   69.2766   47.7202   52.5109 C   0  0  0  0  0  0  0  0  0  0  0  0
   68.5090   46.6855   52.0595 C   0  0  0  0  0  0  0  0  0  0  0  0
   67.8514   45.8851   52.9951 C   0  0  0  0  0  0  0  0  0  0  0  0
   67.9908   46.1540   54.3424 C   0  0  0  0  0  0  0  0  0  0  0  0
  7  8  1  0
  8  9  1  0
  8 17  1  0
  9 10  2  0
  9 11  1  0
 11 12  1  0
 12 13  1  0
 12 17  2  0
 13 14  2  0
 14 15  1  0
 15  1  1  0
 15 16  2  0
  1  2  2  0
  1  6  1  0
  2  3  1  0
  3  4  2  0
  4  5  1  0
  5 18  1  0
  5  6  2  0
 18 19  2  0
 18 20  1  0
 20 21  1  0
 21 22  1  0
 22 23  1  0
 23 24  2  0
 23 28  1  0
 24 25  1  0
 25 26  2  0
 26 27  1  0
 27 28  2  0
 16 17  1  0
M  END
>  <minimizedAffinity>  (692) 
-8.79683

$$$$
data/reference_output_2/data/smiles/149629.pdb
     RDKit          3D

 28 31  0  0  0  0  0  0  0  0999 V2000
   72.3065   45.6548   58.5314 C   0  0  0  0  0  0  0  0  0  0  0  0
   71.2327   44.9494   58.0500 C   0  0  0  0  0  0  0  0  0  0  0  0
   70.0923   45.5902   57.5420 C   0  0  0  0  0  0  0  0  0  0  0  0
   69.9901   46.9593   57.4989 C   0  0  0  0  0  0  0  0  0  0  0  0
   71.0692   47.6607   57.9832 C   0  0  0  0  0  0  0  0  0  0  0  0
   72.1892   47.0508   58.4822 C   0  0  0  0  0  0  0  0  0  0  0  0
   73.9085   43.5220   57.4338 O   0  0  0  0  0  0  0  0  0  0  0  0
   74.2585   44.0447   58.4911 C   0  0  0  0  0  0  0  0  0  0  0  0
   75.4518   43.5483   59.0926 N   0  0  0  0  0  0  0  0  0  0  0  0
   73.4984   45.0796   59.0487 N   0  0  0  0  0  0  0  0  0  0  0  0
   76.2107   42.4808   58.5046 C   0  0  0  0  0  0  0  0  0  0  0  0
   77.5846   42.8406   58.1098 C   0  0  0  0  0  0  0  0  0  0  0  0
   78.2321   43.9454   58.5707 C   0  0  0  0  0  0  0  0  0  0  0  0
   79.5323   44.2674   58.1797 C   0  0  0  0  0  0  0  0  0  0  0  0
   80.2217   43.4622   57.2940 C   0  0  0  0  0  0  0  0  0  0  0  0
   79.5708   42.3421   56.8240 C   0  0  0  0  0  0  0  0  0  0  0  0
   78.2878   42.0288   57.2129 C   0  0  0  0  0  0  0  0  0  0  0  0
   68.7946   47.6568   56.9506 C   0  0  0  0  0  0  0  0  0  0  0  0
   68.6018   47.3611   55.5508 N   0  0  0  0  0  0  0  0  0  0  0  0
   69.2510   47.8974   54.5077 C   0  0  0  0  0  0  0  0  0  0  0  0
   68.8062   47.3609   53.3236 C   0  0  0  0  0  0  0  0  0  0  0  0
   69.0735   47.4926   51.9784 C   0  0  0  0  0  0  0  0  0  0  0  0
   69.9547   48.3135   51.6208 O   0  0  0  0  0  0  0  0  0  0  0  0
   68.4413   46.7886   51.0254 N   0  0  0  0  0  0  0  0  0  0  0  0
   67.5020   45.9142   51.4269 C   0  0  0  0  0  0  0  0  0  0  0  0
   67.2115   45.7587   52.7461 N   0  0  0  0  0  0  0  0  0  0  0  0
   67.8254   46.4472   53.7187 C   0  0  0  0  0  0  0  0  0  0  0  0
   67.7377   46.4832   55.0656 N   0  0  0  0  0  0  0  0  0  0  0  0
  7  8  2  0
  8  9  1  0
  8 10  1  0
  9 11  1  0
 11 12  1  0
 12 13  2  0
 12 17  1  0
 13 14  1  0
 14 15  2  0
 15 16  1  0
 16 17  2  0
 10  1  1  0
  1  2  2  0
  1  6  1  0
  2  3  1  0
  3  4  2  0
  4 18  1  0
  4  5  1  0
 18 19  1  0
 19 20  1  0
 19 28  1  0
 20 21  2  0
 21 22  1  0
 21 27  1  0
 22 23  2  0
 22 24  1  0
 24 25  1  0
 25 26  2  0
 26 27  1  0
 27 28  2  0
  5  6  2  0
M  END
>  <minimizedAffinity>  (693) 
-8.55126

$$$$
data/reference_output_2/data/smiles/149653.pdb
     RDKit          3D

 21 23  0  0  0  0  0  0  0  0999 V2000
   70.3607   49.9829   53.5149 C   0  0  0  0  0  0  0  0  0  0  0  0
   71.6839   49.6464   53.4542 N   0  0  0  0  0  0  0  0  0  0  0  0
   72.6400   50.2612   54.0899 N   0  0  0  0  0  0  0  0  0  0  0  0
   72.3257   51.3022   54.8649 C   0  0  0  0  0  0  0  0  0  0  0  0
   73.2022   51.9338   55.4994 O   0  0  0  0  0  0  0  0  0  0  0  0
   71.0065   51.7457   55.0148 C   0  0  0  0  0  0  0  0  0  0  0  0
   70.0291   51.0623   54.3237 C   0  0  0  0  0  0  0  0  0  0  0  0
   68.6255   51.4181   54.5339 C   0  0  0  0  0  0  0  0  0  0  0  0
   68.3584   52.0234   55.9112 C   0  0  0  0  0  0  0  0  0  0  0  0
   69.3000   53.1224   56.2313 C   0  0  0  0  0  0  0  0  0  0  0  0
   70.7103   52.8926   55.8762 C   0  0  0  0  0  0  0  0  0  0  0  0
   69.3917   49.2883   52.6424 C   0  0  0  0  0  0  0  0  0  0  0  0
   68.5788   46.5787   55.1490 C   0  0  0  0  0  0  0  0  0  0  0  0
   68.9929   47.8174   54.6382 C   0  0  0  0  0  0  0  0  0  0  0  0
   68.9618   47.9998   53.2886 C   0  0  0  0  0  0  0  0  0  0  0  0
   68.5270   46.9722   52.4300 C   0  0  0  0  0  0  0  0  0  0  0  0
   68.1215   45.7607   52.9306 C   0  0  0  0  0  0  0  0  0  0  0  0
   68.1549   45.5818   54.3024 C   0  0  0  0  0  0  0  0  0  0  0  0
   67.7539   44.3917   54.8590 F   0  0  0  0  0  0  0  0  0  0  0  0
   69.6963   46.9823   57.3518 C   0  0  0  0  0  0  0  0  0  0  0  0
   68.6053   46.4139   56.5602 N   0  0  0  0  0  0  0  0  0  0  0  0
 20 21  1  0
 21 13  1  0
 13 14  2  0
 13 18  1  0
 14 15  1  0
 15 12  1  0
 15 16  2  0
 12  1  1  0
  1  2  2  0
  1  7  1  0
  2  3  1  0
  3  4  1  0
  4  5  2  0
  4  6  1  0
  6  7  2  0
  6 11  1  0
  7  8  1  0
  8  9  1  0
  9 10  1  0
 10 11  1  0
 16 17  1  0
 17 18  2  0
 18 19  1  0
M  END
>  <minimizedAffinity>  (694) 
-8.58725

$$$$
data/reference_output_2/data/smiles/149663.pdb
     RDKit          3D

 26 28  0  0  0  0  0  0  0  0999 V2000
   71.1839   45.9072   58.5277 S   0  0  0  0  0  0  0  0  0  0  0  0
   71.2111   46.2868   59.9833 O   0  0  0  0  0  0  0  0  0  0  0  0
   72.5985   45.9771   58.0374 O   0  0  0  0  0  0  0  0  0  0  0  0
   70.5122   44.3102   58.3262 C   0  0  0  0  0  0  0  0  0  0  0  0
   70.9622   43.2900   59.1368 C   0  0  0  0  0  0  0  0  0  0  0  0
   70.4651   41.9950   59.0232 C   0  0  0  0  0  0  0  0  0  0  0  0
   69.5045   41.7120   58.0879 C   0  0  0  0  0  0  0  0  0  0  0  0
   68.9728   40.4550   57.9237 C   0  0  0  0  0  0  0  0  0  0  0  0
   68.0054   40.1753   56.9794 C   0  0  0  0  0  0  0  0  0  0  0  0
   67.5841   41.2323   56.1874 C   0  0  0  0  0  0  0  0  0  0  0  0
   68.1118   42.4979   56.3431 C   0  0  0  0  0  0  0  0  0  0  0  0
   67.6402   43.4708   55.5234 F   0  0  0  0  0  0  0  0  0  0  0  0
   69.0757   42.7522   57.2920 C   0  0  0  0  0  0  0  0  0  0  0  0
   69.5782   44.0151   57.4202 N   0  0  0  0  0  0  0  0  0  0  0  0
   68.8462   47.4603   55.6722 C   0  0  0  0  0  0  0  0  0  0  0  0
   68.7302   48.7654   56.0784 C   0  0  0  0  0  0  0  0  0  0  0  0
   69.3564   49.2329   57.2375 C   0  0  0  0  0  0  0  0  0  0  0  0
   70.1086   48.3446   57.9836 C   0  0  0  0  0  0  0  0  0  0  0  0
   70.2414   47.0360   57.6017 C   0  0  0  0  0  0  0  0  0  0  0  0
   69.6144   46.6260   56.4658 C   0  0  0  0  0  0  0  0  0  0  0  0
   68.7270   46.9642   53.2674 C   0  0  0  0  0  0  0  0  0  0  0  0
   68.2236   46.9189   54.4856 C   0  0  0  0  0  0  0  0  0  0  0  0
   68.3817   46.8750   50.9626 O   0  0  0  0  0  0  0  0  0  0  0  0
   68.0701   46.4060   52.0911 C   0  0  0  0  0  0  0  0  0  0  0  0
   67.1076   45.3803   52.0997 N   0  0  0  0  0  0  0  0  0  0  0  0
   66.5194   44.8884   50.9848 O   0  0  0  0  0  0  0  0  0  0  0  0
 23 24  2  0
 24 21  1  0
 24 25  1  0
 21 22  2  0
 22 15  1  0
 15 16  2  0
 15 20  1  0
 16 17  1  0
 17 18  2  0
 18 19  1  0
 19  1  1  0
 19 20  2  0
  1  2  2  0
  1  3  2  0
  1  4  1  0
  4  5  2  0
  4 14  1  0
  5  6  1  0
  6  7  2  0
  7  8  1  0
  7 13  1  0
  8  9  2  0
  9 10  1  0
 10 11  2  0
 11 12  1  0
 11 13  1  0
 13 14  2  0
 25 26  1  0
M  END
>  <minimizedAffinity>  (695) 
-8.98490

$$$$
data/reference_output_2/data/smiles/149708.pdb
     RDKit          3D

 31 35  0  0  0  0  0  0  0  0999 V2000
   68.4441   47.6344   55.8472 C   0  0  2  0  0  0  0  0  0  0  0  0
   69.0728   48.4830   56.9040 C   0  0  0  0  0  0  0  0  0  0  0  0
   70.2291   47.8547   57.6058 C   0  0  0  0  0  0  0  0  0  0  0  0
   70.1670   46.4015   57.7499 C   0  0  0  0  0  0  0  0  0  0  0  0
   70.9867   45.7612   58.6471 C   0  0  0  0  0  0  0  0  0  0  0  0
   70.9265   44.3747   58.7826 C   0  0  0  0  0  0  0  0  0  0  0  0
   70.0606   43.5995   58.0392 C   0  0  0  0  0  0  0  0  0  0  0  0
   69.2370   44.2428   57.1378 C   0  0  0  0  0  0  0  0  0  0  0  0
   68.5020   43.2812   56.5502 N   0  0  0  0  0  0  0  0  0  0  0  0
   68.8512   42.0669   57.0650 C   0  0  0  0  0  0  0  0  0  0  0  0
   68.3054   40.7358   56.7163 C   0  0  0  0  0  0  0  0  0  0  0  0
   69.8132   42.2750   57.9829 N   0  0  0  0  0  0  0  0  0  0  0  0
   70.4649   41.2248   58.7714 C   0  0  0  0  0  0  0  0  0  0  0  0
   69.2993   45.6325   57.0038 C   0  0  0  0  0  0  0  0  0  0  0  0
   68.4816   46.2572   56.1125 O   0  0  0  0  0  0  0  0  0  0  0  0
   67.6982   45.8863   53.6714 C   0  0  0  0  0  0  0  0  0  0  0  0
   68.6671   46.9969   53.4624 C   0  0  0  0  0  0  0  0  0  0  0  0
   69.2125   47.1902   52.2101 C   0  0  0  0  0  0  0  0  0  0  0  0
   70.1173   48.1926   51.9274 C   0  0  0  0  0  0  0  0  0  0  0  0
   70.4686   49.0265   52.9789 C   0  0  0  0  0  0  0  0  0  0  0  0
   69.9367   48.8546   54.2382 C   0  0  0  0  0  0  0  0  0  0  0  0
   69.0319   47.8432   54.5012 C   0  0  0  0  0  0  0  0  0  0  0  0
   71.9020   46.5703   59.4327 C   0  0  0  0  0  0  0  0  0  0  0  0
   71.4199   47.2475   60.3769 O   0  0  0  0  0  0  0  0  0  0  0  0
   73.2805   46.5944   59.1452 N   0  0  0  0  0  0  0  0  0  0  0  0
   74.4439   47.2515   59.6870 C   0  0  0  0  0  0  0  0  0  0  0  0
   75.0416   47.2052   58.2779 C   0  0  0  0  0  0  0  0  0  0  0  0
   74.1412   45.9695   58.1773 C   0  0  1  0  0  0  0  0  0  0  0  0
   74.8751   44.7800   58.6271 C   0  0  0  0  0  0  0  0  0  0  0  0
   74.1372   43.7014   59.1740 N   0  0  0  0  0  0  0  0  0  0  0  0
   76.1090   44.6826   58.5453 O   0  0  0  0  0  0  0  0  0  0  0  0
 16 17  1  0
 17 18  2  0
 17 22  1  0
 18 19  1  0
 19 20  2  0
 20 21  1  0
 21 22  2  0
  1 22  1  6
  1  2  1  0
  1 15  1  0
  2  3  1  0
  3  4  1  0
  4  5  2  0
  4 14  1  0
  5 23  1  0
  5  6  1  0
 23 24  2  0
 23 25  1  0
 25 26  1  0
 25 28  1  0
 26 27  1  0
 27 28  1  0
 28 29  1  1
 29 30  1  0
 29 31  2  0
  6  7  2  0
  7  8  1  0
  7 12  1  0
  8  9  1  0
  8 14  2  0
  9 10  2  0
 10 11  1  0
 10 12  1  0
 12 13  1  0
 14 15  1  0
M  END
>  <minimizedAffinity>  (696) 
-8.50427

$$$$
data/reference_output_2/data/smiles/149725.pdb
     RDKit          3D

 25 27  0  0  0  0  0  0  0  0999 V2000
   70.2444   42.7862   57.3206 C   0  0  0  0  0  0  0  0  0  0  0  0
   69.8860   44.0349   56.9465 C   0  0  0  0  0  0  0  0  0  0  0  0
   68.6485   44.3442   56.3855 C   0  0  0  0  0  0  0  0  0  0  0  0
   67.7891   43.2823   56.2298 N   0  0  0  0  0  0  0  0  0  0  0  0
   68.1187   42.0370   56.5912 C   0  0  0  0  0  0  0  0  0  0  0  0
   69.3182   41.7804   57.1278 N   0  0  0  0  0  0  0  0  0  0  0  0
   71.5756   41.8621   59.1958 C   0  0  0  0  0  0  0  0  0  0  0  0
   72.8208   41.5757   59.7586 C   0  0  0  0  0  0  0  0  0  0  0  0
   74.0063   41.8477   59.1138 C   0  0  0  0  0  0  0  0  0  0  0  0
   73.9082   42.4226   57.8725 C   0  0  0  0  0  0  0  0  0  0  0  0
   72.7053   42.7050   57.3126 C   0  0  0  0  0  0  0  0  0  0  0  0
   71.4952   42.4289   57.9635 C   0  0  0  0  0  0  0  0  0  0  0  0
   69.8560   42.4567   60.8417 C   0  0  0  0  0  0  0  0  0  0  0  0
   70.4471   41.5455   59.9487 O   0  0  0  0  0  0  0  0  0  0  0  0
   68.2163   45.6234   56.0033 N   0  0  0  0  0  0  0  0  0  0  0  0
   68.3953   46.1900   54.7339 C   0  0  0  0  0  0  0  0  0  0  0  0
   67.9111   45.4397   53.6518 C   0  0  0  0  0  0  0  0  0  0  0  0
   68.0566   45.8307   52.3424 C   0  0  0  0  0  0  0  0  0  0  0  0
   68.7103   47.0173   52.0928 C   0  0  0  0  0  0  0  0  0  0  0  0
   69.1974   47.7730   53.1683 C   0  0  0  0  0  0  0  0  0  0  0  0
   69.0436   47.3680   54.4851 C   0  0  0  0  0  0  0  0  0  0  0  0
   70.0332   49.2818   52.6913 P   0  0  0  0  0  0  0  0  0  0  0  0
   71.4823   49.2893   53.0401 O   0  0  0  0  0  0  0  0  0  0  0  0
   69.8163   49.4609   51.0018 O   0  0  0  0  0  0  0  0  0  0  0  0
   69.2009   50.6071   53.3925 O   0  0  0  0  0  0  0  0  0  0  0  0
 13 14  1  0
 14  7  1  0
  7  8  2  0
  7 12  1  0
  8  9  1  0
  9 10  2  0
 10 11  1  0
 11 12  2  0
 12  1  1  0
  1  2  2  0
  1  6  1  0
  2  3  1  0
  3 15  1  0
  3  4  2  0
 15 16  1  0
 16 17  2  0
 16 21  1  0
 17 18  1  0
 18 19  2  0
 19 20  1  0
 20 22  1  0
 20 21  2  0
 22 23  2  0
 22 24  1  0
 22 25  1  0
  4  5  1  0
  5  6  2  0
M  END
>  <minimizedAffinity>  (697) 
-8.72370

$$$$
data/reference_output_2/data/smiles/149803.pdb
     RDKit          3D

 21 23  0  0  0  0  0  0  0  0999 V2000
   67.8069   45.0165   55.2608 N   0  0  0  0  0  0  0  0  0  0  0  0
   68.2344   46.3618   55.3036 C   0  0  0  0  0  0  0  0  0  0  0  0
   68.1772   47.0344   56.4979 N   0  0  0  0  0  0  0  0  0  0  0  0
   68.5668   48.3132   56.6080 C   0  0  0  0  0  0  0  0  0  0  0  0
   69.0277   48.9675   55.5326 N   0  0  0  0  0  0  0  0  0  0  0  0
   69.1147   48.3761   54.3237 C   0  0  0  0  0  0  0  0  0  0  0  0
   69.5929   49.0748   53.2311 C   0  0  0  0  0  0  0  0  0  0  0  0
   69.6779   48.4622   52.0013 C   0  0  0  0  0  0  0  0  0  0  0  0
   69.2837   47.1546   51.8718 C   0  0  0  0  0  0  0  0  0  0  0  0
   68.7978   46.4427   52.9753 C   0  0  0  0  0  0  0  0  0  0  0  0
   68.7083   47.0446   54.2110 C   0  0  0  0  0  0  0  0  0  0  0  0
   67.8069   42.7409   56.2545 C   0  0  0  0  0  0  0  0  0  0  0  0
   66.6315   42.5929   55.8203 O   0  0  0  0  0  0  0  0  0  0  0  0
   68.4198   43.9857   55.9720 N   0  0  0  0  0  0  0  0  0  0  0  0
   70.1277   38.3034   59.1409 C   0  0  0  0  0  0  0  0  0  0  0  0
   69.5574   39.4712   58.4068 C   0  0  0  0  0  0  0  0  0  0  0  0
   70.1639   40.7047   58.3872 C   0  0  0  0  0  0  0  0  0  0  0  0
   69.6064   41.7784   57.6917 C   0  0  0  0  0  0  0  0  0  0  0  0
   68.4260   41.6499   56.9949 C   0  0  0  0  0  0  0  0  0  0  0  0
   67.8297   40.4050   57.0250 C   0  0  0  0  0  0  0  0  0  0  0  0
   68.3746   39.3382   57.7104 C   0  0  0  0  0  0  0  0  0  0  0  0
 15 16  1  0
 16 17  2  0
 16 21  1  0
 17 18  1  0
 18 19  2  0
 19 12  1  0
 19 20  1  0
 12 13  2  0
 12 14  1  0
 14  1  1  0
  1  2  1  0
  2  3  2  0
  2 11  1  0
  3  4  1  0
  4  5  2  0
  5  6  1  0
  6  7  1  0
  6 11  2  0
  7  8  2  0
  8  9  1  0
  9 10  2  0
 10 11  1  0
 20 21  2  0
M  END
>  <minimizedAffinity>  (698) 
-8.64395

$$$$
data/reference_output_2/data/smiles/149850.pdb
     RDKit          3D

 33 36  0  0  0  0  0  0  0  0999 V2000
   70.7074   44.4832   58.9087 C   0  0  0  0  0  0  0  0  0  0  0  0
   70.7339   45.8149   58.7938 C   0  0  0  0  0  0  0  0  0  0  0  0
   71.4360   46.5286   59.6945 N   0  0  0  0  0  0  0  0  0  0  0  0
   71.4593   47.8660   59.5757 C   0  0  0  0  0  0  0  0  0  0  0  0
   72.1210   48.5236   60.4248 O   0  0  0  0  0  0  0  0  0  0  0  0
   70.7655   48.4860   58.5376 C   0  0  0  0  0  0  0  0  0  0  0  0
   70.7893   49.8045   58.4216 C   0  0  0  0  0  0  0  0  0  0  0  0
   70.0645   47.7898   57.6368 N   0  0  0  0  0  0  0  0  0  0  0  0
   70.0449   46.4426   57.7606 C   0  0  0  0  0  0  0  0  0  0  0  0
   69.3970   45.7591   56.9338 O   0  0  0  0  0  0  0  0  0  0  0  0
   70.0868   50.5135   57.3604 C   0  0  0  0  0  0  0  0  0  0  0  0
   69.2759   51.6072   57.5641 C   0  0  0  0  0  0  0  0  0  0  0  0
   68.6374   52.2342   56.5046 C   0  0  0  0  0  0  0  0  0  0  0  0
   68.8005   51.7789   55.2248 C   0  0  0  0  0  0  0  0  0  0  0  0
   69.6201   50.6690   54.9877 C   0  0  0  0  0  0  0  0  0  0  0  0
   70.2301   50.0773   56.0440 C   0  0  0  0  0  0  0  0  0  0  0  0
   69.7503   50.2149   53.6148 C   0  0  0  0  0  0  0  0  0  0  0  0
   70.1960   50.9925   52.7231 O   0  0  0  0  0  0  0  0  0  0  0  0
   69.3899   48.8812   53.1940 C   0  0  0  0  0  0  0  0  0  0  0  0
   69.7589   48.3535   51.9759 C   0  0  0  0  0  0  0  0  0  0  0  0
   69.4004   47.0534   51.6146 C   0  0  0  0  0  0  0  0  0  0  0  0
   68.6687   46.2678   52.4709 C   0  0  0  0  0  0  0  0  0  0  0  0
   68.2959   46.7841   53.6871 C   0  0  0  0  0  0  0  0  0  0  0  0
   68.6592   48.0772   54.0326 C   0  0  0  0  0  0  0  0  0  0  0  0
   72.6135   43.1199   59.8905 C   0  0  0  0  0  0  0  0  0  0  0  0
   72.8980   42.5919   61.1021 N   0  0  0  0  0  0  0  0  0  0  0  0
   71.8878   42.9023   61.9322 C   0  0  0  0  0  0  0  0  0  0  0  0
   70.9714   43.6300   61.2276 N   0  0  0  0  0  0  0  0  0  0  0  0
   71.4067   43.7716   59.9646 C   0  0  0  0  0  0  0  0  0  0  0  0
   74.5825   41.9981   58.9338 C   0  0  0  0  0  0  0  0  0  0  0  0
   73.4753   42.9990   58.7074 C   0  0  0  0  0  0  0  0  0  0  0  0
   72.7104   42.5609   57.4776 C   0  0  0  0  0  0  0  0  0  0  0  0
   74.1476   44.3489   58.4831 C   0  0  0  0  0  0  0  0  0  0  0  0
 30 31  1  0
 31 32  1  0
 31 33  1  0
 31 25  1  0
 25 26  1  0
 25 29  2  0
 26 27  1  0
 27 28  2  0
 28 29  1  0
 29  1  1  0
  1  2  2  0
  2  3  1  0
  2  9  1  0
  3  4  1  0
  4  5  2  0
  4  6  1  0
  6  7  2  0
  6  8  1  0
  7 11  1  0
 11 12  2  0
 11 16  1  0
 12 13  1  0
 13 14  2  0
 14 15  1  0
 15 17  1  0
 15 16  2  0
 17 18  2  0
 17 19  1  0
 19 20  2  0
 19 24  1  0
 20 21  1  0
 21 22  2  0
 22 23  1  0
 23 24  2  0
  8  9  1  0
  9 10  2  0
M  CHG  1  28   1
M  END
>  <minimizedAffinity>  (699) 
-9.40767

$$$$
data/reference_output_2/data/smiles/149976.pdb
     RDKit          3D

 24 25  0  0  0  0  0  0  0  0999 V2000
   68.8297   41.1506   58.4985 C   0  0  0  0  0  0  0  0  0  0  0  0
   70.4329   39.2560   58.7438 N   0  0  0  0  0  0  0  0  0  0  0  0
   69.1531   39.6848   58.3544 C   0  0  0  0  0  0  0  0  0  0  0  0
   68.3272   38.8762   57.9093 O   0  0  0  0  0  0  0  0  0  0  0  0
   72.2925   33.8558   58.8055 C   0  0  0  0  0  0  0  0  0  0  0  0
   71.8209   35.2813   58.7623 C   0  0  0  0  0  0  0  0  0  0  0  0
   70.9561   35.7448   59.7181 C   0  0  0  0  0  0  0  0  0  0  0  0
   70.5210   37.0523   59.6818 C   0  0  0  0  0  0  0  0  0  0  0  0
   70.9340   37.9434   58.6918 C   0  0  0  0  0  0  0  0  0  0  0  0
   71.7902   37.4465   57.7653 C   0  0  0  0  0  0  0  0  0  0  0  0
   72.2387   36.1252   57.7879 C   0  0  0  0  0  0  0  0  0  0  0  0
   73.1716   35.6535   56.7444 C   0  0  0  0  0  0  0  0  0  0  0  0
   67.4275   41.4241   58.0019 C   0  0  0  0  0  0  0  0  0  0  0  0
   67.4664   41.9924   56.6500 C   0  0  0  0  0  0  0  0  0  0  0  0
   67.2597   41.2709   55.6406 O   0  0  0  0  0  0  0  0  0  0  0  0
   67.7345   43.3688   56.3832 N   0  0  0  0  0  0  0  0  0  0  0  0
   67.7753   43.9235   55.1224 N   0  0  0  0  0  0  0  0  0  0  0  0
   67.9912   45.3031   54.8596 C   0  0  0  0  0  0  0  0  0  0  0  0
   68.1541   46.0482   55.8592 O   0  0  0  0  0  0  0  0  0  0  0  0
   68.0266   45.8469   53.5069 C   0  0  0  0  0  0  0  0  0  0  0  0
   68.9187   46.7990   53.0681 C   0  0  0  0  0  0  0  0  0  0  0  0
   68.6365   47.0600   51.7224 C   0  0  0  0  0  0  0  0  0  0  0  0
   67.5652   46.2252   51.4375 C   0  0  0  0  0  0  0  0  0  0  0  0
   67.2406   45.5293   52.5171 O   0  0  0  0  0  0  0  0  0  0  0  0
  5  6  1  0
  6  7  2  0
  6 11  1  0
  7  8  1  0
  8  9  2  0
  9  2  1  0
  9 10  1  0
  2  3  1  0
  3  4  2  0
  3  1  1  0
  1 13  1  0
 13 14  1  0
 14 15  2  0
 14 16  1  0
 16 17  1  0
 17 18  1  0
 18 19  2  0
 18 20  1  0
 20 21  2  0
 20 24  1  0
 21 22  1  0
 22 23  2  0
 23 24  1  0
 10 11  2  0
 11 12  1  0
M  END
>  <minimizedAffinity>  (700) 
-9.36468

$$$$
data/reference_output_2/data/smiles/150103.pdb
     RDKit          3D

 27 31  0  0  0  0  0  0  0  0999 V2000
   72.2480   46.8111   59.7214 C   0  0  0  0  0  0  0  0  0  0  0  0
   72.4178   45.4342   59.8967 C   0  0  0  0  0  0  0  0  0  0  0  0
   71.6722   44.5083   59.2059 C   0  0  0  0  0  0  0  0  0  0  0  0
   70.7163   44.9069   58.3027 C   0  0  0  0  0  0  0  0  0  0  0  0
   69.8504   44.2369   57.5190 N   0  0  0  0  0  0  0  0  0  0  0  0
   69.1470   45.1346   56.8607 N   0  0  0  0  0  0  0  0  0  0  0  0
   69.5389   46.4053   57.1981 C   0  0  0  0  0  0  0  0  0  0  0  0
   70.5344   46.2636   58.1149 C   0  0  0  0  0  0  0  0  0  0  0  0
   71.2879   47.1697   58.8138 C   0  0  0  0  0  0  0  0  0  0  0  0
   75.3171   49.5477   61.9971 N   0  0  0  0  0  0  0  0  0  0  0  0
   74.7607   48.4951   61.1944 C   0  0  0  0  0  0  0  0  0  0  0  0
   73.7050   48.9663   60.1906 C   0  0  0  0  0  0  0  0  0  0  0  0
   73.0350   47.7192   60.4518 N   0  0  0  0  0  0  0  0  0  0  0  0
   73.5307   47.8127   61.7992 C   0  0  0  0  0  0  0  0  0  0  0  0
   68.7469   47.8000   56.5310 S   0  0  0  0  0  0  0  0  0  0  0  0
   67.2537   47.4988   56.5901 O   0  0  0  0  0  0  0  0  0  0  0  0
   68.9306   49.0106   57.4179 O   0  0  0  0  0  0  0  0  0  0  0  0
   69.1802   48.1274   54.8941 C   0  0  0  0  0  0  0  0  0  0  0  0
   69.9875   49.2311   54.5862 C   0  0  0  0  0  0  0  0  0  0  0  0
   70.3521   49.5763   53.3178 C   0  0  0  0  0  0  0  0  0  0  0  0
   69.9029   48.7952   52.2595 C   0  0  0  0  0  0  0  0  0  0  0  0
   69.1103   47.7032   52.5174 C   0  0  0  0  0  0  0  0  0  0  0  0
   68.6797   46.9352   51.4656 C   0  0  0  0  0  0  0  0  0  0  0  0
   67.8833   45.8162   51.6748 C   0  0  0  0  0  0  0  0  0  0  0  0
   67.5204   45.4732   52.9618 C   0  0  0  0  0  0  0  0  0  0  0  0
   67.9696   46.2660   53.9962 C   0  0  0  0  0  0  0  0  0  0  0  0
   68.7595   47.3834   53.8309 C   0  0  0  0  0  0  0  0  0  0  0  0
 10 11  1  0
 11 12  1  0
 11 14  1  0
 12 13  1  0
 13  1  1  0
 13 14  1  0
  1  2  2  0
  1  9  1  0
  2  3  1  0
  3  4  2  0
  4  5  1  0
  4  8  1  0
  5  6  1  0
  6  7  2  0
  7 15  1  0
  7  8  1  0
 15 16  2  0
 15 17  2  0
 15 18  1  0
 18 19  2  0
 18 27  1  0
 19 20  1  0
 20 21  2  0
 21 22  1  0
 22 23  1  0
 22 27  2  0
 23 24  2  0
 24 25  1  0
 25 26  2  0
 26 27  1  0
  8  9  2  0
M  CHG  1  10   1
M  END
>  <minimizedAffinity>  (701) 
-8.79597

$$$$
data/reference_output_2/data/smiles/150472.pdb
     RDKit          3D

 31 34  0  0  0  0  0  0  0  0999 V2000
   73.0808   46.8238   60.7655 C   0  0  0  0  0  0  0  0  0  0  0  0
   72.2790   47.2478   59.5978 C   0  0  0  0  0  0  0  0  0  0  0  0
   71.5229   46.2708   59.0060 N   0  0  0  0  0  0  0  0  0  0  0  0
   70.6999   46.5710   57.9936 C   0  0  0  0  0  0  0  0  0  0  0  0
   70.6413   47.8808   57.5758 C   0  0  0  0  0  0  0  0  0  0  0  0
   71.3941   48.8850   58.1569 C   0  0  0  0  0  0  0  0  0  0  0  0
   72.2509   48.5640   59.2072 C   0  0  0  0  0  0  0  0  0  0  0  0
   71.2511   50.2501   57.6680 C   0  0  0  0  0  0  0  0  0  0  0  0
   71.2083   50.2816   56.1574 C   0  0  0  0  0  0  0  0  0  0  0  0
   70.3955   49.2313   55.6078 N   0  0  0  0  0  0  0  0  0  0  0  0
   70.2266   49.1541   54.2071 C   0  0  0  0  0  0  0  0  0  0  0  0
   70.7862   50.0109   53.4422 O   0  0  0  0  0  0  0  0  0  0  0  0
   69.7468   48.2320   56.4400 C   0  0  0  0  0  0  0  0  0  0  0  0
   69.4153   48.1008   53.6276 C   0  0  0  0  0  0  0  0  0  0  0  0
   68.5034   47.3390   54.3165 C   0  0  0  0  0  0  0  0  0  0  0  0
   67.7477   46.3533   53.6835 C   0  0  0  0  0  0  0  0  0  0  0  0
   67.8788   46.0933   52.3385 C   0  0  0  0  0  0  0  0  0  0  0  0
   67.1596   45.1443   51.6931 F   0  0  0  0  0  0  0  0  0  0  0  0
   68.8046   46.8650   51.6422 C   0  0  0  0  0  0  0  0  0  0  0  0
   69.5447   47.8338   52.2649 C   0  0  0  0  0  0  0  0  0  0  0  0
   70.4414   48.5651   51.5648 F   0  0  0  0  0  0  0  0  0  0  0  0
   73.1375   49.6060   59.7206 C   0  0  0  0  0  0  0  0  0  0  0  0
   74.5406   49.4499   59.4287 N   0  0  0  0  0  0  0  0  0  0  0  0
   75.4209   50.4982   59.1304 C   0  0  0  0  0  0  0  0  0  0  0  0
   75.0753   51.6798   59.1052 O   0  0  0  0  0  0  0  0  0  0  0  0
   76.8441   50.1682   58.8293 C   0  0  0  0  0  0  0  0  0  0  0  0
   77.2151   50.5501   57.4906 N   0  0  0  0  0  0  0  0  0  0  0  0
   76.6836   49.7205   56.4789 C   0  0  0  0  0  0  0  0  0  0  0  0
   77.7835   49.3387   55.5623 C   0  0  0  0  0  0  0  0  0  0  0  0
   79.0040   50.0491   56.0831 C   0  0  0  0  0  0  0  0  0  0  0  0
   78.5864   50.8236   57.2884 C   0  0  0  0  0  0  0  0  0  0  0  0
  1  2  1  0
  2  3  2  0
  2  7  1  0
  3  4  1  0
  4  5  2  0
  5  6  1  0
  5 13  1  0
  6  7  2  0
  6  8  1  0
  7 22  1  0
 22 23  1  0
 23 24  1  0
 24 25  2  0
 24 26  1  0
 26 27  1  0
 27 28  1  0
 27 31  1  0
 28 29  1  0
 29 30  1  0
 30 31  1  0
  8  9  1  0
  9 10  1  0
 10 11  1  0
 10 13  1  0
 11 12  2  0
 11 14  1  0
 14 15  2  0
 14 20  1  0
 15 16  1  0
 16 17  2  0
 17 18  1  0
 17 19  1  0
 19 20  2  0
 20 21  1  0
M  CHG  1  27   1
M  END
>  <minimizedAffinity>  (702) 
-8.72480

$$$$
data/reference_output_2/data/smiles/150559.pdb
     RDKit          3D

 25 26  0  0  0  0  0  0  0  0999 V2000
   69.3209   47.3607   55.9036 C   0  0  0  0  0  0  0  0  0  0  0  0
   68.9418   47.1303   54.4642 C   0  0  0  0  0  0  0  0  0  0  0  0
   68.0119   46.2004   54.1116 C   0  0  0  0  0  0  0  0  0  0  0  0
   67.6865   46.0139   52.7728 C   0  0  0  0  0  0  0  0  0  0  0  0
   68.2911   46.7572   51.7852 C   0  0  0  0  0  0  0  0  0  0  0  0
   69.2305   47.6962   52.1450 C   0  0  0  0  0  0  0  0  0  0  0  0
   69.5469   47.8755   53.4839 C   0  0  0  0  0  0  0  0  0  0  0  0
   68.5572   48.4558   56.4778 C   0  0  0  0  0  0  0  0  0  0  0  0
   68.9418   49.7612   56.1734 C   0  0  0  0  0  0  0  0  0  0  0  0
   68.2838   50.8433   56.6786 C   0  0  0  0  0  0  0  0  0  0  0  0
   67.2033   50.7107   57.5155 C   0  0  0  0  0  0  0  0  0  0  0  0
   66.8014   49.4182   57.8332 C   0  0  0  0  0  0  0  0  0  0  0  0
   67.4778   48.3385   57.3150 C   0  0  0  0  0  0  0  0  0  0  0  0
   70.3466   45.8448   57.6655 N   0  0  0  0  0  0  0  0  0  0  0  0
   69.3670   46.1113   56.6642 C   0  0  0  0  0  0  0  0  0  0  0  0
   68.5253   45.1755   56.4758 O   0  0  0  0  0  0  0  0  0  0  0  0
   70.4258   44.6409   58.4141 C   0  0  0  0  0  0  0  0  0  0  0  0
   71.3379   43.4190   57.8886 S   0  0  0  0  0  0  0  0  0  0  0  0
   69.6878   44.5247   59.6036 N   0  0  0  0  0  0  0  0  0  0  0  0
   68.3087   42.9420   60.9045 C   0  0  0  0  0  0  0  0  0  0  0  0
   67.4201   43.8269   61.0861 O   0  0  0  0  0  0  0  0  0  0  0  0
   69.4708   43.2652   60.1564 N   0  0  0  0  0  0  0  0  0  0  0  0
   68.1107   41.5810   61.4805 C   0  0  0  0  0  0  0  0  0  0  0  0
   68.7263   41.6015   64.0540 N   0  0  0  0  0  0  0  0  0  0  0  0
   68.4555   41.5872   62.8801 C   0  0  0  0  0  0  0  0  0  0  0  0
 24 25  3  0
 25 23  1  0
 23 20  1  0
 20 21  2  0
 20 22  1  0
 22 19  1  0
 19 17  1  0
 17 18  2  0
 17 14  1  0
 14 15  1  0
 15 16  2  0
 15  1  1  0
  1  2  1  0
  1  8  1  0
  2  3  2  0
  2  7  1  0
  3  4  1  0
  4  5  2  0
  5  6  1  0
  6  7  2  0
  8  9  2  0
  8 13  1  0
  9 10  1  0
 10 11  2  0
 11 12  1  0
 12 13  2  0
M  END
>  <minimizedAffinity>  (703) 
-8.86506

$$$$
data/reference_output_2/data/smiles/150563.pdb
     RDKit          3D

 28 31  0  0  0  0  0  0  0  0999 V2000
   71.4524   46.5719   58.9213 C   0  0  0  0  0  0  0  0  0  0  0  0
   70.9407   47.7766   58.4259 C   0  0  0  0  0  0  0  0  0  0  0  0
   70.0086   47.7844   57.4183 C   0  0  0  0  0  0  0  0  0  0  0  0
   69.5478   46.5981   56.8629 C   0  0  0  0  0  0  0  0  0  0  0  0
   70.0374   45.4087   57.3357 C   0  0  0  0  0  0  0  0  0  0  0  0
   70.9723   45.4238   58.3463 C   0  0  0  0  0  0  0  0  0  0  0  0
   68.3755   46.6011   55.5835 S   0  0  0  0  0  0  0  0  0  0  0  0
   67.9763   45.1581   55.3318 O   0  0  0  0  0  0  0  0  0  0  0  0
   67.1252   47.3517   55.9795 O   0  0  0  0  0  0  0  0  0  0  0  0
   68.9762   47.3404   54.1332 C   0  0  0  0  0  0  0  0  0  0  0  0
   68.9007   46.6763   52.9374 C   0  0  0  0  0  0  0  0  0  0  0  0
   69.3781   47.2497   51.7570 C   0  0  0  0  0  0  0  0  0  0  0  0
   69.9223   48.5087   51.8683 C   0  0  0  0  0  0  0  0  0  0  0  0
   70.0256   49.2220   53.0360 C   0  0  0  0  0  0  0  0  0  0  0  0
   69.5304   48.5932   54.1785 C   0  0  0  0  0  0  0  0  0  0  0  0
   72.4698   46.6240   59.9971 C   0  0  0  0  0  0  0  0  0  0  0  0
   73.9255   44.3882   60.9864 O   0  0  0  0  0  0  0  0  0  0  0  0
   72.8042   44.6082   61.5145 C   0  0  0  0  0  0  0  0  0  0  0  0
   72.0784   45.7042   61.0386 N   0  0  0  0  0  0  0  0  0  0  0  0
   72.3169   43.7199   62.5866 C   0  0  0  0  0  0  0  0  0  0  0  0
   71.0725   43.1429   62.4628 C   0  0  0  0  0  0  0  0  0  0  0  0
   70.5720   42.3186   63.4133 N   0  0  0  0  0  0  0  0  0  0  0  0
   71.2757   42.0231   64.5304 C   0  0  0  0  0  0  0  0  0  0  0  0
   71.0460   41.2592   65.6166 N   0  0  0  0  0  0  0  0  0  0  0  0
   72.0854   41.3031   66.4566 N   0  0  0  0  0  0  0  0  0  0  0  0
   73.0059   42.1099   65.9086 C   0  0  0  0  0  0  0  0  0  0  0  0
   72.5262   42.5738   64.7044 C   0  0  0  0  0  0  0  0  0  0  0  0
   73.0321   43.4215   63.7191 C   0  0  0  0  0  0  0  0  0  0  0  0
 17 18  2  0
 18 19  1  0
 18 20  1  0
 19 16  1  0
 16  1  1  0
  1  2  2  0
  1  6  1  0
  2  3  1  0
  3  4  2  0
  4  7  1  0
  4  5  1  0
  7  8  2  0
  7  9  2  0
  7 10  1  0
 10 11  2  0
 10 15  1  0
 11 12  1  0
 12 13  2  0
 13 14  1  0
 14 15  2  0
  5  6  2  0
 20 21  2  0
 20 28  1  0
 21 22  1  0
 22 23  2  0
 23 24  1  0
 23 27  1  0
 24 25  1  0
 25 26  2  0
 26 27  1  0
 27 28  2  0
M  END
>  <minimizedAffinity>  (704) 
-8.85086

$$$$
data/reference_output_2/data/smiles/150785.pdb
     RDKit          3D

 30 32  0  0  0  0  0  0  0  0999 V2000
   70.4949   49.1806   57.2360 C   0  0  0  0  0  0  0  0  0  0  0  0
   71.6502   50.1813   57.2389 C   0  0  0  0  0  0  0  0  0  0  0  0
   71.6071   50.8077   55.8591 C   0  0  0  0  0  0  0  0  0  0  0  0
   70.3479   50.6001   55.1925 N   0  0  0  0  0  0  0  0  0  0  0  0
   69.1951   50.7921   55.9657 C   0  0  0  0  0  0  0  0  0  0  0  0
   69.2469   49.9924   57.2669 C   0  0  0  0  0  0  0  0  0  0  0  0
   71.1355   48.2382   59.3272 O   0  0  0  0  0  0  0  0  0  0  0  0
   70.6057   48.1007   58.1989 C   0  0  0  0  0  0  0  0  0  0  0  0
   70.0939   46.8248   57.8669 N   0  0  0  0  0  0  0  0  0  0  0  0
   70.1034   45.6980   58.6768 N   0  0  0  0  0  0  0  0  0  0  0  0
   70.9313   44.6280   58.3302 C   0  0  0  0  0  0  0  0  0  0  0  0
   70.3868   43.3767   58.1359 C   0  0  0  0  0  0  0  0  0  0  0  0
   69.0337   43.1818   58.2788 F   0  0  0  0  0  0  0  0  0  0  0  0
   71.1618   42.2902   57.7976 C   0  0  0  0  0  0  0  0  0  0  0  0
   70.6357   41.0714   57.6119 F   0  0  0  0  0  0  0  0  0  0  0  0
   72.5111   42.4676   57.6535 C   0  0  0  0  0  0  0  0  0  0  0  0
   73.0983   43.6938   57.8359 C   0  0  0  0  0  0  0  0  0  0  0  0
   74.4303   43.8528   57.6885 F   0  0  0  0  0  0  0  0  0  0  0  0
   72.2779   44.7816   58.1801 C   0  0  0  0  0  0  0  0  0  0  0  0
   72.9239   45.9595   58.3366 F   0  0  0  0  0  0  0  0  0  0  0  0
   70.3385   49.8115   53.7709 S   0  0  0  0  0  0  0  0  0  0  0  0
   71.7935   49.5312   53.3677 O   0  0  0  0  0  0  0  0  0  0  0  0
   69.8856   50.7883   52.6765 O   0  0  0  0  0  0  0  0  0  0  0  0
   69.4816   48.3673   53.4941 C   0  0  0  0  0  0  0  0  0  0  0  0
   68.6896   47.6511   54.3293 C   0  0  0  0  0  0  0  0  0  0  0  0
   68.0149   46.4874   53.9905 C   0  0  0  0  0  0  0  0  0  0  0  0
   68.1404   46.0021   52.7158 C   0  0  0  0  0  0  0  0  0  0  0  0
   68.9392   46.6960   51.8194 C   0  0  0  0  0  0  0  0  0  0  0  0
   69.5931   47.8442   52.1882 C   0  0  0  0  0  0  0  0  0  0  0  0
   70.3524   48.4490   51.2373 F   0  0  0  0  0  0  0  0  0  0  0  0
  7  8  2  0
  8  9  1  0
  8  1  1  0
  9 10  1  0
 10 11  1  0
 11 12  2  0
 11 19  1  0
 12 13  1  0
 12 14  1  0
 14 15  1  0
 14 16  2  0
 16 17  1  0
 17 18  1  0
 17 19  2  0
 19 20  1  0
  1  2  1  0
  1  6  1  0
  2  3  1  0
  3  4  1  0
  4 21  1  0
  4  5  1  0
 21 22  2  0
 21 23  2  0
 21 24  1  0
 24 25  2  0
 24 29  1  0
 25 26  1  0
 26 27  2  0
 27 28  1  0
 28 29  2  0
 29 30  1  0
  5  6  1  0
M  END
>  <minimizedAffinity>  (705) 
-9.07235

$$$$
data/reference_output_2/data/smiles/150910.pdb
     RDKit          3D

 29 32  0  0  0  0  0  0  0  0999 V2000
   70.1640   38.0656   59.2329 C   0  0  0  0  0  0  0  0  0  0  0  0
   69.4284   37.5944   60.2384 N   0  0  0  0  0  0  0  0  0  0  0  0
   69.7808   36.3255   60.5012 N   0  0  0  0  0  0  0  0  0  0  0  0
   70.7531   35.9372   59.6775 C   0  0  0  0  0  0  0  0  0  0  0  0
   71.4649   34.7839   59.5090 C   0  0  0  0  0  0  0  0  0  0  0  0
   72.4410   34.6968   58.5339 C   0  0  0  0  0  0  0  0  0  0  0  0
   72.7114   35.7920   57.7060 C   0  0  0  0  0  0  0  0  0  0  0  0
   71.9930   36.9340   57.8862 C   0  0  0  0  0  0  0  0  0  0  0  0
   71.0017   37.0515   58.8612 C   0  0  0  0  0  0  0  0  0  0  0  0
   68.9590   41.0972   57.3669 C   0  0  0  0  0  0  0  0  0  0  0  0
   70.0333   41.9452   57.5072 C   0  0  0  0  0  0  0  0  0  0  0  0
   71.1474   41.5308   58.2050 C   0  0  0  0  0  0  0  0  0  0  0  0
   71.1856   40.2738   58.7581 C   0  0  0  0  0  0  0  0  0  0  0  0
   70.1140   39.3858   58.6351 C   0  0  0  0  0  0  0  0  0  0  0  0
   69.0219   39.8435   57.9307 C   0  0  0  0  0  0  0  0  0  0  0  0
   67.7568   43.1911   55.9087 N   0  0  0  0  0  0  0  0  0  0  0  0
   67.5098   41.5682   56.4893 S   0  0  0  0  0  0  0  0  0  0  0  0
   66.3892   41.5904   57.4777 O   0  0  0  0  0  0  0  0  0  0  0  0
   67.2881   40.6366   55.3548 O   0  0  0  0  0  0  0  0  0  0  0  0
   73.7453   35.6737   56.6619 C   0  0  0  0  0  0  0  0  0  0  0  0
   73.2661   35.4329   55.3409 N   0  0  0  0  0  0  0  0  0  0  0  0
   74.1514   35.2056   54.2693 C   0  0  0  0  0  0  0  0  0  0  0  0
   75.4175   35.2090   54.4326 O   0  0  0  0  0  0  0  0  0  0  0  0
   73.6619   34.9573   52.9302 C   0  0  0  0  0  0  0  0  0  0  0  0
   74.4071   34.2711   52.0038 C   0  0  0  0  0  0  0  0  0  0  0  0
   73.8877   34.0525   50.7241 C   0  0  0  0  0  0  0  0  0  0  0  0
   72.6391   34.5105   50.3637 C   0  0  0  0  0  0  0  0  0  0  0  0
   71.9252   35.1891   51.3123 C   0  0  0  0  0  0  0  0  0  0  0  0
   72.4181   35.4124   52.5681 C   0  0  0  0  0  0  0  0  0  0  0  0
 16 17  1  0
 17 18  2  0
 17 19  2  0
 17 10  1  0
 10 11  2  0
 10 15  1  0
 11 12  1  0
 12 13  2  0
 13 14  1  0
 14  1  1  0
 14 15  2  0
  1  2  2  0
  1  9  1  0
  2  3  1  0
  3  4  1  0
  4  5  1  0
  4  9  2  0
  5  6  2  0
  6  7  1  0
  7 20  1  0
  7  8  2  0
 20 21  1  0
 21 22  1  0
 22 23  2  0
 22 24  1  0
 24 25  2  0
 24 29  1  0
 25 26  1  0
 26 27  2  0
 27 28  1  0
 28 29  2  0
  8  9  1  0
M  END
>  <minimizedAffinity>  (706) 
-8.52336

$$$$
data/reference_output_2/data/smiles/151199.pdb
     RDKit          3D

 21 23  0  0  0  0  0  0  0  0999 V2000
   70.3615   49.1131   53.9750 C   0  0  0  0  0  0  0  0  0  0  0  0
   71.5236   49.4453   53.3376 N   0  0  0  0  0  0  0  0  0  0  0  0
   72.0901   50.4733   53.9435 N   0  0  0  0  0  0  0  0  0  0  0  0
   71.3393   50.8505   54.9807 C   0  0  0  0  0  0  0  0  0  0  0  0
   70.2668   50.0149   55.0103 C   0  0  0  0  0  0  0  0  0  0  0  0
   66.9362   44.9112   52.4910 O   0  0  0  0  0  0  0  0  0  0  0  0
   67.7746   45.9429   52.8348 C   0  0  0  0  0  0  0  0  0  0  0  0
   68.1195   46.1266   54.1473 C   0  0  0  0  0  0  0  0  0  0  0  0
   68.9597   47.1633   54.4897 C   0  0  0  0  0  0  0  0  0  0  0  0
   69.4850   48.0404   53.5878 C   0  0  0  0  0  0  0  0  0  0  0  0
   69.1434   47.8644   52.2530 C   0  0  0  0  0  0  0  0  0  0  0  0
   69.6447   48.7239   51.2839 O   0  0  0  0  0  0  0  0  0  0  0  0
   68.2981   46.8281   51.8868 C   0  0  0  0  0  0  0  0  0  0  0  0
   67.9253   46.6090   50.5636 O   0  0  0  0  0  0  0  0  0  0  0  0
   69.1572   50.0465   55.9848 C   0  0  0  0  0  0  0  0  0  0  0  0
   68.3388   51.1397   56.1038 C   0  0  0  0  0  0  0  0  0  0  0  0
   67.3209   51.1436   57.0108 C   0  0  0  0  0  0  0  0  0  0  0  0
   67.0898   50.0549   57.8252 C   0  0  0  0  0  0  0  0  0  0  0  0
   66.0883   50.0259   58.7371 F   0  0  0  0  0  0  0  0  0  0  0  0
   67.9261   48.9584   57.6917 C   0  0  0  0  0  0  0  0  0  0  0  0
   68.9457   48.9536   56.7833 C   0  0  0  0  0  0  0  0  0  0  0  0
  6  7  1  0
  7  8  2  0
  7 13  1  0
  8  9  1  0
  9 10  2  0
 10  1  1  0
 10 11  1  0
  1  2  2  0
  1  5  1  0
  2  3  1  0
  3  4  1  0
  4  5  2  0
  5 15  1  0
 15 16  2  0
 15 21  1  0
 16 17  1  0
 17 18  2  0
 18 19  1  0
 18 20  1  0
 20 21  2  0
 11 12  1  0
 11 13  2  0
 13 14  1  0
M  END
>  <minimizedAffinity>  (707) 
-9.33572

$$$$
data/reference_output_2/data/smiles/151207.pdb
     RDKit          3D

 25 26  0  0  0  0  0  0  0  0999 V2000
   67.5660   43.4464   56.2353 N   0  0  0  0  0  0  0  0  0  0  0  0
   67.7910   44.1434   55.0768 N   0  0  0  0  0  0  0  0  0  0  0  0
   68.2162   45.5178   55.0631 C   0  0  0  0  0  0  0  0  0  0  0  0
   68.3769   46.0648   56.1788 O   0  0  0  0  0  0  0  0  0  0  0  0
   68.4561   46.2597   53.8449 C   0  0  0  0  0  0  0  0  0  0  0  0
   68.0000   45.9071   52.6031 C   0  0  0  0  0  0  0  0  0  0  0  0
   68.2807   46.6868   51.4741 C   0  0  0  0  0  0  0  0  0  0  0  0
   69.0260   47.8363   51.5761 C   0  0  0  0  0  0  0  0  0  0  0  0
   69.5034   48.2192   52.8237 C   0  0  0  0  0  0  0  0  0  0  0  0
   69.2100   47.4313   53.9145 C   0  0  0  0  0  0  0  0  0  0  0  0
   70.2737   49.4079   52.9271 N   0  0  0  0  0  0  0  0  0  0  0  0
   69.8440   50.4951   52.5220 O   0  0  0  0  0  0  0  0  0  0  0  0
   71.5190   49.3584   53.4844 O   0  0  0  0  0  0  0  0  0  0  0  0
   68.3276   42.5726   56.9840 C   0  0  0  0  0  0  0  0  0  0  0  0
   67.5041   41.2875   57.7462 S   0  0  0  0  0  0  0  0  0  0  0  0
   70.5124   43.4375   57.8969 C   0  0  0  0  0  0  0  0  0  0  0  0
   69.9863   44.4422   58.4210 O   0  0  0  0  0  0  0  0  0  0  0  0
   69.7084   42.5365   57.2074 N   0  0  0  0  0  0  0  0  0  0  0  0
   76.2747   43.0280   58.4715 C   0  0  0  0  0  0  0  0  0  0  0  0
   74.7891   43.1005   58.3269 C   0  0  0  0  0  0  0  0  0  0  0  0
   74.1571   44.3127   58.1506 C   0  0  0  0  0  0  0  0  0  0  0  0
   72.7870   44.4015   58.0145 C   0  0  0  0  0  0  0  0  0  0  0  0
   71.9825   43.2740   58.0497 C   0  0  0  0  0  0  0  0  0  0  0  0
   72.6033   42.0684   58.2238 C   0  0  0  0  0  0  0  0  0  0  0  0
   73.9978   41.9760   58.3621 C   0  0  0  0  0  0  0  0  0  0  0  0
 19 20  1  0
 20 21  2  0
 20 25  1  0
 21 22  1  0
 22 23  2  0
 23 16  1  0
 23 24  1  0
 16 17  2  0
 16 18  1  0
 18 14  1  0
 14 15  2  0
 14  1  1  0
  1  2  1  0
  2  3  1  0
  3  4  2  0
  3  5  1  0
  5  6  2  0
  5 10  1  0
  6  7  1  0
  7  8  2  0
  8  9  1  0
  9 11  1  0
  9 10  2  0
 11 12  2  0
 11 13  1  0
 24 25  2  0
M  CHG  2  11   1  13  -1
M  END
>  <minimizedAffinity>  (708) 
-8.90765

$$$$
data/reference_output_2/data/smiles/151272.pdb
     RDKit          3D

 26 27  0  0  0  0  0  0  0  0999 V2000
   68.8061   46.6973   54.0970 C   0  0  0  0  0  0  0  0  0  0  0  0
   68.5376   46.3798   52.7788 C   0  0  0  0  0  0  0  0  0  0  0  0
   68.9757   47.1561   51.7261 C   0  0  0  0  0  0  0  0  0  0  0  0
   69.7077   48.2874   52.0270 C   0  0  0  0  0  0  0  0  0  0  0  0
   70.1080   48.9978   51.0704 O   0  0  0  0  0  0  0  0  0  0  0  0
   69.9716   48.6006   53.2960 N   0  0  0  0  0  0  0  0  0  0  0  0
   69.5363   47.8307   54.3321 C   0  0  0  0  0  0  0  0  0  0  0  0
   68.0640   44.4406   54.9276 N   0  0  0  0  0  0  0  0  0  0  0  0
   68.3059   45.8218   55.1515 C   0  0  0  0  0  0  0  0  0  0  0  0
   68.0675   46.2617   56.3115 O   0  0  0  0  0  0  0  0  0  0  0  0
   67.5762   43.6637   56.0126 N   0  0  0  0  0  0  0  0  0  0  0  0
   70.4817   42.1895   57.7012 C   0  0  0  0  0  0  0  0  0  0  0  0
   69.5761   43.1310   57.0821 N   0  0  0  0  0  0  0  0  0  0  0  0
   68.4565   42.7117   56.6220 C   0  0  0  0  0  0  0  0  0  0  0  0
   68.0056   40.9771   56.7376 S   0  0  0  0  0  0  0  0  0  0  0  0
   70.7331   49.7693   53.6566 C   0  0  0  0  0  0  0  0  0  0  0  0
   69.9090   50.6525   54.5308 C   0  0  0  0  0  0  0  0  0  0  0  0
   69.8436   52.0012   54.2495 C   0  0  0  0  0  0  0  0  0  0  0  0
   69.0803   52.8061   55.0666 C   0  0  0  0  0  0  0  0  0  0  0  0
   68.3965   52.2992   56.1343 C   0  0  0  0  0  0  0  0  0  0  0  0
   68.4621   50.9621   56.4125 C   0  0  0  0  0  0  0  0  0  0  0  0
   69.2171   50.1351   55.6132 C   0  0  0  0  0  0  0  0  0  0  0  0
   67.7105   50.4362   57.5771 C   0  0  0  0  0  0  0  0  0  0  0  0
   67.4290   49.1015   57.2942 F   0  0  0  0  0  0  0  0  0  0  0  0
   66.4900   51.0695   57.7113 F   0  0  0  0  0  0  0  0  0  0  0  0
   68.4655   50.4932   58.7066 F   0  0  0  0  0  0  0  0  0  0  0  0
 12 13  1  0
 13 14  2  0
 14 15  1  0
 14 11  1  0
 11  8  1  0
  8  9  1  0
  9 10  2  0
  9  1  1  0
  1  2  1  0
  1  7  2  0
  2  3  2  0
  3  4  1  0
  4  5  2  0
  4  6  1  0
  6 16  1  0
  6  7  1  0
 16 17  1  0
 17 18  2  0
 17 22  1  0
 18 19  1  0
 19 20  2  0
 20 21  1  0
 21 23  1  0
 21 22  2  0
 23 24  1  0
 23 25  1  0
 23 26  1  0
M  CHG  1  13   1
M  END
>  <minimizedAffinity>  (709) 
-9.05482

$$$$
data/reference_output_2/data/smiles/151447.pdb
     RDKit          3D

 27 31  0  0  0  0  0  0  0  0999 V2000
   71.0543   46.0099   58.3091 C   0  0  0  0  0  0  0  0  0  0  0  0
   70.1736   46.5997   57.4355 C   0  0  0  0  0  0  0  0  0  0  0  0
   69.9467   47.9638   57.3492 C   0  0  0  0  0  0  0  0  0  0  0  0
   70.6702   48.7482   58.2140 C   0  0  0  0  0  0  0  0  0  0  0  0
   71.5835   48.2173   59.1315 C   0  0  0  0  0  0  0  0  0  0  0  0
   71.7538   46.8514   59.1552 C   0  0  0  0  0  0  0  0  0  0  0  0
   72.6246   46.3046   60.0232 F   0  0  0  0  0  0  0  0  0  0  0  0
   73.3433   44.2460   57.3076 O   0  0  0  0  0  0  0  0  0  0  0  0
   72.4342   43.8272   58.0554 C   0  0  0  0  0  0  0  0  0  0  0  0
   72.2616   42.5852   58.7769 C   0  0  2  0  0  0  0  0  0  0  0  0
   71.7022   41.3301   58.5085 C   0  0  0  0  0  0  0  0  0  0  0  0
   70.8179   42.3528   58.1586 C   0  0  1  0  0  0  0  0  0  0  0  0
   70.3066   43.5748   58.7783 C   0  0  0  0  0  0  0  0  0  0  0  0
   69.3026   43.7844   59.4963 O   0  0  0  0  0  0  0  0  0  0  0  0
   71.2661   44.5885   58.3694 N   0  0  0  0  0  0  0  0  0  0  0  0
   68.9377   48.5054   56.3781 C   0  0  0  0  0  0  0  0  0  0  0  0
   69.3912   48.4589   54.9857 C   0  0  0  0  0  0  0  0  0  0  0  0
   70.3432   49.3723   54.6164 N   0  0  0  0  0  0  0  0  0  0  0  0
   70.7581   49.4156   53.3760 N   0  0  0  0  0  0  0  0  0  0  0  0
   70.3140   48.6128   52.4051 C   0  0  0  0  0  0  0  0  0  0  0  0
   70.7245   48.6661   51.2076 O   0  0  0  0  0  0  0  0  0  0  0  0
   69.3570   47.6724   52.7183 C   0  0  0  0  0  0  0  0  0  0  0  0
   68.8677   46.8030   51.7534 C   0  0  0  0  0  0  0  0  0  0  0  0
   67.9245   45.8848   52.1485 C   0  0  0  0  0  0  0  0  0  0  0  0
   67.4729   45.8175   53.4500 C   0  0  0  0  0  0  0  0  0  0  0  0
   67.9510   46.6692   54.3985 C   0  0  0  0  0  0  0  0  0  0  0  0
   68.9112   47.6207   54.0341 C   0  0  0  0  0  0  0  0  0  0  0  0
  8  9  2  0
  9 10  1  0
  9 15  1  0
 10 11  1  6
 10 12  1  0
 12 11  1  1
 12 13  1  0
 13 14  2  0
 13 15  1  0
 15  1  1  0
  1  2  2  0
  1  6  1  0
  2  3  1  0
  3 16  1  0
  3  4  2  0
 16 17  1  0
 17 18  2  0
 17 27  1  0
 18 19  1  0
 19 20  1  0
 20 21  2  0
 20 22  1  0
 22 23  1  0
 22 27  2  0
 23 24  2  0
 24 25  1  0
 25 26  2  0
 26 27  1  0
  4  5  1  0
  5  6  2  0
  6  7  1  0
M  END
>  <minimizedAffinity>  (710) 
-9.26310

$$$$
data/reference_output_2/data/smiles/151455.pdb
     RDKit          3D

 26 29  0  0  0  0  0  0  0  0999 V2000
   71.5451   48.0045   58.6790 C   0  0  0  0  0  0  0  0  0  0  0  0
   71.8357   46.6022   58.4884 N   0  0  0  0  0  0  0  0  0  0  0  0
   70.8992   45.5490   58.2218 C   0  0  0  0  0  0  0  0  0  0  0  0
   69.6633   45.6418   58.1048 O   0  0  0  0  0  0  0  0  0  0  0  0
   71.6415   44.2948   58.1025 C   0  0  0  0  0  0  0  0  0  0  0  0
   71.3690   42.9649   57.8633 C   0  0  0  0  0  0  0  0  0  0  0  0
   72.4044   42.0166   57.8236 C   0  0  0  0  0  0  0  0  0  0  0  0
   73.7255   42.3509   58.0179 C   0  0  0  0  0  0  0  0  0  0  0  0
   73.9874   43.6914   58.2574 C   0  0  0  0  0  0  0  0  0  0  0  0
   75.2736   44.1428   58.4660 C   0  0  0  0  0  0  0  0  0  0  0  0
   75.4604   45.4900   58.6989 C   0  0  0  0  0  0  0  0  0  0  0  0
   74.4064   46.3991   58.7304 C   0  0  0  0  0  0  0  0  0  0  0  0
   73.1138   45.9535   58.5221 C   0  0  0  0  0  0  0  0  0  0  0  0
   72.9603   44.6134   58.2943 C   0  0  0  0  0  0  0  0  0  0  0  0
   70.7649   49.2487   56.7241 C   0  0  0  0  0  0  0  0  0  0  0  0
   70.4971   48.4849   57.7485 C   0  0  0  0  0  0  0  0  0  0  0  0
   69.7624   49.7601   55.7599 C   0  0  0  0  0  0  0  0  0  0  0  0
   68.1544   46.1576   52.8311 C   0  0  0  0  0  0  0  0  0  0  0  0
   69.0207   47.3280   53.0606 C   0  0  0  0  0  0  0  0  0  0  0  0
   69.0072   48.0071   54.2787 C   0  0  0  0  0  0  0  0  0  0  0  0
   69.7859   49.0703   54.5028 N   0  0  0  0  0  0  0  0  0  0  0  0
   70.5968   49.4821   53.5213 C   0  0  0  0  0  0  0  0  0  0  0  0
   71.3691   50.4712   53.6304 O   0  0  0  0  0  0  0  0  0  0  0  0
   70.6353   48.8388   52.3160 N   0  0  0  0  0  0  0  0  0  0  0  0
   69.8571   47.7666   52.0708 C   0  0  0  0  0  0  0  0  0  0  0  0
   69.9002   47.1843   50.9611 O   0  0  0  0  0  0  0  0  0  0  0  0
 18 19  1  0
 19 20  2  0
 19 25  1  0
 20 21  1  0
 21 17  1  0
 21 22  1  0
 17 15  1  0
 15 16  2  0
 16  1  1  0
  1  2  1  0
  2  3  1  0
  2 13  1  0
  3  4  2  0
  3  5  1  0
  5  6  1  0
  5 14  2  0
  6  7  2  0
  7  8  1  0
  8  9  2  0
  9 10  1  0
  9 14  1  0
 10 11  2  0
 11 12  1  0
 12 13  2  0
 13 14  1  0
 22 23  2  0
 22 24  1  0
 24 25  1  0
 25 26  2  0
M  END
>  <minimizedAffinity>  (711) 
-8.51129

$$$$
data/reference_output_2/data/smiles/151476.pdb
     RDKit          3D

 27 29  0  0  0  0  0  0  0  0999 V2000
   69.7810   44.3422   58.9115 O   0  0  0  0  0  0  0  0  0  0  0  0
   69.4508   44.0719   57.7308 C   0  0  0  0  0  0  0  0  0  0  0  0
   69.5370   45.1251   56.7864 N   0  0  0  0  0  0  0  0  0  0  0  0
   69.0062   42.7186   57.4091 C   0  0  0  0  0  0  0  0  0  0  0  0
   68.0477   42.5200   56.4207 C   0  0  0  0  0  0  0  0  0  0  0  0
   67.6080   41.2327   56.0985 C   0  0  0  0  0  0  0  0  0  0  0  0
   66.6814   41.0556   55.1411 F   0  0  0  0  0  0  0  0  0  0  0  0
   68.1264   40.1412   56.7633 C   0  0  0  0  0  0  0  0  0  0  0  0
   69.0766   40.3037   57.7468 C   0  0  0  0  0  0  0  0  0  0  0  0
   69.4849   41.5902   58.0380 C   0  0  0  0  0  0  0  0  0  0  0  0
   69.6133   39.1361   58.4404 C   0  0  0  0  0  0  0  0  0  0  0  0
   70.8097   38.6426   58.0852 N   0  0  0  0  0  0  0  0  0  0  0  0
   71.3657   37.5719   58.6782 C   0  0  0  0  0  0  0  0  0  0  0  0
   70.6849   36.9451   59.6981 C   0  0  0  0  0  0  0  0  0  0  0  0
   69.4587   37.4385   60.0738 C   0  0  0  0  0  0  0  0  0  0  0  0
   68.9500   38.5298   59.4306 N   0  0  0  0  0  0  0  0  0  0  0  0
   69.9729   46.4236   57.1444 N   0  0  0  0  0  0  0  0  0  0  0  0
   68.9621   47.5731   56.3872 S   0  0  0  0  0  0  0  0  0  0  0  0
   67.5364   47.3203   56.8451 O   0  0  0  0  0  0  0  0  0  0  0  0
   69.3424   48.9696   56.7622 O   0  0  0  0  0  0  0  0  0  0  0  0
   68.9498   47.3848   54.6417 C   0  0  0  0  0  0  0  0  0  0  0  0
   69.5542   48.3122   53.8200 C   0  0  0  0  0  0  0  0  0  0  0  0
   69.5494   48.1719   52.4459 C   0  0  0  0  0  0  0  0  0  0  0  0
   68.9329   47.0883   51.8467 C   0  0  0  0  0  0  0  0  0  0  0  0
   68.3259   46.1559   52.6665 C   0  0  0  0  0  0  0  0  0  0  0  0
   68.3332   46.3012   54.0559 C   0  0  0  0  0  0  0  0  0  0  0  0
   67.7183   45.3478   54.7950 F   0  0  0  0  0  0  0  0  0  0  0  0
  1  2  2  0
  2  3  1  0
  2  4  1  0
  3 17  1  0
 17 18  1  0
 18 19  2  0
 18 20  2  0
 18 21  1  0
 21 22  2  0
 21 26  1  0
 22 23  1  0
 23 24  2  0
 24 25  1  0
 25 26  2  0
 26 27  1  0
  4  5  2  0
  4 10  1  0
  5  6  1  0
  6  7  1  0
  6  8  2  0
  8  9  1  0
  9 11  1  0
  9 10  2  0
 11 12  2  0
 11 16  1  0
 12 13  1  0
 13 14  2  0
 14 15  1  0
 15 16  2  0
M  END
>  <minimizedAffinity>  (712) 
-8.97240

$$$$
data/reference_output_2/data/smiles/151490.pdb
     RDKit          3D

 28 31  0  0  0  0  0  0  0  0999 V2000
   73.3993   34.9552   54.4917 C   0  0  0  0  0  0  0  0  0  0  0  0
   74.2824   33.9088   54.3972 C   0  0  0  0  0  0  0  0  0  0  0  0
   74.6454   33.3881   53.1627 C   0  0  0  0  0  0  0  0  0  0  0  0
   74.1750   33.8563   52.0106 N   0  0  0  0  0  0  0  0  0  0  0  0
   73.2942   34.8993   52.1162 C   0  0  0  0  0  0  0  0  0  0  0  0
   72.9023   35.4496   53.3091 C   0  0  0  0  0  0  0  0  0  0  0  0
   73.8275   35.6384   56.8283 C   0  0  0  0  0  0  0  0  0  0  0  0
   73.0221   35.4967   55.8068 C   0  0  0  0  0  0  0  0  0  0  0  0
   74.3372   36.0596   59.0721 O   0  0  0  0  0  0  0  0  0  0  0  0
   73.4790   36.1671   58.1298 C   0  0  0  0  0  0  0  0  0  0  0  0
   72.2138   36.8145   58.4416 C   0  0  0  0  0  0  0  0  0  0  0  0
   71.3098   36.3760   59.4239 C   0  0  0  0  0  0  0  0  0  0  0  0
   70.2470   37.2391   59.4183 C   0  0  0  0  0  0  0  0  0  0  0  0
   69.0723   37.2991   60.1647 C   0  0  0  0  0  0  0  0  0  0  0  0
   68.1601   38.3048   59.9358 C   0  0  0  0  0  0  0  0  0  0  0  0
   68.3998   39.2585   58.9702 C   0  0  0  0  0  0  0  0  0  0  0  0
   69.5668   39.1782   58.2456 C   0  0  0  0  0  0  0  0  0  0  0  0
   70.5133   38.1779   58.4463 C   0  0  0  0  0  0  0  0  0  0  0  0
   71.6581   37.8779   57.9239 O   0  0  0  0  0  0  0  0  0  0  0  0
   74.5513   33.3643   50.7057 C   0  0  0  0  0  0  0  0  0  0  0  0
   75.6587   34.1159   50.0708 C   0  0  0  0  0  0  0  0  0  0  0  0
   76.4983   34.8813   50.9004 C   0  0  0  0  0  0  0  0  0  0  0  0
   77.5761   35.5932   50.4298 C   0  0  0  0  0  0  0  0  0  0  0  0
   77.8915   35.5917   49.0908 C   0  0  0  0  0  0  0  0  0  0  0  0
   77.0805   34.8491   48.2681 C   0  0  0  0  0  0  0  0  0  0  0  0
   77.4637   34.8300   46.5545 Cl  0  0  0  0  0  0  0  0  0  0  0  0
   75.9781   34.1195   48.7432 C   0  0  0  0  0  0  0  0  0  0  0  0
   74.9930   33.2425   47.5882 Cl  0  0  0  0  0  0  0  0  0  0  0  0
  9 10  2  0
 10  7  1  0
 10 11  1  0
  7  8  2  0
  8  1  1  0
  1  2  2  0
  1  6  1  0
  2  3  1  0
  3  4  2  0
  4 20  1  0
  4  5  1  0
 20 21  1  0
 21 22  2  0
 21 27  1  0
 22 23  1  0
 23 24  2  0
 24 25  1  0
 25 26  1  0
 25 27  2  0
 27 28  1  0
  5  6  2  0
 11 12  2  0
 11 19  1  0
 12 13  1  0
 13 14  2  0
 13 18  1  0
 14 15  1  0
 15 16  2  0
 16 17  1  0
 17 18  2  0
 18 19  1  0
M  CHG  1   4   1
M  END
>  <minimizedAffinity>  (713) 
-8.59358

$$$$
data/reference_output_2/data/smiles/151596.pdb
     RDKit          3D

 24 26  0  0  0  0  0  0  0  0999 V2000
   69.4445   43.0580   56.8231 O   0  0  0  0  0  0  0  0  0  0  0  0
   68.3591   42.5014   56.5464 C   0  0  0  0  0  0  0  0  0  0  0  0
   67.5113   43.2977   55.6631 N   0  0  0  0  0  0  0  0  0  0  0  0
   67.9442   44.5710   55.2002 C   0  0  0  0  0  0  0  0  0  0  0  0
   68.3675   45.6140   55.9379 N   0  0  0  0  0  0  0  0  0  0  0  0
   68.7002   46.6641   55.1679 C   0  0  0  0  0  0  0  0  0  0  0  0
   69.1815   47.9475   55.4404 C   0  0  0  0  0  0  0  0  0  0  0  0
   69.4374   48.8287   54.4114 C   0  0  0  0  0  0  0  0  0  0  0  0
   69.2188   48.4458   53.1050 C   0  0  0  0  0  0  0  0  0  0  0  0
   68.7420   47.1744   52.8569 C   0  0  0  0  0  0  0  0  0  0  0  0
   68.4761   46.2688   53.8654 C   0  0  0  0  0  0  0  0  0  0  0  0
   68.0217   45.0048   53.9193 N   0  0  0  0  0  0  0  0  0  0  0  0
   67.9744   41.2209   57.0346 C   0  0  0  0  0  0  0  0  0  0  0  0
   68.2549   40.6523   58.3315 C   0  0  0  0  0  0  0  0  0  0  0  0
   68.9509   39.4316   58.4281 N   0  0  0  0  0  0  0  0  0  0  0  0
   70.3101   39.1917   58.5705 C   0  0  0  0  0  0  0  0  0  0  0  0
   71.1059   40.1537   58.6428 O   0  0  0  0  0  0  0  0  0  0  0  0
   70.8727   37.8070   58.6420 C   0  0  0  0  0  0  0  0  0  0  0  0
   71.8081   37.4642   57.7052 C   0  0  0  0  0  0  0  0  0  0  0  0
   72.3650   36.2038   57.7172 C   0  0  0  0  0  0  0  0  0  0  0  0
   72.0113   35.2549   58.6515 C   0  0  0  0  0  0  0  0  0  0  0  0
   72.7447   33.6577   58.6336 Cl  0  0  0  0  0  0  0  0  0  0  0  0
   71.0716   35.6185   59.5838 C   0  0  0  0  0  0  0  0  0  0  0  0
   70.4970   36.8940   59.5859 C   0  0  0  0  0  0  0  0  0  0  0  0
  1  2  2  0
  2 13  1  0
  2  3  1  0
 13 14  1  0
 14 15  1  0
 15 16  1  0
 16 17  2  0
 16 18  1  0
 18 19  2  0
 18 24  1  0
 19 20  1  0
 20 21  2  0
 21 22  1  0
 21 23  1  0
 23 24  2  0
  3  4  1  0
  4  5  2  0
  4 12  1  0
  5  6  1  0
  6  7  2  0
  6 11  1  0
  7  8  1  0
  8  9  2  0
  9 10  1  0
 10 11  2  0
 11 12  1  0
M  CHG  1   5   1
M  END
>  <minimizedAffinity>  (714) 
-8.59136

$$$$
data/reference_output_2/data/smiles/151999.pdb
     RDKit          3D

 32 36  0  0  0  0  0  0  0  0999 V2000
   68.7882   40.1584   58.7028 C   0  0  0  0  0  0  0  0  0  0  0  0
   67.8085   40.1017   57.7478 N   0  0  0  0  0  0  0  0  0  0  0  0
   67.7933   41.2382   57.0368 C   0  0  0  0  0  0  0  0  0  0  0  0
   67.0411   41.7265   55.9769 C   0  0  0  0  0  0  0  0  0  0  0  0
   67.2853   42.9800   55.4533 C   0  0  0  0  0  0  0  0  0  0  0  0
   68.2911   43.7926   55.9709 C   0  0  0  0  0  0  0  0  0  0  0  0
   68.9936   43.2789   56.9974 N   0  0  0  0  0  0  0  0  0  0  0  0
   68.7793   42.0596   57.5298 C   0  0  0  0  0  0  0  0  0  0  0  0
   69.3511   41.3600   58.5356 N   0  0  0  0  0  0  0  0  0  0  0  0
   68.5587   45.0813   55.4370 N   0  0  0  0  0  0  0  0  0  0  0  0
   68.0344   45.3812   54.1438 C   0  0  0  0  0  0  0  0  0  0  0  0
   67.9206   46.8209   53.7915 C   0  0  0  0  0  0  0  0  0  0  0  0
   69.0448   47.6691   54.3480 C   0  0  0  0  0  0  0  0  0  0  0  0
   69.2128   47.4458   55.8107 C   0  0  2  0  0  0  0  0  0  0  0  0
   69.3247   46.0124   56.1999 C   0  0  0  0  0  0  0  0  0  0  0  0
   68.2267   48.1477   56.6659 C   0  0  0  0  0  0  0  0  0  0  0  0
   67.2045   47.4580   57.0344 O   0  0  0  0  0  0  0  0  0  0  0  0
   68.2878   49.4662   57.1119 N   0  0  0  0  0  0  0  0  0  0  0  0
   67.3131   50.1666   57.9151 C   0  0  0  0  0  0  0  0  0  0  0  0
   67.2920   51.5360   57.2331 C   0  0  0  0  0  0  0  0  0  0  0  0
   68.5357   51.6105   56.3763 C   0  0  0  0  0  0  0  0  0  0  0  0
   69.3473   50.4142   56.8929 C   0  0  0  0  0  0  0  0  0  0  0  0
   69.0969   39.0868   59.6953 C   0  0  0  0  0  0  0  0  0  0  0  0
   71.8129   38.6595   59.4555 O   0  0  0  0  0  0  0  0  0  0  0  0
   71.0796   37.7085   59.0073 C   0  0  0  0  0  0  0  0  0  0  0  0
   69.6875   37.9071   59.1215 N   0  0  0  0  0  0  0  0  0  0  0  0
   71.7045   36.5286   58.4296 C   0  0  0  0  0  0  0  0  0  0  0  0
   71.5853   35.2926   59.0081 C   0  0  0  0  0  0  0  0  0  0  0  0
   72.1933   34.1634   58.4442 C   0  0  0  0  0  0  0  0  0  0  0  0
   72.9269   34.2866   57.2859 C   0  0  0  0  0  0  0  0  0  0  0  0
   73.0548   35.5104   56.6991 C   0  0  0  0  0  0  0  0  0  0  0  0
   72.4437   36.6262   57.2709 C   0  0  0  0  0  0  0  0  0  0  0  0
 24 25  2  0
 25 26  1  0
 25 27  1  0
 26 23  1  0
 23  1  1  0
  1  2  2  0
  1  9  1  0
  2  3  1  0
  3  4  2  0
  3  8  1  0
  4  5  1  0
  5  6  2  0
  6 10  1  0
  6  7  1  0
 10 11  1  0
 10 15  1  0
 11 12  1  0
 12 13  1  0
 13 14  1  0
 14 16  1  1
 14 15  1  0
 16 17  2  0
 16 18  1  0
 18 19  1  0
 18 22  1  0
 19 20  1  0
 20 21  1  0
 21 22  1  0
  7  8  2  0
  8  9  1  0
 27 28  2  0
 27 32  1  0
 28 29  1  0
 29 30  2  0
 30 31  1  0
 31 32  2  0
M  CHG  1   2   1
M  END
>  <minimizedAffinity>  (715) 
-8.67401

$$$$
data/reference_output_2/data/smiles/152002.pdb
     RDKit          3D

 26 29  0  0  0  0  0  0  0  0999 V2000
   68.6280   46.3713   55.1621 C   0  0  0  0  0  0  0  0  0  0  0  0
   68.1488   45.5105   54.1847 C   0  0  0  0  0  0  0  0  0  0  0  0
   68.1974   45.8537   52.8570 C   0  0  0  0  0  0  0  0  0  0  0  0
   68.7199   47.0586   52.4566 C   0  0  0  0  0  0  0  0  0  0  0  0
   68.9079   47.6824   51.2610 N   0  0  0  0  0  0  0  0  0  0  0  0
   69.4627   48.8484   51.4568 N   0  0  0  0  0  0  0  0  0  0  0  0
   69.6870   49.0996   52.7507 C   0  0  0  0  0  0  0  0  0  0  0  0
   69.2111   47.9519   53.3987 C   0  0  0  0  0  0  0  0  0  0  0  0
   69.1465   47.5720   54.7355 C   0  0  0  0  0  0  0  0  0  0  0  0
   70.3864   50.4730   53.5679 S   0  0  0  0  0  0  0  0  0  0  0  0
   71.8535   50.1472   53.8035 O   0  0  0  0  0  0  0  0  0  0  0  0
   70.3369   51.6766   52.6612 O   0  0  0  0  0  0  0  0  0  0  0  0
   69.6764   50.8035   55.1153 C   0  0  0  0  0  0  0  0  0  0  0  0
   68.4896   51.5147   55.2454 C   0  0  0  0  0  0  0  0  0  0  0  0
   67.9383   51.8219   56.4533 C   0  0  0  0  0  0  0  0  0  0  0  0
   68.5727   51.4169   57.6015 C   0  0  0  0  0  0  0  0  0  0  0  0
   69.7485   50.7102   57.5253 C   0  0  0  0  0  0  0  0  0  0  0  0
   70.4012   50.2812   58.6600 C   0  0  0  0  0  0  0  0  0  0  0  0
   71.5717   49.5626   58.5737 C   0  0  0  0  0  0  0  0  0  0  0  0
   72.1427   49.2408   57.3610 C   0  0  0  0  0  0  0  0  0  0  0  0
   71.4596   49.6903   56.2341 C   0  0  0  0  0  0  0  0  0  0  0  0
   70.2947   50.4067   56.2725 C   0  0  0  0  0  0  0  0  0  0  0  0
   68.5553   46.0186   56.5280 N   0  0  0  0  0  0  0  0  0  0  0  0
   69.4925   46.4068   57.5475 C   0  0  0  0  0  0  0  0  0  0  0  0
   69.9886   44.7066   59.2372 N   0  0  0  0  0  0  0  0  0  0  0  0
   70.4251   45.3122   57.9824 C   0  0  0  0  0  0  0  0  0  0  0  0
 25 26  1  0
 26 24  1  0
 24 23  1  0
 23  1  1  0
  1  2  2  0
  1  9  1  0
  2  3  1  0
  3  4  2  0
  4  5  1  0
  4  8  1  0
  5  6  1  0
  6  7  2  0
  7 10  1  0
  7  8  1  0
 10 11  2  0
 10 12  2  0
 10 13  1  0
 13 14  2  0
 13 22  1  0
 14 15  1  0
 15 16  2  0
 16 17  1  0
 17 18  1  0
 17 22  2  0
 18 19  2  0
 19 20  1  0
 20 21  2  0
 21 22  1  0
  8  9  2  0
M  CHG  1  25   1
M  END
>  <minimizedAffinity>  (716) 
-9.15799

$$$$
data/reference_output_2/data/smiles/152146.pdb
     RDKit          3D

 24 26  0  0  0  0  0  0  0  0999 V2000
   68.9155   47.9183   55.0164 N   0  0  0  0  0  0  0  0  0  0  0  0
   69.7841   48.9655   54.8862 C   0  0  0  0  0  0  0  0  0  0  0  0
   70.3238   49.3703   53.7054 C   0  0  0  0  0  0  0  0  0  0  0  0
   69.9785   48.6885   52.5618 C   0  0  0  0  0  0  0  0  0  0  0  0
   70.4353   49.0067   51.4501 O   0  0  0  0  0  0  0  0  0  0  0  0
   69.1007   47.6217   52.6456 C   0  0  0  0  0  0  0  0  0  0  0  0
   68.7160   46.9076   51.5304 C   0  0  0  0  0  0  0  0  0  0  0  0
   67.8393   45.8468   51.5835 C   0  0  0  0  0  0  0  0  0  0  0  0
   67.3493   45.5235   52.8505 C   0  0  0  0  0  0  0  0  0  0  0  0
   67.7321   46.2347   53.9692 C   0  0  0  0  0  0  0  0  0  0  0  0
   68.5985   47.2771   53.8941 C   0  0  0  0  0  0  0  0  0  0  0  0
   71.2502   50.5022   53.6323 C   0  0  0  0  0  0  0  0  0  0  0  0
   70.8567   51.6572   53.3457 O   0  0  0  0  0  0  0  0  0  0  0  0
   72.5879   50.2621   53.8892 O   0  0  0  0  0  0  0  0  0  0  0  0
   68.4710   47.6135   56.3335 C   0  0  0  0  0  0  0  0  0  0  0  0
   71.2130   46.7595   58.8393 C   0  0  0  0  0  0  0  0  0  0  0  0
   71.3600   45.4061   58.6326 C   0  0  0  0  0  0  0  0  0  0  0  0
   70.5831   44.7810   57.6979 C   0  0  0  0  0  0  0  0  0  0  0  0
   69.6754   45.5138   56.9882 C   0  0  0  0  0  0  0  0  0  0  0  0
   69.4826   46.8854   57.1549 C   0  0  0  0  0  0  0  0  0  0  0  0
   70.2772   47.4834   58.0995 C   0  0  0  0  0  0  0  0  0  0  0  0
   73.0355   48.3719   59.4645 N   0  0  0  0  0  0  0  0  0  0  0  0
   72.0323   47.4545   59.8339 C   0  0  0  0  0  0  0  0  0  0  0  0
   71.8332   47.2245   61.0407 O   0  0  0  0  0  0  0  0  0  0  0  0
 22 23  1  0
 23 24  2  0
 23 16  1  0
 16 17  2  0
 16 21  1  0
 17 18  1  0
 18 19  2  0
 19 20  1  0
 20 15  1  0
 20 21  2  0
 15  1  1  0
  1  2  1  0
  1 11  1  0
  2  3  2  0
  3 12  1  0
  3  4  1  0
 12 13  2  0
 12 14  1  0
  4  5  2  0
  4  6  1  0
  6  7  1  0
  6 11  2  0
  7  8  2  0
  8  9  1  0
  9 10  2  0
 10 11  1  0
M  END
>  <minimizedAffinity>  (717) 
-8.64309

$$$$
data/reference_output_2/data/smiles/152197.pdb
     RDKit          3D

 26 29  0  0  0  0  0  0  0  0999 V2000
   68.7061   47.4181   56.7385 C   0  0  0  0  0  0  0  0  0  0  0  0
   71.4345   50.6122   54.2500 C   0  0  0  0  0  0  0  0  0  0  0  0
   70.5133   49.4752   54.2405 N   0  0  0  0  0  0  0  0  0  0  0  0
   70.0170   48.9917   55.3658 N   0  0  0  0  0  0  0  0  0  0  0  0
   69.1820   47.9446   55.4395 C   0  0  0  0  0  0  0  0  0  0  0  0
   68.7742   47.2816   54.2872 C   0  0  0  0  0  0  0  0  0  0  0  0
   67.9240   46.2013   54.2774 C   0  0  0  0  0  0  0  0  0  0  0  0
   67.5621   45.5840   53.0746 C   0  0  0  0  0  0  0  0  0  0  0  0
   68.0584   46.0567   51.8809 C   0  0  0  0  0  0  0  0  0  0  0  0
   68.9056   47.1378   51.9130 C   0  0  0  0  0  0  0  0  0  0  0  0
   69.2790   47.7669   53.0935 C   0  0  0  0  0  0  0  0  0  0  0  0
   70.1369   48.8540   53.1113 C   0  0  0  0  0  0  0  0  0  0  0  0
   70.5977   49.3002   52.0326 O   0  0  0  0  0  0  0  0  0  0  0  0
   69.5931   46.3559   57.2714 C   0  0  0  0  0  0  0  0  0  0  0  0
   70.5837   46.6325   58.0194 O   0  0  0  0  0  0  0  0  0  0  0  0
   69.3579   45.0007   56.9553 N   0  0  0  0  0  0  0  0  0  0  0  0
   70.1156   43.8964   57.4253 C   0  0  0  0  0  0  0  0  0  0  0  0
   71.4634   44.0736   57.7819 C   0  0  0  0  0  0  0  0  0  0  0  0
   72.2378   43.0193   58.2023 C   0  0  0  0  0  0  0  0  0  0  0  0
   71.6613   41.7816   58.2646 C   0  0  0  0  0  0  0  0  0  0  0  0
   70.3303   41.5309   57.9260 C   0  0  0  0  0  0  0  0  0  0  0  0
   69.8304   40.2826   57.9877 N   0  0  0  0  0  0  0  0  0  0  0  0
   68.5542   40.0800   57.6311 C   0  0  0  0  0  0  0  0  0  0  0  0
   67.7941   41.1426   57.2155 C   0  0  0  0  0  0  0  0  0  0  0  0
   68.2837   42.4170   57.1463 C   0  0  0  0  0  0  0  0  0  0  0  0
   69.5940   42.6409   57.5083 C   0  0  0  0  0  0  0  0  0  0  0  0
  2  3  1  0
  3  4  1  0
  3 12  1  0
  4  5  2  0
  5  1  1  0
  5  6  1  0
  1 14  1  0
 14 15  2  0
 14 16  1  0
 16 17  1  0
 17 18  2  0
 17 26  1  0
 18 19  1  0
 19 20  2  0
 20 21  1  0
 21 22  1  0
 21 26  2  0
 22 23  2  0
 23 24  1  0
 24 25  2  0
 25 26  1  0
  6  7  1  0
  6 11  2  0
  7  8  2  0
  8  9  1  0
  9 10  2  0
 10 11  1  0
 11 12  1  0
 12 13  2  0
M  END
>  <minimizedAffinity>  (718) 
-8.77801

$$$$
data/reference_output_2/data/smiles/152204.pdb
     RDKit          3D

 31 33  0  0  0  0  0  0  0  0999 V2000
   67.7730   45.4588   52.5951 C   0  0  0  0  0  0  0  0  0  0  0  0
   68.5461   46.7039   52.9252 C   0  0  0  0  0  0  0  0  0  0  0  0
   68.9961   47.5456   51.9353 C   0  0  0  0  0  0  0  0  0  0  0  0
   69.7160   48.6993   52.2669 C   0  0  0  0  0  0  0  0  0  0  0  0
   69.9714   48.9880   53.5889 C   0  0  0  0  0  0  0  0  0  0  0  0
   69.5157   48.1385   54.5475 C   0  0  0  0  0  0  0  0  0  0  0  0
   68.8114   47.0103   54.2312 C   0  0  0  0  0  0  0  0  0  0  0  0
   70.8388   50.4191   54.0725 S   0  0  0  0  0  0  0  0  0  0  0  0
   72.3095   50.0798   53.9340 O   0  0  0  0  0  0  0  0  0  0  0  0
   70.5976   51.5198   53.0650 O   0  0  0  0  0  0  0  0  0  0  0  0
   70.5292   50.9610   55.6486 N   0  0  0  0  0  0  0  0  0  0  0  0
   69.3567   50.7708   56.4136 C   0  0  0  0  0  0  0  0  0  0  0  0
   68.2551   51.5770   56.2427 C   0  0  0  0  0  0  0  0  0  0  0  0
   67.0850   51.3952   56.9761 C   0  0  0  0  0  0  0  0  0  0  0  0
   66.9977   50.3861   57.9078 C   0  0  0  0  0  0  0  0  0  0  0  0
   68.0936   49.5793   58.0809 C   0  0  0  0  0  0  0  0  0  0  0  0
   69.2519   49.7555   57.3581 C   0  0  0  0  0  0  0  0  0  0  0  0
   70.3097   48.9148   57.5856 F   0  0  0  0  0  0  0  0  0  0  0  0
   68.3233   46.0980   55.2903 C   0  0  0  0  0  0  0  0  0  0  0  0
   67.6979   46.6250   56.2350 O   0  0  0  0  0  0  0  0  0  0  0  0
   68.5170   44.7019   55.2976 N   0  0  0  0  0  0  0  0  0  0  0  0
   68.0433   43.8623   56.3177 N   0  0  0  0  0  0  0  0  0  0  0  0
   68.9137   43.0266   57.0645 C   0  0  0  0  0  0  0  0  0  0  0  0
   70.1455   43.1103   56.7242 O   0  0  0  0  0  0  0  0  0  0  0  0
   68.5051   42.1413   58.1238 C   0  0  0  0  0  0  0  0  0  0  0  0
   67.9449   40.9039   57.9374 C   0  0  0  0  0  0  0  0  0  0  0  0
   67.5524   40.0862   58.9939 C   0  0  0  0  0  0  0  0  0  0  0  0
   67.7289   40.5248   60.2957 C   0  0  0  0  0  0  0  0  0  0  0  0
   68.2899   41.7648   60.5142 C   0  0  0  0  0  0  0  0  0  0  0  0
   68.6678   42.5504   59.4332 C   0  0  0  0  0  0  0  0  0  0  0  0
   69.2309   43.7950   59.7267 O   0  0  0  0  0  0  0  0  0  0  0  0
  1  2  1  0
  2  3  2  0
  2  7  1  0
  3  4  1  0
  4  5  2  0
  5  8  1  0
  5  6  1  0
  8  9  2  0
  8 10  2  0
  8 11  1  0
 11 12  1  0
 12 13  2  0
 12 17  1  0
 13 14  1  0
 14 15  2  0
 15 16  1  0
 16 17  2  0
 17 18  1  0
  6  7  2  0
  7 19  1  0
 19 20  2  0
 19 21  1  0
 21 22  1  0
 22 23  1  0
 23 24  2  0
 23 25  1  0
 25 26  2  0
 25 30  1  0
 26 27  1  0
 27 28  2  0
 28 29  1  0
 29 30  2  0
 30 31  1  0
M  END
>  <minimizedAffinity>  (719) 
-9.31542

$$$$
data/reference_output_2/data/smiles/152215.pdb
     RDKit          3D

 26 27  0  0  0  0  0  0  0  0999 V2000
   67.9361   42.0946   56.9555 N   0  0  0  0  0  0  0  0  0  0  0  0
   67.9783   40.7228   56.7206 C   0  0  0  0  0  0  0  0  0  0  0  0
   67.6804   40.3520   55.5286 O   0  0  0  0  0  0  0  0  0  0  0  0
   67.8858   45.2233   54.8182 N   0  0  0  0  0  0  0  0  0  0  0  0
   68.2034   44.2785   55.8165 C   0  0  0  0  0  0  0  0  0  0  0  0
   69.0988   44.5927   56.6482 O   0  0  0  0  0  0  0  0  0  0  0  0
   67.5962   43.0072   55.9540 N   0  0  0  0  0  0  0  0  0  0  0  0
   69.7121   48.8120   51.9555 C   0  0  0  0  0  0  0  0  0  0  0  0
   69.3835   48.2504   53.2924 C   0  0  0  0  0  0  0  0  0  0  0  0
   69.6692   48.9702   54.4130 C   0  0  0  0  0  0  0  0  0  0  0  0
   69.3825   48.4873   55.6689 C   0  0  0  0  0  0  0  0  0  0  0  0
   68.7818   47.2248   55.7874 C   0  0  0  0  0  0  0  0  0  0  0  0
   68.4857   46.4843   54.6784 C   0  0  0  0  0  0  0  0  0  0  0  0
   68.7881   47.0020   53.4494 C   0  0  0  0  0  0  0  0  0  0  0  0
   68.4732   46.2102   52.2245 C   0  0  0  0  0  0  0  0  0  0  0  0
   68.3131   39.6446   57.6456 C   0  0  0  0  0  0  0  0  0  0  0  0
   69.5681   39.6381   58.2126 O   0  0  0  0  0  0  0  0  0  0  0  0
   70.2119   38.4474   58.5403 C   0  0  0  0  0  0  0  0  0  0  0  0
   71.3220   37.9622   57.8828 C   0  0  0  0  0  0  0  0  0  0  0  0
   71.9151   36.7762   58.2554 C   0  0  0  0  0  0  0  0  0  0  0  0
   71.4466   36.0034   59.2956 C   0  0  0  0  0  0  0  0  0  0  0  0
   70.3349   36.4837   59.9577 C   0  0  0  0  0  0  0  0  0  0  0  0
   69.7354   37.6611   59.5979 C   0  0  0  0  0  0  0  0  0  0  0  0
   72.0783   34.7825   59.6590 N   0  0  0  0  0  0  0  0  0  0  0  0
   71.7076   33.6959   59.2217 O   0  0  0  0  0  0  0  0  0  0  0  0
   73.1365   34.8413   60.5294 O   0  0  0  0  0  0  0  0  0  0  0  0
  8  9  1  0
  9 10  2  0
  9 14  1  0
 10 11  1  0
 11 12  2  0
 12 13  1  0
 13  4  1  0
 13 14  2  0
  4  5  1  0
  5  6  2  0
  5  7  1  0
  7  1  1  0
  1  2  1  0
  2  3  2  0
  2 16  1  0
 16 17  1  0
 17 18  1  0
 18 19  2  0
 18 23  1  0
 19 20  1  0
 20 21  2  0
 21 24  1  0
 21 22  1  0
 24 25  2  0
 24 26  1  0
 22 23  2  0
 14 15  1  0
M  CHG  2  24   1  26  -1
M  END
>  <minimizedAffinity>  (720) 
-8.79970

$$$$
data/reference_output_2/data/smiles/152415.pdb
     RDKit          3D

 27 30  0  0  0  0  0  0  0  0999 V2000
   71.2418   47.3795   58.5587 C   0  0  0  0  0  0  0  0  0  0  0  0
   71.1152   45.9712   58.5555 C   0  0  0  0  0  0  0  0  0  0  0  0
   70.3034   45.3037   57.6797 C   0  0  0  0  0  0  0  0  0  0  0  0
   69.5883   46.0899   56.7665 C   0  0  0  0  0  0  0  0  0  0  0  0
   69.6671   47.4267   56.7219 N   0  0  0  0  0  0  0  0  0  0  0  0
   70.4992   48.0400   57.6256 C   0  0  0  0  0  0  0  0  0  0  0  0
   70.5302   49.2832   57.5301 O   0  0  0  0  0  0  0  0  0  0  0  0
   74.0839   49.3512   60.2626 C   0  0  0  0  0  0  0  0  0  0  0  0
   73.2483   48.7504   59.2097 N   0  0  0  0  0  0  0  0  0  0  0  0
   72.1088   47.9956   59.5072 C   0  0  0  0  0  0  0  0  0  0  0  0
   71.8512   47.8677   60.7503 O   0  0  0  0  0  0  0  0  0  0  0  0
   70.1370   43.8598   57.6637 C   0  0  0  0  0  0  0  0  0  0  0  0
   71.0547   43.0610   57.9696 O   0  0  0  0  0  0  0  0  0  0  0  0
   68.8931   43.3040   57.2873 N   0  0  0  0  0  0  0  0  0  0  0  0
   68.6685   41.8578   57.2536 C   0  0  0  0  0  0  0  0  0  0  0  0
   67.5385   41.4843   56.2531 C   0  0  0  0  0  0  0  0  0  0  0  0
   67.4251   41.2617   57.7366 C   0  0  0  0  0  0  0  0  0  0  0  0
   68.9109   48.2474   55.7727 C   0  0  0  0  0  0  0  0  0  0  0  0
   68.7197   47.5751   54.4603 C   0  0  0  0  0  0  0  0  0  0  0  0
   67.8320   46.5023   54.3787 C   0  0  0  0  0  0  0  0  0  0  0  0
   67.7137   45.8556   53.1708 C   0  0  0  0  0  0  0  0  0  0  0  0
   68.4317   46.2325   52.0654 C   0  0  0  0  0  0  0  0  0  0  0  0
   69.3046   47.2931   52.1485 C   0  0  0  0  0  0  0  0  0  0  0  0
   70.1104   47.8914   51.2402 N   0  0  0  0  0  0  0  0  0  0  0  0
   70.7484   48.8985   51.7919 N   0  0  0  0  0  0  0  0  0  0  0  0
   70.3555   48.9661   53.0920 C   0  0  0  0  0  0  0  0  0  0  0  0
   69.4401   47.9577   53.3512 C   0  0  0  0  0  0  0  0  0  0  0  0
  8  9  1  0
  9 10  1  0
 10 11  2  0
 10  1  1  0
  1  2  2  0
  1  6  1  0
  2  3  1  0
  3 12  1  0
  3  4  2  0
 12 13  2  0
 12 14  1  0
 14 15  1  0
 15 16  1  0
 15 17  1  0
 16 17  1  0
  4  5  1  0
  5 18  1  0
  5  6  1  0
 18 19  1  0
 19 20  2  0
 19 27  1  0
 20 21  1  0
 21 22  2  0
 22 23  1  0
 23 24  1  0
 23 27  2  0
 24 25  1  0
 25 26  2  0
 26 27  1  0
  6  7  2  0
M  END
>  <minimizedAffinity>  (721) 
-9.56952

$$$$
data/reference_output_2/data/smiles/152491.pdb
     RDKit          3D

 26 29  0  0  0  0  0  0  0  0999 V2000
   71.0145   46.0408   58.1120 C   0  0  0  0  0  0  0  0  0  0  0  0
   71.7428   46.8068   58.9988 C   0  0  0  0  0  0  0  0  0  0  0  0
   71.5423   48.1812   59.0418 C   0  0  0  0  0  0  0  0  0  0  0  0
   70.6336   48.7874   58.2172 C   0  0  0  0  0  0  0  0  0  0  0  0
   69.9047   48.0450   57.3327 C   0  0  0  0  0  0  0  0  0  0  0  0
   70.1083   46.6775   57.2958 C   0  0  0  0  0  0  0  0  0  0  0  0
   69.5205   44.2342   59.5237 O   0  0  0  0  0  0  0  0  0  0  0  0
   70.3849   43.7335   58.7801 C   0  0  0  0  0  0  0  0  0  0  0  0
   71.1833   44.6300   58.0293 N   0  0  0  0  0  0  0  0  0  0  0  0
   70.5906   42.2508   58.6663 C   0  0  0  0  0  0  0  0  0  0  0  0
   71.8316   41.7034   58.7495 C   0  0  0  0  0  0  0  0  0  0  0  0
   71.4973   39.9118   58.5508 S   0  0  0  0  0  0  0  0  0  0  0  0
   69.6513   40.2211   58.3805 C   0  0  0  0  0  0  0  0  0  0  0  0
   69.6051   41.4174   58.4839 N   0  0  0  0  0  0  0  0  0  0  0  0
   68.8972   48.6303   56.3905 C   0  0  0  0  0  0  0  0  0  0  0  0
   69.3045   48.5752   54.9800 C   0  0  0  0  0  0  0  0  0  0  0  0
   70.1772   49.5161   54.5220 N   0  0  0  0  0  0  0  0  0  0  0  0
   70.6079   49.5770   53.2990 N   0  0  0  0  0  0  0  0  0  0  0  0
   70.2071   48.6906   52.3854 C   0  0  0  0  0  0  0  0  0  0  0  0
   70.6403   48.7817   51.2286 O   0  0  0  0  0  0  0  0  0  0  0  0
   69.3196   47.6973   52.7609 C   0  0  0  0  0  0  0  0  0  0  0  0
   68.8671   47.6405   54.0659 C   0  0  0  0  0  0  0  0  0  0  0  0
   67.9104   46.5779   54.5161 C   0  0  0  0  0  0  0  0  0  0  0  0
   67.9681   45.4248   53.5088 C   0  0  0  0  0  0  0  0  0  0  0  0
   67.6055   46.1012   52.1769 C   0  0  0  0  0  0  0  0  0  0  0  0
   68.8999   46.7281   51.7070 C   0  0  0  0  0  0  0  0  0  0  0  0
  7  8  2  0
  8  9  1  0
  8 10  1  0
  9  1  1  0
  1  2  2  0
  1  6  1  0
  2  3  1  0
  3  4  2  0
  4  5  1  0
  5 15  1  0
  5  6  2  0
 15 16  1  0
 16 17  2  0
 16 22  1  0
 17 18  1  0
 18 19  1  0
 19 20  2  0
 19 21  1  0
 21 22  2  0
 21 26  1  0
 22 23  1  0
 23 24  1  0
 24 25  1  0
 25 26  1  0
 10 11  2  0
 10 14  1  0
 11 12  1  0
 12 13  1  0
 13 14  2  0
M  END
>  <minimizedAffinity>  (722) 
-8.63198

$$$$
data/reference_output_2/data/smiles/152498.pdb
     RDKit          3D

 30 33  0  0  0  0  0  0  0  0999 V2000
   68.0571   45.1096   54.8304 C   0  0  0  0  0  0  0  0  0  0  0  0
   68.0183   45.4434   53.4905 C   0  0  0  0  0  0  0  0  0  0  0  0
   68.3603   46.7004   53.0320 C   0  0  0  0  0  0  0  0  0  0  0  0
   68.7641   47.6971   53.9126 C   0  0  0  0  0  0  0  0  0  0  0  0
   69.0938   48.9143   53.4543 N   0  0  0  0  0  0  0  0  0  0  0  0
   69.4835   49.8744   54.3149 C   0  0  0  0  0  0  0  0  0  0  0  0
   69.5275   49.5740   55.6096 N   0  0  0  0  0  0  0  0  0  0  0  0
   69.2025   48.3519   56.1239 C   0  0  0  0  0  0  0  0  0  0  0  0
   69.2629   48.1204   57.3672 O   0  0  0  0  0  0  0  0  0  0  0  0
   68.8022   47.3643   55.2499 C   0  0  0  0  0  0  0  0  0  0  0  0
   68.4590   46.1041   55.7028 C   0  0  0  0  0  0  0  0  0  0  0  0
   69.9119   50.4453   56.7047 C   0  0  0  0  0  0  0  0  0  0  0  0
   68.8574   51.5181   56.8869 C   0  0  0  0  0  0  0  0  0  0  0  0
   68.4501   52.1129   55.5522 C   0  0  0  0  0  0  0  0  0  0  0  0
   69.6126   52.2699   54.6273 C   0  0  0  0  0  0  0  0  0  0  0  0
   69.8160   51.1597   53.6560 C   0  0  0  0  0  0  0  0  0  0  0  0
   68.3352   43.1264   56.3174 C   0  0  0  0  0  0  0  0  0  0  0  0
   69.2605   43.7455   56.9033 O   0  0  0  0  0  0  0  0  0  0  0  0
   67.6939   43.7977   55.2474 N   0  0  0  0  0  0  0  0  0  0  0  0
   67.2956   41.0682   55.9157 O   0  0  0  0  0  0  0  0  0  0  0  0
   67.9439   41.7713   56.7310 C   0  0  0  0  0  0  0  0  0  0  0  0
   68.2558   41.2310   57.9833 N   0  0  0  0  0  0  0  0  0  0  0  0
   67.8761   39.8927   58.4055 C   0  0  0  0  0  0  0  0  0  0  0  0
   69.0618   39.0509   58.6833 C   0  0  0  0  0  0  0  0  0  0  0  0
   68.9891   37.9696   59.5619 C   0  0  0  0  0  0  0  0  0  0  0  0
   70.1030   37.1961   59.8092 C   0  0  0  0  0  0  0  0  0  0  0  0
   71.3110   37.4575   59.2069 C   0  0  0  0  0  0  0  0  0  0  0  0
   72.3734   36.6646   59.4853 F   0  0  0  0  0  0  0  0  0  0  0  0
   71.4014   38.5329   58.3270 C   0  0  0  0  0  0  0  0  0  0  0  0
   70.2804   39.2880   58.0963 C   0  0  0  0  0  0  0  0  0  0  0  0
 20 21  2  0
 21 22  1  0
 21 17  1  0
 22 23  1  0
 23 24  1  0
 24 25  2  0
 24 30  1  0
 25 26  1  0
 26 27  2  0
 27 28  1  0
 27 29  1  0
 29 30  2  0
 17 18  2  0
 17 19  1  0
 19  1  1  0
  1  2  2  0
  1 11  1  0
  2  3  1  0
  3  4  2  0
  4  5  1  0
  4 10  1  0
  5  6  2  0
  6  7  1  0
  6 16  1  0
  7  8  1  0
  7 12  1  0
  8  9  2  0
  8 10  1  0
 10 11  2  0
 12 13  1  0
 13 14  1  0
 14 15  1  0
 15 16  1  0
M  END
>  <minimizedAffinity>  (723) 
-8.97865

$$$$
data/reference_output_2/data/smiles/152757.pdb
     RDKit          3D

 30 33  0  0  0  0  0  0  0  0999 V2000
   70.9468   43.6019   58.1474 C   0  0  0  0  0  0  0  0  0  0  0  0
   69.8040   42.9082   57.7900 C   0  0  0  0  0  0  0  0  0  0  0  0
   69.7500   41.5296   57.8488 C   0  0  0  0  0  0  0  0  0  0  0  0
   70.8246   40.7720   58.2649 C   0  0  0  0  0  0  0  0  0  0  0  0
   70.7975   39.3934   58.3324 C   0  0  0  0  0  0  0  0  0  0  0  0
   69.7302   38.7795   57.9966 O   0  0  0  0  0  0  0  0  0  0  0  0
   71.8503   38.6552   58.7394 N   0  0  0  0  0  0  0  0  0  0  0  0
   72.9545   39.3546   59.0842 C   0  0  0  0  0  0  0  0  0  0  0  0
   73.9496   38.6590   59.4685 O   0  0  0  0  0  0  0  0  0  0  0  0
   73.0115   40.6994   59.0277 N   0  0  0  0  0  0  0  0  0  0  0  0
   71.9702   41.4519   58.6234 C   0  0  0  0  0  0  0  0  0  0  0  0
   72.0137   42.8322   58.5616 C   0  0  0  0  0  0  0  0  0  0  0  0
   71.8120   37.2321   58.8068 C   0  0  0  0  0  0  0  0  0  0  0  0
   72.3660   36.4850   57.7870 C   0  0  0  0  0  0  0  0  0  0  0  0
   72.3475   35.0971   57.8192 C   0  0  0  0  0  0  0  0  0  0  0  0
   71.7760   34.4097   58.8690 C   0  0  0  0  0  0  0  0  0  0  0  0
   71.2217   35.1506   59.8902 C   0  0  0  0  0  0  0  0  0  0  0  0
   71.2416   36.5388   59.8552 C   0  0  0  0  0  0  0  0  0  0  0  0
   69.8891   45.8968   57.8359 N   0  0  0  0  0  0  0  0  0  0  0  0
   70.9962   45.0637   58.0824 C   0  0  0  0  0  0  0  0  0  0  0  0
   72.1089   45.6223   58.2590 O   0  0  0  0  0  0  0  0  0  0  0  0
   69.9504   47.3367   57.7738 C   0  0  0  0  0  0  0  0  0  0  0  0
   68.7495   47.9329   57.0806 C   0  0  0  0  0  0  0  0  0  0  0  0
   68.5935   46.7570   51.4605 C   0  0  0  0  0  0  0  0  0  0  0  0
   68.6188   47.0334   52.9100 C   0  0  0  0  0  0  0  0  0  0  0  0
   68.0788   46.1315   53.8025 C   0  0  0  0  0  0  0  0  0  0  0  0
   68.1116   46.4087   55.1706 C   0  0  0  0  0  0  0  0  0  0  0  0
   68.6693   47.5573   55.6448 C   0  0  0  0  0  0  0  0  0  0  0  0
   69.2020   48.4403   54.7225 C   0  0  0  0  0  0  0  0  0  0  0  0
   69.2000   48.2234   53.3612 C   0  0  0  0  0  0  0  0  0  0  0  0
 24 25  1  0
 25 26  2  0
 25 30  1  0
 26 27  1  0
 27 28  2  0
 28 23  1  0
 28 29  1  0
 23 22  1  0
 22 19  1  0
 19 20  1  0
 20 21  2  0
 20  1  1  0
  1  2  2  0
  1 12  1  0
  2  3  1  0
  3  4  2  0
  4  5  1  0
  4 11  1  0
  5  6  2  0
  5  7  1  0
  7 13  1  0
  7  8  1  0
 13 14  2  0
 13 18  1  0
 14 15  1  0
 15 16  2  0
 16 17  1  0
 17 18  2  0
  8  9  2  0
  8 10  1  0
 10 11  1  0
 11 12  2  0
 29 30  2  0
M  END
>  <minimizedAffinity>  (724) 
-9.19853

$$$$
data/reference_output_2/data/smiles/152894.pdb
     RDKit          3D

 26 28  0  0  0  0  0  0  0  0999 V2000
   70.4937   40.3303   58.4654 N   0  0  0  0  0  0  0  0  0  0  0  0
   71.3310   41.3952   58.8972 C   0  0  0  0  0  0  0  0  0  0  0  0
   72.3248   41.1290   59.6061 O   0  0  0  0  0  0  0  0  0  0  0  0
   71.0959   42.7722   58.5617 N   0  0  0  0  0  0  0  0  0  0  0  0
   69.9862   43.1556   57.7609 C   0  0  0  0  0  0  0  0  0  0  0  0
   69.7730   44.3771   57.4618 O   0  0  0  0  0  0  0  0  0  0  0  0
   69.0996   42.1015   57.2937 C   0  0  0  0  0  0  0  0  0  0  0  0
   68.0435   42.3802   56.5619 C   0  0  0  0  0  0  0  0  0  0  0  0
   69.3814   40.6987   57.6636 C   0  0  0  0  0  0  0  0  0  0  0  0
   68.6071   39.7923   57.2511 O   0  0  0  0  0  0  0  0  0  0  0  0
   71.2478   34.7729   59.7362 C   0  0  0  0  0  0  0  0  0  0  0  0
   71.0551   36.2214   59.4142 C   0  0  0  0  0  0  0  0  0  0  0  0
   70.2219   37.0246   60.1566 C   0  0  0  0  0  0  0  0  0  0  0  0
   70.0585   38.3727   59.8377 C   0  0  0  0  0  0  0  0  0  0  0  0
   70.7151   38.9635   58.7745 C   0  0  0  0  0  0  0  0  0  0  0  0
   71.5496   38.1354   58.0408 C   0  0  0  0  0  0  0  0  0  0  0  0
   71.7214   36.7831   58.3504 C   0  0  0  0  0  0  0  0  0  0  0  0
   72.6446   35.9645   57.4998 C   0  0  0  0  0  0  0  0  0  0  0  0
   67.7645   43.7394   56.2236 N   0  0  0  0  0  0  0  0  0  0  0  0
   67.4434   44.0887   54.8933 N   0  0  0  0  0  0  0  0  0  0  0  0
   67.9572   45.3206   54.3705 C   0  0  0  0  0  0  0  0  0  0  0  0
   67.8990   45.4637   52.9932 C   0  0  0  0  0  0  0  0  0  0  0  0
   68.3701   46.6126   52.4076 C   0  0  0  0  0  0  0  0  0  0  0  0
   68.9002   47.6219   53.1782 C   0  0  0  0  0  0  0  0  0  0  0  0
   68.9521   47.4663   54.5522 C   0  0  0  0  0  0  0  0  0  0  0  0
   68.4814   46.3154   55.1503 C   0  0  0  0  0  0  0  0  0  0  0  0
 11 12  1  0
 12 13  2  0
 12 17  1  0
 13 14  1  0
 14 15  2  0
 15  1  1  0
 15 16  1  0
  1  2  1  0
  1  9  1  0
  2  3  2  0
  2  4  1  0
  4  5  1  0
  5  6  2  0
  5  7  1  0
  7  8  2  0
  7  9  1  0
  8 19  1  0
 19 20  1  0
 20 21  1  0
 21 22  2  0
 21 26  1  0
 22 23  1  0
 23 24  2  0
 24 25  1  0
 25 26  2  0
  9 10  2  0
 16 17  2  0
 17 18  1  0
M  END
>  <minimizedAffinity>  (725) 
-8.82089

$$$$
data/reference_output_2/data/smiles/152902.pdb
     RDKit          3D

 22 24  0  0  0  0  0  0  0  0999 V2000
   71.4377   50.5292   54.5506 C   0  0  0  0  0  0  0  0  0  0  0  0
   72.5333   50.9829   54.2257 O   0  0  0  0  0  0  0  0  0  0  0  0
   70.3892   51.1330   55.3562 C   0  0  0  0  0  0  0  0  0  0  0  0
   70.2849   52.5348   55.3885 C   0  0  0  0  0  0  0  0  0  0  0  0
   69.3077   53.1335   56.1375 C   0  0  0  0  0  0  0  0  0  0  0  0
   68.4027   52.4065   56.8777 C   0  0  0  0  0  0  0  0  0  0  0  0
   68.4916   51.0296   56.8564 C   0  0  0  0  0  0  0  0  0  0  0  0
   67.5689   50.3419   57.6084 C   0  0  0  0  0  0  0  0  0  0  0  0
   67.6196   48.9645   57.6173 C   0  0  0  0  0  0  0  0  0  0  0  0
   68.5967   48.3482   56.8682 C   0  0  0  0  0  0  0  0  0  0  0  0
   69.5304   49.0465   56.1079 C   0  0  0  0  0  0  0  0  0  0  0  0
   69.4922   50.4215   56.0882 C   0  0  0  0  0  0  0  0  0  0  0  0
   71.2364   49.2220   54.0269 O   0  0  0  0  0  0  0  0  0  0  0  0
   71.2071   48.9638   52.6813 N   0  0  0  0  0  0  0  0  0  0  0  0
   69.7744   49.6710   51.0512 N   0  0  0  0  0  0  0  0  0  0  0  0
   70.0004   48.7792   51.9307 C   0  0  0  0  0  0  0  0  0  0  0  0
   69.1183   47.6488   52.1771 C   0  0  0  0  0  0  0  0  0  0  0  0
   68.8891   47.1222   53.4170 C   0  0  0  0  0  0  0  0  0  0  0  0
   68.0303   46.0310   53.6117 C   0  0  0  0  0  0  0  0  0  0  0  0
   67.3937   45.4652   52.5315 C   0  0  0  0  0  0  0  0  0  0  0  0
   67.6414   46.0143   51.2919 C   0  0  0  0  0  0  0  0  0  0  0  0
   68.4687   47.0604   51.1302 N   0  0  0  0  0  0  0  0  0  0  0  0
 15 16  2  0
 16 14  1  0
 16 17  1  0
 14 13  1  0
 13  1  1  0
  1  2  2  0
  1  3  1  0
  3  4  2  0
  3 12  1  0
  4  5  1  0
  5  6  2  0
  6  7  1  0
  7  8  1  0
  7 12  2  0
  8  9  2  0
  9 10  1  0
 10 11  2  0
 11 12  1  0
 17 18  2  0
 17 22  1  0
 18 19  1  0
 19 20  2  0
 20 21  1  0
 21 22  2  0
M  CHG  1  15   1
M  END
>  <minimizedAffinity>  (726) 
-8.93622

$$$$
data/reference_output_2/data/smiles/152918.pdb
     RDKit          3D

 26 28  0  0  0  0  0  0  0  0999 V2000
   69.1452   40.1866   57.8493 C   0  0  0  0  0  0  0  0  0  0  0  0
   68.1546   40.0992   56.8944 C   0  0  0  0  0  0  0  0  0  0  0  0
   67.7088   41.2116   56.2011 C   0  0  0  0  0  0  0  0  0  0  0  0
   66.7334   41.1406   55.2577 F   0  0  0  0  0  0  0  0  0  0  0  0
   68.2674   42.4430   56.4688 C   0  0  0  0  0  0  0  0  0  0  0  0
   69.2770   42.5825   57.4307 C   0  0  0  0  0  0  0  0  0  0  0  0
   69.6682   41.4583   58.0723 C   0  0  0  0  0  0  0  0  0  0  0  0
   71.8216   36.1722   59.1539 C   0  0  0  0  0  0  0  0  0  0  0  0
   70.8102   37.2583   59.1398 C   0  0  0  0  0  0  0  0  0  0  0  0
   69.8195   37.4737   60.0669 C   0  0  0  0  0  0  0  0  0  0  0  0
   69.1148   38.5739   59.6751 N   0  0  0  0  0  0  0  0  0  0  0  0
   69.6078   39.0513   58.5648 N   0  0  0  0  0  0  0  0  0  0  0  0
   70.6443   38.2776   58.2035 C   0  0  0  0  0  0  0  0  0  0  0  0
   69.8044   43.9197   57.6429 C   0  0  0  0  0  0  0  0  0  0  0  0
   70.7681   44.1458   58.4225 O   0  0  0  0  0  0  0  0  0  0  0  0
   69.2466   45.0306   56.9719 N   0  0  0  0  0  0  0  0  0  0  0  0
   69.7278   46.3418   57.1489 N   0  0  0  0  0  0  0  0  0  0  0  0
   68.7490   47.4394   56.2887 S   0  0  0  0  0  0  0  0  0  0  0  0
   69.2724   48.8578   56.4542 O   0  0  0  0  0  0  0  0  0  0  0  0
   67.3593   47.4392   56.8699 O   0  0  0  0  0  0  0  0  0  0  0  0
   68.6199   47.0626   54.6049 C   0  0  0  0  0  0  0  0  0  0  0  0
   69.2368   47.9061   53.6880 C   0  0  0  0  0  0  0  0  0  0  0  0
   69.1339   47.6034   52.3340 C   0  0  0  0  0  0  0  0  0  0  0  0
   68.4516   46.5161   51.8934 C   0  0  0  0  0  0  0  0  0  0  0  0
   67.8247   45.6551   52.7924 C   0  0  0  0  0  0  0  0  0  0  0  0
   67.9382   45.9701   54.1193 C   0  0  0  0  0  0  0  0  0  0  0  0
  8  9  1  0
  9 10  1  0
  9 13  2  0
 10 11  2  0
 11 12  1  0
 12  1  1  0
 12 13  1  0
  1  2  2  0
  1  7  1  0
  2  3  1  0
  3  4  1  0
  3  5  2  0
  5  6  1  0
  6 14  1  0
  6  7  2  0
 14 15  2  0
 14 16  1  0
 16 17  1  0
 17 18  1  0
 18 19  2  0
 18 20  2  0
 18 21  1  0
 21 22  2  0
 21 26  1  0
 22 23  1  0
 23 24  2  0
 24 25  1  0
 25 26  2  0
M  END
>  <minimizedAffinity>  (727) 
-9.09438

$$$$
data/reference_output_2/data/smiles/152928.pdb
     RDKit          3D

 24 26  0  0  0  0  0  0  0  0999 V2000
   70.2926   49.2441   53.6821 C   0  0  0  0  0  0  0  0  0  0  0  0
   69.9270   48.6322   54.8433 C   0  0  0  0  0  0  0  0  0  0  0  0
   69.1595   47.5292   54.9486 N   0  0  0  0  0  0  0  0  0  0  0  0
   68.7284   47.0105   53.7666 C   0  0  0  0  0  0  0  0  0  0  0  0
   67.9333   45.8883   53.7875 C   0  0  0  0  0  0  0  0  0  0  0  0
   67.5648   45.2977   54.9110 F   0  0  0  0  0  0  0  0  0  0  0  0
   67.4901   45.3626   52.5908 C   0  0  0  0  0  0  0  0  0  0  0  0
   67.8327   45.9436   51.3831 C   0  0  0  0  0  0  0  0  0  0  0  0
   68.6268   47.0651   51.3507 C   0  0  0  0  0  0  0  0  0  0  0  0
   69.0682   47.5876   52.5557 C   0  0  0  0  0  0  0  0  0  0  0  0
   69.8615   48.7222   52.4959 C   0  0  0  0  0  0  0  0  0  0  0  0
   70.1492   49.2193   51.3900 O   0  0  0  0  0  0  0  0  0  0  0  0
   72.3466   50.3681   54.0147 O   0  0  0  0  0  0  0  0  0  0  0  0
   71.1355   50.4448   53.6915 C   0  0  0  0  0  0  0  0  0  0  0  0
   70.6083   51.6827   53.3430 O   0  0  0  0  0  0  0  0  0  0  0  0
   68.8456   46.9426   56.2344 C   0  0  0  0  0  0  0  0  0  0  0  0
   69.7789   47.3421   57.3107 C   0  0  0  0  0  0  0  0  0  0  0  0
   70.4560   46.4969   58.0393 C   0  0  0  0  0  0  0  0  0  0  0  0
   71.3812   46.8575   59.1046 C   0  0  0  0  0  0  0  0  0  0  0  0
   72.0110   48.0804   59.1692 C   0  0  0  0  0  0  0  0  0  0  0  0
   72.8980   48.4054   60.2039 C   0  0  0  0  0  0  0  0  0  0  0  0
   73.1461   47.4841   61.1785 C   0  0  0  0  0  0  0  0  0  0  0  0
   72.5172   46.2672   61.1102 C   0  0  0  0  0  0  0  0  0  0  0  0
   71.6723   45.9870   60.1047 N   0  0  0  0  0  0  0  0  0  0  0  0
 13 14  2  0
 14 15  1  0
 14  1  1  0
  1  2  2  0
  1 11  1  0
  2  3  1  0
  3 16  1  0
  3  4  1  0
 16 17  1  0
 17 18  2  0
 18 19  1  0
 19 20  2  0
 19 24  1  0
 20 21  1  0
 21 22  2  0
 22 23  1  0
 23 24  2  0
  4  5  1  0
  4 10  2  0
  5  6  1  0
  5  7  2  0
  7  8  1  0
  8  9  2  0
  9 10  1  0
 10 11  1  0
 11 12  2  0
M  END
>  <minimizedAffinity>  (728) 
-8.58761

$$$$
data/reference_output_2/data/smiles/153382.pdb
     RDKit          3D

 29 32  0  0  0  0  0  0  0  0999 V2000
   70.3274   46.2782   57.9961 C   0  0  0  0  0  0  0  0  0  0  0  0
   70.6623   47.3656   58.5339 O   0  0  0  0  0  0  0  0  0  0  0  0
   69.3213   46.3211   57.0188 N   0  0  0  0  0  0  0  0  0  0  0  0
   71.5850   42.8624   58.0188 N   0  0  0  0  0  0  0  0  0  0  0  0
   70.5732   43.8242   57.6233 C   0  0  0  0  0  0  0  0  0  0  0  0
   71.0165   45.0452   58.4337 C   0  0  1  0  0  0  0  0  0  0  0  0
   72.4942   45.0697   58.1092 C   0  0  0  0  0  0  0  0  0  0  0  0
   72.7942   43.5975   58.0631 C   0  0  0  0  0  0  0  0  0  0  0  0
   73.9594   43.1673   58.0666 O   0  0  0  0  0  0  0  0  0  0  0  0
   70.7020   37.2906   59.1221 C   0  0  0  0  0  0  0  0  0  0  0  0
   70.9231   38.7368   58.8358 C   0  0  0  0  0  0  0  0  0  0  0  0
   72.1874   39.2786   58.9162 C   0  0  0  0  0  0  0  0  0  0  0  0
   72.4120   40.6294   58.6512 C   0  0  0  0  0  0  0  0  0  0  0  0
   71.3893   41.4811   58.2981 C   0  0  0  0  0  0  0  0  0  0  0  0
   70.1286   40.9239   58.2214 C   0  0  0  0  0  0  0  0  0  0  0  0
   69.8977   39.5873   58.4826 C   0  0  0  0  0  0  0  0  0  0  0  0
   68.5201   39.0468   58.3825 C   0  0  0  0  0  0  0  0  0  0  0  0
   68.6719   47.5638   56.6208 C   0  0  0  0  0  0  0  0  0  0  0  0
   69.2267   47.9533   55.3177 C   0  0  0  0  0  0  0  0  0  0  0  0
   70.1320   48.9278   55.2441 N   0  0  0  0  0  0  0  0  0  0  0  0
   70.6457   49.2954   54.0703 N   0  0  0  0  0  0  0  0  0  0  0  0
   70.2812   48.7104   52.9234 C   0  0  0  0  0  0  0  0  0  0  0  0
   70.7568   49.0487   51.8248 O   0  0  0  0  0  0  0  0  0  0  0  0
   69.3476   47.7000   52.9652 C   0  0  0  0  0  0  0  0  0  0  0  0
   68.9342   47.0566   51.7903 C   0  0  0  0  0  0  0  0  0  0  0  0
   68.0002   46.0445   51.8228 C   0  0  0  0  0  0  0  0  0  0  0  0
   67.4646   45.6588   53.0320 C   0  0  0  0  0  0  0  0  0  0  0  0
   67.8803   46.3003   54.1776 C   0  0  0  0  0  0  0  0  0  0  0  0
   68.8182   47.3214   54.1758 C   0  0  0  0  0  0  0  0  0  0  0  0
 10 11  1  0
 11 12  2  0
 11 16  1  0
 12 13  1  0
 13 14  2  0
 14  4  1  0
 14 15  1  0
  4  5  1  0
  4  8  1  0
  5  6  1  0
  6  1  1  6
  6  7  1  0
  1  2  2  0
  1  3  1  0
  3 18  1  0
 18 19  1  0
 19 20  2  0
 19 29  1  0
 20 21  1  0
 21 22  1  0
 22 23  2  0
 22 24  1  0
 24 25  1  0
 24 29  2  0
 25 26  2  0
 26 27  1  0
 27 28  2  0
 28 29  1  0
  7  8  1  0
  8  9  2  0
 15 16  2  0
 16 17  1  0
M  END
>  <minimizedAffinity>  (729) 
-9.39221

$$$$
data/reference_output_2/data/smiles/153457.pdb
     RDKit          3D

 29 31  0  0  0  0  0  0  0  0999 V2000
   70.0893   39.6863   58.7415 C   0  0  2  0  0  0  0  0  0  0  0  0
   68.6305   39.2883   58.6969 C   0  0  0  0  0  0  0  0  0  0  0  0
   68.0347   39.3932   57.4055 N   0  0  0  0  0  0  0  0  0  0  0  0
   68.0258   40.4793   56.5116 C   0  0  0  0  0  0  0  0  0  0  0  0
   67.5269   40.2796   55.3537 O   0  0  0  0  0  0  0  0  0  0  0  0
   68.5077   41.8431   56.6931 C   0  0  0  0  0  0  0  0  0  0  0  0
   69.5806   42.0120   57.6355 N   0  0  0  0  0  0  0  0  0  0  0  0
   69.9382   43.3882   57.8224 C   0  0  0  0  0  0  0  0  0  0  0  0
   70.8659   43.6790   58.6268 O   0  0  0  0  0  0  0  0  0  0  0  0
   69.2814   44.4324   57.1332 N   0  0  0  0  0  0  0  0  0  0  0  0
   70.3396   41.0862   58.4028 C   0  0  0  0  0  0  0  0  0  0  0  0
   71.4159   41.5816   58.8662 O   0  0  0  0  0  0  0  0  0  0  0  0
   70.9575   38.6739   58.0820 C   0  0  0  0  0  0  0  0  0  0  0  0
   71.7851   36.3512   58.2146 C   0  0  0  0  0  0  0  0  0  0  0  0
   71.8430   35.1324   58.8373 C   0  0  0  0  0  0  0  0  0  0  0  0
   71.1643   34.8433   60.0016 C   0  0  0  0  0  0  0  0  0  0  0  0
   70.4042   35.8883   60.5113 C   0  0  0  0  0  0  0  0  0  0  0  0
   69.5116   35.5719   62.0040 Cl  0  0  0  0  0  0  0  0  0  0  0  0
   70.3319   37.1139   59.9068 C   0  0  0  0  0  0  0  0  0  0  0  0
   71.0264   37.3509   58.7484 C   0  0  0  0  0  0  0  0  0  0  0  0
   73.0376   35.5677   56.2334 C   0  0  0  0  0  0  0  0  0  0  0  0
   72.4941   36.5446   57.0645 O   0  0  0  0  0  0  0  0  0  0  0  0
   69.5857   45.8384   57.2681 C   0  0  0  0  0  0  0  0  0  0  0  0
   69.2330   46.5557   56.0263 C   0  0  0  0  0  0  0  0  0  0  0  0
   69.5657   47.8657   55.7767 C   0  0  0  0  0  0  0  0  0  0  0  0
   69.1936   48.4475   54.5706 C   0  0  0  0  0  0  0  0  0  0  0  0
   68.4992   47.7394   53.6211 C   0  0  0  0  0  0  0  0  0  0  0  0
   68.1526   46.4245   53.8465 C   0  0  0  0  0  0  0  0  0  0  0  0
   68.5241   45.8563   55.0410 C   0  0  0  0  0  0  0  0  0  0  0  0
 21 22  1  0
 22 14  1  0
 14 15  2  0
 14 20  1  0
 15 16  1  0
 16 17  2  0
 17 18  1  0
 17 19  1  0
 19 20  2  0
 20 13  1  0
  1 13  1  6
  1  2  1  0
  1 11  1  0
  2  3  1  0
  3  4  1  0
  4  5  2  0
  4  6  1  0
  6  7  1  0
  7  8  1  0
  7 11  1  0
  8  9  2  0
  8 10  1  0
 10 23  1  0
 23 24  1  0
 24 25  2  0
 24 29  1  0
 25 26  1  0
 26 27  2  0
 27 28  1  0
 28 29  2  0
 11 12  2  0
M  END
>  <minimizedAffinity>  (730) 
-8.65136

$$$$
data/reference_output_2/data/smiles/153521.pdb
     RDKit          3D

 26 29  0  0  0  0  0  0  0  0999 V2000
   68.3744   43.7111   56.2121 C   0  0  0  0  0  0  0  0  0  0  0  0
   69.3151   43.2773   57.1156 C   0  0  0  0  0  0  0  0  0  0  0  0
   69.0207   42.0633   57.6133 N   0  0  0  0  0  0  0  0  0  0  0  0
   67.8475   41.7223   56.9977 C   0  0  0  0  0  0  0  0  0  0  0  0
   67.4714   42.7120   56.1644 N   0  0  0  0  0  0  0  0  0  0  0  0
   68.0221   46.1683   53.3685 C   0  0  0  0  0  0  0  0  0  0  0  0
   68.2499   47.3667   54.0398 C   0  0  0  0  0  0  0  0  0  0  0  0
   68.5080   47.3116   55.3916 C   0  0  0  0  0  0  0  0  0  0  0  0
   68.5438   46.1374   56.0672 N   0  0  0  0  0  0  0  0  0  0  0  0
   68.3291   44.9590   55.4578 C   0  0  0  0  0  0  0  0  0  0  0  0
   68.0695   44.9995   54.1059 C   0  0  0  0  0  0  0  0  0  0  0  0
   66.8775   45.4313   51.4522 O   0  0  0  0  0  0  0  0  0  0  0  0
   67.7439   46.1657   51.9401 C   0  0  0  0  0  0  0  0  0  0  0  0
   68.4639   47.0043   51.1095 O   0  0  0  0  0  0  0  0  0  0  0  0
   69.7520   41.2785   58.5880 C   0  0  0  0  0  0  0  0  0  0  0  0
   69.3961   39.8213   58.4936 C   0  0  0  0  0  0  0  0  0  0  0  0
   70.3371   38.8903   58.8989 N   0  0  1  0  0  0  0  0  0  0  0  0
   70.0669   37.9532   59.9132 C   0  0  0  0  0  0  0  0  0  0  0  0
   70.7799   36.7082   59.5098 C   0  0  0  0  0  0  0  0  0  0  0  0
   70.7926   35.4200   59.9911 C   0  0  0  0  0  0  0  0  0  0  0  0
   71.5617   34.4244   59.4123 C   0  0  0  0  0  0  0  0  0  0  0  0
   72.3335   34.7281   58.3284 C   0  0  0  0  0  0  0  0  0  0  0  0
   73.0901   33.7621   57.7532 F   0  0  0  0  0  0  0  0  0  0  0  0
   72.3328   36.0266   57.8261 C   0  0  0  0  0  0  0  0  0  0  0  0
   71.5682   37.0141   58.4035 C   0  0  0  0  0  0  0  0  0  0  0  0
   71.3908   38.4754   58.0658 C   0  0  0  0  0  0  0  0  0  0  0  0
 12 13  2  0
 13 14  1  0
 13  6  1  0
  6  7  2  0
  6 11  1  0
  7  8  1  0
  8  9  2  0
  9 10  1  0
 10  1  1  0
 10 11  2  0
  1  2  2  0
  1  5  1  0
  2  3  1  0
  3 15  1  0
  3  4  1  0
 15 16  1  0
 17 16  1  6
 17 18  1  0
 17 26  1  0
 18 19  1  0
 19 20  1  0
 19 25  2  0
 20 21  2  0
 21 22  1  0
 22 23  1  0
 22 24  2  0
 24 25  1  0
 25 26  1  0
  4  5  2  0
M  CHG  1  17   1
M  END
>  <minimizedAffinity>  (731) 
-8.80718

$$$$
data/reference_output_2/data/smiles/153581.pdb
     RDKit          3D

 20 21  0  0  0  0  0  0  0  0999 V2000
   69.2665   47.6516   52.7039 C   0  0  0  0  0  0  0  0  0  0  0  0
   69.4281   47.4813   54.0579 C   0  0  0  0  0  0  0  0  0  0  0  0
   68.7950   46.5257   54.7590 N   0  0  0  0  0  0  0  0  0  0  0  0
   67.9644   45.7019   54.0848 C   0  0  0  0  0  0  0  0  0  0  0  0
   67.7521   45.8104   52.7257 C   0  0  0  0  0  0  0  0  0  0  0  0
   66.9076   44.9844   52.0010 O   0  0  0  0  0  0  0  0  0  0  0  0
   68.4165   46.8007   52.0367 C   0  0  0  0  0  0  0  0  0  0  0  0
   68.2379   46.9221   50.7863 O   0  0  0  0  0  0  0  0  0  0  0  0
   70.6277   48.4318   50.9330 O   0  0  0  0  0  0  0  0  0  0  0  0
   69.9805   48.7115   51.9739 C   0  0  0  0  0  0  0  0  0  0  0  0
   69.9660   50.0270   52.4012 O   0  0  0  0  0  0  0  0  0  0  0  0
   68.9730   46.3550   56.1869 C   0  0  0  0  0  0  0  0  0  0  0  0
   69.0416   47.6877   56.8407 C   0  0  0  0  0  0  0  0  0  0  0  0
   70.2359   48.1088   57.3868 C   0  0  0  0  0  0  0  0  0  0  0  0
   70.3796   49.3328   58.0105 C   0  0  0  0  0  0  0  0  0  0  0  0
   69.2974   50.1807   58.0995 C   0  0  0  0  0  0  0  0  0  0  0  0
   69.3620   51.3937   58.6952 F   0  0  0  0  0  0  0  0  0  0  0  0
   68.0852   49.7657   57.5515 C   0  0  0  0  0  0  0  0  0  0  0  0
   66.7050   50.8282   57.6572 Cl  0  0  0  0  0  0  0  0  0  0  0  0
   67.9574   48.5300   56.9266 C   0  0  0  0  0  0  0  0  0  0  0  0
  9 10  2  0
 10 11  1  0
 10  1  1  0
  1  2  2  0
  1  7  1  0
  2  3  1  0
  3 12  1  0
  3  4  1  0
 12 13  1  0
 13 14  2  0
 13 20  1  0
 14 15  1  0
 15 16  2  0
 16 17  1  0
 16 18  1  0
 18 19  1  0
 18 20  2  0
  4  5  2  0
  5  6  1  0
  5  7  1  0
  7  8  2  0
M  END
>  <minimizedAffinity>  (732) 
-8.54468

$$$$
data/reference_output_2/data/smiles/153618.pdb
     RDKit          3D

 26 29  0  0  0  0  0  0  0  0999 V2000
   71.1456   45.6856   58.6242 C   0  0  0  0  0  0  0  0  0  0  0  0
   70.6827   44.3757   58.4944 C   0  0  0  0  0  0  0  0  0  0  0  0
   69.7001   44.0394   57.5991 C   0  0  0  0  0  0  0  0  0  0  0  0
   69.1776   45.0186   56.8313 N   0  0  0  0  0  0  0  0  0  0  0  0
   69.5657   46.3092   56.8917 C   0  0  0  0  0  0  0  0  0  0  0  0
   70.5674   46.6286   57.8095 C   0  0  0  0  0  0  0  0  0  0  0  0
   70.7595   47.9923   57.6557 C   0  0  0  0  0  0  0  0  0  0  0  0
   69.9207   48.4275   56.7098 N   0  0  0  0  0  0  0  0  0  0  0  0
   69.1925   47.4206   56.2388 N   0  0  0  0  0  0  0  0  0  0  0  0
   69.2088   42.6760   57.4502 C   0  0  0  0  0  0  0  0  0  0  0  0
   69.7249   41.6448   58.2262 C   0  0  0  0  0  0  0  0  0  0  0  0
   69.2481   40.3515   58.0832 C   0  0  0  0  0  0  0  0  0  0  0  0
   68.2539   40.0244   57.1794 C   0  0  0  0  0  0  0  0  0  0  0  0
   67.7455   41.0473   56.4127 C   0  0  0  0  0  0  0  0  0  0  0  0
   68.2217   42.3353   56.5577 C   0  0  0  0  0  0  0  0  0  0  0  0
   73.0023   47.2840   61.6216 C   0  0  0  0  0  0  0  0  0  0  0  0
   71.9720   46.9287   60.6553 N   0  0  0  0  0  0  0  0  0  0  0  0
   72.1940   46.0249   59.5780 C   0  0  0  0  0  0  0  0  0  0  0  0
   73.3383   45.5209   59.4727 O   0  0  0  0  0  0  0  0  0  0  0  0
   68.1859   47.5303   55.2090 C   0  0  0  0  0  0  0  0  0  0  0  0
   68.7238   47.4884   53.8327 C   0  0  0  0  0  0  0  0  0  0  0  0
   69.6552   48.3909   53.3720 C   0  0  0  0  0  0  0  0  0  0  0  0
   70.1379   48.3189   52.0621 C   0  0  0  0  0  0  0  0  0  0  0  0
   69.6785   47.3532   51.2558 N   0  0  0  0  0  0  0  0  0  0  0  0
   68.7739   46.4502   51.6511 C   0  0  0  0  0  0  0  0  0  0  0  0
   68.2939   46.5233   52.9565 C   0  0  0  0  0  0  0  0  0  0  0  0
 16 17  1  0
 17 18  1  0
 18 19  2  0
 18  1  1  0
  1  2  2  0
  1  6  1  0
  2  3  1  0
  3 10  1  0
  3  4  2  0
 10 11  2  0
 10 15  1  0
 11 12  1  0
 12 13  2  0
 13 14  1  0
 14 15  2  0
  4  5  1  0
  5  6  2  0
  5  9  1  0
  6  7  1  0
  7  8  2  0
  8  9  1  0
  9 20  1  0
 20 21  1  0
 21 22  2  0
 21 26  1  0
 22 23  1  0
 23 24  2  0
 24 25  1  0
 25 26  2  0
M  END
>  <minimizedAffinity>  (733) 
-8.52012

$$$$
data/reference_output_2/data/smiles/153727.pdb
     RDKit          3D

 26 27  0  0  0  0  0  0  0  0999 V2000
   69.0404   42.3473   59.3088 O   0  0  0  0  0  0  0  0  0  0  0  0
   69.6013   41.8550   58.2864 C   0  0  0  0  0  0  0  0  0  0  0  0
   69.6007   42.6496   57.1106 N   0  0  0  0  0  0  0  0  0  0  0  0
   70.2052   40.5348   58.3719 C   0  0  0  0  0  0  0  0  0  0  0  0
   71.5542   40.2869   58.4214 C   0  0  0  0  0  0  0  0  0  0  0  0
   72.0709   39.0027   58.5232 C   0  0  0  0  0  0  0  0  0  0  0  0
   71.2312   37.9080   58.5808 C   0  0  0  0  0  0  0  0  0  0  0  0
   69.8725   38.1407   58.5322 C   0  0  0  0  0  0  0  0  0  0  0  0
   69.3603   39.4269   58.4288 C   0  0  0  0  0  0  0  0  0  0  0  0
   71.7517   36.5259   58.6898 C   0  0  0  0  0  0  0  0  0  0  0  0
   72.0655   35.9898   57.4569 F   0  0  0  0  0  0  0  0  0  0  0  0
   70.8559   35.6675   59.2985 F   0  0  0  0  0  0  0  0  0  0  0  0
   72.9420   36.4589   59.4243 F   0  0  0  0  0  0  0  0  0  0  0  0
   69.0157   43.9435   57.0485 N   0  0  0  0  0  0  0  0  0  0  0  0
   68.4841   44.2085   55.8997 C   0  0  0  0  0  0  0  0  0  0  0  0
   67.8510   45.4389   55.6338 N   0  0  0  0  0  0  0  0  0  0  0  0
   68.3615   46.2961   54.6413 C   0  0  0  0  0  0  0  0  0  0  0  0
   69.0579   47.4324   55.0369 C   0  0  0  0  0  0  0  0  0  0  0  0
   69.5749   48.3175   54.1324 C   0  0  0  0  0  0  0  0  0  0  0  0
   69.4219   48.1132   52.7721 C   0  0  0  0  0  0  0  0  0  0  0  0
   68.7345   46.9911   52.3646 C   0  0  0  0  0  0  0  0  0  0  0  0
   68.5535   46.7431   51.0175 O   0  0  0  0  0  0  0  0  0  0  0  0
   68.2172   46.1047   53.2870 C   0  0  0  0  0  0  0  0  0  0  0  0
   69.9952   49.0711   51.8596 C   0  0  0  0  0  0  0  0  0  0  0  0
   69.8209   50.3143   52.0405 O   0  0  0  0  0  0  0  0  0  0  0  0
   70.7459   48.6386   50.7714 O   0  0  0  0  0  0  0  0  0  0  0  0
  1  2  2  0
  2  3  1  0
  2  4  1  0
  3 14  1  0
 14 15  2  0
 15 16  1  0
 16 17  1  0
 17 18  2  0
 17 23  1  0
 18 19  1  0
 19 20  2  0
 20 24  1  0
 20 21  1  0
 24 25  2  0
 24 26  1  0
 21 22  1  0
 21 23  2  0
  4  5  2  0
  4  9  1  0
  5  6  1  0
  6  7  2  0
  7 10  1  0
  7  8  1  0
 10 11  1  0
 10 12  1  0
 10 13  1  0
  8  9  2  0
M  END
>  <minimizedAffinity>  (734) 
-8.53935

$$$$
data/reference_output_2/data/smiles/153767.pdb
     RDKit          3D

 23 24  0  0  0  0  0  0  0  0999 V2000
   70.2241   45.6631   59.0199 O   0  0  0  0  0  0  0  0  0  0  0  0
   70.0649   44.9402   58.0058 C   0  0  0  0  0  0  0  0  0  0  0  0
   69.3083   45.4608   56.8856 N   0  0  0  0  0  0  0  0  0  0  0  0
   68.8035   46.7186   56.9910 N   0  0  0  0  0  0  0  0  0  0  0  0
   68.4934   47.5241   56.0975 C   0  0  0  0  0  0  0  0  0  0  0  0
   68.6002   47.3034   54.6817 C   0  0  0  0  0  0  0  0  0  0  0  0
   69.3545   48.0513   53.8240 C   0  0  0  0  0  0  0  0  0  0  0  0
   69.4112   47.7761   52.4432 C   0  0  0  0  0  0  0  0  0  0  0  0
   68.7058   46.7359   51.9024 C   0  0  0  0  0  0  0  0  0  0  0  0
   67.9463   45.9800   52.7625 C   0  0  0  0  0  0  0  0  0  0  0  0
   67.2407   44.9409   52.2294 F   0  0  0  0  0  0  0  0  0  0  0  0
   67.8861   46.2408   54.1000 C   0  0  0  0  0  0  0  0  0  0  0  0
   70.6504   43.5687   57.9665 C   0  0  0  0  0  0  0  0  0  0  0  0
   69.8884   42.7925   59.0336 C   0  0  0  0  0  0  0  0  0  0  0  0
   69.9796   41.5430   59.0607 O   0  0  0  0  0  0  0  0  0  0  0  0
   69.0935   43.4545   59.9784 N   0  0  0  0  0  0  0  0  0  0  0  0
   68.3446   42.8466   61.0093 C   0  0  0  0  0  0  0  0  0  0  0  0
   67.0769   42.3457   60.9290 C   0  0  0  0  0  0  0  0  0  0  0  0
   66.4010   41.7561   62.0022 C   0  0  0  0  0  0  0  0  0  0  0  0
   67.0106   41.6510   63.2295 C   0  0  0  0  0  0  0  0  0  0  0  0
   66.1684   40.9124   64.5766 Cl  0  0  0  0  0  0  0  0  0  0  0  0
   68.2875   42.1463   63.3411 C   0  0  0  0  0  0  0  0  0  0  0  0
   68.9387   42.7232   62.2768 C   0  0  0  0  0  0  0  0  0  0  0  0
  1  2  2  0
  2 13  1  0
  2  3  1  0
 13 14  1  0
 14 15  2  0
 14 16  1  0
 16 17  1  0
 17 18  2  0
 17 23  1  0
 18 19  1  0
 19 20  2  0
 20 21  1  0
 20 22  1  0
 22 23  2  0
  3  4  1  0
  4  5  2  0
  5  6  1  0
  6  7  2  0
  6 12  1  0
  7  8  1  0
  8  9  2  0
  9 10  1  0
 10 11  1  0
 10 12  2  0
M  END
>  <minimizedAffinity>  (735) 
-8.56858

$$$$
data/reference_output_2/data/smiles/153799.pdb
     RDKit          3D

 26 28  0  0  0  0  0  0  0  0999 V2000
   69.0437   41.6871   60.1570 C   0  0  0  0  0  0  0  0  0  0  0  0
   68.6126   40.8897   58.9995 C   0  0  0  0  0  0  0  0  0  0  0  0
   68.5359   41.2904   57.6886 C   0  0  0  0  0  0  0  0  0  0  0  0
   68.0610   40.1965   57.0105 N   0  0  0  0  0  0  0  0  0  0  0  0
   67.8306   40.1644   55.6426 O   0  0  0  0  0  0  0  0  0  0  0  0
   67.8578   39.1816   57.8512 C   0  0  0  0  0  0  0  0  0  0  0  0
   68.1941   39.5999   59.0697 N   0  0  0  0  0  0  0  0  0  0  0  0
   68.8818   42.5488   57.0666 C   0  0  0  0  0  0  0  0  0  0  0  0
   70.1238   42.8613   57.0395 O   0  0  0  0  0  0  0  0  0  0  0  0
   68.0306   43.4928   56.4811 N   0  0  0  0  0  0  0  0  0  0  0  0
   68.4761   44.6896   55.8986 N   0  0  0  0  0  0  0  0  0  0  0  0
   68.0342   45.1674   54.8094 C   0  0  0  0  0  0  0  0  0  0  0  0
   68.5034   46.4130   54.2101 C   0  0  0  0  0  0  0  0  0  0  0  0
   68.9163   47.4826   54.9703 C   0  0  0  0  0  0  0  0  0  0  0  0
   69.3560   48.6480   54.3501 C   0  0  0  0  0  0  0  0  0  0  0  0
   69.3964   48.7854   52.9777 C   0  0  0  0  0  0  0  0  0  0  0  0
   68.9804   47.7079   52.2189 C   0  0  0  0  0  0  0  0  0  0  0  0
   68.5433   46.5481   52.8374 C   0  0  0  0  0  0  0  0  0  0  0  0
   68.1220   45.4583   52.0660 O   0  0  0  0  0  0  0  0  0  0  0  0
   68.1347   38.7974   60.2913 C   0  0  0  0  0  0  0  0  0  0  0  0
   66.8296   38.0922   60.3448 C   0  0  0  0  0  0  0  0  0  0  0  0
   66.6658   36.7327   60.3610 C   0  0  0  0  0  0  0  0  0  0  0  0
   65.4055   36.1309   60.4087 C   0  0  0  0  0  0  0  0  0  0  0  0
   64.2778   36.9229   60.4422 C   0  0  0  0  0  0  0  0  0  0  0  0
   64.4110   38.2927   60.4273 C   0  0  0  0  0  0  0  0  0  0  0  0
   65.6632   38.8635   60.3797 C   0  0  0  0  0  0  0  0  0  0  0  0
  1  2  1  0
  2  3  2  0
  2  7  1  0
  3  8  1  0
  3  4  1  0
  8  9  2  0
  8 10  1  0
 10 11  1  0
 11 12  2  0
 12 13  1  0
 13 14  2  0
 13 18  1  0
 14 15  1  0
 15 16  2  0
 16 17  1  0
 17 18  2  0
 18 19  1  0
  4  5  1  0
  4  6  2  0
  6  7  1  0
  7 20  1  0
 20 21  1  0
 21 22  2  0
 21 26  1  0
 22 23  1  0
 23 24  2  0
 24 25  1  0
 25 26  2  0
M  CHG  2   4   1   5  -1
M  END
>  <minimizedAffinity>  (736) 
-8.62154

$$$$
data/reference_output_2/data/smiles/153847.pdb
     RDKit          3D

 28 31  0  0  0  0  0  0  0  0999 V2000
   68.2510   45.7334   52.8931 C   0  0  0  0  0  0  0  0  0  0  0  0
   68.7093   47.1577   53.1016 C   0  0  0  0  0  0  0  0  0  0  0  0
   69.0425   47.9453   52.0281 C   0  0  0  0  0  0  0  0  0  0  0  0
   69.4626   49.2332   52.2230 C   0  0  0  0  0  0  0  0  0  0  0  0
   69.8052   50.0273   51.1657 F   0  0  0  0  0  0  0  0  0  0  0  0
   69.5675   49.7898   53.4995 C   0  0  0  0  0  0  0  0  0  0  0  0
   69.2287   48.9676   54.5439 C   0  0  0  0  0  0  0  0  0  0  0  0
   68.8051   47.6751   54.3804 C   0  0  0  0  0  0  0  0  0  0  0  0
   69.9941   51.2259   53.6645 C   0  0  2  0  0  0  0  0  0  0  0  0
   71.3568   51.2340   53.6537 O   0  0  0  0  0  0  0  0  0  0  0  0
   72.0434   51.7172   54.7014 C   0  0  1  0  0  0  0  0  0  0  0  0
   71.4634   51.4081   56.0586 C   0  0  1  0  0  0  0  0  0  0  0  0
   72.2122   52.1102   57.0024 O   0  0  0  0  0  0  0  0  0  0  0  0
   70.0552   51.9247   56.1131 C   0  0  2  0  0  0  0  0  0  0  0  0
   69.3894   51.2148   57.1445 O   0  0  0  0  0  0  0  0  0  0  0  0
   69.3169   51.8407   54.8448 C   0  0  1  0  0  0  0  0  0  0  0  0
   68.8124   53.0812   54.4998 O   0  0  0  0  0  0  0  0  0  0  0  0
   73.4388   51.0865   54.7128 C   0  0  0  0  0  0  0  0  0  0  0  0
   73.6917   50.3494   53.5795 O   0  0  0  0  0  0  0  0  0  0  0  0
   68.3972   46.8452   55.5121 C   0  0  0  0  0  0  0  0  0  0  0  0
   69.3251   46.8415   56.6587 C   0  0  0  0  0  0  0  0  0  0  0  0
   69.7653   45.5636   57.0444 C   0  0  0  0  0  0  0  0  0  0  0  0
   70.6811   45.4242   58.0505 C   0  0  0  0  0  0  0  0  0  0  0  0
   71.2054   46.5277   58.7191 C   0  0  0  0  0  0  0  0  0  0  0  0
   70.7574   47.7663   58.3218 C   0  0  0  0  0  0  0  0  0  0  0  0
   69.8231   47.9271   57.3014 C   0  0  0  0  0  0  0  0  0  0  0  0
   71.6397   48.4057   59.3099 C   0  0  0  0  0  0  0  0  0  0  0  0
   72.1150   47.0495   59.7822 C   0  0  0  0  0  0  0  0  0  0  0  0
  1  2  1  0
  2  3  2  0
  2  8  1  0
  3  4  1  0
  4  5  1  0
  4  6  2  0
  9  6  1  1
  6  7  1  0
  9 10  1  0
  9 16  1  0
 10 11  1  0
 11 18  1  1
 11 12  1  0
 18 19  1  0
 12 13  1  1
 12 14  1  0
 14 15  1  1
 14 16  1  0
 16 17  1  6
  7  8  2  0
  8 20  1  0
 20 21  1  0
 21 22  2  0
 21 26  1  0
 22 23  1  0
 23 24  2  0
 24 25  1  0
 24 28  1  0
 25 26  2  0
 25 27  1  0
 27 28  1  0
M  END
>  <minimizedAffinity>  (737) 
-8.56419

$$$$
data/reference_output_2/data/smiles/153899.pdb
     RDKit          3D

 31 35  0  0  0  0  0  0  0  0999 V2000
   70.8574   51.2472   55.2937 C   0  0  0  0  0  0  0  0  0  0  0  0
   70.5365   50.2513   56.2021 C   0  0  0  0  0  0  0  0  0  0  0  0
   69.9155   49.0643   55.7943 C   0  0  0  0  0  0  0  0  0  0  0  0
   69.6097   48.8611   54.4749 C   0  0  0  0  0  0  0  0  0  0  0  0
   69.9362   49.8720   53.5485 C   0  0  0  0  0  0  0  0  0  0  0  0
   70.5461   51.0349   53.9627 C   0  0  0  0  0  0  0  0  0  0  0  0
   69.6320   49.6771   52.2378 C   0  0  0  0  0  0  0  0  0  0  0  0
   69.9230   50.5791   51.4049 O   0  0  0  0  0  0  0  0  0  0  0  0
   69.0357   48.5493   51.8344 N   0  0  0  0  0  0  0  0  0  0  0  0
   68.7007   47.5532   52.6622 C   0  0  0  0  0  0  0  0  0  0  0  0
   68.0917   46.4213   52.1791 C   0  0  0  0  0  0  0  0  0  0  0  0
   67.8000   46.2545   50.8791 F   0  0  0  0  0  0  0  0  0  0  0  0
   67.7641   45.4108   53.0672 C   0  0  0  0  0  0  0  0  0  0  0  0
   67.1525   44.2669   52.6201 F   0  0  0  0  0  0  0  0  0  0  0  0
   68.0720   45.6094   54.3895 C   0  0  0  0  0  0  0  0  0  0  0  0
   68.6833   46.7408   54.8955 C   0  0  0  0  0  0  0  0  0  0  0  0
   69.0054   47.7399   54.0035 C   0  0  0  0  0  0  0  0  0  0  0  0
   71.5078   52.4730   55.7766 C   0  0  0  0  0  0  0  0  0  0  0  0
   72.9637   52.5822   55.5071 C   0  0  2  0  0  0  0  0  0  0  0  0
   73.7482   51.8355   56.4557 N   0  0  0  0  0  0  0  0  0  0  0  0
   74.2984   50.5539   56.1165 C   0  0  0  0  0  0  0  0  0  0  0  0
   74.0420   50.1407   54.9467 O   0  0  0  0  0  0  0  0  0  0  0  0
   75.1049   49.7648   57.0445 C   0  0  1  0  0  0  0  0  0  0  0  0
   75.4588   50.5981   58.1921 N   0  0  0  0  0  0  0  0  0  0  0  0
   75.1721   49.7658   59.3456 C   0  0  2  0  0  0  0  0  0  0  0  0
   76.0325   48.5442   59.2609 C   0  0  0  0  0  0  0  0  0  0  0  0
   75.4094   47.6501   58.1888 C   0  0  0  0  0  0  0  0  0  0  0  0
   74.3634   48.5745   57.6059 C   0  0  1  0  0  0  0  0  0  0  0  0
   73.8164   49.1788   58.8953 C   0  0  0  0  0  0  0  0  0  0  0  0
   73.7451   55.0619   55.4791 N   0  0  0  0  0  0  0  0  0  0  0  0
   73.4037   54.0147   55.4892 C   0  0  0  0  0  0  0  0  0  0  0  0
 30 31  3  0
 19 31  1  1
 19 18  1  0
 19 20  1  0
 18  1  1  0
  1  2  2  0
  1  6  1  0
  2  3  1  0
  3  4  2  0
  4  5  1  0
  4 17  1  0
  5  6  2  0
  5  7  1  0
  7  8  2  0
  7  9  1  0
  9 10  1  0
 10 11  1  0
 10 17  2  0
 11 12  1  0
 11 13  2  0
 13 14  1  0
 13 15  1  0
 15 16  2  0
 16 17  1  0
 20 21  1  0
 21 22  2  0
 23 21  1  6
 23 24  1  0
 23 28  1  0
 24 25  1  0
 25 26  1  6
 25 29  1  0
 26 27  1  0
 28 27  1  1
 28 29  1  0
M  CHG  1  24   1
M  END
>  <minimizedAffinity>  (738) 
-8.66533

$$$$
data/reference_output_2/data/smiles/154032.pdb
     RDKit          3D

 31 35  0  0  0  0  0  0  0  0999 V2000
   66.3644   49.4088   58.1012 N   0  0  0  0  0  0  0  0  0  0  0  0
   67.5182   48.8953   57.4262 C   0  0  0  0  0  0  0  0  0  0  0  0
   67.6947   47.7345   56.9180 N   0  0  0  0  0  0  0  0  0  0  0  0
   69.0015   47.5874   56.3143 C   0  0  2  0  0  0  0  0  0  0  0  0
   69.6247   48.8860   56.5449 C   0  0  0  0  0  0  0  0  0  0  0  0
   70.8663   49.4379   56.2390 C   0  0  0  0  0  0  0  0  0  0  0  0
   71.1844   50.7267   56.5923 C   0  0  0  0  0  0  0  0  0  0  0  0
   70.3008   51.5417   57.2651 C   0  0  0  0  0  0  0  0  0  0  0  0
   69.0726   50.9970   57.5685 C   0  0  0  0  0  0  0  0  0  0  0  0
   68.1697   51.7636   58.2311 F   0  0  0  0  0  0  0  0  0  0  0  0
   68.7249   49.6835   57.2178 C   0  0  0  0  0  0  0  0  0  0  0  0
   68.7701   47.2568   54.8887 C   0  0  0  0  0  0  0  0  0  0  0  0
   67.9749   46.2152   54.4704 C   0  0  0  0  0  0  0  0  0  0  0  0
   67.8106   45.9766   53.1108 C   0  0  0  0  0  0  0  0  0  0  0  0
   68.3967   46.7221   52.1616 N   0  0  0  0  0  0  0  0  0  0  0  0
   68.2102   46.4534   50.8090 O   0  0  0  0  0  0  0  0  0  0  0  0
   69.1770   47.7436   52.5546 C   0  0  0  0  0  0  0  0  0  0  0  0
   69.3707   48.0206   53.9116 C   0  0  0  0  0  0  0  0  0  0  0  0
   69.6878   46.4584   56.9622 C   0  0  0  0  0  0  0  0  0  0  0  0
   70.8257   46.6242   57.7231 C   0  0  0  0  0  0  0  0  0  0  0  0
   71.4192   45.5336   58.3055 C   0  0  0  0  0  0  0  0  0  0  0  0
   70.8814   44.2632   58.1322 C   0  0  0  0  0  0  0  0  0  0  0  0
   69.7440   44.0683   57.3752 C   0  0  0  0  0  0  0  0  0  0  0  0
   69.1723   45.1897   56.8047 C   0  0  0  0  0  0  0  0  0  0  0  0
   69.1725   42.7426   57.1865 C   0  0  0  0  0  0  0  0  0  0  0  0
   69.6177   41.6626   57.8933 C   0  0  0  0  0  0  0  0  0  0  0  0
   69.0168   40.4669   57.6437 N   0  0  0  0  0  0  0  0  0  0  0  0
   68.0389   40.3191   56.7617 C   0  0  0  0  0  0  0  0  0  0  0  0
   67.5889   41.3823   56.0553 N   0  0  0  0  0  0  0  0  0  0  0  0
   66.5825   41.2738   55.1342 O   0  0  0  0  0  0  0  0  0  0  0  0
   68.1508   42.5702   56.2699 C   0  0  0  0  0  0  0  0  0  0  0  0
  1  2  1  0
  2  3  2  0
  2 11  1  0
  3  4  1  0
  4 12  1  6
  4 19  1  0
  4  5  1  0
 12 13  2  0
 12 18  1  0
 13 14  1  0
 14 15  2  0
 15 16  1  0
 15 17  1  0
 17 18  2  0
 19 20  2  0
 19 24  1  0
 20 21  1  0
 21 22  2  0
 22 23  1  0
 23 25  1  0
 23 24  2  0
 25 26  2  0
 25 31  1  0
 26 27  1  0
 27 28  2  0
 28 29  1  0
 29 30  1  0
 29 31  2  0
  5  6  2  0
  5 11  1  0
  6  7  1  0
  7  8  2  0
  8  9  1  0
  9 10  1  0
  9 11  2  0
M  CHG  5   3   1  15   1  16  -1  29   1  30  -1
M  END
>  <minimizedAffinity>  (739) 
-8.61837

$$$$
data/reference_output_2/data/smiles/154037.pdb
     RDKit          3D

 26 27  0  0  0  0  0  0  0  0999 V2000
   68.7475   47.5837   55.8169 C   0  0  0  0  0  0  0  0  0  0  0  0
   69.4049   48.7001   56.3104 F   0  0  0  0  0  0  0  0  0  0  0  0
   67.3905   47.6709   56.1531 F   0  0  0  0  0  0  0  0  0  0  0  0
   69.7274   48.2197   53.6169 C   0  0  0  0  0  0  0  0  0  0  0  0
   69.7789   48.0512   52.2255 C   0  0  0  0  0  0  0  0  0  0  0  0
   68.9933   47.1389   51.5629 C   0  0  0  0  0  0  0  0  0  0  0  0
   68.1280   46.3709   52.3170 C   0  0  0  0  0  0  0  0  0  0  0  0
   67.0989   45.1858   51.5098 Cl  0  0  0  0  0  0  0  0  0  0  0  0
   68.0799   46.5384   53.6811 C   0  0  0  0  0  0  0  0  0  0  0  0
   68.8772   47.4655   54.3567 C   0  0  0  0  0  0  0  0  0  0  0  0
   71.2941   51.5969   54.6328 C   0  0  0  0  0  0  0  0  0  0  0  0
   70.3467   50.6075   54.0370 C   0  0  0  0  0  0  0  0  0  0  0  0
   69.3445   51.0109   53.4291 O   0  0  0  0  0  0  0  0  0  0  0  0
   70.5871   49.2135   54.1614 N   0  0  0  0  0  0  0  0  0  0  0  0
   69.2278   46.3427   56.4646 C   0  0  0  0  0  0  0  0  0  0  0  0
   70.2413   46.3890   57.2327 O   0  0  0  0  0  0  0  0  0  0  0  0
   68.5546   45.1152   56.2230 N   0  0  0  0  0  0  0  0  0  0  0  0
   69.0126   43.9440   56.8408 N   0  0  0  0  0  0  0  0  0  0  0  0
   68.2709   42.7514   56.6753 C   0  0  0  0  0  0  0  0  0  0  0  0
   67.2272   42.7949   55.9777 O   0  0  0  0  0  0  0  0  0  0  0  0
   68.6731   41.4940   57.2802 C   0  0  0  0  0  0  0  0  0  0  0  0
   67.9151   40.3542   57.2243 C   0  0  0  0  0  0  0  0  0  0  0  0
   68.3476   39.1783   57.8212 C   0  0  0  0  0  0  0  0  0  0  0  0
   69.5256   39.1354   58.4686 N   0  0  0  0  0  0  0  0  0  0  0  0
   70.3027   40.2331   58.5471 C   0  0  0  0  0  0  0  0  0  0  0  0
   69.8776   41.4035   57.9569 C   0  0  0  0  0  0  0  0  0  0  0  0
 11 12  1  0
 12 13  2  0
 12 14  1  0
 14  4  1  0
  4  5  2  0
  4 10  1  0
  5  6  1  0
  6  7  2  0
  7  8  1  0
  7  9  1  0
  9 10  2  0
 10  1  1  0
  1  2  1  0
  1  3  1  0
  1 15  1  0
 15 16  2  0
 15 17  1  0
 17 18  1  0
 18 19  1  0
 19 20  2  0
 19 21  1  0
 21 22  2  0
 21 26  1  0
 22 23  1  0
 23 24  2  0
 24 25  1  0
 25 26  2  0
M  END
>  <minimizedAffinity>  (740) 
-8.66457

$$$$
data/reference_output_2/data/smiles/154163.pdb
     RDKit          3D

 28 30  0  0  0  0  0  0  0  0999 V2000
   69.0866   44.4921   57.1727 N   0  0  0  0  0  0  0  0  0  0  0  0
   68.5357   43.1961   56.9703 C   0  0  0  0  0  0  0  0  0  0  0  0
   67.9851   43.0003   55.8299 O   0  0  0  0  0  0  0  0  0  0  0  0
   68.5739   42.1664   57.9419 N   0  0  0  0  0  0  0  0  0  0  0  0
   69.1655   42.2755   59.2532 C   0  0  0  0  0  0  0  0  0  0  0  0
   70.0346   41.0980   59.5999 C   0  0  0  0  0  0  0  0  0  0  0  0
   70.0717   40.0637   58.6014 N   0  0  0  0  0  0  0  0  0  0  0  0
   69.0930   39.8894   57.5465 C   0  0  0  0  0  0  0  0  0  0  0  0
   67.9753   40.8881   57.6118 C   0  0  0  0  0  0  0  0  0  0  0  0
   68.7751   47.3207   54.0083 C   0  0  0  0  0  0  0  0  0  0  0  0
   69.3818   47.6524   55.2019 C   0  0  0  0  0  0  0  0  0  0  0  0
   69.4890   46.7378   56.2420 C   0  0  0  0  0  0  0  0  0  0  0  0
   68.9913   45.4566   56.1211 C   0  0  0  0  0  0  0  0  0  0  0  0
   68.3867   45.1357   54.9223 C   0  0  0  0  0  0  0  0  0  0  0  0
   68.2773   46.0415   53.8862 C   0  0  0  0  0  0  0  0  0  0  0  0
   67.4999   45.5836   52.3849 Cl  0  0  0  0  0  0  0  0  0  0  0  0
   68.6668   48.2406   52.9622 O   0  0  0  0  0  0  0  0  0  0  0  0
   69.6227   49.9743   50.9274 N   0  0  0  0  0  0  0  0  0  0  0  0
   69.9491   48.6174   51.9335 S   0  0  0  0  0  0  0  0  0  0  0  0
   71.2298   48.8640   52.6880 O   0  0  0  0  0  0  0  0  0  0  0  0
   70.1829   47.4319   51.0306 O   0  0  0  0  0  0  0  0  0  0  0  0
   71.1455   39.1146   58.6287 C   0  0  0  0  0  0  0  0  0  0  0  0
   72.3432   39.3648   59.2831 C   0  0  0  0  0  0  0  0  0  0  0  0
   73.3674   38.4444   59.3002 C   0  0  0  0  0  0  0  0  0  0  0  0
   73.2561   37.2306   58.6707 C   0  0  0  0  0  0  0  0  0  0  0  0
   74.5593   36.0425   58.6836 Cl  0  0  0  0  0  0  0  0  0  0  0  0
   72.0647   36.9674   58.0124 C   0  0  0  0  0  0  0  0  0  0  0  0
   71.0426   37.8922   57.9984 C   0  0  0  0  0  0  0  0  0  0  0  0
 18 19  1  0
 19 20  2  0
 19 21  2  0
 19 17  1  0
 17 10  1  0
 10 11  2  0
 10 15  1  0
 11 12  1  0
 12 13  2  0
 13  1  1  0
 13 14  1  0
  1  2  1  0
  2  3  2  0
  2  4  1  0
  4  5  1  0
  4  9  1  0
  5  6  1  0
  6  7  1  0
  7 22  1  0
  7  8  1  0
 22 23  2  0
 22 28  1  0
 23 24  1  0
 24 25  2  0
 25 26  1  0
 25 27  1  0
 27 28  2  0
  8  9  1  0
 14 15  2  0
 15 16  1  0
M  END
>  <minimizedAffinity>  (741) 
-8.65619

$$$$
data/reference_output_2/data/smiles/154417.pdb
     RDKit          3D

 28 31  0  0  0  0  0  0  0  0999 V2000
   68.7389   42.7915   56.8919 C   0  0  0  0  0  0  0  0  0  0  0  0
   69.0697   41.5079   57.2722 C   0  0  0  0  0  0  0  0  0  0  0  0
   70.2285   41.2448   58.0007 C   0  0  0  0  0  0  0  0  0  0  0  0
   71.0105   42.3396   58.3097 C   0  0  0  0  0  0  0  0  0  0  0  0
   70.6837   43.6227   57.9315 C   0  0  0  0  0  0  0  0  0  0  0  0
   71.4746   44.7257   58.2445 C   0  0  0  0  0  0  0  0  0  0  0  0
   72.5280   44.4996   58.9048 O   0  0  0  0  0  0  0  0  0  0  0  0
   71.1267   45.9661   57.8596 N   0  0  0  0  0  0  0  0  0  0  0  0
   70.0041   46.1984   57.1573 C   0  0  0  0  0  0  0  0  0  0  0  0
   69.2274   45.1372   56.8470 N   0  0  0  0  0  0  0  0  0  0  0  0
   69.5385   43.8799   57.2115 C   0  0  0  0  0  0  0  0  0  0  0  0
   70.5830   39.8942   58.4063 C   0  0  0  0  0  0  0  0  0  0  0  0
   69.7220   38.8253   58.4714 C   0  0  0  0  0  0  0  0  0  0  0  0
   70.4340   37.7629   58.8873 N   0  0  0  0  0  0  0  0  0  0  0  0
   71.6974   38.0890   59.0910 N   0  0  0  0  0  0  0  0  0  0  0  0
   71.8046   39.4019   58.7985 C   0  0  0  0  0  0  0  0  0  0  0  0
   66.6969   42.0817   55.6752 C   0  0  0  0  0  0  0  0  0  0  0  0
   67.5850   43.0296   56.1692 O   0  0  0  0  0  0  0  0  0  0  0  0
   69.6118   47.5670   56.7294 C   0  0  2  0  0  0  0  0  0  0  0  0
   69.6670   48.5201   57.8422 N   0  0  0  0  0  0  0  0  0  0  0  0
   68.2544   47.6061   56.0812 C   0  0  0  0  0  0  0  0  0  0  0  0
   68.4344   47.3114   54.6390 C   0  0  0  0  0  0  0  0  0  0  0  0
   69.2694   48.0937   53.8730 C   0  0  0  0  0  0  0  0  0  0  0  0
   69.4712   47.8629   52.5361 C   0  0  0  0  0  0  0  0  0  0  0  0
   68.8269   46.8226   51.9275 C   0  0  0  0  0  0  0  0  0  0  0  0
   67.9843   46.0132   52.6495 C   0  0  0  0  0  0  0  0  0  0  0  0
   67.3407   44.9702   52.0380 F   0  0  0  0  0  0  0  0  0  0  0  0
   67.7953   46.2671   54.0091 C   0  0  0  0  0  0  0  0  0  0  0  0
 17 18  1  0
 18  1  1  0
  1  2  2  0
  1 11  1  0
  2  3  1  0
  3 12  1  0
  3  4  2  0
 12 13  1  0
 12 16  2  0
 13 14  2  0
 14 15  1  0
 15 16  1  0
  4  5  1  0
  5  6  1  0
  5 11  2  0
  6  7  2  0
  6  8  1  0
  8  9  1  0
  9 19  1  0
  9 10  2  0
 19 20  1  1
 19 21  1  0
 21 22  1  0
 22 23  2  0
 22 28  1  0
 23 24  1  0
 24 25  2  0
 25 26  1  0
 26 27  1  0
 26 28  2  0
 10 11  1  0
M  CHG  1  20   1
M  END
>  <minimizedAffinity>  (742) 
-8.78052

$$$$
data/reference_output_2/data/smiles/154467.pdb
     RDKit          3D

 29 32  0  0  0  0  0  0  0  0999 V2000
   71.9328   46.8767   59.3031 C   0  0  0  0  0  0  0  0  0  0  0  0
   70.9980   47.6098   58.6191 C   0  0  0  0  0  0  0  0  0  0  0  0
   70.0962   47.0220   57.7711 C   0  0  0  0  0  0  0  0  0  0  0  0
   70.1389   45.6482   57.6058 C   0  0  0  0  0  0  0  0  0  0  0  0
   71.0651   44.8877   58.2769 C   0  0  0  0  0  0  0  0  0  0  0  0
   71.9720   45.5180   59.1368 C   0  0  0  0  0  0  0  0  0  0  0  0
   72.8990   44.7717   59.8074 F   0  0  0  0  0  0  0  0  0  0  0  0
   73.5181   51.3639   57.5839 C   0  0  0  0  0  0  0  0  0  0  0  0
   73.8097   50.2946   58.5472 N   0  0  2  0  0  0  0  0  0  0  0  0
   74.5566   50.8604   59.6244 C   0  0  0  0  0  0  0  0  0  0  0  0
   74.4700   50.1369   60.9297 C   0  0  0  0  0  0  0  0  0  0  0  0
   74.9260   48.6946   60.8649 C   0  0  0  0  0  0  0  0  0  0  0  0
   74.1263   48.0628   59.8285 N   0  0  0  0  0  0  0  0  0  0  0  0
   72.8784   47.5272   60.1723 C   0  0  0  0  0  0  0  0  0  0  0  0
   72.5213   47.6204   61.3976 O   0  0  0  0  0  0  0  0  0  0  0  0
   74.5099   47.9440   58.4435 C   0  0  0  0  0  0  0  0  0  0  0  0
   74.5511   49.3032   57.7870 C   0  0  0  0  0  0  0  0  0  0  0  0
   69.0659   47.7696   57.0115 C   0  0  0  0  0  0  0  0  0  0  0  0
   68.6956   47.0554   55.7869 C   0  0  0  0  0  0  0  0  0  0  0  0
   68.1025   45.8436   55.8196 N   0  0  0  0  0  0  0  0  0  0  0  0
   67.7957   45.1535   54.7369 N   0  0  0  0  0  0  0  0  0  0  0  0
   68.0904   45.6888   53.5292 C   0  0  0  0  0  0  0  0  0  0  0  0
   67.7845   45.0007   52.5224 O   0  0  0  0  0  0  0  0  0  0  0  0
   68.6962   46.9214   53.3914 C   0  0  0  0  0  0  0  0  0  0  0  0
   68.9964   47.6027   54.5534 C   0  0  0  0  0  0  0  0  0  0  0  0
   69.6098   48.9501   54.4623 C   0  0  0  0  0  0  0  0  0  0  0  0
   70.4756   48.9954   53.2320 C   0  0  0  0  0  0  0  0  0  0  0  0
   69.7035   48.6947   51.9797 C   0  0  0  0  0  0  0  0  0  0  0  0
   68.9659   47.3965   52.0337 C   0  0  0  0  0  0  0  0  0  0  0  0
  9  8  1  6
  9 10  1  0
  9 17  1  0
 10 11  1  0
 11 12  1  0
 12 13  1  0
 13 14  1  0
 13 16  1  0
 14 15  2  0
 14  1  1  0
  1  2  2  0
  1  6  1  0
  2  3  1  0
  3 18  1  0
  3  4  2  0
 18 19  1  0
 19 20  2  0
 19 25  1  0
 20 21  1  0
 21 22  1  0
 22 23  2  0
 22 24  1  0
 24 25  2  0
 24 29  1  0
 25 26  1  0
 26 27  1  0
 27 28  1  0
 28 29  1  0
  4  5  1  0
  5  6  2  0
  6  7  1  0
 16 17  1  0
M  CHG  1   9   1
M  END
>  <minimizedAffinity>  (743) 
-8.90857

$$$$
data/reference_output_2/data/smiles/154657.pdb
     RDKit          3D

 30 32  0  0  0  0  0  0  0  0999 V2000
   69.3084   47.7183   52.9978 C   0  0  0  0  0  0  0  0  0  0  0  0
   68.6129   47.3373   51.8615 C   0  0  0  0  0  0  0  0  0  0  0  0
   67.8034   46.2247   51.8752 C   0  0  0  0  0  0  0  0  0  0  0  0
   67.6680   45.4606   53.0304 C   0  0  0  0  0  0  0  0  0  0  0  0
   68.3459   45.8115   54.1788 C   0  0  0  0  0  0  0  0  0  0  0  0
   69.1451   46.9265   54.1329 C   0  0  0  0  0  0  0  0  0  0  0  0
   70.3077   49.1403   53.0149 S   0  0  0  0  0  0  0  0  0  0  0  0
   69.5957   50.1887   52.1986 O   0  0  0  0  0  0  0  0  0  0  0  0
   71.6408   48.7992   52.3763 O   0  0  0  0  0  0  0  0  0  0  0  0
   70.5902   49.6529   54.6137 N   0  0  0  0  0  0  0  0  0  0  0  0
   66.9988   49.6773   58.0455 C   0  0  0  0  0  0  0  0  0  0  0  0
   67.8941   50.3818   57.0976 C   0  0  0  0  0  0  0  0  0  0  0  0
   67.8243   51.7458   56.9735 C   0  0  0  0  0  0  0  0  0  0  0  0
   68.6627   52.3893   56.0880 C   0  0  0  0  0  0  0  0  0  0  0  0
   69.5595   51.6762   55.3346 C   0  0  0  0  0  0  0  0  0  0  0  0
   69.6517   50.2889   55.4395 C   0  0  0  0  0  0  0  0  0  0  0  0
   68.8168   49.6796   56.3186 C   0  0  0  0  0  0  0  0  0  0  0  0
   68.2200   45.0217   55.4114 C   0  0  0  0  0  0  0  0  0  0  0  0
   68.5569   45.5381   56.5228 O   0  0  0  0  0  0  0  0  0  0  0  0
   67.7405   43.6929   55.4643 N   0  0  0  0  0  0  0  0  0  0  0  0
   67.6340   42.9675   56.6619 N   0  0  0  0  0  0  0  0  0  0  0  0
   67.5758   41.5628   56.7085 C   0  0  0  0  0  0  0  0  0  0  0  0
   67.6288   41.0159   55.5491 O   0  0  0  0  0  0  0  0  0  0  0  0
   67.4671   40.7330   57.8966 C   0  0  0  0  0  0  0  0  0  0  0  0
   68.1060   39.4811   57.9069 C   0  0  0  0  0  0  0  0  0  0  0  0
   68.0393   38.6536   58.9981 C   0  0  0  0  0  0  0  0  0  0  0  0
   67.3316   39.0351   60.1314 C   0  0  0  0  0  0  0  0  0  0  0  0
   66.6942   40.2491   60.1587 C   0  0  0  0  0  0  0  0  0  0  0  0
   66.7860   41.0694   59.0197 C   0  0  0  0  0  0  0  0  0  0  0  0
   66.1231   42.2849   59.1049 O   0  0  0  0  0  0  0  0  0  0  0  0
 11 12  1  0
 12 13  2  0
 12 17  1  0
 13 14  1  0
 14 15  2  0
 15 16  1  0
 16 10  1  0
 16 17  2  0
 10  7  1  0
  7  8  2  0
  7  9  2  0
  7  1  1  0
  1  2  2  0
  1  6  1  0
  2  3  1  0
  3  4  2  0
  4  5  1  0
  5 18  1  0
  5  6  2  0
 18 19  2  0
 18 20  1  0
 20 21  1  0
 21 22  1  0
 22 23  2  0
 22 24  1  0
 24 25  2  0
 24 29  1  0
 25 26  1  0
 26 27  2  0
 27 28  1  0
 28 29  2  0
 29 30  1  0
M  END
>  <minimizedAffinity>  (744) 
-9.99527

$$$$
data/reference_output_2/data/smiles/154716.pdb
     RDKit          3D

 25 28  0  0  0  0  0  0  0  0999 V2000
   70.1263   50.1896   52.2130 O   0  0  0  0  0  0  0  0  0  0  0  0
   70.1007   49.9164   53.4416 C   0  0  0  0  0  0  0  0  0  0  0  0
   70.6188   50.7062   54.5503 C   0  0  0  0  0  0  0  0  0  0  0  0
   71.2560   51.9428   54.5373 C   0  0  0  0  0  0  0  0  0  0  0  0
   71.6443   52.4789   55.7457 C   0  0  0  0  0  0  0  0  0  0  0  0
   71.4072   51.8071   56.9304 C   0  0  0  0  0  0  0  0  0  0  0  0
   70.7668   50.5674   56.9255 C   0  0  0  0  0  0  0  0  0  0  0  0
   70.3701   50.0114   55.7452 C   0  0  0  0  0  0  0  0  0  0  0  0
   69.6880   48.7658   55.4067 C   0  0  0  0  0  0  0  0  0  0  0  0
   69.5329   48.7241   54.0245 C   0  0  0  0  0  0  0  0  0  0  0  0
   68.8974   47.6479   53.4220 C   0  0  0  0  0  0  0  0  0  0  0  0
   68.7167   47.5577   52.0381 C   0  0  0  0  0  0  0  0  0  0  0  0
   68.0857   46.4906   51.4405 C   0  0  0  0  0  0  0  0  0  0  0  0
   67.6236   45.4884   52.2562 C   0  0  0  0  0  0  0  0  0  0  0  0
   66.9895   44.4113   51.6822 F   0  0  0  0  0  0  0  0  0  0  0  0
   67.7951   45.5661   53.6193 C   0  0  0  0  0  0  0  0  0  0  0  0
   68.4334   46.6471   54.2100 C   0  0  0  0  0  0  0  0  0  0  0  0
   68.6172   46.7477   55.5558 C   0  0  0  0  0  0  0  0  0  0  0  0
   68.1717   45.7940   56.2661 O   0  0  0  0  0  0  0  0  0  0  0  0
   69.2355   47.7846   56.1918 N   0  0  0  0  0  0  0  0  0  0  0  0
   69.3089   47.7097   57.6228 C   0  0  0  0  0  0  0  0  0  0  0  0
   70.3829   46.8278   58.1561 C   0  0  2  0  0  0  0  0  0  0  0  0
   69.9389   45.6348   58.7258 O   0  0  0  0  0  0  0  0  0  0  0  0
   71.4923   47.4353   58.9268 C   0  0  0  0  0  0  0  0  0  0  0  0
   71.4144   47.3269   60.3054 O   0  0  0  0  0  0  0  0  0  0  0  0
  1  2  2  0
  2  3  1  0
  2 10  1  0
  3  4  2  0
  3  8  1  0
  4  5  1  0
  5  6  2  0
  6  7  1  0
  7  8  2  0
  8  9  1  0
  9 10  2  0
  9 20  1  0
 10 11  1  0
 11 12  2  0
 11 17  1  0
 12 13  1  0
 13 14  2  0
 14 15  1  0
 14 16  1  0
 16 17  2  0
 17 18  1  0
 18 19  2  0
 18 20  1  0
 20 21  1  0
 21 22  1  0
 22 23  1  1
 22 24  1  0
 24 25  1  0
M  END
>  <minimizedAffinity>  (745) 
-8.62865

$$$$
data/reference_output_2/data/smiles/154887.pdb
     RDKit          3D

 29 32  0  0  0  0  0  0  0  0999 V2000
   68.0400   48.6771   57.3976 C   0  0  2  0  0  0  0  0  0  0  0  0
   67.0118   49.6262   57.8555 C   0  0  0  0  0  0  0  0  0  0  0  0
   67.5341   50.9435   57.3352 C   0  0  0  0  0  0  0  0  0  0  0  0
   68.9942   50.7787   57.7070 C   0  0  0  0  0  0  0  0  0  0  0  0
   69.9723   51.7086   57.9868 C   0  0  0  0  0  0  0  0  0  0  0  0
   71.2630   51.3670   58.3108 C   0  0  0  0  0  0  0  0  0  0  0  0
   71.5182   49.9808   58.3373 C   0  0  0  0  0  0  0  0  0  0  0  0
   70.5673   49.0485   58.0650 C   0  0  0  0  0  0  0  0  0  0  0  0
   69.2924   49.4409   57.7461 C   0  0  0  0  0  0  0  0  0  0  0  0
   68.3452   47.1955   55.3874 C   0  0  0  0  0  0  0  0  0  0  0  0
   68.5002   46.2422   56.2188 O   0  0  0  0  0  0  0  0  0  0  0  0
   68.1057   48.4656   55.9746 N   0  0  0  0  0  0  0  0  0  0  0  0
   70.3105   48.4754   53.7142 N   0  0  0  0  0  0  0  0  0  0  0  0
   69.3581   47.5933   53.1718 C   0  0  0  0  0  0  0  0  0  0  0  0
   68.4128   46.9729   53.9563 C   0  0  0  0  0  0  0  0  0  0  0  0
   67.5408   46.1475   53.3663 N   0  0  0  0  0  0  0  0  0  0  0  0
   67.5799   45.9184   52.0202 C   0  0  0  0  0  0  0  0  0  0  0  0
   66.7613   45.1426   51.4655 O   0  0  0  0  0  0  0  0  0  0  0  0
   68.4989   46.5222   51.2654 N   0  0  0  0  0  0  0  0  0  0  0  0
   69.3847   47.3493   51.8027 C   0  0  0  0  0  0  0  0  0  0  0  0
   70.2443   47.9087   51.0747 O   0  0  0  0  0  0  0  0  0  0  0  0
   72.2677   52.2160   58.5936 O   0  0  0  0  0  0  0  0  0  0  0  0
   72.8837   53.2985   58.0885 C   0  0  0  0  0  0  0  0  0  0  0  0
   73.1737   53.2577   56.6195 C   0  0  0  0  0  0  0  0  0  0  0  0
   73.1375   54.3741   55.8283 C   0  0  0  0  0  0  0  0  0  0  0  0
   73.4015   54.2854   54.4740 C   0  0  0  0  0  0  0  0  0  0  0  0
   73.7047   53.0903   53.8869 C   0  0  0  0  0  0  0  0  0  0  0  0
   73.7352   51.9818   54.7007 C   0  0  0  0  0  0  0  0  0  0  0  0
   73.4816   52.0161   56.0475 C   0  0  0  0  0  0  0  0  0  0  0  0
 13 14  1  0
 14 15  2  0
 14 20  1  0
 15 10  1  0
 15 16  1  0
 10 11  2  0
 10 12  1  0
  1 12  1  6
  1  2  1  0
  1  9  1  0
  2  3  1  0
  3  4  1  0
  4  5  1  0
  4  9  2  0
  5  6  2  0
  6 22  1  0
  6  7  1  0
 22 23  1  0
 23 24  1  0
 24 25  2  0
 24 29  1  0
 25 26  1  0
 26 27  2  0
 27 28  1  0
 28 29  2  0
  7  8  2  0
  8  9  1  0
 16 17  1  0
 17 18  2  0
 17 19  1  0
 19 20  1  0
 20 21  2  0
M  END
>  <minimizedAffinity>  (746) 
-9.12716

$$$$
data/reference_output_2/data/smiles/154906.pdb
     RDKit          3D

 30 33  0  0  0  0  0  0  0  0999 V2000
   70.3242   43.4165   58.1859 C   0  0  0  0  0  0  0  0  0  0  0  0
   69.2235   42.6473   57.8752 C   0  0  0  0  0  0  0  0  0  0  0  0
   69.2667   41.2625   57.9075 C   0  0  0  0  0  0  0  0  0  0  0  0
   70.4204   40.5900   58.2542 C   0  0  0  0  0  0  0  0  0  0  0  0
   70.5124   39.2115   58.3014 C   0  0  0  0  0  0  0  0  0  0  0  0
   69.4920   38.5121   58.0130 O   0  0  0  0  0  0  0  0  0  0  0  0
   71.6437   38.5648   58.6411 N   0  0  0  0  0  0  0  0  0  0  0  0
   72.6948   39.3535   58.9368 C   0  0  0  0  0  0  0  0  0  0  0  0
   73.7729   38.7753   59.2599 O   0  0  0  0  0  0  0  0  0  0  0  0
   72.6428   40.6982   58.9023 N   0  0  0  0  0  0  0  0  0  0  0  0
   71.5213   41.3615   58.5651 C   0  0  0  0  0  0  0  0  0  0  0  0
   71.4786   42.7575   58.5329 C   0  0  0  0  0  0  0  0  0  0  0  0
   71.7237   37.1420   58.6844 C   0  0  0  0  0  0  0  0  0  0  0  0
   71.1941   36.4554   59.7575 C   0  0  0  0  0  0  0  0  0  0  0  0
   71.2589   35.0694   59.8221 C   0  0  0  0  0  0  0  0  0  0  0  0
   71.8533   34.3282   58.8212 C   0  0  0  0  0  0  0  0  0  0  0  0
   71.9275   32.9716   58.8650 F   0  0  0  0  0  0  0  0  0  0  0  0
   72.3856   35.0053   57.7432 C   0  0  0  0  0  0  0  0  0  0  0  0
   72.3129   36.3856   57.6929 C   0  0  0  0  0  0  0  0  0  0  0  0
   70.5256   45.6017   59.1138 O   0  0  0  0  0  0  0  0  0  0  0  0
   70.2095   44.8784   58.1319 C   0  0  0  0  0  0  0  0  0  0  0  0
   69.7375   45.5432   56.9745 N   0  0  0  0  0  0  0  0  0  0  0  0
   69.6251   46.9870   56.9291 C   0  0  0  0  0  0  0  0  0  0  0  0
   68.5762   47.5083   56.0320 C   0  0  0  0  0  0  0  0  0  0  0  0
   68.7921   47.4315   54.6482 N   0  0  0  0  0  0  0  0  0  0  0  0
   67.8186   46.7350   53.8855 C   0  0  0  0  0  0  0  0  0  0  0  0
   68.4441   46.1965   52.6427 C   0  0  0  0  0  0  0  0  0  0  0  0
   69.4985   47.0339   52.0346 C   0  0  0  0  0  0  0  0  0  0  0  0
   69.6188   48.4259   52.5588 C   0  0  0  0  0  0  0  0  0  0  0  0
   69.1830   48.6212   53.9657 C   0  0  0  0  0  0  0  0  0  0  0  0
 20 21  2  0
 21 22  1  0
 21  1  1  0
 22 23  1  0
 23 24  1  0
 24 25  1  0
 25 26  1  0
 25 30  1  0
 26 27  1  0
 27 28  1  0
 28 29  1  0
 29 30  1  0
  1  2  2  0
  1 12  1  0
  2  3  1  0
  3  4  2  0
  4  5  1  0
  4 11  1  0
  5  6  2  0
  5  7  1  0
  7 13  1  0
  7  8  1  0
 13 14  2  0
 13 19  1  0
 14 15  1  0
 15 16  2  0
 16 17  1  0
 16 18  1  0
 18 19  2  0
  8  9  2  0
  8 10  1  0
 10 11  1  0
 11 12  2  0
M  CHG  1  25   1
M  END
>  <minimizedAffinity>  (747) 
-8.88403

$$$$
data/reference_output_2/data/smiles/155057.pdb
     RDKit          3D

 30 33  0  0  0  0  0  0  0  0999 V2000
   70.9229   48.9587   57.5946 C   0  0  0  0  0  0  0  0  0  0  0  0
   72.1060   49.1851   57.2362 O   0  0  0  0  0  0  0  0  0  0  0  0
   70.7278   48.1895   58.7629 N   0  0  0  0  0  0  0  0  0  0  0  0
   71.7666   47.6582   59.5588 C   0  0  0  0  0  0  0  0  0  0  0  0
   72.6848   48.4432   60.2126 C   0  0  0  0  0  0  0  0  0  0  0  0
   73.6933   47.9220   60.9938 C   0  0  0  0  0  0  0  0  0  0  0  0
   73.8048   46.5660   61.1407 C   0  0  0  0  0  0  0  0  0  0  0  0
   72.8983   45.7448   60.4971 C   0  0  0  0  0  0  0  0  0  0  0  0
   71.8723   46.2783   59.7031 C   0  0  0  0  0  0  0  0  0  0  0  0
   70.9373   45.4682   58.9990 C   0  0  0  0  0  0  0  0  0  0  0  0
   69.7186   45.7936   59.0296 O   0  0  0  0  0  0  0  0  0  0  0  0
   71.2396   44.3132   58.2573 N   0  0  0  0  0  0  0  0  0  0  0  0
   72.4400   43.5663   57.9945 C   0  0  0  0  0  0  0  0  0  0  0  0
   71.9995   42.1328   57.6679 C   0  0  0  0  0  0  0  0  0  0  0  0
   70.4992   42.1624   57.8734 C   0  0  0  0  0  0  0  0  0  0  0  0
   70.1864   43.5851   57.4612 C   0  0  0  0  0  0  0  0  0  0  0  0
   69.7701   49.4760   56.8227 C   0  0  1  0  0  0  0  0  0  0  0  0
   69.3926   48.6997   55.6909 N   0  0  0  0  0  0  0  0  0  0  0  0
   69.7036   48.9975   54.3388 C   0  0  0  0  0  0  0  0  0  0  0  0
   70.3302   49.9531   53.8163 O   0  0  0  0  0  0  0  0  0  0  0  0
   69.1198   47.9096   53.5440 C   0  0  0  0  0  0  0  0  0  0  0  0
   69.0964   47.6559   52.1882 C   0  0  0  0  0  0  0  0  0  0  0  0
   68.4584   46.5251   51.6970 C   0  0  0  0  0  0  0  0  0  0  0  0
   67.8332   45.6242   52.5335 C   0  0  0  0  0  0  0  0  0  0  0  0
   67.8552   45.8754   53.8857 C   0  0  0  0  0  0  0  0  0  0  0  0
   68.4980   47.0125   54.3658 C   0  0  0  0  0  0  0  0  0  0  0  0
   68.6443   47.4707   55.7349 C   0  0  0  0  0  0  0  0  0  0  0  0
   68.2008   46.9044   56.7841 O   0  0  0  0  0  0  0  0  0  0  0  0
   67.8018   51.0398   57.2124 C   0  0  0  0  0  0  0  0  0  0  0  0
   68.5898   49.8660   57.6604 C   0  0  0  0  0  0  0  0  0  0  0  0
 29 30  1  0
 17 30  1  1
 17  1  1  0
 17 18  1  0
  1  2  2  0
  1  3  1  0
  3  4  1  0
  4  5  2  0
  4  9  1  0
  5  6  1  0
  6  7  2  0
  7  8  1  0
  8  9  2  0
  9 10  1  0
 10 11  2  0
 10 12  1  0
 12 13  1  0
 12 16  1  0
 13 14  1  0
 14 15  1  0
 15 16  1  0
 18 19  1  0
 18 27  1  0
 19 20  2  0
 19 21  1  0
 21 22  1  0
 21 26  2  0
 22 23  2  0
 23 24  1  0
 24 25  2  0
 25 26  1  0
 26 27  1  0
 27 28  2  0
M  END
>  <minimizedAffinity>  (748) 
-8.55165

$$$$
data/reference_output_2/data/smiles/155112.pdb
     RDKit          3D

 30 33  0  0  0  0  0  0  0  0999 V2000
   70.8611   46.7154   58.1221 C   0  0  0  0  0  0  0  0  0  0  0  0
   70.9302   45.4369   58.0649 C   0  0  0  0  0  0  0  0  0  0  0  0
   71.0266   44.0093   58.0129 C   0  0  0  0  0  0  0  0  0  0  0  0
   69.9818   43.1885   57.8173 C   0  0  0  0  0  0  0  0  0  0  0  0
   70.0337   41.7843   57.9177 C   0  0  0  0  0  0  0  0  0  0  0  0
   71.2645   41.2104   58.2485 C   0  0  0  0  0  0  0  0  0  0  0  0
   71.3840   39.8271   58.4566 C   0  0  0  0  0  0  0  0  0  0  0  0
   72.5989   39.2654   58.8709 C   0  0  0  0  0  0  0  0  0  0  0  0
   73.5889   40.1191   59.0368 O   0  0  0  0  0  0  0  0  0  0  0  0
   73.5046   41.4045   58.8497 C   0  0  0  0  0  0  0  0  0  0  0  0
   74.4872   42.2010   59.0160 O   0  0  0  0  0  0  0  0  0  0  0  0
   72.3199   42.0179   58.4448 C   0  0  0  0  0  0  0  0  0  0  0  0
   72.2758   43.4169   58.3409 C   0  0  0  0  0  0  0  0  0  0  0  0
   72.7157   37.7974   59.1082 C   0  0  0  0  0  0  0  0  0  0  0  0
   71.9595   37.0175   58.0912 C   0  0  0  0  0  0  0  0  0  0  0  0
   72.7862   36.0209   57.3261 C   0  0  0  0  0  0  0  0  0  0  0  0
   72.7080   36.0938   55.9623 O   0  0  0  0  0  0  0  0  0  0  0  0
   70.7804   48.1422   58.1606 C   0  0  0  0  0  0  0  0  0  0  0  0
   69.5441   48.6837   57.4955 C   0  0  0  0  0  0  0  0  0  0  0  0
   70.7233   50.0355   55.1789 O   0  0  0  0  0  0  0  0  0  0  0  0
   69.9762   48.9909   55.0655 C   0  0  0  0  0  0  0  0  0  0  0  0
   69.6258   48.3557   53.8169 C   0  0  0  0  0  0  0  0  0  0  0  0
   69.9537   48.6499   52.4908 C   0  0  0  0  0  0  0  0  0  0  0  0
   69.4376   47.8151   51.5194 C   0  0  0  0  0  0  0  0  0  0  0  0
   68.6315   46.7316   51.7739 C   0  0  0  0  0  0  0  0  0  0  0  0
   68.3276   46.4756   53.1133 C   0  0  0  0  0  0  0  0  0  0  0  0
   68.8272   47.2885   54.1257 C   0  0  0  0  0  0  0  0  0  0  0  0
   68.6500   47.2200   55.5575 C   0  0  0  0  0  0  0  0  0  0  0  0
   67.9719   46.3746   56.1975 O   0  0  0  0  0  0  0  0  0  0  0  0
   69.3602   48.2733   56.1441 N   0  0  0  0  0  0  0  0  0  0  0  0
 20 21  2  0
 21 22  1  0
 21 30  1  0
 22 23  2  0
 22 27  1  0
 23 24  1  0
 24 25  2  0
 25 26  1  0
 26 27  2  0
 27 28  1  0
 28 29  2  0
 28 30  1  0
 30 19  1  0
 19 18  1  0
 18  1  1  0
  1  2  3  0
  2  3  1  0
  3  4  2  0
  3 13  1  0
  4  5  1  0
  5  6  2  0
  6  7  1  0
  6 12  1  0
  7  8  2  0
  8 14  1  0
  8  9  1  0
 14 15  1  0
 15 16  1  0
 16 17  1  0
  9 10  1  0
 10 11  2  0
 10 12  1  0
 12 13  2  0
M  END
>  <minimizedAffinity>  (749) 
-8.53549

$$$$
data/reference_output_2/data/smiles/155162.pdb
     RDKit          3D

 24 26  0  0  0  0  0  0  0  0999 V2000
   68.1317   47.4896   56.4238 C   0  0  0  0  0  0  0  0  0  0  0  0
   69.4088   47.9481   52.9061 C   0  0  0  0  0  0  0  0  0  0  0  0
   69.1931   48.0963   54.2821 C   0  0  0  0  0  0  0  0  0  0  0  0
   68.3495   47.3348   54.9822 N   0  0  0  0  0  0  0  0  0  0  0  0
   67.6451   46.3474   54.3378 C   0  0  0  0  0  0  0  0  0  0  0  0
   67.8355   46.1794   52.9848 C   0  0  0  0  0  0  0  0  0  0  0  0
   67.1101   45.1694   52.3393 O   0  0  0  0  0  0  0  0  0  0  0  0
   68.6966   46.9531   52.2654 C   0  0  0  0  0  0  0  0  0  0  0  0
   68.8402   46.7656   51.0356 O   0  0  0  0  0  0  0  0  0  0  0  0
   71.4725   49.0268   52.6961 O   0  0  0  0  0  0  0  0  0  0  0  0
   70.3400   48.8131   52.2225 C   0  0  0  0  0  0  0  0  0  0  0  0
   69.9977   49.4239   51.0292 O   0  0  0  0  0  0  0  0  0  0  0  0
   69.4041   47.5317   57.1289 C   0  0  0  0  0  0  0  0  0  0  0  0
   69.9187   46.2906   57.5518 C   0  0  0  0  0  0  0  0  0  0  0  0
   71.1297   46.1614   58.1871 C   0  0  0  0  0  0  0  0  0  0  0  0
   71.9130   47.2651   58.4449 C   0  0  0  0  0  0  0  0  0  0  0  0
   71.4101   48.4836   58.0313 C   0  0  0  0  0  0  0  0  0  0  0  0
   70.1856   48.6171   57.3894 C   0  0  0  0  0  0  0  0  0  0  0  0
   69.7403   49.9694   57.0454 C   0  0  0  0  0  0  0  0  0  0  0  0
   68.6102   50.4790   57.6510 C   0  0  0  0  0  0  0  0  0  0  0  0
   68.0859   51.7232   57.3900 C   0  0  0  0  0  0  0  0  0  0  0  0
   68.7807   52.4655   56.4529 C   0  0  0  0  0  0  0  0  0  0  0  0
   69.9129   51.9943   55.8257 C   0  0  0  0  0  0  0  0  0  0  0  0
   70.3913   50.7412   56.1242 C   0  0  0  0  0  0  0  0  0  0  0  0
 10 11  2  0
 11 12  1  0
 11  2  1  0
  2  3  2  0
  2  8  1  0
  3  4  1  0
  4  1  1  0
  4  5  1  0
  1 13  1  0
 13 14  2  0
 13 18  1  0
 14 15  1  0
 15 16  2  0
 16 17  1  0
 17 18  2  0
 18 19  1  0
 19 20  2  0
 19 24  1  0
 20 21  1  0
 21 22  2  0
 22 23  1  0
 23 24  2  0
  5  6  2  0
  6  7  1  0
  6  8  1  0
  8  9  2  0
M  END
>  <minimizedAffinity>  (750) 
-8.66155

$$$$
data/reference_output_2/data/smiles/155284.pdb
     RDKit          3D

 25 26  0  0  0  0  0  0  0  0999 V2000
   67.3082   41.5908   56.6070 C   0  0  0  0  0  0  0  0  0  0  0  0
   67.9941   42.8563   56.2308 C   0  0  0  0  0  0  0  0  0  0  0  0
   69.1244   43.1706   56.7286 O   0  0  0  0  0  0  0  0  0  0  0  0
   67.4382   43.7816   55.3054 N   0  0  0  0  0  0  0  0  0  0  0  0
   68.1366   44.9716   54.9851 N   0  0  0  0  0  0  0  0  0  0  0  0
   67.9677   45.6221   53.7343 C   0  0  0  0  0  0  0  0  0  0  0  0
   67.1571   45.0734   52.9314 O   0  0  0  0  0  0  0  0  0  0  0  0
   68.6498   46.8390   53.3451 C   0  0  0  0  0  0  0  0  0  0  0  0
   68.7856   47.9109   54.1911 C   0  0  0  0  0  0  0  0  0  0  0  0
   69.4490   49.0756   53.7940 C   0  0  0  0  0  0  0  0  0  0  0  0
   69.9773   49.1431   52.5205 C   0  0  0  0  0  0  0  0  0  0  0  0
   69.8543   48.0890   51.6602 C   0  0  0  0  0  0  0  0  0  0  0  0
   69.1908   46.9481   52.0863 C   0  0  0  0  0  0  0  0  0  0  0  0
   67.7058   41.1446   57.9724 C   0  0  0  0  0  0  0  0  0  0  0  0
   69.5765   39.6460   58.8396 N   0  0  0  0  0  0  0  0  0  0  0  0
   68.4709   39.8754   57.9765 C   0  0  0  0  0  0  0  0  0  0  0  0
   68.1586   38.9298   57.1937 O   0  0  0  0  0  0  0  0  0  0  0  0
   72.3585   34.6250   58.9129 C   0  0  0  0  0  0  0  0  0  0  0  0
   71.6554   35.9377   58.8689 C   0  0  0  0  0  0  0  0  0  0  0  0
   71.9880   36.9351   57.9751 C   0  0  0  0  0  0  0  0  0  0  0  0
   71.3232   38.1568   57.9457 C   0  0  0  0  0  0  0  0  0  0  0  0
   70.2951   38.4130   58.8228 C   0  0  0  0  0  0  0  0  0  0  0  0
   69.9624   37.4145   59.7167 C   0  0  0  0  0  0  0  0  0  0  0  0
   68.8581   37.6615   60.6742 C   0  0  0  0  0  0  0  0  0  0  0  0
   70.6234   36.2010   59.7455 C   0  0  0  0  0  0  0  0  0  0  0  0
 18 19  1  0
 19 20  2  0
 19 25  1  0
 20 21  1  0
 21 22  2  0
 22 15  1  0
 22 23  1  0
 15 16  1  0
 16 17  2  0
 16 14  1  0
 14  1  1  0
  1  2  1  0
  2  3  2  0
  2  4  1  0
  4  5  1  0
  5  6  1  0
  6  7  2  0
  6  8  1  0
  8  9  2  0
  8 13  1  0
  9 10  1  0
 10 11  2  0
 11 12  1  0
 12 13  2  0
 23 24  1  0
 23 25  2  0
M  END
>  <minimizedAffinity>  (751) 
-9.21958

$$$$
data/reference_output_2/data/smiles/155597.pdb
     RDKit          3D

 27 29  0  0  0  0  0  0  0  0999 V2000
   68.9701   42.8043   57.0798 C   0  0  0  0  0  0  0  0  0  0  0  0
   69.7894   42.0462   57.8232 N   0  0  0  0  0  0  0  0  0  0  0  0
   69.6132   40.7204   58.0228 C   0  0  0  0  0  0  0  0  0  0  0  0
   68.5287   40.1030   57.4295 C   0  0  0  0  0  0  0  0  0  0  0  0
   67.6652   40.8415   56.6614 C   0  0  0  0  0  0  0  0  0  0  0  0
   67.8884   42.1885   56.4891 C   0  0  0  0  0  0  0  0  0  0  0  0
   67.0163   42.9268   55.7143 O   0  0  0  0  0  0  0  0  0  0  0  0
   70.4871   39.9467   58.8075 N   0  0  0  0  0  0  0  0  0  0  0  0
   70.0626   38.7038   59.3769 C   0  0  0  0  0  0  0  0  0  0  0  0
   70.8272   37.5767   58.7923 C   0  0  0  0  0  0  0  0  0  0  0  0
   72.2655   37.7348   58.5579 C   0  0  0  0  0  0  0  0  0  0  0  0
   72.9864   38.8522   59.2225 C   0  0  0  0  0  0  0  0  0  0  0  0
   72.1023   40.3903   59.1523 S   0  0  0  0  0  0  0  0  0  0  0  0
   72.1222   40.9883   60.5400 O   0  0  0  0  0  0  0  0  0  0  0  0
   72.6809   41.3665   58.2093 O   0  0  0  0  0  0  0  0  0  0  0  0
   69.9574   44.8770   57.5449 O   0  0  0  0  0  0  0  0  0  0  0  0
   69.1464   44.2321   56.8562 C   0  0  0  0  0  0  0  0  0  0  0  0
   68.4212   44.9402   55.8645 N   0  0  0  0  0  0  0  0  0  0  0  0
   68.5263   46.3465   55.5741 C   0  0  0  0  0  0  0  0  0  0  0  0
   68.5022   46.5407   54.1059 C   0  0  0  0  0  0  0  0  0  0  0  0
   67.7260   45.8100   53.2377 C   0  0  0  0  0  0  0  0  0  0  0  0
   67.7253   46.0048   51.8604 C   0  0  0  0  0  0  0  0  0  0  0  0
   66.9574   45.2733   51.0508 F   0  0  0  0  0  0  0  0  0  0  0  0
   68.5417   46.9780   51.3419 C   0  0  0  0  0  0  0  0  0  0  0  0
   69.3410   47.7398   52.1678 C   0  0  0  0  0  0  0  0  0  0  0  0
   70.1233   48.6840   51.5944 F   0  0  0  0  0  0  0  0  0  0  0  0
   69.3207   47.5239   53.5323 C   0  0  0  0  0  0  0  0  0  0  0  0
 16 17  2  0
 17 18  1  0
 17  1  1  0
 18 19  1  0
 19 20  1  0
 20 21  2  0
 20 27  1  0
 21 22  1  0
 22 23  1  0
 22 24  2  0
 24 25  1  0
 25 26  1  0
 25 27  2  0
  1  2  2  0
  1  6  1  0
  2  3  1  0
  3  8  1  0
  3  4  2  0
  8  9  1  0
  8 13  1  0
  9 10  1  0
 10 11  1  0
 11 12  1  0
 12 13  1  0
 13 14  2  0
 13 15  2  0
  4  5  1  0
  5  6  2  0
  6  7  1  0
M  END
>  <minimizedAffinity>  (752) 
-9.04183

$$$$
data/reference_output_2/data/smiles/155636.pdb
     RDKit          3D

 24 25  0  0  0  0  0  0  0  0999 V2000
   69.4054   48.1264   55.3028 N   0  0  0  0  0  0  0  0  0  0  0  0
   69.0483   47.8808   52.8878 C   0  0  0  0  0  0  0  0  0  0  0  0
   68.5177   47.1883   51.8192 C   0  0  0  0  0  0  0  0  0  0  0  0
   67.7851   46.0155   52.0039 C   0  0  0  0  0  0  0  0  0  0  0  0
   67.2634   45.3346   50.9573 F   0  0  0  0  0  0  0  0  0  0  0  0
   67.6075   45.5716   53.2795 C   0  0  0  0  0  0  0  0  0  0  0  0
   68.1406   46.2693   54.3328 C   0  0  0  0  0  0  0  0  0  0  0  0
   68.8743   47.4394   54.1822 C   0  0  0  0  0  0  0  0  0  0  0  0
   69.7960   49.7904   50.9179 N   0  0  0  0  0  0  0  0  0  0  0  0
   69.9597   49.3484   52.5951 S   0  0  0  0  0  0  0  0  0  0  0  0
   69.4012   50.4840   53.3929 O   0  0  0  0  0  0  0  0  0  0  0  0
   71.3966   49.0799   52.9345 O   0  0  0  0  0  0  0  0  0  0  0  0
   69.2247   47.5171   56.9042 S   0  0  0  0  0  0  0  0  0  0  0  0
   69.9277   48.3940   57.8996 O   0  0  0  0  0  0  0  0  0  0  0  0
   67.7626   47.5237   57.2907 O   0  0  0  0  0  0  0  0  0  0  0  0
   69.8720   45.8910   56.9229 C   0  0  0  0  0  0  0  0  0  0  0  0
   70.4921   45.3696   57.9422 C   0  0  0  0  0  0  0  0  0  0  0  0
   71.0482   44.0243   58.0083 C   0  0  0  0  0  0  0  0  0  0  0  0
   70.2829   42.8877   58.1161 C   0  0  0  0  0  0  0  0  0  0  0  0
   70.8826   41.6247   58.1741 C   0  0  0  0  0  0  0  0  0  0  0  0
   72.2495   41.4639   58.1267 C   0  0  0  0  0  0  0  0  0  0  0  0
   73.0127   42.6071   58.0177 C   0  0  0  0  0  0  0  0  0  0  0  0
   74.7542   42.4076   57.9566 Cl  0  0  0  0  0  0  0  0  0  0  0  0
   72.4146   43.8474   57.9607 C   0  0  0  0  0  0  0  0  0  0  0  0
  9 10  1  0
 10 11  2  0
 10 12  2  0
 10  2  1  0
  2  3  2  0
  2  8  1  0
  3  4  1  0
  4  5  1  0
  4  6  2  0
  6  7  1  0
  7  8  2  0
  8  1  1  0
  1 13  1  0
 13 14  2  0
 13 15  2  0
 13 16  1  0
 16 17  2  0
 17 18  1  0
 18 19  2  0
 18 24  1  0
 19 20  1  0
 20 21  2  0
 21 22  1  0
 22 23  1  0
 22 24  2  0
M  END
>  <minimizedAffinity>  (753) 
-8.71542

$$$$
data/reference_output_2/data/smiles/155726.pdb
     RDKit          3D

 24 26  0  0  0  0  0  0  0  0999 V2000
   68.9388   45.7578   56.1667 C   0  0  0  0  0  0  0  0  0  0  0  0
   68.0121   45.0841   55.7019 O   0  0  0  0  0  0  0  0  0  0  0  0
   69.6768   45.1049   57.2420 N   0  0  0  0  0  0  0  0  0  0  0  0
   69.2346   43.8262   57.5708 N   0  0  0  0  0  0  0  0  0  0  0  0
   69.9061   42.7586   57.2544 C   0  0  0  0  0  0  0  0  0  0  0  0
   69.4544   41.4236   57.5864 C   0  0  0  0  0  0  0  0  0  0  0  0
   68.2440   40.7967   57.4714 C   0  0  0  0  0  0  0  0  0  0  0  0
   67.0473   41.5137   56.9091 C   0  0  0  0  0  0  0  0  0  0  0  0
   68.3347   39.5289   57.9247 N   0  0  0  0  0  0  0  0  0  0  0  0
   69.5990   39.3311   58.3342 C   0  0  0  0  0  0  0  0  0  0  0  0
   70.2189   38.2073   58.8851 C   0  0  0  0  0  0  0  0  0  0  0  0
   71.5582   38.2879   59.2239 C   0  0  0  0  0  0  0  0  0  0  0  0
   72.3039   39.4355   59.0392 C   0  0  0  0  0  0  0  0  0  0  0  0
   71.6574   40.5153   58.4953 C   0  0  0  0  0  0  0  0  0  0  0  0
   70.3286   40.4812   58.1429 C   0  0  0  0  0  0  0  0  0  0  0  0
   69.3064   47.0916   55.7133 C   0  0  0  0  0  0  0  0  0  0  0  0
   68.5141   47.7394   54.6606 C   0  0  0  0  0  0  0  0  0  0  0  0
   67.7110   45.5897   52.2828 C   0  0  0  0  0  0  0  0  0  0  0  0
   68.6816   46.7437   52.2980 C   0  0  0  0  0  0  0  0  0  0  0  0
   69.4324   47.0878   51.2113 N   0  0  0  0  0  0  0  0  0  0  0  0
   70.1398   48.1538   51.4942 N   0  0  0  0  0  0  0  0  0  0  0  0
   69.9052   48.5642   52.7487 C   0  0  0  0  0  0  0  0  0  0  0  0
   70.5188   49.7347   53.4415 C   0  0  0  0  0  0  0  0  0  0  0  0
   68.9644   47.6547   53.2719 C   0  0  0  0  0  0  0  0  0  0  0  0
 18 19  1  0
 19 20  2  0
 19 24  1  0
 20 21  1  0
 21 22  1  0
 22 23  1  0
 22 24  2  0
 24 17  1  0
 17 16  1  0
 16  1  1  0
  1  2  2  0
  1  3  1  0
  3  4  1  0
  4  5  2  0
  5  6  1  0
  6  7  2  0
  6 15  1  0
  7  8  1  0
  7  9  1  0
  9 10  1  0
 10 11  1  0
 10 15  2  0
 11 12  2  0
 12 13  1  0
 13 14  2  0
 14 15  1  0
M  END
>  <minimizedAffinity>  (754) 
-8.80265

$$$$
data/reference_output_2/data/smiles/155793.pdb
     RDKit          3D

 24 26  0  0  0  0  0  0  0  0999 V2000
   70.4712   44.5378   57.7292 C   0  0  0  0  0  0  0  0  0  0  0  0
   71.1013   45.6020   58.3496 C   0  0  0  0  0  0  0  0  0  0  0  0
   70.6777   46.9091   58.1176 C   0  0  0  0  0  0  0  0  0  0  0  0
   69.6558   47.1044   57.2853 N   0  0  0  0  0  0  0  0  0  0  0  0
   69.0176   46.0728   56.6596 C   0  0  0  0  0  0  0  0  0  0  0  0
   69.4544   44.8570   56.9110 N   0  0  0  0  0  0  0  0  0  0  0  0
   71.6409   40.4445   58.4088 C   0  0  0  0  0  0  0  0  0  0  0  0
   70.2911   40.8674   58.3232 C   0  0  0  0  0  0  0  0  0  0  0  0
   69.9811   42.1618   58.1158 C   0  0  0  0  0  0  0  0  0  0  0  0
   70.8998   43.1810   57.9708 C   0  0  0  0  0  0  0  0  0  0  0  0
   72.2151   42.7849   58.0550 C   0  0  0  0  0  0  0  0  0  0  0  0
   72.5690   41.4806   58.2634 C   0  0  0  0  0  0  0  0  0  0  0  0
   71.7621   37.9237   58.2966 C   0  0  0  0  0  0  0  0  0  0  0  0
   72.0181   39.2000   58.6070 O   0  0  0  0  0  0  0  0  0  0  0  0
   67.9585   46.4390   55.8074 N   0  0  0  0  0  0  0  0  0  0  0  0
   68.2138   46.6290   54.4323 C   0  0  0  0  0  0  0  0  0  0  0  0
   67.6219   45.7922   53.4744 C   0  0  0  0  0  0  0  0  0  0  0  0
   67.8341   45.9059   52.1267 C   0  0  0  0  0  0  0  0  0  0  0  0
   68.6777   46.8999   51.6947 C   0  0  0  0  0  0  0  0  0  0  0  0
   69.2892   47.7534   52.5904 C   0  0  0  0  0  0  0  0  0  0  0  0
   69.0533   47.6120   53.9436 C   0  0  0  0  0  0  0  0  0  0  0  0
   70.1951   48.8016   52.1082 C   0  0  0  0  0  0  0  0  0  0  0  0
   71.2886   49.1818   52.9578 N   0  0  0  0  0  0  0  0  0  0  0  0
   69.9792   49.3146   50.9925 O   0  0  0  0  0  0  0  0  0  0  0  0
 13 14  1  0
 14  7  1  0
  7  8  2  0
  7 12  1  0
  8  9  1  0
  9 10  2  0
 10  1  1  0
 10 11  1  0
  1  2  2  0
  1  6  1  0
  2  3  1  0
  3  4  2  0
  4  5  1  0
  5 15  1  0
  5  6  2  0
 15 16  1  0
 16 17  2  0
 16 21  1  0
 17 18  1  0
 18 19  2  0
 19 20  1  0
 20 22  1  0
 20 21  2  0
 22 23  1  0
 22 24  2  0
 11 12  2  0
M  END
>  <minimizedAffinity>  (755) 
-9.35099

$$$$
data/reference_output_2/data/smiles/155843.pdb
     RDKit          3D

 30 33  0  0  0  0  0  0  0  0999 V2000
   68.8996   39.5432   58.9373 N   0  0  0  0  0  0  0  0  0  0  0  0
   67.8720   39.5666   57.9476 C   0  0  0  0  0  0  0  0  0  0  0  0
   68.0058   40.5602   56.8605 C   0  0  0  0  0  0  0  0  0  0  0  0
   68.8835   41.7077   57.1894 N   0  0  0  0  0  0  0  0  0  0  0  0
   68.5140   42.9518   56.6557 C   0  0  0  0  0  0  0  0  0  0  0  0
   67.4510   42.9192   55.8978 O   0  0  0  0  0  0  0  0  0  0  0  0
   70.0226   41.3721   57.9712 C   0  0  0  0  0  0  0  0  0  0  0  0
   69.5099   40.8001   59.3084 C   0  0  0  0  0  0  0  0  0  0  0  0
   72.0035   35.7314   59.1825 C   0  0  0  0  0  0  0  0  0  0  0  0
   70.7959   36.4807   59.6584 C   0  0  0  0  0  0  0  0  0  0  0  0
   70.0583   35.9494   60.6893 C   0  0  0  0  0  0  0  0  0  0  0  0
   68.9569   36.6345   61.1217 C   0  0  0  0  0  0  0  0  0  0  0  0
   68.6081   37.8070   60.5417 C   0  0  0  0  0  0  0  0  0  0  0  0
   69.3414   38.3392   59.5136 C   0  0  0  0  0  0  0  0  0  0  0  0
   70.4453   37.6831   59.0583 C   0  0  0  0  0  0  0  0  0  0  0  0
   71.3262   38.1621   57.9868 C   0  0  0  0  0  0  0  0  0  0  0  0
   69.1057   44.2676   56.7921 C   0  0  0  0  0  0  0  0  0  0  0  0
   68.4375   45.3975   56.4190 O   0  0  0  0  0  0  0  0  0  0  0  0
   68.8111   46.4550   55.6461 C   0  0  0  0  0  0  0  0  0  0  0  0
   69.4287   47.5437   56.2180 C   0  0  0  0  0  0  0  0  0  0  0  0
   69.7999   48.6007   55.4505 C   0  0  0  0  0  0  0  0  0  0  0  0
   70.3727   49.6119   55.9775 O   0  0  0  0  0  0  0  0  0  0  0  0
   69.6023   48.6663   54.1216 N   0  0  0  0  0  0  0  0  0  0  0  0
   70.0238   49.8300   53.3500 C   0  0  0  0  0  0  0  0  0  0  0  0
   68.9999   47.6078   53.5491 C   0  0  0  0  0  0  0  0  0  0  0  0
   68.7729   47.6286   52.1746 C   0  0  0  0  0  0  0  0  0  0  0  0
   68.1571   46.5659   51.5386 C   0  0  0  0  0  0  0  0  0  0  0  0
   67.7761   45.4863   52.3111 C   0  0  0  0  0  0  0  0  0  0  0  0
   67.9871   45.4370   53.6705 C   0  0  0  0  0  0  0  0  0  0  0  0
   68.6014   46.5069   54.2820 C   0  0  0  0  0  0  0  0  0  0  0  0
  9 10  1  0
 10 11  2  0
 10 15  1  0
 11 12  1  0
 12 13  2  0
 13 14  1  0
 14  1  1  0
 14 15  2  0
  1  2  1  0
  1  8  1  0
  2  3  1  0
  3  4  1  0
  4  5  1  0
  4  7  1  0
  5  6  2  0
  5 17  1  0
 17 18  1  0
 18 19  1  0
 19 20  2  0
 19 30  1  0
 20 21  1  0
 21 22  2  0
 21 23  1  0
 23 24  1  0
 23 25  1  0
 25 26  1  0
 25 30  2  0
 26 27  2  0
 27 28  1  0
 28 29  2  0
 29 30  1  0
  7  8  1  0
 15 16  1  0
M  END
>  <minimizedAffinity>  (756) 
-8.57690

$$$$
data/reference_output_2/data/smiles/155913.pdb
     RDKit          3D

 28 31  0  0  0  0  0  0  0  0999 V2000
   71.1463   45.1865   58.2844 C   0  0  0  0  0  0  0  0  0  0  0  0
   72.4648   45.5767   58.5583 C   0  0  0  0  0  0  0  0  0  0  0  0
   72.8369   46.8988   58.5116 C   0  0  0  0  0  0  0  0  0  0  0  0
   71.8930   47.8805   58.1879 C   0  0  0  0  0  0  0  0  0  0  0  0
   70.6505   47.5223   57.9282 N   0  0  0  0  0  0  0  0  0  0  0  0
   70.2961   46.2150   57.9773 C   0  0  0  0  0  0  0  0  0  0  0  0
   69.0231   43.7781   56.9598 O   0  0  0  0  0  0  0  0  0  0  0  0
   69.7969   43.1292   57.7066 C   0  0  0  0  0  0  0  0  0  0  0  0
   70.8303   43.8169   58.3512 N   0  0  0  0  0  0  0  0  0  0  0  0
   69.5449   41.6906   57.8396 C   0  0  0  0  0  0  0  0  0  0  0  0
   70.4918   40.8485   58.3815 C   0  0  0  0  0  0  0  0  0  0  0  0
   70.3029   39.4851   58.5287 C   0  0  0  0  0  0  0  0  0  0  0  0
   69.1064   38.9301   58.1121 C   0  0  0  0  0  0  0  0  0  0  0  0
   68.1401   39.7438   57.5670 C   0  0  0  0  0  0  0  0  0  0  0  0
   68.3634   41.1204   57.4327 C   0  0  0  0  0  0  0  0  0  0  0  0
   69.6647   48.5456   57.5855 C   0  0  0  0  0  0  0  0  0  0  0  0
   68.7439   48.1057   56.5153 C   0  0  0  0  0  0  0  0  0  0  0  0
   67.6744   47.5772   56.8695 O   0  0  0  0  0  0  0  0  0  0  0  0
   69.0821   48.2871   55.1232 C   0  0  0  0  0  0  0  0  0  0  0  0
   69.8212   49.3980   54.7072 C   0  0  0  0  0  0  0  0  0  0  0  0
   70.1416   49.6117   53.3906 C   0  0  0  0  0  0  0  0  0  0  0  0
   69.7626   48.7568   52.3989 C   0  0  0  0  0  0  0  0  0  0  0  0
   69.0272   47.6430   52.7821 C   0  0  0  0  0  0  0  0  0  0  0  0
   68.6590   46.7858   51.7349 C   0  0  0  0  0  0  0  0  0  0  0  0
   67.9323   45.6677   52.0754 C   0  0  0  0  0  0  0  0  0  0  0  0
   67.5829   45.4009   53.3764 C   0  0  0  0  0  0  0  0  0  0  0  0
   67.9636   46.2768   54.4076 C   0  0  0  0  0  0  0  0  0  0  0  0
   68.6945   47.4099   54.1007 C   0  0  0  0  0  0  0  0  0  0  0  0
  7  8  2  0
  8  9  1  0
  8 10  1  0
  9  1  1  0
  1  2  2  0
  1  6  1  0
  2  3  1  0
  3  4  2  0
  4  5  1  0
  5 16  1  0
  5  6  2  0
 16 17  1  0
 17 18  2  0
 17 19  1  0
 19 20  2  0
 19 28  1  0
 20 21  1  0
 21 22  2  0
 22 23  1  0
 23 24  1  0
 23 28  2  0
 24 25  2  0
 25 26  1  0
 26 27  2  0
 27 28  1  0
 10 11  2  0
 10 15  1  0
 11 12  1  0
 12 13  2  0
 13 14  1  0
 14 15  2  0
M  CHG  1   5   1
M  END
>  <minimizedAffinity>  (757) 
-9.15312

$$$$
data/reference_output_2/data/smiles/156486.pdb
     RDKit          3D

 21 23  0  0  0  0  0  0  0  0999 V2000
   70.5279   48.6836   50.9231 O   0  0  0  0  0  0  0  0  0  0  0  0
   70.3499   48.6283   52.1625 C   0  0  0  0  0  0  0  0  0  0  0  0
   71.0272   49.4096   53.0305 N   0  0  0  0  0  0  0  0  0  0  0  0
   70.8618   49.3727   54.3298 N   0  0  0  0  0  0  0  0  0  0  0  0
   69.9687   48.5212   54.9601 C   0  0  0  0  0  0  0  0  0  0  0  0
   69.2783   47.7254   54.1068 C   0  0  0  0  0  0  0  0  0  0  0  0
   68.3482   46.8232   54.5820 C   0  0  0  0  0  0  0  0  0  0  0  0
   67.6388   46.0162   53.7280 C   0  0  0  0  0  0  0  0  0  0  0  0
   67.8089   46.0555   52.3606 C   0  0  0  0  0  0  0  0  0  0  0  0
   68.7375   46.9536   51.8655 C   0  0  0  0  0  0  0  0  0  0  0  0
   69.4354   47.7498   52.7270 C   0  0  0  0  0  0  0  0  0  0  0  0
   69.8752   48.5729   56.4338 C   0  0  0  0  0  0  0  0  0  0  0  0
   68.7682   49.4355   56.9375 C   0  0  0  0  0  0  0  0  0  0  0  0
   67.7148   48.6972   57.5230 C   0  0  0  0  0  0  0  0  0  0  0  0
   66.5867   49.3775   57.8759 C   0  0  0  0  0  0  0  0  0  0  0  0
   66.4309   50.7340   57.6901 C   0  0  0  0  0  0  0  0  0  0  0  0
   67.4709   51.4143   57.1245 C   0  0  0  0  0  0  0  0  0  0  0  0
   68.6710   50.7730   56.7353 C   0  0  0  0  0  0  0  0  0  0  0  0
   69.7449   51.5476   56.2894 N   0  0  0  0  0  0  0  0  0  0  0  0
   70.8217   51.8419   56.7473 O   0  0  0  0  0  0  0  0  0  0  0  0
   69.5146   52.1544   55.0118 O   0  0  0  0  0  0  0  0  0  0  0  0
  1  2  2  0
  2  3  1  0
  2 11  1  0
  3  4  1  0
  4  5  2  0
  5 12  1  0
  5  6  1  0
 12 13  1  0
 13 14  2  0
 13 18  1  0
 14 15  1  0
 15 16  2  0
 16 17  1  0
 17 18  2  0
 18 19  1  0
 19 20  2  0
 19 21  1  0
  6  7  1  0
  6 11  2  0
  7  8  2  0
  8  9  1  0
  9 10  2  0
 10 11  1  0
M  CHG  2  19   1  21  -1
M  END
>  <minimizedAffinity>  (758) 
-8.61142

$$$$
data/reference_output_2/data/smiles/156564.pdb
     RDKit          3D

 24 26  0  0  0  0  0  0  0  0999 V2000
   68.6824   47.8765   56.6473 C   0  0  2  0  0  0  0  0  0  0  0  0
   67.4171   47.5844   57.1827 O   0  0  0  0  0  0  0  0  0  0  0  0
   68.7815   49.3573   56.6913 C   0  0  0  0  0  0  0  0  0  0  0  0
   67.8191   50.1243   57.2869 C   0  0  0  0  0  0  0  0  0  0  0  0
   67.9831   51.4942   57.2892 C   0  0  0  0  0  0  0  0  0  0  0  0
   69.0765   52.1096   56.7163 C   0  0  0  0  0  0  0  0  0  0  0  0
   69.2814   53.8590   56.7221 Cl  0  0  0  0  0  0  0  0  0  0  0  0
   70.0275   51.2941   56.1246 C   0  0  0  0  0  0  0  0  0  0  0  0
   69.8740   49.9305   56.1164 C   0  0  0  0  0  0  0  0  0  0  0  0
   69.2641   47.7085   52.9087 C   0  0  0  0  0  0  0  0  0  0  0  0
   68.5622   46.5569   52.5660 C   0  0  0  0  0  0  0  0  0  0  0  0
   67.9139   45.8518   53.5517 C   0  0  0  0  0  0  0  0  0  0  0  0
   67.9494   46.2718   54.8866 C   0  0  0  0  0  0  0  0  0  0  0  0
   68.6407   47.4074   55.2293 C   0  0  0  0  0  0  0  0  0  0  0  0
   69.2892   48.1087   54.2279 C   0  0  0  0  0  0  0  0  0  0  0  0
   70.0205   49.8864   52.0284 N   0  0  0  0  0  0  0  0  0  0  0  0
   69.9639   48.4844   51.8950 C   0  0  0  0  0  0  0  0  0  0  0  0
   70.5122   47.9386   50.9163 O   0  0  0  0  0  0  0  0  0  0  0  0
   69.7498   47.1914   57.4107 C   0  0  0  0  0  0  0  0  0  0  0  0
   70.5777   47.8872   58.2818 C   0  0  0  0  0  0  0  0  0  0  0  0
   71.5429   47.2627   58.9815 N   0  0  0  0  0  0  0  0  0  0  0  0
   71.7637   45.9415   58.8813 C   0  0  0  0  0  0  0  0  0  0  0  0
   70.9779   45.2450   58.0452 N   0  0  0  0  0  0  0  0  0  0  0  0
   69.9895   45.8343   57.3186 C   0  0  0  0  0  0  0  0  0  0  0  0
 16 17  1  0
 17 18  2  0
 17 10  1  0
 10 11  2  0
 10 15  1  0
 11 12  1  0
 12 13  2  0
 13 14  1  0
 14  1  1  0
 14 15  2  0
  1  2  1  1
  1  3  1  0
  1 19  1  0
  3  4  2  0
  3  9  1  0
  4  5  1  0
  5  6  2  0
  6  7  1  0
  6  8  1  0
  8  9  2  0
 19 20  2  0
 19 24  1  0
 20 21  1  0
 21 22  2  0
 22 23  1  0
 23 24  2  0
M  END
>  <minimizedAffinity>  (759) 
-8.80340

$$$$
data/reference_output_2/data/smiles/156711.pdb
     RDKit          3D

 31 34  0  0  0  0  0  0  0  0999 V2000
   70.7894   45.2216   58.8313 C   0  0  2  0  0  0  0  0  0  0  0  0
   71.8404   45.6807   59.8326 C   0  0  0  0  0  0  0  0  0  0  0  0
   73.1697   45.4476   59.1684 C   0  0  0  0  0  0  0  0  0  0  0  0
   72.7875   44.9342   57.7716 C   0  0  0  0  0  0  0  0  0  0  0  0
   71.5365   44.2703   58.0753 N   0  0  0  0  0  0  0  0  0  0  0  0
   71.1933   42.9806   57.6797 C   0  0  0  0  0  0  0  0  0  0  0  0
   72.0788   42.3866   56.9436 O   0  0  0  0  0  0  0  0  0  0  0  0
   69.9910   42.2099   57.9753 C   0  0  1  0  0  0  0  0  0  0  0  0
   69.4209   42.7132   59.1726 O   0  0  0  0  0  0  0  0  0  0  0  0
   68.9099   42.3856   56.9297 C   0  0  0  0  0  0  0  0  0  0  0  0
   67.7145   41.5280   57.1427 C   0  0  0  0  0  0  0  0  0  0  0  0
   67.7510   40.6671   58.3756 C   0  0  0  0  0  0  0  0  0  0  0  0
   69.0722   39.9932   58.4251 C   0  0  0  0  0  0  0  0  0  0  0  0
   69.1164   38.6469   58.6716 C   0  0  0  0  0  0  0  0  0  0  0  0
   70.3467   38.0393   58.7211 C   0  0  0  0  0  0  0  0  0  0  0  0
   71.4474   38.8281   58.5188 C   0  0  0  0  0  0  0  0  0  0  0  0
   71.3755   40.1471   58.2781 N   0  0  0  0  0  0  0  0  0  0  0  0
   70.1918   40.7718   58.2226 C   0  0  0  0  0  0  0  0  0  0  0  0
   69.4695   46.3049   56.9710 N   0  0  0  0  0  0  0  0  0  0  0  0
   70.3597   46.4197   58.0602 C   0  0  0  0  0  0  0  0  0  0  0  0
   70.8005   47.5491   58.3909 O   0  0  0  0  0  0  0  0  0  0  0  0
   69.0732   47.4487   56.2528 C   0  0  0  0  0  0  0  0  0  0  0  0
   69.5569   48.2292   53.9122 C   0  0  0  0  0  0  0  0  0  0  0  0
   69.3875   48.0096   52.5611 C   0  0  0  0  0  0  0  0  0  0  0  0
   68.6651   46.9429   52.0589 C   0  0  0  0  0  0  0  0  0  0  0  0
   68.0959   46.0722   52.9365 C   0  0  0  0  0  0  0  0  0  0  0  0
   67.1785   44.7161   52.3120 Cl  0  0  0  0  0  0  0  0  0  0  0  0
   68.2606   46.2856   54.2880 C   0  0  0  0  0  0  0  0  0  0  0  0
   68.9791   47.3452   54.8106 C   0  0  0  0  0  0  0  0  0  0  0  0
   71.4845   49.6716   53.6472 N   0  0  0  0  0  0  0  0  0  0  0  0
   70.3293   49.3702   54.4695 C   0  0  0  0  0  0  0  0  0  0  0  0
 30 31  1  0
 31 23  1  0
 23 24  2  0
 23 29  1  0
 24 25  1  0
 25 26  2  0
 26 27  1  0
 26 28  1  0
 28 29  2  0
 29 22  1  0
 22 19  1  0
 19 20  1  0
 20 21  2  0
  1 20  1  6
  1  2  1  0
  1  5  1  0
  2  3  1  0
  3  4  1  0
  4  5  1  0
  5  6  1  0
  6  7  2  0
  8  6  1  0
  8  9  1  1
  8 10  1  0
  8 18  1  0
 10 11  1  0
 11 12  1  0
 12 13  1  0
 13 14  2  0
 13 18  1  0
 14 15  1  0
 15 16  2  0
 16 17  1  0
 17 18  2  0
M  CHG  1  30   1
M  END
>  <minimizedAffinity>  (760) 
-8.72775

$$$$
data/reference_output_2/data/smiles/156725.pdb
     RDKit          3D

 22 23  0  0  0  0  0  0  0  0999 V2000
   68.8463   46.4771   56.2412 C   0  0  0  0  0  0  0  0  0  0  0  0
   69.6110   46.4473   57.2395 O   0  0  0  0  0  0  0  0  0  0  0  0
   68.2836   45.2039   55.8751 N   0  0  0  0  0  0  0  0  0  0  0  0
   68.5935   44.0542   56.6011 N   0  0  0  0  0  0  0  0  0  0  0  0
   68.3140   42.8684   56.2418 C   0  0  0  0  0  0  0  0  0  0  0  0
   68.6529   41.6818   57.0276 C   0  0  0  0  0  0  0  0  0  0  0  0
   67.8069   40.5979   57.0620 C   0  0  0  0  0  0  0  0  0  0  0  0
   68.0818   39.4564   57.7885 C   0  0  0  0  0  0  0  0  0  0  0  0
   69.2635   39.4258   58.5022 C   0  0  0  0  0  0  0  0  0  0  0  0
   69.6486   37.9948   59.4364 Cl  0  0  0  0  0  0  0  0  0  0  0  0
   70.1394   40.4719   58.5045 C   0  0  0  0  0  0  0  0  0  0  0  0
   69.8149   41.6026   57.7540 C   0  0  0  0  0  0  0  0  0  0  0  0
   70.9408   42.9474   57.7563 Cl  0  0  0  0  0  0  0  0  0  0  0  0
   68.5374   47.7078   55.4920 C   0  0  0  0  0  0  0  0  0  0  0  0
   69.5546   48.1091   54.4887 C   0  0  0  0  0  0  0  0  0  0  0  0
   68.1859   45.9669   52.3854 C   0  0  0  0  0  0  0  0  0  0  0  0
   68.9854   47.2346   52.2306 C   0  0  0  0  0  0  0  0  0  0  0  0
   69.7566   47.4206   51.2234 N   0  0  0  0  0  0  0  0  0  0  0  0
   70.3994   48.6492   51.2693 N   0  0  0  0  0  0  0  0  0  0  0  0
   69.9853   49.3199   52.4476 C   0  0  0  0  0  0  0  0  0  0  0  0
   70.3814   50.4640   52.7931 O   0  0  0  0  0  0  0  0  0  0  0  0
   69.0383   48.3940   53.1102 C   0  0  2  0  0  0  0  0  0  0  0  0
 16 17  1  0
 17 18  2  0
 17 22  1  0
 18 19  1  0
 19 20  1  0
 20 21  2  0
 20 22  1  0
 22 15  1  1
 15 14  1  0
 14  1  1  0
  1  2  2  0
  1  3  1  0
  3  4  1  0
  4  5  2  0
  5  6  1  0
  6  7  2  0
  6 12  1  0
  7  8  1  0
  8  9  2  0
  9 10  1  0
  9 11  1  0
 11 12  2  0
 12 13  1  0
M  END
>  <minimizedAffinity>  (761) 
-8.58583

$$$$
data/reference_output_2/data/smiles/156907.pdb
     RDKit          3D

 29 32  0  0  0  0  0  0  0  0999 V2000
   70.6231   49.8580   57.3218 C   0  0  0  0  0  0  0  0  0  0  0  0
   69.8376   48.7508   57.6916 C   0  0  0  0  0  0  0  0  0  0  0  0
   69.2646   47.9307   56.7525 C   0  0  0  0  0  0  0  0  0  0  0  0
   69.4213   48.1366   55.3965 C   0  0  0  0  0  0  0  0  0  0  0  0
   70.1826   49.2086   55.0092 C   0  0  0  0  0  0  0  0  0  0  0  0
   70.7669   50.0458   55.9691 C   0  0  0  0  0  0  0  0  0  0  0  0
   70.2001   49.2182   53.5260 C   0  0  1  0  0  0  0  0  0  0  0  0
   71.4988   49.0812   53.0437 O   0  0  0  0  0  0  0  0  0  0  0  0
   69.3810   48.0519   53.1328 C   0  0  0  0  0  0  0  0  0  0  0  0
   69.0353   47.5465   51.8846 C   0  0  0  0  0  0  0  0  0  0  0  0
   68.2445   46.4241   51.7520 C   0  0  0  0  0  0  0  0  0  0  0  0
   67.7682   45.7634   52.8697 C   0  0  0  0  0  0  0  0  0  0  0  0
   68.1132   46.2695   54.0998 C   0  0  0  0  0  0  0  0  0  0  0  0
   68.9068   47.3945   54.2459 C   0  0  0  0  0  0  0  0  0  0  0  0
   69.6009   50.5240   53.0265 C   0  0  0  0  0  0  0  0  0  0  0  0
   69.4945   50.4338   51.6609 F   0  0  0  0  0  0  0  0  0  0  0  0
   68.3783   50.7369   53.5911 F   0  0  0  0  0  0  0  0  0  0  0  0
   70.4940   51.5296   53.3954 F   0  0  0  0  0  0  0  0  0  0  0  0
   71.1757   50.6467   58.3003 O   0  0  0  0  0  0  0  0  0  0  0  0
   72.4607   50.8208   58.7168 C   0  0  0  0  0  0  0  0  0  0  0  0
   76.7270   50.9508   58.7712 O   0  0  0  0  0  0  0  0  0  0  0  0
   75.5666   50.4728   58.9840 C   0  0  0  0  0  0  0  0  0  0  0  0
   74.9461   50.4262   60.3296 C   0  0  0  0  0  0  0  0  0  0  0  0
   73.8261   49.4528   60.1661 C   0  0  0  0  0  0  0  0  0  0  0  0
   73.4270   49.7088   58.6947 C   0  0  2  0  0  0  0  0  0  0  0  0
   74.6690   49.9136   58.0283 N   0  0  0  0  0  0  0  0  0  0  0  0
   75.0300   49.6054   56.6813 C   0  0  0  0  0  0  0  0  0  0  0  0
   74.5118   50.5671   55.6449 C   0  0  0  0  0  0  0  0  0  0  0  0
   74.6794   49.9641   54.3816 O   0  0  0  0  0  0  0  0  0  0  0  0
 21 22  2  0
 22 23  1  0
 22 26  1  0
 23 24  1  0
 24 25  1  0
 25 20  1  1
 25 26  1  0
 20 19  1  0
 19  1  1  0
  1  2  2  0
  1  6  1  0
  2  3  1  0
  3  4  2  0
  4  5  1  0
  4 14  1  0
  5  6  2  0
  5  7  1  0
  7  8  1  1
  7 15  1  0
  7  9  1  0
 15 16  1  0
 15 17  1  0
 15 18  1  0
  9 10  1  0
  9 14  2  0
 10 11  2  0
 11 12  1  0
 12 13  2  0
 13 14  1  0
 26 27  1  0
 27 28  1  0
 28 29  1  0
M  END
>  <minimizedAffinity>  (762) 
-8.70237

$$$$
data/reference_output_2/data/smiles/156944.pdb
     RDKit          3D

 25 28  0  0  0  0  0  0  0  0999 V2000
   67.7896   46.3310   51.9578 C   0  0  0  0  0  0  0  0  0  0  0  0
   68.0951   46.3684   53.4214 C   0  0  0  0  0  0  0  0  0  0  0  0
   68.1213   45.2056   54.1402 C   0  0  0  0  0  0  0  0  0  0  0  0
   68.4097   45.2137   55.5210 C   0  0  0  0  0  0  0  0  0  0  0  0
   68.6443   46.4355   56.0269 N   0  0  0  0  0  0  0  0  0  0  0  0
   68.9459   46.8227   57.2465 N   0  0  0  0  0  0  0  0  0  0  0  0
   69.1082   48.1329   57.3450 C   0  0  0  0  0  0  0  0  0  0  0  0
   68.9011   48.6727   56.0950 C   0  0  0  0  0  0  0  0  0  0  0  0
   68.6096   47.5624   55.2937 C   0  0  0  0  0  0  0  0  0  0  0  0
   68.3381   47.5554   53.9899 N   0  0  0  0  0  0  0  0  0  0  0  0
   68.9772   50.0758   55.7248 C   0  0  0  0  0  0  0  0  0  0  0  0
   69.3718   50.4581   54.4538 C   0  0  0  0  0  0  0  0  0  0  0  0
   69.4506   51.7671   54.0853 C   0  0  0  0  0  0  0  0  0  0  0  0
   69.1222   52.7459   55.0185 C   0  0  0  0  0  0  0  0  0  0  0  0
   68.7278   52.3882   56.2852 C   0  0  0  0  0  0  0  0  0  0  0  0
   68.6510   51.0409   56.6502 C   0  0  0  0  0  0  0  0  0  0  0  0
   68.4449   44.0002   56.1933 N   0  0  0  0  0  0  0  0  0  0  0  0
   67.6183   42.8648   56.1359 C   0  0  0  0  0  0  0  0  0  0  0  0
   67.9778   41.7565   57.0603 C   0  0  0  0  0  0  0  0  0  0  0  0
   68.2183   42.0430   58.4088 C   0  0  0  0  0  0  0  0  0  0  0  0
   68.4737   41.0037   59.2578 C   0  0  0  0  0  0  0  0  0  0  0  0
   68.4962   39.7018   58.8106 C   0  0  0  0  0  0  0  0  0  0  0  0
   68.2511   39.4835   57.4772 C   0  0  0  0  0  0  0  0  0  0  0  0
   67.9916   40.5008   56.6004 N   0  0  0  0  0  0  0  0  0  0  0  0
   67.6944   40.1584   55.2862 O   0  0  0  0  0  0  0  0  0  0  0  0
  1  2  1  0
  2  3  1  0
  2 10  2  0
  3  4  2  0
  4 17  1  0
  4  5  1  0
 17 18  1  0
 18 19  1  0
 19 20  2  0
 19 24  1  0
 20 21  1  0
 21 22  2  0
 22 23  1  0
 23 24  2  0
 24 25  1  0
  5  6  1  0
  5  9  1  0
  6  7  2  0
  7  8  1  0
  8 11  1  0
  8  9  2  0
 11 12  2  0
 11 16  1  0
 12 13  1  0
 13 14  2  0
 14 15  1  0
 15 16  2  0
  9 10  1  0
M  CHG  2  24   1  25  -1
M  END
>  <minimizedAffinity>  (763) 
-8.79013

$$$$
data/reference_output_2/data/smiles/156983.pdb
     RDKit          3D

 26 29  0  0  0  0  0  0  0  0999 V2000
   69.1908   46.6675   57.2743 N   0  0  0  0  0  0  0  0  0  0  0  0
   68.7230   47.3955   56.3382 C   0  0  0  0  0  0  0  0  0  0  0  0
   68.3321   48.7971   56.6976 C   0  0  0  0  0  0  0  0  0  0  0  0
   68.8600   49.9238   56.1849 C   0  0  0  0  0  0  0  0  0  0  0  0
   68.3958   51.1914   56.4833 C   0  0  0  0  0  0  0  0  0  0  0  0
   67.3397   51.3539   57.3510 C   0  0  0  0  0  0  0  0  0  0  0  0
   66.7890   50.2089   57.8879 C   0  0  0  0  0  0  0  0  0  0  0  0
   67.2563   48.9540   57.5835 C   0  0  0  0  0  0  0  0  0  0  0  0
   68.6700   46.8848   54.9864 C   0  0  0  0  0  0  0  0  0  0  0  0
   67.9628   45.7794   54.5753 C   0  0  0  0  0  0  0  0  0  0  0  0
   67.7927   45.4138   53.2411 C   0  0  0  0  0  0  0  0  0  0  0  0
   68.3323   46.1461   52.2704 N   0  0  0  0  0  0  0  0  0  0  0  0
   69.0367   47.2382   52.5975 C   0  0  0  0  0  0  0  0  0  0  0  0
   69.2098   47.6132   53.9097 C   0  0  0  0  0  0  0  0  0  0  0  0
   70.4785   45.4350   59.3519 O   0  0  0  0  0  0  0  0  0  0  0  0
   70.2929   44.7282   58.3316 C   0  0  0  0  0  0  0  0  0  0  0  0
   69.6134   45.3857   57.2396 N   0  0  0  0  0  0  0  0  0  0  0  0
   70.7477   43.3526   58.2979 C   0  0  0  0  0  0  0  0  0  0  0  0
   72.1052   43.1031   58.3041 C   0  0  0  0  0  0  0  0  0  0  0  0
   72.6396   41.8336   58.2741 C   0  0  0  0  0  0  0  0  0  0  0  0
   71.7978   40.7365   58.2355 C   0  0  0  0  0  0  0  0  0  0  0  0
   70.4370   40.9535   58.2280 C   0  0  0  0  0  0  0  0  0  0  0  0
   69.9264   42.2585   58.2596 C   0  0  0  0  0  0  0  0  0  0  0  0
   69.8547   39.6955   58.1880 O   0  0  0  0  0  0  0  0  0  0  0  0
   70.8268   38.7489   58.6333 C   0  0  0  0  0  0  0  0  0  0  0  0
   72.0335   39.3602   58.1999 O   0  0  0  0  0  0  0  0  0  0  0  0
 15 16  2  0
 16 17  1  0
 16 18  1  0
 17  1  1  0
  1  2  2  0
  2  3  1  0
  2  9  1  0
  3  4  2  0
  3  8  1  0
  4  5  1  0
  5  6  2  0
  6  7  1  0
  7  8  2  0
  9 10  2  0
  9 14  1  0
 10 11  1  0
 11 12  2  0
 12 13  1  0
 13 14  2  0
 18 19  2  0
 18 23  1  0
 19 20  1  0
 20 21  2  0
 21 22  1  0
 21 26  1  0
 22 23  2  0
 22 24  1  0
 24 25  1  0
 25 26  1  0
M  END
>  <minimizedAffinity>  (764) 
-8.75569

$$$$
data/reference_output_2/data/smiles/157008.pdb
     RDKit          3D

 23 25  0  0  0  0  0  0  0  0999 V2000
   70.1126   45.7623   58.9292 O   0  0  0  0  0  0  0  0  0  0  0  0
   69.9506   44.9422   57.9721 C   0  0  0  0  0  0  0  0  0  0  0  0
   69.3096   45.4969   56.8143 N   0  0  0  0  0  0  0  0  0  0  0  0
   70.3734   43.5807   58.0484 C   0  0  0  0  0  0  0  0  0  0  0  0
   71.7448   43.2932   58.0049 C   0  0  0  0  0  0  0  0  0  0  0  0
   72.2276   42.0065   58.0720 C   0  0  0  0  0  0  0  0  0  0  0  0
   71.3619   40.9392   58.1853 C   0  0  0  0  0  0  0  0  0  0  0  0
   71.8352   39.6604   58.2518 N   0  0  0  0  0  0  0  0  0  0  0  0
   71.0123   38.6026   58.3632 C   0  0  0  0  0  0  0  0  0  0  0  0
   69.6507   38.8174   58.4113 C   0  0  0  0  0  0  0  0  0  0  0  0
   69.1577   40.1291   58.3434 C   0  0  0  0  0  0  0  0  0  0  0  0
   70.0152   41.1990   58.2298 C   0  0  0  0  0  0  0  0  0  0  0  0
   69.5418   42.5165   58.1602 C   0  0  0  0  0  0  0  0  0  0  0  0
   68.8975   46.7409   56.6796 N   0  0  0  0  0  0  0  0  0  0  0  0
   68.6091   47.4756   55.7323 C   0  0  0  0  0  0  0  0  0  0  0  0
   68.6363   47.1705   54.3341 C   0  0  0  0  0  0  0  0  0  0  0  0
   67.6893   46.2197   53.8895 C   0  0  0  0  0  0  0  0  0  0  0  0
   67.6078   45.8376   52.5807 C   0  0  0  0  0  0  0  0  0  0  0  0
   68.4322   46.3460   51.6095 C   0  0  0  0  0  0  0  0  0  0  0  0
   69.3575   47.2643   52.0006 C   0  0  0  0  0  0  0  0  0  0  0  0
   70.2152   47.8118   51.0745 O   0  0  0  0  0  0  0  0  0  0  0  0
   69.4390   47.6580   53.3615 C   0  0  0  0  0  0  0  0  0  0  0  0
   70.4065   48.5840   53.6242 O   0  0  0  0  0  0  0  0  0  0  0  0
  1  2  2  0
  2  3  1  0
  2  4  1  0
  3 14  1  0
 14 15  2  0
 15 16  1  0
 16 17  2  0
 16 22  1  0
 17 18  1  0
 18 19  2  0
 19 20  1  0
 20 21  1  0
 20 22  2  0
 22 23  1  0
  4  5  2  0
  4 13  1  0
  5  6  1  0
  6  7  2  0
  7  8  1  0
  7 12  1  0
  8  9  2  0
  9 10  1  0
 10 11  2  0
 11 12  1  0
 12 13  2  0
M  END
>  <minimizedAffinity>  (765) 
-8.87795

$$$$
data/reference_output_2/data/smiles/157050.pdb
     RDKit          3D

 30 33  0  0  0  0  0  0  0  0999 V2000
   73.7433   41.9231   58.1918 O   0  0  0  0  0  0  0  0  0  0  0  0
   72.4804   41.8375   58.2170 C   0  0  0  0  0  0  0  0  0  0  0  0
   71.8526   40.6520   58.3008 N   0  0  0  0  0  0  0  0  0  0  0  0
   70.5075   40.5436   58.3289 C   0  0  0  0  0  0  0  0  0  0  0  0
   69.9389   39.3497   58.4119 C   0  0  0  0  0  0  0  0  0  0  0  0
   69.7905   41.7206   58.2659 C   0  0  0  0  0  0  0  0  0  0  0  0
   68.5330   41.6179   58.2926 O   0  0  0  0  0  0  0  0  0  0  0  0
   70.4129   42.9105   58.1823 N   0  0  0  0  0  0  0  0  0  0  0  0
   71.7533   43.0037   58.1553 C   0  0  0  0  0  0  0  0  0  0  0  0
   72.3655   44.1956   58.0713 C   0  0  0  0  0  0  0  0  0  0  0  0
   70.7172   38.1150   58.4775 C   0  0  0  0  0  0  0  0  0  0  0  0
   70.6952   37.1228   59.4205 C   0  0  0  0  0  0  0  0  0  0  0  0
   71.6116   36.1487   59.0561 C   0  0  0  0  0  0  0  0  0  0  0  0
   72.1598   36.6254   57.8663 C   0  0  0  0  0  0  0  0  0  0  0  0
   73.3891   35.7421   56.9910 Cl  0  0  0  0  0  0  0  0  0  0  0  0
   71.6011   37.7715   57.5800 O   0  0  0  0  0  0  0  0  0  0  0  0
   71.5061   45.3662   58.0119 C   0  0  0  0  0  0  0  0  0  0  0  0
   71.9553   46.4931   58.7094 C   0  0  0  0  0  0  0  0  0  0  0  0
   71.1837   47.6362   58.6914 C   0  0  0  0  0  0  0  0  0  0  0  0
   69.9983   47.6539   57.9969 C   0  0  0  0  0  0  0  0  0  0  0  0
   69.5396   46.5477   57.3011 C   0  0  0  0  0  0  0  0  0  0  0  0
   70.3224   45.4123   57.3298 C   0  0  0  0  0  0  0  0  0  0  0  0
   68.3255   46.6006   56.6039 O   0  0  0  0  0  0  0  0  0  0  0  0
   68.4051   46.6801   55.2201 C   0  0  0  0  0  0  0  0  0  0  0  0
   67.9333   45.6237   54.4836 C   0  0  0  0  0  0  0  0  0  0  0  0
   67.9990   45.6727   53.1101 C   0  0  0  0  0  0  0  0  0  0  0  0
   68.5213   46.7447   52.4216 C   0  0  0  0  0  0  0  0  0  0  0  0
   68.5752   46.7703   51.0516 F   0  0  0  0  0  0  0  0  0  0  0  0
   68.9957   47.8085   53.1697 C   0  0  0  0  0  0  0  0  0  0  0  0
   68.9350   47.7703   54.5616 C   0  0  0  0  0  0  0  0  0  0  0  0
  1  2  2  0
  2  3  1  0
  2  9  1  0
  3  4  1  0
  4  5  2  0
  4  6  1  0
  5 11  1  0
 11 12  2  0
 11 16  1  0
 12 13  1  0
 13 14  2  0
 14 15  1  0
 14 16  1  0
  6  7  2  0
  6  8  1  0
  8  9  1  0
  9 10  2  0
 10 17  1  0
 17 18  2  0
 17 22  1  0
 18 19  1  0
 19 20  2  0
 20 21  1  0
 21 23  1  0
 21 22  2  0
 23 24  1  0
 24 25  2  0
 24 30  1  0
 25 26  1  0
 26 27  2  0
 27 28  1  0
 27 29  1  0
 29 30  2  0
M  END
>  <minimizedAffinity>  (766) 
-9.64698

$$$$
data/reference_output_2/data/smiles/157200.pdb
     RDKit          3D

 27 31  0  0  0  0  0  0  0  0999 V2000
   73.0683   33.9298   52.5371 N   0  0  0  0  0  0  0  0  0  0  0  0
   72.3011   35.0028   52.7091 C   0  0  0  0  0  0  0  0  0  0  0  0
   72.6427   35.5850   53.9267 C   0  0  0  0  0  0  0  0  0  0  0  0
   73.6293   34.8338   54.4771 N   0  0  0  0  0  0  0  0  0  0  0  0
   73.8665   33.8328   53.6060 C   0  0  0  0  0  0  0  0  0  0  0  0
   73.0691   33.0093   51.4154 C   0  0  0  0  0  0  0  0  0  0  0  0
   78.0849   35.1795   47.8692 C   0  0  0  0  0  0  0  0  0  0  0  0
   78.1908   35.6169   49.1736 C   0  0  0  0  0  0  0  0  0  0  0  0
   77.2313   35.2720   50.1035 C   0  0  0  0  0  0  0  0  0  0  0  0
   76.1267   34.4794   49.7741 C   0  0  0  0  0  0  0  0  0  0  0  0
   75.1783   34.1477   50.7189 C   0  0  0  0  0  0  0  0  0  0  0  0
   74.0882   33.3647   50.3954 C   0  0  0  0  0  0  0  0  0  0  0  0
   74.0024   32.9388   49.0836 C   0  0  0  0  0  0  0  0  0  0  0  0
   74.9429   33.2642   48.1284 C   0  0  0  0  0  0  0  0  0  0  0  0
   76.0293   34.0485   48.4688 C   0  0  0  0  0  0  0  0  0  0  0  0
   76.9983   34.3978   47.5359 C   0  0  0  0  0  0  0  0  0  0  0  0
   74.3075   35.0459   55.7439 C   0  0  0  0  0  0  0  0  0  0  0  0
   73.3342   35.1848   56.8618 C   0  0  0  0  0  0  0  0  0  0  0  0
   72.9886   34.0952   57.6342 C   0  0  0  0  0  0  0  0  0  0  0  0
   72.0738   34.2611   58.6743 C   0  0  0  0  0  0  0  0  0  0  0  0
   71.5042   35.4868   58.9492 C   0  0  0  0  0  0  0  0  0  0  0  0
   70.5966   35.6845   59.9697 C   0  0  0  0  0  0  0  0  0  0  0  0
   70.0270   36.9072   60.2467 C   0  0  0  0  0  0  0  0  0  0  0  0
   70.3774   37.9957   59.4681 C   0  0  0  0  0  0  0  0  0  0  0  0
   71.2793   37.8082   58.4516 C   0  0  0  0  0  0  0  0  0  0  0  0
   71.8519   36.5854   58.1716 C   0  0  0  0  0  0  0  0  0  0  0  0
   72.7625   36.3986   57.1438 C   0  0  0  0  0  0  0  0  0  0  0  0
  7  8  2  0
  7 16  1  0
  8  9  1  0
  9 10  2  0
 10 11  1  0
 10 15  1  0
 11 12  2  0
 12  6  1  0
 12 13  1  0
  6  1  1  0
  1  2  1  0
  1  5  1  0
  2  3  2  0
  3  4  1  0
  4 17  1  0
  4  5  2  0
 17 18  1  0
 18 19  2  0
 18 27  1  0
 19 20  1  0
 20 21  2  0
 21 22  1  0
 21 26  1  0
 22 23  2  0
 23 24  1  0
 24 25  2  0
 25 26  1  0
 26 27  2  0
 13 14  2  0
 14 15  1  0
 15 16  2  0
M  CHG  1   4   1
M  END
>  <minimizedAffinity>  (767) 
-9.31776

$$$$
data/reference_output_2/data/smiles/157259.pdb
     RDKit          3D

 25 28  0  0  0  0  0  0  0  0999 V2000
   71.2039   41.3894   59.0733 O   0  0  0  0  0  0  0  0  0  0  0  0
   70.1595   41.3188   58.3550 C   0  0  0  0  0  0  0  0  0  0  0  0
   69.6609   42.4802   57.6402 C   0  0  0  0  0  0  0  0  0  0  0  0
   70.0433   43.7924   57.5020 C   0  0  0  0  0  0  0  0  0  0  0  0
   69.1547   44.4390   56.6697 C   0  0  0  0  0  0  0  0  0  0  0  0
   68.2497   43.5030   56.3186 N   0  0  0  0  0  0  0  0  0  0  0  0
   68.5576   42.3516   56.8963 N   0  0  0  0  0  0  0  0  0  0  0  0
   67.8328   41.0973   56.7717 C   0  0  0  0  0  0  0  0  0  0  0  0
   68.0829   40.1497   57.8838 C   0  0  0  0  0  0  0  0  0  0  0  0
   69.4913   40.0657   58.2711 N   0  0  0  0  0  0  0  0  0  0  0  0
   70.1360   38.8273   58.5409 C   0  0  0  0  0  0  0  0  0  0  0  0
   71.2700   38.4165   57.8553 C   0  0  0  0  0  0  0  0  0  0  0  0
   71.9065   37.2234   58.1028 C   0  0  0  0  0  0  0  0  0  0  0  0
   71.4165   36.3730   59.0737 C   0  0  0  0  0  0  0  0  0  0  0  0
   72.0565   35.2002   59.3046 F   0  0  0  0  0  0  0  0  0  0  0  0
   70.2871   36.7554   59.7723 C   0  0  0  0  0  0  0  0  0  0  0  0
   69.6511   37.9707   59.5101 C   0  0  0  0  0  0  0  0  0  0  0  0
   69.1369   45.8602   56.2081 C   0  0  0  0  0  0  0  0  0  0  0  0
   68.3238   46.0216   55.1330 O   0  0  0  0  0  0  0  0  0  0  0  0
   68.3932   46.3629   53.8449 C   0  0  0  0  0  0  0  0  0  0  0  0
   67.6240   45.5948   52.9489 C   0  0  0  0  0  0  0  0  0  0  0  0
   67.6752   45.9227   51.6238 C   0  0  0  0  0  0  0  0  0  0  0  0
   68.4207   46.9345   51.1480 N   0  0  0  0  0  0  0  0  0  0  0  0
   69.1446   47.6574   51.9877 C   0  0  0  0  0  0  0  0  0  0  0  0
   69.1499   47.3937   53.3468 C   0  0  0  0  0  0  0  0  0  0  0  0
  1  2  2  0
  2  3  1  0
  2 10  1  0
  3  4  2  0
  3  7  1  0
  4  5  1  0
  5 18  1  0
  5  6  2  0
 18 19  1  0
 19 20  1  0
 20 21  2  0
 20 25  1  0
 21 22  1  0
 22 23  2  0
 23 24  1  0
 24 25  2  0
  6  7  1  0
  7  8  1  0
  8  9  1  0
  9 10  1  0
 10 11  1  0
 11 12  2  0
 11 17  1  0
 12 13  1  0
 13 14  2  0
 14 15  1  0
 14 16  1  0
 16 17  2  0
M  END
>  <minimizedAffinity>  (768) 
-8.54236

$$$$
data/reference_output_2/data/smiles/157290.pdb
     RDKit          3D

 25 26  0  0  0  0  0  0  0  0999 V2000
   69.0800   43.6927   56.9161 N   0  0  0  0  0  0  0  0  0  0  0  0
   68.5497   42.3845   56.9048 C   0  0  0  0  0  0  0  0  0  0  0  0
   67.4914   42.2069   56.2455 O   0  0  0  0  0  0  0  0  0  0  0  0
   69.1332   41.2352   57.5936 C   0  0  0  0  0  0  0  0  0  0  0  0
   70.4087   41.2443   58.1141 C   0  0  0  0  0  0  0  0  0  0  0  0
   70.9347   40.1437   58.7602 C   0  0  0  0  0  0  0  0  0  0  0  0
   70.2247   38.9725   58.9258 C   0  0  0  0  0  0  0  0  0  0  0  0
   68.9474   38.9635   58.4036 C   0  0  0  0  0  0  0  0  0  0  0  0
   68.4177   40.0596   57.7576 C   0  0  0  0  0  0  0  0  0  0  0  0
   70.7969   37.7903   59.6241 C   0  0  0  0  0  0  0  0  0  0  0  0
   71.4936   36.8509   58.6452 C   0  0  0  0  0  0  0  0  0  0  0  0
   71.8478   38.1989   60.6363 C   0  0  0  0  0  0  0  0  0  0  0  0
   69.7297   36.9854   60.3275 C   0  0  0  0  0  0  0  0  0  0  0  0
   69.0430   46.0488   56.3421 C   0  0  0  0  0  0  0  0  0  0  0  0
   70.0718   46.1698   57.0490 O   0  0  0  0  0  0  0  0  0  0  0  0
   68.4650   44.7626   56.2274 N   0  0  0  0  0  0  0  0  0  0  0  0
   68.4653   47.2260   55.6549 C   0  0  0  0  0  0  0  0  0  0  0  0
   69.3449   47.9425   53.4552 C   0  0  0  0  0  0  0  0  0  0  0  0
   69.4210   47.8506   52.0816 C   0  0  0  0  0  0  0  0  0  0  0  0
   68.6815   46.9174   51.3756 C   0  0  0  0  0  0  0  0  0  0  0  0
   67.8567   46.0714   52.1039 C   0  0  0  0  0  0  0  0  0  0  0  0
   67.7867   46.1705   53.4782 C   0  0  0  0  0  0  0  0  0  0  0  0
   68.5281   47.1067   54.1845 C   0  0  0  0  0  0  0  0  0  0  0  0
   70.0368   50.2361   53.7576 C   0  0  0  0  0  0  0  0  0  0  0  0
   70.0904   48.8814   54.1520 O   0  0  0  0  0  0  0  0  0  0  0  0
 24 25  1  0
 25 18  1  0
 18 19  2  0
 18 23  1  0
 19 20  1  0
 20 21  2  0
 21 22  1  0
 22 23  2  0
 23 17  1  0
 17 14  1  0
 14 15  2  0
 14 16  1  0
 16  1  1  0
  1  2  1  0
  2  3  2  0
  2  4  1  0
  4  5  2  0
  4  9  1  0
  5  6  1  0
  6  7  2  0
  7 10  1  0
  7  8  1  0
 10 11  1  0
 10 12  1  0
 10 13  1  0
  8  9  2  0
M  END
>  <minimizedAffinity>  (769) 
-8.64220

$$$$
data/reference_output_2/data/smiles/157444.pdb
     RDKit          3D

 25 27  0  0  0  0  0  0  0  0999 V2000
   70.5004   44.9230   58.2319 C   0  0  0  0  0  0  0  0  0  0  0  0
   69.7195   44.7914   59.2890 O   0  0  0  0  0  0  0  0  0  0  0  0
   71.4971   43.9303   58.0940 C   0  0  0  0  0  0  0  0  0  0  0  0
   71.1870   42.6150   57.6810 C   0  0  0  0  0  0  0  0  0  0  0  0
   72.3296   41.9168   57.5501 N   0  0  0  0  0  0  0  0  0  0  0  0
   73.3718   42.6855   57.8512 C   0  0  0  0  0  0  0  0  0  0  0  0
   74.7083   42.4373   57.8863 C   0  0  0  0  0  0  0  0  0  0  0  0
   75.6313   43.3972   58.2574 C   0  0  0  0  0  0  0  0  0  0  0  0
   75.1528   44.6229   58.5959 C   0  0  0  0  0  0  0  0  0  0  0  0
   73.7797   44.8828   58.5618 C   0  0  0  0  0  0  0  0  0  0  0  0
   72.8605   43.9215   58.1863 C   0  0  0  0  0  0  0  0  0  0  0  0
   76.0315   45.6618   58.9899 N   0  0  0  0  0  0  0  0  0  0  0  0
   75.5737   46.7710   59.2591 O   0  0  0  0  0  0  0  0  0  0  0  0
   77.3674   45.4312   59.0694 O   0  0  0  0  0  0  0  0  0  0  0  0
   70.7280   47.1370   57.4962 O   0  0  0  0  0  0  0  0  0  0  0  0
   70.1344   46.0679   57.4555 C   0  0  0  0  0  0  0  0  0  0  0  0
   69.0117   46.0544   56.5457 N   0  0  0  0  0  0  0  0  0  0  0  0
   68.6623   47.2136   55.7857 C   0  0  0  0  0  0  0  0  0  0  0  0
   68.5456   46.9718   54.3414 C   0  0  0  0  0  0  0  0  0  0  0  0
   67.7783   45.9958   53.7464 C   0  0  0  0  0  0  0  0  0  0  0  0
   67.7062   45.7916   52.3895 C   0  0  0  0  0  0  0  0  0  0  0  0
   68.4387   46.6026   51.5539 C   0  0  0  0  0  0  0  0  0  0  0  0
   69.2321   47.6068   52.1201 C   0  0  0  0  0  0  0  0  0  0  0  0
   69.9916   48.4513   51.3000 O   0  0  0  0  0  0  0  0  0  0  0  0
   69.2839   47.7867   53.4736 C   0  0  0  0  0  0  0  0  0  0  0  0
 15 16  2  0
 16 17  1  0
 16  1  1  0
 17 18  1  0
 18 19  1  0
 19 20  2  0
 19 25  1  0
 20 21  1  0
 21 22  2  0
 22 23  1  0
 23 24  1  0
 23 25  2  0
  1  2  2  0
  1  3  1  0
  3  4  2  0
  3 11  1  0
  4  5  1  0
  5  6  1  0
  6  7  1  0
  6 11  2  0
  7  8  2  0
  8  9  1  0
  9 12  1  0
  9 10  2  0
 12 13  2  0
 12 14  1  0
 10 11  1  0
M  CHG  2  12   1  14  -1
M  END
>  <minimizedAffinity>  (770) 
-8.54323

$$$$
data/reference_output_2/data/smiles/157463.pdb
     RDKit          3D

 24 25  0  0  0  0  0  0  0  0999 V2000
   69.3507   43.3883   56.9959 C   0  0  0  0  0  0  0  0  0  0  0  0
   68.1388   42.9912   56.2936 C   0  0  0  0  0  0  0  0  0  0  0  0
   67.6123   43.8311   55.4769 N   0  0  0  0  0  0  0  0  0  0  0  0
   68.2308   45.0708   55.3088 N   0  0  0  0  0  0  0  0  0  0  0  0
   68.1511   45.6958   54.0363 C   0  0  0  0  0  0  0  0  0  0  0  0
   67.5171   45.0914   53.1099 O   0  0  0  0  0  0  0  0  0  0  0  0
   68.7501   46.9923   53.7158 C   0  0  0  0  0  0  0  0  0  0  0  0
   68.7567   48.0069   54.6477 C   0  0  0  0  0  0  0  0  0  0  0  0
   69.3107   49.2402   54.3834 C   0  0  0  0  0  0  0  0  0  0  0  0
   69.8955   49.5205   53.1505 C   0  0  0  0  0  0  0  0  0  0  0  0
   69.8899   48.5086   52.2177 C   0  0  0  0  0  0  0  0  0  0  0  0
   70.4610   48.7236   50.9570 O   0  0  0  0  0  0  0  0  0  0  0  0
   69.3294   47.2737   52.4989 C   0  0  0  0  0  0  0  0  0  0  0  0
   67.5294   41.6323   56.5292 C   0  0  0  0  0  0  0  0  0  0  0  0
   67.4837   41.3472   57.9895 C   0  0  0  0  0  0  0  0  0  0  0  0
   68.1081   40.3668   58.4260 O   0  0  0  0  0  0  0  0  0  0  0  0
   66.7513   42.1594   58.8964 N   0  0  0  0  0  0  0  0  0  0  0  0
   66.7306   41.8542   60.2936 C   0  0  0  0  0  0  0  0  0  0  0  0
   65.9831   40.8158   60.8123 C   0  0  0  0  0  0  0  0  0  0  0  0
   65.9938   40.5585   62.1679 C   0  0  0  0  0  0  0  0  0  0  0  0
   66.7319   41.3068   63.0587 C   0  0  0  0  0  0  0  0  0  0  0  0
   67.4847   42.3523   62.5483 C   0  0  0  0  0  0  0  0  0  0  0  0
   68.2250   43.1102   63.4016 F   0  0  0  0  0  0  0  0  0  0  0  0
   67.4705   42.6036   61.1894 C   0  0  0  0  0  0  0  0  0  0  0  0
  1  2  1  0
  2 14  1  0
  2  3  2  0
 14 15  1  0
 15 16  2  0
 15 17  1  0
 17 18  1  0
 18 19  2  0
 18 24  1  0
 19 20  1  0
 20 21  2  0
 21 22  1  0
 22 23  1  0
 22 24  2  0
  3  4  1  0
  4  5  1  0
  5  6  2  0
  5  7  1  0
  7  8  2  0
  7 13  1  0
  8  9  1  0
  9 10  2  0
 10 11  1  0
 11 12  1  0
 11 13  2  0
M  END
>  <minimizedAffinity>  (771) 
-8.56096

$$$$
data/reference_output_2/data/smiles/157695.pdb
     RDKit          3D

 20 21  0  0  0  0  0  0  0  0999 V2000
   66.6264   45.0709   50.7200 O   0  0  0  0  0  0  0  0  0  0  0  0
   67.3118   45.8333   51.4863 C   0  0  0  0  0  0  0  0  0  0  0  0
   68.1865   46.7220   51.0034 N   0  0  0  0  0  0  0  0  0  0  0  0
   68.9070   47.5238   51.8301 C   0  0  0  0  0  0  0  0  0  0  0  0
   69.7238   48.3578   51.3699 O   0  0  0  0  0  0  0  0  0  0  0  0
   68.7466   47.4308   53.1734 C   0  0  0  0  0  0  0  0  0  0  0  0
   69.4890   48.2597   54.0262 C   0  0  0  0  0  0  0  0  0  0  0  0
   69.2319   48.0735   55.3688 C   0  0  0  0  0  0  0  0  0  0  0  0
   68.3229   47.1493   55.8167 C   0  0  0  0  0  0  0  0  0  0  0  0
   68.1263   47.0192   57.0717 O   0  0  0  0  0  0  0  0  0  0  0  0
   67.6650   46.4079   54.9805 O   0  0  0  0  0  0  0  0  0  0  0  0
   67.8442   46.5178   53.6997 C   0  0  0  0  0  0  0  0  0  0  0  0
   67.1592   45.7499   52.8142 N   0  0  0  0  0  0  0  0  0  0  0  0
   70.5064   49.2257   53.5395 C   0  0  0  0  0  0  0  0  0  0  0  0
   70.6235   50.4716   54.3477 C   0  0  0  0  0  0  0  0  0  0  0  0
   69.6990   51.5228   53.8012 C   0  0  0  0  0  0  0  0  0  0  0  0
   68.6670   51.9696   54.7977 C   0  0  0  0  0  0  0  0  0  0  0  0
   67.4195   51.9768   54.1416 F   0  0  0  0  0  0  0  0  0  0  0  0
   68.8608   53.2091   55.3148 F   0  0  0  0  0  0  0  0  0  0  0  0
   68.4738   51.0390   55.8248 F   0  0  0  0  0  0  0  0  0  0  0  0
  1  2  2  0
  2  3  1  0
  2 13  1  0
  3  4  1  0
  4  5  2  0
  4  6  1  0
  6  7  1  0
  6 12  2  0
  7 14  1  0
  7  8  2  0
 14 15  1  0
 15 16  1  0
 16 17  1  0
 17 18  1  0
 17 19  1  0
 17 20  1  0
  8  9  1  0
  9 10  2  0
  9 11  1  0
 11 12  1  0
 12 13  1  0
M  END
>  <minimizedAffinity>  (772) 
-8.59579

$$$$
data/reference_output_2/data/smiles/157813.pdb
     RDKit          3D

 24 27  0  0  0  0  0  0  0  0999 V2000
   69.0157   40.2902   58.6041 C   0  0  0  0  0  0  0  0  0  0  0  0
   68.3363   39.8410   57.4945 C   0  0  0  0  0  0  0  0  0  0  0  0
   68.0105   40.7231   56.4712 C   0  0  0  0  0  0  0  0  0  0  0  0
   67.3879   40.3109   55.4532 O   0  0  0  0  0  0  0  0  0  0  0  0
   68.3614   42.0197   56.5656 N   0  0  0  0  0  0  0  0  0  0  0  0
   68.1766   43.0453   55.7474 N   0  0  0  0  0  0  0  0  0  0  0  0
   68.7141   44.1619   56.2846 C   0  0  0  0  0  0  0  0  0  0  0  0
   69.2299   43.7561   57.4605 N   0  0  0  0  0  0  0  0  0  0  0  0
   69.0249   42.4412   57.6569 C   0  0  0  0  0  0  0  0  0  0  0  0
   69.3474   41.5801   58.6650 N   0  0  0  0  0  0  0  0  0  0  0  0
   68.7144   45.4922   55.6870 C   0  0  0  0  0  0  0  0  0  0  0  0
   68.2267   45.6570   54.3968 C   0  0  0  0  0  0  0  0  0  0  0  0
   68.2044   46.8926   53.7832 C   0  0  0  0  0  0  0  0  0  0  0  0
   68.6675   48.0134   54.4340 C   0  0  0  0  0  0  0  0  0  0  0  0
   69.1587   47.8761   55.7209 C   0  0  0  0  0  0  0  0  0  0  0  0
   69.1721   46.6304   56.3158 C   0  0  0  0  0  0  0  0  0  0  0  0
   69.3902   39.3957   59.7287 C   0  0  0  0  0  0  0  0  0  0  0  0
   72.9292   35.2556   57.7300 C   0  0  0  0  0  0  0  0  0  0  0  0
   72.0247   36.3204   58.2388 C   0  0  0  0  0  0  0  0  0  0  0  0
   72.0965   37.6250   57.7726 C   0  0  0  0  0  0  0  0  0  0  0  0
   71.2582   38.6110   58.2450 C   0  0  0  0  0  0  0  0  0  0  0  0
   70.3109   38.3281   59.2051 C   0  0  0  0  0  0  0  0  0  0  0  0
   70.2392   37.0316   59.6685 C   0  0  0  0  0  0  0  0  0  0  0  0
   71.0813   36.0287   59.1988 C   0  0  0  0  0  0  0  0  0  0  0  0
 18 19  1  0
 19 20  2  0
 19 24  1  0
 20 21  1  0
 21 22  2  0
 22 17  1  0
 22 23  1  0
 17  1  1  0
  1  2  2  0
  1 10  1  0
  2  3  1  0
  3  4  2  0
  3  5  1  0
  5  6  1  0
  5  9  1  0
  6  7  2  0
  7 11  1  0
  7  8  1  0
 11 12  2  0
 11 16  1  0
 12 13  1  0
 13 14  2  0
 14 15  1  0
 15 16  2  0
  8  9  2  0
  9 10  1  0
 23 24  2  0
M  END
>  <minimizedAffinity>  (773) 
-8.82538

$$$$
data/reference_output_2/data/smiles/157946.pdb
     RDKit          3D

 25 27  0  0  0  0  0  0  0  0999 V2000
   68.4607   44.8598   55.6189 N   0  0  0  0  0  0  0  0  0  0  0  0
   68.1605   45.2671   54.3254 C   0  0  0  0  0  0  0  0  0  0  0  0
   67.2851   44.5406   53.7210 O   0  0  0  0  0  0  0  0  0  0  0  0
   68.6559   46.3742   53.5465 C   0  0  0  0  0  0  0  0  0  0  0  0
   68.9255   46.1688   52.2114 N   0  0  0  0  0  0  0  0  0  0  0  0
   69.3907   47.0943   51.4107 N   0  0  0  0  0  0  0  0  0  0  0  0
   69.6325   48.3332   51.8855 C   0  0  0  0  0  0  0  0  0  0  0  0
   70.0753   49.2222   51.1250 O   0  0  0  0  0  0  0  0  0  0  0  0
   69.4033   48.6514   53.2027 C   0  0  0  0  0  0  0  0  0  0  0  0
   69.6924   49.9166   53.6438 C   0  0  0  0  0  0  0  0  0  0  0  0
   69.4738   50.1799   54.9965 C   0  0  0  0  0  0  0  0  0  0  0  0
   68.9942   49.2194   55.8454 C   0  0  0  0  0  0  0  0  0  0  0  0
   68.7163   47.9561   55.3526 C   0  0  0  0  0  0  0  0  0  0  0  0
   68.9092   47.6367   54.0206 C   0  0  0  0  0  0  0  0  0  0  0  0
   68.6804   42.7985   56.9694 C   0  0  0  0  0  0  0  0  0  0  0  0
   69.9273   43.0737   57.0086 O   0  0  0  0  0  0  0  0  0  0  0  0
   67.8865   43.7197   56.2458 N   0  0  0  0  0  0  0  0  0  0  0  0
   67.0544   39.3817   58.9910 C   0  0  0  0  0  0  0  0  0  0  0  0
   66.6724   40.6713   59.2936 C   0  0  0  0  0  0  0  0  0  0  0  0
   67.2114   41.7646   58.6266 C   0  0  0  0  0  0  0  0  0  0  0  0
   68.1518   41.6121   57.6335 C   0  0  0  0  0  0  0  0  0  0  0  0
   68.5340   40.3297   57.3291 C   0  0  0  0  0  0  0  0  0  0  0  0
   67.9960   39.2267   57.9963 C   0  0  0  0  0  0  0  0  0  0  0  0
   65.1703   38.5502   60.3776 C   0  0  0  0  0  0  0  0  0  0  0  0
   66.4782   38.1996   59.7048 C   0  0  0  0  0  0  0  0  0  0  0  0
 24 25  1  0
 25 18  1  0
 18 19  2  0
 18 23  1  0
 19 20  1  0
 20 21  2  0
 21 15  1  0
 21 22  1  0
 15 16  2  0
 15 17  1  0
 17  1  1  0
  1  2  1  0
  2  3  2  0
  2  4  1  0
  4  5  2  0
  4 14  1  0
  5  6  1  0
  6  7  1  0
  7  8  2  0
  7  9  1  0
  9 10  1  0
  9 14  2  0
 10 11  2  0
 11 12  1  0
 12 13  2  0
 13 14  1  0
 22 23  2  0
M  END
>  <minimizedAffinity>  (774) 
-8.54098

$$$$
data/reference_output_2/data/smiles/157990.pdb
     RDKit          3D

 25 29  0  0  0  0  0  0  0  0999 V2000
   71.5655   44.7005   58.4068 C   0  0  0  0  0  0  0  0  0  0  0  0
   71.5290   45.2980   59.6017 N   0  0  0  0  0  0  0  0  0  0  0  0
   70.7990   46.4165   59.4682 N   0  0  0  0  0  0  0  0  0  0  0  0
   70.3966   46.4911   58.1902 C   0  0  0  0  0  0  0  0  0  0  0  0
   70.8689   45.4517   57.5747 O   0  0  0  0  0  0  0  0  0  0  0  0
   72.2390   43.4389   58.0177 C   0  0  0  0  0  0  0  0  0  0  0  0
   68.0685   42.2994   56.6438 C   0  0  0  0  0  0  0  0  0  0  0  0
   69.2305   42.8271   57.0342 C   0  0  0  0  0  0  0  0  0  0  0  0
   70.1571   42.0691   57.8359 C   0  0  0  0  0  0  0  0  0  0  0  0
   71.3860   42.2529   58.2689 C   0  0  0  0  0  0  0  0  0  0  0  0
   71.8234   40.9971   59.0003 C   0  0  0  0  0  0  0  0  0  0  0  0
   70.9554   40.0071   58.2624 N   0  0  0  0  0  0  0  0  0  0  0  0
   69.7420   40.7276   58.3503 C   0  0  2  0  0  0  0  0  0  0  0  0
   68.5019   40.2333   57.8305 C   0  0  0  0  0  0  0  0  0  0  0  0
   67.7108   40.9564   57.0459 C   0  0  0  0  0  0  0  0  0  0  0  0
   69.5675   47.5594   57.5879 C   0  0  0  0  0  0  0  0  0  0  0  0
   69.1588   47.1979   56.1871 C   0  0  0  0  0  0  0  0  0  0  0  0
   69.4738   47.8211   55.0450 N   0  0  0  0  0  0  0  0  0  0  0  0
   68.9233   47.2053   53.9828 C   0  0  0  0  0  0  0  0  0  0  0  0
   68.9135   47.4030   52.6148 C   0  0  0  0  0  0  0  0  0  0  0  0
   68.2384   46.5851   51.7360 C   0  0  0  0  0  0  0  0  0  0  0  0
   67.5404   45.5160   52.2613 C   0  0  0  0  0  0  0  0  0  0  0  0
   67.5339   45.2949   53.6270 C   0  0  0  0  0  0  0  0  0  0  0  0
   68.2201   46.1325   54.4938 C   0  0  0  0  0  0  0  0  0  0  0  0
   68.3831   46.1561   55.8359 N   0  0  0  0  0  0  0  0  0  0  0  0
  7  8  2  0
  7 15  1  0
  8  9  1  0
  9 10  2  0
  9 13  1  0
 10  6  1  0
 10 11  1  0
  6  1  1  0
  1  2  2  0
  1  5  1  0
  2  3  1  0
  3  4  2  0
  4 16  1  0
  4  5  1  0
 16 17  1  0
 17 18  2  0
 17 25  1  0
 18 19  1  0
 19 20  2  0
 19 24  1  0
 20 21  1  0
 21 22  2  0
 22 23  1  0
 23 24  2  0
 24 25  1  0
 11 12  1  0
 13 12  1  6
 13 14  1  0
 14 15  2  0
M  CHG  2  12   1  18   1
M  END
>  <minimizedAffinity>  (775) 
-8.66643

$$$$
data/reference_output_2/data/smiles/158225.pdb
     RDKit          3D

 26 29  0  0  0  0  0  0  0  0999 V2000
   75.6853   35.3329   53.3322 C   0  0  0  0  0  0  0  0  0  0  0  0
   75.9771   35.1912   54.6377 N   0  0  0  0  0  0  0  0  0  0  0  0
   75.0236   35.2709   55.5948 C   0  0  0  0  0  0  0  0  0  0  0  0
   75.3139   35.1264   56.9348 C   0  0  0  0  0  0  0  0  0  0  0  0
   74.3236   35.2127   57.8900 C   0  0  0  0  0  0  0  0  0  0  0  0
   72.9995   35.4449   57.5660 C   0  0  0  0  0  0  0  0  0  0  0  0
   72.7118   35.5887   56.2236 C   0  0  0  0  0  0  0  0  0  0  0  0
   73.7026   35.5029   55.2663 C   0  0  0  0  0  0  0  0  0  0  0  0
   73.4127   35.6478   53.9241 C   0  0  0  0  0  0  0  0  0  0  0  0
   72.2069   35.8598   53.6156 O   0  0  0  0  0  0  0  0  0  0  0  0
   74.3985   35.5592   53.0123 N   0  0  0  0  0  0  0  0  0  0  0  0
   71.9726   35.5316   58.5976 C   0  0  0  0  0  0  0  0  0  0  0  0
   71.2174   36.6134   58.9952 C   0  0  0  0  0  0  0  0  0  0  0  0
   70.3908   36.2422   59.9804 N   0  0  0  0  0  0  0  0  0  0  0  0
   70.5977   34.9696   60.2154 N   0  0  0  0  0  0  0  0  0  0  0  0
   71.5488   34.5026   59.3973 C   0  0  0  0  0  0  0  0  0  0  0  0
   78.0440   35.2978   52.9079 N   0  0  0  0  0  0  0  0  0  0  0  0
   76.7481   35.2444   52.2786 C   0  0  1  0  0  0  0  0  0  0  0  0
   76.5657   33.9999   51.4324 C   0  0  0  0  0  0  0  0  0  0  0  0
   76.8347   34.3645   50.0320 C   0  0  0  0  0  0  0  0  0  0  0  0
   76.1943   33.6959   49.0178 C   0  0  0  0  0  0  0  0  0  0  0  0
   76.4253   34.0132   47.6770 C   0  0  0  0  0  0  0  0  0  0  0  0
   77.3111   35.0155   47.3604 C   0  0  0  0  0  0  0  0  0  0  0  0
   77.5188   35.3080   46.0476 F   0  0  0  0  0  0  0  0  0  0  0  0
   77.9537   35.6876   48.3692 C   0  0  0  0  0  0  0  0  0  0  0  0
   77.7164   35.3630   49.6850 C   0  0  0  0  0  0  0  0  0  0  0  0
 18 17  1  1
 18 19  1  0
 18  1  1  0
 19 20  1  0
 20 21  2  0
 20 26  1  0
 21 22  1  0
 22 23  2  0
 23 24  1  0
 23 25  1  0
 25 26  2  0
  1  2  2  0
  1 11  1  0
  2  3  1  0
  3  4  2  0
  3  8  1  0
  4  5  1  0
  5  6  2  0
  6 12  1  0
  6  7  1  0
 12 13  1  0
 12 16  2  0
 13 14  2  0
 14 15  1  0
 15 16  1  0
  7  8  2  0
  8  9  1  0
  9 10  2  0
  9 11  1  0
M  CHG  1  17   1
M  END
>  <minimizedAffinity>  (776) 
-8.75540

$$$$
data/reference_output_2/data/smiles/158489.pdb
     RDKit          3D

 25 27  0  0  0  0  0  0  0  0999 V2000
   68.5014   46.1747   54.0795 C   0  0  0  0  0  0  0  0  0  0  0  0
   68.1373   45.8426   52.7850 C   0  0  0  0  0  0  0  0  0  0  0  0
   68.3947   46.7019   51.7087 C   0  0  0  0  0  0  0  0  0  0  0  0
   69.0242   47.9074   51.9381 C   0  0  0  0  0  0  0  0  0  0  0  0
   69.4011   48.2726   53.2116 C   0  0  0  0  0  0  0  0  0  0  0  0
   69.1265   47.3943   54.2348 C   0  0  0  0  0  0  0  0  0  0  0  0
   68.5178   45.7579   56.3630 O   0  0  0  0  0  0  0  0  0  0  0  0
   68.2503   45.3060   55.2246 C   0  0  0  0  0  0  0  0  0  0  0  0
   67.7319   44.0003   55.1490 N   0  0  0  0  0  0  0  0  0  0  0  0
   67.4891   43.1640   56.2300 N   0  0  0  0  0  0  0  0  0  0  0  0
   67.9079   41.9524   56.3122 C   0  0  0  0  0  0  0  0  0  0  0  0
   67.6106   41.1449   57.4760 C   0  0  0  0  0  0  0  0  0  0  0  0
   68.1058   39.8745   57.6613 C   0  0  0  0  0  0  0  0  0  0  0  0
   67.7920   39.1484   58.7870 C   0  0  0  0  0  0  0  0  0  0  0  0
   66.9627   39.6799   59.7712 C   0  0  0  0  0  0  0  0  0  0  0  0
   66.4923   40.9196   59.5668 N   0  0  0  0  0  0  0  0  0  0  0  0
   66.7924   41.6486   58.4626 C   0  0  0  0  0  0  0  0  0  0  0  0
   70.2061   49.8133   53.5008 S   0  0  0  0  0  0  0  0  0  0  0  0
   69.9945   50.6553   52.2782 O   0  0  0  0  0  0  0  0  0  0  0  0
   71.6585   49.6273   53.7675 O   0  0  0  0  0  0  0  0  0  0  0  0
   69.5170   50.6419   54.8374 N   0  0  0  0  0  0  0  0  0  0  0  0
   70.3461   50.6320   56.0068 C   0  0  0  0  0  0  0  0  0  0  0  0
   69.7186   51.7031   56.8735 C   0  0  0  0  0  0  0  0  0  0  0  0
   68.8693   52.5551   55.9316 C   0  0  0  0  0  0  0  0  0  0  0  0
   69.3664   52.0644   54.5802 C   0  0  0  0  0  0  0  0  0  0  0  0
  7  8  2  0
  8  9  1  0
  8  1  1  0
  9 10  1  0
 10 11  2  0
 11 12  1  0
 12 13  2  0
 12 17  1  0
 13 14  1  0
 14 15  2  0
 15 16  1  0
 16 17  2  0
  1  2  2  0
  1  6  1  0
  2  3  1  0
  3  4  2  0
  4  5  1  0
  5 18  1  0
  5  6  2  0
 18 19  2  0
 18 20  2  0
 18 21  1  0
 21 22  1  0
 21 25  1  0
 22 23  1  0
 23 24  1  0
 24 25  1  0
M  END
>  <minimizedAffinity>  (777) 
-8.92556

$$$$
data/reference_output_2/data/smiles/158550.pdb
     RDKit          3D

 20 21  0  0  0  0  0  0  0  0999 V2000
   70.0658   49.4140   52.7955 S   0  0  0  0  0  0  0  0  0  0  0  0
   69.9491   50.2250   51.5213 O   0  0  0  0  0  0  0  0  0  0  0  0
   71.4995   49.1145   53.0427 O   0  0  0  0  0  0  0  0  0  0  0  0
   66.8775   44.6468   52.1429 O   0  0  0  0  0  0  0  0  0  0  0  0
   67.5735   45.6811   52.3267 C   0  0  0  0  0  0  0  0  0  0  0  0
   67.9736   46.0776   53.5859 C   0  0  0  0  0  0  0  0  0  0  0  0
   68.7357   47.2136   53.7596 C   0  0  0  0  0  0  0  0  0  0  0  0
   69.1077   47.9695   52.6696 C   0  0  0  0  0  0  0  0  0  0  0  0
   68.7008   47.5522   51.4639 N   0  0  0  0  0  0  0  0  0  0  0  0
   67.9700   46.4635   51.2913 N   0  0  0  0  0  0  0  0  0  0  0  0
   69.4176   50.3720   54.1103 C   0  0  0  0  0  0  0  0  0  0  0  0
   69.3583   51.7406   53.9299 C   0  0  0  0  0  0  0  0  0  0  0  0
   68.8569   52.5708   54.9242 C   0  0  0  0  0  0  0  0  0  0  0  0
   68.4157   51.9911   56.1047 C   0  0  0  0  0  0  0  0  0  0  0  0
   68.4723   50.6185   56.2905 C   0  0  0  0  0  0  0  0  0  0  0  0
   68.9782   49.8147   55.2812 C   0  0  0  0  0  0  0  0  0  0  0  0
   67.9915   50.0392   57.5667 C   0  0  0  0  0  0  0  0  0  0  0  0
   67.7761   48.6948   57.4209 F   0  0  0  0  0  0  0  0  0  0  0  0
   66.7786   50.6216   57.8824 F   0  0  0  0  0  0  0  0  0  0  0  0
   68.8893   50.2480   58.6047 F   0  0  0  0  0  0  0  0  0  0  0  0
  4  5  2  0
  5  6  1  0
  5 10  1  0
  6  7  2  0
  7  8  1  0
  8  1  1  0
  8  9  2  0
  1  2  2  0
  1  3  2  0
  1 11  1  0
 11 12  2  0
 11 16  1  0
 12 13  1  0
 13 14  2  0
 14 15  1  0
 15 17  1  0
 15 16  2  0
 17 18  1  0
 17 19  1  0
 17 20  1  0
  9 10  1  0
M  END
>  <minimizedAffinity>  (778) 
-8.64608

$$$$
data/reference_output_2/data/smiles/158558.pdb
     RDKit          3D

 25 27  0  0  0  0  0  0  0  0999 V2000
   68.9153   42.8889   57.2988 C   0  0  0  0  0  0  0  0  0  0  0  0
   69.2564   44.1333   56.9099 N   0  0  0  0  0  0  0  0  0  0  0  0
   68.5456   44.5457   55.8761 N   0  0  0  0  0  0  0  0  0  0  0  0
   67.7235   43.5581   55.5788 N   0  0  0  0  0  0  0  0  0  0  0  0
   67.9050   42.5226   56.4137 C   0  0  0  0  0  0  0  0  0  0  0  0
   68.6598   45.8209   55.2226 C   0  0  0  0  0  0  0  0  0  0  0  0
   69.1270   46.9281   55.8961 C   0  0  0  0  0  0  0  0  0  0  0  0
   69.2465   48.1736   55.2787 C   0  0  0  0  0  0  0  0  0  0  0  0
   68.8909   48.3206   53.9547 C   0  0  0  0  0  0  0  0  0  0  0  0
   69.0547   49.9080   53.2047 Cl  0  0  0  0  0  0  0  0  0  0  0  0
   68.4215   47.2213   53.2648 C   0  0  0  0  0  0  0  0  0  0  0  0
   68.3087   45.9797   53.9008 C   0  0  0  0  0  0  0  0  0  0  0  0
   70.8406   41.7758   58.4105 N   0  0  0  0  0  0  0  0  0  0  0  0
   69.4699   42.0985   58.3917 C   0  0  0  0  0  0  0  0  0  0  0  0
   68.7200   41.7139   59.3050 O   0  0  0  0  0  0  0  0  0  0  0  0
   71.5026   41.0000   59.4410 C   0  0  0  0  0  0  0  0  0  0  0  0
   72.7833   35.6136   57.7460 C   0  0  0  0  0  0  0  0  0  0  0  0
   72.4662   36.9976   58.1911 C   0  0  0  0  0  0  0  0  0  0  0  0
   73.3785   37.7701   58.8765 C   0  0  0  0  0  0  0  0  0  0  0  0
   73.0299   39.0454   59.2635 C   0  0  0  0  0  0  0  0  0  0  0  0
   71.7862   39.6095   58.9954 C   0  0  0  0  0  0  0  0  0  0  0  0
   70.8802   38.8406   58.3137 C   0  0  0  0  0  0  0  0  0  0  0  0
   71.2357   37.5659   57.9304 C   0  0  0  0  0  0  0  0  0  0  0  0
   67.1928   41.2141   56.4356 C   0  0  0  0  0  0  0  0  0  0  0  0
   67.6507   40.4225   55.3823 O   0  0  0  0  0  0  0  0  0  0  0  0
 17 18  1  0
 18 19  2  0
 18 23  1  0
 19 20  1  0
 20 21  2  0
 21 16  1  0
 21 22  1  0
 16 13  1  0
 13 14  1  0
 14 15  2  0
 14  1  1  0
  1  2  2  0
  1  5  1  0
  2  3  1  0
  3  6  1  0
  3  4  1  0
  6  7  2  0
  6 12  1  0
  7  8  1  0
  8  9  2  0
  9 10  1  0
  9 11  1  0
 11 12  2  0
  4  5  2  0
  5 24  1  0
 24 25  1  0
 22 23  2  0
M  END
>  <minimizedAffinity>  (779) 
-8.58099

$$$$
data/reference_output_2/data/smiles/158600.pdb
     RDKit          3D

 30 33  0  0  0  0  0  0  0  0999 V2000
   68.8228   43.1117   56.7459 C   0  0  0  0  0  0  0  0  0  0  0  0
   67.6950   42.3983   56.3998 C   0  0  0  0  0  0  0  0  0  0  0  0
   67.4709   41.1283   56.8771 C   0  0  0  0  0  0  0  0  0  0  0  0
   68.3872   40.5403   57.7237 C   0  0  0  0  0  0  0  0  0  0  0  0
   69.5197   41.2366   58.0811 C   0  0  0  0  0  0  0  0  0  0  0  0
   69.7219   42.5070   57.5900 C   0  0  0  0  0  0  0  0  0  0  0  0
   70.2853   40.3624   58.9741 C   0  0  0  0  0  0  0  0  0  0  0  0
   71.3835   40.6646   59.5005 O   0  0  0  0  0  0  0  0  0  0  0  0
   69.6255   39.1238   59.1685 N   0  0  0  0  0  0  0  0  0  0  0  0
   68.4331   39.2206   58.3913 C   0  0  0  0  0  0  0  0  0  0  0  0
   67.5538   38.3471   58.2744 O   0  0  0  0  0  0  0  0  0  0  0  0
   68.2473   45.0458   55.1862 N   0  0  0  0  0  0  0  0  0  0  0  0
   69.0347   44.4785   56.2145 C   0  0  0  0  0  0  0  0  0  0  0  0
   69.9678   45.1979   56.6933 O   0  0  0  0  0  0  0  0  0  0  0  0
   69.2488   47.9768   53.1448 C   0  0  0  0  0  0  0  0  0  0  0  0
   69.0412   48.9944   54.0760 C   0  0  0  0  0  0  0  0  0  0  0  0
   68.5802   48.7093   55.3443 C   0  0  0  0  0  0  0  0  0  0  0  0
   68.3398   47.4015   55.6490 C   0  0  0  0  0  0  0  0  0  0  0  0
   68.5380   46.3812   54.7440 C   0  0  0  0  0  0  0  0  0  0  0  0
   68.9905   46.6723   53.5002 C   0  0  0  0  0  0  0  0  0  0  0  0
   70.1109   47.4639   51.0210 O   0  0  0  0  0  0  0  0  0  0  0  0
   69.7350   48.3436   51.8251 C   0  0  0  0  0  0  0  0  0  0  0  0
   69.7889   49.6634   51.4424 O   0  0  0  0  0  0  0  0  0  0  0  0
   70.0456   37.9886   59.9750 C   0  0  0  0  0  0  0  0  0  0  0  0
   70.8964   37.0445   59.2030 C   0  0  0  0  0  0  0  0  0  0  0  0
   71.6399   37.4983   58.1397 C   0  0  0  0  0  0  0  0  0  0  0  0
   72.4369   36.6403   57.4085 C   0  0  0  0  0  0  0  0  0  0  0  0
   72.4726   35.3097   57.7691 C   0  0  0  0  0  0  0  0  0  0  0  0
   71.7454   34.8657   58.8098 N   0  0  0  0  0  0  0  0  0  0  0  0
   70.9646   35.7155   59.5235 C   0  0  0  0  0  0  0  0  0  0  0  0
 21 22  2  0
 22 23  1  0
 22 15  1  0
 15 16  2  0
 15 20  1  0
 16 17  1  0
 17 18  2  0
 18 19  1  0
 19 12  1  0
 19 20  2  0
 12 13  1  0
 13 14  2  0
 13  1  1  0
  1  2  2  0
  1  6  1  0
  2  3  1  0
  3  4  2  0
  4  5  1  0
  4 10  1  0
  5  6  2  0
  5  7  1  0
  7  8  2  0
  7  9  1  0
  9 24  1  0
  9 10  1  0
 24 25  1  0
 25 26  2  0
 25 30  1  0
 26 27  1  0
 27 28  2  0
 28 29  1  0
 29 30  2  0
 10 11  2  0
M  END
>  <minimizedAffinity>  (780) 
-9.34480

$$$$
data/reference_output_2/data/smiles/158845.pdb
     RDKit          3D

 27 30  0  0  0  0  0  0  0  0999 V2000
   71.9605   47.2192   58.8525 C   0  0  0  0  0  0  0  0  0  0  0  0
   70.9774   46.4746   58.0951 N   0  0  0  0  0  0  0  0  0  0  0  0
   70.0715   47.1252   57.3226 C   0  0  0  0  0  0  0  0  0  0  0  0
   70.0882   48.3904   57.2661 O   0  0  0  0  0  0  0  0  0  0  0  0
   69.1384   46.4655   56.6016 N   0  0  0  0  0  0  0  0  0  0  0  0
   69.1644   45.1224   56.6977 C   0  0  0  0  0  0  0  0  0  0  0  0
   68.3168   44.4575   56.0459 O   0  0  0  0  0  0  0  0  0  0  0  0
   70.0691   44.4254   57.4716 C   0  0  0  0  0  0  0  0  0  0  0  0
   70.0850   43.0460   57.5603 C   0  0  0  0  0  0  0  0  0  0  0  0
   70.9949   42.3509   58.3381 C   0  0  0  0  0  0  0  0  0  0  0  0
   71.9076   43.1263   59.0361 C   0  0  0  0  0  0  0  0  0  0  0  0
   71.9062   44.4698   58.9609 N   0  0  0  0  0  0  0  0  0  0  0  0
   71.0057   45.1355   58.1923 C   0  0  0  0  0  0  0  0  0  0  0  0
   70.9966   40.8959   58.4204 C   0  0  0  0  0  0  0  0  0  0  0  0
   69.8075   40.2096   58.3331 C   0  0  0  0  0  0  0  0  0  0  0  0
   69.7416   38.8268   58.4037 C   0  0  0  0  0  0  0  0  0  0  0  0
   70.8918   38.0948   58.5666 C   0  0  0  0  0  0  0  0  0  0  0  0
   70.8835   36.7417   58.6425 F   0  0  0  0  0  0  0  0  0  0  0  0
   72.0992   38.7590   58.6578 C   0  0  0  0  0  0  0  0  0  0  0  0
   72.1301   40.1343   58.5837 C   0  0  0  0  0  0  0  0  0  0  0  0
   68.1715   47.1743   55.7763 C   0  0  0  0  0  0  0  0  0  0  0  0
   68.5447   47.1857   54.3373 C   0  0  0  0  0  0  0  0  0  0  0  0
   67.9933   46.2810   53.4351 C   0  0  0  0  0  0  0  0  0  0  0  0
   68.3321   46.2817   52.0970 C   0  0  0  0  0  0  0  0  0  0  0  0
   69.2406   47.1957   51.6073 C   0  0  0  0  0  0  0  0  0  0  0  0
   69.8073   48.1054   52.4632 C   0  0  0  0  0  0  0  0  0  0  0  0
   69.4496   48.0837   53.8106 C   0  0  0  0  0  0  0  0  0  0  0  0
  1  2  1  0
  2  3  1  0
  2 13  1  0
  3  4  2  0
  3  5  1  0
  5 21  1  0
  5  6  1  0
 21 22  1  0
 22 23  2  0
 22 27  1  0
 23 24  1  0
 24 25  2  0
 25 26  1  0
 26 27  2  0
  6  7  2  0
  6  8  1  0
  8  9  1  0
  8 13  2  0
  9 10  2  0
 10 14  1  0
 10 11  1  0
 14 15  2  0
 14 20  1  0
 15 16  1  0
 16 17  2  0
 17 18  1  0
 17 19  1  0
 19 20  2  0
 11 12  2  0
 12 13  1  0
M  END
>  <minimizedAffinity>  (781) 
-8.50949

$$$$
data/reference_output_2/data/smiles/159019.pdb
     RDKit          3D

 25 28  0  0  0  0  0  0  0  0999 V2000
   69.4196   51.2955   55.8591 C   0  0  0  0  0  0  0  0  0  0  0  0
   69.0477   50.2485   55.0134 C   0  0  0  0  0  0  0  0  0  0  0  0
   69.3616   48.9369   55.2868 C   0  0  0  0  0  0  0  0  0  0  0  0
   70.0638   48.6752   56.4381 C   0  0  0  0  0  0  0  0  0  0  0  0
   70.4344   49.6933   57.2769 C   0  0  0  0  0  0  0  0  0  0  0  0
   71.1409   49.6600   58.4808 C   0  0  0  0  0  0  0  0  0  0  0  0
   71.2298   50.9229   58.8870 N   0  0  0  0  0  0  0  0  0  0  0  0
   70.6329   51.7407   58.0281 N   0  0  0  0  0  0  0  0  0  0  0  0
   70.1220   51.0224   57.0096 C   0  0  0  0  0  0  0  0  0  0  0  0
   68.9750   47.8633   54.3941 C   0  0  0  0  0  0  0  0  0  0  0  0
   68.1380   46.8611   54.8288 C   0  0  0  0  0  0  0  0  0  0  0  0
   67.7307   45.8210   54.0191 C   0  0  0  0  0  0  0  0  0  0  0  0
   68.2001   45.8131   52.7223 C   0  0  0  0  0  0  0  0  0  0  0  0
   69.0420   46.8154   52.2748 C   0  0  0  0  0  0  0  0  0  0  0  0
   69.6448   47.0585   51.0845 N   0  0  0  0  0  0  0  0  0  0  0  0
   70.3683   48.1616   51.1548 N   0  0  0  0  0  0  0  0  0  0  0  0
   70.2831   48.7017   52.3825 C   0  0  0  0  0  0  0  0  0  0  0  0
   69.4484   47.8623   53.1007 C   0  0  0  0  0  0  0  0  0  0  0  0
   69.3315   53.7501   56.4362 N   0  0  0  0  0  0  0  0  0  0  0  0
   69.0764   52.6687   55.5481 C   0  0  0  0  0  0  0  0  0  0  0  0
   68.5313   52.9408   54.4594 O   0  0  0  0  0  0  0  0  0  0  0  0
   71.6521   48.4632   59.1160 C   0  0  0  0  0  0  0  0  0  0  0  0
   72.0967   47.4684   59.6356 C   0  0  0  0  0  0  0  0  0  0  0  0
   72.6636   46.2569   60.2599 C   0  0  0  0  0  0  0  0  0  0  0  0
   71.6219   45.4686   60.7428 O   0  0  0  0  0  0  0  0  0  0  0  0
 19 20  1  0
 20 21  2  0
 20  1  1  0
  1  2  2  0
  1  9  1  0
  2  3  1  0
  3 10  1  0
  3  4  2  0
 10 11  2  0
 10 18  1  0
 11 12  1  0
 12 13  2  0
 13 14  1  0
 14 15  1  0
 14 18  2  0
 15 16  1  0
 16 17  2  0
 17 18  1  0
  4  5  1  0
  5  6  1  0
  5  9  2  0
  6 22  1  0
  6  7  2  0
 22 23  3  0
 23 24  1  0
 24 25  1  0
  7  8  1  0
  8  9  1  0
M  END
>  <minimizedAffinity>  (782) 
-9.03341

$$$$
data/reference_output_2/data/smiles/159174.pdb
     RDKit          3D

 24 27  0  0  0  0  0  0  0  0999 V2000
   70.3770   44.7784   57.7229 C   0  0  0  0  0  0  0  0  0  0  0  0
   71.1019   45.7792   58.2933 N   0  0  0  0  0  0  0  0  0  0  0  0
   70.6055   46.9499   57.9361 N   0  0  0  0  0  0  0  0  0  0  0  0
   69.5620   46.7458   57.1363 C   0  0  0  0  0  0  0  0  0  0  0  0
   69.4385   45.4138   57.0182 N   0  0  0  0  0  0  0  0  0  0  0  0
   68.3615   42.7572   58.0129 O   0  0  0  0  0  0  0  0  0  0  0  0
   69.6949   42.4033   58.0566 C   0  0  0  0  0  0  0  0  0  0  0  0
   70.6673   43.3646   57.9179 C   0  0  0  0  0  0  0  0  0  0  0  0
   71.9456   42.9257   57.9728 N   0  0  0  0  0  0  0  0  0  0  0  0
   72.2765   41.6352   58.1513 C   0  0  0  0  0  0  0  0  0  0  0  0
   71.3217   40.6483   58.2935 C   0  0  0  0  0  0  0  0  0  0  0  0
   71.6428   39.3115   58.4782 C   0  0  0  0  0  0  0  0  0  0  0  0
   70.6508   38.3490   58.6163 C   0  0  0  0  0  0  0  0  0  0  0  0
   69.3499   38.8019   58.5589 C   0  0  0  0  0  0  0  0  0  0  0  0
   69.0560   40.1102   58.3781 N   0  0  0  0  0  0  0  0  0  0  0  0
   70.0068   41.0494   58.2430 C   0  0  0  0  0  0  0  0  0  0  0  0
   68.6675   47.7537   56.4735 C   0  0  0  0  0  0  0  0  0  0  0  0
   68.6314   47.4420   55.0272 C   0  0  0  0  0  0  0  0  0  0  0  0
   69.2911   48.2372   54.1124 C   0  0  0  0  0  0  0  0  0  0  0  0
   69.2763   47.9748   52.7607 C   0  0  0  0  0  0  0  0  0  0  0  0
   68.5889   46.8896   52.2713 C   0  0  0  0  0  0  0  0  0  0  0  0
   68.5594   46.6073   50.9278 F   0  0  0  0  0  0  0  0  0  0  0  0
   67.9189   46.0756   53.1648 C   0  0  0  0  0  0  0  0  0  0  0  0
   67.9512   46.3621   54.5090 C   0  0  0  0  0  0  0  0  0  0  0  0
  6  7  1  0
  7  8  2  0
  7 16  1  0
  8  1  1  0
  8  9  1  0
  1  2  2  0
  1  5  1  0
  2  3  1  0
  3  4  2  0
  4 17  1  0
  4  5  1  0
 17 18  1  0
 18 19  2  0
 18 24  1  0
 19 20  1  0
 20 21  2  0
 21 22  1  0
 21 23  1  0
 23 24  2  0
  9 10  2  0
 10 11  1  0
 11 12  1  0
 11 16  2  0
 12 13  2  0
 13 14  1  0
 14 15  2  0
 15 16  1  0
M  END
>  <minimizedAffinity>  (783) 
-8.53966

$$$$
data/reference_output_2/data/smiles/159233.pdb
     RDKit          3D

 25 27  0  0  0  0  0  0  0  0999 V2000
   70.0824   45.4180   57.4766 C   0  0  0  0  0  0  0  0  0  0  0  0
   69.2675   45.5976   56.5180 N   0  0  0  0  0  0  0  0  0  0  0  0
   68.7692   46.8343   56.0232 C   0  0  1  0  0  0  0  0  0  0  0  0
   69.5131   48.0465   56.4879 C   0  0  0  0  0  0  0  0  0  0  0  0
   70.1748   47.8772   57.7859 C   0  0  0  0  0  0  0  0  0  0  0  0
   70.3610   48.8813   58.5111 O   0  0  0  0  0  0  0  0  0  0  0  0
   70.5795   46.5622   58.1626 N   0  0  0  0  0  0  0  0  0  0  0  0
   68.7111   46.8787   54.5387 C   0  0  0  0  0  0  0  0  0  0  0  0
   69.2394   47.9216   53.7970 C   0  0  0  0  0  0  0  0  0  0  0  0
   69.1912   47.9741   52.4187 C   0  0  0  0  0  0  0  0  0  0  0  0
   68.5822   46.9271   51.7423 C   0  0  0  0  0  0  0  0  0  0  0  0
   68.0521   45.8843   52.4490 C   0  0  0  0  0  0  0  0  0  0  0  0
   68.1081   45.8472   53.8202 C   0  0  0  0  0  0  0  0  0  0  0  0
   67.5620   44.7835   54.4531 F   0  0  0  0  0  0  0  0  0  0  0  0
   69.6754   42.9587   57.5704 C   0  0  0  0  0  0  0  0  0  0  0  0
   68.5825   43.1887   56.9817 O   0  0  0  0  0  0  0  0  0  0  0  0
   70.4806   44.0882   57.8447 N   0  0  0  0  0  0  0  0  0  0  0  0
   70.5987   38.9057   58.5840 C   0  0  0  0  0  0  0  0  0  0  0  0
   71.5906   39.8569   58.5197 C   0  0  0  0  0  0  0  0  0  0  0  0
   71.3095   41.1886   58.1901 C   0  0  0  0  0  0  0  0  0  0  0  0
   70.0254   41.5869   57.9190 C   0  0  0  0  0  0  0  0  0  0  0  0
   69.0417   40.6241   57.9879 C   0  0  0  0  0  0  0  0  0  0  0  0
   69.3090   39.3076   58.3122 C   0  0  0  0  0  0  0  0  0  0  0  0
   72.0648   36.9682   58.1173 C   0  0  0  0  0  0  0  0  0  0  0  0
   70.9219   37.4873   58.9391 C   0  0  0  0  0  0  0  0  0  0  0  0
 24 25  1  0
 25 18  1  0
 18 19  2  0
 18 23  1  0
 19 20  1  0
 20 21  2  0
 21 15  1  0
 21 22  1  0
 15 16  2  0
 15 17  1  0
 17  1  1  0
  1  2  2  0
  1  7  1  0
  2  3  1  0
  3  8  1  6
  3  4  1  0
  8  9  2  0
  8 13  1  0
  9 10  1  0
 10 11  2  0
 11 12  1  0
 12 13  2  0
 13 14  1  0
  4  5  1  0
  5  6  2  0
  5  7  1  0
 22 23  2  0
M  CHG  1   2   1
M  END
>  <minimizedAffinity>  (784) 
-8.79376

$$$$
data/reference_output_2/data/smiles/159659.pdb
     RDKit          3D

 31 33  0  0  0  0  0  0  0  0999 V2000
   69.7913   47.1408   57.5229 C   0  0  0  0  0  0  0  0  0  0  0  0
   68.6689   47.2782   58.0726 O   0  0  0  0  0  0  0  0  0  0  0  0
   69.8978   47.3745   56.1449 N   0  0  0  0  0  0  0  0  0  0  0  0
   68.8060   47.7686   55.2816 C   0  0  2  0  0  0  0  0  0  0  0  0
   68.3337   46.6934   54.4060 C   0  0  0  0  0  0  0  0  0  0  0  0
   67.6879   45.7910   55.0137 O   0  0  0  0  0  0  0  0  0  0  0  0
   68.4541   46.4576   53.0019 N   0  0  0  0  0  0  0  0  0  0  0  0
   67.5741   45.4610   52.4172 C   0  0  0  0  0  0  0  0  0  0  0  0
   69.3542   47.1138   52.1446 N   0  0  0  0  0  0  0  0  0  0  0  0
   69.8467   48.2763   52.2717 C   0  0  0  0  0  0  0  0  0  0  0  0
   69.6360   49.2662   53.3157 C   0  0  0  0  0  0  0  0  0  0  0  0
   69.9405   50.5588   52.8907 C   0  0  0  0  0  0  0  0  0  0  0  0
   69.7971   51.6173   53.7549 C   0  0  0  0  0  0  0  0  0  0  0  0
   69.3508   51.3778   55.0369 C   0  0  0  0  0  0  0  0  0  0  0  0
   69.0483   50.0794   55.4535 C   0  0  0  0  0  0  0  0  0  0  0  0
   69.1886   49.0002   54.5923 C   0  0  0  0  0  0  0  0  0  0  0  0
   72.0713   47.6775   58.1240 C   0  0  0  0  0  0  0  0  0  0  0  0
   70.9230   46.7359   58.4014 C   0  0  2  0  0  0  0  0  0  0  0  0
   71.2487   45.3644   58.0528 N   0  0  0  0  0  0  0  0  0  0  0  0
   70.5613   44.2557   58.6044 C   0  0  0  0  0  0  0  0  0  0  0  0
   69.6428   44.5226   59.4223 O   0  0  0  0  0  0  0  0  0  0  0  0
   70.8643   42.8438   58.2728 C   0  0  1  0  0  0  0  0  0  0  0  0
   71.3525   42.1334   59.3583 O   0  0  0  0  0  0  0  0  0  0  0  0
   69.7026   42.1533   57.6599 C   0  0  0  0  0  0  0  0  0  0  0  0
   69.4347   40.8332   57.9544 C   0  0  0  0  0  0  0  0  0  0  0  0
   68.3541   40.1589   57.3956 C   0  0  0  0  0  0  0  0  0  0  0  0
   68.1254   38.8634   57.7102 F   0  0  0  0  0  0  0  0  0  0  0  0
   67.5195   40.8283   56.5181 C   0  0  0  0  0  0  0  0  0  0  0  0
   67.7642   42.1431   56.2092 C   0  0  0  0  0  0  0  0  0  0  0  0
   66.9506   42.8009   55.3509 F   0  0  0  0  0  0  0  0  0  0  0  0
   68.8475   42.7841   56.7817 C   0  0  0  0  0  0  0  0  0  0  0  0
 18 17  1  6
 18 19  1  0
 18  1  1  0
 19 20  1  0
 20 21  2  0
 20 22  1  0
 22 23  1  1
 22 24  1  0
 24 25  2  0
 24 31  1  0
 25 26  1  0
 26 27  1  0
 26 28  2  0
 28 29  1  0
 29 30  1  0
 29 31  2  0
  1  2  2  0
  1  3  1  0
  4  3  1  6
  4  5  1  0
  4 16  1  0
  5  6  2  0
  5  7  1  0
  7  8  1  0
  7  9  1  0
  9 10  2  0
 10 11  1  0
 11 12  1  0
 11 16  2  0
 12 13  2  0
 13 14  1  0
 14 15  2  0
 15 16  1  0
M  END
>  <minimizedAffinity>  (785) 
-8.66895

$$$$
data/reference_output_2/data/smiles/159738.pdb
     RDKit          3D

 25 28  0  0  0  0  0  0  0  0999 V2000
   68.1009   43.5831   55.8224 C   0  0  0  0  0  0  0  0  0  0  0  0
   67.9173   42.2672   56.0358 N   0  0  0  0  0  0  0  0  0  0  0  0
   68.5782   41.5929   57.0163 C   0  0  0  0  0  0  0  0  0  0  0  0
   69.4761   42.2742   57.8329 C   0  0  0  0  0  0  0  0  0  0  0  0
   69.6528   43.6246   57.6003 C   0  0  0  0  0  0  0  0  0  0  0  0
   68.9722   44.2373   56.6181 N   0  0  0  0  0  0  0  0  0  0  0  0
   70.6228   44.2925   58.4626 C   0  0  0  0  0  0  0  0  0  0  0  0
   70.7735   45.6759   58.2965 C   0  0  0  0  0  0  0  0  0  0  0  0
   71.6278   46.4067   59.1071 C   0  0  0  0  0  0  0  0  0  0  0  0
   72.3423   45.7390   60.0971 C   0  0  0  0  0  0  0  0  0  0  0  0
   72.1810   44.3820   60.2415 C   0  0  0  0  0  0  0  0  0  0  0  0
   71.3188   43.6255   59.4274 C   0  0  0  0  0  0  0  0  0  0  0  0
   71.2299   42.1767   59.6234 C   0  0  0  0  0  0  0  0  0  0  0  0
   70.1524   41.5131   58.8854 C   0  0  0  0  0  0  0  0  0  0  0  0
   67.4492   44.3085   54.7927 N   0  0  0  0  0  0  0  0  0  0  0  0
   69.1924   47.9251   53.3785 C   0  0  0  0  0  0  0  0  0  0  0  0
   68.9868   47.7351   54.7209 C   0  0  0  0  0  0  0  0  0  0  0  0
   68.4089   46.5654   55.1896 C   0  0  0  0  0  0  0  0  0  0  0  0
   68.0153   45.5538   54.3658 C   0  0  0  0  0  0  0  0  0  0  0  0
   68.2204   45.7376   52.9894 C   0  0  0  0  0  0  0  0  0  0  0  0
   68.7929   46.8904   52.5211 C   0  0  0  0  0  0  0  0  0  0  0  0
   71.5579   49.5163   53.3889 N   0  0  0  0  0  0  0  0  0  0  0  0
   69.9478   49.3630   52.7045 S   0  0  0  0  0  0  0  0  0  0  0  0
   70.1269   49.1785   51.2367 O   0  0  0  0  0  0  0  0  0  0  0  0
   69.1975   50.6120   53.0382 O   0  0  0  0  0  0  0  0  0  0  0  0
 22 23  1  0
 23 24  2  0
 23 25  2  0
 23 16  1  0
 16 17  2  0
 16 21  1  0
 17 18  1  0
 18 19  2  0
 19 15  1  0
 19 20  1  0
 15  1  1  0
  1  2  2  0
  1  6  1  0
  2  3  1  0
  3  4  2  0
  4  5  1  0
  4 14  1  0
  5  6  2  0
  5  7  1  0
  7  8  2  0
  7 12  1  0
  8  9  1  0
  9 10  2  0
 10 11  1  0
 11 12  2  0
 12 13  1  0
 13 14  1  0
 20 21  2  0
M  END
>  <minimizedAffinity>  (786) 
-8.70157

$$$$
data/reference_output_2/data/smiles/159783.pdb
     RDKit          3D

 23 24  0  0  0  0  0  0  0  0999 V2000
   69.3039   47.8681   53.3384 C   0  0  0  0  0  0  0  0  0  0  0  0
   69.2696   47.6202   54.6999 C   0  0  0  0  0  0  0  0  0  0  0  0
   69.8988   48.5203   55.5200 F   0  0  0  0  0  0  0  0  0  0  0  0
   68.6237   46.5051   55.2073 C   0  0  0  0  0  0  0  0  0  0  0  0
   68.6341   46.3289   56.5684 F   0  0  0  0  0  0  0  0  0  0  0  0
   67.9885   45.5945   54.3922 C   0  0  0  0  0  0  0  0  0  0  0  0
   68.0294   45.8532   53.0200 C   0  0  0  0  0  0  0  0  0  0  0  0
   67.4049   44.9567   52.2214 F   0  0  0  0  0  0  0  0  0  0  0  0
   68.6714   46.9622   52.5172 C   0  0  0  0  0  0  0  0  0  0  0  0
   68.7033   47.2018   51.1875 F   0  0  0  0  0  0  0  0  0  0  0  0
   69.3567   50.7211   53.3289 N   0  0  0  0  0  0  0  0  0  0  0  0
   70.1246   49.2807   52.7082 S   0  0  0  0  0  0  0  0  0  0  0  0
   71.5693   49.3094   53.1004 O   0  0  0  0  0  0  0  0  0  0  0  0
   70.0503   49.3579   51.2186 O   0  0  0  0  0  0  0  0  0  0  0  0
   67.3321   44.4559   54.9369 N   0  0  0  0  0  0  0  0  0  0  0  0
   68.1340   43.6137   55.7457 N   0  0  0  0  0  0  0  0  0  0  0  0
   67.6927   42.4887   56.1829 C   0  0  0  0  0  0  0  0  0  0  0  0
   68.4605   41.5831   57.0118 C   0  0  0  0  0  0  0  0  0  0  0  0
   67.9804   40.3225   57.2963 C   0  0  0  0  0  0  0  0  0  0  0  0
   68.6887   39.4273   58.0873 C   0  0  0  0  0  0  0  0  0  0  0  0
   69.9063   39.7987   58.6082 C   0  0  0  0  0  0  0  0  0  0  0  0
   70.4143   41.0530   58.3426 C   0  0  0  0  0  0  0  0  0  0  0  0
   69.6861   41.9101   57.5563 C   0  0  0  0  0  0  0  0  0  0  0  0
 11 12  1  0
 12 13  2  0
 12 14  2  0
 12  1  1  0
  1  2  2  0
  1  9  1  0
  2  3  1  0
  2  4  1  0
  4  5  1  0
  4  6  2  0
  6 15  1  0
  6  7  1  0
 15 16  1  0
 16 17  2  0
 17 18  1  0
 18 19  2  0
 18 23  1  0
 19 20  1  0
 20 21  2  0
 21 22  1  0
 22 23  2  0
  7  8  1  0
  7  9  2  0
  9 10  1  0
M  END
>  <minimizedAffinity>  (787) 
-9.18803

$$$$
data/reference_output_2/data/smiles/159859.pdb
     RDKit          3D

 30 33  0  0  0  0  0  0  0  0999 V2000
   70.6914   44.2685   57.9906 C   0  0  0  0  0  0  0  0  0  0  0  0
   71.9941   43.8762   58.2505 C   0  0  0  0  0  0  0  0  0  0  0  0
   72.3529   42.5555   58.4081 C   0  0  0  0  0  0  0  0  0  0  0  0
   71.4201   41.5461   58.3127 C   0  0  0  0  0  0  0  0  0  0  0  0
   71.7605   40.2108   58.4683 C   0  0  0  0  0  0  0  0  0  0  0  0
   72.9754   39.8860   58.7082 O   0  0  0  0  0  0  0  0  0  0  0  0
   70.8336   39.2397   58.3718 N   0  0  0  0  0  0  0  0  0  0  0  0
   69.5696   39.6346   58.1178 C   0  0  0  0  0  0  0  0  0  0  0  0
   68.7108   38.7117   58.0305 O   0  0  0  0  0  0  0  0  0  0  0  0
   69.2214   40.9256   57.9645 N   0  0  0  0  0  0  0  0  0  0  0  0
   70.1184   41.9275   58.0534 C   0  0  0  0  0  0  0  0  0  0  0  0
   69.7630   43.2534   57.8964 C   0  0  0  0  0  0  0  0  0  0  0  0
   71.1647   37.8402   58.5321 C   0  0  0  0  0  0  0  0  0  0  0  0
   70.7102   37.1177   59.5985 C   0  0  0  0  0  0  0  0  0  0  0  0
   71.0306   35.7991   59.7320 C   0  0  0  0  0  0  0  0  0  0  0  0
   71.8170   35.1804   58.7935 C   0  0  0  0  0  0  0  0  0  0  0  0
   72.3012   35.8655   57.6991 C   0  0  0  0  0  0  0  0  0  0  0  0
   73.0765   35.2339   56.7872 F   0  0  0  0  0  0  0  0  0  0  0  0
   71.9545   37.1943   57.6021 C   0  0  0  0  0  0  0  0  0  0  0  0
   71.0693   46.5352   58.4304 O   0  0  0  0  0  0  0  0  0  0  0  0
   70.3635   45.6839   57.8325 C   0  0  0  0  0  0  0  0  0  0  0  0
   69.2946   46.1783   57.0454 N   0  0  0  0  0  0  0  0  0  0  0  0
   69.0060   47.6095   56.9196 C   0  0  0  0  0  0  0  0  0  0  0  0
   69.5868   48.0605   55.6041 C   0  0  0  0  0  0  0  0  0  0  0  0
   68.6411   48.0594   54.5345 N   0  0  0  0  0  0  0  0  0  0  0  0
   69.0587   49.0287   53.5414 C   0  0  0  0  0  0  0  0  0  0  0  0
   70.2008   48.5304   52.7001 C   0  0  0  0  0  0  0  0  0  0  0  0
   69.6957   47.4386   51.7976 C   0  0  0  0  0  0  0  0  0  0  0  0
   68.4933   46.8050   52.4351 C   0  0  0  0  0  0  0  0  0  0  0  0
   68.6115   46.7325   53.9457 C   0  0  0  0  0  0  0  0  0  0  0  0
 20 21  2  0
 21 22  1  0
 21  1  1  0
 22 23  1  0
 23 24  1  0
 24 25  1  0
 25 26  1  0
 25 30  1  0
 26 27  1  0
 27 28  1  0
 28 29  1  0
 29 30  1  0
  1  2  2  0
  1 12  1  0
  2  3  1  0
  3  4  2  0
  4  5  1  0
  4 11  1  0
  5  6  2  0
  5  7  1  0
  7 13  1  0
  7  8  1  0
 13 14  2  0
 13 19  1  0
 14 15  1  0
 15 16  2  0
 16 17  1  0
 17 18  1  0
 17 19  2  0
  8  9  2  0
  8 10  1  0
 10 11  1  0
 11 12  2  0
M  CHG  1  25   1
M  END
>  <minimizedAffinity>  (788) 
-8.73345

$$$$
data/reference_output_2/data/smiles/159893.pdb
     RDKit          3D

 27 30  0  0  0  0  0  0  0  0999 V2000
   70.5772   51.4353   53.1646 O   0  0  0  0  0  0  0  0  0  0  0  0
   70.8250   50.9608   54.2953 C   0  0  0  0  0  0  0  0  0  0  0  0
   71.8276   51.4884   55.1502 N   0  0  0  0  0  0  0  0  0  0  0  0
   72.5985   52.6129   54.7146 C   0  0  0  0  0  0  0  0  0  0  0  0
   74.0676   52.4496   54.9355 C   0  0  0  0  0  0  0  0  0  0  0  0
   74.4288   51.5855   56.0126 N   0  0  0  0  0  0  0  0  0  0  0  0
   73.4204   51.4292   57.0056 C   0  0  0  0  0  0  0  0  0  0  0  0
   72.1034   50.9323   56.4508 C   0  0  0  0  0  0  0  0  0  0  0  0
   70.0528   49.8037   54.7766 C   0  0  0  0  0  0  0  0  0  0  0  0
   69.6204   49.6965   56.0759 C   0  0  0  0  0  0  0  0  0  0  0  0
   68.8989   48.5858   56.4724 C   0  0  0  0  0  0  0  0  0  0  0  0
   68.5906   47.5652   55.5994 C   0  0  0  0  0  0  0  0  0  0  0  0
   69.0164   47.6553   54.2888 C   0  0  0  0  0  0  0  0  0  0  0  0
   68.7210   46.6512   53.4029 C   0  0  0  0  0  0  0  0  0  0  0  0
   69.1536   46.7609   52.1057 C   0  0  0  0  0  0  0  0  0  0  0  0
   69.8821   47.8723   51.6877 C   0  0  0  0  0  0  0  0  0  0  0  0
   70.1755   48.8789   52.5856 C   0  0  0  0  0  0  0  0  0  0  0  0
   69.7478   48.7853   53.8972 C   0  0  0  0  0  0  0  0  0  0  0  0
   75.1427   50.1132   55.5410 S   0  0  0  0  0  0  0  0  0  0  0  0
   74.7840   49.8459   54.1017 O   0  0  0  0  0  0  0  0  0  0  0  0
   74.5466   49.0052   56.3601 O   0  0  0  0  0  0  0  0  0  0  0  0
   76.8590   50.0858   55.7274 C   0  0  0  0  0  0  0  0  0  0  0  0
   77.5775   50.9870   56.4681 C   0  0  0  0  0  0  0  0  0  0  0  0
   78.9500   50.8751   56.5533 C   0  0  0  0  0  0  0  0  0  0  0  0
   79.6652   49.8865   55.9240 C   0  0  0  0  0  0  0  0  0  0  0  0
   78.9381   48.9706   55.1722 C   0  0  0  0  0  0  0  0  0  0  0  0
   77.5722   49.0766   55.0832 C   0  0  0  0  0  0  0  0  0  0  0  0
  1  2  2  0
  2  9  1  0
  2  3  1  0
  9 10  2  0
  9 18  1  0
 10 11  1  0
 11 12  2  0
 12 13  1  0
 13 14  1  0
 13 18  2  0
 14 15  2  0
 15 16  1  0
 16 17  2  0
 17 18  1  0
  3  4  1  0
  3  8  1  0
  4  5  1  0
  5  6  1  0
  6 19  1  0
  6  7  1  0
 19 20  2  0
 19 21  2  0
 19 22  1  0
 22 23  2  0
 22 27  1  0
 23 24  1  0
 24 25  2  0
 25 26  1  0
 26 27  2  0
  7  8  1  0
M  END
>  <minimizedAffinity>  (789) 
-8.52580

$$$$
data/reference_output_2/data/smiles/160015.pdb
     RDKit          3D

 28 30  0  0  0  0  0  0  0  0999 V2000
   68.4243   46.7608   53.9402 C   0  0  0  0  0  0  0  0  0  0  0  0
   68.5447   46.4489   52.6012 C   0  0  0  0  0  0  0  0  0  0  0  0
   69.3490   47.1722   51.7425 C   0  0  0  0  0  0  0  0  0  0  0  0
   70.0496   48.2416   52.2616 C   0  0  0  0  0  0  0  0  0  0  0  0
   69.9745   48.6097   53.5991 C   0  0  0  0  0  0  0  0  0  0  0  0
   69.1515   47.8411   54.3953 C   0  0  0  0  0  0  0  0  0  0  0  0
   70.7312   49.7502   54.1200 C   0  0  0  0  0  0  0  0  0  0  0  0
   71.9042   49.8877   53.6360 O   0  0  0  0  0  0  0  0  0  0  0  0
   70.2085   50.6350   55.0847 N   0  0  0  0  0  0  0  0  0  0  0  0
   70.8575   51.7830   55.6666 C   0  0  0  0  0  0  0  0  0  0  0  0
   69.7567   52.5999   56.3326 C   0  0  1  0  0  0  0  0  0  0  0  0
   69.9051   53.9543   56.0894 O   0  0  0  0  0  0  0  0  0  0  0  0
   68.5117   52.0401   55.6422 C   0  0  1  0  0  0  0  0  0  0  0  0
   68.5490   52.5152   54.3450 F   0  0  0  0  0  0  0  0  0  0  0  0
   68.8986   50.5523   55.6809 C   0  0  0  0  0  0  0  0  0  0  0  0
   67.6061   46.0086   54.7732 O   0  0  0  0  0  0  0  0  0  0  0  0
   70.0154   44.7680   57.2825 C   0  0  0  0  0  0  0  0  0  0  0  0
   69.3483   45.5766   56.4093 C   0  0  0  0  0  0  0  0  0  0  0  0
   68.2733   45.1452   55.6663 C   0  0  0  0  0  0  0  0  0  0  0  0
   67.8930   43.8659   55.8355 N   0  0  0  0  0  0  0  0  0  0  0  0
   68.5134   43.0326   56.6778 C   0  0  0  0  0  0  0  0  0  0  0  0
   69.5851   43.4581   57.4207 C   0  0  0  0  0  0  0  0  0  0  0  0
   68.0340   41.6411   56.8045 C   0  0  0  0  0  0  0  0  0  0  0  0
   69.0427   40.8552   57.3593 F   0  0  0  0  0  0  0  0  0  0  0  0
   67.7457   41.1166   55.5456 F   0  0  0  0  0  0  0  0  0  0  0  0
   66.9133   41.6496   57.6121 F   0  0  0  0  0  0  0  0  0  0  0  0
   70.8827   45.3536   59.4781 N   0  0  0  0  0  0  0  0  0  0  0  0
   71.1741   45.1869   58.0960 C   0  0  0  0  0  0  0  0  0  0  0  0
 27 28  1  0
 28 17  1  0
 17 18  2  0
 17 22  1  0
 18 19  1  0
 19 16  1  0
 19 20  2  0
 16  1  1  0
  1  2  2  0
  1  6  1  0
  2  3  1  0
  3  4  2  0
  4  5  1  0
  5  7  1  0
  5  6  2  0
  7  8  2  0
  7  9  1  0
  9 10  1  0
  9 15  1  0
 10 11  1  0
 11 12  1  6
 11 13  1  0
 13 14  1  6
 13 15  1  0
 20 21  1  0
 21 23  1  0
 21 22  2  0
 23 24  1  0
 23 25  1  0
 23 26  1  0
M  CHG  1  27   1
M  END
>  <minimizedAffinity>  (790) 
-8.97535

$$$$
data/reference_output_2/data/smiles/160042.pdb
     RDKit          3D

 25 26  0  0  0  0  0  0  0  0999 V2000
   69.9811   43.1592   57.1706 O   0  0  0  0  0  0  0  0  0  0  0  0
   68.8061   42.7784   56.9399 C   0  0  0  0  0  0  0  0  0  0  0  0
   67.9978   43.7165   56.2290 N   0  0  0  0  0  0  0  0  0  0  0  0
   68.4349   44.9686   55.8026 N   0  0  0  0  0  0  0  0  0  0  0  0
   68.1948   45.4952   54.5044 C   0  0  0  0  0  0  0  0  0  0  0  0
   67.5326   44.7223   53.7345 O   0  0  0  0  0  0  0  0  0  0  0  0
   68.6458   46.7961   54.0521 C   0  0  0  0  0  0  0  0  0  0  0  0
   68.7365   47.8141   54.9692 C   0  0  0  0  0  0  0  0  0  0  0  0
   69.1656   49.0933   54.5968 C   0  0  0  0  0  0  0  0  0  0  0  0
   69.5000   49.3185   53.2706 C   0  0  0  0  0  0  0  0  0  0  0  0
   69.9203   50.5551   52.8788 F   0  0  0  0  0  0  0  0  0  0  0  0
   69.4158   48.3062   52.3270 C   0  0  0  0  0  0  0  0  0  0  0  0
   68.9818   47.0465   52.7521 C   0  0  0  0  0  0  0  0  0  0  0  0
   68.3360   41.4700   57.3806 C   0  0  0  0  0  0  0  0  0  0  0  0
   69.0227   40.9536   58.5915 C   0  0  0  0  0  0  0  0  0  0  0  0
   69.6120   39.6630   58.5722 N   0  0  0  0  0  0  0  0  0  0  0  0
   70.9119   39.1884   58.5238 C   0  0  0  0  0  0  0  0  0  0  0  0
   71.8527   39.9954   58.4851 O   0  0  0  0  0  0  0  0  0  0  0  0
   71.2808   37.7542   58.5145 C   0  0  0  0  0  0  0  0  0  0  0  0
   70.7540   36.9037   59.4635 C   0  0  0  0  0  0  0  0  0  0  0  0
   71.0714   35.5479   59.4951 C   0  0  0  0  0  0  0  0  0  0  0  0
   71.9341   35.0087   58.5648 C   0  0  0  0  0  0  0  0  0  0  0  0
   72.3442   33.2958   58.5929 Cl  0  0  0  0  0  0  0  0  0  0  0  0
   72.4637   35.8490   57.6154 C   0  0  0  0  0  0  0  0  0  0  0  0
   72.1348   37.2145   57.5958 C   0  0  0  0  0  0  0  0  0  0  0  0
  1  2  2  0
  2 14  1  0
  2  3  1  0
 14 15  1  0
 15 16  1  0
 16 17  1  0
 17 18  2  0
 17 19  1  0
 19 20  2  0
 19 25  1  0
 20 21  1  0
 21 22  2  0
 22 23  1  0
 22 24  1  0
 24 25  2  0
  3  4  1  0
  4  5  1  0
  5  6  2  0
  5  7  1  0
  7  8  2  0
  7 13  1  0
  8  9  1  0
  9 10  2  0
 10 11  1  0
 10 12  1  0
 12 13  2  0
M  END
>  <minimizedAffinity>  (791) 
-8.72554

$$$$
data/reference_output_2/data/smiles/160226.pdb
     RDKit          3D

 27 30  0  0  0  0  0  0  0  0999 V2000
   73.8145   50.8979   55.4717 C   0  0  0  0  0  0  0  0  0  0  0  0
   72.4828   50.5663   55.4843 C   0  0  0  0  0  0  0  0  0  0  0  0
   71.4803   51.3674   54.9348 C   0  0  0  0  0  0  0  0  0  0  0  0
   71.8887   52.5370   54.3607 C   0  0  0  0  0  0  0  0  0  0  0  0
   73.2471   52.8803   54.3466 C   0  0  0  0  0  0  0  0  0  0  0  0
   74.1418   52.0632   54.8915 N   0  0  0  0  0  0  0  0  0  0  0  0
   74.4237   48.9574   56.6178 O   0  0  0  0  0  0  0  0  0  0  0  0
   74.8101   50.0088   56.0550 C   0  0  0  0  0  0  0  0  0  0  0  0
   76.1896   50.2475   56.0303 N   0  0  0  0  0  0  0  0  0  0  0  0
   77.2201   49.3935   56.5856 C   0  0  0  0  0  0  0  0  0  0  0  0
   77.6878   49.7850   57.9398 C   0  0  0  0  0  0  0  0  0  0  0  0
   78.7705   50.8148   57.9800 C   0  0  0  0  0  0  0  0  0  0  0  0
   79.3872   51.1039   56.6489 C   0  0  0  0  0  0  0  0  0  0  0  0
   79.6181   49.8038   55.9562 C   0  0  0  0  0  0  0  0  0  0  0  0
   78.2828   49.2270   55.5596 C   0  0  0  0  0  0  0  0  0  0  0  0
   70.0946   50.8719   54.9856 C   0  0  0  0  0  0  0  0  0  0  0  0
   69.8728   49.7939   54.0045 C   0  0  0  0  0  0  0  0  0  0  0  0
   70.4016   50.0129   52.7605 N   0  0  0  0  0  0  0  0  0  0  0  0
   70.3501   49.1571   51.7822 N   0  0  0  0  0  0  0  0  0  0  0  0
   69.7584   47.9786   51.9483 C   0  0  0  0  0  0  0  0  0  0  0  0
   69.7059   47.1513   51.0127 O   0  0  0  0  0  0  0  0  0  0  0  0
   69.1908   47.6546   53.1629 C   0  0  0  0  0  0  0  0  0  0  0  0
   69.2620   48.5986   54.1972 C   0  0  0  0  0  0  0  0  0  0  0  0
   68.6215   48.2916   55.4896 C   0  0  0  0  0  0  0  0  0  0  0  0
   68.7653   46.8215   55.8258 C   0  0  0  0  0  0  0  0  0  0  0  0
   68.2562   45.9413   54.7268 C   0  0  0  0  0  0  0  0  0  0  0  0
   68.5336   46.3552   53.3397 C   0  0  0  0  0  0  0  0  0  0  0  0
  7  8  2  0
  8  9  1  0
  8  1  1  0
  9 10  1  0
 10 11  1  0
 10 15  1  0
 11 12  1  0
 12 13  1  0
 13 14  1  0
 14 15  1  0
  1  2  2  0
  1  6  1  0
  2  3  1  0
  3 16  1  0
  3  4  2  0
 16 17  1  0
 17 18  2  0
 17 23  1  0
 18 19  1  0
 19 20  1  0
 20 21  2  0
 20 22  1  0
 22 23  2  0
 22 27  1  0
 23 24  1  0
 24 25  1  0
 25 26  1  0
 26 27  1  0
  4  5  1  0
  5  6  2  0
M  END
>  <minimizedAffinity>  (792) 
-9.23397

$$$$
data/reference_output_2/data/smiles/160297.pdb
     RDKit          3D

 29 31  0  0  0  0  0  0  0  0999 V2000
   69.6613   49.0686   53.4643 C   0  0  0  0  0  0  0  0  0  0  0  0
   69.5527   49.1592   52.0519 C   0  0  0  0  0  0  0  0  0  0  0  0
   69.9604   50.1846   51.4615 O   0  0  0  0  0  0  0  0  0  0  0  0
   69.0347   48.1952   51.3492 O   0  0  0  0  0  0  0  0  0  0  0  0
   68.5901   47.1031   51.8918 C   0  0  0  0  0  0  0  0  0  0  0  0
   68.0582   46.1324   51.0525 O   0  0  0  0  0  0  0  0  0  0  0  0
   68.6438   46.9111   53.2545 C   0  0  0  0  0  0  0  0  0  0  0  0
   68.1586   45.7541   53.7841 C   0  0  0  0  0  0  0  0  0  0  0  0
   68.1999   45.5669   55.1446 C   0  0  0  0  0  0  0  0  0  0  0  0
   68.7246   46.5502   55.9262 C   0  0  0  0  0  0  0  0  0  0  0  0
   69.2362   47.7642   55.4193 C   0  0  0  0  0  0  0  0  0  0  0  0
   69.1994   47.9393   54.0681 C   0  0  0  0  0  0  0  0  0  0  0  0
   69.6187   48.7662   56.3811 C   0  0  0  0  0  0  0  0  0  0  0  0
   68.6783   49.7543   56.6956 C   0  0  0  0  0  0  0  0  0  0  0  0
   68.9754   50.8146   57.5063 C   0  0  0  0  0  0  0  0  0  0  0  0
   70.2462   50.9123   58.0304 C   0  0  0  0  0  0  0  0  0  0  0  0
   71.2114   49.9688   57.7539 C   0  0  0  0  0  0  0  0  0  0  0  0
   70.8710   48.8974   56.9209 C   0  0  0  0  0  0  0  0  0  0  0  0
   72.5652   50.1230   58.3453 C   0  0  0  0  0  0  0  0  0  0  0  0
   72.9434   51.4566   58.3322 F   0  0  0  0  0  0  0  0  0  0  0  0
   72.6117   49.5791   59.6121 F   0  0  0  0  0  0  0  0  0  0  0  0
   73.4595   49.3794   57.5699 F   0  0  0  0  0  0  0  0  0  0  0  0
   71.7591   50.2194   54.1729 N   0  0  0  0  0  0  0  0  0  0  0  0
   70.3158   50.1705   54.1059 C   0  0  0  0  0  0  0  0  0  0  0  0
   69.6994   51.1090   54.6264 O   0  0  0  0  0  0  0  0  0  0  0  0
   72.4664   51.2908   54.8070 C   0  0  0  0  0  0  0  0  0  0  0  0
   74.4017   50.0922   53.9892 O   0  0  0  0  0  0  0  0  0  0  0  0
   73.9226   51.0061   54.7263 C   0  0  0  0  0  0  0  0  0  0  0  0
   74.8378   51.7389   55.4664 O   0  0  0  0  0  0  0  0  0  0  0  0
 27 28  2  0
 28 29  1  0
 28 26  1  0
 26 23  1  0
 23 24  1  0
 24 25  2  0
 24  1  1  0
  1  2  1  0
  1 12  2  0
  2  3  2  0
  2  4  1  0
  4  5  1  0
  5  6  1  0
  5  7  2  0
  7  8  1  0
  7 12  1  0
  8  9  2  0
  9 10  1  0
 10 11  2  0
 11 13  1  0
 11 12  1  0
 13 14  2  0
 13 18  1  0
 14 15  1  0
 15 16  2  0
 16 17  1  0
 17 19  1  0
 17 18  2  0
 19 20  1  0
 19 21  1  0
 19 22  1  0
M  END
>  <minimizedAffinity>  (793) 
-8.89594

$$$$
data/reference_output_2/data/smiles/160410.pdb
     RDKit          3D

 23 24  0  0  0  0  0  0  0  0999 V2000
   67.3169   42.1986   56.5907 C   0  0  0  0  0  0  0  0  0  0  0  0
   66.9832   41.6128   55.5282 O   0  0  0  0  0  0  0  0  0  0  0  0
   67.8412   43.5145   56.4753 N   0  0  0  0  0  0  0  0  0  0  0  0
   67.9649   44.0994   55.2119 N   0  0  0  0  0  0  0  0  0  0  0  0
   68.1750   45.4849   55.0033 C   0  0  0  0  0  0  0  0  0  0  0  0
   68.2465   46.1856   56.0660 O   0  0  0  0  0  0  0  0  0  0  0  0
   68.3042   46.1030   53.6939 C   0  0  0  0  0  0  0  0  0  0  0  0
   69.1286   47.1708   53.4294 C   0  0  0  0  0  0  0  0  0  0  0  0
   69.2499   47.7566   52.1854 C   0  0  0  0  0  0  0  0  0  0  0  0
   68.5112   47.2405   51.1856 N   0  0  0  0  0  0  0  0  0  0  0  0
   67.6907   46.1951   51.3970 C   0  0  0  0  0  0  0  0  0  0  0  0
   67.5637   45.6015   52.6446 C   0  0  0  0  0  0  0  0  0  0  0  0
   67.1653   41.5272   57.9312 C   0  0  0  0  0  0  0  0  0  0  0  0
   68.3826   41.5459   58.6225 O   0  0  0  0  0  0  0  0  0  0  0  0
   71.2415   38.4762   58.4555 C   0  0  0  0  0  0  0  0  0  0  0  0
   69.8890   38.2116   58.5167 C   0  0  0  0  0  0  0  0  0  0  0  0
   68.9400   39.2116   58.5725 C   0  0  0  0  0  0  0  0  0  0  0  0
   69.3208   40.5364   58.5673 C   0  0  0  0  0  0  0  0  0  0  0  0
   70.6714   40.8156   58.5061 C   0  0  0  0  0  0  0  0  0  0  0  0
   71.6240   39.8023   58.4510 C   0  0  0  0  0  0  0  0  0  0  0  0
   73.4875   37.7312   59.2000 C   0  0  0  0  0  0  0  0  0  0  0  0
   72.2462   37.3765   58.3960 C   0  0  0  0  0  0  0  0  0  0  0  0
   71.5889   36.1293   58.9385 C   0  0  0  0  0  0  0  0  0  0  0  0
 21 22  1  0
 22 23  1  0
 22 15  1  0
 15 16  2  0
 15 20  1  0
 16 17  1  0
 17 18  2  0
 18 14  1  0
 18 19  1  0
 14 13  1  0
 13  1  1  0
  1  2  2  0
  1  3  1  0
  3  4  1  0
  4  5  1  0
  5  6  2  0
  5  7  1  0
  7  8  2  0
  7 12  1  0
  8  9  1  0
  9 10  2  0
 10 11  1  0
 11 12  2  0
 19 20  2  0
M  END
>  <minimizedAffinity>  (794) 
-8.69309

$$$$
data/reference_output_2/data/smiles/160490.pdb
     RDKit          3D

 26 28  0  0  0  0  0  0  0  0999 V2000
   73.8416   35.1934   56.2097 N   0  0  0  0  0  0  0  0  0  0  0  0
   73.3893   34.9275   54.9735 C   0  0  0  0  0  0  0  0  0  0  0  0
   74.2394   34.5940   53.9241 C   0  0  0  0  0  0  0  0  0  0  0  0
   75.5645   34.5200   54.1031 N   0  0  0  0  0  0  0  0  0  0  0  0
   76.0346   34.7880   55.3559 C   0  0  0  0  0  0  0  0  0  0  0  0
   77.2910   34.7255   55.5498 O   0  0  0  0  0  0  0  0  0  0  0  0
   75.1736   35.1171   56.3795 C   0  0  0  0  0  0  0  0  0  0  0  0
   75.6241   35.3654   57.5436 O   0  0  0  0  0  0  0  0  0  0  0  0
   71.1440   33.8768   60.1592 C   0  0  0  0  0  0  0  0  0  0  0  0
   71.6109   34.8831   59.1692 C   0  0  0  0  0  0  0  0  0  0  0  0
   71.1249   36.1850   59.2740 C   0  0  0  0  0  0  0  0  0  0  0  0
   71.5299   37.1394   58.3816 C   0  0  0  0  0  0  0  0  0  0  0  0
   71.0153   38.5297   58.4889 C   0  0  0  0  0  0  0  0  0  0  0  0
   72.4306   36.8094   57.3668 C   0  0  0  0  0  0  0  0  0  0  0  0
   72.9261   35.5283   57.2423 C   0  0  0  0  0  0  0  0  0  0  0  0
   72.4905   34.5993   58.1626 C   0  0  0  0  0  0  0  0  0  0  0  0
   76.4736   34.1768   53.0276 C   0  0  0  0  0  0  0  0  0  0  0  0
   76.7042   35.2915   52.0746 C   0  0  0  0  0  0  0  0  0  0  0  0
   76.7747   36.4549   52.5574 O   0  0  0  0  0  0  0  0  0  0  0  0
   76.8535   35.1408   50.6400 C   0  0  0  0  0  0  0  0  0  0  0  0
   77.8147   35.8884   49.9980 C   0  0  0  0  0  0  0  0  0  0  0  0
   78.0171   35.8087   48.6366 C   0  0  0  0  0  0  0  0  0  0  0  0
   77.2477   34.9655   47.8750 C   0  0  0  0  0  0  0  0  0  0  0  0
   77.4202   34.8608   46.5221 F   0  0  0  0  0  0  0  0  0  0  0  0
   76.2897   34.2229   48.5294 C   0  0  0  0  0  0  0  0  0  0  0  0
   76.0786   34.2928   49.8854 C   0  0  0  0  0  0  0  0  0  0  0  0
  9 10  1  0
 10 11  2  0
 10 16  1  0
 11 12  1  0
 12 13  1  0
 12 14  2  0
 14 15  1  0
 15  1  1  0
 15 16  2  0
  1  2  1  0
  1  7  1  0
  2  3  2  0
  3  4  1  0
  4 17  1  0
  4  5  1  0
 17 18  1  0
 18 19  2  0
 18 20  1  0
 20 21  2  0
 20 26  1  0
 21 22  1  0
 22 23  2  0
 23 24  1  0
 23 25  1  0
 25 26  2  0
  5  6  2  0
  5  7  1  0
  7  8  2  0
M  END
>  <minimizedAffinity>  (795) 
-8.83341

$$$$
data/reference_output_2/data/smiles/160530.pdb
     RDKit          3D

 26 28  0  0  0  0  0  0  0  0999 V2000
   68.8659   42.6187   57.1729 C   0  0  0  0  0  0  0  0  0  0  0  0
   69.0516   43.8542   56.6850 N   0  0  0  0  0  0  0  0  0  0  0  0
   68.2718   44.3709   55.6915 C   0  0  0  0  0  0  0  0  0  0  0  0
   67.3004   43.5807   55.2180 N   0  0  0  0  0  0  0  0  0  0  0  0
   67.0769   42.3204   55.6848 C   0  0  0  0  0  0  0  0  0  0  0  0
   66.1450   41.6221   55.1985 O   0  0  0  0  0  0  0  0  0  0  0  0
   67.8673   41.8069   56.6862 C   0  0  0  0  0  0  0  0  0  0  0  0
   67.7032   40.5330   57.2128 O   0  0  0  0  0  0  0  0  0  0  0  0
   68.5070   45.7180   55.1936 C   0  0  0  0  0  0  0  0  0  0  0  0
   68.2763   45.9736   53.8408 C   0  0  0  0  0  0  0  0  0  0  0  0
   68.4817   47.2244   53.3085 C   0  0  0  0  0  0  0  0  0  0  0  0
   68.9226   48.2639   54.0948 C   0  0  0  0  0  0  0  0  0  0  0  0
   69.1415   49.5211   53.6177 F   0  0  0  0  0  0  0  0  0  0  0  0
   69.1617   48.0460   55.4423 C   0  0  0  0  0  0  0  0  0  0  0  0
   68.9435   46.7751   55.9417 C   0  0  0  0  0  0  0  0  0  0  0  0
   69.5493   42.4421   59.4365 O   0  0  0  0  0  0  0  0  0  0  0  0
   69.7237   42.0816   58.2476 C   0  0  0  0  0  0  0  0  0  0  0  0
   70.7593   41.1506   57.9694 N   0  0  0  0  0  0  0  0  0  0  0  0
   71.6453   40.5751   58.9532 C   0  0  0  0  0  0  0  0  0  0  0  0
   71.4437   39.1117   59.0100 C   0  0  0  0  0  0  0  0  0  0  0  0
   70.6622   38.4601   59.9435 C   0  0  0  0  0  0  0  0  0  0  0  0
   70.4958   37.0874   59.9626 C   0  0  0  0  0  0  0  0  0  0  0  0
   71.1236   36.3008   59.0205 C   0  0  0  0  0  0  0  0  0  0  0  0
   71.9116   36.9104   58.0712 C   0  0  0  0  0  0  0  0  0  0  0  0
   72.5169   36.1080   57.1527 F   0  0  0  0  0  0  0  0  0  0  0  0
   72.0558   38.2621   58.0785 C   0  0  0  0  0  0  0  0  0  0  0  0
 16 17  2  0
 17 18  1  0
 17  1  1  0
 18 19  1  0
 19 20  1  0
 20 21  2  0
 20 26  1  0
 21 22  1  0
 22 23  2  0
 23 24  1  0
 24 25  1  0
 24 26  2  0
  1  2  1  0
  1  7  2  0
  2  3  2  0
  3  9  1  0
  3  4  1  0
  9 10  2  0
  9 15  1  0
 10 11  1  0
 11 12  2  0
 12 13  1  0
 12 14  1  0
 14 15  2  0
  4  5  1  0
  5  6  2  0
  5  7  1  0
  7  8  1  0
M  END
>  <minimizedAffinity>  (796) 
-8.57477

$$$$
data/reference_output_2/data/smiles/160541.pdb
     RDKit          3D

 27 30  0  0  0  0  0  0  0  0999 V2000
   69.5228   40.3374   58.1423 N   0  0  0  0  0  0  0  0  0  0  0  0
   68.3304   40.2100   57.3809 C   0  0  0  0  0  0  0  0  0  0  0  0
   67.7629   39.0634   57.3836 O   0  0  0  0  0  0  0  0  0  0  0  0
   67.6994   41.2788   56.5972 C   0  0  0  0  0  0  0  0  0  0  0  0
   68.3962   42.5421   56.6437 N   0  0  0  0  0  0  0  0  0  0  0  0
   68.0642   43.7005   56.0313 N   0  0  0  0  0  0  0  0  0  0  0  0
   68.9619   44.6457   56.3192 C   0  0  0  0  0  0  0  0  0  0  0  0
   69.8829   44.0469   57.1407 C   0  0  0  0  0  0  0  0  0  0  0  0
   69.5114   42.7083   57.3400 C   0  0  0  0  0  0  0  0  0  0  0  0
   70.1165   41.6270   58.1105 C   0  0  0  0  0  0  0  0  0  0  0  0
   71.1706   41.8101   58.7593 O   0  0  0  0  0  0  0  0  0  0  0  0
   68.9191   46.0179   55.8298 C   0  0  0  0  0  0  0  0  0  0  0  0
   69.2531   47.0933   56.6210 C   0  0  0  0  0  0  0  0  0  0  0  0
   69.2156   48.3952   56.1661 C   0  0  0  0  0  0  0  0  0  0  0  0
   68.8245   48.6439   54.8503 C   0  0  0  0  0  0  0  0  0  0  0  0
   68.4888   47.5694   54.0541 C   0  0  0  0  0  0  0  0  0  0  0  0
   68.5319   46.2520   54.5285 C   0  0  0  0  0  0  0  0  0  0  0  0
   70.0294   39.2035   58.8645 C   0  0  0  0  0  0  0  0  0  0  0  0
   71.4046   38.7841   58.3853 C   0  0  0  0  0  0  0  0  0  0  0  0
   72.5362   35.3202   57.4981 C   0  0  0  0  0  0  0  0  0  0  0  0
   72.0014   34.5542   58.5284 C   0  0  0  0  0  0  0  0  0  0  0  0
   71.2715   35.1925   59.5056 C   0  0  0  0  0  0  0  0  0  0  0  0
   71.0843   36.5647   59.4495 C   0  0  0  0  0  0  0  0  0  0  0  0
   71.6101   37.3325   58.4332 C   0  0  0  0  0  0  0  0  0  0  0  0
   72.3379   36.6831   57.4624 C   0  0  0  0  0  0  0  0  0  0  0  0
   73.3197   35.2228   55.1836 C   0  0  0  0  0  0  0  0  0  0  0  0
   73.2730   34.6927   56.5057 O   0  0  0  0  0  0  0  0  0  0  0  0
 26 27  1  0
 27 20  1  0
 20 21  2  0
 20 25  1  0
 21 22  1  0
 22 23  2  0
 23 24  1  0
 24 19  1  0
 24 25  2  0
 19 18  1  0
 18  1  1  0
  1  2  1  0
  1 10  1  0
  2  3  2  0
  2  4  1  0
  4  5  1  0
  5  6  1  0
  5  9  1  0
  6  7  2  0
  7 12  1  0
  7  8  1  0
 12 13  2  0
 12 17  1  0
 13 14  1  0
 14 15  2  0
 15 16  1  0
 16 17  2  0
  8  9  2  0
  9 10  1  0
 10 11  2  0
M  END
>  <minimizedAffinity>  (797) 
-8.71382

$$$$
data/reference_output_2/data/smiles/160573.pdb
     RDKit          3D

 21 22  0  0  0  0  0  0  0  0999 V2000
   69.5116   44.3629   56.8131 C   0  0  0  0  0  0  0  0  0  0  0  0
   68.4400   44.5459   56.0790 N   0  0  0  0  0  0  0  0  0  0  0  0
   69.3096   40.7542   57.8911 C   0  0  0  0  0  0  0  0  0  0  0  0
   70.5822   40.5928   58.3881 C   0  0  0  0  0  0  0  0  0  0  0  0
   71.4957   41.6368   58.3761 C   0  0  0  0  0  0  0  0  0  0  0  0
   71.1199   42.8781   57.8483 C   0  0  0  0  0  0  0  0  0  0  0  0
   69.8488   43.0517   57.3489 C   0  0  0  0  0  0  0  0  0  0  0  0
   68.9831   42.0061   57.3790 C   0  0  0  0  0  0  0  0  0  0  0  0
   67.7197   39.4032   56.8861 O   0  0  0  0  0  0  0  0  0  0  0  0
   68.3779   39.6474   57.9176 C   0  0  0  0  0  0  0  0  0  0  0  0
   68.1827   38.8536   59.0245 O   0  0  0  0  0  0  0  0  0  0  0  0
   68.0962   45.7538   55.5645 O   0  0  0  0  0  0  0  0  0  0  0  0
   68.2719   46.1615   54.2692 C   0  0  0  0  0  0  0  0  0  0  0  0
   67.5927   45.5106   53.2686 C   0  0  0  0  0  0  0  0  0  0  0  0
   67.7217   45.8684   51.9397 C   0  0  0  0  0  0  0  0  0  0  0  0
   68.5656   46.9123   51.6386 C   0  0  0  0  0  0  0  0  0  0  0  0
   69.2708   47.5985   52.6040 C   0  0  0  0  0  0  0  0  0  0  0  0
   69.1035   47.1978   53.9214 C   0  0  0  0  0  0  0  0  0  0  0  0
   70.1536   48.6987   52.2432 C   0  0  0  0  0  0  0  0  0  0  0  0
   71.0723   49.0784   53.0080 O   0  0  0  0  0  0  0  0  0  0  0  0
   69.9840   49.3406   51.0399 O   0  0  0  0  0  0  0  0  0  0  0  0
  9 10  2  0
 10 11  1  0
 10  3  1  0
  3  4  2  0
  3  8  1  0
  4  5  1  0
  5  6  2  0
  6  7  1  0
  7  1  1  0
  7  8  2  0
  1  2  2  0
  2 12  1  0
 12 13  1  0
 13 14  2  0
 13 18  1  0
 14 15  1  0
 15 16  2  0
 16 17  1  0
 17 19  1  0
 17 18  2  0
 19 20  2  0
 19 21  1  0
M  END
>  <minimizedAffinity>  (798) 
-8.64959

$$$$
data/reference_output_2/data/smiles/160615.pdb
     RDKit          3D

 29 32  0  0  0  0  0  0  0  0999 V2000
   71.1735   45.7291   58.6456 C   0  0  0  0  0  0  0  0  0  0  0  0
   70.2147   46.3113   57.7915 C   0  0  0  0  0  0  0  0  0  0  0  0
   69.9877   47.6472   57.7052 C   0  0  0  0  0  0  0  0  0  0  0  0
   70.7444   48.4985   58.5050 C   0  0  0  0  0  0  0  0  0  0  0  0
   71.6887   47.9790   59.3533 C   0  0  0  0  0  0  0  0  0  0  0  0
   71.8992   46.5920   59.4203 C   0  0  0  0  0  0  0  0  0  0  0  0
   72.8144   46.1182   60.2870 F   0  0  0  0  0  0  0  0  0  0  0  0
   69.3379   43.9061   59.8042 O   0  0  0  0  0  0  0  0  0  0  0  0
   70.3563   43.4262   59.2202 C   0  0  0  0  0  0  0  0  0  0  0  0
   71.2790   44.3099   58.6487 N   0  0  0  0  0  0  0  0  0  0  0  0
   70.5247   41.9290   59.1704 C   0  0  0  0  0  0  0  0  0  0  0  0
   69.7678   41.2713   58.1847 N   0  0  0  0  0  0  0  0  0  0  0  0
   69.3026   39.9633   58.4315 C   0  0  0  0  0  0  0  0  0  0  0  0
   68.0358   39.5630   57.7288 C   0  0  0  0  0  0  0  0  0  0  0  0
   67.9963   40.1220   56.4637 O   0  0  0  0  0  0  0  0  0  0  0  0
   67.8445   41.4944   56.6463 C   0  0  0  0  0  0  0  0  0  0  0  0
   68.9823   42.1299   57.3745 C   0  0  0  0  0  0  0  0  0  0  0  0
   68.9674   48.2464   56.7765 C   0  0  0  0  0  0  0  0  0  0  0  0
   68.6595   47.4115   55.6122 C   0  0  0  0  0  0  0  0  0  0  0  0
   67.9761   46.2323   55.7820 N   0  0  0  0  0  0  0  0  0  0  0  0
   67.6590   45.4332   54.7905 N   0  0  0  0  0  0  0  0  0  0  0  0
   68.0240   45.7919   53.5562 C   0  0  0  0  0  0  0  0  0  0  0  0
   67.7342   45.0427   52.5719 O   0  0  0  0  0  0  0  0  0  0  0  0
   68.7267   46.9815   53.2895 C   0  0  0  0  0  0  0  0  0  0  0  0
   69.0503   47.8082   54.3410 C   0  0  0  0  0  0  0  0  0  0  0  0
   69.7913   49.0795   54.1537 C   0  0  0  0  0  0  0  0  0  0  0  0
   70.5789   48.9353   52.8419 C   0  0  0  0  0  0  0  0  0  0  0  0
   69.4909   48.7272   51.7789 C   0  0  0  0  0  0  0  0  0  0  0  0
   69.0933   47.2861   51.8844 C   0  0  0  0  0  0  0  0  0  0  0  0
  8  9  2  0
  9 11  1  0
  9 10  1  0
 11 12  1  0
 12 13  1  0
 12 17  1  0
 13 14  1  0
 14 15  1  0
 15 16  1  0
 16 17  1  0
 10  1  1  0
  1  2  2  0
  1  6  1  0
  2  3  1  0
  3 18  1  0
  3  4  2  0
 18 19  1  0
 19 20  2  0
 19 25  1  0
 20 21  1  0
 21 22  1  0
 22 23  2  0
 22 24  1  0
 24 25  2  0
 24 29  1  0
 25 26  1  0
 26 27  1  0
 27 28  1  0
 28 29  1  0
  4  5  1  0
  5  6  2  0
  6  7  1  0
M  CHG  1  12   1
M  END
>  <minimizedAffinity>  (799) 
-9.20063

$$$$
data/reference_output_2/data/smiles/160623.pdb
     RDKit          3D

 29 30  0  0  0  0  0  0  0  0999 V2000
   70.6121   51.2113   55.7112 C   0  0  2  0  0  0  0  0  0  0  0  0
   68.8248   52.0078   57.1196 C   0  0  0  0  0  0  0  0  0  0  0  0
   69.7609   52.4045   55.9461 C   0  0  0  0  0  0  0  0  0  0  0  0
   68.8224   52.6418   54.8199 C   0  0  0  0  0  0  0  0  0  0  0  0
   70.4488   53.6421   56.4510 C   0  0  0  0  0  0  0  0  0  0  0  0
   69.8476   50.0997   55.1154 N   0  0  0  0  0  0  0  0  0  0  0  0
   70.3051   49.3362   54.0206 C   0  0  0  0  0  0  0  0  0  0  0  0
   71.4209   49.6415   53.5529 O   0  0  0  0  0  0  0  0  0  0  0  0
   69.5647   48.2375   53.4206 C   0  0  0  0  0  0  0  0  0  0  0  0
   69.6170   47.8941   52.0912 C   0  0  0  0  0  0  0  0  0  0  0  0
   68.8842   46.8356   51.5818 C   0  0  0  0  0  0  0  0  0  0  0  0
   68.0750   46.0938   52.4094 C   0  0  0  0  0  0  0  0  0  0  0  0
   67.1237   44.7422   51.8276 Cl  0  0  0  0  0  0  0  0  0  0  0  0
   67.9985   46.4048   53.7310 C   0  0  0  0  0  0  0  0  0  0  0  0
   68.7334   47.4571   54.2112 C   0  0  0  0  0  0  0  0  0  0  0  0
   71.5318   50.7989   56.6844 N   0  0  0  0  0  0  0  0  0  0  0  0
   72.9573   50.9405   56.6338 C   0  0  0  0  0  0  0  0  0  0  0  0
   73.6466   49.9295   56.4915 N   0  0  0  0  0  0  0  0  0  0  0  0
   74.9609   49.6540   56.4167 C   0  0  0  0  0  0  0  0  0  0  0  0
   75.7808   49.3141   57.4300 C   0  0  0  0  0  0  0  0  0  0  0  0
   77.1497   49.0782   57.2545 C   0  0  0  0  0  0  0  0  0  0  0  0
   77.6850   49.1953   55.9908 C   0  0  0  0  0  0  0  0  0  0  0  0
   76.8951   49.5272   54.9815 N   0  0  0  0  0  0  0  0  0  0  0  0
   75.5892   49.7477   55.1853 C   0  0  0  0  0  0  0  0  0  0  0  0
   73.5944   52.1938   56.5545 N   0  0  0  0  0  0  0  0  0  0  0  0
   73.8327   53.0192   55.1349 S   0  0  0  0  0  0  0  0  0  0  0  0
   73.5610   52.1987   53.6513 N   0  0  0  0  0  0  0  0  0  0  0  0
   73.6737   54.5057   55.0959 O   0  0  0  0  0  0  0  0  0  0  0  0
   75.4049   53.0342   55.0596 O   0  0  0  0  0  0  0  0  0  0  0  0
  2  3  1  0
  3  4  1  0
  3  5  1  0
  3  1  1  0
  1  6  1  1
  1 16  1  0
  6  7  1  0
  7  8  2  0
  7  9  1  0
  9 10  2  0
  9 15  1  0
 10 11  1  0
 11 12  2  0
 12 13  1  0
 12 14  1  0
 14 15  2  0
 16 17  1  0
 17 18  2  0
 17 25  1  0
 18 19  1  0
 19 20  2  0
 19 24  1  0
 20 21  1  0
 21 22  2  0
 22 23  1  0
 23 24  2  0
 25 26  1  0
 26 27  1  0
 26 28  2  0
 26 29  2  0
M  CHG  1  18   1
M  END
>  <minimizedAffinity>  (800) 
-8.84710

$$$$
data/reference_output_2/data/smiles/160636.pdb
     RDKit          3D

 25 28  0  0  0  0  0  0  0  0999 V2000
   76.4089   35.4597   52.6112 C   0  0  0  0  0  0  0  0  0  0  0  0
   76.5103   35.0717   53.8941 N   0  0  0  0  0  0  0  0  0  0  0  0
   75.2643   34.9971   54.4420 C   0  0  0  0  0  0  0  0  0  0  0  0
   74.8139   34.6655   55.6655 N   0  0  0  0  0  0  0  0  0  0  0  0
   73.5067   34.6646   55.9810 C   0  0  0  0  0  0  0  0  0  0  0  0
   72.5836   35.0136   55.0221 C   0  0  0  0  0  0  0  0  0  0  0  0
   73.0704   35.3481   53.7782 C   0  0  0  0  0  0  0  0  0  0  0  0
   72.2371   35.6689   52.8950 O   0  0  0  0  0  0  0  0  0  0  0  0
   74.3837   35.3436   53.4816 N   0  0  0  0  0  0  0  0  0  0  0  0
   75.0929   35.6187   52.3866 N   0  0  0  0  0  0  0  0  0  0  0  0
   77.5384   35.6642   51.6519 C   0  0  0  0  0  0  0  0  0  0  0  0
   76.3353   33.7651   46.3983 C   0  0  0  0  0  0  0  0  0  0  0  0
   76.6253   34.2348   47.7688 C   0  0  0  0  0  0  0  0  0  0  0  0
   77.5317   35.2710   47.9459 C   0  0  0  0  0  0  0  0  0  0  0  0
   77.8163   35.7224   49.2160 C   0  0  0  0  0  0  0  0  0  0  0  0
   77.2079   35.1535   50.3154 C   0  0  0  0  0  0  0  0  0  0  0  0
   76.3010   34.1199   50.1745 C   0  0  0  0  0  0  0  0  0  0  0  0
   76.0219   33.6739   48.8993 C   0  0  0  0  0  0  0  0  0  0  0  0
   73.0456   34.2877   57.3615 C   0  0  0  0  0  0  0  0  0  0  0  0
   72.3326   35.4586   57.9730 C   0  0  0  0  0  0  0  0  0  0  0  0
   71.4503   35.2818   59.0177 C   0  0  0  0  0  0  0  0  0  0  0  0
   70.7853   36.3375   59.5934 C   0  0  0  0  0  0  0  0  0  0  0  0
   70.9841   37.6194   59.1385 C   0  0  0  0  0  0  0  0  0  0  0  0
   71.8697   37.7883   58.0931 C   0  0  0  0  0  0  0  0  0  0  0  0
   72.5389   36.7381   57.5122 C   0  0  0  0  0  0  0  0  0  0  0  0
 12 13  1  0
 13 14  2  0
 13 18  1  0
 14 15  1  0
 15 16  2  0
 16 11  1  0
 16 17  1  0
 11  1  1  0
  1  2  1  0
  1 10  2  0
  2  3  2  0
  3  4  1  0
  3  9  1  0
  4  5  1  0
  5 19  1  0
  5  6  2  0
 19 20  1  0
 20 21  2  0
 20 25  1  0
 21 22  1  0
 22 23  2  0
 23 24  1  0
 24 25  2  0
  6  7  1  0
  7  8  2  0
  7  9  1  0
  9 10  1  0
 17 18  2  0
M  END
>  <minimizedAffinity>  (801) 
-8.63464

$$$$
data/reference_output_2/data/smiles/160782.pdb
     RDKit          3D

 26 28  0  0  0  0  0  0  0  0999 V2000
   70.0591   41.7023   58.5636 C   0  0  0  0  0  0  0  0  0  0  0  0
   70.4919   40.6312   59.2964 C   0  0  0  0  0  0  0  0  0  0  0  0
   69.9309   39.3797   59.1214 C   0  0  0  0  0  0  0  0  0  0  0  0
   68.9214   39.1864   58.2031 C   0  0  0  0  0  0  0  0  0  0  0  0
   68.4902   40.2672   57.4692 C   0  0  0  0  0  0  0  0  0  0  0  0
   69.0460   41.5150   57.6401 C   0  0  0  0  0  0  0  0  0  0  0  0
   68.3734   42.4452   56.7264 C   0  0  0  0  0  0  0  0  0  0  0  0
   68.6056   43.7074   56.5811 N   0  0  0  0  0  0  0  0  0  0  0  0
   67.3817   41.6594   56.0049 C   0  0  0  0  0  0  0  0  0  0  0  0
   66.6051   42.1473   55.1209 O   0  0  0  0  0  0  0  0  0  0  0  0
   67.4605   40.3319   56.4638 N   0  0  0  0  0  0  0  0  0  0  0  0
   72.2657   44.7707   58.4528 C   0  0  0  0  0  0  0  0  0  0  0  0
   71.7719   43.3623   58.2385 C   0  0  0  0  0  0  0  0  0  0  0  0
   72.6601   42.4285   57.5175 C   0  0  0  0  0  0  0  0  0  0  0  0
   70.6100   43.0503   58.7339 C   0  0  0  0  0  0  0  0  0  0  0  0
   67.8342   44.4006   55.6451 N   0  0  0  0  0  0  0  0  0  0  0  0
   68.3158   45.5702   54.9913 C   0  0  0  0  0  0  0  0  0  0  0  0
   68.9445   46.5831   55.7103 C   0  0  0  0  0  0  0  0  0  0  0  0
   69.4182   47.7284   55.0877 C   0  0  0  0  0  0  0  0  0  0  0  0
   69.2930   47.9201   53.7287 C   0  0  0  0  0  0  0  0  0  0  0  0
   68.6696   46.9158   53.0197 C   0  0  0  0  0  0  0  0  0  0  0  0
   68.1978   45.7776   53.6347 C   0  0  0  0  0  0  0  0  0  0  0  0
   69.9010   49.3630   52.9312 S   0  0  0  0  0  0  0  0  0  0  0  0
   69.9070   49.2197   51.2164 N   0  0  0  0  0  0  0  0  0  0  0  0
   69.0832   50.5578   53.3034 O   0  0  0  0  0  0  0  0  0  0  0  0
   71.3225   49.6448   53.3409 O   0  0  0  0  0  0  0  0  0  0  0  0
 12 13  1  0
 13 14  1  0
 13 15  2  0
 15  1  1  0
  1  2  2  0
  1  6  1  0
  2  3  1  0
  3  4  2  0
  4  5  1  0
  5  6  2  0
  5 11  1  0
  6  7  1  0
  7  8  2  0
  7  9  1  0
  8 16  1  0
 16 17  1  0
 17 18  2  0
 17 22  1  0
 18 19  1  0
 19 20  2  0
 20 23  1  0
 20 21  1  0
 23 24  1  0
 23 25  2  0
 23 26  2  0
 21 22  2  0
  9 10  2  0
  9 11  1  0
M  END
>  <minimizedAffinity>  (802) 
-9.41836

$$$$
data/reference_output_2/data/smiles/160848.pdb
     RDKit          3D

 26 29  0  0  0  0  0  0  0  0999 V2000
   69.0645   43.9377   56.7377 O   0  0  0  0  0  0  0  0  0  0  0  0
   68.1600   43.6333   55.9370 C   0  0  0  0  0  0  0  0  0  0  0  0
   67.5562   42.3217   56.0353 N   0  0  0  0  0  0  0  0  0  0  0  0
   67.7700   44.5699   54.9804 N   0  0  0  0  0  0  0  0  0  0  0  0
   68.2603   45.8728   54.7650 C   0  0  0  0  0  0  0  0  0  0  0  0
   68.4318   46.8335   55.7184 C   0  0  0  0  0  0  0  0  0  0  0  0
   68.9294   48.1168   55.4227 C   0  0  0  0  0  0  0  0  0  0  0  0
   69.2693   48.4638   54.1409 C   0  0  0  0  0  0  0  0  0  0  0  0
   69.7615   49.7106   53.8068 C   0  0  0  0  0  0  0  0  0  0  0  0
   70.0870   50.0204   52.5379 N   0  0  0  0  0  0  0  0  0  0  0  0
   69.9351   49.1036   51.5577 C   0  0  0  0  0  0  0  0  0  0  0  0
   69.4477   47.8597   51.8731 C   0  0  0  0  0  0  0  0  0  0  0  0
   69.0986   47.4981   53.1734 C   0  0  0  0  0  0  0  0  0  0  0  0
   68.6127   46.2421   53.4573 C   0  0  0  0  0  0  0  0  0  0  0  0
   67.9840   41.3821   57.0327 C   0  0  0  0  0  0  0  0  0  0  0  0
   67.2405   41.3060   58.2778 C   0  0  0  0  0  0  0  0  0  0  0  0
   66.5025   42.3604   58.5037 O   0  0  0  0  0  0  0  0  0  0  0  0
   67.1611   40.3339   59.2746 N   0  0  0  0  0  0  0  0  0  0  0  0
   66.2334   40.4101   60.4648 C   0  0  0  0  0  0  0  0  0  0  0  0
   65.6805   39.0146   60.3491 C   0  0  0  0  0  0  0  0  0  0  0  0
   64.4557   38.4760   60.6714 C   0  0  0  0  0  0  0  0  0  0  0  0
   64.1878   37.1390   60.4545 C   0  0  0  0  0  0  0  0  0  0  0  0
   65.1503   36.3210   59.9077 C   0  0  0  0  0  0  0  0  0  0  0  0
   66.3621   36.8816   59.5949 C   0  0  0  0  0  0  0  0  0  0  0  0
   66.6545   38.1984   59.7983 C   0  0  0  0  0  0  0  0  0  0  0  0
   67.8403   39.0974   59.5846 C   0  0  0  0  0  0  0  0  0  0  0  0
  1  2  2  0
  2  3  1  0
  2  4  1  0
  3 15  1  0
 15 16  1  0
 16 17  2  0
 16 18  1  0
 18 19  1  0
 18 26  1  0
 19 20  1  0
 20 21  1  0
 20 25  2  0
 21 22  2  0
 22 23  1  0
 23 24  2  0
 24 25  1  0
 25 26  1  0
  4  5  1  0
  5  6  2  0
  5 14  1  0
  6  7  1  0
  7  8  2  0
  8  9  1  0
  8 13  1  0
  9 10  2  0
 10 11  1  0
 11 12  2  0
 12 13  1  0
 13 14  2  0
M  END
>  <minimizedAffinity>  (803) 
-8.67327

$$$$
data/reference_output_2/data/smiles/161009.pdb
     RDKit          3D

 30 33  0  0  0  0  0  0  0  0999 V2000
   68.3593   41.4111   58.7359 C   0  0  2  0  0  0  0  0  0  0  0  0
   69.4175   40.5832   58.0946 C   0  0  0  0  0  0  0  0  0  0  0  0
   70.6824   41.3968   58.0724 C   0  0  0  0  0  0  0  0  0  0  0  0
   71.0078   42.6426   57.5787 C   0  0  0  0  0  0  0  0  0  0  0  0
   72.2606   43.1797   57.6988 C   0  0  0  0  0  0  0  0  0  0  0  0
   73.2538   42.4724   58.3316 C   0  0  0  0  0  0  0  0  0  0  0  0
   72.9529   41.2231   58.8331 C   0  0  0  0  0  0  0  0  0  0  0  0
   71.6823   40.6972   58.7025 C   0  0  0  0  0  0  0  0  0  0  0  0
   71.1042   39.4242   59.1171 C   0  0  0  0  0  0  0  0  0  0  0  0
   71.7470   38.3776   59.7813 C   0  0  0  0  0  0  0  0  0  0  0  0
   71.0460   37.2353   60.0772 C   0  0  0  0  0  0  0  0  0  0  0  0
   69.7357   37.1371   59.7227 C   0  0  0  0  0  0  0  0  0  0  0  0
   69.1081   38.1842   59.0623 C   0  0  0  0  0  0  0  0  0  0  0  0
   69.7785   39.3389   58.7511 C   0  0  0  0  0  0  0  0  0  0  0  0
   68.2320   41.2591   60.1936 C   0  0  0  0  0  0  0  0  0  0  0  0
   68.9731   41.8243   61.0374 O   0  0  0  0  0  0  0  0  0  0  0  0
   67.2243   40.4359   60.6775 O   0  0  0  0  0  0  0  0  0  0  0  0
   67.0443   41.3234   58.0198 C   0  0  0  0  0  0  0  0  0  0  0  0
   66.8160   41.3281   55.6463 O   0  0  0  0  0  0  0  0  0  0  0  0
   67.1537   41.9760   56.6515 C   0  0  0  0  0  0  0  0  0  0  0  0
   67.6249   43.2911   56.5121 N   0  0  0  0  0  0  0  0  0  0  0  0
   67.7960   44.0565   55.3790 N   0  0  0  0  0  0  0  0  0  0  0  0
   68.2249   45.3610   55.2031 C   0  0  0  0  0  0  0  0  0  0  0  0
   68.5334   46.0240   56.2249 O   0  0  0  0  0  0  0  0  0  0  0  0
   68.3503   46.0361   53.8909 C   0  0  0  0  0  0  0  0  0  0  0  0
   67.7741   45.4591   52.7632 C   0  0  0  0  0  0  0  0  0  0  0  0
   67.9083   46.1112   51.5588 C   0  0  0  0  0  0  0  0  0  0  0  0
   68.5828   47.2746   51.4852 N   0  0  0  0  0  0  0  0  0  0  0  0
   69.1395   47.8315   52.5716 C   0  0  0  0  0  0  0  0  0  0  0  0
   69.0340   47.2139   53.8225 C   0  0  0  0  0  0  0  0  0  0  0  0
 19 20  2  0
 20 18  1  0
 20 21  1  0
  1 18  1  6
  1 15  1  0
  1  2  1  0
 15 16  2  0
 15 17  1  0
  2  3  1  0
  2 14  1  0
  3  4  2  0
  3  8  1  0
  4  5  1  0
  5  6  2  0
  6  7  1  0
  7  8  2  0
  8  9  1  0
  9 10  2  0
  9 14  1  0
 10 11  1  0
 11 12  2  0
 12 13  1  0
 13 14  2  0
 21 22  1  0
 22 23  1  0
 23 24  2  0
 23 25  1  0
 25 26  2  0
 25 30  1  0
 26 27  1  0
 27 28  2  0
 28 29  1  0
 29 30  2  0
M  END
>  <minimizedAffinity>  (804) 
-8.64670

$$$$
data/reference_output_2/data/smiles/161019.pdb
     RDKit          3D

 23 25  0  0  0  0  0  0  0  0999 V2000
   69.9981   50.5707   54.0724 C   0  0  0  0  0  0  0  0  0  0  0  0
   68.7054   51.0350   54.1249 C   0  0  0  0  0  0  0  0  0  0  0  0
   68.4046   52.2158   54.8118 C   0  0  0  0  0  0  0  0  0  0  0  0
   69.4073   52.9226   55.4373 C   0  0  0  0  0  0  0  0  0  0  0  0
   70.7221   52.4968   55.4115 C   0  0  0  0  0  0  0  0  0  0  0  0
   70.9794   51.3323   54.7298 C   0  0  0  0  0  0  0  0  0  0  0  0
   71.7891   53.2521   56.0521 C   0  0  0  0  0  0  0  0  0  0  0  0
   71.8643   53.4083   57.4315 C   0  0  0  0  0  0  0  0  0  0  0  0
   72.8481   54.1153   58.0491 C   0  0  0  0  0  0  0  0  0  0  0  0
   73.8372   54.7209   57.2971 C   0  0  0  0  0  0  0  0  0  0  0  0
   73.7827   54.5790   55.9221 C   0  0  0  0  0  0  0  0  0  0  0  0
   72.7716   53.8540   55.3138 C   0  0  0  0  0  0  0  0  0  0  0  0
   71.6433   49.2218   53.0259 O   0  0  0  0  0  0  0  0  0  0  0  0
   70.4302   49.3613   53.4151 C   0  0  0  0  0  0  0  0  0  0  0  0
   69.5570   48.2409   53.1476 C   0  0  0  0  0  0  0  0  0  0  0  0
   69.0730   47.4460   54.2003 C   0  0  0  0  0  0  0  0  0  0  0  0
   68.2182   46.3905   54.0263 C   0  0  0  0  0  0  0  0  0  0  0  0
   67.8092   45.7015   55.0163 O   0  0  0  0  0  0  0  0  0  0  0  0
   67.7996   46.0741   52.7868 N   0  0  0  0  0  0  0  0  0  0  0  0
   66.9344   45.0064   52.6133 O   0  0  0  0  0  0  0  0  0  0  0  0
   68.2456   46.8149   51.7753 C   0  0  0  0  0  0  0  0  0  0  0  0
   67.8678   46.5344   50.6094 O   0  0  0  0  0  0  0  0  0  0  0  0
   69.0972   47.8679   51.9394 N   0  0  0  0  0  0  0  0  0  0  0  0
 13 14  2  0
 14  1  1  0
 14 15  1  0
  1  2  2  0
  1  6  1  0
  2  3  1  0
  3  4  2  0
  4  5  1  0
  5  7  1  0
  5  6  2  0
  7  8  2  0
  7 12  1  0
  8  9  1  0
  9 10  2  0
 10 11  1  0
 11 12  2  0
 15 16  2  0
 15 23  1  0
 16 17  1  0
 17 18  2  0
 17 19  1  0
 19 20  1  0
 19 21  1  0
 21 22  2  0
 21 23  1  0
M  END
>  <minimizedAffinity>  (805) 
-8.61959

$$$$
data/reference_output_2/data/smiles/161140.pdb
     RDKit          3D

 24 25  0  0  0  0  0  0  0  0999 V2000
   68.9041   46.9854   56.5366 S   0  0  0  0  0  0  0  0  0  0  0  0
   68.6309   45.5053   56.4056 O   0  0  0  0  0  0  0  0  0  0  0  0
   67.5797   47.5689   57.0349 O   0  0  0  0  0  0  0  0  0  0  0  0
   70.1635   47.3133   57.7148 C   0  0  0  0  0  0  0  0  0  0  0  0
   70.7802   46.2556   58.3838 C   0  0  0  0  0  0  0  0  0  0  0  0
   71.7792   46.4500   59.3125 C   0  0  0  0  0  0  0  0  0  0  0  0
   72.2172   47.7187   59.6240 C   0  0  0  0  0  0  0  0  0  0  0  0
   71.6163   48.7702   58.9706 C   0  0  0  0  0  0  0  0  0  0  0  0
   70.6043   48.5757   58.0294 C   0  0  0  0  0  0  0  0  0  0  0  0
   73.3016   47.9469   60.6307 C   0  0  0  0  0  0  0  0  0  0  0  0
   74.4229   47.2285   60.3437 F   0  0  0  0  0  0  0  0  0  0  0  0
   73.5432   49.3080   60.7567 F   0  0  0  0  0  0  0  0  0  0  0  0
   72.8120   47.5036   61.8525 F   0  0  0  0  0  0  0  0  0  0  0  0
   69.2539   47.6310   54.9885 N   0  0  0  0  0  0  0  0  0  0  0  0
   68.9603   47.6459   52.5799 C   0  0  0  0  0  0  0  0  0  0  0  0
   68.4564   47.0695   51.4511 C   0  0  0  0  0  0  0  0  0  0  0  0
   67.7276   45.8938   51.4807 C   0  0  0  0  0  0  0  0  0  0  0  0
   67.5131   45.3009   52.7024 C   0  0  0  0  0  0  0  0  0  0  0  0
   68.0178   45.8770   53.8451 C   0  0  0  0  0  0  0  0  0  0  0  0
   68.7437   47.0464   53.8143 C   0  0  0  0  0  0  0  0  0  0  0  0
   69.7709   49.7972   50.9560 N   0  0  0  0  0  0  0  0  0  0  0  0
   69.8786   49.1403   52.5490 S   0  0  0  0  0  0  0  0  0  0  0  0
   71.2918   48.8761   52.9275 O   0  0  0  0  0  0  0  0  0  0  0  0
   69.2762   50.0826   53.5605 O   0  0  0  0  0  0  0  0  0  0  0  0
 21 22  1  0
 22 23  2  0
 22 24  2  0
 22 15  1  0
 15 16  2  0
 15 20  1  0
 16 17  1  0
 17 18  2  0
 18 19  1  0
 19 20  2  0
 20 14  1  0
 14  1  1  0
  1  2  2  0
  1  3  2  0
  1  4  1  0
  4  5  2  0
  4  9  1  0
  5  6  1  0
  6  7  2  0
  7 10  1  0
  7  8  1  0
 10 11  1  0
 10 12  1  0
 10 13  1  0
  8  9  2  0
M  END
>  <minimizedAffinity>  (806) 
-8.56349

$$$$
data/reference_output_2/data/smiles/161179.pdb
     RDKit          3D

 27 30  0  0  0  0  0  0  0  0999 V2000
   71.3164   47.0956   58.7541 C   0  0  0  0  0  0  0  0  0  0  0  0
   72.0690   48.1460   59.2343 C   0  0  0  0  0  0  0  0  0  0  0  0
   71.7380   49.4499   58.9392 C   0  0  0  0  0  0  0  0  0  0  0  0
   70.6186   49.7202   58.1384 C   0  0  0  0  0  0  0  0  0  0  0  0
   69.8839   48.6630   57.6718 C   0  0  0  0  0  0  0  0  0  0  0  0
   70.2624   47.3896   57.9987 N   0  0  0  0  0  0  0  0  0  0  0  0
   71.5672   45.2976   60.2517 O   0  0  0  0  0  0  0  0  0  0  0  0
   71.6979   45.7178   59.0926 C   0  0  0  0  0  0  0  0  0  0  0  0
   72.2239   44.8166   58.1317 N   0  0  0  0  0  0  0  0  0  0  0  0
   72.6095   43.4613   58.4232 C   0  0  0  0  0  0  0  0  0  0  0  0
   73.9539   43.0835   57.9155 C   0  0  0  0  0  0  0  0  0  0  0  0
   74.4168   41.8800   58.7264 C   0  0  0  0  0  0  0  0  0  0  0  0
   73.2377   41.1519   59.3352 C   0  0  0  0  0  0  0  0  0  0  0  0
   72.0505   41.0899   58.4052 C   0  0  0  0  0  0  0  0  0  0  0  0
   71.5707   42.4573   57.9725 C   0  0  0  0  0  0  0  0  0  0  0  0
   68.6760   48.8534   56.8277 C   0  0  0  0  0  0  0  0  0  0  0  0
   68.5237   47.8344   55.7818 C   0  0  0  0  0  0  0  0  0  0  0  0
   67.9803   46.6457   56.1009 N   0  0  0  0  0  0  0  0  0  0  0  0
   67.7842   45.6779   55.2353 N   0  0  0  0  0  0  0  0  0  0  0  0
   68.1198   45.8297   53.9674 C   0  0  0  0  0  0  0  0  0  0  0  0
   67.9450   44.9167   53.0999 O   0  0  0  0  0  0  0  0  0  0  0  0
   68.6924   47.0292   53.5341 C   0  0  0  0  0  0  0  0  0  0  0  0
   68.8874   48.0151   54.4465 C   0  0  0  0  0  0  0  0  0  0  0  0
   69.5098   49.3076   54.0651 C   0  0  0  0  0  0  0  0  0  0  0  0
   70.5076   49.0235   52.9544 C   0  0  0  0  0  0  0  0  0  0  0  0
   69.8636   48.3697   51.7775 C   0  0  0  0  0  0  0  0  0  0  0  0
   69.0492   47.1796   52.1125 C   0  0  0  0  0  0  0  0  0  0  0  0
  7  8  2  0
  8  9  1  0
  8  1  1  0
  9 10  1  0
 10 11  1  0
 10 15  1  0
 11 12  1  0
 12 13  1  0
 13 14  1  0
 14 15  1  0
  1  2  2  0
  1  6  1  0
  2  3  1  0
  3  4  2  0
  4  5  1  0
  5 16  1  0
  5  6  2  0
 16 17  1  0
 17 18  2  0
 17 23  1  0
 18 19  1  0
 19 20  1  0
 20 21  2  0
 20 22  1  0
 22 23  2  0
 22 27  1  0
 23 24  1  0
 24 25  1  0
 25 26  1  0
 26 27  1  0
M  END
>  <minimizedAffinity>  (807) 
-8.71661

$$$$
data/reference_output_2/data/smiles/161304.pdb
     RDKit          3D

 28 30  0  0  0  0  0  0  0  0999 V2000
   70.1797   49.2399   53.8114 C   0  0  0  0  0  0  0  0  0  0  0  0
   69.7779   49.0354   52.5085 C   0  0  0  0  0  0  0  0  0  0  0  0
   68.9974   47.9284   52.1521 C   0  0  0  0  0  0  0  0  0  0  0  0
   68.6049   47.0045   53.0963 C   0  0  0  0  0  0  0  0  0  0  0  0
   67.8348   45.9011   52.7797 C   0  0  0  0  0  0  0  0  0  0  0  0
   67.3296   45.6496   51.1191 Cl  0  0  0  0  0  0  0  0  0  0  0  0
   67.4579   44.9934   53.7482 C   0  0  0  0  0  0  0  0  0  0  0  0
   67.8686   45.2236   55.0114 N   0  0  0  0  0  0  0  0  0  0  0  0
   68.6153   46.2800   55.3617 C   0  0  0  0  0  0  0  0  0  0  0  0
   69.0040   47.2040   54.3984 C   0  0  0  0  0  0  0  0  0  0  0  0
   69.7725   48.2955   54.7453 C   0  0  0  0  0  0  0  0  0  0  0  0
   69.0519   46.5319   56.6878 N   0  0  0  0  0  0  0  0  0  0  0  0
   69.6587   45.6842   57.4275 C   0  0  0  0  0  0  0  0  0  0  0  0
   69.9860   44.3685   57.0333 N   0  0  0  0  0  0  0  0  0  0  0  0
   70.0276   46.1017   58.7366 N   0  0  0  0  0  0  0  0  0  0  0  0
   71.1585   50.6187   54.2797 S   0  0  0  0  0  0  0  0  0  0  0  0
   70.8177   51.7242   53.3345 O   0  0  0  0  0  0  0  0  0  0  0  0
   72.5961   50.2233   53.9562 O   0  0  0  0  0  0  0  0  0  0  0  0
   72.2542   50.6664   56.6056 C   0  0  0  0  0  0  0  0  0  0  0  0
   71.0329   50.9582   55.8951 N   0  0  0  0  0  0  0  0  0  0  0  0
   70.5136   52.1777   56.3400 C   0  0  0  0  0  0  0  0  0  0  0  0
   69.2519   52.6547   55.6754 C   0  0  0  0  0  0  0  0  0  0  0  0
   68.2792   51.5836   56.0058 C   0  0  0  0  0  0  0  0  0  0  0  0
   68.6807   51.1456   57.3935 C   0  0  0  0  0  0  0  0  0  0  0  0
   69.9529   51.9320   57.7376 C   0  0  0  0  0  0  0  0  0  0  0  0
   71.4889   53.2926   56.3812 C   0  0  0  0  0  0  0  0  0  0  0  0
   71.6938   53.8631   57.4759 O   0  0  0  0  0  0  0  0  0  0  0  0
   72.1852   53.7351   55.2732 O   0  0  0  0  0  0  0  0  0  0  0  0
 19 20  1  0
 20 21  1  0
 20 16  1  0
 21 26  1  0
 21 22  1  0
 21 25  1  0
 26 27  2  0
 26 28  1  0
 22 23  1  0
 23 24  1  0
 24 25  1  0
 16 17  2  0
 16 18  2  0
 16  1  1  0
  1  2  2  0
  1 11  1  0
  2  3  1  0
  3  4  2  0
  4  5  1  0
  4 10  1  0
  5  6  1  0
  5  7  2  0
  7  8  1  0
  8  9  2  0
  9 12  1  0
  9 10  1  0
 12 13  2  0
 13 14  1  0
 13 15  1  0
 10 11  2  0
M  CHG  1  12   1
M  END
>  <minimizedAffinity>  (808) 
-8.65146

$$$$
data/reference_output_2/data/smiles/161371.pdb
     RDKit          3D

 27 30  0  0  0  0  0  0  0  0999 V2000
   73.9951   49.2254   57.3295 C   0  0  0  0  0  0  0  0  0  0  0  0
   73.4000   48.3771   58.2038 C   0  0  0  0  0  0  0  0  0  0  0  0
   72.0352   48.1571   58.2600 C   0  0  0  0  0  0  0  0  0  0  0  0
   71.2142   48.8174   57.3959 C   0  0  0  0  0  0  0  0  0  0  0  0
   71.7644   49.7094   56.4644 C   0  0  0  0  0  0  0  0  0  0  0  0
   73.1232   49.8901   56.4523 C   0  0  0  0  0  0  0  0  0  0  0  0
   75.4634   49.4371   54.8994 O   0  0  0  0  0  0  0  0  0  0  0  0
   76.1078   49.6156   55.9950 C   0  0  0  0  0  0  0  0  0  0  0  0
   75.3648   49.5124   57.1980 N   0  0  0  0  0  0  0  0  0  0  0  0
   77.5318   49.9094   55.9365 C   0  0  0  0  0  0  0  0  0  0  0  0
   78.3793   49.0170   55.3325 C   0  0  0  0  0  0  0  0  0  0  0  0
   79.7585   49.2746   55.2740 C   0  0  0  0  0  0  0  0  0  0  0  0
   80.2413   50.4133   55.8218 N   0  0  0  0  0  0  0  0  0  0  0  0
   79.4325   51.3056   56.4212 C   0  0  0  0  0  0  0  0  0  0  0  0
   78.0575   51.0434   56.4763 C   0  0  0  0  0  0  0  0  0  0  0  0
   70.7885   50.3645   55.5755 C   0  0  0  0  0  0  0  0  0  0  0  0
   70.5068   49.5364   54.4178 C   0  0  0  0  0  0  0  0  0  0  0  0
   71.3251   49.5924   53.3311 N   0  0  0  0  0  0  0  0  0  0  0  0
   71.1492   48.8062   52.2758 N   0  0  0  0  0  0  0  0  0  0  0  0
   70.1498   47.8983   52.2066 C   0  0  0  0  0  0  0  0  0  0  0  0
   69.9948   47.1694   51.2171 O   0  0  0  0  0  0  0  0  0  0  0  0
   69.2995   47.7969   53.2608 C   0  0  0  0  0  0  0  0  0  0  0  0
   69.5024   48.6418   54.3708 C   0  0  0  0  0  0  0  0  0  0  0  0
   68.4991   48.5155   55.4252 C   0  0  0  0  0  0  0  0  0  0  0  0
   68.3250   47.0652   55.8639 C   0  0  0  0  0  0  0  0  0  0  0  0
   68.4001   46.1107   54.7042 C   0  0  0  0  0  0  0  0  0  0  0  0
   68.1598   46.8547   53.3832 C   0  0  0  0  0  0  0  0  0  0  0  0
  7  8  2  0
  8  9  1  0
  8 10  1  0
  9  1  1  0
  1  2  2  0
  1  6  1  0
  2  3  1  0
  3  4  2  0
  4  5  1  0
  5 16  1  0
  5  6  2  0
 16 17  1  0
 17 18  2  0
 17 23  1  0
 18 19  1  0
 19 20  1  0
 20 21  2  0
 20 22  1  0
 22 23  2  0
 22 27  1  0
 23 24  1  0
 24 25  1  0
 25 26  1  0
 26 27  1  0
 10 11  2  0
 10 15  1  0
 11 12  1  0
 12 13  2  0
 13 14  1  0
 14 15  2  0
M  END
>  <minimizedAffinity>  (809) 
-9.07651

$$$$
data/reference_output_2/data/smiles/161418.pdb
     RDKit          3D

 24 26  0  0  0  0  0  0  0  0999 V2000
   67.2399   41.8337   55.9731 C   0  0  0  0  0  0  0  0  0  0  0  0
   67.7834   40.8643   56.7903 C   0  0  0  0  0  0  0  0  0  0  0  0
   68.9626   41.1679   57.4361 C   0  0  0  0  0  0  0  0  0  0  0  0
   69.5887   40.2595   58.2812 C   0  0  0  0  0  0  0  0  0  0  0  0
   70.7684   40.5434   58.9360 C   0  0  0  0  0  0  0  0  0  0  0  0
   71.3339   41.7843   58.7338 C   0  0  0  0  0  0  0  0  0  0  0  0
   70.7101   42.6853   57.8933 C   0  0  0  0  0  0  0  0  0  0  0  0
   69.5342   42.4146   57.2343 C   0  0  0  0  0  0  0  0  0  0  0  0
   68.9982   43.3213   56.4514 O   0  0  0  0  0  0  0  0  0  0  0  0
   67.8832   43.0513   55.8319 C   0  0  0  0  0  0  0  0  0  0  0  0
   67.4055   43.9946   55.0710 N   0  0  0  0  0  0  0  0  0  0  0  0
   65.9736   40.8323   54.0660 N   0  0  0  0  0  0  0  0  0  0  0  0
   65.9983   41.5892   55.2577 C   0  0  0  0  0  0  0  0  0  0  0  0
   64.9163   42.0481   55.6835 O   0  0  0  0  0  0  0  0  0  0  0  0
   68.0885   45.2382   54.9442 N   0  0  0  0  0  0  0  0  0  0  0  0
   68.1130   45.9396   53.7228 C   0  0  0  0  0  0  0  0  0  0  0  0
   67.4693   45.3425   52.7816 O   0  0  0  0  0  0  0  0  0  0  0  0
   68.7636   47.2043   53.4548 C   0  0  0  0  0  0  0  0  0  0  0  0
   68.8225   48.1460   54.4950 C   0  0  0  0  0  0  0  0  0  0  0  0
   69.4206   49.3732   54.3309 C   0  0  0  0  0  0  0  0  0  0  0  0
   69.9983   49.7579   53.1435 C   0  0  0  0  0  0  0  0  0  0  0  0
   69.9522   48.8526   52.1135 C   0  0  0  0  0  0  0  0  0  0  0  0
   69.3416   47.5980   52.2788 C   0  0  0  0  0  0  0  0  0  0  0  0
   69.3171   46.7102   51.2066 O   0  0  0  0  0  0  0  0  0  0  0  0
 12 13  1  0
 13 14  2  0
 13  1  1  0
  1  2  2  0
  1 10  1  0
  2  3  1  0
  3  4  2  0
  3  8  1  0
  4  5  1  0
  5  6  2  0
  6  7  1  0
  7  8  2  0
  8  9  1  0
  9 10  1  0
 10 11  2  0
 11 15  1  0
 15 16  1  0
 16 17  2  0
 16 18  1  0
 18 19  2  0
 18 23  1  0
 19 20  1  0
 20 21  2  0
 21 22  1  0
 22 23  2  0
 23 24  1  0
M  END
>  <minimizedAffinity>  (810) 
-8.50353

$$$$
data/reference_output_2/data/smiles/161504.pdb
     RDKit          3D

 21 22  0  0  0  0  0  0  0  0999 V2000
   69.5765   45.9086   57.3183 N   0  0  0  0  0  0  0  0  0  0  0  0
   69.2880   46.8910   57.1976 C   0  0  0  0  0  0  0  0  0  0  0  0
   69.4212   48.3668   57.4999 N   0  0  0  0  0  0  0  0  0  0  0  0
   73.0266   42.4641   58.1813 C   0  0  0  0  0  0  0  0  0  0  0  0
   71.6385   42.8959   57.8271 C   0  0  0  0  0  0  0  0  0  0  0  0
   70.6698   41.9173   57.6459 C   0  0  0  0  0  0  0  0  0  0  0  0
   69.3430   42.2900   57.3967 C   0  0  0  0  0  0  0  0  0  0  0  0
   68.2535   41.3208   57.1527 C   0  0  0  0  0  0  0  0  0  0  0  0
   69.1003   43.5843   57.3398 N   0  0  0  0  0  0  0  0  0  0  0  0
   69.9873   44.5819   57.4989 C   0  0  0  0  0  0  0  0  0  0  0  0
   71.2522   44.1750   57.7445 N   0  0  0  0  0  0  0  0  0  0  0  0
   68.0501   47.0528   56.1891 N   0  0  0  0  0  0  0  0  0  0  0  0
   68.3646   47.0248   54.8322 C   0  0  0  0  0  0  0  0  0  0  0  0
   67.7768   46.0294   54.0124 C   0  0  0  0  0  0  0  0  0  0  0  0
   68.0328   45.9685   52.6487 C   0  0  0  0  0  0  0  0  0  0  0  0
   68.8597   46.8689   52.0707 C   0  0  0  0  0  0  0  0  0  0  0  0
   69.4642   47.8624   52.8277 C   0  0  0  0  0  0  0  0  0  0  0  0
   69.1945   47.9133   54.2016 C   0  0  0  0  0  0  0  0  0  0  0  0
   70.3546   48.7791   52.2263 N   0  0  0  0  0  0  0  0  0  0  0  0
   71.3971   49.1145   52.8389 O   0  0  0  0  0  0  0  0  0  0  0  0
   70.0747   49.3035   50.9755 O   0  0  0  0  0  0  0  0  0  0  0  0
  4  5  1  0
  5  6  2  0
  5 11  1  0
  6  7  1  0
  7  8  1  0
  7  9  2  0
  9 10  1  0
 10  1  1  0
 10 11  2  0
  1  2  2  3
  2  3  1  0
  2 12  1  0
 12 13  1  0
 13 14  2  0
 13 18  1  0
 14 15  1  0
 15 16  2  0
 16 17  1  0
 17 19  1  0
 17 18  2  0
 19 20  2  0
 19 21  1  0
M  CHG  3   1   1  19   1  21  -1
M  END
>  <minimizedAffinity>  (811) 
-8.87476

$$$$
data/reference_output_2/data/smiles/161522.pdb
     RDKit          3D

 26 28  0  0  0  0  0  0  0  0999 V2000
   71.0072   43.7071   58.0668 O   0  0  0  0  0  0  0  0  0  0  0  0
   69.9006   43.6163   57.5225 C   0  0  0  0  0  0  0  0  0  0  0  0
   69.2857   44.7971   57.0539 N   0  0  0  0  0  0  0  0  0  0  0  0
   69.2579   42.3093   57.3749 C   0  0  0  0  0  0  0  0  0  0  0  0
   68.1024   42.2085   56.6429 C   0  0  0  0  0  0  0  0  0  0  0  0
   67.5115   40.9901   56.5107 C   0  0  0  0  0  0  0  0  0  0  0  0
   68.1125   39.8959   57.1286 C   0  0  0  0  0  0  0  0  0  0  0  0
   69.2656   40.0267   57.8518 C   0  0  0  0  0  0  0  0  0  0  0  0
   69.8192   41.2557   57.9578 N   0  0  0  0  0  0  0  0  0  0  0  0
   69.9214   38.9020   58.5123 C   0  0  0  0  0  0  0  0  0  0  0  0
   71.2257   38.5831   58.1340 C   0  0  0  0  0  0  0  0  0  0  0  0
   71.9002   37.5409   58.7112 C   0  0  0  0  0  0  0  0  0  0  0  0
   71.2962   36.7773   59.6901 C   0  0  0  0  0  0  0  0  0  0  0  0
   70.0193   37.0898   60.0606 C   0  0  0  0  0  0  0  0  0  0  0  0
   69.3158   38.1500   59.4809 C   0  0  0  0  0  0  0  0  0  0  0  0
   69.7814   46.0728   57.1309 N   0  0  0  0  0  0  0  0  0  0  0  0
   68.8801   47.2754   56.3415 S   0  0  0  0  0  0  0  0  0  0  0  0
   69.5552   48.6086   56.6438 O   0  0  0  0  0  0  0  0  0  0  0  0
   67.4834   47.4157   56.9330 O   0  0  0  0  0  0  0  0  0  0  0  0
   68.8214   47.1271   54.6196 C   0  0  0  0  0  0  0  0  0  0  0  0
   69.3679   48.1107   53.8381 C   0  0  0  0  0  0  0  0  0  0  0  0
   69.3298   48.0075   52.4523 C   0  0  0  0  0  0  0  0  0  0  0  0
   68.7378   46.9066   51.8473 C   0  0  0  0  0  0  0  0  0  0  0  0
   68.1963   45.9317   52.6479 C   0  0  0  0  0  0  0  0  0  0  0  0
   68.2337   46.0341   54.0360 C   0  0  0  0  0  0  0  0  0  0  0  0
   67.6732   45.0247   54.7475 F   0  0  0  0  0  0  0  0  0  0  0  0
  1  2  2  0
  2  3  1  0
  2  4  1  0
  3 16  1  0
 16 17  1  0
 17 18  2  0
 17 19  2  0
 17 20  1  0
 20 21  2  0
 20 25  1  0
 21 22  1  0
 22 23  2  0
 23 24  1  0
 24 25  2  0
 25 26  1  0
  4  5  2  0
  4  9  1  0
  5  6  1  0
  6  7  2  0
  7  8  1  0
  8 10  1  0
  8  9  2  0
 10 11  2  0
 10 15  1  0
 11 12  1  0
 12 13  2  0
 13 14  1  0
 14 15  2  0
M  END
>  <minimizedAffinity>  (812) 
-9.37828

$$$$
data/reference_output_2/data/smiles/161539.pdb
     RDKit          3D

 29 32  0  0  0  0  0  0  0  0999 V2000
   67.3668   43.8861   55.0495 N   0  0  0  0  0  0  0  0  0  0  0  0
   67.9533   43.1818   56.1135 C   0  0  0  0  0  0  0  0  0  0  0  0
   68.9976   43.6512   56.6360 O   0  0  0  0  0  0  0  0  0  0  0  0
   67.4400   41.9652   56.6440 N   0  0  0  0  0  0  0  0  0  0  0  0
   69.3719   48.6380   52.8201 C   0  0  0  0  0  0  0  0  0  0  0  0
   69.3577   48.1968   51.5134 N   0  0  0  0  0  0  0  0  0  0  0  0
   68.9133   46.9707   51.4451 N   0  0  0  0  0  0  0  0  0  0  0  0
   68.6028   46.5038   52.6647 C   0  0  0  0  0  0  0  0  0  0  0  0
   68.0999   45.2975   53.1660 C   0  0  0  0  0  0  0  0  0  0  0  0
   67.8749   45.1026   54.5128 C   0  0  0  0  0  0  0  0  0  0  0  0
   68.1582   46.1250   55.3409 N   0  0  0  0  0  0  0  0  0  0  0  0
   68.6480   47.3087   54.8756 C   0  0  0  0  0  0  0  0  0  0  0  0
   68.8805   47.5243   53.5336 C   0  0  0  0  0  0  0  0  0  0  0  0
   70.0780   50.9053   53.8044 C   0  0  0  0  0  0  0  0  0  0  0  0
   69.7317   49.7618   53.3147 O   0  0  0  0  0  0  0  0  0  0  0  0
   68.0378   41.2467   57.7343 C   0  0  2  0  0  0  0  0  0  0  0  0
   68.3804   39.8020   57.3786 C   0  0  0  0  0  0  0  0  0  0  0  0
   69.3558   39.3379   58.4602 C   0  0  0  0  0  0  0  0  0  0  0  0
   69.1217   40.0364   59.7790 C   0  0  0  0  0  0  0  0  0  0  0  0
   67.8166   40.5102   59.9881 N   0  0  1  0  0  0  0  0  0  0  0  0
   67.1391   41.1735   58.9467 C   0  0  0  0  0  0  0  0  0  0  0  0
   67.0841   40.0630   61.1051 C   0  0  0  0  0  0  0  0  0  0  0  0
   66.2740   38.8785   60.7287 C   0  0  0  0  0  0  0  0  0  0  0  0
   64.9724   39.0147   60.3588 C   0  0  0  0  0  0  0  0  0  0  0  0
   64.2635   37.8681   60.0153 C   0  0  0  0  0  0  0  0  0  0  0  0
   64.8360   36.6100   60.0393 C   0  0  0  0  0  0  0  0  0  0  0  0
   66.1659   36.4926   60.4196 C   0  0  0  0  0  0  0  0  0  0  0  0
   66.8501   37.6329   60.7544 C   0  0  0  0  0  0  0  0  0  0  0  0
   68.1637   37.4961   61.1276 F   0  0  0  0  0  0  0  0  0  0  0  0
 14 15  1  0
 15  5  1  0
  5  6  2  0
  5 13  1  0
  6  7  1  0
  7  8  1  0
  8  9  1  0
  8 13  2  0
  9 10  2  0
 10  1  1  0
 10 11  1  0
  1  2  1  0
  2  3  2  0
  2  4  1  0
 16  4  1  6
 16 17  1  0
 16 21  1  0
 17 18  1  0
 18 19  1  0
 19 20  1  0
 20 22  1  6
 20 21  1  0
 22 23  1  0
 23 24  2  0
 23 28  1  0
 24 25  1  0
 25 26  2  0
 26 27  1  0
 27 28  2  0
 28 29  1  0
 11 12  2  0
 12 13  1  0
M  CHG  1  20   1
M  END
>  <minimizedAffinity>  (813) 
-8.50462

$$$$
data/reference_output_2/data/smiles/161593.pdb
     RDKit          3D

 28 31  0  0  0  0  0  0  0  0999 V2000
   70.7767   43.3005   58.0340 C   0  0  0  0  0  0  0  0  0  0  0  0
   70.1318   42.1392   58.1195 N   0  0  0  0  0  0  0  0  0  0  0  0
   70.7756   40.9535   58.2712 C   0  0  0  0  0  0  0  0  0  0  0  0
   70.3876   39.6329   58.3849 C   0  0  0  0  0  0  0  0  0  0  0  0
   71.4972   38.8248   58.5224 C   0  0  0  0  0  0  0  0  0  0  0  0
   72.5428   39.6692   58.4877 N   0  0  0  0  0  0  0  0  0  0  0  0
   72.1215   40.9212   58.3408 N   0  0  0  0  0  0  0  0  0  0  0  0
   72.8076   42.0739   58.2585 C   0  0  0  0  0  0  0  0  0  0  0  0
   74.0574   42.0686   58.3201 O   0  0  0  0  0  0  0  0  0  0  0  0
   72.1527   43.3016   58.1022 C   0  0  0  0  0  0  0  0  0  0  0  0
   72.8427   44.4943   58.0161 O   0  0  0  0  0  0  0  0  0  0  0  0
   71.5675   37.3765   58.6721 C   0  0  0  0  0  0  0  0  0  0  0  0
   72.2826   36.6230   57.7921 C   0  0  0  0  0  0  0  0  0  0  0  0
   72.3525   35.2516   57.9316 C   0  0  0  0  0  0  0  0  0  0  0  0
   71.6926   34.6263   58.9702 C   0  0  0  0  0  0  0  0  0  0  0  0
   70.9528   35.3685   59.8863 C   0  0  0  0  0  0  0  0  0  0  0  0
   70.9203   36.7217   59.6981 C   0  0  0  0  0  0  0  0  0  0  0  0
   69.8974   45.3405   58.8387 O   0  0  0  0  0  0  0  0  0  0  0  0
   70.0885   44.5899   57.8699 C   0  0  0  0  0  0  0  0  0  0  0  0
   69.6258   45.0052   56.5910 N   0  0  0  0  0  0  0  0  0  0  0  0
   68.9485   46.2250   56.2931 C   0  0  0  0  0  0  0  0  0  0  0  0
   68.6773   46.4024   54.8547 C   0  0  0  0  0  0  0  0  0  0  0  0
   69.1204   47.5001   54.1848 C   0  0  0  0  0  0  0  0  0  0  0  0
   68.8366   47.6074   52.8199 C   0  0  0  0  0  0  0  0  0  0  0  0
   68.1280   46.6343   52.1591 C   0  0  0  0  0  0  0  0  0  0  0  0
   67.8421   46.7232   50.8256 F   0  0  0  0  0  0  0  0  0  0  0  0
   67.6965   45.5409   52.8663 C   0  0  0  0  0  0  0  0  0  0  0  0
   67.9679   45.4192   54.2103 C   0  0  0  0  0  0  0  0  0  0  0  0
 18 19  2  0
 19 20  1  0
 19  1  1  0
 20 21  1  0
 21 22  1  0
 22 23  2  0
 22 28  1  0
 23 24  1  0
 24 25  2  0
 25 26  1  0
 25 27  1  0
 27 28  2  0
  1  2  1  0
  1 10  2  0
  2  3  2  0
  3  4  1  0
  3  7  1  0
  4  5  2  0
  5 12  1  0
  5  6  1  0
 12 13  2  0
 12 17  1  0
 13 14  1  0
 14 15  2  0
 15 16  1  0
 16 17  2  0
  6  7  1  0
  7  8  1  0
  8  9  2  0
  8 10  1  0
 10 11  1  0
M  END
>  <minimizedAffinity>  (814) 
-9.51094

$$$$
data/reference_output_2/data/smiles/161595.pdb
     RDKit          3D

 32 33  0  0  0  0  0  0  0  0999 V2000
   76.5527   49.6255   56.1694 C   0  0  2  0  0  0  0  0  0  0  0  0
   75.9086   50.8020   55.5007 N   0  0  0  0  0  0  0  0  0  0  0  0
   74.5469   50.8667   55.2963 C   0  0  0  0  0  0  0  0  0  0  0  0
   74.0677   49.7816   55.8671 O   0  0  0  0  0  0  0  0  0  0  0  0
   73.4807   51.6840   54.7019 C   0  0  2  0  0  0  0  0  0  0  0  0
   73.6541   53.1162   54.8557 C   0  0  0  0  0  0  0  0  0  0  0  0
   72.2484   51.1844   55.4360 N   0  0  0  0  0  0  0  0  0  0  0  0
   71.4570   50.1444   55.0249 C   0  0  0  0  0  0  0  0  0  0  0  0
   71.9071   49.7661   53.8424 O   0  0  0  0  0  0  0  0  0  0  0  0
   70.3094   49.3481   55.4609 C   0  0  1  0  0  0  0  0  0  0  0  0
   69.7302   49.5309   56.7251 N   0  0  0  0  0  0  0  0  0  0  0  0
   70.6393   49.4263   57.8486 C   0  0  0  0  0  0  0  0  0  0  0  0
   71.1891   48.0612   58.0948 C   0  0  0  0  0  0  0  0  0  0  0  0
   72.1506   48.0196   59.2356 C   0  0  0  0  0  0  0  0  0  0  0  0
   73.4007   48.8636   59.0245 C   0  0  0  0  0  0  0  0  0  0  0  0
   74.3253   48.7896   60.2081 C   0  0  0  0  0  0  0  0  0  0  0  0
   75.5828   49.5579   60.0141 C   0  0  0  0  0  0  0  0  0  0  0  0
   76.3812   49.0642   58.8357 N   0  0  0  0  0  0  0  0  0  0  0  0
   77.2172   48.0173   59.2636 C   0  0  0  0  0  0  0  0  0  0  0  0
   76.2226   49.6441   57.6128 C   0  0  0  0  0  0  0  0  0  0  0  0
   75.4228   50.6761   57.8572 O   0  0  0  0  0  0  0  0  0  0  0  0
   77.9182   49.4076   55.7289 C   0  0  0  0  0  0  0  0  0  0  0  0
   79.3192   51.3688   56.4528 C   0  0  0  0  0  0  0  0  0  0  0  0
   79.0714   49.8593   56.5353 C   0  0  0  0  0  0  0  0  0  0  0  0
   80.3114   49.0470   56.5220 C   0  0  0  0  0  0  0  0  0  0  0  0
   69.2309   49.5522   54.3879 C   0  0  0  0  0  0  0  0  0  0  0  0
   68.8774   48.3383   53.6675 C   0  0  0  0  0  0  0  0  0  0  0  0
   69.1951   48.1729   52.3373 C   0  0  0  0  0  0  0  0  0  0  0  0
   68.8435   47.0176   51.6663 C   0  0  0  0  0  0  0  0  0  0  0  0
   68.1661   45.9914   52.2958 C   0  0  0  0  0  0  0  0  0  0  0  0
   67.8458   46.1522   53.6276 C   0  0  0  0  0  0  0  0  0  0  0  0
   68.2029   47.3240   54.3051 C   0  0  0  0  0  0  0  0  0  0  0  0
 23 24  1  0
 24 25  1  0
 24 22  1  0
  1 22  1  1
  1  2  1  0
  1 20  1  0
  2  3  1  0
  3  4  2  0
  3  5  1  0
  5  6  1  1
  5  7  1  0
  7  8  1  0
  8  9  2  0
  8 10  1  0
 10 26  1  6
 10 11  1  0
 26 27  1  0
 27 28  2  0
 27 32  1  0
 28 29  1  0
 29 30  2  0
 30 31  1  0
 31 32  2  0
 11 12  1  0
 12 13  1  0
 13 14  1  0
 14 15  1  0
 15 16  1  0
 16 17  1  0
 17 18  1  0
 18 19  1  0
 18 20  1  0
 20 21  2  0
M  CHG  1  11   1
M  END
>  <minimizedAffinity>  (815) 
-8.73045

$$$$
data/reference_output_2/data/smiles/161624.pdb
     RDKit          3D

 27 29  0  0  0  0  0  0  0  0999 V2000
   69.1924   41.5164   57.6587 C   0  0  0  0  0  0  0  0  0  0  0  0
   69.2723   42.7813   57.1457 C   0  0  0  0  0  0  0  0  0  0  0  0
   68.3725   43.3393   56.2629 C   0  0  0  0  0  0  0  0  0  0  0  0
   67.3085   42.5439   55.8738 C   0  0  0  0  0  0  0  0  0  0  0  0
   67.1696   41.2538   56.3563 C   0  0  0  0  0  0  0  0  0  0  0  0
   68.1022   40.7474   57.2376 C   0  0  0  0  0  0  0  0  0  0  0  0
   67.9373   39.1160   57.8549 Cl  0  0  0  0  0  0  0  0  0  0  0  0
   68.4851   44.6626   55.7423 N   0  0  0  0  0  0  0  0  0  0  0  0
   67.9555   44.9895   54.5668 N   0  0  0  0  0  0  0  0  0  0  0  0
   68.0480   46.2304   54.0572 C   0  0  0  0  0  0  0  0  0  0  0  0
   68.7063   47.2281   54.7424 C   0  0  0  0  0  0  0  0  0  0  0  0
   68.8029   48.4027   54.2770 O   0  0  0  0  0  0  0  0  0  0  0  0
   69.2412   46.8976   55.9300 N   0  0  0  0  0  0  0  0  0  0  0  0
   69.1248   45.6421   56.4036 C   0  0  0  0  0  0  0  0  0  0  0  0
   69.6317   45.3487   57.5191 O   0  0  0  0  0  0  0  0  0  0  0  0
   70.3751   41.3988   59.7411 O   0  0  0  0  0  0  0  0  0  0  0  0
   70.1795   40.9667   58.5925 C   0  0  0  0  0  0  0  0  0  0  0  0
   70.9727   39.8546   58.1479 N   0  0  0  0  0  0  0  0  0  0  0  0
   71.9640   39.2222   58.9460 C   0  0  0  0  0  0  0  0  0  0  0  0
   71.4023   37.9588   59.5634 C   0  0  0  0  0  0  0  0  0  0  0  0
   71.8455   36.7438   58.8272 C   0  0  0  0  0  0  0  0  0  0  0  0
   72.5608   36.9357   57.6536 C   0  0  0  0  0  0  0  0  0  0  0  0
   72.9677   35.8082   56.9719 C   0  0  0  0  0  0  0  0  0  0  0  0
   72.6749   34.5562   57.4378 C   0  0  0  0  0  0  0  0  0  0  0  0
   71.9644   34.3586   58.6010 C   0  0  0  0  0  0  0  0  0  0  0  0
   71.5513   35.4806   59.2943 C   0  0  0  0  0  0  0  0  0  0  0  0
   70.6369   35.2530   60.7931 Cl  0  0  0  0  0  0  0  0  0  0  0  0
 16 17  2  0
 17 18  1  0
 17  1  1  0
 18 19  1  0
 19 20  1  0
 20 21  1  0
 21 22  2  0
 21 26  1  0
 22 23  1  0
 23 24  2  0
 24 25  1  0
 25 26  2  0
 26 27  1  0
  1  2  2  0
  1  6  1  0
  2  3  1  0
  3  8  1  0
  3  4  2  0
  8  9  1  0
  8 14  1  0
  9 10  2  0
 10 11  1  0
 11 12  2  0
 11 13  1  0
 13 14  1  0
 14 15  2  0
  4  5  1  0
  5  6  2  0
  6  7  1  0
M  END
>  <minimizedAffinity>  (816) 
-8.63290

$$$$
data/reference_output_2/data/smiles/161648.pdb
     RDKit          3D

 29 32  0  0  0  0  0  0  0  0999 V2000
   71.9573   46.8747   59.2790 C   0  0  0  0  0  0  0  0  0  0  0  0
   72.0532   45.5300   59.0185 C   0  0  0  0  0  0  0  0  0  0  0  0
   71.1587   44.9173   58.1333 C   0  0  0  0  0  0  0  0  0  0  0  0
   70.1840   45.6696   57.5257 C   0  0  0  0  0  0  0  0  0  0  0  0
   70.0516   47.0265   57.7583 C   0  0  0  0  0  0  0  0  0  0  0  0
   70.9518   47.5823   58.6355 C   0  0  0  0  0  0  0  0  0  0  0  0
   76.6276   48.9040   58.6933 C   0  0  0  0  0  0  0  0  0  0  0  0
   75.3212   48.8380   57.9424 C   0  0  0  0  0  0  0  0  0  0  0  0
   74.6521   47.5435   58.4523 C   0  0  0  0  0  0  0  0  0  0  0  0
   74.1722   47.8770   59.7575 N   0  0  0  0  0  0  0  0  0  0  0  0
   72.8827   47.5605   60.1907 C   0  0  0  0  0  0  0  0  0  0  0  0
   72.4981   47.8619   61.3698 O   0  0  0  0  0  0  0  0  0  0  0  0
   75.0795   48.5772   60.6375 C   0  0  0  0  0  0  0  0  0  0  0  0
   76.4846   48.3551   60.1094 C   0  0  0  0  0  0  0  0  0  0  0  0
   78.6270   50.4686   58.6249 N   0  0  0  0  0  0  0  0  0  0  0  0
   77.2165   50.2458   58.7338 C   0  0  0  0  0  0  0  0  0  0  0  0
   76.4572   51.2274   58.8659 O   0  0  0  0  0  0  0  0  0  0  0  0
   69.0042   47.8239   57.0494 C   0  0  0  0  0  0  0  0  0  0  0  0
   68.7098   47.2034   55.7489 C   0  0  0  0  0  0  0  0  0  0  0  0
   68.0100   46.0391   55.7659 N   0  0  0  0  0  0  0  0  0  0  0  0
   67.7068   45.3432   54.7071 N   0  0  0  0  0  0  0  0  0  0  0  0
   68.0965   45.7829   53.4957 C   0  0  0  0  0  0  0  0  0  0  0  0
   67.7881   45.0936   52.4997 O   0  0  0  0  0  0  0  0  0  0  0  0
   68.8126   46.9572   53.3656 C   0  0  0  0  0  0  0  0  0  0  0  0
   69.1087   47.6573   54.5192 C   0  0  0  0  0  0  0  0  0  0  0  0
   69.8516   48.9516   54.4672 C   0  0  0  0  0  0  0  0  0  0  0  0
   70.4533   49.2204   53.1083 C   0  0  0  0  0  0  0  0  0  0  0  0
   69.5384   48.8536   51.9695 C   0  0  0  0  0  0  0  0  0  0  0  0
   69.2134   47.3848   52.0042 C   0  0  0  0  0  0  0  0  0  0  0  0
 15 16  1  0
 16 17  2  0
 16  7  1  0
  7  8  1  0
  7 14  1  0
  8  9  1  0
  9 10  1  0
 10 11  1  0
 10 13  1  0
 11 12  2  0
 11  1  1  0
  1  2  2  0
  1  6  1  0
  2  3  1  0
  3  4  2  0
  4  5  1  0
  5 18  1  0
  5  6  2  0
 18 19  1  0
 19 20  2  0
 19 25  1  0
 20 21  1  0
 21 22  1  0
 22 23  2  0
 22 24  1  0
 24 25  2  0
 24 29  1  0
 25 26  1  0
 26 27  1  0
 27 28  1  0
 28 29  1  0
 13 14  1  0
M  END
>  <minimizedAffinity>  (817) 
-9.09551

$$$$
data/reference_output_2/data/smiles/161687.pdb
     RDKit          3D

 28 31  0  0  0  0  0  0  0  0999 V2000
   70.0255   44.8149   59.1108 O   0  0  0  0  0  0  0  0  0  0  0  0
   69.7840   45.2693   57.9285 C   0  0  0  0  0  0  0  0  0  0  0  0
   69.4952   44.2772   56.9738 N   0  0  0  0  0  0  0  0  0  0  0  0
   69.4981   42.8740   57.3175 C   0  0  0  0  0  0  0  0  0  0  0  0
   68.3411   42.1427   57.2364 C   0  0  0  0  0  0  0  0  0  0  0  0
   68.3414   40.7828   57.5733 C   0  0  0  0  0  0  0  0  0  0  0  0
   69.5046   40.1534   57.9934 C   0  0  0  0  0  0  0  0  0  0  0  0
   69.5660   38.8645   58.3272 N   0  0  0  0  0  0  0  0  0  0  0  0
   70.6712   38.2206   58.7388 C   0  0  0  0  0  0  0  0  0  0  0  0
   71.8229   38.9494   58.8190 N   0  0  0  0  0  0  0  0  0  0  0  0
   71.8003   40.2511   58.4907 C   0  0  0  0  0  0  0  0  0  0  0  0
   72.8643   40.9455   58.5596 O   0  0  0  0  0  0  0  0  0  0  0  0
   70.6563   40.8902   58.0721 C   0  0  0  0  0  0  0  0  0  0  0  0
   70.6445   42.2385   57.7349 C   0  0  0  0  0  0  0  0  0  0  0  0
   72.9054   38.1000   59.2745 C   0  0  0  0  0  0  0  0  0  0  0  0
   72.4452   36.7392   58.7385 C   0  0  0  0  0  0  0  0  0  0  0  0
   70.9693   36.8160   59.1562 C   0  0  0  0  0  0  0  0  0  0  0  0
   69.8299   46.7264   57.7157 C   0  0  0  0  0  0  0  0  0  0  0  0
   68.7234   47.2113   56.9801 N   0  0  0  0  0  0  0  0  0  0  0  0
   68.9528   48.2733   56.0625 C   0  0  0  0  0  0  0  0  0  0  0  0
   68.8496   47.6843   54.6809 C   0  0  0  0  0  0  0  0  0  0  0  0
   68.0885   46.5839   54.3848 C   0  0  0  0  0  0  0  0  0  0  0  0
   68.0438   46.1014   53.1014 C   0  0  0  0  0  0  0  0  0  0  0  0
   67.2898   45.0065   52.7858 F   0  0  0  0  0  0  0  0  0  0  0  0
   68.7702   46.7194   52.0743 C   0  0  0  0  0  0  0  0  0  0  0  0
   69.5266   47.8153   52.3774 C   0  0  0  0  0  0  0  0  0  0  0  0
   70.2599   48.4686   51.4397 F   0  0  0  0  0  0  0  0  0  0  0  0
   69.5594   48.2843   53.6686 C   0  0  0  0  0  0  0  0  0  0  0  0
  1  2  2  0
  2 18  1  0
  2  3  1  0
 18 19  1  0
 19 20  1  0
 20 21  1  0
 21 22  2  0
 21 28  1  0
 22 23  1  0
 23 24  1  0
 23 25  2  0
 25 26  1  0
 26 27  1  0
 26 28  2  0
  3  4  1  0
  4  5  2  0
  4 14  1  0
  5  6  1  0
  6  7  2  0
  7  8  1  0
  7 13  1  0
  8  9  2  0
  9 10  1  0
  9 17  1  0
 10 11  1  0
 10 15  1  0
 11 12  2  0
 11 13  1  0
 13 14  2  0
 15 16  1  0
 16 17  1  0
M  CHG  1  19   1
M  END
>  <minimizedAffinity>  (818) 
-9.19013

$$$$
data/reference_output_2/data/smiles/161833.pdb
     RDKit          3D

 29 32  0  0  0  0  0  0  0  0999 V2000
   68.9159   42.2649   56.5462 O   0  0  0  0  0  0  0  0  0  0  0  0
   69.5892   43.0359   57.2688 C   0  0  0  0  0  0  0  0  0  0  0  0
   70.4832   42.4729   58.2097 N   0  0  0  0  0  0  0  0  0  0  0  0
   70.6776   41.0521   58.4001 C   0  0  1  0  0  0  0  0  0  0  0  0
   72.1257   40.6951   58.6071 C   0  0  0  0  0  0  0  0  0  0  0  0
   72.3374   39.2895   58.3154 N   0  0  0  0  0  0  0  0  0  0  0  0
   71.6918   38.1261   58.8534 C   0  0  0  0  0  0  0  0  0  0  0  0
   72.2986   36.9454   58.5505 C   0  0  0  0  0  0  0  0  0  0  0  0
   71.7657   35.7454   59.0156 C   0  0  0  0  0  0  0  0  0  0  0  0
   70.6253   35.6907   59.7881 C   0  0  0  0  0  0  0  0  0  0  0  0
   70.0094   36.8942   60.0946 C   0  0  0  0  0  0  0  0  0  0  0  0
   68.8813   36.9038   60.8530 F   0  0  0  0  0  0  0  0  0  0  0  0
   70.5398   38.0866   59.6324 C   0  0  0  0  0  0  0  0  0  0  0  0
   69.7793   39.2348   60.0423 N   0  0  0  0  0  0  0  0  0  0  0  0
   69.8312   40.5327   59.5044 C   0  0  0  0  0  0  0  0  0  0  0  0
   69.0341   41.3328   60.0649 O   0  0  0  0  0  0  0  0  0  0  0  0
   69.4093   44.4692   57.0929 C   0  0  0  0  0  0  0  0  0  0  0  0
   69.9688   45.4651   57.7984 N   0  0  0  0  0  0  0  0  0  0  0  0
   69.5528   46.6392   57.3288 N   0  0  0  0  0  0  0  0  0  0  0  0
   68.7035   46.4155   56.2952 C   0  0  0  0  0  0  0  0  0  0  0  0
   68.6361   45.0800   56.1760 N   0  0  0  0  0  0  0  0  0  0  0  0
   68.0083   47.4680   55.4832 C   0  0  0  0  0  0  0  0  0  0  0  0
   68.6847   47.5508   54.1701 C   0  0  0  0  0  0  0  0  0  0  0  0
   69.6529   48.5157   53.9633 C   0  0  0  0  0  0  0  0  0  0  0  0
   70.3148   48.6428   52.7669 C   0  0  0  0  0  0  0  0  0  0  0  0
   69.9997   47.7817   51.7467 C   0  0  0  0  0  0  0  0  0  0  0  0
   69.0484   46.8041   51.8905 C   0  0  0  0  0  0  0  0  0  0  0  0
   68.3999   46.7081   53.1184 C   0  0  0  0  0  0  0  0  0  0  0  0
   67.4717   45.7516   53.2555 F   0  0  0  0  0  0  0  0  0  0  0  0
  1  2  2  0
  2  3  1  0
  2 17  1  0
  4  3  1  1
  4  5  1  0
  4 15  1  0
  5  6  1  0
  6  7  1  0
  7  8  1  0
  7 13  2  0
  8  9  2  0
  9 10  1  0
 10 11  2  0
 11 12  1  0
 11 13  1  0
 13 14  1  0
 14 15  1  0
 15 16  2  0
 17 18  2  0
 17 21  1  0
 18 19  1  0
 19 20  2  0
 20 22  1  0
 20 21  1  0
 22 23  1  0
 23 24  2  0
 23 28  1  0
 24 25  1  0
 25 26  2  0
 26 27  1  0
 27 28  2  0
 28 29  1  0
M  END
>  <minimizedAffinity>  (819) 
-8.50702

$$$$
data/reference_output_2/data/smiles/161968.pdb
     RDKit          3D

 27 30  0  0  0  0  0  0  0  0999 V2000
   71.1942   47.3822   58.6377 C   0  0  0  0  0  0  0  0  0  0  0  0
   71.0946   45.9966   58.5361 C   0  0  0  0  0  0  0  0  0  0  0  0
   70.2426   45.3570   57.6760 C   0  0  0  0  0  0  0  0  0  0  0  0
   69.4463   46.1886   56.8720 C   0  0  0  0  0  0  0  0  0  0  0  0
   69.4942   47.5214   56.9213 N   0  0  0  0  0  0  0  0  0  0  0  0
   70.3724   48.0987   57.8071 C   0  0  0  0  0  0  0  0  0  0  0  0
   70.4052   49.3387   57.8372 O   0  0  0  0  0  0  0  0  0  0  0  0
   74.1535   49.2758   60.3122 C   0  0  0  0  0  0  0  0  0  0  0  0
   73.2588   48.7301   59.2989 N   0  0  0  0  0  0  0  0  0  0  0  0
   72.1303   47.9591   59.5817 C   0  0  0  0  0  0  0  0  0  0  0  0
   71.9198   47.7526   60.8301 O   0  0  0  0  0  0  0  0  0  0  0  0
   70.1323   43.9122   57.5641 C   0  0  0  0  0  0  0  0  0  0  0  0
   71.1782   43.2098   57.5745 O   0  0  0  0  0  0  0  0  0  0  0  0
   68.8935   43.2395   57.4421 N   0  0  0  0  0  0  0  0  0  0  0  0
   68.7998   41.7881   57.3306 C   0  0  0  0  0  0  0  0  0  0  0  0
   67.7927   41.1643   56.4378 C   0  0  0  0  0  0  0  0  0  0  0  0
   67.6865   41.0505   57.9598 C   0  0  0  0  0  0  0  0  0  0  0  0
   68.6739   48.3510   56.0721 C   0  0  0  0  0  0  0  0  0  0  0  0
   69.1410   48.2535   54.6761 C   0  0  0  0  0  0  0  0  0  0  0  0
   70.1096   49.1567   54.2131 C   0  0  0  0  0  0  0  0  0  0  0  0
   70.5295   49.1131   52.9142 C   0  0  0  0  0  0  0  0  0  0  0  0
   70.0578   48.2173   51.9932 C   0  0  0  0  0  0  0  0  0  0  0  0
   69.1054   47.3214   52.4391 C   0  0  0  0  0  0  0  0  0  0  0  0
   68.4834   46.3288   51.7890 N   0  0  0  0  0  0  0  0  0  0  0  0
   67.6555   45.6967   52.6100 C   0  0  0  0  0  0  0  0  0  0  0  0
   67.7540   46.3199   53.8519 C   0  0  0  0  0  0  0  0  0  0  0  0
   68.6592   47.3430   53.7542 C   0  0  0  0  0  0  0  0  0  0  0  0
  8  9  1  0
  9 10  1  0
 10 11  2  0
 10  1  1  0
  1  2  2  0
  1  6  1  0
  2  3  1  0
  3 12  1  0
  3  4  2  0
 12 13  2  0
 12 14  1  0
 14 15  1  0
 15 16  1  0
 15 17  1  0
 16 17  1  0
  4  5  1  0
  5 18  1  0
  5  6  1  0
 18 19  1  0
 19 20  2  0
 19 27  1  0
 20 21  1  0
 21 22  2  0
 22 23  1  0
 23 24  1  0
 23 27  2  0
 24 25  1  0
 25 26  2  0
 26 27  1  0
  6  7  2  0
M  END
>  <minimizedAffinity>  (820) 
-8.58085

$$$$
data/reference_output_2/data/smiles/162004.pdb
     RDKit          3D

 24 26  0  0  0  0  0  0  0  0999 V2000
   72.2553   51.0525   54.8790 C   0  0  2  0  0  0  0  0  0  0  0  0
   70.2863   50.8186   53.0089 O   0  0  0  0  0  0  0  0  0  0  0  0
   70.5392   49.7051   53.5961 C   0  0  0  0  0  0  0  0  0  0  0  0
   71.5468   49.7917   54.5635 N   0  0  0  0  0  0  0  0  0  0  0  0
   69.7835   48.5372   53.2046 C   0  0  0  0  0  0  0  0  0  0  0  0
   68.9659   47.9439   54.1481 C   0  0  0  0  0  0  0  0  0  0  0  0
   68.2084   46.8295   53.8759 C   0  0  0  0  0  0  0  0  0  0  0  0
   68.2255   46.2379   52.6318 C   0  0  0  0  0  0  0  0  0  0  0  0
   69.0350   46.8167   51.6779 C   0  0  0  0  0  0  0  0  0  0  0  0
   69.8019   47.9520   51.9702 C   0  0  0  0  0  0  0  0  0  0  0  0
   70.5947   48.4787   50.9558 O   0  0  0  0  0  0  0  0  0  0  0  0
   73.6859   50.9319   54.6003 C   0  0  0  0  0  0  0  0  0  0  0  0
   74.1063   50.2282   53.6153 O   0  0  0  0  0  0  0  0  0  0  0  0
   74.6933   51.5379   55.3294 O   0  0  0  0  0  0  0  0  0  0  0  0
   71.8693   51.3365   56.3003 C   0  0  0  0  0  0  0  0  0  0  0  0
   70.4786   51.7055   56.5351 C   0  0  0  0  0  0  0  0  0  0  0  0
   69.9575   52.9874   56.3884 C   0  0  0  0  0  0  0  0  0  0  0  0
   68.6567   52.9752   56.7141 N   0  0  0  0  0  0  0  0  0  0  0  0
   68.2945   51.7103   57.0743 C   0  0  0  0  0  0  0  0  0  0  0  0
   67.0825   51.1919   57.4718 C   0  0  0  0  0  0  0  0  0  0  0  0
   66.9595   49.8592   57.7719 C   0  0  0  0  0  0  0  0  0  0  0  0
   68.0987   49.0884   57.6536 C   0  0  0  0  0  0  0  0  0  0  0  0
   69.3080   49.6011   57.2591 C   0  0  0  0  0  0  0  0  0  0  0  0
   69.4460   50.9314   56.9561 C   0  0  0  0  0  0  0  0  0  0  0  0
  2  3  2  0
  3  4  1  0
  3  5  1  0
  4  1  1  0
  1 15  1  1
  1 12  1  0
 15 16  1  0
 16 17  2  0
 16 24  1  0
 17 18  1  0
 18 19  1  0
 19 20  1  0
 19 24  2  0
 20 21  2  0
 21 22  1  0
 22 23  2  0
 23 24  1  0
 12 13  2  0
 12 14  1  0
  5  6  2  0
  5 10  1  0
  6  7  1  0
  7  8  2  0
  8  9  1  0
  9 10  2  0
 10 11  1  0
M  END
>  <minimizedAffinity>  (821) 
-9.28267

$$$$
data/reference_output_2/data/smiles/162028.pdb
     RDKit          3D

 23 25  0  0  0  0  0  0  0  0999 V2000
   70.4586   49.5697   53.8693 N   0  0  0  0  0  0  0  0  0  0  0  0
   70.0281   48.8769   52.7083 C   0  0  0  0  0  0  0  0  0  0  0  0
   70.3593   49.2656   51.5366 O   0  0  0  0  0  0  0  0  0  0  0  0
   69.1924   47.6914   52.7491 C   0  0  0  0  0  0  0  0  0  0  0  0
   68.7877   47.0348   51.5995 C   0  0  0  0  0  0  0  0  0  0  0  0
   67.9938   45.9153   51.7257 C   0  0  0  0  0  0  0  0  0  0  0  0
   67.5925   45.4304   52.9524 C   0  0  0  0  0  0  0  0  0  0  0  0
   67.9963   46.0842   54.0932 C   0  0  0  0  0  0  0  0  0  0  0  0
   68.8044   47.2265   53.9887 C   0  0  0  0  0  0  0  0  0  0  0  0
   69.2393   47.9237   55.1254 N   0  0  0  0  0  0  0  0  0  0  0  0
   70.0596   49.1050   55.1652 C   0  0  2  0  0  0  0  0  0  0  0  0
   69.3268   50.0876   55.9920 C   0  0  0  0  0  0  0  0  0  0  0  0
   68.3638   49.6311   56.8545 C   0  0  0  0  0  0  0  0  0  0  0  0
   67.6568   50.5209   57.6334 C   0  0  0  0  0  0  0  0  0  0  0  0
   67.9363   51.8741   57.5296 C   0  0  0  0  0  0  0  0  0  0  0  0
   68.9040   52.3362   56.6640 C   0  0  0  0  0  0  0  0  0  0  0  0
   69.1293   53.7092   56.6128 O   0  0  0  0  0  0  0  0  0  0  0  0
   69.5826   51.4288   55.9094 C   0  0  0  0  0  0  0  0  0  0  0  0
   71.2759   50.6573   53.7095 N   0  0  0  0  0  0  0  0  0  0  0  0
   73.3482   52.3016   54.8747 C   0  0  0  0  0  0  0  0  0  0  0  0
   72.7838   50.6396   54.4675 S   0  0  0  0  0  0  0  0  0  0  0  0
   72.9139   49.8417   55.6973 O   0  0  0  0  0  0  0  0  0  0  0  0
   73.7989   50.1417   53.4422 O   0  0  0  0  0  0  0  0  0  0  0  0
 20 21  1  0
 21 22  2  0
 21 23  2  0
 21 19  1  0
 19  1  1  0
  1  2  1  0
  1 11  1  0
  2  3  2  0
  2  4  1  0
  4  5  1  0
  4  9  2  0
  5  6  2  0
  6  7  1  0
  7  8  2  0
  8  9  1  0
  9 10  1  0
 10 11  1  0
 11 12  1  6
 12 13  2  0
 12 18  1  0
 13 14  1  0
 14 15  2  0
 15 16  1  0
 16 17  1  0
 16 18  2  0
M  END
>  <minimizedAffinity>  (822) 
-8.67945

$$$$
data/reference_output_2/data/smiles/162313.pdb
     RDKit          3D

 28 31  0  0  0  0  0  0  0  0999 V2000
   69.1971   42.9423   57.2498 C   0  0  0  0  0  0  0  0  0  0  0  0
   68.0668   42.2466   56.8828 C   0  0  0  0  0  0  0  0  0  0  0  0
   67.9080   40.9101   57.2788 C   0  0  0  0  0  0  0  0  0  0  0  0
   68.8686   40.2748   58.0327 C   0  0  0  0  0  0  0  0  0  0  0  0
   70.0224   40.9515   58.4188 C   0  0  0  0  0  0  0  0  0  0  0  0
   70.1330   42.2671   58.0050 C   0  0  0  0  0  0  0  0  0  0  0  0
   70.8576   40.0548   59.2007 C   0  0  0  0  0  0  0  0  0  0  0  0
   71.9588   40.3385   59.7003 O   0  0  0  0  0  0  0  0  0  0  0  0
   70.2042   38.8103   59.2931 N   0  0  0  0  0  0  0  0  0  0  0  0
   68.9890   38.9367   58.5835 C   0  0  0  0  0  0  0  0  0  0  0  0
   68.1501   38.0146   58.4586 O   0  0  0  0  0  0  0  0  0  0  0  0
   70.4401   44.9038   57.2570 O   0  0  0  0  0  0  0  0  0  0  0  0
   69.3906   44.3355   56.8567 C   0  0  0  0  0  0  0  0  0  0  0  0
   68.4929   45.0846   56.0655 N   0  0  0  0  0  0  0  0  0  0  0  0
   68.6699   46.4661   55.6656 C   0  0  0  0  0  0  0  0  0  0  0  0
   68.5927   46.6118   54.1882 C   0  0  0  0  0  0  0  0  0  0  0  0
   67.8079   45.7234   53.4421 C   0  0  0  0  0  0  0  0  0  0  0  0
   67.7022   45.8237   52.0796 C   0  0  0  0  0  0  0  0  0  0  0  0
   68.3663   46.8091   51.3751 C   0  0  0  0  0  0  0  0  0  0  0  0
   69.1374   47.6855   52.0888 C   0  0  0  0  0  0  0  0  0  0  0  0
   69.2402   47.5804   53.4642 C   0  0  0  0  0  0  0  0  0  0  0  0
   70.6709   37.6139   59.9796 C   0  0  0  0  0  0  0  0  0  0  0  0
   71.4026   36.7544   58.9879 C   0  0  0  0  0  0  0  0  0  0  0  0
   71.4782   35.3871   59.1603 C   0  0  0  0  0  0  0  0  0  0  0  0
   72.1338   34.5532   58.2891 C   0  0  0  0  0  0  0  0  0  0  0  0
   72.7445   35.1510   57.1832 C   0  0  0  0  0  0  0  0  0  0  0  0
   72.6728   36.4845   57.0118 N   0  0  0  0  0  0  0  0  0  0  0  0
   72.0186   37.2983   57.8843 C   0  0  0  0  0  0  0  0  0  0  0  0
 12 13  2  0
 13 14  1  0
 13  1  1  0
 14 15  1  0
 15 16  1  0
 16 17  2  0
 16 21  1  0
 17 18  1  0
 18 19  2  0
 19 20  1  0
 20 21  2  0
  1  2  2  0
  1  6  1  0
  2  3  1  0
  3  4  2  0
  4  5  1  0
  4 10  1  0
  5  6  2  0
  5  7  1  0
  7  8  2  0
  7  9  1  0
  9 22  1  0
  9 10  1  0
 22 23  1  0
 23 24  2  0
 23 28  1  0
 24 25  1  0
 25 26  2  0
 26 27  1  0
 27 28  2  0
 10 11  2  0
M  END
>  <minimizedAffinity>  (823) 
-8.93764

$$$$
data/reference_output_2/data/smiles/162334.pdb
     RDKit          3D

 27 31  0  0  0  0  0  0  0  0999 V2000
   69.7557   51.5461   55.2395 C   0  0  1  0  0  0  0  0  0  0  0  0
   68.2768   51.4778   55.4692 C   0  0  0  0  0  0  0  0  0  0  0  0
   68.0119   51.6302   56.9231 C   0  0  0  0  0  0  0  0  0  0  0  0
   68.7290   50.6576   57.8058 C   0  0  0  0  0  0  0  0  0  0  0  0
   70.0720   50.2298   57.3568 C   0  0  2  0  0  0  0  0  0  0  0  0
   70.3139   50.2757   55.8820 C   0  0  1  0  0  0  0  0  0  0  0  0
   69.7187   49.1159   55.1975 C   0  0  0  0  0  0  0  0  0  0  0  0
   69.3359   47.9588   55.7848 C   0  0  0  0  0  0  0  0  0  0  0  0
   68.8270   47.1163   54.7872 C   0  0  0  0  0  0  0  0  0  0  0  0
   68.2996   45.8478   54.7553 C   0  0  0  0  0  0  0  0  0  0  0  0
   68.1942   45.1275   55.9355 O   0  0  0  0  0  0  0  0  0  0  0  0
   67.8680   45.2610   53.5793 C   0  0  0  0  0  0  0  0  0  0  0  0
   67.9806   45.9919   52.4133 C   0  0  0  0  0  0  0  0  0  0  0  0
   68.5133   47.2757   52.4423 C   0  0  0  0  0  0  0  0  0  0  0  0
   68.9414   47.8516   53.6220 C   0  0  0  0  0  0  0  0  0  0  0  0
   69.4869   49.0650   53.8985 N   0  0  0  0  0  0  0  0  0  0  0  0
   69.8214   50.2108   53.1251 C   0  0  0  0  0  0  0  0  0  0  0  0
   69.9434   50.0799   51.9013 O   0  0  0  0  0  0  0  0  0  0  0  0
   70.0224   51.5369   53.7511 C   0  0  0  0  0  0  0  0  0  0  0  0
   69.4811   47.7716   57.2254 C   0  0  0  0  0  0  0  0  0  0  0  0
   70.3433   48.8134   57.8389 C   0  0  1  0  0  0  0  0  0  0  0  0
   71.7708   48.4800   57.8137 C   0  0  0  0  0  0  0  0  0  0  0  0
   72.2032   47.5890   58.5842 O   0  0  0  0  0  0  0  0  0  0  0  0
   72.7034   49.1143   56.9578 N   0  0  0  0  0  0  0  0  0  0  0  0
   74.0803   48.7637   56.9625 N   0  0  0  0  0  0  0  0  0  0  0  0
   71.8412   52.8123   55.3622 C   0  0  0  0  0  0  0  0  0  0  0  0
   70.4065   52.7583   55.8192 C   0  0  0  0  0  0  0  0  0  0  0  0
 26 27  1  0
  1 27  1  1
  1  2  1  0
  1  6  1  0
  1 19  1  0
  2  3  1  0
  3  4  1  0
  5  4  1  6
  5  6  1  0
  5 21  1  0
  6  7  1  6
  7  8  2  0
  7 16  1  0
  8  9  1  0
  8 20  1  0
  9 10  2  0
  9 15  1  0
 10 11  1  0
 10 12  1  0
 12 13  2  0
 13 14  1  0
 14 15  2  0
 15 16  1  0
 16 17  1  0
 17 18  2  0
 17 19  1  0
 20 21  1  0
 21 22  1  6
 22 23  2  0
 22 24  1  0
 24 25  1  0
M  END
>  <minimizedAffinity>  (824) 
-8.93449

$$$$
data/reference_output_2/data/smiles/162343.pdb
     RDKit          3D

 24 26  0  0  0  0  0  0  0  0999 V2000
   72.2682   51.1167   54.8467 C   0  0  2  0  0  0  0  0  0  0  0  0
   70.2875   50.9342   52.8843 O   0  0  0  0  0  0  0  0  0  0  0  0
   70.5316   49.8568   53.5334 C   0  0  0  0  0  0  0  0  0  0  0  0
   71.5356   49.9211   54.5369 N   0  0  0  0  0  0  0  0  0  0  0  0
   69.7977   48.6541   53.2273 C   0  0  0  0  0  0  0  0  0  0  0  0
   69.8038   48.0664   51.9894 C   0  0  0  0  0  0  0  0  0  0  0  0
   69.0840   46.8992   51.7289 C   0  0  0  0  0  0  0  0  0  0  0  0
   68.3453   46.3198   52.7440 C   0  0  0  0  0  0  0  0  0  0  0  0
   68.3268   46.8980   53.9985 C   0  0  0  0  0  0  0  0  0  0  0  0
   67.6157   46.3620   55.0234 F   0  0  0  0  0  0  0  0  0  0  0  0
   69.0559   48.0593   54.2215 C   0  0  0  0  0  0  0  0  0  0  0  0
   73.7243   50.9554   54.6239 C   0  0  0  0  0  0  0  0  0  0  0  0
   74.1560   50.2682   53.6738 O   0  0  0  0  0  0  0  0  0  0  0  0
   74.6314   51.5700   55.4728 O   0  0  0  0  0  0  0  0  0  0  0  0
   72.0371   51.4922   56.2935 C   0  0  0  0  0  0  0  0  0  0  0  0
   70.6146   51.8324   56.5452 C   0  0  0  0  0  0  0  0  0  0  0  0
   70.0588   53.0953   56.3637 C   0  0  0  0  0  0  0  0  0  0  0  0
   68.7567   53.0602   56.6429 N   0  0  0  0  0  0  0  0  0  0  0  0
   68.4212   51.8078   57.0088 C   0  0  0  0  0  0  0  0  0  0  0  0
   67.1998   51.2463   57.4029 C   0  0  0  0  0  0  0  0  0  0  0  0
   67.1363   49.9246   57.7377 C   0  0  0  0  0  0  0  0  0  0  0  0
   68.2729   49.1371   57.6900 C   0  0  0  0  0  0  0  0  0  0  0  0
   69.4643   49.7176   57.2961 C   0  0  0  0  0  0  0  0  0  0  0  0
   69.5645   51.0435   56.9516 C   0  0  0  0  0  0  0  0  0  0  0  0
  2  3  2  0
  3  4  1  0
  3  5  1  0
  4  1  1  0
  1 15  1  1
  1 12  1  0
 15 16  1  0
 16 17  2  0
 16 24  1  0
 17 18  1  0
 18 19  1  0
 19 20  1  0
 19 24  2  0
 20 21  2  0
 21 22  1  0
 22 23  2  0
 23 24  1  0
 12 13  2  0
 12 14  1  0
  5  6  2  0
  5 11  1  0
  6  7  1  0
  7  8  2  0
  8  9  1  0
  9 10  1  0
  9 11  2  0
M  END
>  <minimizedAffinity>  (825) 
-8.76875

$$$$
data/reference_output_2/data/smiles/162401.pdb
     RDKit          3D

 23 25  0  0  0  0  0  0  0  0999 V2000
   71.0182   50.7365   55.0798 N   0  0  0  0  0  0  0  0  0  0  0  0
   70.4563   49.7292   54.2483 C   0  0  0  0  0  0  0  0  0  0  0  0
   69.6145   48.7894   54.7422 N   0  0  0  0  0  0  0  0  0  0  0  0
   69.0719   47.8280   53.9731 C   0  0  0  0  0  0  0  0  0  0  0  0
   68.2097   46.8682   54.4860 C   0  0  0  0  0  0  0  0  0  0  0  0
   67.6714   45.8926   53.6578 C   0  0  0  0  0  0  0  0  0  0  0  0
   67.9766   45.8515   52.3125 C   0  0  0  0  0  0  0  0  0  0  0  0
   68.8316   46.7983   51.7889 C   0  0  0  0  0  0  0  0  0  0  0  0
   69.3651   47.7708   52.6250 C   0  0  0  0  0  0  0  0  0  0  0  0
   70.2255   48.7413   52.1518 C   0  0  0  0  0  0  0  0  0  0  0  0
   70.5010   48.6998   50.9248 O   0  0  0  0  0  0  0  0  0  0  0  0
   70.7177   49.6506   52.9613 O   0  0  0  0  0  0  0  0  0  0  0  0
   72.7228   50.8009   55.3062 S   0  0  0  0  0  0  0  0  0  0  0  0
   73.1082   49.7068   56.2575 O   0  0  0  0  0  0  0  0  0  0  0  0
   73.4650   50.6730   54.0135 O   0  0  0  0  0  0  0  0  0  0  0  0
   73.1269   52.3243   56.1053 C   0  0  0  0  0  0  0  0  0  0  0  0
   73.0513   52.4438   57.4787 C   0  0  0  0  0  0  0  0  0  0  0  0
   73.3719   53.6405   58.0811 C   0  0  0  0  0  0  0  0  0  0  0  0
   73.7685   54.7291   57.3377 C   0  0  0  0  0  0  0  0  0  0  0  0
   73.8483   54.6210   55.9576 C   0  0  0  0  0  0  0  0  0  0  0  0
   73.5282   53.4257   55.3646 C   0  0  0  0  0  0  0  0  0  0  0  0
   69.2526   52.3460   54.7478 C   0  0  0  0  0  0  0  0  0  0  0  0
   70.2121   51.7299   55.7588 C   0  0  0  0  0  0  0  0  0  0  0  0
 22 23  1  0
 23  1  1  0
  1  2  1  0
  1 13  1  0
  2  3  2  0
  2 12  1  0
  3  4  1  0
  4  5  2  0
  4  9  1  0
  5  6  1  0
  6  7  2  0
  7  8  1  0
  8  9  2  0
  9 10  1  0
 10 11  2  0
 10 12  1  0
 13 14  2  0
 13 15  2  0
 13 16  1  0
 16 17  2  0
 16 21  1  0
 17 18  1  0
 18 19  2  0
 19 20  1  0
 20 21  2  0
M  END
>  <minimizedAffinity>  (826) 
-8.66296

$$$$
data/reference_output_2/data/smiles/162707.pdb
     RDKit          3D

 23 25  0  0  0  0  0  0  0  0999 V2000
   70.1609   49.2893   54.1462 C   0  0  0  0  0  0  0  0  0  0  0  0
   69.6253   48.5848   55.1895 C   0  0  0  0  0  0  0  0  0  0  0  0
   68.7983   47.4557   54.9994 C   0  0  0  0  0  0  0  0  0  0  0  0
   68.4937   47.0130   53.7405 C   0  0  0  0  0  0  0  0  0  0  0  0
   67.6854   45.9266   53.4989 C   0  0  0  0  0  0  0  0  0  0  0  0
   67.3884   45.5064   52.1978 C   0  0  0  0  0  0  0  0  0  0  0  0
   67.9424   46.2293   51.1671 C   0  0  0  0  0  0  0  0  0  0  0  0
   68.7215   47.2792   51.4304 N   0  0  0  0  0  0  0  0  0  0  0  0
   69.0270   47.7112   52.6826 C   0  0  0  0  0  0  0  0  0  0  0  0
   69.8291   48.8058   52.8724 C   0  0  0  0  0  0  0  0  0  0  0  0
   70.3317   49.4616   51.7631 O   0  0  0  0  0  0  0  0  0  0  0  0
   71.3281   51.6644   57.4267 C   0  0  0  0  0  0  0  0  0  0  0  0
   70.8129   52.9630   56.8563 C   0  0  0  0  0  0  0  0  0  0  0  0
   71.8124   53.5403   55.8764 C   0  0  0  0  0  0  0  0  0  0  0  0
   72.0090   52.6292   54.6755 C   0  0  0  0  0  0  0  0  0  0  0  0
   70.8102   51.7474   54.5618 N   0  0  0  0  0  0  0  0  0  0  0  0
   71.0628   50.4269   54.2646 C   0  0  0  0  0  0  0  0  0  0  0  0
   72.3152   50.1083   54.0458 O   0  0  0  0  0  0  0  0  0  0  0  0
   69.5889   52.4588   54.7452 C   0  0  0  0  0  0  0  0  0  0  0  0
   69.4485   52.7173   56.2332 C   0  0  0  0  0  0  0  0  0  0  0  0
   68.3107   46.8281   56.1597 N   0  0  0  0  0  0  0  0  0  0  0  0
   67.5650   47.3888   56.9496 O   0  0  0  0  0  0  0  0  0  0  0  0
   68.6406   45.5087   56.4250 O   0  0  0  0  0  0  0  0  0  0  0  0
 12 13  1  0
 13 14  1  0
 13 20  1  0
 14 15  1  0
 15 16  1  0
 16 17  1  0
 16 19  1  0
 17 18  2  0
 17  1  1  0
  1  2  2  0
  1 10  1  0
  2  3  1  0
  3 21  1  0
  3  4  2  0
 21 22  2  0
 21 23  1  0
  4  5  1  0
  4  9  1  0
  5  6  2  0
  6  7  1  0
  7  8  2  0
  8  9  1  0
  9 10  2  0
 10 11  1  0
 19 20  1  0
M  CHG  2  21   1  23  -1
M  END
>  <minimizedAffinity>  (827) 
-8.93943

$$$$
data/reference_output_2/data/smiles/162790.pdb
     RDKit          3D

 22 23  0  0  0  0  0  0  0  0999 V2000
   68.8333   46.0818   56.2285 C   0  0  0  0  0  0  0  0  0  0  0  0
   69.5788   46.2154   57.2243 O   0  0  0  0  0  0  0  0  0  0  0  0
   68.4214   44.7479   55.8896 N   0  0  0  0  0  0  0  0  0  0  0  0
   68.8295   43.6320   56.6314 N   0  0  0  0  0  0  0  0  0  0  0  0
   68.2154   42.5035   56.5808 C   0  0  0  0  0  0  0  0  0  0  0  0
   67.0303   42.3867   55.6998 C   0  0  0  0  0  0  0  0  0  0  0  0
   68.6222   41.3320   57.3419 C   0  0  0  0  0  0  0  0  0  0  0  0
   69.7815   41.2948   58.0869 C   0  0  0  0  0  0  0  0  0  0  0  0
   70.1946   40.2178   58.8105 C   0  0  0  0  0  0  0  0  0  0  0  0
   69.4285   39.0757   58.8216 C   0  0  0  0  0  0  0  0  0  0  0  0
   69.9152   37.6741   59.7312 Cl  0  0  0  0  0  0  0  0  0  0  0  0
   68.2572   39.0686   58.0870 C   0  0  0  0  0  0  0  0  0  0  0  0
   67.8532   40.1710   57.3580 C   0  0  0  0  0  0  0  0  0  0  0  0
   68.4049   47.2635   55.4484 C   0  0  0  0  0  0  0  0  0  0  0  0
   69.4617   47.5089   54.4141 C   0  0  0  0  0  0  0  0  0  0  0  0
   67.8365   45.7274   52.4584 C   0  0  0  0  0  0  0  0  0  0  0  0
   68.7489   46.8630   52.2080 C   0  0  0  0  0  0  0  0  0  0  0  0
   69.5009   46.9594   51.1684 N   0  0  0  0  0  0  0  0  0  0  0  0
   70.2491   48.1414   51.2126 N   0  0  0  0  0  0  0  0  0  0  0  0
   69.9253   48.8379   52.3930 C   0  0  0  0  0  0  0  0  0  0  0  0
   70.4141   49.9338   52.7445 O   0  0  0  0  0  0  0  0  0  0  0  0
   68.9192   48.0313   53.1112 C   0  0  2  0  0  0  0  0  0  0  0  0
 16 17  1  0
 17 18  2  0
 17 22  1  0
 18 19  1  0
 19 20  1  0
 20 21  2  0
 20 22  1  0
 22 15  1  1
 15 14  1  0
 14  1  1  0
  1  2  2  0
  1  3  1  0
  3  4  1  0
  4  5  2  0
  5  6  1  0
  5  7  1  0
  7  8  2  0
  7 13  1  0
  8  9  1  0
  9 10  2  0
 10 11  1  0
 10 12  1  0
 12 13  2  0
M  END
>  <minimizedAffinity>  (828) 
-8.59971

$$$$
data/reference_output_2/data/smiles/162813.pdb
     RDKit          3D

 25 28  0  0  0  0  0  0  0  0999 V2000
   69.3751   45.4963   56.9570 N   0  0  0  0  0  0  0  0  0  0  0  0
   69.6440   46.8743   57.0551 C   0  0  0  0  0  0  0  0  0  0  0  0
   70.7081   47.2630   57.5780 O   0  0  0  0  0  0  0  0  0  0  0  0
   67.5426   40.7535   57.2193 N   0  0  0  0  0  0  0  0  0  0  0  0
   68.6918   41.5529   57.4816 C   0  0  0  0  0  0  0  0  0  0  0  0
   68.7224   42.8295   57.2544 N   0  0  0  0  0  0  0  0  0  0  0  0
   70.0044   43.3500   57.6169 C   0  0  0  0  0  0  0  0  0  0  0  0
   70.3439   44.6005   57.4904 N   0  0  0  0  0  0  0  0  0  0  0  0
   70.7797   42.2266   58.1036 C   0  0  0  0  0  0  0  0  0  0  0  0
   72.0594   42.0999   58.5779 C   0  0  0  0  0  0  0  0  0  0  0  0
   72.5392   40.8693   58.9708 C   0  0  0  0  0  0  0  0  0  0  0  0
   71.7304   39.7469   58.8905 C   0  0  0  0  0  0  0  0  0  0  0  0
   70.4347   39.8842   58.4089 C   0  0  0  0  0  0  0  0  0  0  0  0
   69.9556   41.1039   58.0175 C   0  0  0  0  0  0  0  0  0  0  0  0
   68.6465   47.8551   56.5395 C   0  0  0  0  0  0  0  0  0  0  0  0
   69.0521   48.2062   55.1669 C   0  0  0  0  0  0  0  0  0  0  0  0
   69.8987   49.2907   54.9927 C   0  0  0  0  0  0  0  0  0  0  0  0
   70.4098   49.6653   53.7690 C   0  0  0  0  0  0  0  0  0  0  0  0
   70.0693   48.9375   52.6670 C   0  0  0  0  0  0  0  0  0  0  0  0
   69.2363   47.8596   52.7906 C   0  0  0  0  0  0  0  0  0  0  0  0
   68.8511   47.1019   51.7162 C   0  0  0  0  0  0  0  0  0  0  0  0
   67.9995   46.0159   51.7926 C   0  0  0  0  0  0  0  0  0  0  0  0
   67.5121   45.6816   53.0415 C   0  0  0  0  0  0  0  0  0  0  0  0
   67.8874   46.4307   54.1423 C   0  0  0  0  0  0  0  0  0  0  0  0
   68.7256   47.4914   54.0388 C   0  0  0  0  0  0  0  0  0  0  0  0
  4  5  1  0
  5  6  2  0
  5 14  1  0
  6  7  1  0
  7  8  2  0
  7  9  1  0
  8  1  1  0
  1  2  1  0
  2  3  2  0
  2 15  1  0
 15 16  1  0
 16 17  2  0
 16 25  1  0
 17 18  1  0
 18 19  2  0
 19 20  1  0
 20 21  1  0
 20 25  2  0
 21 22  2  0
 22 23  1  0
 23 24  2  0
 24 25  1  0
  9 10  2  0
  9 14  1  0
 10 11  1  0
 11 12  2  0
 12 13  1  0
 13 14  2  0
M  CHG  2   6   1   8   1
M  END
>  <minimizedAffinity>  (829) 
-8.61336

$$$$
data/reference_output_2/data/smiles/162980.pdb
     RDKit          3D

 25 26  0  0  0  0  0  0  0  0999 V2000
   67.9063   42.6817   56.1382 C   0  0  0  0  0  0  0  0  0  0  0  0
   69.0435   43.0139   56.6119 O   0  0  0  0  0  0  0  0  0  0  0  0
   67.3345   43.6155   55.2388 N   0  0  0  0  0  0  0  0  0  0  0  0
   68.0151   44.7981   54.9391 N   0  0  0  0  0  0  0  0  0  0  0  0
   67.8965   45.4822   53.7129 C   0  0  0  0  0  0  0  0  0  0  0  0
   67.1078   44.9459   52.8626 O   0  0  0  0  0  0  0  0  0  0  0  0
   68.5855   46.7111   53.3634 C   0  0  0  0  0  0  0  0  0  0  0  0
   69.1522   46.9142   52.1287 C   0  0  0  0  0  0  0  0  0  0  0  0
   69.8113   48.1082   51.8182 C   0  0  0  0  0  0  0  0  0  0  0  0
   69.9033   49.1106   52.7520 C   0  0  0  0  0  0  0  0  0  0  0  0
   69.3412   48.9220   53.9888 C   0  0  0  0  0  0  0  0  0  0  0  0
   69.4674   50.2088   55.1681 Cl  0  0  0  0  0  0  0  0  0  0  0  0
   68.6876   47.7253   54.2859 C   0  0  0  0  0  0  0  0  0  0  0  0
   67.3170   41.4201   56.5413 C   0  0  1  0  0  0  0  0  0  0  0  0
   67.4078   40.5495   55.4072 O   0  0  0  0  0  0  0  0  0  0  0  0
   68.1473   39.2717   57.2204 N   0  0  0  0  0  0  0  0  0  0  0  0
   68.1819   40.7200   57.5666 C   0  0  2  0  0  0  0  0  0  0  0  0
   67.7595   40.8016   58.9779 C   0  0  0  0  0  0  0  0  0  0  0  0
   68.5964   41.7935   59.7391 C   0  0  0  0  0  0  0  0  0  0  0  0
   68.1161   41.9164   61.1930 C   0  0  0  0  0  0  0  0  0  0  0  0
   66.7803   42.5441   61.3074 C   0  0  0  0  0  0  0  0  0  0  0  0
   65.6005   41.6672   61.3398 C   0  0  0  0  0  0  0  0  0  0  0  0
   65.8173   40.2096   61.4955 C   0  0  0  0  0  0  0  0  0  0  0  0
   65.9798   39.4861   60.1673 C   0  0  0  0  0  0  0  0  0  0  0  0
   67.4280   39.5415   59.6900 C   0  0  0  0  0  0  0  0  0  0  0  0
 17 16  1  6
 17 18  1  0
 17 14  1  0
 18 19  1  0
 18 25  1  0
 19 20  1  0
 20 21  1  0
 21 22  1  0
 22 23  1  0
 23 24  1  0
 24 25  1  0
 14 15  1  6
 14  1  1  0
  1  2  2  0
  1  3  1  0
  3  4  1  0
  4  5  1  0
  5  6  2  0
  5  7  1  0
  7  8  2  0
  7 13  1  0
  8  9  1  0
  9 10  2  0
 10 11  1  0
 11 12  1  0
 11 13  2  0
M  CHG  1  16   1
M  END
>  <minimizedAffinity>  (830) 
-8.68423

$$$$
data/reference_output_2/data/smiles/163251.pdb
     RDKit          3D

 28 31  0  0  0  0  0  0  0  0999 V2000
   69.3836   44.5707   57.1739 C   0  0  0  0  0  0  0  0  0  0  0  0
   68.4833   43.8817   56.3507 N   0  0  0  0  0  0  0  0  0  0  0  0
   68.4179   42.6073   56.7018 C   0  0  0  0  0  0  0  0  0  0  0  0
   67.7149   41.5129   56.2313 C   0  0  0  0  0  0  0  0  0  0  0  0
   67.8730   40.2701   56.8160 C   0  0  0  0  0  0  0  0  0  0  0  0
   68.7302   40.0985   57.8753 C   0  0  0  0  0  0  0  0  0  0  0  0
   69.4245   41.2297   58.3257 C   0  0  0  0  0  0  0  0  0  0  0  0
   69.2718   42.4636   57.7518 C   0  0  0  0  0  0  0  0  0  0  0  0
   69.8578   43.6860   58.0307 N   0  0  0  0  0  0  0  0  0  0  0  0
   70.9048   43.8959   59.3804 S   0  0  0  0  0  0  0  0  0  0  0  0
   71.1523   45.4152   59.4805 O   0  0  0  0  0  0  0  0  0  0  0  0
   70.4139   43.4827   60.6709 O   0  0  0  0  0  0  0  0  0  0  0  0
   72.5231   43.2484   59.0463 C   0  0  0  0  0  0  0  0  0  0  0  0
   73.3599   42.8179   60.0378 C   0  0  0  0  0  0  0  0  0  0  0  0
   74.6233   42.3203   59.7987 C   0  0  0  0  0  0  0  0  0  0  0  0
   75.0248   42.2726   58.4738 C   0  0  0  0  0  0  0  0  0  0  0  0
   74.2110   42.6967   57.4466 C   0  0  0  0  0  0  0  0  0  0  0  0
   72.9661   43.1818   57.7410 C   0  0  0  0  0  0  0  0  0  0  0  0
   69.5154   45.9348   56.9424 N   0  0  0  0  0  0  0  0  0  0  0  0
   67.3479   47.3729   56.5376 O   0  0  0  0  0  0  0  0  0  0  0  0
   68.8116   47.1462   56.0567 S   0  0  0  0  0  0  0  0  0  0  0  0
   69.4425   48.5023   56.3795 O   0  0  0  0  0  0  0  0  0  0  0  0
   68.6527   46.9530   54.3461 C   0  0  0  0  0  0  0  0  0  0  0  0
   69.2969   47.7730   53.4744 C   0  0  0  0  0  0  0  0  0  0  0  0
   69.1902   47.6420   52.1105 C   0  0  0  0  0  0  0  0  0  0  0  0
   68.3994   46.6396   51.6110 C   0  0  0  0  0  0  0  0  0  0  0  0
   67.7298   45.7882   52.4658 C   0  0  0  0  0  0  0  0  0  0  0  0
   67.8589   45.9471   53.8398 C   0  0  0  0  0  0  0  0  0  0  0  0
 20 21  2  0
 21 22  2  0
 21 19  1  0
 21 23  1  0
 19  1  1  0
  1  2  2  0
  1  9  1  0
  2  3  1  0
  3  4  2  0
  3  8  1  0
  4  5  1  0
  5  6  2  0
  6  7  1  0
  7  8  2  0
  8  9  1  0
  9 10  1  0
 10 11  2  0
 10 12  2  0
 10 13  1  0
 13 14  2  0
 13 18  1  0
 14 15  1  0
 15 16  2  0
 16 17  1  0
 17 18  2  0
 23 24  2  0
 23 28  1  0
 24 25  1  0
 25 26  2  0
 26 27  1  0
 27 28  2  0
M  END
>  <minimizedAffinity>  (831) 
-9.24685

$$$$
data/reference_output_2/data/smiles/163278.pdb
     RDKit          3D

 32 36  0  0  0  0  0  0  0  0999 V2000
   69.3596   51.5341   55.4875 C   0  0  0  0  0  0  0  0  0  0  0  0
   68.3098   51.3087   56.3517 C   0  0  0  0  0  0  0  0  0  0  0  0
   68.5151   51.1584   57.7062 C   0  0  0  0  0  0  0  0  0  0  0  0
   69.8131   51.2409   58.1866 C   0  0  0  0  0  0  0  0  0  0  0  0
   70.0173   51.0829   59.5189 F   0  0  0  0  0  0  0  0  0  0  0  0
   70.8927   51.4631   57.3756 C   0  0  0  0  0  0  0  0  0  0  0  0
   70.6330   51.6082   56.0068 C   0  0  0  0  0  0  0  0  0  0  0  0
   72.2616   51.5672   57.8168 C   0  0  0  0  0  0  0  0  0  0  0  0
   72.8533   52.6630   57.6265 O   0  0  0  0  0  0  0  0  0  0  0  0
   72.9145   50.4987   58.4366 N   0  0  0  0  0  0  0  0  0  0  0  0
   74.3064   50.7160   58.8498 C   0  0  0  0  0  0  0  0  0  0  0  0
   74.4048   50.4882   60.3453 C   0  0  0  0  0  0  0  0  0  0  0  0
   73.8099   49.1497   60.6571 C   0  0  0  0  0  0  0  0  0  0  0  0
   74.2580   48.4616   61.7904 C   0  0  0  0  0  0  0  0  0  0  0  0
   73.7795   47.2214   62.1256 C   0  0  0  0  0  0  0  0  0  0  0  0
   72.8352   46.6676   61.2999 C   0  0  0  0  0  0  0  0  0  0  0  0
   72.3495   47.2914   60.1633 C   0  0  0  0  0  0  0  0  0  0  0  0
   72.8683   48.5509   59.8756 C   0  0  0  0  0  0  0  0  0  0  0  0
   72.2541   49.2682   58.7019 C   0  0  2  0  0  0  0  0  0  0  0  0
   72.1139   48.3006   57.5907 C   0  0  0  0  0  0  0  0  0  0  0  0
   71.1161   47.3092   58.0627 N   0  0  0  0  0  0  0  0  0  0  0  0
   71.4318   46.5988   59.2648 C   0  0  0  0  0  0  0  0  0  0  0  0
   70.9630   45.4803   59.5268 O   0  0  0  0  0  0  0  0  0  0  0  0
   69.1154   51.6929   54.0305 C   0  0  0  0  0  0  0  0  0  0  0  0
   68.7251   46.7855   53.7854 C   0  0  0  0  0  0  0  0  0  0  0  0
   69.1636   48.0651   53.1664 C   0  0  0  0  0  0  0  0  0  0  0  0
   68.9365   49.2313   53.8737 C   0  0  0  0  0  0  0  0  0  0  0  0
   69.3376   50.4114   53.3106 C   0  0  0  0  0  0  0  0  0  0  0  0
   69.9323   50.4015   52.1032 N   0  0  0  0  0  0  0  0  0  0  0  0
   70.1449   49.2806   51.4350 N   0  0  0  0  0  0  0  0  0  0  0  0
   69.7797   48.0782   51.9218 C   0  0  0  0  0  0  0  0  0  0  0  0
   69.9834   47.0154   51.2848 O   0  0  0  0  0  0  0  0  0  0  0  0
 25 26  1  0
 26 27  2  0
 26 31  1  0
 27 28  1  0
 28 24  1  0
 28 29  2  0
 24  1  1  0
  1  2  2  0
  1  7  1  0
  2  3  1  0
  3  4  2  0
  4  5  1  0
  4  6  1  0
  6  8  1  0
  6  7  2  0
  8  9  2  0
  8 10  1  0
 10 11  1  0
 10 19  1  0
 11 12  1  0
 12 13  1  0
 13 14  2  0
 13 18  1  0
 14 15  1  0
 15 16  2  0
 16 17  1  0
 17 18  2  0
 17 22  1  0
 18 19  1  0
 19 20  1  6
 20 21  1  0
 21 22  1  0
 22 23  2  0
 29 30  1  0
 30 31  1  0
 31 32  2  0
M  END
>  <minimizedAffinity>  (832) 
-9.04760

$$$$
data/reference_output_2/data/smiles/163306.pdb
     RDKit          3D

 27 30  0  0  0  0  0  0  0  0999 V2000
   70.3785   44.9774   57.6347 C   0  0  0  0  0  0  0  0  0  0  0  0
   70.9085   46.0520   58.3051 C   0  0  0  0  0  0  0  0  0  0  0  0
   70.4208   47.3466   58.0661 C   0  0  0  0  0  0  0  0  0  0  0  0
   70.9562   48.4004   58.7378 N   0  0  0  0  0  0  0  0  0  0  0  0
   70.4992   49.6464   58.5197 C   0  0  0  0  0  0  0  0  0  0  0  0
   69.4885   49.8931   57.6224 C   0  0  0  0  0  0  0  0  0  0  0  0
   68.9364   48.8238   56.9339 C   0  0  0  0  0  0  0  0  0  0  0  0
   69.4161   47.5521   57.1688 C   0  0  0  0  0  0  0  0  0  0  0  0
   68.8794   46.4313   56.4852 C   0  0  0  0  0  0  0  0  0  0  0  0
   69.3938   45.2258   56.7621 N   0  0  0  0  0  0  0  0  0  0  0  0
   70.3653   41.2378   58.0669 C   0  0  0  0  0  0  0  0  0  0  0  0
   69.9859   42.5416   57.8648 C   0  0  0  0  0  0  0  0  0  0  0  0
   70.8797   43.6031   57.8566 C   0  0  0  0  0  0  0  0  0  0  0  0
   72.1965   43.2988   58.0641 C   0  0  0  0  0  0  0  0  0  0  0  0
   72.6436   41.9968   58.2742 C   0  0  0  0  0  0  0  0  0  0  0  0
   71.7020   40.9970   58.2695 C   0  0  0  0  0  0  0  0  0  0  0  0
   72.0954   39.7213   58.4708 F   0  0  0  0  0  0  0  0  0  0  0  0
   68.1312   40.4603   57.5575 C   0  0  0  0  0  0  0  0  0  0  0  0
   69.4220   40.1914   58.0668 O   0  0  0  0  0  0  0  0  0  0  0  0
   67.8886   46.6494   55.5942 O   0  0  0  0  0  0  0  0  0  0  0  0
   67.7172   46.2967   54.3123 C   0  0  0  0  0  0  0  0  0  0  0  0
   68.6595   46.6658   53.2459 C   0  0  1  0  0  0  0  0  0  0  0  0
   68.3050   46.4912   51.8251 C   0  0  0  0  0  0  0  0  0  0  0  0
   69.5166   47.0967   51.1963 N   0  0  0  0  0  0  0  0  0  0  0  0
   69.9701   48.1392   52.0367 C   0  0  0  0  0  0  0  0  0  0  0  0
   70.9180   48.9463   51.8792 O   0  0  0  0  0  0  0  0  0  0  0  0
   69.0771   48.1470   53.2569 C   0  0  0  0  0  0  0  0  0  0  0  0
 18 19  1  0
 19 11  1  0
 11 12  2  0
 11 16  1  0
 12 13  1  0
 13  1  1  0
 13 14  2  0
  1  2  2  0
  1 10  1  0
  2  3  1  0
  3  4  2  0
  3  8  1  0
  4  5  1  0
  5  6  2  0
  6  7  1  0
  7  8  2  0
  8  9  1  0
  9 20  1  0
  9 10  2  0
 20 21  1  0
 22 21  1  1
 22 23  1  0
 22 27  1  0
 23 24  1  0
 24 25  1  0
 25 26  2  0
 25 27  1  0
 14 15  1  0
 15 16  2  0
 16 17  1  0
M  END
>  <minimizedAffinity>  (833) 
-8.56213

$$$$
data/reference_output_2/data/smiles/163369.pdb
     RDKit          3D

 23 24  0  0  0  0  0  0  0  0999 V2000
   71.1451   46.2980   58.3971 C   0  0  0  0  0  0  0  0  0  0  0  0
   70.0986   46.7983   57.6508 C   0  0  0  0  0  0  0  0  0  0  0  0
   69.2384   45.9821   56.9372 C   0  0  0  0  0  0  0  0  0  0  0  0
   69.4407   44.6536   56.9831 N   0  0  0  0  0  0  0  0  0  0  0  0
   70.4534   44.1052   57.6995 C   0  0  0  0  0  0  0  0  0  0  0  0
   71.3036   44.9282   58.4053 C   0  0  0  0  0  0  0  0  0  0  0  0
   70.6173   42.6274   57.7030 C   0  0  0  0  0  0  0  0  0  0  0  0
   71.8638   42.2869   57.1664 F   0  0  0  0  0  0  0  0  0  0  0  0
   70.5916   42.1236   58.9895 F   0  0  0  0  0  0  0  0  0  0  0  0
   69.6044   42.0591   56.9697 F   0  0  0  0  0  0  0  0  0  0  0  0
   71.6339   47.3242   60.5249 N   0  0  0  0  0  0  0  0  0  0  0  0
   72.0799   47.1573   59.1695 C   0  0  0  0  0  0  0  0  0  0  0  0
   68.2025   46.5509   56.2053 O   0  0  0  0  0  0  0  0  0  0  0  0
   68.3803   46.7048   54.8476 C   0  0  0  0  0  0  0  0  0  0  0  0
   68.0376   45.7278   53.9441 C   0  0  0  0  0  0  0  0  0  0  0  0
   68.2164   45.8859   52.5848 C   0  0  0  0  0  0  0  0  0  0  0  0
   68.7629   47.0709   52.1001 C   0  0  0  0  0  0  0  0  0  0  0  0
   69.1105   48.0526   52.9836 C   0  0  0  0  0  0  0  0  0  0  0  0
   68.9188   47.8711   54.3611 C   0  0  0  0  0  0  0  0  0  0  0  0
   69.6810   49.2949   52.4926 C   0  0  0  0  0  0  0  0  0  0  0  0
   70.0799   49.3470   51.2753 O   0  0  0  0  0  0  0  0  0  0  0  0
   69.8180   50.4495   53.2869 N   0  0  0  0  0  0  0  0  0  0  0  0
   70.3719   51.5613   52.7041 O   0  0  0  0  0  0  0  0  0  0  0  0
 11 12  1  0
 12  1  1  0
  1  2  2  0
  1  6  1  0
  2  3  1  0
  3 13  1  0
  3  4  2  0
 13 14  1  0
 14 15  2  0
 14 19  1  0
 15 16  1  0
 16 17  2  0
 17 18  1  0
 18 20  1  0
 18 19  2  0
 20 21  2  0
 20 22  1  0
 22 23  1  0
  4  5  1  0
  5  7  1  0
  5  6  2  0
  7  8  1  0
  7  9  1  0
  7 10  1  0
M  CHG  1  11   1
M  END
>  <minimizedAffinity>  (834) 
-8.83620

$$$$
data/reference_output_2/data/smiles/163483.pdb
     RDKit          3D

 25 27  0  0  0  0  0  0  0  0999 V2000
   68.1503   43.8271   55.7765 C   0  0  0  0  0  0  0  0  0  0  0  0
   68.9874   43.2314   56.6756 C   0  0  0  0  0  0  0  0  0  0  0  0
   68.7712   41.9804   57.2553 C   0  0  0  0  0  0  0  0  0  0  0  0
   67.6566   41.3328   56.8916 N   0  0  0  0  0  0  0  0  0  0  0  0
   66.7948   41.8937   55.9962 C   0  0  0  0  0  0  0  0  0  0  0  0
   67.0337   43.0893   55.4633 N   0  0  0  0  0  0  0  0  0  0  0  0
   68.7506   46.2105   55.8375 C   0  0  0  0  0  0  0  0  0  0  0  0
   68.9077   47.4420   55.1902 C   0  0  0  0  0  0  0  0  0  0  0  0
   68.6252   47.5185   53.8512 C   0  0  0  0  0  0  0  0  0  0  0  0
   68.1964   46.4418   53.1217 C   0  0  0  0  0  0  0  0  0  0  0  0
   67.9389   46.5972   51.8077 F   0  0  0  0  0  0  0  0  0  0  0  0
   68.0473   45.2399   53.7766 C   0  0  0  0  0  0  0  0  0  0  0  0
   68.3269   45.1226   55.1448 C   0  0  0  0  0  0  0  0  0  0  0  0
   70.1578   46.8849   57.7105 C   0  0  0  0  0  0  0  0  0  0  0  0
   69.0539   46.2152   57.1809 O   0  0  0  0  0  0  0  0  0  0  0  0
   69.6809   41.4136   58.1856 N   0  0  0  0  0  0  0  0  0  0  0  0
   69.7494   40.0125   58.4019 C   0  0  0  0  0  0  0  0  0  0  0  0
   68.9597   39.2955   57.7248 O   0  0  0  0  0  0  0  0  0  0  0  0
   70.7118   39.4169   59.3873 C   0  0  0  0  0  0  0  0  0  0  0  0
   71.1425   38.0701   58.9707 C   0  0  0  0  0  0  0  0  0  0  0  0
   71.9625   37.8117   57.8952 C   0  0  0  0  0  0  0  0  0  0  0  0
   72.3617   36.5529   57.5095 C   0  0  0  0  0  0  0  0  0  0  0  0
   71.9339   35.5012   58.2140 N   0  0  0  0  0  0  0  0  0  0  0  0
   71.1338   35.7089   59.2680 C   0  0  0  0  0  0  0  0  0  0  0  0
   70.7117   36.9499   59.6863 C   0  0  0  0  0  0  0  0  0  0  0  0
 14 15  1  0
 15  7  1  0
  7  8  2  0
  7 13  1  0
  8  9  1  0
  9 10  2  0
 10 11  1  0
 10 12  1  0
 12 13  2  0
 13  1  1  0
  1  2  2  0
  1  6  1  0
  2  3  1  0
  3 16  1  0
  3  4  2  0
 16 17  1  0
 17 18  2  0
 17 19  1  0
 19 20  1  0
 20 21  2  0
 20 25  1  0
 21 22  1  0
 22 23  2  0
 23 24  1  0
 24 25  2  0
  4  5  1  0
  5  6  2  0
M  END
>  <minimizedAffinity>  (835) 
-8.66896

$$$$
data/reference_output_2/data/smiles/163505.pdb
     RDKit          3D

 28 31  0  0  0  0  0  0  0  0999 V2000
   70.6169   45.8092   58.4106 C   0  0  0  0  0  0  0  0  0  0  0  0
   69.7710   46.2133   57.4536 N   0  0  0  0  0  0  0  0  0  0  0  0
   70.1293   47.4538   57.0424 C   0  0  0  0  0  0  0  0  0  0  0  0
   71.1951   47.7619   57.7756 N   0  0  0  0  0  0  0  0  0  0  0  0
   71.4760   46.7838   58.5810 O   0  0  0  0  0  0  0  0  0  0  0  0
   70.6464   44.5400   59.1708 C   0  0  0  0  0  0  0  0  0  0  0  0
   68.0932   38.6424   58.9575 C   0  0  0  0  0  0  0  0  0  0  0  0
   68.2535   39.6960   57.9218 C   0  0  0  0  0  0  0  0  0  0  0  0
   67.7877   39.4347   56.7828 O   0  0  0  0  0  0  0  0  0  0  0  0
   68.8965   40.9361   58.1955 N   0  0  0  0  0  0  0  0  0  0  0  0
   69.4332   41.2494   59.4909 C   0  0  0  0  0  0  0  0  0  0  0  0
   69.2159   42.6973   59.7738 C   0  0  0  0  0  0  0  0  0  0  0  0
   69.6548   43.6018   58.7959 N   0  0  0  0  0  0  0  0  0  0  0  0
   69.7876   43.1087   57.4651 C   0  0  0  0  0  0  0  0  0  0  0  0
   69.0091   41.8933   57.1474 C   0  0  0  0  0  0  0  0  0  0  0  0
   69.5218   48.3325   56.0102 C   0  0  0  0  0  0  0  0  0  0  0  0
   69.0252   47.5348   54.8769 C   0  0  0  0  0  0  0  0  0  0  0  0
   69.2685   47.9322   53.5576 C   0  0  0  0  0  0  0  0  0  0  0  0
   68.8437   47.2112   52.4820 C   0  0  0  0  0  0  0  0  0  0  0  0
   68.1436   46.0407   52.6870 C   0  0  0  0  0  0  0  0  0  0  0  0
   67.8849   45.6167   53.9533 C   0  0  0  0  0  0  0  0  0  0  0  0
   68.3286   46.3696   55.0479 C   0  0  0  0  0  0  0  0  0  0  0  0
   68.5107   49.2144   56.6126 C   0  0  0  0  0  0  0  0  0  0  0  0
   67.5422   48.7909   57.4770 C   0  0  0  0  0  0  0  0  0  0  0  0
   66.6115   49.6985   58.0197 C   0  0  0  0  0  0  0  0  0  0  0  0
   66.6582   51.0246   57.6914 C   0  0  0  0  0  0  0  0  0  0  0  0
   67.6315   51.4614   56.8198 C   0  0  0  0  0  0  0  0  0  0  0  0
   68.5426   50.5714   56.2883 C   0  0  0  0  0  0  0  0  0  0  0  0
  7  8  1  0
  8  9  2  0
  8 10  1  0
 10 11  1  0
 10 15  1  0
 11 12  1  0
 12 13  1  0
 13  6  1  0
 13 14  1  0
  6  1  1  0
  1  2  2  0
  1  5  1  0
  2  3  1  0
  3 16  1  0
  3  4  2  0
 16 17  1  0
 16 23  1  0
 17 18  2  0
 17 22  1  0
 18 19  1  0
 19 20  2  0
 20 21  1  0
 21 22  2  0
 23 24  2  0
 23 28  1  0
 24 25  1  0
 25 26  2  0
 26 27  1  0
 27 28  2  0
  4  5  1  0
 14 15  1  0
M  CHG  1  13   1
M  END
>  <minimizedAffinity>  (836) 
-8.81175

$$$$
data/reference_output_2/data/smiles/163551.pdb
     RDKit          3D

 24 27  0  0  0  0  0  0  0  0999 V2000
   72.5181   35.4787   52.1493 O   0  0  0  0  0  0  0  0  0  0  0  0
   73.2210   35.4191   53.2026 C   0  0  0  0  0  0  0  0  0  0  0  0
   72.5734   35.5258   54.4342 C   0  0  0  0  0  0  0  0  0  0  0  0
   73.3036   35.4657   55.5998 C   0  0  0  0  0  0  0  0  0  0  0  0
   74.6295   35.3018   55.4427 N   0  0  0  0  0  0  0  0  0  0  0  0
   75.2428   35.1987   54.2334 C   0  0  0  0  0  0  0  0  0  0  0  0
   76.5314   35.0348   53.8625 N   0  0  0  0  0  0  0  0  0  0  0  0
   76.6373   34.9910   52.5242 C   0  0  0  0  0  0  0  0  0  0  0  0
   75.3850   35.1307   52.0559 N   0  0  0  0  0  0  0  0  0  0  0  0
   74.5448   35.2568   53.0928 N   0  0  0  0  0  0  0  0  0  0  0  0
   72.6945   35.5703   56.9305 C   0  0  0  0  0  0  0  0  0  0  0  0
   72.2764   36.7770   57.4181 C   0  0  0  0  0  0  0  0  0  0  0  0
   71.6925   36.8860   58.6910 C   0  0  0  0  0  0  0  0  0  0  0  0
   71.5179   35.7898   59.4967 C   0  0  0  0  0  0  0  0  0  0  0  0
   71.9329   34.5710   59.0221 C   0  0  0  0  0  0  0  0  0  0  0  0
   72.5121   34.4808   57.7521 C   0  0  0  0  0  0  0  0  0  0  0  0
   77.8898   34.8198   51.7111 C   0  0  0  0  0  0  0  0  0  0  0  0
   77.5629   34.7341   50.2730 C   0  0  0  0  0  0  0  0  0  0  0  0
   76.7688   33.7400   49.7650 C   0  0  0  0  0  0  0  0  0  0  0  0
   76.4718   33.6755   48.4126 C   0  0  0  0  0  0  0  0  0  0  0  0
   76.9834   34.6293   47.5498 C   0  0  0  0  0  0  0  0  0  0  0  0
   76.6787   34.5431   46.2328 F   0  0  0  0  0  0  0  0  0  0  0  0
   77.7847   35.6305   48.0704 C   0  0  0  0  0  0  0  0  0  0  0  0
   78.0682   35.6776   49.4184 C   0  0  0  0  0  0  0  0  0  0  0  0
  1  2  2  0
  2  3  1  0
  2 10  1  0
  3  4  2  0
  4 11  1  0
  4  5  1  0
 11 12  2  0
 11 16  1  0
 12 13  1  0
 13 14  2  0
 14 15  1  0
 15 16  2  0
  5  6  1  0
  6  7  2  0
  6 10  1  0
  7  8  1  0
  8 17  1  0
  8  9  2  0
 17 18  1  0
 18 19  2  0
 18 24  1  0
 19 20  1  0
 20 21  2  0
 21 22  1  0
 21 23  1  0
 23 24  2  0
  9 10  1  0
M  END
>  <minimizedAffinity>  (837) 
-8.63818

$$$$
data/reference_output_2/data/smiles/163656.pdb
     RDKit          3D

 26 29  0  0  0  0  0  0  0  0999 V2000
   67.2396   48.9633   57.7947 C   0  0  0  0  0  0  0  0  0  0  0  0
   68.6202   48.6873   57.2533 C   0  0  1  0  0  0  0  0  0  0  0  0
   69.4903   49.9174   57.2551 C   0  0  0  0  0  0  0  0  0  0  0  0
   70.8489   49.4500   57.8092 C   0  0  0  0  0  0  0  0  0  0  0  0
   70.7174   48.0661   57.9232 N   0  0  2  0  0  0  0  0  0  0  0  0
   69.3691   47.7218   58.1847 C   0  0  0  0  0  0  0  0  0  0  0  0
   68.5322   48.0849   55.9083 C   0  0  0  0  0  0  0  0  0  0  0  0
   69.1730   48.5018   54.8209 N   0  0  0  0  0  0  0  0  0  0  0  0
   68.8596   47.6719   53.8034 C   0  0  0  0  0  0  0  0  0  0  0  0
   69.2796   47.7025   52.4886 C   0  0  0  0  0  0  0  0  0  0  0  0
   68.8058   46.7268   51.6544 C   0  0  0  0  0  0  0  0  0  0  0  0
   67.9450   45.7614   52.1166 C   0  0  0  0  0  0  0  0  0  0  0  0
   67.5264   45.7293   53.4131 C   0  0  0  0  0  0  0  0  0  0  0  0
   67.9982   46.7090   54.2674 C   0  0  0  0  0  0  0  0  0  0  0  0
   67.8179   46.9948   55.5697 N   0  0  0  0  0  0  0  0  0  0  0  0
   70.1851   48.7497   52.0353 C   0  0  0  0  0  0  0  0  0  0  0  0
   71.3594   49.0595   52.7919 N   0  0  0  0  0  0  0  0  0  0  0  0
   69.9441   49.3852   50.9885 O   0  0  0  0  0  0  0  0  0  0  0  0
   71.7094   47.2671   58.4849 C   0  0  0  0  0  0  0  0  0  0  0  0
   71.2729   45.9261   58.9433 C   0  0  0  0  0  0  0  0  0  0  0  0
   71.9394   44.7622   58.3970 C   0  0  0  0  0  0  0  0  0  0  0  0
   73.3259   44.7740   58.1741 C   0  0  0  0  0  0  0  0  0  0  0  0
   73.9686   43.6698   57.6785 C   0  0  0  0  0  0  0  0  0  0  0  0
   73.2951   42.5224   57.3863 C   0  0  0  0  0  0  0  0  0  0  0  0
   71.9283   42.4903   57.5993 C   0  0  0  0  0  0  0  0  0  0  0  0
   71.2747   43.5904   58.0934 C   0  0  0  0  0  0  0  0  0  0  0  0
  2  1  1  1
  2  7  1  0
  2  3  1  0
  2  6  1  0
  7  8  2  0
  7 15  1  0
  8  9  1  0
  9 10  2  0
  9 14  1  0
 10 16  1  0
 10 11  1  0
 16 17  1  0
 16 18  2  0
 11 12  2  0
 12 13  1  0
 13 14  2  0
 14 15  1  0
  3  4  1  0
  4  5  1  0
  5 19  1  1
  5  6  1  0
 19 20  1  0
 20 21  1  0
 21 22  2  0
 21 26  1  0
 22 23  1  0
 23 24  2  0
 24 25  1  0
 25 26  2  0
M  CHG  2   5   1   8   1
M  END
>  <minimizedAffinity>  (838) 
-8.53300

$$$$
data/reference_output_2/data/smiles/163804.pdb
     RDKit          3D

 28 30  0  0  0  0  0  0  0  0999 V2000
   68.3870   41.7574   58.4254 C   0  0  0  0  0  0  0  0  0  0  0  0
   67.3110   42.3004   58.7977 O   0  0  0  0  0  0  0  0  0  0  0  0
   68.8125   42.0493   57.0987 N   0  0  0  0  0  0  0  0  0  0  0  0
   68.0571   42.8963   56.2791 N   0  0  0  0  0  0  0  0  0  0  0  0
   68.5165   44.1857   55.9127 C   0  0  0  0  0  0  0  0  0  0  0  0
   69.6359   44.5575   56.3478 O   0  0  0  0  0  0  0  0  0  0  0  0
   67.7587   45.0622   55.0769 N   0  0  0  0  0  0  0  0  0  0  0  0
   68.2995   46.3386   54.7608 C   0  0  0  0  0  0  0  0  0  0  0  0
   68.3757   47.3424   55.7027 C   0  0  0  0  0  0  0  0  0  0  0  0
   68.9050   48.5786   55.3777 C   0  0  0  0  0  0  0  0  0  0  0  0
   69.3700   48.8259   54.0854 C   0  0  0  0  0  0  0  0  0  0  0  0
   69.2969   47.8297   53.1381 C   0  0  0  0  0  0  0  0  0  0  0  0
   68.7676   46.6140   53.4905 C   0  0  0  0  0  0  0  0  0  0  0  0
   69.7698   48.0759   51.8179 N   0  0  0  0  0  0  0  0  0  0  0  0
   70.0195   47.1563   51.0148 O   0  0  0  0  0  0  0  0  0  0  0  0
   69.9668   49.3632   51.3835 O   0  0  0  0  0  0  0  0  0  0  0  0
   70.0449   41.6573   60.2693 C   0  0  0  0  0  0  0  0  0  0  0  0
   69.1728   40.8563   59.3243 C   0  0  2  0  0  0  0  0  0  0  0  0
   69.9230   40.0088   58.5109 O   0  0  0  0  0  0  0  0  0  0  0  0
   70.3776   38.7552   58.7254 C   0  0  0  0  0  0  0  0  0  0  0  0
   69.7417   37.9523   59.6837 C   0  0  0  0  0  0  0  0  0  0  0  0
   70.1917   36.6715   59.9139 C   0  0  0  0  0  0  0  0  0  0  0  0
   71.2717   36.1879   59.1947 C   0  0  0  0  0  0  0  0  0  0  0  0
   71.9030   36.9697   58.2506 C   0  0  0  0  0  0  0  0  0  0  0  0
   71.4451   38.2547   58.0236 C   0  0  0  0  0  0  0  0  0  0  0  0
   73.0262   36.1900   57.6374 C   0  0  0  0  0  0  0  0  0  0  0  0
   72.5055   34.7627   57.8340 C   0  0  0  0  0  0  0  0  0  0  0  0
   71.9558   34.8549   59.2441 C   0  0  0  0  0  0  0  0  0  0  0  0
 18 17  1  1
 18 19  1  0
 18  1  1  0
 19 20  1  0
 20 21  2  0
 20 25  1  0
 21 22  1  0
 22 23  2  0
 23 24  1  0
 23 28  1  0
 24 25  2  0
 24 26  1  0
 26 27  1  0
 27 28  1  0
  1  2  2  0
  1  3  1  0
  3  4  1  0
  4  5  1  0
  5  6  2  0
  5  7  1  0
  7  8  1  0
  8  9  2  0
  8 13  1  0
  9 10  1  0
 10 11  2  0
 11 12  1  0
 12 14  1  0
 12 13  2  0
 14 15  2  0
 14 16  1  0
M  CHG  2  14   1  16  -1
M  END
>  <minimizedAffinity>  (839) 
-9.14162

$$$$
data/reference_output_2/data/smiles/163978.pdb
     RDKit          3D

 33 37  0  0  0  0  0  0  0  0999 V2000
   69.8401   43.4344   57.7009 C   0  0  0  0  0  0  0  0  0  0  0  0
   69.6766   44.6808   57.2329 C   0  0  0  0  0  0  0  0  0  0  0  0
   68.7327   44.8927   56.3006 N   0  0  0  0  0  0  0  0  0  0  0  0
   68.5768   46.1474   55.8364 C   0  0  0  0  0  0  0  0  0  0  0  0
   67.7045   46.3957   54.9613 O   0  0  0  0  0  0  0  0  0  0  0  0
   69.3506   47.2117   56.2878 C   0  0  0  0  0  0  0  0  0  0  0  0
   69.1821   48.4417   55.8191 C   0  0  0  0  0  0  0  0  0  0  0  0
   70.2805   46.9896   57.2100 N   0  0  0  0  0  0  0  0  0  0  0  0
   70.4442   45.7351   57.6807 C   0  0  0  0  0  0  0  0  0  0  0  0
   71.3200   45.4723   58.5628 O   0  0  0  0  0  0  0  0  0  0  0  0
   69.9748   49.5792   56.2683 C   0  0  0  0  0  0  0  0  0  0  0  0
   69.9705   50.0565   57.5624 C   0  0  0  0  0  0  0  0  0  0  0  0
   70.7383   51.1421   57.9518 C   0  0  0  0  0  0  0  0  0  0  0  0
   71.5430   51.7910   57.0486 C   0  0  0  0  0  0  0  0  0  0  0  0
   71.5587   51.3240   55.7468 C   0  0  0  0  0  0  0  0  0  0  0  0
   70.7933   50.2441   55.3653 C   0  0  0  0  0  0  0  0  0  0  0  0
   72.4875   52.1989   55.0456 C   0  0  0  0  0  0  0  0  0  0  0  0
   72.7498   52.0601   53.8099 O   0  0  0  0  0  0  0  0  0  0  0  0
   73.0210   53.1955   55.9661 C   0  0  0  0  0  0  0  0  0  0  0  0
   73.9159   54.2282   55.7951 C   0  0  0  0  0  0  0  0  0  0  0  0
   74.2734   55.0619   56.8552 C   0  0  0  0  0  0  0  0  0  0  0  0
   73.6790   54.7883   58.0724 C   0  0  0  0  0  0  0  0  0  0  0  0
   72.7818   53.7565   58.2532 C   0  0  0  0  0  0  0  0  0  0  0  0
   72.4397   52.9400   57.1865 C   0  0  0  0  0  0  0  0  0  0  0  0
   69.1379   41.0382   57.6562 C   0  0  0  0  0  0  0  0  0  0  0  0
   68.2204   40.3253   56.9830 N   0  0  0  0  0  0  0  0  0  0  0  0
   67.5258   41.1101   56.1385 C   0  0  0  0  0  0  0  0  0  0  0  0
   68.0349   42.3463   56.2982 N   0  0  0  0  0  0  0  0  0  0  0  0
   69.0061   42.3497   57.2002 C   0  0  0  0  0  0  0  0  0  0  0  0
   71.4948   40.9710   58.4277 C   0  0  0  0  0  0  0  0  0  0  0  0
   70.0692   40.5165   58.6538 C   0  0  0  0  0  0  0  0  0  0  0  0
   69.7002   40.9570   60.0717 C   0  0  0  0  0  0  0  0  0  0  0  0
   70.0729   39.0055   58.6018 C   0  0  0  0  0  0  0  0  0  0  0  0
 30 31  1  0
 31 32  1  0
 31 33  1  0
 31 25  1  0
 25 26  1  0
 25 29  2  0
 26 27  1  0
 27 28  2  0
 28 29  1  0
 29  1  1  0
  1  2  2  0
  2  3  1  0
  2  9  1  0
  3  4  1  0
  4  5  2  0
  4  6  1  0
  6  7  2  0
  6  8  1  0
  7 11  1  0
 11 12  2  0
 11 16  1  0
 12 13  1  0
 13 14  2  0
 14 15  1  0
 14 24  1  0
 15 16  2  0
 15 17  1  0
 17 18  2  0
 17 19  1  0
 19 20  1  0
 19 24  2  0
 20 21  2  0
 21 22  1  0
 22 23  2  0
 23 24  1  0
  8  9  1  0
  9 10  2  0
M  CHG  1  28   1
M  END
>  <minimizedAffinity>  (840) 
-8.50200

$$$$
data/reference_output_2/data/smiles/163998.pdb
     RDKit          3D

 27 30  0  0  0  0  0  0  0  0999 V2000
   75.2504   35.0742   55.5705 N   0  0  0  0  0  0  0  0  0  0  0  0
   73.8815   34.7405   55.6294 C   0  0  0  0  0  0  0  0  0  0  0  0
   73.3310   34.0730   54.6916 O   0  0  0  0  0  0  0  0  0  0  0  0
   73.0650   35.1562   56.7739 C   0  0  0  0  0  0  0  0  0  0  0  0
   72.6338   34.1773   57.6895 C   0  0  0  0  0  0  0  0  0  0  0  0
   71.8677   34.5010   58.7801 C   0  0  0  0  0  0  0  0  0  0  0  0
   71.5069   35.8146   58.9903 C   0  0  0  0  0  0  0  0  0  0  0  0
   71.9021   36.8249   58.1226 C   0  0  0  0  0  0  0  0  0  0  0  0
   72.6758   36.4359   57.0384 C   0  0  0  0  0  0  0  0  0  0  0  0
   71.5206   38.1544   58.3606 N   0  0  0  0  0  0  0  0  0  0  0  0
   72.3189   39.1451   58.7675 C   0  0  0  0  0  0  0  0  0  0  0  0
   71.5765   40.2885   58.8843 N   0  0  0  0  0  0  0  0  0  0  0  0
   70.3426   39.9894   58.5529 N   0  0  0  0  0  0  0  0  0  0  0  0
   70.2969   38.6679   58.2261 C   0  0  0  0  0  0  0  0  0  0  0  0
   76.1017   34.7268   54.4846 C   0  0  0  0  0  0  0  0  0  0  0  0
   76.4012   35.7354   53.4545 C   0  0  0  0  0  0  0  0  0  0  0  0
   77.8747   34.7871   46.2228 C   0  0  0  0  0  0  0  0  0  0  0  0
   77.2599   34.6585   47.5762 C   0  0  0  0  0  0  0  0  0  0  0  0
   77.7135   35.3710   48.6644 C   0  0  0  0  0  0  0  0  0  0  0  0
   77.1331   35.2480   49.9318 C   0  0  0  0  0  0  0  0  0  0  0  0
   77.3736   35.8062   51.1219 N   0  0  0  0  0  0  0  0  0  0  0  0
   76.5228   35.3512   52.0537 C   0  0  0  0  0  0  0  0  0  0  0  0
   75.7159   34.4637   51.3997 N   0  0  0  0  0  0  0  0  0  0  0  0
   76.0791   34.3963   50.1179 C   0  0  0  0  0  0  0  0  0  0  0  0
   75.6192   33.6738   49.0111 C   0  0  0  0  0  0  0  0  0  0  0  0
   76.1968   33.8017   47.7647 C   0  0  0  0  0  0  0  0  0  0  0  0
   75.6762   33.0145   46.6180 C   0  0  0  0  0  0  0  0  0  0  0  0
 17 18  1  0
 18 19  2  0
 18 26  1  0
 19 20  1  0
 20 21  1  0
 20 24  2  0
 21 22  2  0
 22 16  1  0
 22 23  1  0
 16 15  1  0
 15  1  1  0
  1  2  1  0
  2  3  2  0
  2  4  1  0
  4  5  2  0
  4  9  1  0
  5  6  1  0
  6  7  2  0
  7  8  1  0
  8 10  1  0
  8  9  2  0
 10 11  1  0
 10 14  1  0
 11 12  2  0
 12 13  1  0
 13 14  2  0
 23 24  1  0
 24 25  1  0
 25 26  2  0
 26 27  1  0
M  CHG  1  21   1
M  END
>  <minimizedAffinity>  (841) 
-8.51620

$$$$
data/reference_output_2/data/smiles/164078.pdb
     RDKit          3D

 27 30  0  0  0  0  0  0  0  0999 V2000
   71.1460   46.8590   58.7643 C   0  0  0  0  0  0  0  0  0  0  0  0
   71.0289   45.4543   58.6797 C   0  0  0  0  0  0  0  0  0  0  0  0
   70.2129   44.8511   57.7614 C   0  0  0  0  0  0  0  0  0  0  0  0
   69.5041   45.6462   56.9150 C   0  0  0  0  0  0  0  0  0  0  0  0
   69.5715   47.0066   56.9443 N   0  0  0  0  0  0  0  0  0  0  0  0
   70.3884   47.5646   57.8631 C   0  0  0  0  0  0  0  0  0  0  0  0
   70.4937   48.8212   57.9301 O   0  0  0  0  0  0  0  0  0  0  0  0
   74.0000   48.6678   60.5598 C   0  0  0  0  0  0  0  0  0  0  0  0
   73.1684   48.1390   59.4599 N   0  0  0  0  0  0  0  0  0  0  0  0
   72.0190   47.4123   59.7526 C   0  0  0  0  0  0  0  0  0  0  0  0
   71.7562   47.2485   60.9938 O   0  0  0  0  0  0  0  0  0  0  0  0
   70.1288   43.4032   57.7163 C   0  0  0  0  0  0  0  0  0  0  0  0
   71.1387   42.6855   57.4189 O   0  0  0  0  0  0  0  0  0  0  0  0
   68.9406   42.6763   57.9932 N   0  0  0  0  0  0  0  0  0  0  0  0
   68.9182   41.2263   57.9331 C   0  0  0  0  0  0  0  0  0  0  0  0
   67.9969   40.5318   57.0007 C   0  0  0  0  0  0  0  0  0  0  0  0
   67.7318   40.4875   58.4722 C   0  0  0  0  0  0  0  0  0  0  0  0
   68.7502   47.7631   56.0310 C   0  0  0  0  0  0  0  0  0  0  0  0
   68.5853   47.1446   54.6928 C   0  0  0  0  0  0  0  0  0  0  0  0
   67.7731   46.0419   54.5974 N   0  0  0  0  0  0  0  0  0  0  0  0
   67.4794   45.4240   53.4510 C   0  0  0  0  0  0  0  0  0  0  0  0
   67.9978   45.8809   52.2654 C   0  0  0  0  0  0  0  0  0  0  0  0
   68.8191   46.9832   52.3114 C   0  0  0  0  0  0  0  0  0  0  0  0
   69.4921   47.6481   51.3440 N   0  0  0  0  0  0  0  0  0  0  0  0
   70.1860   48.6515   51.8968 C   0  0  0  0  0  0  0  0  0  0  0  0
   69.9773   48.6659   53.2650 C   0  0  0  0  0  0  0  0  0  0  0  0
   69.1165   47.6204   53.5266 C   0  0  0  0  0  0  0  0  0  0  0  0
  8  9  1  0
  9 10  1  0
 10 11  2  0
 10  1  1  0
  1  2  2  0
  1  6  1  0
  2  3  1  0
  3 12  1  0
  3  4  2  0
 12 13  2  0
 12 14  1  0
 14 15  1  0
 15 16  1  0
 15 17  1  0
 16 17  1  0
  4  5  1  0
  5 18  1  0
  5  6  1  0
 18 19  1  0
 19 20  2  0
 19 27  1  0
 20 21  1  0
 21 22  2  0
 22 23  1  0
 23 24  1  0
 23 27  2  0
 24 25  1  0
 25 26  2  0
 26 27  1  0
  6  7  2  0
M  END
>  <minimizedAffinity>  (842) 
-8.87404

$$$$
data/reference_output_2/data/smiles/164099.pdb
     RDKit          3D

 24 27  0  0  0  0  0  0  0  0999 V2000
   69.6652   42.9800   56.8308 O   0  0  0  0  0  0  0  0  0  0  0  0
   68.4859   42.8145   56.4121 C   0  0  0  0  0  0  0  0  0  0  0  0
   67.9573   41.4927   56.4839 N   0  0  0  0  0  0  0  0  0  0  0  0
   67.7474   43.9158   55.8971 N   0  0  0  0  0  0  0  0  0  0  0  0
   68.7237   40.4414   56.9995 N   0  0  0  0  0  0  0  0  0  0  0  0
   68.3961   39.8674   58.1085 C   0  0  0  0  0  0  0  0  0  0  0  0
   67.2133   40.2571   58.9127 C   0  0  0  0  0  0  0  0  0  0  0  0
   66.9011   39.0109   59.7242 C   0  0  0  0  0  0  0  0  0  0  0  0
   68.1927   38.2615   59.7536 C   0  0  0  0  0  0  0  0  0  0  0  0
   68.6258   37.2070   60.5319 C   0  0  0  0  0  0  0  0  0  0  0  0
   69.8896   36.6751   60.3675 C   0  0  0  0  0  0  0  0  0  0  0  0
   70.7507   37.1867   59.4199 C   0  0  0  0  0  0  0  0  0  0  0  0
   70.3052   38.2465   58.6434 C   0  0  0  0  0  0  0  0  0  0  0  0
   69.0468   38.7739   58.8089 C   0  0  0  0  0  0  0  0  0  0  0  0
   68.3588   45.1767   55.8689 N   0  0  0  0  0  0  0  0  0  0  0  0
   68.3304   45.8963   54.7921 C   0  0  0  0  0  0  0  0  0  0  0  0
   67.6796   45.4709   53.5486 C   0  0  0  0  0  0  0  0  0  0  0  0
   68.4038   46.2715   52.4839 C   0  0  0  0  0  0  0  0  0  0  0  0
   68.9456   47.4622   53.1864 C   0  0  0  0  0  0  0  0  0  0  0  0
   69.4425   48.6524   52.7222 C   0  0  0  0  0  0  0  0  0  0  0  0
   69.9068   49.6529   53.5796 C   0  0  0  0  0  0  0  0  0  0  0  0
   69.8392   49.3774   54.9301 C   0  0  0  0  0  0  0  0  0  0  0  0
   69.3414   48.1833   55.4184 C   0  0  0  0  0  0  0  0  0  0  0  0
   68.8900   47.2160   54.5413 C   0  0  0  0  0  0  0  0  0  0  0  0
  1  2  2  0
  2  3  1  0
  2  4  1  0
  3  5  1  0
  5  6  2  0
  6  7  1  0
  6 14  1  0
  7  8  1  0
  8  9  1  0
  9 10  1  0
  9 14  2  0
 10 11  2  0
 11 12  1  0
 12 13  2  0
 13 14  1  0
  4 15  1  0
 15 16  2  0
 16 17  1  0
 16 24  1  0
 17 18  1  0
 18 19  1  0
 19 20  1  0
 19 24  2  0
 20 21  2  0
 21 22  1  0
 22 23  2  0
 23 24  1  0
M  END
>  <minimizedAffinity>  (843) 
-8.61082

$$$$
data/reference_output_2/data/smiles/164194.pdb
     RDKit          3D

 31 34  0  0  0  0  0  0  0  0999 V2000
   71.9715   47.6451   58.7723 C   0  0  0  0  0  0  0  0  0  0  0  0
   73.0263   48.5153   58.6132 C   0  0  0  0  0  0  0  0  0  0  0  0
   72.9907   49.5386   57.6691 C   0  0  0  0  0  0  0  0  0  0  0  0
   71.8682   49.7042   56.8521 C   0  0  0  0  0  0  0  0  0  0  0  0
   70.8155   48.8571   56.9903 C   0  0  0  0  0  0  0  0  0  0  0  0
   70.8754   47.8231   57.9594 C   0  0  0  0  0  0  0  0  0  0  0  0
   70.8050   42.8640   58.9514 N   0  0  0  0  0  0  0  0  0  0  0  0
   71.7695   43.2814   58.0337 C   0  0  0  0  0  0  0  0  0  0  0  0
   72.2787   44.7012   58.1882 C   0  0  0  0  0  0  0  0  0  0  0  0
   72.0853   45.2144   59.4986 N   0  0  0  0  0  0  0  0  0  0  0  0
   71.9511   46.5712   59.7638 C   0  0  0  0  0  0  0  0  0  0  0  0
   71.7907   46.9596   60.9749 O   0  0  0  0  0  0  0  0  0  0  0  0
   72.0023   44.2584   60.5971 C   0  0  0  0  0  0  0  0  0  0  0  0
   70.8403   43.3250   60.2908 C   0  0  0  0  0  0  0  0  0  0  0  0
   69.2452   42.5254   58.4102 S   0  0  0  0  0  0  0  0  0  0  0  0
   68.8465   43.5343   57.3295 O   0  0  0  0  0  0  0  0  0  0  0  0
   68.2173   42.7511   59.5104 O   0  0  0  0  0  0  0  0  0  0  0  0
   67.8847   40.8632   56.7262 C   0  0  0  0  0  0  0  0  0  0  0  0
   68.9690   40.9325   57.7493 C   0  0  0  0  0  0  0  0  0  0  0  0
   69.5686   48.9570   56.1786 C   0  0  0  0  0  0  0  0  0  0  0  0
   69.8038   48.6665   54.7595 C   0  0  0  0  0  0  0  0  0  0  0  0
   70.7395   49.4222   54.1140 N   0  0  0  0  0  0  0  0  0  0  0  0
   70.9954   49.2892   52.8409 N   0  0  0  0  0  0  0  0  0  0  0  0
   70.3162   48.3677   52.1053 C   0  0  0  0  0  0  0  0  0  0  0  0
   70.5552   48.2369   50.8874 O   0  0  0  0  0  0  0  0  0  0  0  0
   69.3495   47.5571   52.6831 C   0  0  0  0  0  0  0  0  0  0  0  0
   68.6652   46.6040   51.9638 C   0  0  0  0  0  0  0  0  0  0  0  0
   67.7253   45.7878   52.5492 C   0  0  0  0  0  0  0  0  0  0  0  0
   67.4882   45.9649   53.9171 C   0  0  0  0  0  0  0  0  0  0  0  0
   68.1743   46.9088   54.5970 C   0  0  0  0  0  0  0  0  0  0  0  0
   69.1122   47.7333   54.0360 C   0  0  0  0  0  0  0  0  0  0  0  0
 18 19  1  0
 19 15  1  0
 15 16  2  0
 15 17  2  0
 15  7  1  0
  7  8  1  0
  7 14  1  0
  8  9  1  0
  9 10  1  0
 10 11  1  0
 10 13  1  0
 11 12  2  0
 11  1  1  0
  1  2  2  0
  1  6  1  0
  2  3  1  0
  3  4  2  0
  4  5  1  0
  5 20  1  0
  5  6  2  0
 20 21  1  0
 21 22  2  0
 21 31  1  0
 22 23  1  0
 23 24  1  0
 24 25  2  0
 24 26  1  0
 26 27  1  0
 26 31  2  0
 27 28  2  0
 28 29  1  0
 29 30  2  0
 30 31  1  0
 13 14  1  0
M  END
>  <minimizedAffinity>  (844) 
-9.46958

$$$$
data/reference_output_2/data/smiles/164500.pdb
     RDKit          3D

 24 26  0  0  0  0  0  0  0  0999 V2000
   69.5385   46.3346   57.3127 C   0  0  0  0  0  0  0  0  0  0  0  0
   70.1982   46.2991   58.4117 O   0  0  0  0  0  0  0  0  0  0  0  0
   69.1659   45.0949   56.7411 N   0  0  0  0  0  0  0  0  0  0  0  0
   69.5466   43.9068   57.4247 N   0  0  0  0  0  0  0  0  0  0  0  0
   68.9588   42.7829   57.2101 C   0  0  0  0  0  0  0  0  0  0  0  0
   67.8716   42.6040   56.2717 C   0  0  0  0  0  0  0  0  0  0  0  0
   67.3645   43.5124   55.5521 O   0  0  0  0  0  0  0  0  0  0  0  0
   67.5071   41.2178   56.3349 N   0  0  0  0  0  0  0  0  0  0  0  0
   68.3266   40.5398   57.2719 C   0  0  0  0  0  0  0  0  0  0  0  0
   68.3486   39.2131   57.6704 C   0  0  0  0  0  0  0  0  0  0  0  0
   69.2840   38.8588   58.6213 C   0  0  0  0  0  0  0  0  0  0  0  0
   70.1669   39.7808   59.1621 C   0  0  0  0  0  0  0  0  0  0  0  0
   70.1180   41.0935   58.7447 C   0  0  0  0  0  0  0  0  0  0  0  0
   69.1979   41.4708   57.8001 C   0  0  0  0  0  0  0  0  0  0  0  0
   70.2515   48.6817   57.2123 C   0  0  0  0  0  0  0  0  0  0  0  0
   69.2303   47.6717   56.7462 C   0  0  1  0  0  0  0  0  0  0  0  0
   69.2136   47.6957   55.2630 C   0  0  0  0  0  0  0  0  0  0  0  0
   69.8623   48.6125   54.4784 C   0  0  0  0  0  0  0  0  0  0  0  0
   69.7770   48.5201   53.0871 C   0  0  0  0  0  0  0  0  0  0  0  0
   69.0601   47.5358   52.4417 C   0  0  0  0  0  0  0  0  0  0  0  0
   69.0048   47.4850   51.0560 O   0  0  0  0  0  0  0  0  0  0  0  0
   68.4083   46.6170   53.2359 C   0  0  0  0  0  0  0  0  0  0  0  0
   67.4140   45.2512   52.3579 Br  0  0  0  0  0  0  0  0  0  0  0  0
   68.4889   46.7011   54.6112 C   0  0  0  0  0  0  0  0  0  0  0  0
 16 15  1  6
 16  1  1  0
 16 17  1  0
  1  2  2  0
  1  3  1  0
  3  4  1  0
  4  5  2  0
  5  6  1  0
  5 14  1  0
  6  7  2  0
  6  8  1  0
  8  9  1  0
  9 10  1  0
  9 14  2  0
 10 11  2  0
 11 12  1  0
 12 13  2  0
 13 14  1  0
 17 18  2  0
 17 24  1  0
 18 19  1  0
 19 20  2  0
 20 21  1  0
 20 22  1  0
 22 23  1  0
 22 24  2  0
M  END
>  <minimizedAffinity>  (845) 
-8.59475

$$$$
data/reference_output_2/data/smiles/164757.pdb
     RDKit          3D

 29 32  0  0  0  0  0  0  0  0999 V2000
   68.2806   46.3761   54.4351 C   0  0  0  0  0  0  0  0  0  0  0  0
   67.8147   45.4557   53.5267 C   0  0  0  0  0  0  0  0  0  0  0  0
   67.9178   45.6455   52.1581 C   0  0  0  0  0  0  0  0  0  0  0  0
   68.5049   46.7899   51.6875 C   0  0  0  0  0  0  0  0  0  0  0  0
   68.9793   47.7259   52.5808 C   0  0  0  0  0  0  0  0  0  0  0  0
   68.8688   47.5228   53.9570 C   0  0  0  0  0  0  0  0  0  0  0  0
   69.4501   48.6846   54.5953 C   0  0  0  0  0  0  0  0  0  0  0  0
   69.5370   48.8751   55.8160 O   0  0  0  0  0  0  0  0  0  0  0  0
   69.9232   49.6111   53.6003 N   0  0  0  0  0  0  0  0  0  0  0  0
   69.6226   48.9973   52.3539 C   0  0  0  0  0  0  0  0  0  0  0  0
   69.8962   49.5266   51.2288 O   0  0  0  0  0  0  0  0  0  0  0  0
   70.5730   50.9017   53.8652 C   0  0  1  0  0  0  0  0  0  0  0  0
   69.6195   51.9135   54.3889 C   0  0  0  0  0  0  0  0  0  0  0  0
   69.6022   52.1440   55.8397 C   0  0  0  0  0  0  0  0  0  0  0  0
   70.8074   51.7690   56.5768 C   0  0  0  0  0  0  0  0  0  0  0  0
   70.9331   52.1395   57.7720 O   0  0  0  0  0  0  0  0  0  0  0  0
   71.8707   50.9962   56.0216 N   0  0  0  0  0  0  0  0  0  0  0  0
   71.8070   50.7306   54.6399 C   0  0  0  0  0  0  0  0  0  0  0  0
   72.8713   50.3276   54.0605 O   0  0  0  0  0  0  0  0  0  0  0  0
   68.1282   46.1042   55.8130 N   0  0  0  0  0  0  0  0  0  0  0  0
   70.9554   43.8641   58.0651 C   0  0  0  0  0  0  0  0  0  0  0  0
   69.9734   43.2474   57.3197 C   0  0  0  0  0  0  0  0  0  0  0  0
   69.0517   43.9713   56.5919 C   0  0  0  0  0  0  0  0  0  0  0  0
   69.0681   45.3518   56.5748 C   0  0  0  0  0  0  0  0  0  0  0  0
   70.0522   45.9652   57.3215 C   0  0  0  0  0  0  0  0  0  0  0  0
   70.9773   45.2514   58.0523 C   0  0  0  0  0  0  0  0  0  0  0  0
   72.6333   43.7884   59.9013 C   0  0  0  0  0  0  0  0  0  0  0  0
   71.9062   43.0538   58.8168 C   0  0  0  0  0  0  0  0  0  0  0  0
   72.9596   42.4413   57.8875 C   0  0  0  0  0  0  0  0  0  0  0  0
 27 28  1  0
 28 29  1  0
 28 21  1  0
 21 22  2  0
 21 26  1  0
 22 23  1  0
 23 24  2  0
 24 20  1  0
 24 25  1  0
 20  1  1  0
  1  2  2  0
  1  6  1  0
  2  3  1  0
  3  4  2  0
  4  5  1  0
  5  6  2  0
  5 10  1  0
  6  7  1  0
  7  8  2  0
  7  9  1  0
 12  9  1  1
  9 10  1  0
 12 13  1  0
 12 18  1  0
 13 14  1  0
 14 15  1  0
 15 16  2  0
 15 17  1  0
 17 18  1  0
 18 19  2  0
 10 11  2  0
 25 26  2  0
M  END
>  <minimizedAffinity>  (846) 
-8.81830

$$$$
data/reference_output_2/data/smiles/164901.pdb
     RDKit          3D

 24 26  0  0  0  0  0  0  0  0999 V2000
   69.3391   48.0979   56.5275 C   0  0  0  0  0  0  0  0  0  0  0  0
   69.4188   48.9651   57.4898 O   0  0  0  0  0  0  0  0  0  0  0  0
   69.0125   48.6136   55.2600 N   0  0  0  0  0  0  0  0  0  0  0  0
   68.7627   47.7589   54.1542 C   0  0  0  0  0  0  0  0  0  0  0  0
   68.0250   46.6739   54.5837 C   0  0  0  0  0  0  0  0  0  0  0  0
   67.7242   45.7139   53.6492 C   0  0  0  0  0  0  0  0  0  0  0  0
   68.1290   45.8011   52.3097 C   0  0  0  0  0  0  0  0  0  0  0  0
   68.8589   46.8957   51.9086 C   0  0  0  0  0  0  0  0  0  0  0  0
   69.1659   47.8612   52.8335 C   0  0  0  0  0  0  0  0  0  0  0  0
   69.8950   48.9927   52.2532 C   0  0  0  0  0  0  0  0  0  0  0  0
   70.5035   48.7496   51.1976 O   0  0  0  0  0  0  0  0  0  0  0  0
   69.9906   50.3335   52.7518 N   0  0  0  0  0  0  0  0  0  0  0  0
   69.4804   50.7936   54.0091 C   0  0  0  0  0  0  0  0  0  0  0  0
   69.4535   52.1778   54.0708 C   0  0  0  0  0  0  0  0  0  0  0  0
   68.9915   52.7311   55.2478 C   0  0  0  0  0  0  0  0  0  0  0  0
   68.5710   51.9824   56.3276 C   0  0  0  0  0  0  0  0  0  0  0  0
   68.6063   50.6236   56.2461 N   0  0  0  0  0  0  0  0  0  0  0  0
   69.0502   50.0663   55.1144 C   0  0  0  0  0  0  0  0  0  0  0  0
   69.6037   46.6930   56.8686 C   0  0  0  0  0  0  0  0  0  0  0  0
   70.6920   46.7449   57.9690 C   0  0  0  0  0  0  0  0  0  0  0  0
   70.8198   45.4171   58.6469 C   0  0  0  0  0  0  0  0  0  0  0  0
   72.1077   46.7173   60.0922 C   0  0  0  0  0  0  0  0  0  0  0  0
   71.3370   45.4915   59.9778 N   0  0  0  0  0  0  0  0  0  0  0  0
   72.2061   44.4000   60.3260 C   0  0  0  0  0  0  0  0  0  0  0  0
 22 23  1  0
 23 24  1  0
 23 21  1  0
 21 20  1  0
 20 19  1  0
 19  1  1  0
  1  2  2  0
  1  3  1  0
  3  4  1  0
  3 18  1  0
  4  5  2  0
  4  9  1  0
  5  6  1  0
  6  7  2  0
  7  8  1  0
  8  9  2  0
  9 10  1  0
 10 11  2  0
 10 12  1  0
 12 13  1  0
 13 14  2  0
 13 18  1  0
 14 15  1  0
 15 16  2  0
 16 17  1  0
 17 18  2  0
M  CHG  1  23   1
M  END
>  <minimizedAffinity>  (847) 
-8.50772

$$$$
data/reference_output_2/data/smiles/165004.pdb
     RDKit          3D

 26 28  0  0  0  0  0  0  0  0999 V2000
   70.2501   49.6410   54.3089 C   0  0  0  0  0  0  0  0  0  0  0  0
   69.9944   49.0638   55.5557 C   0  0  0  0  0  0  0  0  0  0  0  0
   69.4007   47.8892   55.4366 N   0  0  0  0  0  0  0  0  0  0  0  0
   69.2397   47.6384   54.1454 C   0  0  0  0  0  0  0  0  0  0  0  0
   68.7000   46.5776   53.4640 C   0  0  0  0  0  0  0  0  0  0  0  0
   68.6574   46.5414   52.0736 C   0  0  0  0  0  0  0  0  0  0  0  0
   69.1679   47.5935   51.3878 C   0  0  0  0  0  0  0  0  0  0  0  0
   69.7183   48.6776   52.0580 C   0  0  0  0  0  0  0  0  0  0  0  0
   69.7623   48.7201   53.4207 C   0  0  0  0  0  0  0  0  0  0  0  0
   69.9959   52.1758   54.3218 C   0  0  0  0  0  0  0  0  0  0  0  0
   70.9156   50.9255   54.1955 C   0  0  0  0  0  0  0  0  0  0  0  0
   72.1010   51.1510   54.0463 N   0  0  0  0  0  0  0  0  0  0  0  0
   73.2245   50.5042   53.8963 N   0  0  0  0  0  0  0  0  0  0  0  0
   74.3098   50.6616   54.8596 C   0  0  0  0  0  0  0  0  0  0  0  0
   75.2419   49.7856   54.8498 N   0  0  0  0  0  0  0  0  0  0  0  0
   74.2446   51.7764   55.7325 N   0  0  0  0  0  0  0  0  0  0  0  0
   68.8966   46.8652   56.7567 S   0  0  0  0  0  0  0  0  0  0  0  0
   68.4626   45.5394   56.2405 O   0  0  0  0  0  0  0  0  0  0  0  0
   67.7062   47.5687   57.3932 O   0  0  0  0  0  0  0  0  0  0  0  0
   70.1517   46.7432   57.9605 C   0  0  0  0  0  0  0  0  0  0  0  0
   70.6317   45.4902   58.3697 C   0  0  0  0  0  0  0  0  0  0  0  0
   71.6090   45.4196   59.3333 C   0  0  0  0  0  0  0  0  0  0  0  0
   72.1540   46.5350   59.9325 C   0  0  0  0  0  0  0  0  0  0  0  0
   73.2085   46.4498   60.9720 C   0  0  0  0  0  0  0  0  0  0  0  0
   71.6772   47.7858   59.5263 C   0  0  0  0  0  0  0  0  0  0  0  0
   70.7030   47.8508   58.5653 C   0  0  0  0  0  0  0  0  0  0  0  0
 10 11  1  0
 11 12  2  0
 11  1  1  0
 12 13  1  0
 13 14  1  0
 14 15  2  0
 14 16  1  0
  1  2  2  0
  1  9  1  0
  2  3  1  0
  3 17  1  0
  3  4  1  0
 17 18  2  0
 17 19  2  0
 17 20  1  0
 20 21  2  0
 20 26  1  0
 21 22  1  0
 22 23  2  0
 23 24  1  0
 23 25  1  0
 25 26  2  0
  4  5  1  0
  4  9  2  0
  5  6  2  0
  6  7  1  0
  7  8  2  0
  8  9  1  0
M  CHG  1  15   1
M  END
>  <minimizedAffinity>  (848) 
-8.67807

$$$$
data/reference_output_2/data/smiles/165176.pdb
     RDKit          3D

 26 28  0  0  0  0  0  0  0  0999 V2000
   69.2057   40.1001   57.7442 C   0  0  0  0  0  0  0  0  0  0  0  0
   68.1066   39.8556   56.9506 C   0  0  0  0  0  0  0  0  0  0  0  0
   67.5195   40.8985   56.2777 C   0  0  0  0  0  0  0  0  0  0  0  0
   68.0419   42.1974   56.4038 C   0  0  0  0  0  0  0  0  0  0  0  0
   67.4231   43.1960   55.7159 F   0  0  0  0  0  0  0  0  0  0  0  0
   69.1360   42.4810   57.1852 C   0  0  0  0  0  0  0  0  0  0  0  0
   69.6878   41.3718   57.8442 C   0  0  0  0  0  0  0  0  0  0  0  0
   69.7821   36.3965   60.9807 C   0  0  0  0  0  0  0  0  0  0  0  0
   70.0655   37.3951   59.8973 C   0  0  0  0  0  0  0  0  0  0  0  0
   71.2605   37.5040   59.2201 C   0  0  0  0  0  0  0  0  0  0  0  0
   71.0646   38.5408   58.3307 C   0  0  0  0  0  0  0  0  0  0  0  0
   69.8399   39.0247   58.4601 N   0  0  0  0  0  0  0  0  0  0  0  0
   69.2332   38.3315   59.4085 N   0  0  0  0  0  0  0  0  0  0  0  0
   69.7324   43.7746   57.3695 C   0  0  0  0  0  0  0  0  0  0  0  0
   70.8525   43.8346   57.9867 O   0  0  0  0  0  0  0  0  0  0  0  0
   69.2131   44.9899   56.9415 N   0  0  0  0  0  0  0  0  0  0  0  0
   69.8483   46.2331   57.1529 N   0  0  0  0  0  0  0  0  0  0  0  0
   68.8790   47.4298   56.3500 S   0  0  0  0  0  0  0  0  0  0  0  0
   69.5731   48.7587   56.5984 O   0  0  0  0  0  0  0  0  0  0  0  0
   67.5376   47.4791   57.0478 O   0  0  0  0  0  0  0  0  0  0  0  0
   68.7216   47.1116   54.6614 C   0  0  0  0  0  0  0  0  0  0  0  0
   68.0111   46.0447   54.1571 C   0  0  0  0  0  0  0  0  0  0  0  0
   67.9022   45.8156   52.7964 C   0  0  0  0  0  0  0  0  0  0  0  0
   68.5184   46.6706   51.9119 C   0  0  0  0  0  0  0  0  0  0  0  0
   69.2416   47.7557   52.3896 C   0  0  0  0  0  0  0  0  0  0  0  0
   69.3237   47.9451   53.7492 C   0  0  0  0  0  0  0  0  0  0  0  0
  8  9  1  0
  9 10  1  0
  9 13  2  0
 10 11  2  0
 11 12  1  0
 12  1  1  0
 12 13  1  0
  1  2  2  0
  1  7  1  0
  2  3  1  0
  3  4  2  0
  4  5  1  0
  4  6  1  0
  6 14  1  0
  6  7  2  0
 14 15  2  0
 14 16  1  0
 16 17  1  0
 17 18  1  0
 18 19  2  0
 18 20  2  0
 18 21  1  0
 21 22  2  0
 21 26  1  0
 22 23  1  0
 23 24  2  0
 24 25  1  0
 25 26  2  0
M  END
>  <minimizedAffinity>  (849) 
-8.87540

$$$$
data/reference_output_2/data/smiles/165327.pdb
     RDKit          3D

 24 25  0  0  0  0  0  0  0  0999 V2000
   71.8802   51.3215   54.8851 C   0  0  0  0  0  0  0  0  0  0  0  0
   73.3485   51.3550   55.1151 C   0  0  0  0  0  0  0  0  0  0  0  0
   74.0442   52.1118   54.4052 O   0  0  0  0  0  0  0  0  0  0  0  0
   74.0004   50.5761   56.0943 N   0  0  0  0  0  0  0  0  0  0  0  0
   75.3938   50.6092   56.3095 N   0  0  0  0  0  0  0  0  0  0  0  0
   76.3065   49.8845   55.5203 C   0  0  0  0  0  0  0  0  0  0  0  0
   75.8413   49.1838   54.5877 O   0  0  0  0  0  0  0  0  0  0  0  0
   77.7477   49.9230   55.7479 C   0  0  0  0  0  0  0  0  0  0  0  0
   78.3189   51.0130   56.3738 C   0  0  0  0  0  0  0  0  0  0  0  0
   79.6773   51.0772   56.6014 C   0  0  0  0  0  0  0  0  0  0  0  0
   80.5052   50.0554   56.2113 C   0  0  0  0  0  0  0  0  0  0  0  0
   79.9381   48.9681   55.5869 C   0  0  0  0  0  0  0  0  0  0  0  0
   78.5763   48.9097   55.3617 C   0  0  0  0  0  0  0  0  0  0  0  0
   71.5115   50.1478   54.1890 O   0  0  0  0  0  0  0  0  0  0  0  0
   70.4169   50.0727   53.3433 C   0  0  0  0  0  0  0  0  0  0  0  0
   70.0492   51.0985   52.7326 O   0  0  0  0  0  0  0  0  0  0  0  0
   67.5465   45.1611   52.6937 C   0  0  0  0  0  0  0  0  0  0  0  0
   68.3160   46.4370   52.8073 C   0  0  0  0  0  0  0  0  0  0  0  0
   68.2388   47.1106   54.0078 C   0  0  0  0  0  0  0  0  0  0  0  0
   68.9217   48.2863   54.1741 C   0  0  0  0  0  0  0  0  0  0  0  0
   69.6833   48.8029   53.1561 C   0  0  0  0  0  0  0  0  0  0  0  0
   69.7555   48.1284   51.9616 C   0  0  0  0  0  0  0  0  0  0  0  0
   70.5410   48.6656   50.9182 O   0  0  0  0  0  0  0  0  0  0  0  0
   69.0694   46.9511   51.8029 C   0  0  0  0  0  0  0  0  0  0  0  0
 17 18  1  0
 18 19  2  0
 18 24  1  0
 19 20  1  0
 20 21  2  0
 21 15  1  0
 21 22  1  0
 15 16  2  0
 15 14  1  0
 14  1  1  0
  1  2  1  0
  2  3  2  0
  2  4  1  0
  4  5  1  0
  5  6  1  0
  6  7  2  0
  6  8  1  0
  8  9  2  0
  8 13  1  0
  9 10  1  0
 10 11  2  0
 11 12  1  0
 12 13  2  0
 22 23  1  0
 22 24  2  0
M  END
>  <minimizedAffinity>  (850) 
-8.58368

$$$$
data/reference_output_2/data/smiles/165512.pdb
     RDKit          3D

 29 32  0  0  0  0  0  0  0  0999 V2000
   70.2506   45.5317   57.5189 C   0  0  0  0  0  0  0  0  0  0  0  0
   71.5310   45.7749   57.9737 C   0  0  0  0  0  0  0  0  0  0  0  0
   72.3538   44.7357   58.3892 C   0  0  0  0  0  0  0  0  0  0  0  0
   71.8720   43.4384   58.3408 C   0  0  0  0  0  0  0  0  0  0  0  0
   70.5935   43.1576   57.8892 C   0  0  0  0  0  0  0  0  0  0  0  0
   69.8176   44.2226   57.4904 C   0  0  0  0  0  0  0  0  0  0  0  0
   70.1276   41.7726   57.8560 C   0  0  0  0  0  0  0  0  0  0  0  0
   68.9618   41.5291   57.4443 O   0  0  0  0  0  0  0  0  0  0  0  0
   70.9556   40.6490   58.2809 C   0  0  0  0  0  0  0  0  0  0  0  0
   70.5129   39.3420   58.2485 C   0  0  0  0  0  0  0  0  0  0  0  0
   71.2984   38.2776   58.6517 C   0  0  0  0  0  0  0  0  0  0  0  0
   72.5878   38.5614   59.1065 C   0  0  0  0  0  0  0  0  0  0  0  0
   73.0162   39.8736   59.1328 C   0  0  0  0  0  0  0  0  0  0  0  0
   72.2326   40.9358   58.7308 C   0  0  0  0  0  0  0  0  0  0  0  0
   72.7159   42.3082   58.7724 C   0  0  0  0  0  0  0  0  0  0  0  0
   73.8666   42.5671   59.1766 O   0  0  0  0  0  0  0  0  0  0  0  0
   69.1969   46.8517   56.9889 S   0  0  0  0  0  0  0  0  0  0  0  0
   68.5571   47.4749   58.1649 O   0  0  0  0  0  0  0  0  0  0  0  0
   70.0505   47.9241   56.3286 O   0  0  0  0  0  0  0  0  0  0  0  0
   68.1138   46.1970   55.8382 N   0  0  0  0  0  0  0  0  0  0  0  0
   69.3246   47.6788   52.6379 C   0  0  0  0  0  0  0  0  0  0  0  0
   68.6589   46.8413   51.7458 C   0  0  0  0  0  0  0  0  0  0  0  0
   67.8421   45.8264   52.1891 C   0  0  0  0  0  0  0  0  0  0  0  0
   67.6702   45.6233   53.5480 C   0  0  0  0  0  0  0  0  0  0  0  0
   68.3160   46.4354   54.4570 C   0  0  0  0  0  0  0  0  0  0  0  0
   69.1277   47.4439   53.9656 C   0  0  0  0  0  0  0  0  0  0  0  0
   71.2721   48.9898   52.6922 O   0  0  0  0  0  0  0  0  0  0  0  0
   70.1808   48.7418   52.1250 C   0  0  0  0  0  0  0  0  0  0  0  0
   69.8412   49.5042   51.0225 O   0  0  0  0  0  0  0  0  0  0  0  0
 27 28  2  0
 28 29  1  0
 28 21  1  0
 21 22  2  0
 21 26  1  0
 22 23  1  0
 23 24  2  0
 24 25  1  0
 25 20  1  0
 25 26  2  0
 20 17  1  0
 17 18  2  0
 17 19  2  0
 17  1  1  0
  1  2  2  0
  1  6  1  0
  2  3  1  0
  3  4  2  0
  4  5  1  0
  4 15  1  0
  5  6  2  0
  5  7  1  0
  7  8  2  0
  7  9  1  0
  9 10  2  0
  9 14  1  0
 10 11  1  0
 11 12  2  0
 12 13  1  0
 13 14  2  0
 14 15  1  0
 15 16  2  0
M  END
>  <minimizedAffinity>  (851) 
-9.34010

$$$$
data/reference_output_2/data/smiles/165673.pdb
     RDKit          3D

 29 31  0  0  0  0  0  0  0  0999 V2000
   69.7393   47.3616   57.4171 C   0  0  0  0  0  0  0  0  0  0  0  0
   68.5381   47.2716   57.7726 O   0  0  0  0  0  0  0  0  0  0  0  0
   70.0255   47.9903   56.1864 N   0  0  0  0  0  0  0  0  0  0  0  0
   68.9305   48.4990   55.3935 C   0  0  1  0  0  0  0  0  0  0  0  0
   69.1268   49.9398   55.0509 C   0  0  0  0  0  0  0  0  0  0  0  0
   68.4446   50.7594   55.7223 O   0  0  0  0  0  0  0  0  0  0  0  0
   69.9559   50.5820   54.0909 N   0  0  0  0  0  0  0  0  0  0  0  0
   70.1848   52.0143   54.2313 C   0  0  0  0  0  0  0  0  0  0  0  0
   70.5761   49.9422   53.0083 N   0  0  0  0  0  0  0  0  0  0  0  0
   70.3681   48.7717   52.4985 C   0  0  0  0  0  0  0  0  0  0  0  0
   69.3793   47.7899   52.9610 C   0  0  0  0  0  0  0  0  0  0  0  0
   69.0990   46.9043   51.9224 C   0  0  0  0  0  0  0  0  0  0  0  0
   68.1941   45.8804   52.1019 C   0  0  0  0  0  0  0  0  0  0  0  0
   67.5614   45.7354   53.3286 C   0  0  0  0  0  0  0  0  0  0  0  0
   67.8592   46.6315   54.3469 C   0  0  0  0  0  0  0  0  0  0  0  0
   68.7594   47.6576   54.1815 C   0  0  0  0  0  0  0  0  0  0  0  0
   71.9500   47.7640   58.4245 C   0  0  0  0  0  0  0  0  0  0  0  0
   70.7886   46.8049   58.3087 C   0  0  2  0  0  0  0  0  0  0  0  0
   71.1829   45.4821   57.9359 N   0  0  0  0  0  0  0  0  0  0  0  0
   70.6532   44.2928   58.4487 C   0  0  0  0  0  0  0  0  0  0  0  0
   69.7478   44.3662   59.3164 O   0  0  0  0  0  0  0  0  0  0  0  0
   71.0929   42.9355   58.0325 C   0  0  0  0  0  0  0  0  0  0  0  0
   69.9432   42.0592   57.7083 C   0  0  0  0  0  0  0  0  0  0  0  0
   69.8924   40.7989   58.2567 C   0  0  0  0  0  0  0  0  0  0  0  0
   68.8394   39.9558   57.9783 C   0  0  0  0  0  0  0  0  0  0  0  0
   67.8339   40.3891   57.1414 C   0  0  0  0  0  0  0  0  0  0  0  0
   67.8711   41.6509   56.5844 C   0  0  0  0  0  0  0  0  0  0  0  0
   66.5627   42.1763   55.5148 Cl  0  0  0  0  0  0  0  0  0  0  0  0
   68.9343   42.4813   56.8749 C   0  0  0  0  0  0  0  0  0  0  0  0
 18 17  1  6
 18 19  1  0
 18  1  1  0
 19 20  1  0
 20 21  2  0
 20 22  1  0
 22 23  1  0
 23 24  2  0
 23 29  1  0
 24 25  1  0
 25 26  2  0
 26 27  1  0
 27 28  1  0
 27 29  2  0
  1  2  2  0
  1  3  1  0
  4  3  1  6
  4  5  1  0
  4 16  1  0
  5  6  2  0
  5  7  1  0
  7  8  1  0
  7  9  1  0
  9 10  2  0
 10 11  1  0
 11 12  1  0
 11 16  2  0
 12 13  2  0
 13 14  1  0
 14 15  2  0
 15 16  1  0
M  END
>  <minimizedAffinity>  (852) 
-9.02689

$$$$
data/reference_output_2/data/smiles/165720.pdb
     RDKit          3D

 26 28  0  0  0  0  0  0  0  0999 V2000
   70.6778   46.4161   59.2655 O   0  0  0  0  0  0  0  0  0  0  0  0
   70.4560   45.6255   58.3171 C   0  0  0  0  0  0  0  0  0  0  0  0
   69.4580   45.9603   57.3717 N   0  0  0  0  0  0  0  0  0  0  0  0
   71.1922   44.3850   58.1688 C   0  0  0  0  0  0  0  0  0  0  0  0
   72.5687   44.4851   57.9017 C   0  0  0  0  0  0  0  0  0  0  0  0
   73.3651   43.3788   57.7426 C   0  0  0  0  0  0  0  0  0  0  0  0
   72.7919   42.1315   57.8488 C   0  0  0  0  0  0  0  0  0  0  0  0
   71.4453   41.9569   58.1097 C   0  0  0  0  0  0  0  0  0  0  0  0
   70.6946   43.1283   58.2607 C   0  0  0  0  0  0  0  0  0  0  0  0
   70.8642   40.6822   58.2165 N   0  0  0  0  0  0  0  0  0  0  0  0
   71.5125   39.5299   58.4027 C   0  0  0  0  0  0  0  0  0  0  0  0
   70.5841   38.4826   58.4555 C   0  0  0  0  0  0  0  0  0  0  0  0
   70.8572   37.1592   58.6334 F   0  0  0  0  0  0  0  0  0  0  0  0
   69.3600   39.0867   58.2896 C   0  0  0  0  0  0  0  0  0  0  0  0
   69.5862   40.4025   58.1511 N   0  0  0  0  0  0  0  0  0  0  0  0
   68.7043   47.1332   57.4418 N   0  0  0  0  0  0  0  0  0  0  0  0
   69.2287   48.1915   56.1866 S   0  0  0  0  0  0  0  0  0  0  0  0
   68.5400   49.5128   56.2416 O   0  0  0  0  0  0  0  0  0  0  0  0
   70.7053   48.4424   56.2687 O   0  0  0  0  0  0  0  0  0  0  0  0
   68.8872   47.4923   54.6118 C   0  0  0  0  0  0  0  0  0  0  0  0
   68.0853   46.3882   54.4463 C   0  0  0  0  0  0  0  0  0  0  0  0
   67.8585   45.8928   53.1941 C   0  0  0  0  0  0  0  0  0  0  0  0
   68.4083   46.4580   52.0512 C   0  0  0  0  0  0  0  0  0  0  0  0
   69.2131   47.5641   52.2119 C   0  0  0  0  0  0  0  0  0  0  0  0
   69.4407   48.0630   53.4728 C   0  0  0  0  0  0  0  0  0  0  0  0
   70.2280   49.1492   53.6472 F   0  0  0  0  0  0  0  0  0  0  0  0
  1  2  2  0
  2  3  1  0
  2  4  1  0
  3 16  1  0
 16 17  1  0
 17 18  2  0
 17 19  2  0
 17 20  1  0
 20 21  2  0
 20 25  1  0
 21 22  1  0
 22 23  2  0
 23 24  1  0
 24 25  2  0
 25 26  1  0
  4  5  2  0
  4  9  1  0
  5  6  1  0
  6  7  2  0
  7  8  1  0
  8 10  1  0
  8  9  2  0
 10 11  1  0
 10 15  1  0
 11 12  2  0
 12 13  1  0
 12 14  1  0
 14 15  2  0
M  END
>  <minimizedAffinity>  (853) 
-8.59928

$$$$
data/reference_output_2/data/smiles/165880.pdb
     RDKit          3D

 28 31  0  0  0  0  0  0  0  0999 V2000
   69.8201   39.8417   58.1399 N   0  0  0  0  0  0  0  0  0  0  0  0
   70.9345   40.7862   58.1674 C   0  0  0  0  0  0  0  0  0  0  0  0
   70.4548   42.1958   58.2701 C   0  0  0  0  0  0  0  0  0  0  0  0
   69.3488   42.5860   57.3836 C   0  0  0  0  0  0  0  0  0  0  0  0
   68.9104   43.7972   56.8668 C   0  0  0  0  0  0  0  0  0  0  0  0
   67.7695   43.4658   56.1689 N   0  0  0  0  0  0  0  0  0  0  0  0
   67.5111   42.2032   56.2286 N   0  0  0  0  0  0  0  0  0  0  0  0
   68.4641   41.6169   56.9703 C   0  0  0  0  0  0  0  0  0  0  0  0
   68.7015   40.2200   57.3562 C   0  0  0  0  0  0  0  0  0  0  0  0
   67.9122   39.3307   56.9948 O   0  0  0  0  0  0  0  0  0  0  0  0
   70.4166   34.9566   61.0561 C   0  0  0  0  0  0  0  0  0  0  0  0
   70.2448   36.2369   60.3048 C   0  0  0  0  0  0  0  0  0  0  0  0
   69.2199   37.1141   60.5811 C   0  0  0  0  0  0  0  0  0  0  0  0
   69.0613   38.2971   59.8877 C   0  0  0  0  0  0  0  0  0  0  0  0
   69.9352   38.6501   58.8777 C   0  0  0  0  0  0  0  0  0  0  0  0
   70.9640   37.7632   58.6035 C   0  0  0  0  0  0  0  0  0  0  0  0
   71.1223   36.5810   59.2974 C   0  0  0  0  0  0  0  0  0  0  0  0
   69.3980   45.0847   57.0276 N   0  0  0  0  0  0  0  0  0  0  0  0
   69.0229   46.5638   56.3415 S   0  0  0  0  0  0  0  0  0  0  0  0
   67.8012   47.2114   56.9753 O   0  0  0  0  0  0  0  0  0  0  0  0
   70.1359   47.5877   56.5824 O   0  0  0  0  0  0  0  0  0  0  0  0
   68.7242   46.5426   54.6170 C   0  0  0  0  0  0  0  0  0  0  0  0
   67.9222   45.5742   54.0479 C   0  0  0  0  0  0  0  0  0  0  0  0
   67.6440   45.5926   52.7182 C   0  0  0  0  0  0  0  0  0  0  0  0
   68.1345   46.5660   51.8577 C   0  0  0  0  0  0  0  0  0  0  0  0
   67.8424   46.5645   50.5331 F   0  0  0  0  0  0  0  0  0  0  0  0
   68.9344   47.5334   52.4240 C   0  0  0  0  0  0  0  0  0  0  0  0
   69.2063   47.5044   53.7568 C   0  0  0  0  0  0  0  0  0  0  0  0
 11 12  1  0
 12 13  2  0
 12 17  1  0
 13 14  1  0
 14 15  2  0
 15  1  1  0
 15 16  1  0
  1  2  1  0
  1  9  1  0
  2  3  1  0
  3  4  1  0
  4  5  1  0
  4  8  2  0
  5 18  1  0
  5  6  2  0
 18 19  1  0
 19 20  2  0
 19 21  2  0
 19 22  1  0
 22 23  2  0
 22 28  1  0
 23 24  1  0
 24 25  2  0
 25 26  1  0
 25 27  1  0
 27 28  2  0
  6  7  1  0
  7  8  1  0
  8  9  1  0
  9 10  2  0
 16 17  2  0
M  END
>  <minimizedAffinity>  (854) 
-9.67729

$$$$
data/reference_output_2/data/smiles/165971.pdb
     RDKit          3D

 27 29  0  0  0  0  0  0  0  0999 V2000
   67.6142   43.4890   55.5641 N   0  0  0  0  0  0  0  0  0  0  0  0
   67.7666   42.3255   56.2106 C   0  0  0  0  0  0  0  0  0  0  0  0
   68.6378   42.4081   57.3505 C   0  0  0  0  0  0  0  0  0  0  0  0
   69.8820   42.8158   57.1379 N   0  0  0  0  0  0  0  0  0  0  0  0
   70.8584   42.9607   58.1443 C   0  0  0  0  0  0  0  0  0  0  0  0
   70.9066   44.4224   58.6148 C   0  0  0  0  0  0  0  0  0  0  0  0
   72.2612   42.7299   57.5406 C   0  0  0  0  0  0  0  0  0  0  0  0
   70.6683   42.0569   59.3107 C   0  0  0  0  0  0  0  0  0  0  0  0
   69.2476   42.0343   59.7247 C   0  0  0  0  0  0  0  0  0  0  0  0
   68.8820   41.9287   61.0586 C   0  0  0  0  0  0  0  0  0  0  0  0
   67.5648   41.8060   61.4437 C   0  0  0  0  0  0  0  0  0  0  0  0
   66.6111   41.7925   60.4515 C   0  0  0  0  0  0  0  0  0  0  0  0
   66.9918   41.9033   59.1143 C   0  0  0  0  0  0  0  0  0  0  0  0
   68.3107   42.0254   58.7126 C   0  0  0  0  0  0  0  0  0  0  0  0
   67.1584   41.2360   55.5073 C   0  0  0  0  0  0  0  0  0  0  0  0
   66.0250   41.1600   54.7135 N   0  0  0  0  0  0  0  0  0  0  0  0
   67.7583   40.0615   55.6052 O   0  0  0  0  0  0  0  0  0  0  0  0
   68.1180   44.6567   56.0640 N   0  0  0  0  0  0  0  0  0  0  0  0
   69.1177   47.8583   53.4612 C   0  0  0  0  0  0  0  0  0  0  0  0
   69.3251   47.9217   54.8230 C   0  0  0  0  0  0  0  0  0  0  0  0
   69.0118   46.9068   55.6738 C   0  0  0  0  0  0  0  0  0  0  0  0
   68.4516   45.7298   55.1883 C   0  0  0  0  0  0  0  0  0  0  0  0
   68.2391   45.6552   53.8258 C   0  0  0  0  0  0  0  0  0  0  0  0
   68.5623   46.6952   52.9703 C   0  0  0  0  0  0  0  0  0  0  0  0
   69.6503   50.3068   53.1636 C   0  0  0  0  0  0  0  0  0  0  0  0
   69.4670   48.9659   52.5932 C   0  0  0  0  0  0  0  0  0  0  0  0
   69.6081   48.7592   51.3703 O   0  0  0  0  0  0  0  0  0  0  0  0
 25 26  1  0
 26 27  2  0
 26 19  1  0
 19 20  2  0
 19 24  1  0
 20 21  1  0
 21 22  2  0
 22 18  1  0
 22 23  1  0
 18  1  1  0
  1  2  2  0
  2 15  1  0
  2  3  1  0
 15 16  1  0
 15 17  2  0
  3  4  2  0
  3 14  1  0
  4  5  1  0
  5  6  1  0
  5  7  1  0
  5  8  1  0
  8  9  1  0
  9 10  2  0
  9 14  1  0
 10 11  1  0
 11 12  2  0
 12 13  1  0
 13 14  2  0
 23 24  2  0
M  END
>  <minimizedAffinity>  (855) 
-8.56258

$$$$
data/reference_output_2/data/smiles/166148.pdb
     RDKit          3D

 20 22  0  0  0  0  0  0  0  0999 V2000
   70.3309   49.1713   54.0190 C   0  0  0  0  0  0  0  0  0  0  0  0
   71.5077   49.4504   53.3901 N   0  0  0  0  0  0  0  0  0  0  0  0
   72.0945   50.4803   53.9501 N   0  0  0  0  0  0  0  0  0  0  0  0
   71.2929   50.8944   54.9716 C   0  0  0  0  0  0  0  0  0  0  0  0
   70.1845   50.0907   55.0345 C   0  0  0  0  0  0  0  0  0  0  0  0
   66.9583   44.8951   52.5584 O   0  0  0  0  0  0  0  0  0  0  0  0
   67.7944   45.9563   52.9223 C   0  0  0  0  0  0  0  0  0  0  0  0
   68.1515   46.1771   54.2406 C   0  0  0  0  0  0  0  0  0  0  0  0
   68.9808   47.2308   54.5886 C   0  0  0  0  0  0  0  0  0  0  0  0
   69.4684   48.0856   53.6167 C   0  0  0  0  0  0  0  0  0  0  0  0
   69.1012   47.8497   52.3106 C   0  0  0  0  0  0  0  0  0  0  0  0
   69.5672   48.6826   51.2988 O   0  0  0  0  0  0  0  0  0  0  0  0
   68.2789   46.8067   51.9530 C   0  0  0  0  0  0  0  0  0  0  0  0
   67.9409   46.6178   50.5982 O   0  0  0  0  0  0  0  0  0  0  0  0
   69.0715   50.1703   55.9659 C   0  0  0  0  0  0  0  0  0  0  0  0
   68.7475   49.1199   56.8162 C   0  0  0  0  0  0  0  0  0  0  0  0
   67.7042   49.1599   57.7092 C   0  0  0  0  0  0  0  0  0  0  0  0
   66.9218   50.2931   57.7827 C   0  0  0  0  0  0  0  0  0  0  0  0
   67.2361   51.3415   56.9414 C   0  0  0  0  0  0  0  0  0  0  0  0
   68.2836   51.2967   56.0487 C   0  0  0  0  0  0  0  0  0  0  0  0
  6  7  1  0
  7  8  2  0
  7 13  1  0
  8  9  1  0
  9 10  2  0
 10  1  1  0
 10 11  1  0
  1  2  2  0
  1  5  1  0
  2  3  1  0
  3  4  1  0
  4  5  2  0
  5 15  1  0
 15 16  2  0
 15 20  1  0
 16 17  1  0
 17 18  2  0
 18 19  1  0
 19 20  2  0
 11 12  1  0
 11 13  2  0
 13 14  1  0
M  END
>  <minimizedAffinity>  (856) 
-8.97859

$$$$
data/reference_output_2/data/smiles/166179.pdb
     RDKit          3D

 30 33  0  0  0  0  0  0  0  0999 V2000
   71.3968   45.0698   58.3382 C   0  0  1  0  0  0  0  0  0  0  0  0
   72.1662   46.3547   58.1429 C   0  0  0  0  0  0  0  0  0  0  0  0
   71.0810   47.3721   58.4660 C   0  0  0  0  0  0  0  0  0  0  0  0
   69.9405   46.7686   57.7575 N   0  0  0  0  0  0  0  0  0  0  0  0
   70.1174   45.3624   57.7042 C   0  0  0  0  0  0  0  0  0  0  0  0
   69.3012   44.5645   57.1989 O   0  0  0  0  0  0  0  0  0  0  0  0
   72.0665   43.9115   57.8786 N   0  0  0  0  0  0  0  0  0  0  0  0
   73.1020   43.1606   58.9991 S   0  0  0  0  0  0  0  0  0  0  0  0
   72.9997   43.7135   60.3817 O   0  0  0  0  0  0  0  0  0  0  0  0
   74.5303   43.4011   58.5402 O   0  0  0  0  0  0  0  0  0  0  0  0
   72.5085   38.6213   58.9689 C   0  0  0  0  0  0  0  0  0  0  0  0
   71.5735   39.4657   58.4156 C   0  0  0  0  0  0  0  0  0  0  0  0
   71.7342   40.8423   58.4145 C   0  0  0  0  0  0  0  0  0  0  0  0
   72.8543   41.4209   58.9763 C   0  0  0  0  0  0  0  0  0  0  0  0
   73.7906   40.5599   59.5317 C   0  0  0  0  0  0  0  0  0  0  0  0
   73.6258   39.1908   59.5300 C   0  0  0  0  0  0  0  0  0  0  0  0
   73.1330   36.3881   59.8721 C   0  0  0  0  0  0  0  0  0  0  0  0
   72.2585   37.1706   58.9263 C   0  0  0  0  0  0  0  0  0  0  0  0
   70.8159   36.9200   59.3443 C   0  0  0  0  0  0  0  0  0  0  0  0
   72.4206   36.5987   57.5406 C   0  0  0  0  0  0  0  0  0  0  0  0
   68.8374   47.5263   57.2169 C   0  0  0  0  0  0  0  0  0  0  0  0
   68.7218   47.3073   55.7552 C   0  0  0  0  0  0  0  0  0  0  0  0
   69.4258   48.0259   54.8136 C   0  0  0  0  0  0  0  0  0  0  0  0
   69.0349   47.5174   53.5911 C   0  0  0  0  0  0  0  0  0  0  0  0
   69.3559   47.7903   52.2800 C   0  0  0  0  0  0  0  0  0  0  0  0
   68.8114   47.1241   51.2498 N   0  0  0  0  0  0  0  0  0  0  0  0
   67.9144   46.1504   51.5254 C   0  0  0  0  0  0  0  0  0  0  0  0
   67.5573   45.8360   52.8021 C   0  0  0  0  0  0  0  0  0  0  0  0
   68.1136   46.5181   53.8695 C   0  0  0  0  0  0  0  0  0  0  0  0
   67.9305   46.3977   55.1775 N   0  0  0  0  0  0  0  0  0  0  0  0
 17 18  1  0
 18 19  1  0
 18 20  1  0
 18 11  1  0
 11 12  2  0
 11 16  1  0
 12 13  1  0
 13 14  2  0
 14  8  1  0
 14 15  1  0
  8  9  2  0
  8 10  2  0
  8  7  1  0
  1  7  1  6
  1  2  1  0
  1  5  1  0
  2  3  1  0
  3  4  1  0
  4 21  1  0
  4  5  1  0
 21 22  1  0
 22 23  2  0
 22 30  1  0
 23 24  1  0
 24 25  2  0
 24 29  1  0
 25 26  1  0
 26 27  2  0
 27 28  1  0
 28 29  2  0
 29 30  1  0
  5  6  2  0
 15 16  2  0
M  END
>  <minimizedAffinity>  (857) 
-8.67470

$$$$
data/reference_output_2/data/smiles/166253.pdb
     RDKit          3D

 28 31  0  0  0  0  0  0  0  0999 V2000
   70.3300   47.5764   56.7163 O   0  0  0  0  0  0  0  0  0  0  0  0
   68.8502   48.0754   56.0496 P   0  0  0  0  0  0  0  0  0  0  0  0
   67.7386   47.4921   56.8909 O   0  0  0  0  0  0  0  0  0  0  0  0
   68.7041   47.4594   54.3818 C   0  0  0  0  0  0  0  0  0  0  0  0
   67.8383   46.4486   54.0488 C   0  0  0  0  0  0  0  0  0  0  0  0
   67.7697   46.0093   52.7236 C   0  0  0  0  0  0  0  0  0  0  0  0
   68.5523   46.5693   51.7444 C   0  0  0  0  0  0  0  0  0  0  0  0
   69.4180   47.5832   52.0922 C   0  0  0  0  0  0  0  0  0  0  0  0
   69.4808   48.0096   53.3904 C   0  0  0  0  0  0  0  0  0  0  0  0
   68.7963   49.8394   55.9966 C   0  0  0  0  0  0  0  0  0  0  0  0
   68.5234   50.5851   57.1225 C   0  0  0  0  0  0  0  0  0  0  0  0
   68.4825   51.9796   57.0717 C   0  0  0  0  0  0  0  0  0  0  0  0
   68.7147   52.6456   55.8882 C   0  0  0  0  0  0  0  0  0  0  0  0
   68.9887   51.9058   54.7557 C   0  0  0  0  0  0  0  0  0  0  0  0
   69.0263   50.5202   54.8191 C   0  0  0  0  0  0  0  0  0  0  0  0
   70.0787   47.1447   57.9987 C   0  0  0  0  0  0  0  0  0  0  0  0
   69.1897   44.5318   56.9018 O   0  0  0  0  0  0  0  0  0  0  0  0
   70.2091   44.5801   57.6748 C   0  0  0  0  0  0  0  0  0  0  0  0
   70.9977   43.4508   58.0806 C   0  0  0  0  0  0  0  0  0  0  0  0
   70.8220   42.1123   57.7283 C   0  0  0  0  0  0  0  0  0  0  0  0
   71.6586   41.1231   58.1931 C   0  0  0  0  0  0  0  0  0  0  0  0
   72.7129   41.4306   59.0338 C   0  0  0  0  0  0  0  0  0  0  0  0
   72.8640   42.7627   59.3653 C   0  0  0  0  0  0  0  0  0  0  0  0
   72.0308   43.7444   58.9034 C   0  0  0  0  0  0  0  0  0  0  0  0
   72.0060   45.4745   59.1689 S   0  0  0  0  0  0  0  0  0  0  0  0
   71.7432   45.8016   60.6096 O   0  0  0  0  0  0  0  0  0  0  0  0
   73.2372   46.1351   58.6423 O   0  0  0  0  0  0  0  0  0  0  0  0
   70.6247   45.8179   58.1892 N   0  0  0  0  0  0  0  0  0  0  0  0
 17 18  2  0
 18 19  1  0
 18 28  1  0
 19 20  2  0
 19 24  1  0
 20 21  1  0
 21 22  2  0
 22 23  1  0
 23 24  2  0
 24 25  1  0
 25 26  2  0
 25 27  2  0
 25 28  1  0
 28 16  1  0
 16  1  1  0
  1  2  1  0
  2  3  2  0
  2  4  1  0
  2 10  1  0
  4  5  2  0
  4  9  1  0
  5  6  1  0
  6  7  2  0
  7  8  1  0
  8  9  2  0
 10 11  2  0
 10 15  1  0
 11 12  1  0
 12 13  2  0
 13 14  1  0
 14 15  2  0
M  END
>  <minimizedAffinity>  (858) 
-8.74964

$$$$
data/reference_output_2/data/smiles/166283.pdb
     RDKit          3D

 30 34  0  0  0  0  0  0  0  0999 V2000
   74.0294   35.5152   56.7642 N   0  0  0  0  0  0  0  0  0  0  0  0
   73.9927   35.4897   55.4424 N   0  0  0  0  0  0  0  0  0  0  0  0
   75.2166   35.2188   54.9487 C   0  0  0  0  0  0  0  0  0  0  0  0
   75.9911   35.0826   56.0407 N   0  0  0  0  0  0  0  0  0  0  0  0
   75.2666   35.2634   57.1553 N   0  0  0  0  0  0  0  0  0  0  0  0
   70.5874   38.8189   58.7220 Cl  0  0  0  0  0  0  0  0  0  0  0  0
   71.2987   37.2262   58.6180 C   0  0  0  0  0  0  0  0  0  0  0  0
   70.8018   36.2025   59.3970 C   0  0  0  0  0  0  0  0  0  0  0  0
   71.3991   34.9575   59.2784 C   0  0  0  0  0  0  0  0  0  0  0  0
   72.4478   34.7292   58.4255 C   0  0  0  0  0  0  0  0  0  0  0  0
   72.9265   35.7710   57.6562 C   0  0  0  0  0  0  0  0  0  0  0  0
   72.3492   37.0004   57.7623 C   0  0  0  0  0  0  0  0  0  0  0  0
   75.6075   35.1009   53.5449 C   0  0  0  0  0  0  0  0  0  0  0  0
   74.8857   34.3513   52.6442 C   0  0  0  0  0  0  0  0  0  0  0  0
   75.2704   34.2476   51.3095 C   0  0  0  0  0  0  0  0  0  0  0  0
   76.3907   34.8921   50.8309 C   0  0  0  0  0  0  0  0  0  0  0  0
   77.1053   35.6392   51.7412 C   0  0  0  0  0  0  0  0  0  0  0  0
   76.7264   35.7449   53.0666 C   0  0  0  0  0  0  0  0  0  0  0  0
   76.7863   34.7773   49.4296 C   0  0  0  0  0  0  0  0  0  0  0  0
   76.0865   33.9671   48.5621 C   0  0  0  0  0  0  0  0  0  0  0  0
   76.4447   33.8452   47.2321 C   0  0  0  0  0  0  0  0  0  0  0  0
   77.5223   34.5322   46.7146 C   0  0  0  0  0  0  0  0  0  0  0  0
   78.2303   35.3457   47.5742 C   0  0  0  0  0  0  0  0  0  0  0  0
   77.8617   35.4590   48.9001 C   0  0  0  0  0  0  0  0  0  0  0  0
   75.7352   35.1975   58.5017 C   0  0  0  0  0  0  0  0  0  0  0  0
   75.9097   36.2786   59.3068 C   0  0  0  0  0  0  0  0  0  0  0  0
   76.3694   36.0871   60.5934 C   0  0  0  0  0  0  0  0  0  0  0  0
   76.6548   34.8262   61.0747 C   0  0  0  0  0  0  0  0  0  0  0  0
   76.4784   33.7189   60.2549 C   0  0  0  0  0  0  0  0  0  0  0  0
   76.0234   33.9291   58.9907 C   0  0  0  0  0  0  0  0  0  0  0  0
  6  7  1  0
  7  8  2  0
  7 12  1  0
  8  9  1  0
  9 10  2  0
 10 11  1  0
 11  1  1  0
 11 12  2  0
  1  2  2  0
  1  5  1  0
  2  3  1  0
  3 13  1  0
  3  4  2  0
 13 14  2  0
 13 18  1  0
 14 15  1  0
 15 16  2  0
 16 19  1  0
 16 17  1  0
 19 20  2  0
 19 24  1  0
 20 21  1  0
 21 22  2  0
 22 23  1  0
 23 24  2  0
 17 18  2  0
  4  5  1  0
  5 25  1  0
 25 26  2  0
 25 30  1  0
 26 27  1  0
 27 28  2  0
 28 29  1  0
 29 30  2  0
M  CHG  1   1   1
M  END
>  <minimizedAffinity>  (859) 
-8.54515

$$$$
data/reference_output_2/data/smiles/166314.pdb
     RDKit          3D

 20 22  0  0  0  0  0  0  0  0999 V2000
   69.6445   47.1064   55.6507 O   0  0  0  0  0  0  0  0  0  0  0  0
   68.9307   46.5823   54.5705 C   0  0  0  0  0  0  0  0  0  0  0  0
   68.0894   45.5142   54.6733 C   0  0  0  0  0  0  0  0  0  0  0  0
   67.4415   45.0926   53.5303 C   0  0  0  0  0  0  0  0  0  0  0  0
   67.6070   45.6942   52.3148 C   0  0  0  0  0  0  0  0  0  0  0  0
   68.4593   46.7746   52.2192 C   0  0  0  0  0  0  0  0  0  0  0  0
   68.8327   47.5561   51.2378 O   0  0  0  0  0  0  0  0  0  0  0  0
   69.6704   48.4535   51.6490 C   0  0  0  0  0  0  0  0  0  0  0  0
   70.2522   49.3795   51.0070 O   0  0  0  0  0  0  0  0  0  0  0  0
   69.8588   48.2559   52.9534 N   0  0  0  0  0  0  0  0  0  0  0  0
   69.1144   47.2086   53.3533 C   0  0  0  0  0  0  0  0  0  0  0  0
   69.0501   47.5314   56.8132 C   0  0  0  0  0  0  0  0  0  0  0  0
   69.0700   46.7358   57.7859 O   0  0  0  0  0  0  0  0  0  0  0  0
   68.7838   52.4493   55.9295 C   0  0  0  0  0  0  0  0  0  0  0  0
   68.2696   51.2093   56.5548 C   0  0  0  0  0  0  0  0  0  0  0  0
   67.1312   51.3025   57.3230 C   0  0  0  0  0  0  0  0  0  0  0  0
   66.6140   50.1565   57.9312 C   0  0  0  0  0  0  0  0  0  0  0  0
   67.2731   48.9629   57.7341 C   0  0  0  0  0  0  0  0  0  0  0  0
   68.4114   48.8310   56.9733 C   0  0  0  0  0  0  0  0  0  0  0  0
   68.8959   49.9881   56.3868 C   0  0  0  0  0  0  0  0  0  0  0  0
 14 15  1  0
 15 16  2  0
 15 20  1  0
 16 17  1  0
 17 18  2  0
 18 19  1  0
 19 12  1  0
 19 20  2  0
 12 13  2  0
 12  1  1  0
  1  2  1  0
  2  3  2  0
  2 11  1  0
  3  4  1  0
  4  5  2  0
  5  6  1  0
  6  7  1  0
  6 11  2  0
  7  8  1  0
  8  9  2  0
  8 10  1  0
 10 11  1  0
M  END
>  <minimizedAffinity>  (860) 
-8.55059

$$$$
data/reference_output_2/data/smiles/166394.pdb
     RDKit          3D

 22 24  0  0  0  0  0  0  0  0999 V2000
   68.3748   45.2799   55.8368 C   0  0  0  0  0  0  0  0  0  0  0  0
   69.3103   45.6098   56.6567 N   0  0  0  0  0  0  0  0  0  0  0  0
   70.0286   44.4308   57.6685 S   0  0  0  0  0  0  0  0  0  0  0  0
   71.5188   44.3430   57.4581 O   0  0  0  0  0  0  0  0  0  0  0  0
   69.7595   44.7993   59.1218 O   0  0  0  0  0  0  0  0  0  0  0  0
   69.2699   42.8929   57.3475 C   0  0  0  0  0  0  0  0  0  0  0  0
   69.6342   41.7513   58.0077 C   0  0  0  0  0  0  0  0  0  0  0  0
   69.0605   40.5157   57.7843 C   0  0  0  0  0  0  0  0  0  0  0  0
   69.5913   39.0883   58.6822 Cl  0  0  0  0  0  0  0  0  0  0  0  0
   68.0622   40.4336   56.8378 C   0  0  0  0  0  0  0  0  0  0  0  0
   67.6851   41.5717   56.1674 C   0  0  0  0  0  0  0  0  0  0  0  0
   66.6785   41.4636   55.2204 O   0  0  0  0  0  0  0  0  0  0  0  0
   68.2741   42.8243   56.4013 C   0  0  0  0  0  0  0  0  0  0  0  0
   67.8509   43.9719   55.6817 N   0  0  0  0  0  0  0  0  0  0  0  0
   67.8694   46.3805   55.0537 N   0  0  0  0  0  0  0  0  0  0  0  0
   67.6243   45.4904   52.4332 C   0  0  0  0  0  0  0  0  0  0  0  0
   68.5186   46.6320   52.7634 C   0  0  0  0  0  0  0  0  0  0  0  0
   69.2276   47.2345   51.7326 C   0  0  0  0  0  0  0  0  0  0  0  0
   70.0713   48.2951   51.9718 C   0  0  0  0  0  0  0  0  0  0  0  0
   70.1809   48.7304   53.2762 C   0  0  0  0  0  0  0  0  0  0  0  0
   69.4683   48.1173   54.2864 C   0  0  0  0  0  0  0  0  0  0  0  0
   68.6236   47.0620   54.0701 C   0  0  0  0  0  0  0  0  0  0  0  0
 16 17  1  0
 17 18  2  0
 17 22  1  0
 18 19  1  0
 19 20  2  0
 20 21  1  0
 21 22  2  0
 22 15  1  0
 15  1  1  0
  1  2  2  0
  1 14  1  0
  2  3  1  0
  3  4  2  0
  3  5  2  0
  3  6  1  0
  6  7  2  0
  6 13  1  0
  7  8  1  0
  8  9  1  0
  8 10  2  0
 10 11  1  0
 11 12  1  0
 11 13  2  0
 13 14  1  0
M  CHG  1   2   1
M  END
>  <minimizedAffinity>  (861) 
-8.68240

$$$$
data/reference_output_2/data/smiles/166653.pdb
     RDKit          3D

 27 29  0  0  0  0  0  0  0  0999 V2000
   69.6142   42.1535   57.4736 C   0  0  0  0  0  0  0  0  0  0  0  0
   70.7031   41.5600   58.0817 N   0  0  0  0  0  0  0  0  0  0  0  0
   70.7704   40.2795   58.4064 C   0  0  0  0  0  0  0  0  0  0  0  0
   69.7152   39.5106   58.1291 N   0  0  0  0  0  0  0  0  0  0  0  0
   68.6177   40.0094   57.5386 C   0  0  0  0  0  0  0  0  0  0  0  0
   67.6123   39.3076   57.2667 O   0  0  0  0  0  0  0  0  0  0  0  0
   68.5379   41.3642   57.1907 C   0  0  0  0  0  0  0  0  0  0  0  0
   67.3818   41.8391   56.5815 O   0  0  0  0  0  0  0  0  0  0  0  0
   70.6970   44.1813   57.5906 O   0  0  0  0  0  0  0  0  0  0  0  0
   69.6589   43.5613   57.1708 C   0  0  0  0  0  0  0  0  0  0  0  0
   68.7050   44.3077   56.4796 N   0  0  0  0  0  0  0  0  0  0  0  0
   68.8232   45.7405   56.2089 C   0  0  0  0  0  0  0  0  0  0  0  0
   68.5796   46.0598   54.7807 C   0  0  0  0  0  0  0  0  0  0  0  0
   69.0381   47.1972   54.1532 C   0  0  0  0  0  0  0  0  0  0  0  0
   68.7723   47.4180   52.8048 C   0  0  0  0  0  0  0  0  0  0  0  0
   68.0558   46.5319   52.0475 C   0  0  0  0  0  0  0  0  0  0  0  0
   67.8207   46.7900   50.7276 F   0  0  0  0  0  0  0  0  0  0  0  0
   67.5867   45.3860   52.6539 C   0  0  0  0  0  0  0  0  0  0  0  0
   67.8512   45.1725   53.9840 C   0  0  0  0  0  0  0  0  0  0  0  0
   71.9665   39.6956   59.0576 C   0  0  0  0  0  0  0  0  0  0  0  0
   71.8418   38.2205   58.9510 C   0  0  0  0  0  0  0  0  0  0  0  0
   72.3566   37.5137   57.8959 C   0  0  0  0  0  0  0  0  0  0  0  0
   72.2428   36.1239   57.7914 C   0  0  0  0  0  0  0  0  0  0  0  0
   71.5857   35.4190   58.7877 C   0  0  0  0  0  0  0  0  0  0  0  0
   71.4852   34.0723   58.6677 F   0  0  0  0  0  0  0  0  0  0  0  0
   71.0616   36.1158   59.8560 C   0  0  0  0  0  0  0  0  0  0  0  0
   71.1872   37.4995   59.9387 C   0  0  0  0  0  0  0  0  0  0  0  0
  9 10  2  0
 10 11  1  0
 10  1  1  0
 11 12  1  0
 12 13  1  0
 13 14  2  0
 13 19  1  0
 14 15  1  0
 15 16  2  0
 16 17  1  0
 16 18  1  0
 18 19  2  0
  1  2  1  0
  1  7  2  0
  2  3  2  0
  3 20  1  0
  3  4  1  0
 20 21  1  0
 21 22  2  0
 21 27  1  0
 22 23  1  0
 23 24  2  0
 24 25  1  0
 24 26  1  0
 26 27  2  0
  4  5  1  0
  5  6  2  0
  5  7  1  0
  7  8  1  0
M  END
>  <minimizedAffinity>  (862) 
-9.01041

$$$$
data/reference_output_2/data/smiles/166670.pdb
     RDKit          3D

 29 32  0  0  0  0  0  0  0  0999 V2000
   73.8126   33.8008   52.7848 C   0  0  1  0  0  0  0  0  0  0  0  0
   74.7552   33.3253   51.6979 C   0  0  0  0  0  0  0  0  0  0  0  0
   75.6237   34.4768   51.5368 N   0  0  0  0  0  0  0  0  0  0  0  0
   75.6233   35.2475   52.7392 C   0  0  0  0  0  0  0  0  0  0  0  0
   76.1718   36.3444   52.9035 O   0  0  0  0  0  0  0  0  0  0  0  0
   74.8262   34.4490   53.7382 C   0  0  1  0  0  0  0  0  0  0  0  0
   76.3367   34.7305   50.3297 C   0  0  0  0  0  0  0  0  0  0  0  0
   75.9720   34.1084   49.1570 C   0  0  0  0  0  0  0  0  0  0  0  0
   76.6635   34.3530   47.9820 C   0  0  0  0  0  0  0  0  0  0  0  0
   77.7392   35.2243   47.9356 C   0  0  0  0  0  0  0  0  0  0  0  0
   78.1026   35.8456   49.1120 C   0  0  0  0  0  0  0  0  0  0  0  0
   77.4121   35.6006   50.2840 C   0  0  0  0  0  0  0  0  0  0  0  0
   72.7305   35.0598   51.0750 O   0  0  0  0  0  0  0  0  0  0  0  0
   72.8865   34.8533   52.3055 C   0  0  0  0  0  0  0  0  0  0  0  0
   72.1534   35.6528   53.1703 O   0  0  0  0  0  0  0  0  0  0  0  0
   74.1888   35.2825   54.7040 N   0  0  0  0  0  0  0  0  0  0  0  0
   74.4101   34.6987   56.3168 S   0  0  0  0  0  0  0  0  0  0  0  0
   75.7198   35.1994   56.8546 O   0  0  0  0  0  0  0  0  0  0  0  0
   74.4087   33.2113   56.3845 O   0  0  0  0  0  0  0  0  0  0  0  0
   73.1549   35.2791   57.3921 C   0  0  0  0  0  0  0  0  0  0  0  0
   72.5538   34.4525   58.3198 C   0  0  0  0  0  0  0  0  0  0  0  0
   71.5610   34.9180   59.1671 C   0  0  0  0  0  0  0  0  0  0  0  0
   71.1236   36.2286   59.1279 C   0  0  0  0  0  0  0  0  0  0  0  0
   70.1388   36.7199   59.9581 C   0  0  0  0  0  0  0  0  0  0  0  0
   69.7113   38.0310   59.9082 C   0  0  0  0  0  0  0  0  0  0  0  0
   70.3141   38.8546   58.9795 C   0  0  0  0  0  0  0  0  0  0  0  0
   71.3013   38.3704   58.1456 C   0  0  0  0  0  0  0  0  0  0  0  0
   71.7278   37.0512   58.1995 C   0  0  0  0  0  0  0  0  0  0  0  0
   72.7200   36.5887   57.3514 C   0  0  0  0  0  0  0  0  0  0  0  0
 13 14  2  0
 14 15  1  0
  1 14  1  6
  1  2  1  0
  1  6  1  0
  2  3  1  0
  3  7  1  0
  3  4  1  0
  7  8  2  0
  7 12  1  0
  8  9  1  0
  9 10  2  0
 10 11  1  0
 11 12  2  0
  4  5  2  0
  4  6  1  0
  6 16  1  1
 16 17  1  0
 17 18  2  0
 17 19  2  0
 17 20  1  0
 20 21  2  0
 20 29  1  0
 21 22  1  0
 22 23  2  0
 23 24  1  0
 23 28  1  0
 24 25  2  0
 25 26  1  0
 26 27  2  0
 27 28  1  0
 28 29  2  0
M  END
>  <minimizedAffinity>  (863) 
-8.68682

$$$$
data/reference_output_2/data/smiles/166752.pdb
     RDKit          3D

 26 29  0  0  0  0  0  0  0  0999 V2000
   71.3125   46.9855   58.8739 C   0  0  0  0  0  0  0  0  0  0  0  0
   71.3551   45.6110   58.6675 C   0  0  0  0  0  0  0  0  0  0  0  0
   70.5412   45.1213   57.6900 C   0  0  0  0  0  0  0  0  0  0  0  0
   69.7198   45.9288   56.9418 C   0  0  0  0  0  0  0  0  0  0  0  0
   69.6574   47.2918   57.1214 C   0  0  0  0  0  0  0  0  0  0  0  0
   70.4922   47.7960   58.1264 C   0  0  0  0  0  0  0  0  0  0  0  0
   71.8777   47.3806   61.1135 O   0  0  0  0  0  0  0  0  0  0  0  0
   72.1752   47.5160   59.9282 C   0  0  0  0  0  0  0  0  0  0  0  0
   73.3536   48.1845   59.5340 N   0  0  0  0  0  0  0  0  0  0  0  0
   74.2786   48.7677   60.5208 C   0  0  0  0  0  0  0  0  0  0  0  0
   74.5104   50.2258   60.2109 C   0  0  0  0  0  0  0  0  0  0  0  0
   73.9294   50.6740   58.9890 N   0  0  0  0  0  0  0  0  0  0  0  0
   74.0789   49.8054   57.8595 C   0  0  0  0  0  0  0  0  0  0  0  0
   73.7809   48.3662   58.1613 C   0  0  0  0  0  0  0  0  0  0  0  0
   68.7950   48.1919   56.3238 C   0  0  0  0  0  0  0  0  0  0  0  0
   69.2523   48.3005   54.9340 C   0  0  0  0  0  0  0  0  0  0  0  0
   70.2226   49.2079   54.5997 N   0  0  0  0  0  0  0  0  0  0  0  0
   70.7171   49.3359   53.3896 N   0  0  0  0  0  0  0  0  0  0  0  0
   70.2847   48.5637   52.3934 C   0  0  0  0  0  0  0  0  0  0  0  0
   70.7651   48.6834   51.2088 O   0  0  0  0  0  0  0  0  0  0  0  0
   69.3183   47.6287   52.6194 C   0  0  0  0  0  0  0  0  0  0  0  0
   68.8634   46.8361   51.5839 C   0  0  0  0  0  0  0  0  0  0  0  0
   67.8791   45.9055   51.8278 C   0  0  0  0  0  0  0  0  0  0  0  0
   67.3561   45.7718   53.0943 C   0  0  0  0  0  0  0  0  0  0  0  0
   67.8131   46.5655   54.1261 C   0  0  0  0  0  0  0  0  0  0  0  0
   68.7973   47.5025   53.9193 C   0  0  0  0  0  0  0  0  0  0  0  0
  7  8  2  0
  8  1  1  0
  8  9  1  0
  1  2  2  0
  1  6  1  0
  2  3  1  0
  3  4  2  0
  4  5  1  0
  5 15  1  0
  5  6  2  0
 15 16  1  0
 16 17  2  0
 16 26  1  0
 17 18  1  0
 18 19  1  0
 19 20  2  0
 19 21  1  0
 21 22  1  0
 21 26  2  0
 22 23  2  0
 23 24  1  0
 24 25  2  0
 25 26  1  0
  9 10  1  0
  9 14  1  0
 10 11  1  0
 11 12  1  0
 12 13  1  0
 13 14  1  0
M  CHG  1  12   1
M  END
>  <minimizedAffinity>  (864) 
-8.97450

$$$$
data/reference_output_2/data/smiles/166827.pdb
     RDKit          3D

 30 34  0  0  0  0  0  0  0  0999 V2000
   70.7059   51.2267   55.0946 C   0  0  0  0  0  0  0  0  0  0  0  0
   70.3927   50.2684   56.0247 C   0  0  0  0  0  0  0  0  0  0  0  0
   69.8187   49.0426   55.6435 C   0  0  0  0  0  0  0  0  0  0  0  0
   69.5566   48.7700   54.3230 C   0  0  0  0  0  0  0  0  0  0  0  0
   69.8762   49.7450   53.3842 C   0  0  0  0  0  0  0  0  0  0  0  0
   70.4427   50.9520   53.7720 C   0  0  0  0  0  0  0  0  0  0  0  0
   69.6092   49.4622   52.0657 C   0  0  0  0  0  0  0  0  0  0  0  0
   69.9012   50.3488   51.2190 O   0  0  0  0  0  0  0  0  0  0  0  0
   69.0630   48.3119   51.6400 N   0  0  0  0  0  0  0  0  0  0  0  0
   68.7602   47.3779   52.5645 C   0  0  0  0  0  0  0  0  0  0  0  0
   68.1961   46.1734   52.1861 C   0  0  0  0  0  0  0  0  0  0  0  0
   67.8588   45.1717   53.0763 C   0  0  0  0  0  0  0  0  0  0  0  0
   68.1094   45.4105   54.4147 C   0  0  0  0  0  0  0  0  0  0  0  0
   67.7596   44.3741   55.3227 N   0  0  0  0  0  0  0  0  0  0  0  0
   68.6687   46.5934   54.8375 C   0  0  0  0  0  0  0  0  0  0  0  0
   68.9951   47.5755   53.9307 C   0  0  0  0  0  0  0  0  0  0  0  0
   71.3124   52.5229   55.4923 C   0  0  0  0  0  0  0  0  0  0  0  0
   72.7798   52.5705   55.1381 C   0  0  2  0  0  0  0  0  0  0  0  0
   73.4763   51.7377   56.1133 N   0  0  0  0  0  0  0  0  0  0  0  0
   74.1443   50.5348   55.7757 C   0  0  0  0  0  0  0  0  0  0  0  0
   74.1369   50.1681   54.5733 O   0  0  0  0  0  0  0  0  0  0  0  0
   74.8474   49.7019   56.7894 C   0  0  1  0  0  0  0  0  0  0  0  0
   75.5214   50.5275   57.7764 N   0  0  0  0  0  0  0  0  0  0  0  0
   75.2312   49.8566   59.0312 C   0  0  2  0  0  0  0  0  0  0  0  0
   75.7396   48.4426   58.9668 C   0  0  0  0  0  0  0  0  0  0  0  0
   74.7509   47.6606   58.0968 C   0  0  0  0  0  0  0  0  0  0  0  0
   73.9190   48.7876   57.5425 C   0  0  1  0  0  0  0  0  0  0  0  0
   73.7243   49.6112   58.8292 C   0  0  0  0  0  0  0  0  0  0  0  0
   73.6276   55.0608   55.3239 N   0  0  0  0  0  0  0  0  0  0  0  0
   73.2491   53.9582   55.2302 C   0  0  0  0  0  0  0  0  0  0  0  0
 29 30  3  0
 18 30  1  1
 18 17  1  0
 18 19  1  0
 17  1  1  0
  1  2  2  0
  1  6  1  0
  2  3  1  0
  3  4  2  0
  4  5  1  0
  4 16  1  0
  5  6  2  0
  5  7  1  0
  7  8  2  0
  7  9  1  0
  9 10  1  0
 10 11  1  0
 10 16  2  0
 11 12  2  0
 12 13  1  0
 13 14  1  0
 13 15  2  0
 15 16  1  0
 19 20  1  0
 20 21  2  0
 22 20  1  6
 22 23  1  0
 22 27  1  0
 23 24  1  0
 24 25  1  6
 24 28  1  0
 25 26  1  0
 27 26  1  1
 27 28  1  0
M  CHG  1  23   1
M  END
>  <minimizedAffinity>  (865) 
-8.78098

$$$$
data/reference_output_2/data/smiles/166950.pdb
     RDKit          3D

 25 27  0  0  0  0  0  0  0  0999 V2000
   70.3517   45.6752   57.6852 C   0  0  0  0  0  0  0  0  0  0  0  0
   69.9205   46.7551   57.0149 N   0  0  0  0  0  0  0  0  0  0  0  0
   68.8772   46.3967   56.2165 C   0  0  0  0  0  0  0  0  0  0  0  0
   68.7125   45.0802   56.4409 N   0  0  0  0  0  0  0  0  0  0  0  0
   69.6119   44.6844   57.3236 O   0  0  0  0  0  0  0  0  0  0  0  0
   72.4455   44.9201   58.4765 O   0  0  0  0  0  0  0  0  0  0  0  0
   71.4390   45.6270   58.6336 C   0  0  0  0  0  0  0  0  0  0  0  0
   71.3928   46.4358   59.8517 N   0  0  0  0  0  0  0  0  0  0  0  0
   72.4464   46.3915   60.7734 C   0  0  0  0  0  0  0  0  0  0  0  0
   73.2261   47.5632   61.1019 C   0  0  0  0  0  0  0  0  0  0  0  0
   73.0016   48.0582   62.3212 O   0  0  0  0  0  0  0  0  0  0  0  0
   74.1810   48.3051   60.4083 N   0  0  0  0  0  0  0  0  0  0  0  0
   74.7976   48.3215   59.1199 C   0  0  0  0  0  0  0  0  0  0  0  0
   74.6897   49.8237   58.7403 C   0  0  0  0  0  0  0  0  0  0  0  0
   74.5718   50.5270   60.0520 C   0  0  0  0  0  0  0  0  0  0  0  0
   74.8916   49.4465   61.0867 C   0  0  0  0  0  0  0  0  0  0  0  0
   68.0654   47.2064   55.2955 C   0  0  0  0  0  0  0  0  0  0  0  0
   68.7589   47.5140   54.0362 C   0  0  0  0  0  0  0  0  0  0  0  0
   69.5528   48.6382   53.9580 C   0  0  0  0  0  0  0  0  0  0  0  0
   69.7439   49.7023   55.3462 Cl  0  0  0  0  0  0  0  0  0  0  0  0
   70.2217   48.9672   52.7987 C   0  0  0  0  0  0  0  0  0  0  0  0
   70.1008   48.1628   51.6891 C   0  0  0  0  0  0  0  0  0  0  0  0
   69.3168   47.0353   51.7363 C   0  0  0  0  0  0  0  0  0  0  0  0
   68.6559   46.7197   52.8988 C   0  0  0  0  0  0  0  0  0  0  0  0
   67.6590   45.2814   52.9490 Cl  0  0  0  0  0  0  0  0  0  0  0  0
  6  7  2  0
  7  8  1  0
  7  1  1  0
  8  9  1  0
  9 10  1  0
 10 11  2  0
 10 12  1  0
 12 13  1  0
 12 16  1  0
 13 14  1  0
 14 15  1  0
 15 16  1  0
  1  2  2  0
  1  5  1  0
  2  3  1  0
  3 17  1  0
  3  4  2  0
 17 18  1  0
 18 19  2  0
 18 24  1  0
 19 20  1  0
 19 21  1  0
 21 22  2  0
 22 23  1  0
 23 24  2  0
 24 25  1  0
  4  5  1  0
M  END
>  <minimizedAffinity>  (866) 
-8.53284

$$$$
data/reference_output_2/data/smiles/167075.pdb
     RDKit          3D

 32 34  0  0  0  0  0  0  0  0999 V2000
   69.1733   39.9874   59.1943 N   0  0  0  0  0  0  0  0  0  0  0  0
   68.1250   39.9742   60.2354 C   0  0  0  0  0  0  0  0  0  0  0  0
   67.1206   41.0802   59.9384 C   0  0  0  0  0  0  0  0  0  0  0  0
   66.9369   41.1850   58.5386 O   0  0  0  0  0  0  0  0  0  0  0  0
   68.0315   41.8715   58.0313 C   0  0  1  0  0  0  0  0  0  0  0  0
   69.2560   41.1644   58.4163 C   0  0  0  0  0  0  0  0  0  0  0  0
   70.4183   41.5581   58.0831 O   0  0  0  0  0  0  0  0  0  0  0  0
   71.6825   36.5839   58.7107 C   0  0  0  0  0  0  0  0  0  0  0  0
   71.8970   37.7259   57.9693 C   0  0  0  0  0  0  0  0  0  0  0  0
   71.0777   38.8380   58.1199 C   0  0  0  0  0  0  0  0  0  0  0  0
   70.0236   38.8745   58.9987 C   0  0  0  0  0  0  0  0  0  0  0  0
   69.8113   37.7206   59.7434 C   0  0  0  0  0  0  0  0  0  0  0  0
   70.6286   36.6014   59.5975 C   0  0  0  0  0  0  0  0  0  0  0  0
   72.9421   35.1563   57.1040 C   0  0  0  0  0  0  0  0  0  0  0  0
   72.5606   35.3839   58.5521 C   0  0  0  0  0  0  0  0  0  0  0  0
   73.8361   35.5176   59.3464 C   0  0  0  0  0  0  0  0  0  0  0  0
   71.8589   34.1287   59.0275 C   0  0  0  0  0  0  0  0  0  0  0  0
   67.9220   42.1246   56.5551 C   0  0  1  0  0  0  0  0  0  0  0  0
   66.5697   41.8977   56.2203 O   0  0  0  0  0  0  0  0  0  0  0  0
   68.3819   43.4402   56.1150 C   0  0  0  0  0  0  0  0  0  0  0  0
   69.4328   43.9225   56.6016 O   0  0  0  0  0  0  0  0  0  0  0  0
   67.6769   44.1934   55.1548 N   0  0  0  0  0  0  0  0  0  0  0  0
   68.1355   45.4662   54.7407 C   0  0  0  0  0  0  0  0  0  0  0  0
   68.5853   46.4238   55.6365 C   0  0  0  0  0  0  0  0  0  0  0  0
   69.0253   47.6547   55.1962 C   0  0  0  0  0  0  0  0  0  0  0  0
   69.0371   47.9864   53.8534 C   0  0  0  0  0  0  0  0  0  0  0  0
   68.5890   47.0307   52.9687 C   0  0  0  0  0  0  0  0  0  0  0  0
   68.1522   45.8083   53.4026 C   0  0  0  0  0  0  0  0  0  0  0  0
   67.7112   44.8676   52.5327 F   0  0  0  0  0  0  0  0  0  0  0  0
   69.5067   49.2990   53.3955 C   0  0  0  0  0  0  0  0  0  0  0  0
   70.4601   49.3260   52.5270 N   0  0  0  0  0  0  0  0  0  0  0  0
   68.9750   50.5212   53.8533 N   0  0  0  0  0  0  0  0  0  0  0  0
 14 15  1  0
 15 16  1  0
 15 17  1  0
 15  8  1  0
  8  9  2  0
  8 13  1  0
  9 10  1  0
 10 11  2  0
 11  1  1  0
 11 12  1  0
  1  2  1  0
  1  6  1  0
  2  3  1  0
  3  4  1  0
  5  4  1  6
  5 18  1  0
  5  6  1  0
 18 19  1  1
 18 20  1  0
 20 21  2  0
 20 22  1  0
 22 23  1  0
 23 24  2  0
 23 28  1  0
 24 25  1  0
 25 26  2  0
 26 30  1  0
 26 27  1  0
 30 31  2  0
 30 32  1  0
 27 28  2  0
 28 29  1  0
  6  7  2  0
 12 13  2  0
M  CHG  1  31   1
M  END
>  <minimizedAffinity>  (867) 
-9.57181

$$$$
data/reference_output_2/data/smiles/167105.pdb
     RDKit          3D

 28 31  0  0  0  0  0  0  0  0999 V2000
   73.6648   39.1751   59.5593 O   0  0  0  0  0  0  0  0  0  0  0  0
   73.0821   40.2080   59.1591 C   0  0  0  0  0  0  0  0  0  0  0  0
   73.5909   41.5534   59.2448 N   0  0  0  0  0  0  0  0  0  0  0  0
   72.6505   42.4698   58.6895 C   0  0  0  0  0  0  0  0  0  0  0  0
   72.6994   43.8501   58.5522 C   0  0  0  0  0  0  0  0  0  0  0  0
   71.6466   44.5165   57.9724 C   0  0  0  0  0  0  0  0  0  0  0  0
   70.5106   43.8401   57.5094 C   0  0  0  0  0  0  0  0  0  0  0  0
   70.5235   42.4770   57.6751 C   0  0  0  0  0  0  0  0  0  0  0  0
   71.5541   41.7588   58.2493 C   0  0  0  0  0  0  0  0  0  0  0  0
   71.7817   40.3332   58.5240 C   0  0  0  0  0  0  0  0  0  0  0  0
   70.9902   39.3361   58.2451 C   0  0  0  0  0  0  0  0  0  0  0  0
   71.2412   37.9246   58.5001 C   0  0  0  0  0  0  0  0  0  0  0  0
   70.6247   37.3135   59.6023 C   0  0  0  0  0  0  0  0  0  0  0  0
   70.9839   35.9910   59.6077 C   0  0  0  0  0  0  0  0  0  0  0  0
   71.8060   35.8225   58.5164 C   0  0  0  0  0  0  0  0  0  0  0  0
   71.9496   37.0096   57.8564 N   0  0  0  0  0  0  0  0  0  0  0  0
   69.4098   44.5736   56.8986 C   0  0  0  0  0  0  0  0  0  0  0  0
   68.3578   43.9419   56.6062 O   0  0  0  0  0  0  0  0  0  0  0  0
   69.4565   45.9451   56.6189 N   0  0  0  0  0  0  0  0  0  0  0  0
   68.3469   46.6733   56.0047 C   0  0  2  0  0  0  0  0  0  0  0  0
   68.5668   46.8294   54.5424 C   0  0  0  0  0  0  0  0  0  0  0  0
   67.9990   45.9461   53.6265 C   0  0  0  0  0  0  0  0  0  0  0  0
   68.1910   46.0696   52.2703 C   0  0  0  0  0  0  0  0  0  0  0  0
   68.9676   47.0911   51.7661 C   0  0  0  0  0  0  0  0  0  0  0  0
   69.5403   47.9779   52.6485 C   0  0  0  0  0  0  0  0  0  0  0  0
   69.3370   47.8390   54.0046 C   0  0  0  0  0  0  0  0  0  0  0  0
   68.0908   47.9991   56.6341 C   0  0  0  0  0  0  0  0  0  0  0  0
   66.9643   47.9902   57.4596 O   0  0  0  0  0  0  0  0  0  0  0  0
  1  2  2  0
  2  3  1  0
  2 10  1  0
  3  4  1  0
  4  5  2  0
  4  9  1  0
  5  6  1  0
  6  7  2  0
  7 17  1  0
  7  8  1  0
 17 18  2  0
 17 19  1  0
 19 20  1  0
 20 27  1  1
 20 21  1  0
 27 28  1  0
 21 22  2  0
 21 26  1  0
 22 23  1  0
 23 24  2  0
 24 25  1  0
 25 26  2  0
  8  9  2  0
  9 10  1  0
 10 11  2  0
 11 12  1  0
 12 13  2  0
 12 16  1  0
 13 14  1  0
 14 15  2  0
 15 16  1  0
M  END
>  <minimizedAffinity>  (868) 
-8.53342

$$$$
data/reference_output_2/data/smiles/167149.pdb
     RDKit          3D

 30 34  0  0  0  0  0  0  0  0999 V2000
   69.3676   40.1184   58.2201 C   0  0  0  0  0  0  0  0  0  0  0  0
   70.0362   41.3232   58.1693 C   0  0  0  0  0  0  0  0  0  0  0  0
   69.5742   42.3819   57.3778 C   0  0  0  0  0  0  0  0  0  0  0  0
   68.4302   42.2461   56.6217 C   0  0  0  0  0  0  0  0  0  0  0  0
   67.7783   43.1162   55.7761 C   0  0  0  0  0  0  0  0  0  0  0  0
   66.7119   42.4167   55.3227 N   0  0  0  0  0  0  0  0  0  0  0  0
   66.7018   41.2113   55.8437 N   0  0  0  0  0  0  0  0  0  0  0  0
   67.7518   41.0384   56.6674 C   0  0  0  0  0  0  0  0  0  0  0  0
   68.2223   40.0055   57.4541 C   0  0  0  0  0  0  0  0  0  0  0  0
   68.1342   44.4903   55.4286 C   0  0  0  0  0  0  0  0  0  0  0  0
   68.0824   45.0407   54.2215 N   0  0  0  0  0  0  0  0  0  0  0  0
   68.4865   46.3376   54.2695 C   0  0  0  0  0  0  0  0  0  0  0  0
   68.6281   47.3508   53.3485 C   0  0  0  0  0  0  0  0  0  0  0  0
   69.0705   48.5994   53.6905 C   0  0  0  0  0  0  0  0  0  0  0  0
   69.3904   48.8639   55.0053 C   0  0  0  0  0  0  0  0  0  0  0  0
   69.2538   47.8529   55.9514 C   0  0  0  0  0  0  0  0  0  0  0  0
   68.8063   46.5923   55.6010 C   0  0  0  0  0  0  0  0  0  0  0  0
   68.5761   45.4449   56.2616 N   0  0  0  0  0  0  0  0  0  0  0  0
   70.7384   38.0096   58.6288 N   0  0  0  0  0  0  0  0  0  0  0  0
   69.8430   39.0019   59.0467 C   0  0  0  0  0  0  0  0  0  0  0  0
   69.4216   38.9172   60.2228 O   0  0  0  0  0  0  0  0  0  0  0  0
   73.6271   37.5851   59.3776 C   0  0  1  0  0  0  0  0  0  0  0  0
   73.9317   36.3566   58.5513 C   0  0  0  0  0  0  0  0  0  0  0  0
   72.7436   35.9191   57.7320 C   0  0  0  0  0  0  0  0  0  0  0  0
   71.5925   35.6872   58.6877 C   0  0  0  0  0  0  0  0  0  0  0  0
   71.2094   36.9158   59.4249 C   0  0  1  0  0  0  0  0  0  0  0  0
   72.3884   37.4010   60.2159 C   0  0  0  0  0  0  0  0  0  0  0  0
   75.9139   37.2040   60.2900 N   0  0  0  0  0  0  0  0  0  0  0  0
   74.7847   38.0380   60.1620 C   0  0  0  0  0  0  0  0  0  0  0  0
   74.7733   39.1532   60.7116 O   0  0  0  0  0  0  0  0  0  0  0  0
 28 29  1  0
 29 30  2  0
 22 29  1  1
 22 23  1  0
 22 27  1  0
 23 24  1  0
 24 25  1  0
 25 26  1  0
 26 19  1  6
 26 27  1  0
 19 20  1  0
 20 21  2  0
 20  1  1  0
  1  2  2  0
  1  9  1  0
  2  3  1  0
  3  4  2  0
  4  5  1  0
  4  8  1  0
  5 10  1  0
  5  6  2  0
 10 11  2  0
 10 18  1  0
 11 12  1  0
 12 13  2  0
 12 17  1  0
 13 14  1  0
 14 15  2  0
 15 16  1  0
 16 17  2  0
 17 18  1  0
  6  7  1  0
  7  8  1  0
  8  9  2  0
M  CHG  1  11   1
M  END
>  <minimizedAffinity>  (869) 
-8.68222

$$$$
data/reference_output_2/data/smiles/167223.pdb
     RDKit          3D

 22 23  0  0  0  0  0  0  0  0999 V2000
   69.2253   46.8343   56.9445 C   0  0  0  0  0  0  0  0  0  0  0  0
   69.7028   48.2720   57.5260 S   0  0  0  0  0  0  0  0  0  0  0  0
   69.9378   45.6769   57.3254 N   0  0  0  0  0  0  0  0  0  0  0  0
   71.3284   43.5617   58.2468 C   0  0  0  0  0  0  0  0  0  0  0  0
   69.9907   43.4000   57.6629 C   0  0  0  0  0  0  0  0  0  0  0  0
   69.3586   44.4133   57.2364 N   0  0  0  0  0  0  0  0  0  0  0  0
   69.3932   42.0820   57.5741 C   0  0  0  0  0  0  0  0  0  0  0  0
   69.8404   41.0305   58.3907 C   0  0  0  0  0  0  0  0  0  0  0  0
   69.3154   39.7711   58.3559 C   0  0  0  0  0  0  0  0  0  0  0  0
   68.2853   39.5051   57.4709 C   0  0  0  0  0  0  0  0  0  0  0  0
   67.8356   40.5297   56.6623 C   0  0  0  0  0  0  0  0  0  0  0  0
   68.3871   41.7747   56.7291 N   0  0  0  0  0  0  0  0  0  0  0  0
   68.1096   46.7887   56.0737 N   0  0  0  0  0  0  0  0  0  0  0  0
   68.3699   46.8592   54.6812 C   0  0  0  0  0  0  0  0  0  0  0  0
   67.7564   45.9592   53.8362 C   0  0  0  0  0  0  0  0  0  0  0  0
   67.9587   45.9626   52.4719 C   0  0  0  0  0  0  0  0  0  0  0  0
   68.8035   46.8994   51.9313 C   0  0  0  0  0  0  0  0  0  0  0  0
   69.4443   47.8261   52.7424 C   0  0  0  0  0  0  0  0  0  0  0  0
   69.2125   47.7857   54.1098 C   0  0  0  0  0  0  0  0  0  0  0  0
   70.3150   48.7927   52.1624 N   0  0  0  0  0  0  0  0  0  0  0  0
   71.3765   49.0697   52.7718 O   0  0  0  0  0  0  0  0  0  0  0  0
   69.9891   49.3951   50.9734 O   0  0  0  0  0  0  0  0  0  0  0  0
  4  5  1  0
  5  6  2  0
  5  7  1  0
  6  3  1  0
  3  1  1  0
  1  2  2  0
  1 13  1  0
 13 14  1  0
 14 15  2  0
 14 19  1  0
 15 16  1  0
 16 17  2  0
 17 18  1  0
 18 20  1  0
 18 19  2  0
 20 21  2  0
 20 22  1  0
  7  8  2  0
  7 12  1  0
  8  9  1  0
  9 10  2  0
 10 11  1  0
 11 12  2  0
M  CHG  2  20   1  22  -1
M  END
>  <minimizedAffinity>  (870) 
-8.94009

$$$$
data/reference_output_2/data/smiles/167361.pdb
     RDKit          3D

 23 25  0  0  0  0  0  0  0  0999 V2000
   69.3773   43.8056   56.9634 N   0  0  0  0  0  0  0  0  0  0  0  0
   68.8832   42.5932   57.0251 C   0  0  0  0  0  0  0  0  0  0  0  0
   67.6083   42.1349   56.4815 C   0  0  0  0  0  0  0  0  0  0  0  0
   66.7610   42.8126   55.8619 O   0  0  0  0  0  0  0  0  0  0  0  0
   67.4992   40.7609   56.7862 N   0  0  0  0  0  0  0  0  0  0  0  0
   68.6530   40.3478   57.4958 C   0  0  0  0  0  0  0  0  0  0  0  0
   68.9750   39.0993   57.9917 C   0  0  0  0  0  0  0  0  0  0  0  0
   70.1625   38.9258   58.6552 C   0  0  0  0  0  0  0  0  0  0  0  0
   70.9919   39.9986   58.8058 C   0  0  0  0  0  0  0  0  0  0  0  0
   72.6385   39.7481   59.7292 Br  0  0  0  0  0  0  0  0  0  0  0  0
   70.6820   41.2478   58.3160 C   0  0  0  0  0  0  0  0  0  0  0  0
   69.4900   41.4301   57.6472 C   0  0  0  0  0  0  0  0  0  0  0  0
   69.9831   46.4829   56.8368 O   0  0  0  0  0  0  0  0  0  0  0  0
   68.9369   46.1421   56.2596 C   0  0  0  0  0  0  0  0  0  0  0  0
   68.5867   44.7511   56.3038 N   0  0  0  0  0  0  0  0  0  0  0  0
   68.0805   47.1260   55.5522 C   0  0  0  0  0  0  0  0  0  0  0  0
   68.7723   47.5066   54.2958 C   0  0  0  0  0  0  0  0  0  0  0  0
   68.6513   46.7354   53.1656 C   0  0  0  0  0  0  0  0  0  0  0  0
   69.2771   47.0519   51.9734 C   0  0  0  0  0  0  0  0  0  0  0  0
   70.0562   48.1784   51.8973 C   0  0  0  0  0  0  0  0  0  0  0  0
   70.7107   48.5521   50.7338 O   0  0  0  0  0  0  0  0  0  0  0  0
   70.1911   48.9734   53.0350 C   0  0  0  0  0  0  0  0  0  0  0  0
   69.5629   48.6407   54.1986 C   0  0  0  0  0  0  0  0  0  0  0  0
 13 14  2  0
 14 16  1  0
 14 15  1  0
 16 17  1  0
 17 18  2  0
 17 23  1  0
 18 19  1  0
 19 20  2  0
 20 21  1  0
 20 22  1  0
 22 23  2  0
 15  1  1  0
  1  2  2  0
  2  3  1  0
  2 12  1  0
  3  4  2  0
  3  5  1  0
  5  6  1  0
  6  7  1  0
  6 12  2  0
  7  8  2  0
  8  9  1  0
  9 10  1  0
  9 11  2  0
 11 12  1  0
M  END
>  <minimizedAffinity>  (871) 
-8.71159

$$$$
data/reference_output_2/data/smiles/167367.pdb
     RDKit          3D

 27 28  0  0  0  0  0  0  0  0999 V2000
   69.1162   47.8635   56.8568 S   0  0  0  0  0  0  0  0  0  0  0  0
   67.6793   47.4654   57.1193 O   0  0  0  0  0  0  0  0  0  0  0  0
   69.3544   49.1189   57.6432 O   0  0  0  0  0  0  0  0  0  0  0  0
   70.1156   46.5781   57.4721 C   0  0  0  0  0  0  0  0  0  0  0  0
   70.9162   46.7333   58.4977 C   0  0  0  0  0  0  0  0  0  0  0  0
   71.7651   45.6872   59.0406 C   0  0  0  0  0  0  0  0  0  0  0  0
   72.3359   45.7254   60.2891 C   0  0  0  0  0  0  0  0  0  0  0  0
   73.1435   44.6779   60.7447 C   0  0  0  0  0  0  0  0  0  0  0  0
   73.3922   43.5767   59.9548 C   0  0  0  0  0  0  0  0  0  0  0  0
   72.8279   43.5235   58.6984 C   0  0  0  0  0  0  0  0  0  0  0  0
   72.0365   44.5701   58.2769 C   0  0  0  0  0  0  0  0  0  0  0  0
   73.1064   42.3290   57.8592 C   0  0  0  0  0  0  0  0  0  0  0  0
   73.6451   42.7658   56.6571 F   0  0  0  0  0  0  0  0  0  0  0  0
   74.0720   41.5885   58.5139 F   0  0  0  0  0  0  0  0  0  0  0  0
   71.9743   41.5661   57.6618 F   0  0  0  0  0  0  0  0  0  0  0  0
   69.3859   48.1603   55.1866 N   0  0  0  0  0  0  0  0  0  0  0  0
   69.0088   47.7375   52.8239 C   0  0  0  0  0  0  0  0  0  0  0  0
   68.4984   47.0101   51.7917 C   0  0  0  0  0  0  0  0  0  0  0  0
   67.7838   45.8692   52.0795 C   0  0  0  0  0  0  0  0  0  0  0  0
   67.2554   45.1124   51.0837 F   0  0  0  0  0  0  0  0  0  0  0  0
   67.5893   45.4684   53.3985 C   0  0  0  0  0  0  0  0  0  0  0  0
   68.1306   46.2449   54.4054 C   0  0  0  0  0  0  0  0  0  0  0  0
   68.8421   47.3793   54.1532 C   0  0  0  0  0  0  0  0  0  0  0  0
   69.2267   50.5516   53.2940 N   0  0  0  0  0  0  0  0  0  0  0  0
   69.9164   49.1851   52.4907 S   0  0  0  0  0  0  0  0  0  0  0  0
   71.3398   48.9715   52.9720 O   0  0  0  0  0  0  0  0  0  0  0  0
   69.9924   49.3812   51.0137 O   0  0  0  0  0  0  0  0  0  0  0  0
 24 25  1  0
 25 26  2  0
 25 27  2  0
 25 17  1  0
 17 18  2  0
 17 23  1  0
 18 19  1  0
 19 20  1  0
 19 21  2  0
 21 22  1  0
 22 23  2  0
 23 16  1  0
 16  1  1  0
  1  2  2  0
  1  3  2  0
  1  4  1  0
  4  5  2  0
  5  6  1  0
  6  7  2  0
  6 11  1  0
  7  8  1  0
  8  9  2  0
  9 10  1  0
 10 12  1  0
 10 11  2  0
 12 13  1  0
 12 14  1  0
 12 15  1  0
M  END
>  <minimizedAffinity>  (872) 
-8.85926

$$$$
data/reference_output_2/data/smiles/167394.pdb
     RDKit          3D

 28 30  0  0  0  0  0  0  0  0999 V2000
   68.6502   41.5412   57.2263 C   0  0  0  0  0  0  0  0  0  0  0  0
   69.8167   41.4804   57.9495 C   0  0  0  0  0  0  0  0  0  0  0  0
   70.2607   40.3179   58.5485 C   0  0  0  0  0  0  0  0  0  0  0  0
   69.5490   39.1374   58.4534 C   0  0  0  0  0  0  0  0  0  0  0  0
   68.3766   39.1948   57.7282 C   0  0  0  0  0  0  0  0  0  0  0  0
   67.9385   40.3607   57.1312 C   0  0  0  0  0  0  0  0  0  0  0  0
   68.8896   43.9624   56.5853 N   0  0  0  0  0  0  0  0  0  0  0  0
   68.1702   42.7679   56.5876 C   0  0  0  0  0  0  0  0  0  0  0  0
   67.0395   42.7913   55.9897 O   0  0  0  0  0  0  0  0  0  0  0  0
   69.9344   46.4706   57.0372 O   0  0  0  0  0  0  0  0  0  0  0  0
   68.9812   46.4182   56.2247 C   0  0  0  0  0  0  0  0  0  0  0  0
   68.4106   45.1480   55.9594 N   0  0  0  0  0  0  0  0  0  0  0  0
   68.5237   47.6815   55.6034 C   0  0  0  0  0  0  0  0  0  0  0  0
   68.9660   47.7493   54.1918 C   0  0  0  0  0  0  0  0  0  0  0  0
   68.5715   46.8751   53.2021 C   0  0  0  0  0  0  0  0  0  0  0  0
   69.0463   47.0278   51.9081 C   0  0  0  0  0  0  0  0  0  0  0  0
   69.9129   48.0314   51.5475 C   0  0  0  0  0  0  0  0  0  0  0  0
   70.3025   48.9054   52.5502 C   0  0  0  0  0  0  0  0  0  0  0  0
   69.8306   48.7529   53.8338 C   0  0  0  0  0  0  0  0  0  0  0  0
   70.0067   37.9417   59.0711 N   0  0  0  0  0  0  0  0  0  0  0  0
   71.1364   37.1977   58.6506 C   0  0  0  0  0  0  0  0  0  0  0  0
   71.7562   37.6562   57.6566 O   0  0  0  0  0  0  0  0  0  0  0  0
   71.5918   35.9793   59.2921 C   0  0  0  0  0  0  0  0  0  0  0  0
   71.6917   35.8309   60.6526 C   0  0  0  0  0  0  0  0  0  0  0  0
   72.1335   34.6398   61.2254 C   0  0  0  0  0  0  0  0  0  0  0  0
   72.4821   33.5789   60.4065 C   0  0  0  0  0  0  0  0  0  0  0  0
   72.3881   33.7099   59.0513 C   0  0  0  0  0  0  0  0  0  0  0  0
   71.9456   34.9037   58.5100 C   0  0  0  0  0  0  0  0  0  0  0  0
 10 11  2  0
 11 13  1  0
 11 12  1  0
 13 14  1  0
 14 15  2  0
 14 19  1  0
 15 16  1  0
 16 17  2  0
 17 18  1  0
 18 19  2  0
 12  7  1  0
  7  8  1  0
  8  9  2  0
  8  1  1  0
  1  2  2  0
  1  6  1  0
  2  3  1  0
  3  4  2  0
  4 20  1  0
  4  5  1  0
 20 21  1  0
 21 22  2  0
 21 23  1  0
 23 24  2  0
 23 28  1  0
 24 25  1  0
 25 26  2  0
 26 27  1  0
 27 28  2  0
  5  6  2  0
M  END
>  <minimizedAffinity>  (873) 
-9.29056

$$$$
data/reference_output_2/data/smiles/167423.pdb
     RDKit          3D

 24 25  0  0  0  0  0  0  0  0999 V2000
   68.1487   42.3419   56.4223 C   0  0  0  0  0  0  0  0  0  0  0  0
   67.2266   43.0641   55.8830 N   0  0  0  0  0  0  0  0  0  0  0  0
   67.1815   39.2144   59.2046 C   0  0  0  0  0  0  0  0  0  0  0  0
   66.6697   40.4878   59.3434 C   0  0  0  0  0  0  0  0  0  0  0  0
   66.9861   41.4916   58.4417 C   0  0  0  0  0  0  0  0  0  0  0  0
   67.8210   41.2681   57.3709 C   0  0  0  0  0  0  0  0  0  0  0  0
   68.3328   39.9978   57.2324 C   0  0  0  0  0  0  0  0  0  0  0  0
   68.0191   38.9943   58.1285 C   0  0  0  0  0  0  0  0  0  0  0  0
   68.0537   37.4079   60.6550 C   0  0  0  0  0  0  0  0  0  0  0  0
   66.8248   38.1563   60.1877 C   0  0  0  0  0  0  0  0  0  0  0  0
   66.2041   38.7876   61.4265 C   0  0  0  0  0  0  0  0  0  0  0  0
   65.7943   37.1934   59.6370 C   0  0  0  0  0  0  0  0  0  0  0  0
   67.5463   44.1011   54.9668 N   0  0  0  0  0  0  0  0  0  0  0  0
   68.2924   45.2207   55.4104 C   0  0  0  0  0  0  0  0  0  0  0  0
   68.6358   45.2311   56.6187 O   0  0  0  0  0  0  0  0  0  0  0  0
   68.6732   46.3373   54.5530 C   0  0  0  0  0  0  0  0  0  0  0  0
   69.1154   47.5168   55.1092 C   0  0  0  0  0  0  0  0  0  0  0  0
   69.4845   48.5955   54.3328 C   0  0  0  0  0  0  0  0  0  0  0  0
   69.4300   48.5494   52.9573 C   0  0  0  0  0  0  0  0  0  0  0  0
   68.9864   47.3665   52.3832 C   0  0  0  0  0  0  0  0  0  0  0  0
   68.6169   46.2855   53.1768 C   0  0  0  0  0  0  0  0  0  0  0  0
   69.8222   49.6945   52.1488 C   0  0  0  0  0  0  0  0  0  0  0  0
   70.1345   50.9513   52.7155 N   0  0  0  0  0  0  0  0  0  0  0  0
   69.8825   49.5553   50.9091 O   0  0  0  0  0  0  0  0  0  0  0  0
  9 10  1  0
 10 11  1  0
 10 12  1  0
 10  3  1  0
  3  4  2  0
  3  8  1  0
  4  5  1  0
  5  6  2  0
  6  1  1  0
  6  7  1  0
  1  2  2  0
  2 13  1  0
 13 14  1  0
 14 15  2  0
 14 16  1  0
 16 17  2  0
 16 21  1  0
 17 18  1  0
 18 19  2  0
 19 22  1  0
 19 20  1  0
 22 23  1  0
 22 24  2  0
 20 21  2  0
  7  8  2  0
M  END
>  <minimizedAffinity>  (874) 
-8.52239

$$$$
data/reference_output_2/data/smiles/167603.pdb
     RDKit          3D

 30 32  0  0  0  0  0  0  0  0999 V2000
   71.0208   43.6526   57.6904 C   0  0  0  0  0  0  0  0  0  0  0  0
   69.8380   43.7797   56.9799 C   0  0  0  0  0  0  0  0  0  0  0  0
   69.2306   44.9993   56.7641 C   0  0  0  0  0  0  0  0  0  0  0  0
   69.7778   46.1676   57.2513 C   0  0  0  0  0  0  0  0  0  0  0  0
   70.9550   46.0570   57.9604 C   0  0  0  0  0  0  0  0  0  0  0  0
   71.5691   44.8169   58.1776 C   0  0  0  0  0  0  0  0  0  0  0  0
   70.9031   41.1867   58.3245 N   0  0  0  0  0  0  0  0  0  0  0  0
   71.6137   42.3327   57.8839 C   0  0  0  0  0  0  0  0  0  0  0  0
   72.8366   42.1715   57.6502 O   0  0  0  0  0  0  0  0  0  0  0  0
   70.7136   38.7838   58.3886 C   0  0  0  0  0  0  0  0  0  0  0  0
   69.4634   38.9296   58.1595 O   0  0  0  0  0  0  0  0  0  0  0  0
   71.5458   39.9322   58.4904 N   0  0  0  0  0  0  0  0  0  0  0  0
   72.6573   33.4574   58.8407 C   0  0  0  0  0  0  0  0  0  0  0  0
   72.1316   34.8426   58.7478 C   0  0  0  0  0  0  0  0  0  0  0  0
   72.6107   35.6583   57.7326 C   0  0  0  0  0  0  0  0  0  0  0  0
   72.1293   36.9436   57.6377 C   0  0  0  0  0  0  0  0  0  0  0  0
   71.1918   37.4164   58.5300 C   0  0  0  0  0  0  0  0  0  0  0  0
   70.6976   36.6161   59.5559 C   0  0  0  0  0  0  0  0  0  0  0  0
   71.1889   35.3286   59.6392 C   0  0  0  0  0  0  0  0  0  0  0  0
   68.9999   47.7126   56.9732 S   0  0  0  0  0  0  0  0  0  0  0  0
   69.4503   48.7377   57.9691 O   0  0  0  0  0  0  0  0  0  0  0  0
   67.5225   47.5855   57.0369 O   0  0  0  0  0  0  0  0  0  0  0  0
   69.4133   48.2590   55.3739 N   0  0  0  0  0  0  0  0  0  0  0  0
   70.2238   49.4594   55.2023 C   0  0  0  0  0  0  0  0  0  0  0  0
   68.9927   47.5808   54.2164 C   0  0  0  0  0  0  0  0  0  0  0  0
   68.0276   46.6042   54.2649 C   0  0  0  0  0  0  0  0  0  0  0  0
   67.6463   45.9666   53.1057 C   0  0  0  0  0  0  0  0  0  0  0  0
   68.2083   46.2802   51.8811 C   0  0  0  0  0  0  0  0  0  0  0  0
   69.1763   47.2589   51.8269 C   0  0  0  0  0  0  0  0  0  0  0  0
   69.5497   47.8931   53.0048 C   0  0  0  0  0  0  0  0  0  0  0  0
 13 14  1  0
 14 15  2  0
 14 19  1  0
 15 16  1  0
 16 17  2  0
 17 10  1  0
 17 18  1  0
 10 11  2  0
 10 12  1  0
 12  7  1  0
  7  8  1  0
  8  9  2  0
  8  1  1  0
  1  2  2  0
  1  6  1  0
  2  3  1  0
  3  4  2  0
  4 20  1  0
  4  5  1  0
 20 21  2  0
 20 22  2  0
 20 23  1  0
 23 24  1  0
 23 25  1  0
 25 26  2  0
 25 30  1  0
 26 27  1  0
 27 28  2  0
 28 29  1  0
 29 30  2  0
  5  6  2  0
 18 19  2  0
M  END
>  <minimizedAffinity>  (875) 
-9.18487

$$$$
data/reference_output_2/data/smiles/167755.pdb
     RDKit          3D

 25 27  0  0  0  0  0  0  0  0999 V2000
   66.6768   42.3572   55.5081 C   0  0  0  0  0  0  0  0  0  0  0  0
   67.9093   42.5762   56.2918 C   0  0  0  0  0  0  0  0  0  0  0  0
   68.4264   43.7369   56.2936 N   0  0  0  0  0  0  0  0  0  0  0  0
   68.5055   41.4704   57.0418 C   0  0  0  0  0  0  0  0  0  0  0  0
   67.9079   40.2292   57.0994 C   0  0  0  0  0  0  0  0  0  0  0  0
   68.4754   39.1872   57.8099 C   0  0  0  0  0  0  0  0  0  0  0  0
   69.6642   39.3422   58.4924 C   0  0  0  0  0  0  0  0  0  0  0  0
   70.2601   40.5846   58.4325 C   0  0  0  0  0  0  0  0  0  0  0  0
   69.6942   41.6254   57.7242 C   0  0  0  0  0  0  0  0  0  0  0  0
   70.2349   38.2542   59.2194 N   0  0  0  0  0  0  0  0  0  0  0  0
   71.0755   37.3401   58.6914 C   0  0  0  0  0  0  0  0  0  0  0  0
   71.4423   36.4246   59.6563 C   0  0  0  0  0  0  0  0  0  0  0  0
   70.8014   36.7918   60.8218 C   0  0  0  0  0  0  0  0  0  0  0  0
   70.0730   37.9149   60.5116 C   0  0  0  0  0  0  0  0  0  0  0  0
   67.9331   44.8459   55.6136 N   0  0  0  0  0  0  0  0  0  0  0  0
   68.6265   46.3741   56.0095 S   0  0  0  0  0  0  0  0  0  0  0  0
   67.7311   47.1921   56.8905 O   0  0  0  0  0  0  0  0  0  0  0  0
   69.8936   46.0830   56.7990 O   0  0  0  0  0  0  0  0  0  0  0  0
   69.0379   47.2449   54.5470 C   0  0  0  0  0  0  0  0  0  0  0  0
   68.7606   46.7188   53.3011 C   0  0  0  0  0  0  0  0  0  0  0  0
   69.0722   47.3800   52.1267 C   0  0  0  0  0  0  0  0  0  0  0  0
   69.6912   48.6265   52.2214 C   0  0  0  0  0  0  0  0  0  0  0  0
   70.0412   49.3639   51.0656 N   0  0  0  0  0  0  0  0  0  0  0  0
   69.9732   49.1619   53.4601 C   0  0  0  0  0  0  0  0  0  0  0  0
   69.6536   48.4845   54.6173 C   0  0  0  0  0  0  0  0  0  0  0  0
  1  2  1  0
  2  3  2  0
  2  4  1  0
  3 15  1  0
 15 16  1  0
 16 17  2  0
 16 18  2  0
 16 19  1  0
 19 20  2  0
 19 25  1  0
 20 21  1  0
 21 22  2  0
 22 23  1  0
 22 24  1  0
 24 25  2  0
  4  5  2  0
  4  9  1  0
  5  6  1  0
  6  7  2  0
  7 10  1  0
  7  8  1  0
 10 11  1  0
 10 14  1  0
 11 12  2  0
 12 13  1  0
 13 14  2  0
  8  9  2  0
M  END
>  <minimizedAffinity>  (876) 
-8.82613

$$$$
data/reference_output_2/data/smiles/167783.pdb
     RDKit          3D

 33 37  0  0  0  0  0  0  0  0999 V2000
   71.1132   46.4632   58.5892 C   0  0  0  0  0  0  0  0  0  0  0  0
   70.0744   46.7794   57.7459 C   0  0  0  0  0  0  0  0  0  0  0  0
   69.6064   48.0616   57.5204 C   0  0  0  0  0  0  0  0  0  0  0  0
   70.2293   49.0876   58.1880 C   0  0  0  0  0  0  0  0  0  0  0  0
   71.2932   48.8193   59.0594 C   0  0  0  0  0  0  0  0  0  0  0  0
   71.7197   47.5155   59.2480 C   0  0  0  0  0  0  0  0  0  0  0  0
   72.7400   47.2893   60.0880 F   0  0  0  0  0  0  0  0  0  0  0  0
   73.8548   45.3126   58.0915 O   0  0  0  0  0  0  0  0  0  0  0  0
   72.8620   44.6279   58.5350 C   0  0  0  0  0  0  0  0  0  0  0  0
   72.8519   43.2541   58.8671 N   0  0  0  0  0  0  0  0  0  0  0  0
   71.4846   42.7947   58.8956 C   0  0  1  0  0  0  0  0  0  0  0  0
   70.7706   44.0322   59.2647 C   0  0  0  0  0  0  0  0  0  0  0  0
   69.6896   44.1444   59.8791 O   0  0  0  0  0  0  0  0  0  0  0  0
   71.5516   45.1198   58.7855 N   0  0  0  0  0  0  0  0  0  0  0  0
   71.1338   42.3507   57.4878 C   0  0  0  0  0  0  0  0  0  0  0  0
   69.6997   42.0926   57.3221 C   0  0  0  0  0  0  0  0  0  0  0  0
   69.0915   41.0516   57.9687 C   0  0  0  0  0  0  0  0  0  0  0  0
   67.7406   40.8547   57.7762 C   0  0  0  0  0  0  0  0  0  0  0  0
   66.9829   41.6745   56.9523 C   0  0  0  0  0  0  0  0  0  0  0  0
   67.5888   42.7141   56.3067 C   0  0  0  0  0  0  0  0  0  0  0  0
   68.9585   42.9148   56.4995 C   0  0  0  0  0  0  0  0  0  0  0  0
   68.4791   48.2532   56.5618 C   0  0  0  0  0  0  0  0  0  0  0  0
   69.0495   48.4001   55.2103 C   0  0  0  0  0  0  0  0  0  0  0  0
   69.9710   49.3746   54.9702 N   0  0  0  0  0  0  0  0  0  0  0  0
   70.5269   49.5166   53.7840 N   0  0  0  0  0  0  0  0  0  0  0  0
   70.2355   48.7268   52.7366 C   0  0  0  0  0  0  0  0  0  0  0  0
   70.7712   48.8714   51.6155 O   0  0  0  0  0  0  0  0  0  0  0  0
   69.3025   47.7121   52.9118 C   0  0  0  0  0  0  0  0  0  0  0  0
   68.7390   47.5870   54.1526 C   0  0  0  0  0  0  0  0  0  0  0  0
   67.7549   46.5733   54.3307 N   0  0  0  0  0  0  0  0  0  0  0  0
   67.7434   45.4577   53.4101 C   0  0  0  0  0  0  0  0  0  0  0  0
   67.7845   45.9768   51.9833 C   0  0  0  0  0  0  0  0  0  0  0  0
   68.9908   46.8434   51.7782 C   0  0  0  0  0  0  0  0  0  0  0  0
  8  9  2  0
  9 10  1  0
  9 14  1  0
 10 11  1  0
 11 15  1  6
 11 12  1  0
 15 16  1  0
 16 17  2  0
 16 21  1  0
 17 18  1  0
 18 19  2  0
 19 20  1  0
 20 21  2  0
 12 13  2  0
 12 14  1  0
 14  1  1  0
  1  2  2  0
  1  6  1  0
  2  3  1  0
  3 22  1  0
  3  4  2  0
 22 23  1  0
 23 24  2  0
 23 29  1  0
 24 25  1  0
 25 26  1  0
 26 27  2  0
 26 28  1  0
 28 29  2  0
 28 33  1  0
 29 30  1  0
 30 31  1  0
 31 32  1  0
 32 33  1  0
  4  5  1  0
  5  6  2  0
  6  7  1  0
M  END
>  <minimizedAffinity>  (877) 
-9.11613

$$$$
data/reference_output_2/data/smiles/167885.pdb
     RDKit          3D

 28 30  0  0  0  0  0  0  0  0999 V2000
   69.8657   43.6016   57.7599 S   0  0  0  0  0  0  0  0  0  0  0  0
   69.5687   44.1713   59.1567 O   0  0  0  0  0  0  0  0  0  0  0  0
   71.2481   44.1736   57.4740 O   0  0  0  0  0  0  0  0  0  0  0  0
   67.4465   41.6210   57.6114 C   0  0  0  0  0  0  0  0  0  0  0  0
   68.8049   41.1198   57.9073 C   0  0  0  0  0  0  0  0  0  0  0  0
   68.9040   39.7519   58.1123 C   0  0  0  0  0  0  0  0  0  0  0  0
   70.1163   39.1424   58.3505 C   0  0  0  0  0  0  0  0  0  0  0  0
   70.2496   37.8218   58.5516 N   0  0  0  0  0  0  0  0  0  0  0  0
   71.4307   37.2215   58.7842 C   0  0  0  0  0  0  0  0  0  0  0  0
   71.5526   35.9849   58.9734 O   0  0  0  0  0  0  0  0  0  0  0  0
   72.5720   38.0126   58.8179 C   0  0  0  0  0  0  0  0  0  0  0  0
   73.7000   37.4535   59.0379 O   0  0  0  0  0  0  0  0  0  0  0  0
   72.4724   39.3308   58.6199 N   0  0  0  0  0  0  0  0  0  0  0  0
   71.2799   39.9028   58.3908 C   0  0  0  0  0  0  0  0  0  0  0  0
   71.1284   41.2570   58.1824 C   0  0  0  0  0  0  0  0  0  0  0  0
   69.9217   41.8875   57.9432 C   0  0  0  0  0  0  0  0  0  0  0  0
   68.7038   44.2304   56.6960 N   0  0  0  0  0  0  0  0  0  0  0  0
   68.7456   45.3394   55.8322 C   0  0  0  0  0  0  0  0  0  0  0  0
   68.2148   45.1482   54.5505 C   0  0  0  0  0  0  0  0  0  0  0  0
   68.2019   46.1809   53.6486 C   0  0  0  0  0  0  0  0  0  0  0  0
   68.7209   47.4096   54.0282 C   0  0  0  0  0  0  0  0  0  0  0  0
   69.2385   47.5917   55.2821 C   0  0  0  0  0  0  0  0  0  0  0  0
   69.2533   46.5562   56.1880 C   0  0  0  0  0  0  0  0  0  0  0  0
   68.7244   48.4812   53.1419 O   0  0  0  0  0  0  0  0  0  0  0  0
   69.8493   48.6413   52.2786 C   0  0  0  0  0  0  0  0  0  0  0  0
   70.9431   49.0001   53.0297 F   0  0  0  0  0  0  0  0  0  0  0  0
   70.0601   47.5088   51.5335 F   0  0  0  0  0  0  0  0  0  0  0  0
   69.5362   49.6910   51.4345 F   0  0  0  0  0  0  0  0  0  0  0  0
  4  5  1  0
  5  6  2  0
  5 16  1  0
  6  7  1  0
  7  8  1  0
  7 14  2  0
  8  9  1  0
  9 10  2  0
  9 11  1  0
 11 12  2  0
 11 13  1  0
 13 14  1  0
 14 15  1  0
 15 16  2  0
 16  1  1  0
  1  2  2  0
  1  3  2  0
  1 17  1  0
 17 18  1  0
 18 19  2  0
 18 23  1  0
 19 20  1  0
 20 21  2  0
 21 24  1  0
 21 22  1  0
 24 25  1  0
 25 26  1  0
 25 27  1  0
 25 28  1  0
 22 23  2  0
M  END
>  <minimizedAffinity>  (878) 
-8.60419

$$$$
data/reference_output_2/data/smiles/167926.pdb
     RDKit          3D

 25 27  0  0  0  0  0  0  0  0999 V2000
   70.4297   44.2357   57.7293 C   0  0  0  0  0  0  0  0  0  0  0  0
   69.5641   44.9684   56.8783 C   0  0  0  0  0  0  0  0  0  0  0  0
   69.6236   46.2618   57.1482 N   0  0  0  0  0  0  0  0  0  0  0  0
   70.4829   46.4849   58.1426 C   0  0  0  0  0  0  0  0  0  0  0  0
   70.9039   47.6253   58.7891 C   0  0  0  0  0  0  0  0  0  0  0  0
   71.8265   47.6011   59.8093 C   0  0  0  0  0  0  0  0  0  0  0  0
   72.3210   46.3764   60.1656 C   0  0  0  0  0  0  0  0  0  0  0  0
   71.9030   45.2120   59.5203 C   0  0  0  0  0  0  0  0  0  0  0  0
   70.9848   45.2313   58.5056 C   0  0  0  0  0  0  0  0  0  0  0  0
   71.9914   42.2720   57.6722 C   0  0  0  0  0  0  0  0  0  0  0  0
   70.5593   42.8168   57.6244 C   0  0  0  0  0  0  0  0  0  0  0  0
   69.6437   42.0142   57.5226 N   0  0  0  0  0  0  0  0  0  0  0  0
   68.3503   41.9215   57.4422 N   0  0  0  0  0  0  0  0  0  0  0  0
   67.6164   41.6519   56.2146 C   0  0  0  0  0  0  0  0  0  0  0  0
   67.6798   40.4707   55.6884 N   0  0  0  0  0  0  0  0  0  0  0  0
   66.8706   42.7290   55.6764 N   0  0  0  0  0  0  0  0  0  0  0  0
   68.7032   47.4326   56.2846 S   0  0  0  0  0  0  0  0  0  0  0  0
   67.2979   47.5671   56.8477 O   0  0  0  0  0  0  0  0  0  0  0  0
   69.3245   48.7985   56.4316 O   0  0  0  0  0  0  0  0  0  0  0  0
   68.6059   47.0693   54.5781 C   0  0  0  0  0  0  0  0  0  0  0  0
   69.2702   47.8090   53.6230 C   0  0  0  0  0  0  0  0  0  0  0  0
   69.1860   47.4839   52.2654 C   0  0  0  0  0  0  0  0  0  0  0  0
   68.4312   46.4094   51.8458 C   0  0  0  0  0  0  0  0  0  0  0  0
   67.7676   45.6705   52.7934 C   0  0  0  0  0  0  0  0  0  0  0  0
   67.8571   46.0017   54.1502 C   0  0  0  0  0  0  0  0  0  0  0  0
 10 11  1  0
 11 12  2  0
 11  1  1  0
 12 13  1  0
 13 14  1  0
 14 15  2  0
 14 16  1  0
  1  2  2  0
  1  9  1  0
  2  3  1  0
  3 17  1  0
  3  4  1  0
 17 18  2  0
 17 19  2  0
 17 20  1  0
 20 21  2  0
 20 25  1  0
 21 22  1  0
 22 23  2  0
 23 24  1  0
 24 25  2  0
  4  5  1  0
  4  9  2  0
  5  6  2  0
  6  7  1  0
  7  8  2  0
  8  9  1  0
M  CHG  1  15   1
M  END
>  <minimizedAffinity>  (879) 
-8.83479

$$$$
data/reference_output_2/data/smiles/167964.pdb
     RDKit          3D

 22 24  0  0  0  0  0  0  0  0999 V2000
   69.9832   47.3809   57.5940 C   0  0  0  0  0  0  0  0  0  0  0  0
   68.8362   47.6513   56.6175 C   0  0  0  0  0  0  0  0  0  0  0  0
   67.7843   48.3908   57.4497 C   0  0  0  0  0  0  0  0  0  0  0  0
   69.3437   48.5155   55.5291 C   0  0  0  0  0  0  0  0  0  0  0  0
   69.2633   47.9793   54.1712 C   0  0  0  0  0  0  0  0  0  0  0  0
   69.7299   48.7656   53.1399 C   0  0  0  0  0  0  0  0  0  0  0  0
   69.6554   48.2605   51.8591 C   0  0  0  0  0  0  0  0  0  0  0  0
   69.1292   47.0094   51.6278 C   0  0  0  0  0  0  0  0  0  0  0  0
   68.6528   46.2063   52.6734 C   0  0  0  0  0  0  0  0  0  0  0  0
   68.7301   46.7136   53.9498 C   0  0  0  0  0  0  0  0  0  0  0  0
   68.2424   45.8986   55.0633 C   0  0  0  0  0  0  0  0  0  0  0  0
   68.3180   46.3775   56.2356 N   0  0  0  0  0  0  0  0  0  0  0  0
   67.6957   44.6023   54.8705 N   0  0  0  0  0  0  0  0  0  0  0  0
   67.8467   43.6709   55.9009 N   0  0  0  0  0  0  0  0  0  0  0  0
   67.1321   42.4391   55.9277 C   0  0  0  0  0  0  0  0  0  0  0  0
   66.3343   42.1476   55.0165 O   0  0  0  0  0  0  0  0  0  0  0  0
   67.3239   41.4975   57.0253 C   0  0  0  0  0  0  0  0  0  0  0  0
   68.1104   40.3790   56.8906 C   0  0  0  0  0  0  0  0  0  0  0  0
   68.3140   39.4708   57.9021 C   0  0  0  0  0  0  0  0  0  0  0  0
   67.7112   39.6738   59.1084 C   0  0  0  0  0  0  0  0  0  0  0  0
   66.9149   40.8072   59.2427 C   0  0  0  0  0  0  0  0  0  0  0  0
   66.7368   41.6765   58.2308 N   0  0  0  0  0  0  0  0  0  0  0  0
  1  2  1  0
  2  3  1  0
  2  4  1  0
  2 12  1  0
  4  5  1  0
  5  6  1  0
  5 10  2  0
  6  7  2  0
  7  8  1  0
  8  9  2  0
  9 10  1  0
 10 11  1  0
 11 13  1  0
 11 12  2  0
 13 14  1  0
 14 15  1  0
 15 16  2  0
 15 17  1  0
 17 18  2  0
 17 22  1  0
 18 19  1  0
 19 20  2  0
 20 21  1  0
 21 22  2  0
M  CHG  1  12   1
M  END
>  <minimizedAffinity>  (880) 
-8.72724

$$$$
data/reference_output_2/data/smiles/168025.pdb
     RDKit          3D

 30 34  0  0  0  0  0  0  0  0999 V2000
   68.4863   43.3050   56.4082 C   0  0  0  0  0  0  0  0  0  0  0  0
   69.6223   43.6994   56.8083 O   0  0  0  0  0  0  0  0  0  0  0  0
   67.7438   44.0955   55.4907 N   0  0  0  0  0  0  0  0  0  0  0  0
   68.2173   45.3320   54.9867 C   0  0  0  0  0  0  0  0  0  0  0  0
   68.5472   46.3987   55.8182 C   0  0  0  0  0  0  0  0  0  0  0  0
   69.0039   47.5884   55.2966 C   0  0  0  0  0  0  0  0  0  0  0  0
   69.1447   47.7562   53.9472 C   0  0  0  0  0  0  0  0  0  0  0  0
   68.8307   46.7322   53.1013 C   0  0  0  0  0  0  0  0  0  0  0  0
   68.3670   45.5228   53.6327 C   0  0  0  0  0  0  0  0  0  0  0  0
   69.0857   47.2148   51.7204 C   0  0  0  0  0  0  0  0  0  0  0  0
   69.5705   48.6048   51.9080 C   0  0  0  0  0  0  0  0  0  0  0  0
   69.9211   49.4409   51.0347 O   0  0  0  0  0  0  0  0  0  0  0  0
   69.5934   48.9092   53.3117 N   0  0  0  0  0  0  0  0  0  0  0  0
   69.9555   50.0709   54.0841 C   0  0  0  0  0  0  0  0  0  0  0  0
   70.3769   49.6395   55.4559 C   0  0  0  0  0  0  0  0  0  0  0  0
   69.3710   48.7434   56.1513 C   0  0  0  0  0  0  0  0  0  0  0  0
   66.7036   41.8786   56.9542 O   0  0  0  0  0  0  0  0  0  0  0  0
   67.9627   42.0277   56.9093 C   0  0  0  0  0  0  0  0  0  0  0  0
   68.8545   41.0019   57.3268 N   0  0  0  0  0  0  0  0  0  0  0  0
   68.2902   39.7933   57.7999 C   0  0  0  0  0  0  0  0  0  0  0  0
   68.4511   39.4271   59.2212 C   0  0  0  0  0  0  0  0  0  0  0  0
   69.1395   38.1964   59.5560 C   0  0  0  0  0  0  0  0  0  0  0  0
   68.6828   37.2544   60.4883 C   0  0  0  0  0  0  0  0  0  0  0  0
   69.5348   36.2256   60.5166 N   0  0  0  0  0  0  0  0  0  0  0  0
   70.5542   36.4400   59.6357 C   0  0  0  0  0  0  0  0  0  0  0  0
   71.6716   35.6848   59.3138 C   0  0  0  0  0  0  0  0  0  0  0  0
   72.5909   36.1194   58.3858 C   0  0  0  0  0  0  0  0  0  0  0  0
   72.3293   37.3423   57.8047 C   0  0  0  0  0  0  0  0  0  0  0  0
   71.2293   38.0997   58.1117 C   0  0  0  0  0  0  0  0  0  0  0  0
   70.2998   37.6606   59.0477 C   0  0  0  0  0  0  0  0  0  0  0  0
 17 18  2  0
 18 19  1  0
 18  1  1  0
 19 20  1  0
 20 21  1  0
 21 22  1  0
 22 23  2  0
 22 30  1  0
 23 24  1  0
 24 25  1  0
 25 26  1  0
 25 30  2  0
 26 27  2  0
 27 28  1  0
 28 29  2  0
 29 30  1  0
  1  2  2  0
  1  3  1  0
  3  4  1  0
  4  5  2  0
  4  9  1  0
  5  6  1  0
  6  7  2  0
  6 16  1  0
  7  8  1  0
  7 13  1  0
  8  9  2  0
  8 10  1  0
 10 11  1  0
 11 12  2  0
 11 13  1  0
 13 14  1  0
 14 15  1  0
 15 16  1  0
M  END
>  <minimizedAffinity>  (881) 
-9.69384

$$$$
data/reference_output_2/data/smiles/168035.pdb
     RDKit          3D

 26 28  0  0  0  0  0  0  0  0999 V2000
   74.2931   49.8773   55.3628 N   0  0  0  0  0  0  0  0  0  0  0  0
   73.5663   51.1025   55.4731 C   0  0  0  0  0  0  0  0  0  0  0  0
   73.9964   51.8964   56.3355 O   0  0  0  0  0  0  0  0  0  0  0  0
   77.6687   48.9909   57.7255 C   0  0  0  0  0  0  0  0  0  0  0  0
   76.3903   48.6850   58.1446 C   0  0  0  0  0  0  0  0  0  0  0  0
   75.2743   48.9667   57.3846 C   0  0  0  0  0  0  0  0  0  0  0  0
   75.4013   49.5784   56.1539 C   0  0  0  0  0  0  0  0  0  0  0  0
   76.6844   49.8899   55.7255 C   0  0  0  0  0  0  0  0  0  0  0  0
   77.7944   49.6025   56.4953 C   0  0  0  0  0  0  0  0  0  0  0  0
   80.6305   49.3219   60.2146 C   0  0  0  0  0  0  0  0  0  0  0  0
   79.4590   49.6285   59.3555 C   0  0  0  0  0  0  0  0  0  0  0  0
   79.0348   50.8113   59.3505 O   0  0  0  0  0  0  0  0  0  0  0  0
   78.7910   48.6797   58.5444 N   0  0  0  0  0  0  0  0  0  0  0  0
   72.4055   51.4433   54.6606 C   0  0  0  0  0  0  0  0  0  0  0  0
   71.1103   50.9139   55.2081 C   0  0  0  0  0  0  0  0  0  0  0  0
   70.4944   49.8444   54.3951 C   0  0  0  0  0  0  0  0  0  0  0  0
   69.7284   48.8627   54.8903 N   0  0  0  0  0  0  0  0  0  0  0  0
   69.1660   47.8887   54.1561 C   0  0  0  0  0  0  0  0  0  0  0  0
   68.3810   46.8962   54.7148 C   0  0  0  0  0  0  0  0  0  0  0  0
   67.8560   45.9480   53.8614 C   0  0  0  0  0  0  0  0  0  0  0  0
   68.1022   45.9873   52.5097 C   0  0  0  0  0  0  0  0  0  0  0  0
   68.8785   46.9694   51.9574 C   0  0  0  0  0  0  0  0  0  0  0  0
   69.4175   47.9363   52.8039 C   0  0  0  0  0  0  0  0  0  0  0  0
   70.1993   48.9354   52.2903 C   0  0  0  0  0  0  0  0  0  0  0  0
   70.4085   48.9466   51.0446 O   0  0  0  0  0  0  0  0  0  0  0  0
   70.7302   49.8766   53.0723 N   0  0  0  0  0  0  0  0  0  0  0  0
 10 11  1  0
 11 12  2  0
 11 13  1  0
 13  4  1  0
  4  5  2  0
  4  9  1  0
  5  6  1  0
  6  7  2  0
  7  1  1  0
  7  8  1  0
  1  2  1  0
  2  3  2  0
  2 14  1  0
 14 15  1  0
 15 16  1  0
 16 17  2  0
 16 26  1  0
 17 18  1  0
 18 19  2  0
 18 23  1  0
 19 20  1  0
 20 21  2  0
 21 22  1  0
 22 23  2  0
 23 24  1  0
 24 25  2  0
 24 26  1  0
  8  9  2  0
M  END
>  <minimizedAffinity>  (882) 
-8.53374

$$$$
data/reference_output_2/data/smiles/168087.pdb
     RDKit          3D

 31 34  0  0  0  0  0  0  0  0999 V2000
   75.0843   46.1009   64.0144 C   0  0  0  0  0  0  0  0  0  0  0  0
   74.4055   46.5146   62.9408 C   0  0  0  0  0  0  0  0  0  0  0  0
   74.4330   47.8213   62.6321 N   0  0  0  0  0  0  0  0  0  0  0  0
   73.7448   48.2242   61.5480 C   0  0  0  0  0  0  0  0  0  0  0  0
   73.7559   49.4443   61.2378 O   0  0  0  0  0  0  0  0  0  0  0  0
   73.0159   47.3799   60.7404 C   0  0  0  0  0  0  0  0  0  0  0  0
   72.3458   47.8038   59.6774 C   0  0  0  0  0  0  0  0  0  0  0  0
   73.0042   46.0676   61.0740 N   0  0  0  0  0  0  0  0  0  0  0  0
   73.6852   45.6407   62.1542 C   0  0  0  0  0  0  0  0  0  0  0  0
   73.6673   44.4188   62.4541 O   0  0  0  0  0  0  0  0  0  0  0  0
   77.9849   47.1671   63.4598 C   0  0  0  0  0  0  0  0  0  0  0  0
   77.1177   47.4688   64.6286 C   0  0  0  0  0  0  0  0  0  0  0  0
   77.4918   48.2847   65.6532 N   0  0  0  0  0  0  0  0  0  0  0  0
   76.4605   48.3149   66.5131 C   0  0  0  0  0  0  0  0  0  0  0  0
   75.4791   47.5409   66.0316 N   0  0  0  0  0  0  0  0  0  0  0  0
   75.8495   46.9956   64.8607 C   0  0  0  0  0  0  0  0  0  0  0  0
   71.5840   46.8380   58.8549 C   0  0  0  0  0  0  0  0  0  0  0  0
   71.8615   45.5117   58.8265 C   0  0  0  0  0  0  0  0  0  0  0  0
   71.1057   44.6730   58.0331 C   0  0  0  0  0  0  0  0  0  0  0  0
   70.0618   45.1362   57.2572 C   0  0  0  0  0  0  0  0  0  0  0  0
   69.7726   46.4942   57.2818 C   0  0  0  0  0  0  0  0  0  0  0  0
   70.5349   47.3180   58.0777 C   0  0  0  0  0  0  0  0  0  0  0  0
   68.6842   47.0063   56.4932 C   0  0  0  0  0  0  0  0  0  0  0  0
   67.7300   47.5785   57.1127 O   0  0  0  0  0  0  0  0  0  0  0  0
   68.6207   46.9045   55.0507 C   0  0  0  0  0  0  0  0  0  0  0  0
   69.2082   47.9077   54.3002 C   0  0  0  0  0  0  0  0  0  0  0  0
   69.1458   47.8289   52.9245 C   0  0  0  0  0  0  0  0  0  0  0  0
   68.5148   46.7805   52.2935 C   0  0  0  0  0  0  0  0  0  0  0  0
   68.4640   46.7228   50.9421 F   0  0  0  0  0  0  0  0  0  0  0  0
   67.9443   45.8074   53.0672 C   0  0  0  0  0  0  0  0  0  0  0  0
   67.9833   45.8460   54.4473 C   0  0  0  0  0  0  0  0  0  0  0  0
 11 12  1  0
 12 13  1  0
 12 16  2  0
 13 14  1  0
 14 15  2  0
 15 16  1  0
 16  1  1  0
  1  2  2  0
  2  3  1  0
  2  9  1  0
  3  4  1  0
  4  5  2  0
  4  6  1  0
  6  7  2  0
  6  8  1  0
  7 17  1  0
 17 18  2  0
 17 22  1  0
 18 19  1  0
 19 20  2  0
 20 21  1  0
 21 23  1  0
 21 22  2  0
 23 24  2  0
 23 25  1  0
 25 26  2  0
 25 31  1  0
 26 27  1  0
 27 28  2  0
 28 29  1  0
 28 30  1  0
 30 31  2  0
  8  9  1  0
  9 10  2  0
M  CHG  1  15   1
M  END
>  <minimizedAffinity>  (883) 
-9.25475

$$$$
data/reference_output_2/data/smiles/168102.pdb
     RDKit          3D

 24 26  0  0  0  0  0  0  0  0999 V2000
   69.9916   39.5278   58.8538 C   0  0  0  0  0  0  0  0  0  0  0  0
   70.5536   40.7875   58.8470 C   0  0  0  0  0  0  0  0  0  0  0  0
   70.0232   41.8122   58.0752 C   0  0  0  0  0  0  0  0  0  0  0  0
   68.9115   41.6170   57.2808 C   0  0  0  0  0  0  0  0  0  0  0  0
   68.3464   40.3593   57.2849 C   0  0  0  0  0  0  0  0  0  0  0  0
   68.8794   39.3366   58.0586 C   0  0  0  0  0  0  0  0  0  0  0  0
   67.2330   40.4205   56.4003 N   0  0  0  0  0  0  0  0  0  0  0  0
   67.0983   41.7143   55.8403 C   0  0  0  0  0  0  0  0  0  0  0  0
   66.2504   42.1584   55.0280 O   0  0  0  0  0  0  0  0  0  0  0  0
   68.1770   42.5189   56.3946 C   0  0  0  0  0  0  0  0  0  0  0  0
   68.4051   43.7685   56.1329 N   0  0  0  0  0  0  0  0  0  0  0  0
   71.3694   37.4631   58.8498 C   0  0  0  0  0  0  0  0  0  0  0  0
   70.5634   38.4227   59.6878 C   0  0  0  0  0  0  0  0  0  0  0  0
   67.6096   44.5035   55.2572 N   0  0  0  0  0  0  0  0  0  0  0  0
   68.1539   45.6508   54.6342 C   0  0  0  0  0  0  0  0  0  0  0  0
   68.7333   46.6451   55.3933 C   0  0  0  0  0  0  0  0  0  0  0  0
   69.2787   47.7833   54.8431 C   0  0  0  0  0  0  0  0  0  0  0  0
   69.2556   47.9585   53.4770 C   0  0  0  0  0  0  0  0  0  0  0  0
   68.6861   46.9898   52.6925 C   0  0  0  0  0  0  0  0  0  0  0  0
   68.1412   45.8484   53.2697 C   0  0  0  0  0  0  0  0  0  0  0  0
   69.9612   49.4208   52.8306 S   0  0  0  0  0  0  0  0  0  0  0  0
   69.8615   49.4768   51.1057 N   0  0  0  0  0  0  0  0  0  0  0  0
   71.4251   49.5132   53.1917 O   0  0  0  0  0  0  0  0  0  0  0  0
   69.3073   50.6401   53.4412 O   0  0  0  0  0  0  0  0  0  0  0  0
 12 13  1  0
 13  1  1  0
  1  2  2  0
  1  6  1  0
  2  3  1  0
  3  4  2  0
  4  5  1  0
  4 10  1  0
  5  6  2  0
  5  7  1  0
  7  8  1  0
  8  9  2  0
  8 10  1  0
 10 11  2  0
 11 14  1  0
 14 15  1  0
 15 16  2  0
 15 20  1  0
 16 17  1  0
 17 18  2  0
 18 21  1  0
 18 19  1  0
 21 22  1  0
 21 23  2  0
 21 24  2  0
 19 20  2  0
M  END
>  <minimizedAffinity>  (884) 
-9.26663

$$$$
data/reference_output_2/data/smiles/168326.pdb
     RDKit          3D

 19 20  0  0  0  0  0  0  0  0999 V2000
   69.2042   47.5338   56.0760 C   0  0  0  0  0  0  0  0  0  0  0  0
   68.9550   47.2741   54.6408 C   0  0  0  0  0  0  0  0  0  0  0  0
   69.5259   48.0405   53.6112 C   0  0  0  0  0  0  0  0  0  0  0  0
   69.3061   47.8308   52.2919 C   0  0  0  0  0  0  0  0  0  0  0  0
   68.4868   46.8266   51.8924 C   0  0  0  0  0  0  0  0  0  0  0  0
   67.8915   46.0366   52.8246 C   0  0  0  0  0  0  0  0  0  0  0  0
   67.0675   45.0259   52.4321 F   0  0  0  0  0  0  0  0  0  0  0  0
   68.1294   46.2666   54.1601 C   0  0  0  0  0  0  0  0  0  0  0  0
   68.4447   48.7033   56.5898 C   0  0  0  0  0  0  0  0  0  0  0  0
   67.3575   48.5706   57.4305 C   0  0  0  0  0  0  0  0  0  0  0  0
   66.6328   49.6138   57.9219 C   0  0  0  0  0  0  0  0  0  0  0  0
   66.9589   50.8971   57.5955 C   0  0  0  0  0  0  0  0  0  0  0  0
   68.0379   51.0973   56.7569 C   0  0  0  0  0  0  0  0  0  0  0  0
   68.3520   52.3797   56.4407 F   0  0  0  0  0  0  0  0  0  0  0  0
   68.7501   50.0197   56.2770 C   0  0  0  0  0  0  0  0  0  0  0  0
   69.0769   45.1773   56.5836 O   0  0  0  0  0  0  0  0  0  0  0  0
   69.3536   46.3891   56.9542 C   0  0  0  0  0  0  0  0  0  0  0  0
   69.8069   46.4070   58.3058 N   0  0  0  0  0  0  0  0  0  0  0  0
   69.9252   45.2986   59.0759 O   0  0  0  0  0  0  0  0  0  0  0  0
 16 17  2  0
 17 18  1  0
 17  1  1  0
 18 19  1  0
  1  2  1  0
  1  9  1  0
  2  3  2  0
  2  8  1  0
  3  4  1  0
  4  5  2  0
  5  6  1  0
  6  7  1  0
  6  8  2  0
  9 10  2  0
  9 15  1  0
 10 11  1  0
 11 12  2  0
 12 13  1  0
 13 14  1  0
 13 15  2  0
M  END
>  <minimizedAffinity>  (885) 
-8.71968

$$$$
data/reference_output_2/data/smiles/168492.pdb
     RDKit          3D

 29 31  0  0  0  0  0  0  0  0999 V2000
   69.5803   43.6823   57.2843 C   0  0  0  0  0  0  0  0  0  0  0  0
   69.2774   42.4290   57.5118 C   0  0  0  0  0  0  0  0  0  0  0  0
   67.9286   41.9941   57.1131 C   0  0  0  0  0  0  0  0  0  0  0  0
   67.1411   42.8206   56.5860 O   0  0  0  0  0  0  0  0  0  0  0  0
   67.5671   40.6405   57.3454 N   0  0  0  0  0  0  0  0  0  0  0  0
   68.4714   39.7219   57.9420 C   0  0  0  0  0  0  0  0  0  0  0  0
   68.1065   38.5217   58.1307 O   0  0  0  0  0  0  0  0  0  0  0  0
   69.7807   40.0927   58.3425 N   0  0  0  0  0  0  0  0  0  0  0  0
   70.1541   41.4621   58.1116 C   0  0  0  0  0  0  0  0  0  0  0  0
   71.2954   41.7793   58.4617 O   0  0  0  0  0  0  0  0  0  0  0  0
   70.7360   39.1698   58.9606 C   0  0  0  0  0  0  0  0  0  0  0  0
   71.2812   38.2043   57.9633 C   0  0  0  0  0  0  0  0  0  0  0  0
   71.7529   36.9040   58.4570 C   0  0  0  0  0  0  0  0  0  0  0  0
   71.5473   36.6488   59.9223 C   0  0  0  0  0  0  0  0  0  0  0  0
   70.1969   37.1493   60.3718 C   0  0  0  0  0  0  0  0  0  0  0  0
   70.1885   38.6256   60.2144 C   0  0  0  0  0  0  0  0  0  0  0  0
   70.5627   45.5326   58.4922 C   0  0  0  0  0  0  0  0  0  0  0  0
   70.8703   44.2792   57.6160 C   0  0  0  0  0  0  0  0  0  0  0  0
   68.6171   44.5723   56.6697 N   0  0  0  0  0  0  0  0  0  0  0  0
   69.0593   45.2864   55.5432 N   0  0  0  0  0  0  0  0  0  0  0  0
   68.4561   46.5291   55.1812 C   0  0  0  0  0  0  0  0  0  0  0  0
   67.5158   46.9623   55.9054 O   0  0  0  0  0  0  0  0  0  0  0  0
   68.9338   47.2447   54.0132 C   0  0  0  0  0  0  0  0  0  0  0  0
   69.6783   48.3846   54.1853 C   0  0  0  0  0  0  0  0  0  0  0  0
   70.1640   49.1103   53.0964 C   0  0  0  0  0  0  0  0  0  0  0  0
   69.9001   48.6887   51.8122 C   0  0  0  0  0  0  0  0  0  0  0  0
   69.1550   47.5469   51.6354 C   0  0  0  0  0  0  0  0  0  0  0  0
   68.6809   46.8397   52.7188 C   0  0  0  0  0  0  0  0  0  0  0  0
   67.7282   45.3820   52.5115 Cl  0  0  0  0  0  0  0  0  0  0  0  0
 17 18  1  0
 18  1  1  0
  1 19  1  0
  1  2  2  0
 19 20  1  0
 20 21  1  0
 21 22  2  0
 21 23  1  0
 23 24  2  0
 23 28  1  0
 24 25  1  0
 25 26  2  0
 26 27  1  0
 27 28  2  0
 28 29  1  0
  2  3  1  0
  2  9  1  0
  3  4  2  0
  3  5  1  0
  5  6  1  0
  6  7  2  0
  6  8  1  0
  8 11  1  0
  8  9  1  0
 11 12  1  0
 11 16  1  0
 12 13  1  0
 13 14  1  0
 14 15  1  0
 15 16  1  0
  9 10  2  0
M  END
>  <minimizedAffinity>  (886) 
-8.58000

$$$$
data/reference_output_2/data/smiles/168886.pdb
     RDKit          3D

 28 31  0  0  0  0  0  0  0  0999 V2000
   68.8734   45.7831   56.1084 C   0  0  0  0  0  0  0  0  0  0  0  0
   68.7805   44.4094   56.1478 C   0  0  0  0  0  0  0  0  0  0  0  0
   69.5020   43.6377   57.0306 C   0  0  0  0  0  0  0  0  0  0  0  0
   70.3782   44.2517   57.9412 C   0  0  0  0  0  0  0  0  0  0  0  0
   70.4693   45.6225   57.9006 C   0  0  0  0  0  0  0  0  0  0  0  0
   69.7293   46.4010   56.9966 C   0  0  0  0  0  0  0  0  0  0  0  0
   68.1551   46.5340   55.2297 O   0  0  0  0  0  0  0  0  0  0  0  0
   71.3338   50.5055   53.6298 O   0  0  0  0  0  0  0  0  0  0  0  0
   70.5628   49.5160   53.3527 C   0  0  0  0  0  0  0  0  0  0  0  0
   70.2803   49.1091   52.1067 N   0  0  0  0  0  0  0  0  0  0  0  0
   69.4449   48.0508   52.1888 C   0  0  0  0  0  0  0  0  0  0  0  0
   68.8606   47.2754   51.2296 N   0  0  0  0  0  0  0  0  0  0  0  0
   68.0512   46.2635   51.5838 C   0  0  0  0  0  0  0  0  0  0  0  0
   67.8121   46.0114   52.9192 C   0  0  0  0  0  0  0  0  0  0  0  0
   68.3818   46.7694   53.9106 C   0  0  0  0  0  0  0  0  0  0  0  0
   69.2231   47.8208   53.5171 C   0  0  0  0  0  0  0  0  0  0  0  0
   69.9179   48.7299   54.2137 N   0  0  0  0  0  0  0  0  0  0  0  0
   71.1009   43.4251   58.8103 N   0  0  0  0  0  0  0  0  0  0  0  0
   72.3649   42.3516   58.4566 S   0  0  0  0  0  0  0  0  0  0  0  0
   72.8498   42.5402   57.0413 O   0  0  0  0  0  0  0  0  0  0  0  0
   73.5497   42.5237   59.3670 O   0  0  0  0  0  0  0  0  0  0  0  0
   71.8627   40.6612   58.5591 C   0  0  0  0  0  0  0  0  0  0  0  0
   72.7951   39.7037   58.8883 C   0  0  0  0  0  0  0  0  0  0  0  0
   72.3999   38.3924   58.9668 C   0  0  0  0  0  0  0  0  0  0  0  0
   71.1073   37.9791   58.7316 C   0  0  0  0  0  0  0  0  0  0  0  0
   70.7302   36.6691   58.8136 F   0  0  0  0  0  0  0  0  0  0  0  0
   70.2056   38.9751   58.4048 C   0  0  0  0  0  0  0  0  0  0  0  0
   70.5679   40.2903   58.3177 C   0  0  0  0  0  0  0  0  0  0  0  0
  8  9  2  0
  9 10  1  0
  9 17  1  0
 10 11  1  0
 11 12  2  0
 11 16  1  0
 12 13  1  0
 13 14  2  0
 14 15  1  0
 15  7  1  0
 15 16  2  0
  7  1  1  0
  1  2  2  0
  1  6  1  0
  2  3  1  0
  3  4  2  0
  4 18  1  0
  4  5  1  0
 18 19  1  0
 19 20  2  0
 19 21  2  0
 19 22  1  0
 22 23  2  0
 22 28  1  0
 23 24  1  0
 24 25  2  0
 25 26  1  0
 25 27  1  0
 27 28  2  0
  5  6  2  0
 16 17  1  0
M  CHG  1  10   1
M  END
>  <minimizedAffinity>  (887) 
-8.92770

$$$$
data/reference_output_2/data/smiles/168900.pdb
     RDKit          3D

 22 23  0  0  0  0  0  0  0  0999 V2000
   68.3678   41.0016   57.2420 C   0  0  0  0  0  0  0  0  0  0  0  0
   69.2491   42.0468   57.3909 C   0  0  0  0  0  0  0  0  0  0  0  0
   69.1681   43.2286   56.8160 C   0  0  0  0  0  0  0  0  0  0  0  0
   67.9881   43.3784   55.9015 C   0  0  0  0  0  0  0  0  0  0  0  0
   67.1509   42.4131   55.7575 C   0  0  0  0  0  0  0  0  0  0  0  0
   67.2832   41.0933   56.4481 C   0  0  0  0  0  0  0  0  0  0  0  0
   70.1661   39.5465   58.4051 N   0  0  0  0  0  0  0  0  0  0  0  0
   68.8988   39.8014   57.9173 C   0  0  0  0  0  0  0  0  0  0  0  0
   68.0478   38.8300   58.1172 O   0  0  0  0  0  0  0  0  0  0  0  0
   70.2072   38.2398   59.2226 C   0  0  0  0  0  0  0  0  0  0  0  0
   72.2007   36.9568   57.9828 C   0  0  0  0  0  0  0  0  0  0  0  0
   71.2948   37.5481   58.5459 C   0  0  0  0  0  0  0  0  0  0  0  0
   68.1177   44.5891   55.2468 N   0  0  0  0  0  0  0  0  0  0  0  0
   68.3065   45.9592   55.3859 C   0  0  0  0  0  0  0  0  0  0  0  0
   68.2850   46.4728   56.5119 O   0  0  0  0  0  0  0  0  0  0  0  0
   68.5721   46.7033   54.0982 C   0  0  0  0  0  0  0  0  0  0  0  0
   68.6344   46.2804   52.8235 C   0  0  0  0  0  0  0  0  0  0  0  0
   69.1529   47.2874   51.9706 C   0  0  0  0  0  0  0  0  0  0  0  0
   69.5606   48.4515   52.0916 C   0  0  0  0  0  0  0  0  0  0  0  0
   69.4827   48.9387   53.4873 C   0  0  0  0  0  0  0  0  0  0  0  0
   70.0447   50.9112   53.8642 I   0  0  0  0  0  0  0  0  0  0  0  0
   69.0044   48.0512   54.3934 C   0  0  0  0  0  0  0  0  0  0  0  0
 11 12  3  0
 12 10  1  0
 10  7  1  0
  7  8  1  0
  8  9  2  0
  8  1  1  0
  1  2  2  0
  1  6  1  0
  2  3  1  0
  3  4  2  0
  4 13  1  0
  4  5  1  0
 13 14  1  0
 14 15  2  0
 14 16  1  0
 16 17  2  0
 16 22  1  0
 17 18  1  0
 18 19  2  0
 19 20  1  0
 20 21  1  0
 20 22  2  0
  5  6  2  0
M  END
>  <minimizedAffinity>  (888) 
-8.52548

$$$$
data/reference_output_2/data/smiles/168980.pdb
     RDKit          3D

 28 31  0  0  0  0  0  0  0  0999 V2000
   70.4376   44.4759   58.3170 C   0  0  2  0  0  0  0  0  0  0  0  0
   69.8245   44.3039   59.5640 O   0  0  0  0  0  0  0  0  0  0  0  0
   70.1452   43.3577   57.3742 C   0  0  0  0  0  0  0  0  0  0  0  0
   71.0122   42.2274   57.9355 C   0  0  0  0  0  0  0  0  0  0  0  0
   72.1710   42.9362   58.4352 N   0  0  0  0  0  0  0  0  0  0  0  0
   71.8927   44.3236   58.5593 C   0  0  0  0  0  0  0  0  0  0  0  0
   72.7452   45.2164   58.8242 O   0  0  0  0  0  0  0  0  0  0  0  0
   73.4510   42.3619   58.7735 C   0  0  0  0  0  0  0  0  0  0  0  0
   73.6114   41.4577   59.8018 C   0  0  0  0  0  0  0  0  0  0  0  0
   74.8535   40.9214   60.1180 C   0  0  0  0  0  0  0  0  0  0  0  0
   75.9742   41.2799   59.4059 C   0  0  0  0  0  0  0  0  0  0  0  0
   77.2801   40.9435   59.4713 N   0  0  0  0  0  0  0  0  0  0  0  0
   77.9610   41.5844   58.5400 N   0  0  0  0  0  0  0  0  0  0  0  0
   77.0972   42.3561   57.8469 C   0  0  0  0  0  0  0  0  0  0  0  0
   75.8312   42.1848   58.3718 C   0  0  0  0  0  0  0  0  0  0  0  0
   74.5810   42.7144   58.0662 C   0  0  0  0  0  0  0  0  0  0  0  0
   70.6481   46.8156   58.2734 O   0  0  0  0  0  0  0  0  0  0  0  0
   70.1135   45.8100   57.7531 C   0  0  0  0  0  0  0  0  0  0  0  0
   69.2365   45.9405   56.6734 N   0  0  0  0  0  0  0  0  0  0  0  0
   68.8774   47.2024   56.0667 C   0  0  0  0  0  0  0  0  0  0  0  0
   68.7549   47.0278   54.6000 C   0  0  0  0  0  0  0  0  0  0  0  0
   68.0200   46.0038   54.0483 C   0  0  0  0  0  0  0  0  0  0  0  0
   67.9296   45.8841   52.6636 C   0  0  0  0  0  0  0  0  0  0  0  0
   67.1949   44.8618   52.1155 F   0  0  0  0  0  0  0  0  0  0  0  0
   68.5628   46.7735   51.8244 C   0  0  0  0  0  0  0  0  0  0  0  0
   69.2976   47.7959   52.3900 C   0  0  0  0  0  0  0  0  0  0  0  0
   69.9200   48.6699   51.5383 F   0  0  0  0  0  0  0  0  0  0  0  0
   69.3990   47.9309   53.7446 C   0  0  0  0  0  0  0  0  0  0  0  0
 17 18  2  0
 18 19  1  0
 19 20  1  0
 20 21  1  0
 21 22  2  0
 21 28  1  0
 22 23  1  0
 23 24  1  0
 23 25  2  0
 25 26  1  0
 26 27  1  0
 26 28  2  0
  1 18  1  0
  1  2  1  1
  1  3  1  0
  1  6  1  0
  3  4  1  0
  4  5  1  0
  5  8  1  0
  5  6  1  0
  8  9  2  0
  8 16  1  0
  9 10  1  0
 10 11  2  0
 11 12  1  0
 11 15  1  0
 12 13  1  0
 13 14  2  0
 14 15  1  0
 15 16  2  0
  6  7  2  0
M  END
>  <minimizedAffinity>  (889) 
-8.99678

$$$$
data/reference_output_2/data/smiles/169014.pdb
     RDKit          3D

 28 31  0  0  0  0  0  0  0  0999 V2000
   73.5432   35.0480   55.9692 C   0  0  0  0  0  0  0  0  0  0  0  0
   72.9065   35.3923   54.7923 C   0  0  0  0  0  0  0  0  0  0  0  0
   73.6079   35.5609   53.6177 C   0  0  0  0  0  0  0  0  0  0  0  0
   74.9750   35.3993   53.5419 C   0  0  0  0  0  0  0  0  0  0  0  0
   75.6139   35.0554   54.7141 C   0  0  0  0  0  0  0  0  0  0  0  0
   74.9105   34.8868   55.8897 C   0  0  0  0  0  0  0  0  0  0  0  0
   70.1368   37.0585   60.6951 C   0  0  0  0  0  0  0  0  0  0  0  0
   70.9295   36.8827   59.4838 N   0  0  0  0  0  0  0  0  0  0  0  0
   71.2726   37.8138   58.5827 C   0  0  0  0  0  0  0  0  0  0  0  0
   72.0362   37.2239   57.5729 C   0  0  0  0  0  0  0  0  0  0  0  0
   72.1540   35.9016   57.8766 C   0  0  0  0  0  0  0  0  0  0  0  0
   72.8032   34.8760   57.2195 C   0  0  0  0  0  0  0  0  0  0  0  0
   72.7336   33.6571   57.7939 N   0  0  0  0  0  0  0  0  0  0  0  0
   72.0653   33.4489   58.9491 C   0  0  0  0  0  0  0  0  0  0  0  0
   71.4400   34.4654   59.5706 N   0  0  0  0  0  0  0  0  0  0  0  0
   71.4635   35.7182   59.0578 C   0  0  0  0  0  0  0  0  0  0  0  0
   70.9194   39.2237   58.6244 C   0  0  0  0  0  0  0  0  0  0  0  0
   69.6330   39.6609   58.2696 N   0  0  0  0  0  0  0  0  0  0  0  0
   71.7687   40.0692   58.9798 O   0  0  0  0  0  0  0  0  0  0  0  0
   75.6815   35.5793   52.3138 N   0  0  0  0  0  0  0  0  0  0  0  0
   75.7988   34.5820   51.3230 C   0  0  0  0  0  0  0  0  0  0  0  0
   75.2217   33.4721   51.5889 O   0  0  0  0  0  0  0  0  0  0  0  0
   76.5105   34.7483   50.0749 C   0  0  0  0  0  0  0  0  0  0  0  0
   76.1602   34.0754   48.9498 C   0  0  0  0  0  0  0  0  0  0  0  0
   76.8862   34.2754   47.7694 C   0  0  0  0  0  0  0  0  0  0  0  0
   77.9552   35.1468   47.7175 C   0  0  0  0  0  0  0  0  0  0  0  0
   78.2961   35.8189   48.8638 C   0  0  0  0  0  0  0  0  0  0  0  0
   77.5781   35.6128   50.0088 C   0  0  0  0  0  0  0  0  0  0  0  0
  7  8  1  0
  8  9  1  0
  8 16  1  0
  9 17  1  0
  9 10  2  0
 17 18  1  0
 17 19  2  0
 10 11  1  0
 11 12  1  0
 11 16  2  0
 12  1  1  0
 12 13  2  0
  1  2  2  0
  1  6  1  0
  2  3  1  0
  3  4  2  0
  4 20  1  0
  4  5  1  0
 20 21  1  0
 21 22  2  0
 21 23  1  0
 23 24  2  0
 23 28  1  0
 24 25  1  0
 25 26  2  0
 26 27  1  0
 27 28  2  0
  5  6  2  0
 13 14  1  0
 14 15  2  0
 15 16  1  0
M  END
>  <minimizedAffinity>  (890) 
-8.93012

$$$$
data/reference_output_2/data/smiles/169029.pdb
     RDKit          3D

 25 27  0  0  0  0  0  0  0  0999 V2000
   70.9453   43.8962   58.0678 O   0  0  0  0  0  0  0  0  0  0  0  0
   69.8504   43.7653   57.4853 C   0  0  0  0  0  0  0  0  0  0  0  0
   69.2395   44.9418   56.9748 N   0  0  0  0  0  0  0  0  0  0  0  0
   69.2494   42.4396   57.3527 C   0  0  0  0  0  0  0  0  0  0  0  0
   68.0981   42.2639   56.6138 C   0  0  0  0  0  0  0  0  0  0  0  0
   67.5098   41.0291   56.4701 C   0  0  0  0  0  0  0  0  0  0  0  0
   68.0800   39.9163   57.0820 C   0  0  0  0  0  0  0  0  0  0  0  0
   69.2206   40.0959   57.8146 C   0  0  0  0  0  0  0  0  0  0  0  0
   69.7638   41.3481   57.9226 N   0  0  0  0  0  0  0  0  0  0  0  0
   69.8674   38.9749   58.4798 C   0  0  0  0  0  0  0  0  0  0  0  0
   71.1792   38.6434   58.1292 C   0  0  0  0  0  0  0  0  0  0  0  0
   71.8205   37.5908   58.7378 C   0  0  0  0  0  0  0  0  0  0  0  0
   71.1713   36.8371   59.7154 C   0  0  0  0  0  0  0  0  0  0  0  0
   69.8833   37.1605   60.0629 C   0  0  0  0  0  0  0  0  0  0  0  0
   69.2356   38.2356   59.4369 C   0  0  0  0  0  0  0  0  0  0  0  0
   69.8127   46.2085   57.1015 N   0  0  0  0  0  0  0  0  0  0  0  0
   68.8354   47.3215   56.2554 S   0  0  0  0  0  0  0  0  0  0  0  0
   67.5034   47.4099   56.9618 O   0  0  0  0  0  0  0  0  0  0  0  0
   69.4711   48.6919   56.4112 O   0  0  0  0  0  0  0  0  0  0  0  0
   68.6563   46.9902   54.5690 C   0  0  0  0  0  0  0  0  0  0  0  0
   69.2802   47.8248   53.6688 C   0  0  0  0  0  0  0  0  0  0  0  0
   69.2077   47.6554   52.2987 C   0  0  0  0  0  0  0  0  0  0  0  0
   68.4700   46.5904   51.8226 C   0  0  0  0  0  0  0  0  0  0  0  0
   67.8361   45.7411   52.7060 C   0  0  0  0  0  0  0  0  0  0  0  0
   67.9254   45.9347   54.0672 C   0  0  0  0  0  0  0  0  0  0  0  0
  1  2  2  0
  2  3  1  0
  2  4  1  0
  3 16  1  0
 16 17  1  0
 17 18  2  0
 17 19  2  0
 17 20  1  0
 20 21  2  0
 20 25  1  0
 21 22  1  0
 22 23  2  0
 23 24  1  0
 24 25  2  0
  4  5  2  0
  4  9  1  0
  5  6  1  0
  6  7  2  0
  7  8  1  0
  8 10  1  0
  8  9  2  0
 10 11  2  0
 10 15  1  0
 11 12  1  0
 12 13  2  0
 13 14  1  0
 14 15  2  0
M  END
>  <minimizedAffinity>  (891) 
-9.02011

$$$$
data/reference_output_2/data/smiles/169045.pdb
     RDKit          3D

 23 25  0  0  0  0  0  0  0  0999 V2000
   69.1753   50.7264   53.0459 N   0  0  0  0  0  0  0  0  0  0  0  0
   69.5675   51.5843   54.1231 C   0  0  0  0  0  0  0  0  0  0  0  0
   68.6392   52.0875   55.0099 C   0  0  0  0  0  0  0  0  0  0  0  0
   69.0406   52.9102   56.0363 C   0  0  0  0  0  0  0  0  0  0  0  0
   70.3633   53.2490   56.2034 C   0  0  0  0  0  0  0  0  0  0  0  0
   71.3234   52.7623   55.3329 C   0  0  0  0  0  0  0  0  0  0  0  0
   70.8861   51.9474   54.3245 C   0  0  0  0  0  0  0  0  0  0  0  0
   72.7345   53.1018   55.4820 C   0  0  0  0  0  0  0  0  0  0  0  0
   73.7396   52.4153   54.8845 N   0  0  0  0  0  0  0  0  0  0  0  0
   74.8751   52.9821   55.2271 N   0  0  0  0  0  0  0  0  0  0  0  0
   74.5652   54.0111   56.0297 N   0  0  0  0  0  0  0  0  0  0  0  0
   73.2769   54.0944   56.1923 N   0  0  0  0  0  0  0  0  0  0  0  0
   70.1569   49.2353   51.1275 O   0  0  0  0  0  0  0  0  0  0  0  0
   69.9960   49.3008   52.6085 S   0  0  0  0  0  0  0  0  0  0  0  0
   71.4053   49.3276   53.1840 O   0  0  0  0  0  0  0  0  0  0  0  0
   69.2120   47.8387   53.1312 C   0  0  0  0  0  0  0  0  0  0  0  0
   68.6961   46.9465   52.2161 C   0  0  0  0  0  0  0  0  0  0  0  0
   68.0626   45.7620   52.6109 C   0  0  0  0  0  0  0  0  0  0  0  0
   67.9373   45.4538   53.9467 C   0  0  0  0  0  0  0  0  0  0  0  0
   67.3335   44.3209   54.3850 F   0  0  0  0  0  0  0  0  0  0  0  0
   68.4616   46.3597   54.8549 C   0  0  0  0  0  0  0  0  0  0  0  0
   69.0809   47.5179   54.4709 C   0  0  0  0  0  0  0  0  0  0  0  0
   69.7412   48.6603   55.6229 Cl  0  0  0  0  0  0  0  0  0  0  0  0
 13 14  2  0
 14 15  2  0
 14  1  1  0
 14 16  1  0
  1  2  1  0
  2  3  2  0
  2  7  1  0
  3  4  1  0
  4  5  2  0
  5  6  1  0
  6  8  1  0
  6  7  2  0
  8  9  2  0
  8 12  1  0
  9 10  1  0
 10 11  2  0
 11 12  1  0
 16 17  2  0
 16 22  1  0
 17 18  1  0
 18 19  2  0
 19 20  1  0
 19 21  1  0
 21 22  2  0
 22 23  1  0
M  END
>  <minimizedAffinity>  (892) 
-8.87180

$$$$
data/reference_output_2/data/smiles/169118.pdb
     RDKit          3D

 30 32  0  0  0  0  0  0  0  0999 V2000
   69.6975   46.0106   57.1772 C   0  0  0  0  0  0  0  0  0  0  0  0
   69.1533   44.8495   56.6808 C   0  0  0  0  0  0  0  0  0  0  0  0
   69.7320   43.6084   56.9296 C   0  0  0  0  0  0  0  0  0  0  0  0
   70.8770   43.4689   57.6820 C   0  0  0  0  0  0  0  0  0  0  0  0
   71.4142   44.6398   58.1762 C   0  0  0  0  0  0  0  0  0  0  0  0
   70.8380   45.8916   57.9306 C   0  0  0  0  0  0  0  0  0  0  0  0
   68.9522   47.5858   56.8338 S   0  0  0  0  0  0  0  0  0  0  0  0
   67.8715   47.7472   57.8794 O   0  0  0  0  0  0  0  0  0  0  0  0
   69.9903   48.6432   56.9123 O   0  0  0  0  0  0  0  0  0  0  0  0
   68.1919   47.4643   55.2929 N   0  0  0  0  0  0  0  0  0  0  0  0
   67.7241   45.5925   53.2017 C   0  0  0  0  0  0  0  0  0  0  0  0
   68.6302   46.7792   53.0271 C   0  0  0  0  0  0  0  0  0  0  0  0
   69.2479   46.9565   51.8030 C   0  0  0  0  0  0  0  0  0  0  0  0
   70.1012   48.0437   51.5749 C   0  0  0  0  0  0  0  0  0  0  0  0
   70.3174   48.9423   52.6037 C   0  0  0  0  0  0  0  0  0  0  0  0
   69.6821   48.7248   53.8115 C   0  0  0  0  0  0  0  0  0  0  0  0
   68.8404   47.6723   54.0665 C   0  0  0  0  0  0  0  0  0  0  0  0
   71.5045   42.1812   57.9422 C   0  0  0  0  0  0  0  0  0  0  0  0
   72.7385   42.0697   57.7676 O   0  0  0  0  0  0  0  0  0  0  0  0
   70.8091   41.0340   58.3828 N   0  0  0  0  0  0  0  0  0  0  0  0
   71.3642   39.7733   58.6450 N   0  0  0  0  0  0  0  0  0  0  0  0
   70.6975   38.5654   58.4532 C   0  0  0  0  0  0  0  0  0  0  0  0
   69.4966   38.6985   58.0048 O   0  0  0  0  0  0  0  0  0  0  0  0
   71.1574   37.2213   58.6840 C   0  0  0  0  0  0  0  0  0  0  0  0
   72.1170   36.6649   57.8142 C   0  0  0  0  0  0  0  0  0  0  0  0
   72.5979   35.3936   57.9786 C   0  0  0  0  0  0  0  0  0  0  0  0
   72.1732   34.5816   59.0083 C   0  0  0  0  0  0  0  0  0  0  0  0
   71.2410   35.1188   59.8582 C   0  0  0  0  0  0  0  0  0  0  0  0
   70.7385   36.4129   59.7061 C   0  0  0  0  0  0  0  0  0  0  0  0
   69.7933   36.8931   60.6077 O   0  0  0  0  0  0  0  0  0  0  0  0
 11 12  1  0
 12 13  2  0
 12 17  1  0
 13 14  1  0
 14 15  2  0
 15 16  1  0
 16 17  2  0
 17 10  1  0
 10  7  1  0
  7  8  2  0
  7  9  2  0
  7  1  1  0
  1  2  2  0
  1  6  1  0
  2  3  1  0
  3  4  2  0
  4 18  1  0
  4  5  1  0
 18 19  2  0
 18 20  1  0
 20 21  1  0
 21 22  1  0
 22 23  2  0
 22 24  1  0
 24 25  2  0
 24 29  1  0
 25 26  1  0
 26 27  2  0
 27 28  1  0
 28 29  2  0
 29 30  1  0
  5  6  2  0
M  END
>  <minimizedAffinity>  (893) 
-8.71165

$$$$
data/reference_output_2/data/smiles/169195.pdb
     RDKit          3D

 26 29  0  0  0  0  0  0  0  0999 V2000
   74.0449   35.2356   55.9487 C   0  0  0  0  0  0  0  0  0  0  0  0
   73.8176   35.2617   54.6543 C   0  0  0  0  0  0  0  0  0  0  0  0
   72.5575   35.3797   54.0635 O   0  0  0  0  0  0  0  0  0  0  0  0
   75.0385   35.1525   53.8674 C   0  0  0  0  0  0  0  0  0  0  0  0
   75.2988   35.1354   52.4972 C   0  0  0  0  0  0  0  0  0  0  0  0
   76.5666   35.0249   51.9730 C   0  0  0  0  0  0  0  0  0  0  0  0
   77.6077   34.9273   52.8728 C   0  0  0  0  0  0  0  0  0  0  0  0
   77.3793   34.9419   54.2522 C   0  0  0  0  0  0  0  0  0  0  0  0
   76.0909   35.0549   54.7486 C   0  0  0  0  0  0  0  0  0  0  0  0
   75.4987   35.1033   56.0810 C   0  0  0  0  0  0  0  0  0  0  0  0
   76.1267   35.0430   57.1790 O   0  0  0  0  0  0  0  0  0  0  0  0
   71.2784   35.6098   59.1989 C   0  0  0  0  0  0  0  0  0  0  0  0
   71.8198   34.3725   58.8832 C   0  0  0  0  0  0  0  0  0  0  0  0
   72.7059   34.2584   57.8349 C   0  0  0  0  0  0  0  0  0  0  0  0
   73.0992   35.3197   57.0586 C   0  0  0  0  0  0  0  0  0  0  0  0
   72.5550   36.5616   57.3763 C   0  0  0  0  0  0  0  0  0  0  0  0
   71.6638   36.6874   58.4291 C   0  0  0  0  0  0  0  0  0  0  0  0
   70.0964   34.7003   61.2253 C   0  0  0  0  0  0  0  0  0  0  0  0
   70.3587   35.7645   60.2751 N   0  0  0  0  0  0  0  0  0  0  0  0
   69.6434   37.0138   60.4650 C   0  0  0  0  0  0  0  0  0  0  0  0
   76.8074   35.0150   50.5637 N   0  0  0  0  0  0  0  0  0  0  0  0
   76.1126   34.2342   49.6973 C   0  0  0  0  0  0  0  0  0  0  0  0
   76.3533   34.2483   48.3454 C   0  0  0  0  0  0  0  0  0  0  0  0
   77.3257   35.0699   47.8130 C   0  0  0  0  0  0  0  0  0  0  0  0
   78.0287   35.8605   48.6936 C   0  0  0  0  0  0  0  0  0  0  0  0
   77.7460   35.8078   50.0444 C   0  0  0  0  0  0  0  0  0  0  0  0
 18 19  1  0
 19 20  1  0
 19 12  1  0
 12 13  2  0
 12 17  1  0
 13 14  1  0
 14 15  2  0
 15  1  1  0
 15 16  1  0
  1  2  2  0
  1 10  1  0
  2  3  1  0
  2  4  1  0
  4  5  1  0
  4  9  2  0
  5  6  2  0
  6 21  1  0
  6  7  1  0
 21 22  2  0
 21 26  1  0
 22 23  1  0
 23 24  2  0
 24 25  1  0
 25 26  2  0
  7  8  2  0
  8  9  1  0
  9 10  1  0
 10 11  2  0
 16 17  2  0
M  CHG  2   3  -1  21   1
M  END
>  <minimizedAffinity>  (894) 
-8.55051

$$$$
data/reference_output_2/data/smiles/169224.pdb
     RDKit          3D

 32 35  0  0  0  0  0  0  0  0999 V2000
   65.3441   39.7228   60.7349 C   0  0  0  0  0  0  0  0  0  0  0  0
   66.2473   40.2180   59.9024 C   0  0  0  0  0  0  0  0  0  0  0  0
   67.0172   39.3787   59.1788 N   0  0  0  0  0  0  0  0  0  0  0  0
   67.9374   39.8880   58.3309 C   0  0  0  0  0  0  0  0  0  0  0  0
   68.6581   39.0869   57.6529 O   0  0  0  0  0  0  0  0  0  0  0  0
   68.1372   41.2428   58.1611 C   0  0  0  0  0  0  0  0  0  0  0  0
   69.0537   41.7234   57.3164 C   0  0  0  0  0  0  0  0  0  0  0  0
   67.3683   42.0773   58.8830 N   0  0  0  0  0  0  0  0  0  0  0  0
   66.4467   41.5737   59.7329 C   0  0  0  0  0  0  0  0  0  0  0  0
   65.7298   42.3617   60.4065 O   0  0  0  0  0  0  0  0  0  0  0  0
   69.2639   43.1457   57.1373 C   0  0  0  0  0  0  0  0  0  0  0  0
   70.1875   43.8253   57.8841 C   0  0  0  0  0  0  0  0  0  0  0  0
   70.3991   45.1952   57.7216 C   0  0  0  0  0  0  0  0  0  0  0  0
   69.6318   45.8350   56.7718 C   0  0  0  0  0  0  0  0  0  0  0  0
   68.6969   45.1775   56.0079 C   0  0  0  0  0  0  0  0  0  0  0  0
   68.5266   43.8296   56.2058 C   0  0  0  0  0  0  0  0  0  0  0  0
   67.9276   45.8537   55.0457 O   0  0  0  0  0  0  0  0  0  0  0  0
   68.5098   46.6853   54.1087 C   0  0  0  0  0  0  0  0  0  0  0  0
   69.0403   47.9293   54.4403 C   0  0  0  0  0  0  0  0  0  0  0  0
   69.6025   48.6915   53.4330 C   0  0  0  0  0  0  0  0  0  0  0  0
   69.6541   48.2667   52.1222 C   0  0  0  0  0  0  0  0  0  0  0  0
   70.2187   49.0689   51.1959 F   0  0  0  0  0  0  0  0  0  0  0  0
   69.1184   47.0250   51.8217 C   0  0  0  0  0  0  0  0  0  0  0  0
   68.5525   46.2428   52.8036 C   0  0  0  0  0  0  0  0  0  0  0  0
   65.5995   37.5532   61.9690 C   0  0  0  0  0  0  0  0  0  0  0  0
   65.2198   36.2558   61.8375 N   0  0  0  0  0  0  0  0  0  0  0  0
   64.5026   36.2004   60.6865 C   0  0  0  0  0  0  0  0  0  0  0  0
   64.4506   37.4308   60.1385 N   0  0  0  0  0  0  0  0  0  0  0  0
   65.1286   38.2918   60.9209 C   0  0  0  0  0  0  0  0  0  0  0  0
   65.9617   37.5617   64.4339 C   0  0  0  0  0  0  0  0  0  0  0  0
   66.4106   38.0946   63.0904 C   0  0  0  0  0  0  0  0  0  0  0  0
   67.8453   37.6187   62.8815 C   0  0  0  0  0  0  0  0  0  0  0  0
 30 31  1  0
 31 32  1  0
 31 25  1  0
 25 26  1  0
 25 29  2  0
 26 27  1  0
 27 28  2  0
 28 29  1  0
 29  1  1  0
  1  2  2  0
  2  3  1  0
  2  9  1  0
  3  4  1  0
  4  5  2  0
  4  6  1  0
  6  7  2  0
  6  8  1  0
  7 11  1  0
 11 12  2  0
 11 16  1  0
 12 13  1  0
 13 14  2  0
 14 15  1  0
 15 17  1  0
 15 16  2  0
 17 18  1  0
 18 19  2  0
 18 24  1  0
 19 20  1  0
 20 21  2  0
 21 22  1  0
 21 23  1  0
 23 24  2  0
  8  9  1  0
  9 10  2  0
M  CHG  1  28   1
M  END
>  <minimizedAffinity>  (895) 
-9.57852

$$$$
data/reference_output_2/data/smiles/169698.pdb
     RDKit          3D

 22 23  0  0  0  0  0  0  0  0999 V2000
   69.1076   46.3390   56.3675 C   0  0  0  0  0  0  0  0  0  0  0  0
   69.7373   46.2769   57.4463 O   0  0  0  0  0  0  0  0  0  0  0  0
   68.4292   45.1528   55.8735 N   0  0  0  0  0  0  0  0  0  0  0  0
   68.5412   44.0143   56.6669 N   0  0  0  0  0  0  0  0  0  0  0  0
   68.2052   42.8378   56.2980 C   0  0  0  0  0  0  0  0  0  0  0  0
   68.3299   41.6554   57.1444 C   0  0  0  0  0  0  0  0  0  0  0  0
   68.7749   41.7669   58.4428 C   0  0  0  0  0  0  0  0  0  0  0  0
   68.9000   40.6446   59.2637 C   0  0  0  0  0  0  0  0  0  0  0  0
   68.5838   39.3867   58.8069 C   0  0  0  0  0  0  0  0  0  0  0  0
   68.7017   38.2590   59.6071 O   0  0  0  0  0  0  0  0  0  0  0  0
   68.1319   39.2612   57.4916 C   0  0  0  0  0  0  0  0  0  0  0  0
   68.0197   40.3884   56.7090 C   0  0  0  0  0  0  0  0  0  0  0  0
   67.5696   40.2330   55.4099 O   0  0  0  0  0  0  0  0  0  0  0  0
   69.0607   47.5972   55.6186 C   0  0  0  0  0  0  0  0  0  0  0  0
   68.1675   47.5239   54.4425 C   0  0  0  0  0  0  0  0  0  0  0  0
   67.6010   45.4116   52.2394 C   0  0  0  0  0  0  0  0  0  0  0  0
   68.5830   46.5403   52.1328 C   0  0  0  0  0  0  0  0  0  0  0  0
   69.3885   46.8427   51.1219 N   0  0  0  0  0  0  0  0  0  0  0  0
   70.1335   47.8980   51.3383 N   0  0  0  0  0  0  0  0  0  0  0  0
   69.7953   48.3206   52.5774 C   0  0  0  0  0  0  0  0  0  0  0  0
   70.4558   49.5015   53.2151 C   0  0  0  0  0  0  0  0  0  0  0  0
   68.8260   47.5042   53.1210 C   0  0  0  0  0  0  0  0  0  0  0  0
 16 17  1  0
 17 18  2  0
 17 22  1  0
 18 19  1  0
 19 20  1  0
 20 21  1  0
 20 22  2  0
 22 15  1  0
 15 14  1  0
 14  1  1  0
  1  2  2  0
  1  3  1  0
  3  4  1  0
  4  5  2  0
  5  6  1  0
  6  7  2  0
  6 12  1  0
  7  8  1  0
  8  9  2  0
  9 10  1  0
  9 11  1  0
 11 12  2  0
 12 13  1  0
M  END
>  <minimizedAffinity>  (896) 
-9.12952

$$$$
data/reference_output_2/data/smiles/169839.pdb
     RDKit          3D

 27 29  0  0  0  0  0  0  0  0999 V2000
   71.2181   47.8932   58.1210 N   0  0  0  0  0  0  0  0  0  0  0  0
   69.9929   47.2594   57.7728 C   0  0  0  0  0  0  0  0  0  0  0  0
   69.7236   46.1004   58.2575 O   0  0  0  0  0  0  0  0  0  0  0  0
   69.0896   47.9650   56.8719 C   0  0  1  0  0  0  0  0  0  0  0  0
   69.7752   49.0103   56.1935 N   0  0  0  0  0  0  0  0  0  0  0  0
   70.3595   50.0259   57.0195 C   0  0  0  0  0  0  0  0  0  0  0  0
   69.3996   50.7030   57.9213 C   0  0  0  0  0  0  0  0  0  0  0  0
   68.1823   51.2700   57.3419 C   0  0  0  0  0  0  0  0  0  0  0  0
   68.1455   51.5640   55.8941 C   0  0  0  0  0  0  0  0  0  0  0  0
   69.0389   52.6318   55.3995 C   0  0  0  0  0  0  0  0  0  0  0  0
   70.0291   53.1679   56.3769 C   0  0  0  0  0  0  0  0  0  0  0  0
   71.2433   52.3478   56.5835 C   0  0  0  0  0  0  0  0  0  0  0  0
   71.1714   50.9329   56.1469 C   0  0  0  0  0  0  0  0  0  0  0  0
   71.3358   49.2847   57.9099 C   0  0  0  0  0  0  0  0  0  0  0  0
   72.2523   49.9511   58.4511 O   0  0  0  0  0  0  0  0  0  0  0  0
   72.3016   47.1048   58.6801 C   0  0  0  0  0  0  0  0  0  0  0  0
   71.6375   46.1178   60.6922 O   0  0  0  0  0  0  0  0  0  0  0  0
   72.2578   47.0731   60.1601 C   0  0  0  0  0  0  0  0  0  0  0  0
   72.8889   48.0807   60.9384 N   0  0  0  0  0  0  0  0  0  0  0  0
   72.8451   48.0478   62.3021 O   0  0  0  0  0  0  0  0  0  0  0  0
   68.3201   47.1075   55.9075 C   0  0  0  0  0  0  0  0  0  0  0  0
   68.6612   47.2681   54.5009 C   0  0  0  0  0  0  0  0  0  0  0  0
   68.2135   46.2960   53.6142 C   0  0  0  0  0  0  0  0  0  0  0  0
   68.4937   46.3669   52.2822 C   0  0  0  0  0  0  0  0  0  0  0  0
   69.2259   47.3984   51.7723 C   0  0  0  0  0  0  0  0  0  0  0  0
   69.6862   48.3798   52.6242 C   0  0  0  0  0  0  0  0  0  0  0  0
   69.3940   48.2938   53.9664 C   0  0  0  0  0  0  0  0  0  0  0  0
 17 18  2  0
 18 16  1  0
 18 19  1  0
 16  1  1  0
  1  2  1  0
  1 14  1  0
  2  3  2  0
  2  4  1  0
  4 21  1  6
  4  5  1  0
 21 22  1  0
 22 23  2  0
 22 27  1  0
 23 24  1  0
 24 25  2  0
 25 26  1  0
 26 27  2  0
  5  6  1  0
  6  7  1  0
  6 13  1  0
  6 14  1  0
  7  8  1  0
  8  9  1  0
  9 10  1  0
 10 11  1  0
 11 12  1  0
 12 13  1  0
 14 15  2  0
 19 20  1  0
M  CHG  1   5   1
M  END
>  <minimizedAffinity>  (897) 
-8.97000

$$$$
data/reference_output_2/data/smiles/170036.pdb
     RDKit          3D

 24 26  0  0  0  0  0  0  0  0999 V2000
   69.6654   44.3244   57.1230 C   0  0  0  0  0  0  0  0  0  0  0  0
   70.4389   45.5306   57.8856 S   0  0  0  0  0  0  0  0  0  0  0  0
   69.5600   42.0733   58.1877 C   0  0  0  0  0  0  0  0  0  0  0  0
   68.5868   42.5244   58.8700 O   0  0  0  0  0  0  0  0  0  0  0  0
   70.1328   42.9924   57.2776 N   0  0  0  0  0  0  0  0  0  0  0  0
   71.3588   36.6536   58.9851 C   0  0  0  0  0  0  0  0  0  0  0  0
   70.9102   38.0558   58.7780 C   0  0  0  0  0  0  0  0  0  0  0  0
   69.5576   38.3430   58.7775 C   0  0  0  0  0  0  0  0  0  0  0  0
   69.1177   39.6579   58.5852 C   0  0  0  0  0  0  0  0  0  0  0  0
   69.9893   40.7027   58.3913 C   0  0  0  0  0  0  0  0  0  0  0  0
   71.3320   40.3964   58.3951 C   0  0  0  0  0  0  0  0  0  0  0  0
   71.7884   39.0964   58.5847 C   0  0  0  0  0  0  0  0  0  0  0  0
   68.5369   44.5479   56.3034 N   0  0  0  0  0  0  0  0  0  0  0  0
   68.1171   45.7940   55.8277 N   0  0  0  0  0  0  0  0  0  0  0  0
   68.2140   46.0854   54.4430 C   0  0  0  0  0  0  0  0  0  0  0  0
   67.6528   45.2382   53.5386 N   0  0  0  0  0  0  0  0  0  0  0  0
   67.7088   45.4597   52.2291 C   0  0  0  0  0  0  0  0  0  0  0  0
   68.3314   46.5478   51.7323 N   0  0  0  0  0  0  0  0  0  0  0  0
   68.9238   47.4553   52.5610 C   0  0  0  0  0  0  0  0  0  0  0  0
   69.5520   48.5635   52.0522 C   0  0  0  0  0  0  0  0  0  0  0  0
   70.1390   49.4728   52.8954 C   0  0  0  0  0  0  0  0  0  0  0  0
   70.0661   49.2183   54.2466 C   0  0  0  0  0  0  0  0  0  0  0  0
   69.4317   48.0992   54.7614 C   0  0  0  0  0  0  0  0  0  0  0  0
   68.8445   47.1895   53.9137 C   0  0  0  0  0  0  0  0  0  0  0  0
  6  7  1  0
  7  8  2  0
  7 12  1  0
  8  9  1  0
  9 10  2  0
 10  3  1  0
 10 11  1  0
  3  4  2  0
  3  5  1  0
  5  1  1  0
  1  2  2  0
  1 13  1  0
 13 14  1  0
 14 15  1  0
 15 16  2  0
 15 24  1  0
 16 17  1  0
 17 18  2  0
 18 19  1  0
 19 20  1  0
 19 24  2  0
 20 21  2  0
 21 22  1  0
 22 23  2  0
 23 24  1  0
 11 12  2  0
M  END
>  <minimizedAffinity>  (898) 
-8.53628

$$$$
data/reference_output_2/data/smiles/170105.pdb
     RDKit          3D

 25 26  0  0  0  0  0  0  0  0999 V2000
   67.5889   43.3464   56.1441 N   0  0  0  0  0  0  0  0  0  0  0  0
   68.3574   45.9879   56.3042 O   0  0  0  0  0  0  0  0  0  0  0  0
   68.2451   45.5075   55.1502 C   0  0  0  0  0  0  0  0  0  0  0  0
   67.8500   44.1463   55.0490 N   0  0  0  0  0  0  0  0  0  0  0  0
   68.4993   46.2770   53.9475 C   0  0  0  0  0  0  0  0  0  0  0  0
   68.0893   45.9309   52.6820 C   0  0  0  0  0  0  0  0  0  0  0  0
   68.3810   46.7387   51.5744 C   0  0  0  0  0  0  0  0  0  0  0  0
   69.0927   47.9087   51.7303 C   0  0  0  0  0  0  0  0  0  0  0  0
   69.5212   48.2847   53.0064 C   0  0  0  0  0  0  0  0  0  0  0  0
   69.2199   47.4741   54.0665 C   0  0  0  0  0  0  0  0  0  0  0  0
   70.2574   49.4873   53.2000 N   0  0  0  0  0  0  0  0  0  0  0  0
   69.6949   50.5994   53.3001 O   0  0  0  0  0  0  0  0  0  0  0  0
   71.6269   49.4069   53.2774 O   0  0  0  0  0  0  0  0  0  0  0  0
   68.3545   42.4748   56.8812 C   0  0  0  0  0  0  0  0  0  0  0  0
   67.4782   41.2287   57.6360 S   0  0  0  0  0  0  0  0  0  0  0  0
   69.7329   42.3747   57.1220 N   0  0  0  0  0  0  0  0  0  0  0  0
   70.5484   43.2801   57.8074 C   0  0  0  0  0  0  0  0  0  0  0  0
   70.0208   44.3104   58.2795 O   0  0  0  0  0  0  0  0  0  0  0  0
   71.9939   43.1009   58.0103 C   0  0  0  0  0  0  0  0  0  0  0  0
   72.9054   44.1059   57.8401 C   0  0  0  0  0  0  0  0  0  0  0  0
   74.2681   43.9093   58.0379 C   0  0  0  0  0  0  0  0  0  0  0  0
   74.7394   42.6764   58.4159 C   0  0  0  0  0  0  0  0  0  0  0  0
   76.6269   42.4139   58.6883 Br  0  0  0  0  0  0  0  0  0  0  0  0
   73.8372   41.6586   58.5903 C   0  0  0  0  0  0  0  0  0  0  0  0
   72.4768   41.8702   58.3883 C   0  0  0  0  0  0  0  0  0  0  0  0
  2  3  2  0
  3  4  1  0
  3  5  1  0
  4  1  1  0
  1 14  1  0
 14 15  2  0
 14 16  1  0
 16 17  1  0
 17 18  2  0
 17 19  1  0
 19 20  2  0
 19 25  1  0
 20 21  1  0
 21 22  2  0
 22 23  1  0
 22 24  1  0
 24 25  2  0
  5  6  2  0
  5 10  1  0
  6  7  1  0
  7  8  2  0
  8  9  1  0
  9 11  1  0
  9 10  2  0
 11 12  2  0
 11 13  1  0
M  CHG  2  11   1  13  -1
M  END
>  <minimizedAffinity>  (899) 
-8.81899

$$$$
data/reference_output_2/data/smiles/170210.pdb
     RDKit          3D

 20 23  0  0  0  0  0  0  0  0999 V2000
   68.6138   50.6424   53.8060 O   0  0  0  0  0  0  0  0  0  0  0  0
   69.8685   50.6979   53.9936 C   0  0  0  0  0  0  0  0  0  0  0  0
   70.3992   51.7310   54.7229 C   0  0  0  0  0  0  0  0  0  0  0  0
   69.6290   52.7360   55.2759 C   0  0  0  0  0  0  0  0  0  0  0  0
   70.2452   53.7478   56.0024 C   0  0  0  0  0  0  0  0  0  0  0  0
   71.6101   53.7951   56.1979 C   0  0  0  0  0  0  0  0  0  0  0  0
   72.3620   52.7786   55.6347 C   0  0  0  0  0  0  0  0  0  0  0  0
   71.7677   51.7541   54.9027 C   0  0  0  0  0  0  0  0  0  0  0  0
   72.4792   50.7595   54.3490 N   0  0  0  0  0  0  0  0  0  0  0  0
   71.9211   49.7814   53.6519 N   0  0  0  0  0  0  0  0  0  0  0  0
   70.6044   49.7118   53.4476 N   0  0  0  0  0  0  0  0  0  0  0  0
   70.0330   48.6474   52.6932 C   0  0  0  0  0  0  0  0  0  0  0  0
   70.1409   48.4085   51.3579 N   0  0  0  0  0  0  0  0  0  0  0  0
   69.4720   47.3267   51.0312 N   0  0  0  0  0  0  0  0  0  0  0  0
   68.8833   46.7857   52.1201 C   0  0  0  0  0  0  0  0  0  0  0  0
   68.0887   45.6703   52.2945 C   0  0  0  0  0  0  0  0  0  0  0  0
   67.6164   45.3498   53.5499 C   0  0  0  0  0  0  0  0  0  0  0  0
   67.9580   46.1676   54.6079 C   0  0  0  0  0  0  0  0  0  0  0  0
   68.7572   47.2851   54.4181 C   0  0  0  0  0  0  0  0  0  0  0  0
   69.2377   47.6181   53.1627 C   0  0  0  0  0  0  0  0  0  0  0  0
  1  2  2  0
  2  3  1  0
  2 11  1  0
  3  4  2  0
  3  8  1  0
  4  5  1  0
  5  6  2  0
  6  7  1  0
  7  8  2  0
  8  9  1  0
  9 10  2  0
 10 11  1  0
 11 12  1  0
 12 13  2  0
 12 20  1  0
 13 14  1  0
 14 15  1  0
 15 16  1  0
 15 20  2  0
 16 17  2  0
 17 18  1  0
 18 19  2  0
 19 20  1  0
M  END
>  <minimizedAffinity>  (900) 
-8.57596

$$$$
data/reference_output_2/data/smiles/170243.pdb
     RDKit          3D

 23 25  0  0  0  0  0  0  0  0999 V2000
   70.2137   44.3583   57.7074 C   0  0  0  0  0  0  0  0  0  0  0  0
   71.0451   45.2777   58.3026 C   0  0  0  0  0  0  0  0  0  0  0  0
   70.6414   46.5304   57.8988 C   0  0  0  0  0  0  0  0  0  0  0  0
   69.5574   46.3297   57.0547 C   0  0  0  0  0  0  0  0  0  0  0  0
   69.3651   45.0382   56.9892 O   0  0  0  0  0  0  0  0  0  0  0  0
   70.2535   42.9260   57.8397 C   0  0  0  0  0  0  0  0  0  0  0  0
   71.2287   42.2988   57.3528 O   0  0  0  0  0  0  0  0  0  0  0  0
   69.2016   42.1282   58.5199 C   0  0  0  0  0  0  0  0  0  0  0  0
   69.2670   39.7807   57.9687 O   0  0  0  0  0  0  0  0  0  0  0  0
   68.8446   40.9244   57.7433 C   0  0  0  0  0  0  0  0  0  0  0  0
   67.9062   41.0898   56.6064 C   0  0  0  0  0  0  0  0  0  0  0  0
   67.0994   42.1584   56.4116 N   0  0  0  0  0  0  0  0  0  0  0  0
   66.4006   41.9417   55.2896 C   0  0  0  0  0  0  0  0  0  0  0  0
   66.7754   40.7514   54.8013 N   0  0  0  0  0  0  0  0  0  0  0  0
   67.6840   40.2477   55.6046 N   0  0  0  0  0  0  0  0  0  0  0  0
   68.7705   47.3556   56.3652 C   0  0  0  0  0  0  0  0  0  0  0  0
   68.6900   47.1720   54.9074 C   0  0  0  0  0  0  0  0  0  0  0  0
   67.9409   46.1055   54.4104 C   0  0  0  0  0  0  0  0  0  0  0  0
   67.7645   45.8345   53.0894 C   0  0  0  0  0  0  0  0  0  0  0  0
   68.3762   46.6848   52.1703 C   0  0  0  0  0  0  0  0  0  0  0  0
   68.2242   46.4497   50.8359 F   0  0  0  0  0  0  0  0  0  0  0  0
   69.1242   47.7483   52.6274 C   0  0  0  0  0  0  0  0  0  0  0  0
   69.2780   47.9869   53.9778 C   0  0  0  0  0  0  0  0  0  0  0  0
  9 10  2  0
 10  8  1  0
 10 11  1  0
  8  6  1  0
  6  7  2  0
  6  1  1  0
  1  2  2  0
  1  5  1  0
  2  3  1  0
  3  4  2  0
  4 16  1  0
  4  5  1  0
 16 17  1  0
 17 18  2  0
 17 23  1  0
 18 19  1  0
 19 20  2  0
 20 21  1  0
 20 22  1  0
 22 23  2  0
 11 12  1  0
 11 15  2  0
 12 13  2  0
 13 14  1  0
 14 15  1  0
M  END
>  <minimizedAffinity>  (901) 
-8.99674

$$$$
data/reference_output_2/data/smiles/170261.pdb
     RDKit          3D

 25 27  0  0  0  0  0  0  0  0999 V2000
   68.0926   43.7312   55.7695 C   0  0  0  0  0  0  0  0  0  0  0  0
   68.9486   43.1312   56.6471 C   0  0  0  0  0  0  0  0  0  0  0  0
   68.7136   41.8855   57.2348 C   0  0  0  0  0  0  0  0  0  0  0  0
   67.5925   41.2341   56.9309 N   0  0  0  0  0  0  0  0  0  0  0  0
   66.7300   41.8025   56.0688 C   0  0  0  0  0  0  0  0  0  0  0  0
   66.9627   42.9975   55.5081 N   0  0  0  0  0  0  0  0  0  0  0  0
   68.7738   46.1164   55.7687 C   0  0  0  0  0  0  0  0  0  0  0  0
   68.9201   47.3150   55.0651 C   0  0  0  0  0  0  0  0  0  0  0  0
   68.5695   47.3849   53.7403 C   0  0  0  0  0  0  0  0  0  0  0  0
   68.0752   46.2692   53.1147 C   0  0  0  0  0  0  0  0  0  0  0  0
   67.7357   46.3710   51.7981 F   0  0  0  0  0  0  0  0  0  0  0  0
   67.9230   45.0847   53.7800 C   0  0  0  0  0  0  0  0  0  0  0  0
   68.2817   45.0210   55.1273 C   0  0  0  0  0  0  0  0  0  0  0  0
   70.0192   46.9984   57.6958 C   0  0  0  0  0  0  0  0  0  0  0  0
   69.1400   46.1222   57.0719 O   0  0  0  0  0  0  0  0  0  0  0  0
   69.6754   41.3301   58.1515 N   0  0  0  0  0  0  0  0  0  0  0  0
   69.7595   39.9537   58.3944 C   0  0  0  0  0  0  0  0  0  0  0  0
   68.9915   39.1447   57.8165 O   0  0  0  0  0  0  0  0  0  0  0  0
   70.7577   39.3985   59.3440 C   0  0  0  0  0  0  0  0  0  0  0  0
   71.1505   38.0333   58.9859 C   0  0  0  0  0  0  0  0  0  0  0  0
   72.0670   37.8433   57.9562 C   0  0  0  0  0  0  0  0  0  0  0  0
   72.4556   36.5677   57.5966 C   0  0  0  0  0  0  0  0  0  0  0  0
   71.9057   35.5056   58.2896 C   0  0  0  0  0  0  0  0  0  0  0  0
   71.0257   35.6840   59.2771 N   0  0  0  0  0  0  0  0  0  0  0  0
   70.6307   36.9330   59.6448 C   0  0  0  0  0  0  0  0  0  0  0  0
 14 15  1  0
 15  7  1  0
  7  8  2  0
  7 13  1  0
  8  9  1  0
  9 10  2  0
 10 11  1  0
 10 12  1  0
 12 13  2  0
 13  1  1  0
  1  2  2  0
  1  6  1  0
  2  3  1  0
  3 16  1  0
  3  4  2  0
 16 17  1  0
 17 18  2  0
 17 19  1  0
 19 20  1  0
 20 21  2  0
 20 25  1  0
 21 22  1  0
 22 23  2  0
 23 24  1  0
 24 25  2  0
  4  5  1  0
  5  6  2  0
M  END
>  <minimizedAffinity>  (902) 
-8.66564

$$$$
data/reference_output_2/data/smiles/170301.pdb
     RDKit          3D

 28 32  0  0  0  0  0  0  0  0999 V2000
   73.6129   34.9156   55.4771 C   0  0  0  0  0  0  0  0  0  0  0  0
   73.5265   33.6352   55.9754 C   0  0  0  0  0  0  0  0  0  0  0  0
   72.8818   33.3958   57.1959 C   0  0  0  0  0  0  0  0  0  0  0  0
   72.3179   34.4146   57.9370 C   0  0  0  0  0  0  0  0  0  0  0  0
   71.6567   34.4831   59.1057 N   0  0  0  0  0  0  0  0  0  0  0  0
   71.3131   35.7770   59.3758 C   0  0  0  0  0  0  0  0  0  0  0  0
   71.7878   36.4806   58.3350 N   0  0  0  0  0  0  0  0  0  0  0  0
   72.4060   35.6961   57.4356 C   0  0  0  0  0  0  0  0  0  0  0  0
   73.0449   35.9255   56.2272 C   0  0  0  0  0  0  0  0  0  0  0  0
   71.6762   37.9115   58.1535 C   0  0  0  0  0  0  0  0  0  0  0  0
   70.3327   38.4379   58.6022 C   0  0  0  0  0  0  0  0  0  0  0  0
   70.2737   38.7013   60.0807 C   0  0  0  0  0  0  0  0  0  0  0  0
   70.0945   37.4938   60.8632 N   0  0  0  0  0  0  0  0  0  0  0  0
   70.5863   36.2011   60.5682 C   0  0  0  0  0  0  0  0  0  0  0  0
   70.3638   35.3365   61.4363 O   0  0  0  0  0  0  0  0  0  0  0  0
   73.9245   36.2004   53.5215 O   0  0  0  0  0  0  0  0  0  0  0  0
   74.2802   35.1979   54.2041 C   0  0  0  0  0  0  0  0  0  0  0  0
   75.3232   34.4081   53.6669 N   0  0  0  0  0  0  0  0  0  0  0  0
   75.9533   34.7153   52.4162 C   0  0  0  0  0  0  0  0  0  0  0  0
   76.9583   35.6582   52.3406 C   0  0  0  0  0  0  0  0  0  0  0  0
   77.5503   35.9463   51.1612 N   0  0  0  0  0  0  0  0  0  0  0  0
   77.2049   35.3426   50.0047 C   0  0  0  0  0  0  0  0  0  0  0  0
   77.8154   35.6449   48.8082 C   0  0  0  0  0  0  0  0  0  0  0  0
   77.4610   35.0275   47.6260 C   0  0  0  0  0  0  0  0  0  0  0  0
   76.4526   34.0633   47.6304 C   0  0  0  0  0  0  0  0  0  0  0  0
   75.8557   33.7786   48.8422 C   0  0  0  0  0  0  0  0  0  0  0  0
   76.2006   34.3866   50.0248 C   0  0  0  0  0  0  0  0  0  0  0  0
   75.5979   34.0970   51.2344 C   0  0  0  0  0  0  0  0  0  0  0  0
 16 17  2  0
 17 18  1  0
 17  1  1  0
 18 19  1  0
 19 20  2  0
 19 28  1  0
 20 21  1  0
 21 22  2  0
 22 23  1  0
 22 27  1  0
 23 24  2  0
 24 25  1  0
 25 26  2  0
 26 27  1  0
 27 28  2  0
  1  2  2  0
  1  9  1  0
  2  3  1  0
  3  4  2  0
  4  5  1  0
  4  8  1  0
  5  6  2  0
  6  7  1  0
  6 14  1  0
  7  8  1  0
  7 10  1  0
  8  9  2  0
 10 11  1  0
 11 12  1  0
 12 13  1  0
 13 14  1  0
 14 15  2  0
M  END
>  <minimizedAffinity>  (903) 
-8.65766

$$$$
data/reference_output_2/data/smiles/170322.pdb
     RDKit          3D

 29 32  0  0  0  0  0  0  0  0999 V2000
   71.4370   45.9729   58.2037 C   0  0  0  0  0  0  0  0  0  0  0  0
   72.7509   45.5635   58.2859 C   0  0  0  0  0  0  0  0  0  0  0  0
   73.1137   44.2341   58.3480 C   0  0  0  0  0  0  0  0  0  0  0  0
   72.1491   43.2465   58.3279 C   0  0  0  0  0  0  0  0  0  0  0  0
   70.8343   43.6548   58.2454 C   0  0  0  0  0  0  0  0  0  0  0  0
   70.4734   44.9855   58.1834 C   0  0  0  0  0  0  0  0  0  0  0  0
   69.8096   42.6055   58.2246 C   0  0  0  0  0  0  0  0  0  0  0  0
   68.5932   42.9547   58.1492 O   0  0  0  0  0  0  0  0  0  0  0  0
   70.1658   41.1954   58.2882 C   0  0  0  0  0  0  0  0  0  0  0  0
   69.1753   40.2387   58.2668 C   0  0  0  0  0  0  0  0  0  0  0  0
   69.4901   38.8891   58.3259 C   0  0  0  0  0  0  0  0  0  0  0  0
   70.8031   38.4997   58.4082 C   0  0  0  0  0  0  0  0  0  0  0  0
   71.8083   39.4611   58.4304 C   0  0  0  0  0  0  0  0  0  0  0  0
   71.4877   40.8082   58.3705 C   0  0  0  0  0  0  0  0  0  0  0  0
   72.5184   41.8286   58.3926 C   0  0  0  0  0  0  0  0  0  0  0  0
   73.7422   41.4891   58.4683 O   0  0  0  0  0  0  0  0  0  0  0  0
   71.0048   47.6781   58.1252 S   0  0  0  0  0  0  0  0  0  0  0  0
   72.0275   48.4344   57.3290 O   0  0  0  0  0  0  0  0  0  0  0  0
   71.0434   48.2798   59.5246 O   0  0  0  0  0  0  0  0  0  0  0  0
   69.4459   47.8855   57.4247 N   0  0  0  0  0  0  0  0  0  0  0  0
   68.5222   46.8789   53.4138 C   0  0  0  0  0  0  0  0  0  0  0  0
   69.0863   48.1025   53.7431 C   0  0  0  0  0  0  0  0  0  0  0  0
   69.3858   48.4268   55.0506 C   0  0  0  0  0  0  0  0  0  0  0  0
   69.1372   47.5468   56.0945 C   0  0  0  0  0  0  0  0  0  0  0  0
   68.5738   46.3289   55.7458 C   0  0  0  0  0  0  0  0  0  0  0  0
   68.2739   46.0032   54.4423 C   0  0  0  0  0  0  0  0  0  0  0  0
   68.9230   46.9883   51.1279 O   0  0  0  0  0  0  0  0  0  0  0  0
   68.2061   46.5365   52.0339 C   0  0  0  0  0  0  0  0  0  0  0  0
   67.1414   45.7303   51.6923 O   0  0  0  0  0  0  0  0  0  0  0  0
 27 28  2  0
 28 29  1  0
 28 21  1  0
 21 22  2  0
 21 26  1  0
 22 23  1  0
 23 24  2  0
 24 20  1  0
 24 25  1  0
 20 17  1  0
 17 18  2  0
 17 19  2  0
 17  1  1  0
  1  2  2  0
  1  6  1  0
  2  3  1  0
  3  4  2  0
  4  5  1  0
  4 15  1  0
  5  6  2  0
  5  7  1  0
  7  8  2  0
  7  9  1  0
  9 10  2  0
  9 14  1  0
 10 11  1  0
 11 12  2  0
 12 13  1  0
 13 14  2  0
 14 15  1  0
 15 16  2  0
 25 26  2  0
M  END
>  <minimizedAffinity>  (904) 
-8.63782

$$$$
data/reference_output_2/data/smiles/170402.pdb
     RDKit          3D

 28 31  0  0  0  0  0  0  0  0999 V2000
   70.3626   40.5232   58.1725 C   0  0  0  0  0  0  0  0  0  0  0  0
   71.3824   41.4487   58.1239 C   0  0  0  0  0  0  0  0  0  0  0  0
   71.1367   42.7673   57.7874 C   0  0  0  0  0  0  0  0  0  0  0  0
   69.8743   43.2294   57.4844 C   0  0  0  0  0  0  0  0  0  0  0  0
   68.8513   42.3137   57.5296 C   0  0  0  0  0  0  0  0  0  0  0  0
   69.1025   40.9893   57.8688 C   0  0  0  0  0  0  0  0  0  0  0  0
   72.1128   35.9430   58.2459 C   0  0  0  0  0  0  0  0  0  0  0  0
   71.9044   34.7894   58.9924 C   0  0  0  0  0  0  0  0  0  0  0  0
   70.9722   34.8357   60.0302 C   0  0  0  0  0  0  0  0  0  0  0  0
   70.2997   36.0089   60.2709 C   0  0  0  0  0  0  0  0  0  0  0  0
   70.5233   37.1441   59.5126 C   0  0  0  0  0  0  0  0  0  0  0  0
   70.0227   38.4331   59.5018 C   0  0  0  0  0  0  0  0  0  0  0  0
   70.5998   39.1548   58.5235 N   0  0  0  0  0  0  0  0  0  0  0  0
   71.4392   38.3598   57.9292 N   0  0  0  0  0  0  0  0  0  0  0  0
   71.4461   37.1248   58.4761 C   0  0  0  0  0  0  0  0  0  0  0  0
   72.6810   35.8878   55.8045 N   0  0  0  0  0  0  0  0  0  0  0  0
   73.0835   35.8962   57.1650 C   0  0  0  0  0  0  0  0  0  0  0  0
   74.3162   35.8618   57.4444 O   0  0  0  0  0  0  0  0  0  0  0  0
   69.6898   44.6507   57.1350 C   0  0  0  0  0  0  0  0  0  0  0  0
   70.3754   45.5383   57.7450 O   0  0  0  0  0  0  0  0  0  0  0  0
   68.7973   45.0996   56.1643 N   0  0  0  0  0  0  0  0  0  0  0  0
   68.5683   46.4719   55.7712 C   0  0  0  0  0  0  0  0  0  0  0  0
   68.4769   46.5182   54.3012 C   0  0  0  0  0  0  0  0  0  0  0  0
   67.7162   45.5833   53.6171 C   0  0  0  0  0  0  0  0  0  0  0  0
   67.5935   45.5857   52.2446 C   0  0  0  0  0  0  0  0  0  0  0  0
   68.2378   46.5373   51.5223 N   0  0  0  0  0  0  0  0  0  0  0  0
   68.9820   47.4612   52.1330 C   0  0  0  0  0  0  0  0  0  0  0  0
   69.1080   47.4594   53.5265 C   0  0  0  0  0  0  0  0  0  0  0  0
 16 17  1  0
 17 18  2  0
 17  7  1  0
  7  8  2  0
  7 15  1  0
  8  9  1  0
  9 10  2  0
 10 11  1  0
 11 12  2  0
 11 15  1  0
 12 13  1  0
 13  1  1  0
 13 14  1  0
  1  2  2  0
  1  6  1  0
  2  3  1  0
  3  4  2  0
  4 19  1  0
  4  5  1  0
 19 20  2  0
 19 21  1  0
 21 22  1  0
 22 23  1  0
 23 24  2  0
 23 28  1  0
 24 25  1  0
 25 26  2  0
 26 27  1  0
 27 28  2  0
  5  6  2  0
 14 15  2  0
M  END
>  <minimizedAffinity>  (905) 
-9.25375

$$$$
data/reference_output_2/data/smiles/170611.pdb
     RDKit          3D

 20 22  0  0  0  0  0  0  0  0999 V2000
   68.4021   45.4563   56.3138 N   0  0  0  0  0  0  0  0  0  0  0  0
   68.4424   46.0006   54.9818 C   0  0  0  0  0  0  0  0  0  0  0  0
   69.1140   47.1270   54.7597 N   0  0  0  0  0  0  0  0  0  0  0  0
   69.1925   47.6961   53.5406 C   0  0  0  0  0  0  0  0  0  0  0  0
   69.7981   48.8300   53.0767 C   0  0  0  0  0  0  0  0  0  0  0  0
   69.4878   48.8668   51.7029 C   0  0  0  0  0  0  0  0  0  0  0  0
   68.7403   47.8016   51.3966 N   0  0  0  0  0  0  0  0  0  0  0  0
   68.5304   47.0468   52.4958 C   0  0  0  0  0  0  0  0  0  0  0  0
   67.8292   45.8754   52.7216 C   0  0  0  0  0  0  0  0  0  0  0  0
   67.2455   45.3175   51.7537 O   0  0  0  0  0  0  0  0  0  0  0  0
   67.8090   45.3860   53.9698 N   0  0  0  0  0  0  0  0  0  0  0  0
   70.6266   49.7864   53.7992 C   0  0  0  0  0  0  0  0  0  0  0  0
   71.8856   49.7280   53.6371 O   0  0  0  0  0  0  0  0  0  0  0  0
   69.9956   50.7591   54.6629 C   0  0  0  0  0  0  0  0  0  0  0  0
   70.4458   52.0565   54.6368 C   0  0  0  0  0  0  0  0  0  0  0  0
   69.8545   53.0085   55.4814 C   0  0  0  0  0  0  0  0  0  0  0  0
   68.8332   52.6247   56.3247 C   0  0  0  0  0  0  0  0  0  0  0  0
   68.3701   51.3111   56.3590 C   0  0  0  0  0  0  0  0  0  0  0  0
   67.0709   50.8612   57.4425 Cl  0  0  0  0  0  0  0  0  0  0  0  0
   68.9872   50.4018   55.5007 C   0  0  0  0  0  0  0  0  0  0  0  0
  1  2  1  0
  2  3  2  0
  2 11  1  0
  3  4  1  0
  4  5  1  0
  4  8  2  0
  5 12  1  0
  5  6  2  0
 12 13  2  0
 12 14  1  0
 14 15  2  0
 14 20  1  0
 15 16  1  0
 16 17  2  0
 17 18  1  0
 18 19  1  0
 18 20  2  0
  6  7  1  0
  7  8  1  0
  8  9  1  0
  9 10  2  0
  9 11  1  0
M  END
>  <minimizedAffinity>  (906) 
-8.54960

$$$$
data/reference_output_2/data/smiles/170732.pdb
     RDKit          3D

 25 27  0  0  0  0  0  0  0  0999 V2000
   69.1303   43.8784   56.9679 N   0  0  0  0  0  0  0  0  0  0  0  0
   68.4732   42.6444   56.7566 C   0  0  0  0  0  0  0  0  0  0  0  0
   67.4799   42.6517   55.9967 O   0  0  0  0  0  0  0  0  0  0  0  0
   68.8924   41.3896   57.3717 C   0  0  0  0  0  0  0  0  0  0  0  0
   67.9935   40.3570   57.5384 C   0  0  0  0  0  0  0  0  0  0  0  0
   68.3664   39.1491   58.1221 C   0  0  0  0  0  0  0  0  0  0  0  0
   69.6632   38.9616   58.5498 C   0  0  0  0  0  0  0  0  0  0  0  0
   70.0772   37.7736   59.1363 C   0  0  0  0  0  0  0  0  0  0  0  0
   71.3762   37.5883   59.5644 C   0  0  0  0  0  0  0  0  0  0  0  0
   72.2519   38.6462   59.3805 C   0  0  0  0  0  0  0  0  0  0  0  0
   71.8413   39.8184   58.8012 C   0  0  0  0  0  0  0  0  0  0  0  0
   70.5439   40.0086   58.3715 C   0  0  0  0  0  0  0  0  0  0  0  0
   70.1463   41.1727   57.7991 N   0  0  0  0  0  0  0  0  0  0  0  0
   69.3610   46.3163   56.5873 C   0  0  0  0  0  0  0  0  0  0  0  0
   70.3535   46.3436   57.3543 O   0  0  0  0  0  0  0  0  0  0  0  0
   68.7316   45.0827   56.3806 N   0  0  0  0  0  0  0  0  0  0  0  0
   67.5883   48.0206   56.5336 C   0  0  0  0  0  0  0  0  0  0  0  0
   68.8920   47.5874   55.9298 C   0  0  0  0  0  0  0  0  0  0  0  0
   69.9315   48.6319   56.2355 C   0  0  0  0  0  0  0  0  0  0  0  0
   68.8090   47.3636   54.4663 C   0  0  0  0  0  0  0  0  0  0  0  0
   69.5153   48.1265   53.5597 C   0  0  0  0  0  0  0  0  0  0  0  0
   69.4367   47.9164   52.1968 C   0  0  0  0  0  0  0  0  0  0  0  0
   68.6085   46.8918   51.7393 C   0  0  0  0  0  0  0  0  0  0  0  0
   67.8857   46.1050   52.6086 C   0  0  0  0  0  0  0  0  0  0  0  0
   68.0041   46.3605   53.9578 C   0  0  0  0  0  0  0  0  0  0  0  0
 17 18  1  0
 18 19  1  0
 18 14  1  0
 18 20  1  0
 14 15  2  0
 14 16  1  0
 16  1  1  0
  1  2  1  0
  2  3  2  0
  2  4  1  0
  4  5  2  0
  4 13  1  0
  5  6  1  0
  6  7  2  0
  7  8  1  0
  7 12  1  0
  8  9  2  0
  9 10  1  0
 10 11  2  0
 11 12  1  0
 12 13  2  0
 20 21  2  0
 20 25  1  0
 21 22  1  0
 22 23  2  0
 23 24  1  0
 24 25  2  0
M  END
>  <minimizedAffinity>  (907) 
-8.72963

$$$$
data/reference_output_2/data/smiles/170868.pdb
     RDKit          3D

 30 33  0  0  0  0  0  0  0  0999 V2000
   72.5834   45.0344   58.1938 O   0  0  0  0  0  0  0  0  0  0  0  0
   71.3463   44.6021   58.0633 C   0  0  0  0  0  0  0  0  0  0  0  0
   71.2320   43.2303   57.8397 N   0  0  0  0  0  0  0  0  0  0  0  0
   70.0753   42.3937   57.7261 C   0  0  0  0  0  0  0  0  0  0  0  0
   70.0770   41.4393   58.9231 C   0  0  0  0  0  0  0  0  0  0  0  0
   71.3040   40.6752   58.8646 N   0  0  0  0  0  0  0  0  0  0  0  0
   72.5394   41.4416   58.8050 C   0  0  0  0  0  0  0  0  0  0  0  0
   72.4997   42.4347   57.6680 C   0  0  0  0  0  0  0  0  0  0  0  0
   71.2547   39.2702   58.8853 C   0  0  0  0  0  0  0  0  0  0  0  0
   70.2492   38.6076   59.5373 C   0  0  0  0  0  0  0  0  0  0  0  0
   70.1903   37.2067   59.5475 C   0  0  0  0  0  0  0  0  0  0  0  0
   71.1716   36.5095   58.8845 C   0  0  0  0  0  0  0  0  0  0  0  0
   71.1852   35.1433   58.8469 F   0  0  0  0  0  0  0  0  0  0  0  0
   72.1959   37.1406   58.2188 C   0  0  0  0  0  0  0  0  0  0  0  0
   72.2167   38.5420   58.2342 C   0  0  0  0  0  0  0  0  0  0  0  0
   70.3183   45.6549   58.1818 C   0  0  0  0  0  0  0  0  0  0  0  0
   69.5792   45.8135   56.9858 N   0  0  0  0  0  0  0  0  0  0  0  0
   68.9832   47.3940   56.6530 S   0  0  0  0  0  0  0  0  0  0  0  0
   69.6775   48.3903   57.5453 O   0  0  0  0  0  0  0  0  0  0  0  0
   67.5094   47.4961   57.0214 O   0  0  0  0  0  0  0  0  0  0  0  0
   69.2293   47.8905   55.0037 C   0  0  0  0  0  0  0  0  0  0  0  0
   69.9949   49.0426   54.7330 C   0  0  0  0  0  0  0  0  0  0  0  0
   70.2583   49.4204   53.4446 C   0  0  0  0  0  0  0  0  0  0  0  0
   69.7990   48.7082   52.3643 C   0  0  0  0  0  0  0  0  0  0  0  0
   69.0483   47.5823   52.6192 C   0  0  0  0  0  0  0  0  0  0  0  0
   68.5640   46.8652   51.5370 C   0  0  0  0  0  0  0  0  0  0  0  0
   67.8165   45.7772   51.7833 N   0  0  0  0  0  0  0  0  0  0  0  0
   67.5260   45.3640   53.0158 C   0  0  0  0  0  0  0  0  0  0  0  0
   67.9986   46.0638   54.0960 C   0  0  0  0  0  0  0  0  0  0  0  0
   68.7770   47.1946   53.9348 C   0  0  0  0  0  0  0  0  0  0  0  0
  1  2  2  0
  2 16  1  0
  2  3  1  0
 16 17  1  0
 17 18  1  0
 18 19  2  0
 18 20  2  0
 18 21  1  0
 21 22  2  0
 21 30  1  0
 22 23  1  0
 23 24  2  0
 24 25  1  0
 25 26  1  0
 25 30  2  0
 26 27  2  0
 27 28  1  0
 28 29  2  0
 29 30  1  0
  3  4  1  0
  3  8  1  0
  4  5  1  0
  5  6  1  0
  6  9  1  0
  6  7  1  0
  9 10  2  0
  9 15  1  0
 10 11  1  0
 11 12  2  0
 12 13  1  0
 12 14  1  0
 14 15  2  0
  7  8  1  0
M  END
>  <minimizedAffinity>  (908) 
-9.43675

$$$$
data/reference_output_2/data/smiles/170977.pdb
     RDKit          3D

 25 26  0  0  0  0  0  0  0  0999 V2000
   73.6052   52.8129   55.2034 C   0  0  0  0  0  0  0  0  0  0  0  0
   72.9199   51.5146   55.1422 C   0  0  0  0  0  0  0  0  0  0  0  0
   72.4319   51.1015   54.0352 N   0  0  0  0  0  0  0  0  0  0  0  0
   71.7614   49.8399   53.9557 N   0  0  0  0  0  0  0  0  0  0  0  0
   70.5245   49.7307   53.2930 C   0  0  0  0  0  0  0  0  0  0  0  0
   70.0716   50.8252   52.7868 O   0  0  0  0  0  0  0  0  0  0  0  0
   69.7653   48.5133   53.1525 C   0  0  0  0  0  0  0  0  0  0  0  0
   69.0180   48.0979   54.2614 C   0  0  0  0  0  0  0  0  0  0  0  0
   68.2518   46.9579   54.2614 C   0  0  0  0  0  0  0  0  0  0  0  0
   68.2003   46.1667   53.1261 C   0  0  0  0  0  0  0  0  0  0  0  0
   67.4403   45.0021   53.0737 O   0  0  0  0  0  0  0  0  0  0  0  0
   68.9237   46.5436   52.0161 C   0  0  0  0  0  0  0  0  0  0  0  0
   69.6957   47.7147   52.0495 C   0  0  0  0  0  0  0  0  0  0  0  0
   70.3958   48.0392   50.9114 O   0  0  0  0  0  0  0  0  0  0  0  0
   72.7940   50.6889   56.3524 C   0  0  0  0  0  0  0  0  0  0  0  0
   74.1082   49.9469   56.5042 C   0  0  0  0  0  0  0  0  0  0  0  0
   74.1461   48.7378   56.7316 O   0  0  0  0  0  0  0  0  0  0  0  0
   75.3419   50.6247   56.3875 N   0  0  0  0  0  0  0  0  0  0  0  0
   76.6328   50.0987   56.4982 C   0  0  0  0  0  0  0  0  0  0  0  0
   77.2221   49.5726   55.3365 C   0  0  0  0  0  0  0  0  0  0  0  0
   78.4890   49.0275   55.3247 C   0  0  0  0  0  0  0  0  0  0  0  0
   79.2428   48.9772   56.4753 C   0  0  0  0  0  0  0  0  0  0  0  0
   78.6993   49.4830   57.6321 C   0  0  0  0  0  0  0  0  0  0  0  0
   79.7168   49.4291   59.2442 Br  0  0  0  0  0  0  0  0  0  0  0  0
   77.4182   50.0254   57.6065 C   0  0  0  0  0  0  0  0  0  0  0  0
  1  2  1  0
  2 15  1  0
  2  3  2  0
 15 16  1  0
 16 17  2  0
 16 18  1  0
 18 19  1  0
 19 20  2  0
 19 25  1  0
 20 21  1  0
 21 22  2  0
 22 23  1  0
 23 24  1  0
 23 25  2  0
  3  4  1  0
  4  5  1  0
  5  6  2  0
  5  7  1  0
  7  8  2  0
  7 13  1  0
  8  9  1  0
  9 10  2  0
 10 11  1  0
 10 12  1  0
 12 13  2  0
 13 14  1  0
M  END
>  <minimizedAffinity>  (909) 
-8.63776

$$$$
data/reference_output_2/data/smiles/170996.pdb
     RDKit          3D

 23 25  0  0  0  0  0  0  0  0999 V2000
   68.3821   41.9661   57.3385 C   0  0  0  0  0  0  0  0  0  0  0  0
   67.6356   42.3038   56.2244 C   0  0  0  0  0  0  0  0  0  0  0  0
   67.9557   43.5745   55.7817 C   0  0  0  0  0  0  0  0  0  0  0  0
   68.9182   43.9842   56.6702 N   0  0  0  0  0  0  0  0  0  0  0  0
   69.1499   43.0401   57.5623 N   0  0  0  0  0  0  0  0  0  0  0  0
   68.2093   37.1008   60.3234 N   0  0  0  0  0  0  0  0  0  0  0  0
   68.2478   38.3186   59.5796 C   0  0  0  0  0  0  0  0  0  0  0  0
   69.3788   38.6685   58.8676 C   0  0  0  0  0  0  0  0  0  0  0  0
   69.4217   39.8577   58.1382 C   0  0  0  0  0  0  0  0  0  0  0  0
   68.3488   40.7218   58.0985 C   0  0  0  0  0  0  0  0  0  0  0  0
   67.2264   40.3612   58.8130 C   0  0  0  0  0  0  0  0  0  0  0  0
   67.1773   39.1866   59.5362 C   0  0  0  0  0  0  0  0  0  0  0  0
   67.4503   44.3296   54.6913 N   0  0  0  0  0  0  0  0  0  0  0  0
   68.0197   45.5118   54.2086 C   0  0  0  0  0  0  0  0  0  0  0  0
   68.1720   45.7618   52.8712 C   0  0  0  0  0  0  0  0  0  0  0  0
   68.7712   46.9402   52.4117 C   0  0  0  0  0  0  0  0  0  0  0  0
   69.2190   47.8733   53.3128 C   0  0  0  0  0  0  0  0  0  0  0  0
   69.0678   47.6255   54.6760 C   0  0  0  0  0  0  0  0  0  0  0  0
   68.4713   46.4511   55.1072 C   0  0  0  0  0  0  0  0  0  0  0  0
   69.9819   49.3680   52.7808 S   0  0  0  0  0  0  0  0  0  0  0  0
   69.8352   49.5402   51.0724 N   0  0  0  0  0  0  0  0  0  0  0  0
   71.4267   49.4012   53.1775 O   0  0  0  0  0  0  0  0  0  0  0  0
   69.3006   50.5386   53.4275 O   0  0  0  0  0  0  0  0  0  0  0  0
  6  7  1  0
  7  8  2  0
  7 12  1  0
  8  9  1  0
  9 10  2  0
 10  1  1  0
 10 11  1  0
  1  2  1  0
  1  5  2  0
  2  3  2  0
  3 13  1  0
  3  4  1  0
 13 14  1  0
 14 15  2  0
 14 19  1  0
 15 16  1  0
 16 17  2  0
 17 20  1  0
 17 18  1  0
 20 21  1  0
 20 22  2  0
 20 23  2  0
 18 19  2  0
  4  5  1  0
 11 12  2  0
M  END
>  <minimizedAffinity>  (910) 
-8.87552

$$$$
data/reference_output_2/data/smiles/171293.pdb
     RDKit          3D

 25 27  0  0  0  0  0  0  0  0999 V2000
   69.3782   47.9630   56.3678 C   0  0  0  0  0  0  0  0  0  0  0  0
   69.0174   47.5358   55.0321 C   0  0  0  0  0  0  0  0  0  0  0  0
   68.2013   46.4131   54.8441 C   0  0  0  0  0  0  0  0  0  0  0  0
   67.8804   45.9655   53.5817 C   0  0  0  0  0  0  0  0  0  0  0  0
   68.3477   46.6041   52.4585 C   0  0  0  0  0  0  0  0  0  0  0  0
   69.1486   47.7062   52.6594 C   0  0  0  0  0  0  0  0  0  0  0  0
   69.4921   48.1836   53.8918 C   0  0  0  0  0  0  0  0  0  0  0  0
   68.5077   49.1209   56.7221 C   0  0  0  0  0  0  0  0  0  0  0  0
   68.7546   50.3860   56.2391 C   0  0  0  0  0  0  0  0  0  0  0  0
   67.8927   51.4050   56.6238 C   0  0  0  0  0  0  0  0  0  0  0  0
   66.8137   51.2107   57.4567 C   0  0  0  0  0  0  0  0  0  0  0  0
   66.5801   49.9354   57.9324 C   0  0  0  0  0  0  0  0  0  0  0  0
   67.4379   48.9029   57.5541 C   0  0  0  0  0  0  0  0  0  0  0  0
   69.5692   46.9873   57.4472 C   0  0  0  0  0  0  0  0  0  0  0  0
   70.7228   44.8741   58.1906 C   0  0  0  0  0  0  0  0  0  0  0  0
   69.8608   44.7316   59.1263 O   0  0  0  0  0  0  0  0  0  0  0  0
   70.5630   45.9847   57.3610 N   0  0  0  0  0  0  0  0  0  0  0  0
   73.9211   45.1403   58.5716 C   0  0  0  0  0  0  0  0  0  0  0  0
   73.1188   43.9522   58.2257 C   0  0  0  0  0  0  0  0  0  0  0  0
   71.7623   43.8869   58.0835 C   0  0  0  0  0  0  0  0  0  0  0  0
   71.5177   42.5291   57.7623 C   0  0  0  0  0  0  0  0  0  0  0  0
   70.3862   42.0141   57.5433 O   0  0  0  0  0  0  0  0  0  0  0  0
   72.6536   41.8599   57.7220 N   0  0  0  0  0  0  0  0  0  0  0  0
   73.6090   42.6997   57.9959 N   0  0  0  0  0  0  0  0  0  0  0  0
   75.0347   42.4036   58.0624 C   0  0  0  0  0  0  0  0  0  0  0  0
 18 19  1  0
 19 20  2  0
 19 24  1  0
 20 15  1  0
 20 21  1  0
 15 16  2  0
 15 17  1  0
 17 14  1  0
 14  1  1  0
  1  2  1  0
  1  8  1  0
  2  3  2  0
  2  7  1  0
  3  4  1  0
  4  5  2  0
  5  6  1  0
  6  7  2  0
  8  9  2  0
  8 13  1  0
  9 10  1  0
 10 11  2  0
 11 12  1  0
 12 13  2  0
 21 22  2  0
 21 23  1  0
 23 24  1  0
 24 25  1  0
M  END
>  <minimizedAffinity>  (911) 
-8.52032

$$$$
data/reference_output_2/data/smiles/171352.pdb
     RDKit          3D

 29 32  0  0  0  0  0  0  0  0999 V2000
   71.0977   50.2947   54.8637 S   0  0  0  0  0  0  0  0  0  0  0  0
   70.8580   51.7300   54.4592 O   0  0  0  0  0  0  0  0  0  0  0  0
   72.5808   50.0771   54.7895 O   0  0  0  0  0  0  0  0  0  0  0  0
   66.8030   45.0461   50.8402 O   0  0  0  0  0  0  0  0  0  0  0  0
   67.3743   45.7717   51.6914 C   0  0  0  0  0  0  0  0  0  0  0  0
   67.1582   45.6393   53.0107 N   0  0  0  0  0  0  0  0  0  0  0  0
   67.8216   46.4682   53.8350 C   0  0  0  0  0  0  0  0  0  0  0  0
   67.6416   46.3718   55.0771 O   0  0  0  0  0  0  0  0  0  0  0  0
   68.6961   47.4268   53.3982 C   0  0  0  0  0  0  0  0  0  0  0  0
   69.3823   48.2849   54.2595 C   0  0  0  0  0  0  0  0  0  0  0  0
   70.2532   49.2368   53.7897 C   0  0  0  0  0  0  0  0  0  0  0  0
   70.4546   49.3493   52.4363 C   0  0  0  0  0  0  0  0  0  0  0  0
   69.7798   48.5029   51.5567 C   0  0  0  0  0  0  0  0  0  0  0  0
   68.9056   47.5486   52.0418 C   0  0  0  0  0  0  0  0  0  0  0  0
   68.2342   46.7088   51.2032 N   0  0  0  0  0  0  0  0  0  0  0  0
   70.5875   50.1389   56.4905 N   0  0  0  0  0  0  0  0  0  0  0  0
   70.7806   49.0016   57.2811 C   0  0  0  0  0  0  0  0  0  0  0  0
   69.8542   47.9909   57.2605 C   0  0  0  0  0  0  0  0  0  0  0  0
   70.0331   46.8462   58.0478 C   0  0  0  0  0  0  0  0  0  0  0  0
   71.1416   46.7038   58.8629 C   0  0  0  0  0  0  0  0  0  0  0  0
   72.0613   47.7305   58.8694 C   0  0  0  0  0  0  0  0  0  0  0  0
   71.8857   48.8756   58.0847 C   0  0  0  0  0  0  0  0  0  0  0  0
   71.2831   45.5542   59.6272 O   0  0  0  0  0  0  0  0  0  0  0  0
   71.5009   44.3110   59.0020 C   0  0  0  0  0  0  0  0  0  0  0  0
   72.6585   44.0936   58.2850 C   0  0  0  0  0  0  0  0  0  0  0  0
   72.8888   42.8752   57.6642 C   0  0  0  0  0  0  0  0  0  0  0  0
   71.9441   41.8748   57.7679 C   0  0  0  0  0  0  0  0  0  0  0  0
   70.7780   42.0596   58.4740 C   0  0  0  0  0  0  0  0  0  0  0  0
   70.5793   43.2963   59.0863 C   0  0  0  0  0  0  0  0  0  0  0  0
  4  5  2  0
  5  6  1  0
  5 15  1  0
  6  7  1  0
  7  8  2  0
  7  9  1  0
  9 10  1  0
  9 14  2  0
 10 11  2  0
 11  1  1  0
 11 12  1  0
  1  2  2  0
  1  3  2  0
  1 16  1  0
 16 17  1  0
 17 18  2  0
 17 22  1  0
 18 19  1  0
 19 20  2  0
 20 23  1  0
 20 21  1  0
 23 24  1  0
 24 25  2  0
 24 29  1  0
 25 26  1  0
 26 27  2  0
 27 28  1  0
 28 29  2  0
 21 22  2  0
 12 13  2  0
 13 14  1  0
 14 15  1  0
M  END
>  <minimizedAffinity>  (912) 
-8.84603

$$$$
data/reference_output_2/data/smiles/171576.pdb
     RDKit          3D

 27 30  0  0  0  0  0  0  0  0999 V2000
   69.1359   46.5047   55.9902 N   0  0  0  0  0  0  0  0  0  0  0  0
   70.1647   46.5122   56.8164 N   0  0  0  0  0  0  0  0  0  0  0  0
   70.5728   45.4035   57.4807 C   0  0  0  0  0  0  0  0  0  0  0  0
   71.5603   45.4209   58.2712 O   0  0  0  0  0  0  0  0  0  0  0  0
   69.9200   44.2011   57.3204 C   0  0  0  0  0  0  0  0  0  0  0  0
   70.3014   43.0604   57.9725 N   0  0  0  0  0  0  0  0  0  0  0  0
   69.6356   41.9088   57.7852 C   0  0  0  0  0  0  0  0  0  0  0  0
   70.0462   40.7819   58.4586 C   0  0  0  0  0  0  0  0  0  0  0  0
   69.3953   39.5631   58.3027 C   0  0  0  0  0  0  0  0  0  0  0  0
   69.9186   38.1447   59.1545 Cl  0  0  0  0  0  0  0  0  0  0  0  0
   68.3071   39.4830   57.4512 C   0  0  0  0  0  0  0  0  0  0  0  0
   67.9043   40.6110   56.7847 C   0  0  0  0  0  0  0  0  0  0  0  0
   68.5515   41.8262   56.9372 C   0  0  0  0  0  0  0  0  0  0  0  0
   68.1694   42.9781   56.2797 C   0  0  0  0  0  0  0  0  0  0  0  0
   67.1942   42.9396   55.5055 O   0  0  0  0  0  0  0  0  0  0  0  0
   68.8402   44.1785   56.4574 C   0  0  0  0  0  0  0  0  0  0  0  0
   68.4800   45.3418   55.8135 C   0  0  0  0  0  0  0  0  0  0  0  0
   67.4865   45.2745   55.0338 O   0  0  0  0  0  0  0  0  0  0  0  0
   68.6820   47.6771   55.2688 C   0  0  2  0  0  0  0  0  0  0  0  0
   69.1627   47.7011   53.8654 C   0  0  0  0  0  0  0  0  0  0  0  0
   68.6990   46.7555   52.9811 C   0  0  0  0  0  0  0  0  0  0  0  0
   69.1440   46.7766   51.6776 C   0  0  0  0  0  0  0  0  0  0  0  0
   70.0228   47.7076   51.2624 N   0  0  0  0  0  0  0  0  0  0  0  0
   70.4689   48.6269   52.1345 C   0  0  0  0  0  0  0  0  0  0  0  0
   70.0582   48.6528   53.4476 C   0  0  0  0  0  0  0  0  0  0  0  0
   68.1478   49.2305   57.1416 C   0  0  0  0  0  0  0  0  0  0  0  0
   69.0924   48.9213   56.0092 C   0  0  0  0  0  0  0  0  0  0  0  0
 26 27  1  0
 19 27  1  1
 19 20  1  0
 19  1  1  0
 20 21  2  0
 20 25  1  0
 21 22  1  0
 22 23  2  0
 23 24  1  0
 24 25  2  0
  1  2  1  0
  1 17  1  0
  2  3  1  0
  3  4  2  0
  3  5  1  0
  5  6  1  0
  5 16  2  0
  6  7  1  0
  7  8  2  0
  7 13  1  0
  8  9  1  0
  9 10  1  0
  9 11  2  0
 11 12  1  0
 12 13  2  0
 13 14  1  0
 14 15  2  0
 14 16  1  0
 16 17  1  0
 17 18  2  0
M  END
>  <minimizedAffinity>  (913) 
-8.52932

$$$$
data/reference_output_2/data/smiles/171707.pdb
     RDKit          3D

 26 28  0  0  0  0  0  0  0  0999 V2000
   67.6100   45.2590   54.8896 O   0  0  0  0  0  0  0  0  0  0  0  0
   68.4500   42.2243   56.7643 C   0  0  0  0  0  0  0  0  0  0  0  0
   67.8578   43.1068   55.8986 C   0  0  0  0  0  0  0  0  0  0  0  0
   68.2598   44.4451   55.7823 C   0  0  0  0  0  0  0  0  0  0  0  0
   69.2723   44.7977   56.5828 N   0  0  0  0  0  0  0  0  0  0  0  0
   69.8905   43.9990   57.4418 C   0  0  0  0  0  0  0  0  0  0  0  0
   69.4883   42.6804   57.5521 C   0  0  0  0  0  0  0  0  0  0  0  0
   71.0138   44.4331   58.3155 C   0  0  0  0  0  0  0  0  0  0  0  0
   71.1826   45.7990   58.2930 F   0  0  0  0  0  0  0  0  0  0  0  0
   70.8096   43.9435   59.5914 F   0  0  0  0  0  0  0  0  0  0  0  0
   72.1581   43.7977   57.8297 F   0  0  0  0  0  0  0  0  0  0  0  0
   67.6723   40.2587   55.5776 N   0  0  0  0  0  0  0  0  0  0  0  0
   68.0135   40.8169   56.8738 C   0  0  0  0  0  0  0  0  0  0  0  0
   68.1486   46.1050   53.9690 C   0  0  0  0  0  0  0  0  0  0  0  0
   67.9273   45.7428   52.6283 C   0  0  0  0  0  0  0  0  0  0  0  0
   68.4405   46.5491   51.6416 C   0  0  0  0  0  0  0  0  0  0  0  0
   69.1604   47.6932   51.9303 C   0  0  0  0  0  0  0  0  0  0  0  0
   69.3884   48.0675   53.2376 C   0  0  0  0  0  0  0  0  0  0  0  0
   68.8679   47.2478   54.2191 C   0  0  0  0  0  0  0  0  0  0  0  0
   70.1499   49.2772   53.5122 C   0  0  0  0  0  0  0  0  0  0  0  0
   71.3420   49.3599   53.1240 O   0  0  0  0  0  0  0  0  0  0  0  0
   69.6553   50.4131   54.2009 N   0  0  0  0  0  0  0  0  0  0  0  0
   70.4121   51.5978   54.4655 C   0  0  0  0  0  0  0  0  0  0  0  0
   71.2493   51.5518   55.7507 C   0  0  0  0  0  0  0  0  0  0  0  0
   71.0386   52.9255   55.8488 O   0  0  0  0  0  0  0  0  0  0  0  0
   69.7995   52.7045   55.2025 C   0  0  0  0  0  0  0  0  0  0  0  0
 12 13  1  0
 13  2  1  0
  2  3  2  0
  2  7  1  0
  3  4  1  0
  4  1  1  0
  4  5  2  0
  1 14  1  0
 14 15  2  0
 14 19  1  0
 15 16  1  0
 16 17  2  0
 17 18  1  0
 18 20  1  0
 18 19  2  0
 20 21  2  0
 20 22  1  0
 22 23  1  0
 23 24  1  0
 23 26  1  0
 24 25  1  0
 25 26  1  0
  5  6  1  0
  6  8  1  0
  6  7  2  0
  8  9  1  0
  8 10  1  0
  8 11  1  0
M  CHG  1  12   1
M  END
>  <minimizedAffinity>  (914) 
-8.78350

$$$$
data/reference_output_2/data/smiles/171764.pdb
     RDKit          3D

 31 35  0  0  0  0  0  0  0  0999 V2000
   69.9039   43.4741   57.4618 C   0  0  0  0  0  0  0  0  0  0  0  0
   68.6539   42.8693   56.8915 C   0  0  0  0  0  0  0  0  0  0  0  0
   68.1157   41.6495   57.2407 C   0  0  0  0  0  0  0  0  0  0  0  0
   66.9714   41.5310   56.4483 C   0  0  0  0  0  0  0  0  0  0  0  0
   66.8902   42.6288   55.7040 N   0  0  0  0  0  0  0  0  0  0  0  0
   67.8901   43.4540   55.9494 N   0  0  0  0  0  0  0  0  0  0  0  0
   68.1428   44.7304   55.3465 C   0  0  0  0  0  0  0  0  0  0  0  0
   68.4878   45.8002   56.0820 N   0  0  0  0  0  0  0  0  0  0  0  0
   68.7330   47.0190   55.5374 C   0  0  0  0  0  0  0  0  0  0  0  0
   68.6323   47.1973   54.1783 C   0  0  0  0  0  0  0  0  0  0  0  0
   68.2783   46.0947   53.4289 C   0  0  0  0  0  0  0  0  0  0  0  0
   68.1865   46.2635   52.1802 O   0  0  0  0  0  0  0  0  0  0  0  0
   68.0454   44.9074   54.0171 N   0  0  0  0  0  0  0  0  0  0  0  0
   68.9607   48.6309   53.8405 C   0  0  0  0  0  0  0  0  0  0  0  0
   69.8954   48.9651   55.0156 C   0  0  0  0  0  0  0  0  0  0  0  0
   69.1131   48.3179   56.1347 C   0  0  0  0  0  0  0  0  0  0  0  0
   68.6114   40.6816   58.2176 C   0  0  0  0  0  0  0  0  0  0  0  0
   69.4196   39.7984   57.8201 O   0  0  0  0  0  0  0  0  0  0  0  0
   68.1930   40.7414   59.5674 N   0  0  0  0  0  0  0  0  0  0  0  0
   67.2728   41.7655   59.9711 C   0  0  0  0  0  0  0  0  0  0  0  0
   66.3384   41.3371   61.0617 C   0  0  0  0  0  0  0  0  0  0  0  0
   66.2823   39.8317   61.2055 C   0  0  0  0  0  0  0  0  0  0  0  0
   67.6532   39.3219   61.5063 C   0  0  0  0  0  0  0  0  0  0  0  0
   68.6869   39.7875   60.5200 C   0  0  0  0  0  0  0  0  0  0  0  0
   65.6093   39.1764   60.0413 C   0  0  0  0  0  0  0  0  0  0  0  0
   65.2376   37.7776   60.3436 C   0  0  0  0  0  0  0  0  0  0  0  0
   65.4861   36.7662   59.4430 C   0  0  0  0  0  0  0  0  0  0  0  0
   65.1241   35.4647   59.7562 C   0  0  0  0  0  0  0  0  0  0  0  0
   64.5193   35.1423   60.9511 C   0  0  0  0  0  0  0  0  0  0  0  0
   64.2683   36.1530   61.8591 C   0  0  0  0  0  0  0  0  0  0  0  0
   64.6241   37.4519   61.5569 C   0  0  0  0  0  0  0  0  0  0  0  0
  1  2  1  0
  2  3  2  0
  2  6  1  0
  3 17  1  0
  3  4  1  0
 17 18  2  0
 17 19  1  0
 19 20  1  0
 19 24  1  0
 20 21  1  0
 21 22  1  0
 22 25  1  0
 22 23  1  0
 25 26  1  0
 26 27  2  0
 26 31  1  0
 27 28  1  0
 28 29  2  0
 29 30  1  0
 30 31  2  0
 23 24  1  0
  4  5  2  0
  5  6  1  0
  6  7  1  0
  7  8  2  0
  7 13  1  0
  8  9  1  0
  9 10  2  0
  9 16  1  0
 10 11  1  0
 10 14  1  0
 11 12  2  0
 11 13  1  0
 14 15  1  0
 15 16  1  0
M  END
>  <minimizedAffinity>  (915) 
-9.01940

$$$$
data/reference_output_2/data/smiles/171835.pdb
     RDKit          3D

 23 25  0  0  0  0  0  0  0  0999 V2000
   69.4525   48.0709   56.0873 C   0  0  0  0  0  0  0  0  0  0  0  0
   69.0340   47.5535   54.7549 C   0  0  0  0  0  0  0  0  0  0  0  0
   68.0923   46.5395   54.6342 C   0  0  0  0  0  0  0  0  0  0  0  0
   67.7233   46.0698   53.3999 C   0  0  0  0  0  0  0  0  0  0  0  0
   68.2539   46.5653   52.2295 C   0  0  0  0  0  0  0  0  0  0  0  0
   69.1800   47.5618   52.3382 C   0  0  0  0  0  0  0  0  0  0  0  0
   69.5666   48.0514   53.5843 C   0  0  0  0  0  0  0  0  0  0  0  0
   68.5395   49.1131   56.5882 C   0  0  0  0  0  0  0  0  0  0  0  0
   68.6667   50.4139   56.1570 C   0  0  0  0  0  0  0  0  0  0  0  0
   67.8086   51.4052   56.6241 C   0  0  0  0  0  0  0  0  0  0  0  0
   66.8193   51.0397   57.5392 C   0  0  0  0  0  0  0  0  0  0  0  0
   66.6883   49.7392   57.9729 C   0  0  0  0  0  0  0  0  0  0  0  0
   67.5559   48.7835   57.4894 C   0  0  0  0  0  0  0  0  0  0  0  0
   70.5246   47.0084   58.1259 N   0  0  0  0  0  0  0  0  0  0  0  0
   69.6481   46.9371   57.0115 C   0  0  0  0  0  0  0  0  0  0  0  0
   69.0224   45.8753   56.8080 O   0  0  0  0  0  0  0  0  0  0  0  0
   71.5053   44.5233   60.5091 N   0  0  0  0  0  0  0  0  0  0  0  0
   70.3837   44.0038   60.0270 N   0  0  0  0  0  0  0  0  0  0  0  0
   69.8759   44.8117   59.1124 N   0  0  0  0  0  0  0  0  0  0  0  0
   70.6800   45.8827   58.9921 C   0  0  0  0  0  0  0  0  0  0  0  0
   71.6787   45.6693   59.8719 N   0  0  0  0  0  0  0  0  0  0  0  0
   71.5127   43.1098   62.4734 C   0  0  0  0  0  0  0  0  0  0  0  0
   72.3771   43.9425   61.5406 C   0  0  0  0  0  0  0  0  0  0  0  0
 22 23  1  0
 23 17  1  0
 17 18  1  0
 17 21  1  0
 18 19  2  0
 19 20  1  0
 20 14  1  0
 20 21  2  0
 14 15  1  0
 15 16  2  0
 15  1  1  0
  1  2  1  0
  1  8  1  0
  2  3  2  0
  2  7  1  0
  3  4  1  0
  4  5  2  0
  5  6  1  0
  6  7  2  0
  8  9  2  0
  8 13  1  0
  9 10  1  0
 10 11  2  0
 11 12  1  0
 12 13  2  0
M  END
>  <minimizedAffinity>  (916) 
-8.50657

$$$$
data/reference_output_2/data/smiles/171847.pdb
     RDKit          3D

 31 34  0  0  0  0  0  0  0  0999 V2000
   70.1152   46.6253   58.0544 C   0  0  0  0  0  0  0  0  0  0  0  0
   70.0799   45.3190   58.0288 O   0  0  0  0  0  0  0  0  0  0  0  0
   71.0163   47.1978   58.9818 N   0  0  0  0  0  0  0  0  0  0  0  0
   71.7504   46.2538   59.8344 C   0  0  0  0  0  0  0  0  0  0  0  0
   73.1578   46.6764   60.0841 C   0  0  0  0  0  0  0  0  0  0  0  0
   73.3511   48.0919   60.0424 N   0  0  0  0  0  0  0  0  0  0  0  0
   74.1203   48.7453   61.0206 C   0  0  0  0  0  0  0  0  0  0  0  0
   74.2704   50.0041   60.9616 O   0  0  0  0  0  0  0  0  0  0  0  0
   72.7684   48.8442   58.9796 C   0  0  0  0  0  0  0  0  0  0  0  0
   71.2420   48.5953   59.0851 C   0  0  0  0  0  0  0  0  0  0  0  0
   74.7838   48.0806   62.1351 C   0  0  0  0  0  0  0  0  0  0  0  0
   76.1308   47.8400   62.1664 C   0  0  0  0  0  0  0  0  0  0  0  0
   76.6868   47.2081   63.2502 C   0  0  0  0  0  0  0  0  0  0  0  0
   75.8902   46.8184   64.3056 C   0  0  0  0  0  0  0  0  0  0  0  0
   74.5341   47.0547   64.2886 C   0  0  0  0  0  0  0  0  0  0  0  0
   74.0101   47.6834   63.1973 C   0  0  0  0  0  0  0  0  0  0  0  0
   68.1504   47.7458   57.6602 O   0  0  0  0  0  0  0  0  0  0  0  0
   69.2705   47.3589   57.1711 C   0  0  0  0  0  0  0  0  0  0  0  0
   69.5110   47.7140   55.7768 C   0  0  0  0  0  0  0  0  0  0  0  0
   70.2191   48.9025   55.4296 C   0  0  0  0  0  0  0  0  0  0  0  0
   70.1175   49.1121   54.1338 N   0  0  0  0  0  0  0  0  0  0  0  0
   69.3866   48.1358   53.5778 C   0  0  0  0  0  0  0  0  0  0  0  0
   69.0258   47.8736   52.2806 C   0  0  0  0  0  0  0  0  0  0  0  0
   69.3834   48.7272   51.2903 F   0  0  0  0  0  0  0  0  0  0  0  0
   68.2891   46.7321   51.9604 C   0  0  0  0  0  0  0  0  0  0  0  0
   67.9432   46.4915   50.6889 F   0  0  0  0  0  0  0  0  0  0  0  0
   67.9346   45.8762   52.9764 C   0  0  0  0  0  0  0  0  0  0  0  0
   67.2162   44.7576   52.6671 F   0  0  0  0  0  0  0  0  0  0  0  0
   68.2852   46.1231   54.2805 C   0  0  0  0  0  0  0  0  0  0  0  0
   68.0070   45.1898   55.1966 F   0  0  0  0  0  0  0  0  0  0  0  0
   69.0107   47.2647   54.5841 C   0  0  0  0  0  0  0  0  0  0  0  0
 17 18  2  0
 18  1  1  0
 18 19  1  0
  1  2  2  0
  1  3  1  0
  3  4  1  0
  3 10  1  0
  4  5  1  0
  5  6  1  0
  6  7  1  0
  6  9  1  0
  7  8  2  0
  7 11  1  0
 11 12  2  0
 11 16  1  0
 12 13  1  0
 13 14  2  0
 14 15  1  0
 15 16  2  0
  9 10  1  0
 19 20  2  0
 19 31  1  0
 20 21  1  0
 21 22  1  0
 22 23  1  0
 22 31  2  0
 23 24  1  0
 23 25  2  0
 25 26  1  0
 25 27  1  0
 27 28  1  0
 27 29  2  0
 29 30  1  0
 29 31  1  0
M  END
>  <minimizedAffinity>  (917) 
-8.60805

$$$$
data/reference_output_2/data/smiles/171870.pdb
     RDKit          3D

 25 27  0  0  0  0  0  0  0  0999 V2000
   68.4178   46.4542   54.4606 C   0  0  0  0  0  0  0  0  0  0  0  0
   67.6521   45.4757   53.8300 C   0  0  0  0  0  0  0  0  0  0  0  0
   67.5420   45.4609   52.4606 C   0  0  0  0  0  0  0  0  0  0  0  0
   66.8488   44.5722   51.9149 O   0  0  0  0  0  0  0  0  0  0  0  0
   68.1649   46.3804   51.7021 N   0  0  0  0  0  0  0  0  0  0  0  0
   68.9126   47.3397   52.2741 C   0  0  0  0  0  0  0  0  0  0  0  0
   69.5513   48.2820   51.4998 C   0  0  0  0  0  0  0  0  0  0  0  0
   70.3268   49.2829   52.0448 C   0  0  0  0  0  0  0  0  0  0  0  0
   70.4641   49.3354   53.4083 C   0  0  0  0  0  0  0  0  0  0  0  0
   69.8189   48.3843   54.1830 C   0  0  0  0  0  0  0  0  0  0  0  0
   69.0372   47.3728   53.6702 C   0  0  0  0  0  0  0  0  0  0  0  0
   67.7168   47.1776   56.5868 O   0  0  0  0  0  0  0  0  0  0  0  0
   68.5039   46.4308   55.8976 C   0  0  0  0  0  0  0  0  0  0  0  0
   69.3542   45.6824   56.6619 O   0  0  0  0  0  0  0  0  0  0  0  0
   71.4358   50.5784   54.1936 S   0  0  0  0  0  0  0  0  0  0  0  0
   71.1141   51.9033   53.6148 O   0  0  0  0  0  0  0  0  0  0  0  0
   72.8713   50.2112   53.9518 O   0  0  0  0  0  0  0  0  0  0  0  0
   71.1271   50.6082   55.9033 N   0  0  0  0  0  0  0  0  0  0  0  0
   69.8074   50.7005   56.4181 C   0  0  0  0  0  0  0  0  0  0  0  0
   68.8630   51.5316   55.8024 C   0  0  0  0  0  0  0  0  0  0  0  0
   67.5813   51.6368   56.2835 C   0  0  0  0  0  0  0  0  0  0  0  0
   67.1809   50.9297   57.3842 C   0  0  0  0  0  0  0  0  0  0  0  0
   65.9023   51.0646   57.8254 F   0  0  0  0  0  0  0  0  0  0  0  0
   68.0947   50.1114   57.9988 C   0  0  0  0  0  0  0  0  0  0  0  0
   69.4041   49.9906   57.5249 C   0  0  0  0  0  0  0  0  0  0  0  0
 12 13  2  0
 13 14  1  0
 13  1  1  0
  1  2  2  0
  1 11  1  0
  2  3  1  0
  3  4  2  0
  3  5  1  0
  5  6  1  0
  6  7  1  0
  6 11  2  0
  7  8  2  0
  8  9  1  0
  9 15  1  0
  9 10  2  0
 15 16  2  0
 15 17  2  0
 15 18  1  0
 18 19  1  0
 19 20  2  0
 19 25  1  0
 20 21  1  0
 21 22  2  0
 22 23  1  0
 22 24  1  0
 24 25  2  0
 10 11  1  0
M  END
>  <minimizedAffinity>  (918) 
-9.15439

$$$$
data/reference_output_2/data/smiles/172388.pdb
     RDKit          3D

 19 20  0  0  0  0  0  0  0  0999 V2000
   68.2620   45.5571   55.2644 C   0  0  0  0  0  0  0  0  0  0  0  0
   68.2243   44.3188   55.4903 O   0  0  0  0  0  0  0  0  0  0  0  0
   69.9973   48.7247   51.8087 C   0  0  0  0  0  0  0  0  0  0  0  0
   69.1281   47.5889   52.2146 C   0  0  0  0  0  0  0  0  0  0  0  0
   69.0966   47.1101   53.5172 C   0  0  0  0  0  0  0  0  0  0  0  0
   68.2909   46.0570   53.8922 C   0  0  0  0  0  0  0  0  0  0  0  0
   67.5042   45.4865   52.9165 C   0  0  0  0  0  0  0  0  0  0  0  0
   67.5552   45.9899   51.6099 C   0  0  0  0  0  0  0  0  0  0  0  0
   66.8349   45.4682   50.7125 O   0  0  0  0  0  0  0  0  0  0  0  0
   68.3551   47.0199   51.2802 N   0  0  0  0  0  0  0  0  0  0  0  0
   68.2736   46.3875   56.3598 O   0  0  0  0  0  0  0  0  0  0  0  0
   69.1595   47.4678   56.5433 C   0  0  2  0  0  0  0  0  0  0  0  0
   69.9863   47.1401   57.7727 C   0  0  0  0  0  0  0  0  0  0  0  0
   68.4615   48.7403   56.8332 C   0  0  0  0  0  0  0  0  0  0  0  0
   67.4405   48.8003   57.7609 C   0  0  0  0  0  0  0  0  0  0  0  0
   66.8489   50.0231   57.9660 C   0  0  0  0  0  0  0  0  0  0  0  0
   67.2509   51.1554   57.2762 C   0  0  0  0  0  0  0  0  0  0  0  0
   68.2651   51.0394   56.3704 C   0  0  0  0  0  0  0  0  0  0  0  0
   68.8514   49.8407   56.1637 N   0  0  0  0  0  0  0  0  0  0  0  0
  3  4  1  0
  4  5  2  0
  4 10  1  0
  5  6  1  0
  6  1  1  0
  6  7  2  0
  1  2  2  0
  1 11  1  0
 11 12  1  0
 12 13  1  1
 12 14  1  0
 14 15  2  0
 14 19  1  0
 15 16  1  0
 16 17  2  0
 17 18  1  0
 18 19  2  0
  7  8  1  0
  8  9  2  0
  8 10  1  0
M  END
>  <minimizedAffinity>  (919) 
-8.51918

$$$$
data/reference_output_2/data/smiles/172414.pdb
     RDKit          3D

 27 29  0  0  0  0  0  0  0  0999 V2000
   68.1158   42.6019   56.2944 C   0  0  0  0  0  0  0  0  0  0  0  0
   69.2430   42.8538   56.7954 O   0  0  0  0  0  0  0  0  0  0  0  0
   67.5050   43.5721   55.5124 N   0  0  0  0  0  0  0  0  0  0  0  0
   68.0450   44.8385   55.2293 N   0  0  0  0  0  0  0  0  0  0  0  0
   67.9866   45.4473   53.9554 C   0  0  0  0  0  0  0  0  0  0  0  0
   67.4129   44.7926   53.0489 O   0  0  0  0  0  0  0  0  0  0  0  0
   68.5367   46.7585   53.6309 C   0  0  0  0  0  0  0  0  0  0  0  0
   69.0404   47.0861   52.3917 C   0  0  0  0  0  0  0  0  0  0  0  0
   69.5576   48.3398   52.1092 C   0  0  0  0  0  0  0  0  0  0  0  0
   69.5919   49.3339   53.0725 C   0  0  0  0  0  0  0  0  0  0  0  0
   70.1058   50.5859   52.7966 C   0  0  0  0  0  0  0  0  0  0  0  0
   70.1090   51.5295   53.8016 C   0  0  0  0  0  0  0  0  0  0  0  0
   69.6224   51.2675   55.0561 C   0  0  0  0  0  0  0  0  0  0  0  0
   69.1197   50.0031   55.2811 C   0  0  0  0  0  0  0  0  0  0  0  0
   69.0884   49.0131   54.3172 C   0  0  0  0  0  0  0  0  0  0  0  0
   68.5733   47.7579   54.5900 C   0  0  0  0  0  0  0  0  0  0  0  0
   67.4477   41.2839   56.5356 C   0  0  1  0  0  0  0  0  0  0  0  0
   67.7740   40.3613   55.5787 O   0  0  0  0  0  0  0  0  0  0  0  0
   68.1259   39.4719   57.9590 N   0  0  0  0  0  0  0  0  0  0  0  0
   67.6949   40.8565   57.9370 C   0  0  2  0  0  0  0  0  0  0  0  0
   66.8715   41.3258   59.0457 C   0  0  0  0  0  0  0  0  0  0  0  0
   67.5351   41.4896   60.3552 C   0  0  0  0  0  0  0  0  0  0  0  0
   66.6779   42.1144   61.3831 C   0  0  0  0  0  0  0  0  0  0  0  0
   67.5241   43.0030   62.2894 C   0  0  0  0  0  0  0  0  0  0  0  0
   68.8483   42.3904   62.6487 C   0  0  0  0  0  0  0  0  0  0  0  0
   69.6666   42.1044   61.3951 C   0  0  0  0  0  0  0  0  0  0  0  0
   68.8048   42.3397   60.1678 C   0  0  0  0  0  0  0  0  0  0  0  0
 20 19  1  6
 20 21  1  0
 20 17  1  0
 21 22  1  0
 22 23  1  0
 22 27  1  0
 23 24  1  0
 24 25  1  0
 25 26  1  0
 26 27  1  0
 17 18  1  6
 17  1  1  0
  1  2  2  0
  1  3  1  0
  3  4  1  0
  4  5  1  0
  5  6  2  0
  5  7  1  0
  7  8  2  0
  7 16  1  0
  8  9  1  0
  9 10  2  0
 10 11  1  0
 10 15  1  0
 11 12  2  0
 12 13  1  0
 13 14  2  0
 14 15  1  0
 15 16  2  0
M  CHG  1  19   1
M  END
>  <minimizedAffinity>  (920) 
-8.54254

$$$$
data/reference_output_2/data/smiles/172552.pdb
     RDKit          3D

 26 29  0  0  0  0  0  0  0  0999 V2000
   70.4661   45.8690   58.0557 C   0  0  0  0  0  0  0  0  0  0  0  0
   70.3565   44.4784   58.3028 C   0  0  0  0  0  0  0  0  0  0  0  0
   69.4637   43.8886   57.4663 C   0  0  0  0  0  0  0  0  0  0  0  0
   69.0206   44.9200   56.7010 N   0  0  0  0  0  0  0  0  0  0  0  0
   69.6166   46.0726   57.0569 N   0  0  0  0  0  0  0  0  0  0  0  0
   68.9851   42.5201   57.3031 C   0  0  0  0  0  0  0  0  0  0  0  0
   67.9697   42.1417   56.3999 C   0  0  0  0  0  0  0  0  0  0  0  0
   67.7628   40.8258   56.4870 N   0  0  0  0  0  0  0  0  0  0  0  0
   68.5869   40.2893   57.4026 C   0  0  0  0  0  0  0  0  0  0  0  0
   68.7686   39.0003   57.8591 C   0  0  0  0  0  0  0  0  0  0  0  0
   69.7153   38.7585   58.8287 C   0  0  0  0  0  0  0  0  0  0  0  0
   70.4736   39.7826   59.3405 C   0  0  0  0  0  0  0  0  0  0  0  0
   70.2956   41.0842   58.8864 C   0  0  0  0  0  0  0  0  0  0  0  0
   69.3559   41.3544   57.9172 C   0  0  0  0  0  0  0  0  0  0  0  0
   72.2998   47.9632   60.6510 N   0  0  0  0  0  0  0  0  0  0  0  0
   71.2945   47.0823   60.1301 N   0  0  0  0  0  0  0  0  0  0  0  0
   71.3724   46.7383   58.7859 C   0  0  0  0  0  0  0  0  0  0  0  0
   72.3603   47.2396   58.1036 O   0  0  0  0  0  0  0  0  0  0  0  0
   69.3079   47.3190   56.3520 C   0  0  0  0  0  0  0  0  0  0  0  0
   68.9566   47.0931   54.9361 C   0  0  0  0  0  0  0  0  0  0  0  0
   68.1625   46.0546   54.5368 C   0  0  0  0  0  0  0  0  0  0  0  0
   67.8328   45.8623   53.1836 C   0  0  0  0  0  0  0  0  0  0  0  0
   68.3115   46.7213   52.2473 C   0  0  0  0  0  0  0  0  0  0  0  0
   68.0414   46.6051   50.9256 F   0  0  0  0  0  0  0  0  0  0  0  0
   69.1130   47.7671   52.6585 C   0  0  0  0  0  0  0  0  0  0  0  0
   69.4386   47.9613   53.9793 C   0  0  0  0  0  0  0  0  0  0  0  0
 15 16  1  0
 16 17  1  0
 17 18  2  0
 17  1  1  0
  1  2  2  0
  1  5  1  0
  2  3  1  0
  3  6  1  0
  3  4  2  0
  6  7  2  0
  6 14  1  0
  7  8  1  0
  8  9  1  0
  9 10  1  0
  9 14  2  0
 10 11  2  0
 11 12  1  0
 12 13  2  0
 13 14  1  0
  4  5  1  0
  5 19  1  0
 19 20  1  0
 20 21  2  0
 20 26  1  0
 21 22  1  0
 22 23  2  0
 23 24  1  0
 23 25  1  0
 25 26  2  0
M  END
>  <minimizedAffinity>  (921) 
-9.01161

$$$$
data/reference_output_2/data/smiles/172592.pdb
     RDKit          3D

 28 31  0  0  0  0  0  0  0  0999 V2000
   69.7652   40.3897   58.2592 N   0  0  0  0  0  0  0  0  0  0  0  0
   70.4638   41.5080   58.8756 C   0  0  0  0  0  0  0  0  0  0  0  0
   70.4604   42.7702   58.1045 C   0  0  0  0  0  0  0  0  0  0  0  0
   69.3312   43.0104   57.2026 C   0  0  0  0  0  0  0  0  0  0  0  0
   68.9102   44.1914   56.5651 C   0  0  0  0  0  0  0  0  0  0  0  0
   67.8263   43.8454   55.8528 N   0  0  0  0  0  0  0  0  0  0  0  0
   67.5581   42.5608   56.0068 N   0  0  0  0  0  0  0  0  0  0  0  0
   68.4827   42.0065   56.8482 C   0  0  0  0  0  0  0  0  0  0  0  0
   68.6882   40.6729   57.3741 C   0  0  0  0  0  0  0  0  0  0  0  0
   67.8874   39.7364   57.0397 O   0  0  0  0  0  0  0  0  0  0  0  0
   70.9829   36.4092   59.2414 C   0  0  0  0  0  0  0  0  0  0  0  0
   71.6781   37.1553   58.3204 C   0  0  0  0  0  0  0  0  0  0  0  0
   71.3112   38.4658   57.9888 C   0  0  0  0  0  0  0  0  0  0  0  0
   70.2316   39.0814   58.5652 C   0  0  0  0  0  0  0  0  0  0  0  0
   69.5315   38.3289   59.4933 C   0  0  0  0  0  0  0  0  0  0  0  0
   69.8880   37.0246   59.8321 C   0  0  0  0  0  0  0  0  0  0  0  0
   72.1096   34.2557   58.8136 C   0  0  0  0  0  0  0  0  0  0  0  0
   71.3187   35.1085   59.5960 O   0  0  0  0  0  0  0  0  0  0  0  0
   69.5420   45.4598   56.6826 N   0  0  0  0  0  0  0  0  0  0  0  0
   68.8452   46.8775   56.0006 S   0  0  0  0  0  0  0  0  0  0  0  0
   69.7713   48.0472   56.2736 O   0  0  0  0  0  0  0  0  0  0  0  0
   67.5509   47.1873   56.6913 O   0  0  0  0  0  0  0  0  0  0  0  0
   68.6446   46.7625   54.2877 C   0  0  0  0  0  0  0  0  0  0  0  0
   69.3433   47.6034   53.4489 C   0  0  0  0  0  0  0  0  0  0  0  0
   69.2334   47.5709   52.0880 C   0  0  0  0  0  0  0  0  0  0  0  0
   68.3884   46.6609   51.4826 C   0  0  0  0  0  0  0  0  0  0  0  0
   67.6764   45.8058   52.2939 C   0  0  0  0  0  0  0  0  0  0  0  0
   67.8020   45.8565   53.6640 C   0  0  0  0  0  0  0  0  0  0  0  0
 17 18  1  0
 18 11  1  0
 11 12  2  0
 11 16  1  0
 12 13  1  0
 13 14  2  0
 14  1  1  0
 14 15  1  0
  1  2  1  0
  1  9  1  0
  2  3  1  0
  3  4  1  0
  4  5  1  0
  4  8  2  0
  5 19  1  0
  5  6  2  0
 19 20  1  0
 20 21  2  0
 20 22  2  0
 20 23  1  0
 23 24  2  0
 23 28  1  0
 24 25  1  0
 25 26  2  0
 26 27  1  0
 27 28  2  0
  6  7  1  0
  7  8  1  0
  8  9  1  0
  9 10  2  0
 15 16  2  0
M  END
>  <minimizedAffinity>  (922) 
-9.82261

$$$$
data/reference_output_2/data/smiles/172887.pdb
     RDKit          3D

 25 28  0  0  0  0  0  0  0  0999 V2000
   72.3256   35.7412   52.9823 O   0  0  0  0  0  0  0  0  0  0  0  0
   73.1187   35.4456   53.9066 C   0  0  0  0  0  0  0  0  0  0  0  0
   72.6104   35.1768   55.1593 C   0  0  0  0  0  0  0  0  0  0  0  0
   73.4906   34.8502   56.1802 C   0  0  0  0  0  0  0  0  0  0  0  0
   74.7958   34.8204   55.8637 N   0  0  0  0  0  0  0  0  0  0  0  0
   75.2718   35.0890   54.6211 C   0  0  0  0  0  0  0  0  0  0  0  0
   76.5335   35.1117   54.1057 N   0  0  0  0  0  0  0  0  0  0  0  0
   76.4725   35.4405   52.8035 C   0  0  0  0  0  0  0  0  0  0  0  0
   75.1653   35.6148   52.5403 N   0  0  0  0  0  0  0  0  0  0  0  0
   74.4314   35.4081   53.6201 N   0  0  0  0  0  0  0  0  0  0  0  0
   72.9987   34.5500   57.5547 C   0  0  0  0  0  0  0  0  0  0  0  0
   72.2380   35.6889   58.1319 C   0  0  0  0  0  0  0  0  0  0  0  0
   71.3361   35.4973   59.1686 C   0  0  0  0  0  0  0  0  0  0  0  0
   70.6138   36.5240   59.7300 C   0  0  0  0  0  0  0  0  0  0  0  0
   70.7784   37.8101   59.2576 C   0  0  0  0  0  0  0  0  0  0  0  0
   71.6662   38.0276   58.2309 C   0  0  0  0  0  0  0  0  0  0  0  0
   72.3818   36.9921   57.6795 C   0  0  0  0  0  0  0  0  0  0  0  0
   77.6086   35.5859   51.8366 C   0  0  0  0  0  0  0  0  0  0  0  0
   77.2287   35.1461   50.4840 C   0  0  0  0  0  0  0  0  0  0  0  0
   76.2689   34.1858   50.2860 C   0  0  0  0  0  0  0  0  0  0  0  0
   75.9139   33.7745   48.9972 C   0  0  0  0  0  0  0  0  0  0  0  0
   76.5327   34.3358   47.9058 C   0  0  0  0  0  0  0  0  0  0  0  0
   76.2255   33.9708   46.6252 F   0  0  0  0  0  0  0  0  0  0  0  0
   77.5095   35.3122   48.0892 C   0  0  0  0  0  0  0  0  0  0  0  0
   77.8437   35.7047   49.3907 C   0  0  0  0  0  0  0  0  0  0  0  0
  1  2  2  0
  2  3  1  0
  2 10  1  0
  3  4  2  0
  4 11  1  0
  4  5  1  0
 11 12  1  0
 12 13  2  0
 12 17  1  0
 13 14  1  0
 14 15  2  0
 15 16  1  0
 16 17  2  0
  5  6  1  0
  6  7  2  0
  6 10  1  0
  7  8  1  0
  8 18  1  0
  8  9  2  0
 18 19  1  0
 19 20  2  0
 19 25  1  0
 20 21  1  0
 21 22  2  0
 22 23  1  0
 22 24  1  0
 24 25  2  0
  9 10  1  0
M  END
>  <minimizedAffinity>  (923) 
-8.71224

$$$$
data/reference_output_2/data/smiles/172888.pdb
     RDKit          3D

 29 32  0  0  0  0  0  0  0  0999 V2000
   69.9727   45.4946   57.9038 N   0  0  0  0  0  0  0  0  0  0  0  0
   69.8402   46.8755   57.6512 C   0  0  0  0  0  0  0  0  0  0  0  0
   70.6687   47.6374   58.1974 O   0  0  0  0  0  0  0  0  0  0  0  0
   70.6836   42.7711   58.3314 N   0  0  0  0  0  0  0  0  0  0  0  0
   70.4855   43.7255   59.4059 C   0  0  0  0  0  0  0  0  0  0  0  0
   71.0010   45.0107   58.7395 C   0  0  1  0  0  0  0  0  0  0  0  0
   72.2316   44.5175   58.0613 C   0  0  0  0  0  0  0  0  0  0  0  0
   71.8567   43.1589   57.6267 C   0  0  0  0  0  0  0  0  0  0  0  0
   72.4430   42.4238   56.7775 O   0  0  0  0  0  0  0  0  0  0  0  0
   69.3008   39.2992   58.3140 C   0  0  0  0  0  0  0  0  0  0  0  0
   68.1896   39.5063   57.4920 C   0  0  0  0  0  0  0  0  0  0  0  0
   67.9143   40.7519   56.9659 C   0  0  0  0  0  0  0  0  0  0  0  0
   68.7337   41.8331   57.2395 C   0  0  0  0  0  0  0  0  0  0  0  0
   69.8401   41.6537   58.0515 C   0  0  0  0  0  0  0  0  0  0  0  0
   70.0877   40.4048   58.5588 C   0  0  0  0  0  0  0  0  0  0  0  0
   70.4463   37.9901   59.9560 C   0  0  0  0  0  0  0  0  0  0  0  0
   69.5765   38.0400   58.8435 O   0  0  0  0  0  0  0  0  0  0  0  0
   68.8098   47.4510   56.8046 C   0  0  0  0  0  0  0  0  0  0  0  0
   67.6732   47.6421   57.3102 O   0  0  0  0  0  0  0  0  0  0  0  0
   69.1026   47.7883   55.4148 C   0  0  0  0  0  0  0  0  0  0  0  0
   69.8465   48.8611   54.9774 C   0  0  0  0  0  0  0  0  0  0  0  0
   70.4992   49.8901   55.8448 C   0  0  0  0  0  0  0  0  0  0  0  0
   69.8982   48.8452   53.6363 N   0  0  0  0  0  0  0  0  0  0  0  0
   69.2130   47.7951   53.1546 C   0  0  0  0  0  0  0  0  0  0  0  0
   68.9236   47.2789   51.9105 C   0  0  0  0  0  0  0  0  0  0  0  0
   68.1683   46.1432   51.7081 C   0  0  0  0  0  0  0  0  0  0  0  0
   67.6774   45.4928   52.8168 C   0  0  0  0  0  0  0  0  0  0  0  0
   67.9536   45.9892   54.0717 C   0  0  0  0  0  0  0  0  0  0  0  0
   68.7099   47.1259   54.2714 C   0  0  0  0  0  0  0  0  0  0  0  0
 16 17  1  0
 17 10  1  0
 10 11  2  0
 10 15  1  0
 11 12  1  0
 12 13  2  0
 13 14  1  0
 14  4  1  0
 14 15  2  0
  4  5  1  0
  4  8  1  0
  5  6  1  0
  6  1  1  6
  6  7  1  0
  1  2  1  0
  2  3  2  0
  2 18  1  0
 18 19  2  0
 18 20  1  0
 20 21  2  0
 20 29  1  0
 21 22  1  0
 21 23  1  0
 23 24  1  0
 24 25  1  0
 24 29  2  0
 25 26  2  0
 26 27  1  0
 27 28  2  0
 28 29  1  0
  7  8  1  0
  8  9  2  0
M  END
>  <minimizedAffinity>  (924) 
-8.51666

$$$$
data/reference_output_2/data/smiles/172892.pdb
     RDKit          3D

 23 25  0  0  0  0  0  0  0  0999 V2000
   70.8721   49.3260   57.8823 C   0  0  0  0  0  0  0  0  0  0  0  0
   71.0601   47.8466   57.8633 C   0  0  1  0  0  0  0  0  0  0  0  0
   71.3032   47.3324   59.2509 C   0  0  0  0  0  0  0  0  0  0  0  0
   71.5171   48.1467   60.1538 O   0  0  0  0  0  0  0  0  0  0  0  0
   71.2771   45.9242   59.4649 N   0  0  0  0  0  0  0  0  0  0  0  0
   70.5521   45.0784   58.5671 C   0  0  0  0  0  0  0  0  0  0  0  0
   70.5162   43.7174   58.7575 C   0  0  0  0  0  0  0  0  0  0  0  0
   69.8103   42.9367   57.8726 C   0  0  0  0  0  0  0  0  0  0  0  0
   69.1756   43.5885   56.8373 C   0  0  0  0  0  0  0  0  0  0  0  0
   69.2134   44.9172   56.6578 N   0  0  0  0  0  0  0  0  0  0  0  0
   69.9004   45.7081   57.5109 C   0  0  0  0  0  0  0  0  0  0  0  0
   69.9372   47.1153   57.3148 N   0  0  0  0  0  0  0  0  0  0  0  0
   68.6609   47.8769   56.4473 S   0  0  0  0  0  0  0  0  0  0  0  0
   68.8229   49.3679   56.6051 O   0  0  0  0  0  0  0  0  0  0  0  0
   67.3250   47.5204   56.9892 O   0  0  0  0  0  0  0  0  0  0  0  0
   68.7458   47.5072   54.7556 C   0  0  0  0  0  0  0  0  0  0  0  0
   67.9991   46.4790   54.2340 C   0  0  0  0  0  0  0  0  0  0  0  0
   68.0618   46.1759   52.8651 C   0  0  0  0  0  0  0  0  0  0  0  0
   67.3443   45.1754   52.3157 F   0  0  0  0  0  0  0  0  0  0  0  0
   68.8803   46.9172   52.0384 C   0  0  0  0  0  0  0  0  0  0  0  0
   69.6346   47.9542   52.5564 C   0  0  0  0  0  0  0  0  0  0  0  0
   70.4204   48.6559   51.7271 F   0  0  0  0  0  0  0  0  0  0  0  0
   69.5525   48.2331   53.9225 C   0  0  0  0  0  0  0  0  0  0  0  0
  2  1  1  1
  2  3  1  0
  2 12  1  0
  3  4  2  0
  3  5  1  0
  5  6  1  0
  6  7  1  0
  6 11  2  0
  7  8  2  0
  8  9  1  0
  9 10  2  0
 10 11  1  0
 11 12  1  0
 12 13  1  0
 13 14  2  0
 13 15  2  0
 13 16  1  0
 16 17  2  0
 16 23  1  0
 17 18  1  0
 18 19  1  0
 18 20  2  0
 20 21  1  0
 21 22  1  0
 21 23  2  0
M  END
>  <minimizedAffinity>  (925) 
-8.50616

$$$$
data/reference_output_2/data/smiles/172913.pdb
     RDKit          3D

 22 23  0  0  0  0  0  0  0  0999 V2000
   68.9939   46.3596   56.9227 N   0  0  0  0  0  0  0  0  0  0  0  0
   68.6234   47.2209   56.0400 C   0  0  0  0  0  0  0  0  0  0  0  0
   68.2256   48.5040   56.6372 C   0  0  0  0  0  0  0  0  0  0  0  0
   68.8351   49.6953   56.2187 C   0  0  0  0  0  0  0  0  0  0  0  0
   68.4296   50.9347   56.6574 C   0  0  0  0  0  0  0  0  0  0  0  0
   67.3803   51.0011   57.5461 C   0  0  0  0  0  0  0  0  0  0  0  0
   66.7527   49.8766   57.9831 C   0  0  0  0  0  0  0  0  0  0  0  0
   67.2032   48.6275   57.5040 C   0  0  0  0  0  0  0  0  0  0  0  0
   68.6556   46.9692   54.6098 C   0  0  0  0  0  0  0  0  0  0  0  0
   67.8969   45.9691   54.0255 C   0  0  0  0  0  0  0  0  0  0  0  0
   67.8150   45.8336   52.6343 C   0  0  0  0  0  0  0  0  0  0  0  0
   68.4750   46.6727   51.7744 C   0  0  0  0  0  0  0  0  0  0  0  0
   69.2286   47.6653   52.3427 C   0  0  0  0  0  0  0  0  0  0  0  0
   69.3078   47.8010   53.7450 C   0  0  0  0  0  0  0  0  0  0  0  0
   69.9406   44.3067   57.9274 C   0  0  0  0  0  0  0  0  0  0  0  0
   69.9795   44.8795   59.0444 O   0  0  0  0  0  0  0  0  0  0  0  0
   69.4263   45.0885   56.8369 N   0  0  0  0  0  0  0  0  0  0  0  0
   70.3931   42.9298   57.7594 C   0  0  0  0  0  0  0  0  0  0  0  0
   71.5221   42.5969   58.2047 O   0  0  0  0  0  0  0  0  0  0  0  0
   69.6652   41.9521   57.1400 O   0  0  0  0  0  0  0  0  0  0  0  0
   67.4957   41.8852   56.2423 C   0  0  0  0  0  0  0  0  0  0  0  0
   68.3598   41.5663   57.4486 C   0  0  0  0  0  0  0  0  0  0  0  0
 21 22  1  0
 22 20  1  0
 20 18  1  0
 18 19  2  0
 18 15  1  0
 15 16  2  0
 15 17  1  0
 17  1  1  0
  1  2  2  0
  2  3  1  0
  2  9  1  0
  3  4  2  0
  3  8  1  0
  4  5  1  0
  5  6  2  0
  6  7  1  0
  7  8  2  0
  9 10  2  0
  9 14  1  0
 10 11  1  0
 11 12  2  0
 12 13  1  0
 13 14  2  0
M  END
>  <minimizedAffinity>  (926) 
-8.70036

$$$$
data/reference_output_2/data/smiles/173074.pdb
     RDKit          3D

 23 25  0  0  0  0  0  0  0  0999 V2000
   71.5288   51.4670   54.8678 C   0  0  0  0  0  0  0  0  0  0  0  0
   73.5988   52.4706   55.4691 O   0  0  0  0  0  0  0  0  0  0  0  0
   73.0095   51.4712   54.9724 C   0  0  0  0  0  0  0  0  0  0  0  0
   73.7322   50.3383   54.5067 N   0  0  0  0  0  0  0  0  0  0  0  0
   75.1228   50.3673   54.6159 N   0  0  0  0  0  0  0  0  0  0  0  0
   75.7610   50.0568   55.6894 C   0  0  0  0  0  0  0  0  0  0  0  0
   77.2057   50.0851   55.8037 C   0  0  0  0  0  0  0  0  0  0  0  0
   78.0134   49.0732   55.3533 C   0  0  0  0  0  0  0  0  0  0  0  0
   79.4006   49.1209   55.4722 C   0  0  0  0  0  0  0  0  0  0  0  0
   79.9899   50.2177   56.0610 C   0  0  0  0  0  0  0  0  0  0  0  0
   79.1535   51.2234   56.5065 C   0  0  0  0  0  0  0  0  0  0  0  0
   77.7963   51.1445   56.3735 N   0  0  0  0  0  0  0  0  0  0  0  0
   71.1530   50.7062   53.7083 N   0  0  0  0  0  0  0  0  0  0  0  0
   70.3340   49.5566   53.8086 C   0  0  0  0  0  0  0  0  0  0  0  0
   69.9118   49.1381   55.0693 C   0  0  0  0  0  0  0  0  0  0  0  0
   69.1250   48.0183   55.1790 C   0  0  0  0  0  0  0  0  0  0  0  0
   68.7370   47.2918   54.0785 C   0  0  0  0  0  0  0  0  0  0  0  0
   67.9335   46.1543   54.2216 C   0  0  0  0  0  0  0  0  0  0  0  0
   67.5879   45.4837   53.0882 C   0  0  0  0  0  0  0  0  0  0  0  0
   68.0065   45.8996   51.8449 C   0  0  0  0  0  0  0  0  0  0  0  0
   68.7997   47.0257   51.7187 C   0  0  0  0  0  0  0  0  0  0  0  0
   69.1666   47.7260   52.8528 C   0  0  0  0  0  0  0  0  0  0  0  0
   69.9642   48.8531   52.6895 C   0  0  0  0  0  0  0  0  0  0  0  0
  2  3  2  0
  3  1  1  0
  3  4  1  0
  1 13  1  0
 13 14  1  0
 14 15  2  0
 14 23  1  0
 15 16  1  0
 16 17  2  0
 17 18  1  0
 17 22  1  0
 18 19  2  0
 19 20  1  0
 20 21  2  0
 21 22  1  0
 22 23  2  0
  4  5  1  0
  5  6  2  0
  6  7  1  0
  7  8  2  0
  7 12  1  0
  8  9  1  0
  9 10  2  0
 10 11  1  0
 11 12  2  0
M  END
>  <minimizedAffinity>  (927) 
-8.93256

$$$$
data/reference_output_2/data/smiles/173109.pdb
     RDKit          3D

 30 33  0  0  0  0  0  0  0  0999 V2000
   67.6786   41.2741   57.4942 N   0  0  0  0  0  0  0  0  0  0  0  0
   68.7566   40.4129   57.9219 C   0  0  0  0  0  0  0  0  0  0  0  0
   66.6165   41.4985   58.4036 C   0  0  0  0  0  0  0  0  0  0  0  0
   65.6702   42.2559   58.0395 O   0  0  0  0  0  0  0  0  0  0  0  0
   66.5392   40.9207   59.7225 C   0  0  0  0  0  0  0  0  0  0  0  0
   66.9297   41.7342   60.7837 C   0  0  0  0  0  0  0  0  0  0  0  0
   66.8875   41.2623   62.0771 C   0  0  0  0  0  0  0  0  0  0  0  0
   66.4639   39.9918   62.3656 C   0  0  0  0  0  0  0  0  0  0  0  0
   66.4123   39.4990   63.6448 C   0  0  0  0  0  0  0  0  0  0  0  0
   66.7699   40.2536   64.5755 O   0  0  0  0  0  0  0  0  0  0  0  0
   65.9834   38.2286   63.8727 N   0  0  0  0  0  0  0  0  0  0  0  0
   65.6002   37.4249   62.8553 C   0  0  0  0  0  0  0  0  0  0  0  0
   65.6666   37.9476   61.6161 N   0  0  0  0  0  0  0  0  0  0  0  0
   66.0728   39.1747   61.3138 C   0  0  0  0  0  0  0  0  0  0  0  0
   66.1197   39.6609   60.0121 C   0  0  0  0  0  0  0  0  0  0  0  0
   65.1804   36.0967   63.3823 C   0  0  0  0  0  0  0  0  0  0  0  0
   64.9717   36.3907   64.8523 C   0  0  0  0  0  0  0  0  0  0  0  0
   65.8703   37.5618   65.1458 C   0  0  0  0  0  0  0  0  0  0  0  0
   67.7134   41.8693   56.1956 C   0  0  0  0  0  0  0  0  0  0  0  0
   67.9206   44.2028   55.1743 N   0  0  0  0  0  0  0  0  0  0  0  0
   68.2336   43.2862   56.2097 C   0  0  0  0  0  0  0  0  0  0  0  0
   68.9572   43.6516   57.1649 O   0  0  0  0  0  0  0  0  0  0  0  0
   69.8765   48.4000   56.9818 C   0  0  0  0  0  0  0  0  0  0  0  0
   69.2761   47.6091   55.8824 C   0  0  0  0  0  0  0  0  0  0  0  0
   69.1019   48.2024   54.6608 C   0  0  0  0  0  0  0  0  0  0  0  0
   68.5536   47.4891   53.6447 C   0  0  0  0  0  0  0  0  0  0  0  0
   68.1681   46.1645   53.8335 C   0  0  0  0  0  0  0  0  0  0  0  0
   67.5848   45.4688   52.6879 C   0  0  0  0  0  0  0  0  0  0  0  0
   68.3335   45.5382   55.0634 C   0  0  0  0  0  0  0  0  0  0  0  0
   68.8864   46.2860   56.0556 C   0  0  0  0  0  0  0  0  0  0  0  0
 23 24  1  0
 24 25  2  0
 24 30  1  0
 25 26  1  0
 26 27  2  0
 27 28  1  0
 27 29  1  0
 29 20  1  0
 29 30  2  0
 20 21  1  0
 21 22  2  0
 21 19  1  0
 19  1  1  0
  1  2  1  0
  1  3  1  0
  3  4  2  0
  3  5  1  0
  5  6  2  0
  5 15  1  0
  6  7  1  0
  7  8  2  0
  8  9  1  0
  8 14  1  0
  9 10  2  0
  9 11  1  0
 11 12  1  0
 11 18  1  0
 12 13  2  0
 12 16  1  0
 13 14  1  0
 14 15  2  0
 16 17  1  0
 17 18  1  0
M  END
>  <minimizedAffinity>  (928) 
-8.60184

$$$$
data/reference_output_2/data/smiles/173112.pdb
     RDKit          3D

 25 27  0  0  0  0  0  0  0  0999 V2000
   70.1300   47.6922   57.9452 C   0  0  0  0  0  0  0  0  0  0  0  0
   71.0319   46.5128   57.9556 C   0  0  0  0  0  0  0  0  0  0  0  0
   69.7636   44.9373   59.1780 O   0  0  0  0  0  0  0  0  0  0  0  0
   70.4191   45.2348   58.1743 C   0  0  0  0  0  0  0  0  0  0  0  0
   70.5230   44.1497   57.2024 N   0  0  0  0  0  0  0  0  0  0  0  0
   69.9243   42.8984   57.4172 C   0  0  0  0  0  0  0  0  0  0  0  0
   70.5437   41.9479   58.1802 C   0  0  0  0  0  0  0  0  0  0  0  0
   69.9607   40.7004   58.4016 C   0  0  0  0  0  0  0  0  0  0  0  0
   68.7303   40.4356   57.8313 C   0  0  0  0  0  0  0  0  0  0  0  0
   67.9859   38.8731   58.1042 Cl  0  0  0  0  0  0  0  0  0  0  0  0
   68.0878   41.3696   57.0640 C   0  0  0  0  0  0  0  0  0  0  0  0
   68.7045   42.6107   56.8640 C   0  0  0  0  0  0  0  0  0  0  0  0
   68.0976   43.5542   56.1120 F   0  0  0  0  0  0  0  0  0  0  0  0
   69.1395   47.7701   56.9251 N   0  0  0  0  0  0  0  0  0  0  0  0
   69.3410   48.0823   55.5344 C   0  0  0  0  0  0  0  0  0  0  0  0
   69.9677   49.1700   55.2541 N   0  0  0  0  0  0  0  0  0  0  0  0
   70.0629   49.2892   53.5455 S   0  0  0  0  0  0  0  0  0  0  0  0
   69.3542   50.5035   53.0299 O   0  0  0  0  0  0  0  0  0  0  0  0
   71.4655   49.1945   53.0391 O   0  0  0  0  0  0  0  0  0  0  0  0
   69.1778   47.8218   53.1878 C   0  0  0  0  0  0  0  0  0  0  0  0
   68.8163   47.2461   51.9933 C   0  0  0  0  0  0  0  0  0  0  0  0
   68.1161   46.0779   52.0079 C   0  0  0  0  0  0  0  0  0  0  0  0
   67.7994   45.5221   53.2222 C   0  0  0  0  0  0  0  0  0  0  0  0
   68.1643   46.1062   54.3959 C   0  0  0  0  0  0  0  0  0  0  0  0
   68.8862   47.3088   54.4282 C   0  0  0  0  0  0  0  0  0  0  0  0
  3  4  2  0
  4  2  1  0
  4  5  1  0
  2  1  1  0
  1 14  1  0
 14 15  1  0
 15 16  2  0
 15 25  1  0
 16 17  1  0
 17 18  2  0
 17 19  2  0
 17 20  1  0
 20 21  1  0
 20 25  2  0
 21 22  2  0
 22 23  1  0
 23 24  2  0
 24 25  1  0
  5  6  1  0
  6  7  2  0
  6 12  1  0
  7  8  1  0
  8  9  2  0
  9 10  1  0
  9 11  1  0
 11 12  2  0
 12 13  1  0
M  CHG  1  16   1
M  END
>  <minimizedAffinity>  (929) 
-8.66667

$$$$
data/reference_output_2/data/smiles/173171.pdb
     RDKit          3D

 24 25  0  0  0  0  0  0  0  0999 V2000
   68.9466   47.6721   52.6710 C   0  0  0  0  0  0  0  0  0  0  0  0
   68.3656   47.1609   51.5141 C   0  0  0  0  0  0  0  0  0  0  0  0
   67.6382   45.9915   51.5696 C   0  0  0  0  0  0  0  0  0  0  0  0
   67.0695   45.4961   50.4239 F   0  0  0  0  0  0  0  0  0  0  0  0
   67.4953   45.3411   52.7713 C   0  0  0  0  0  0  0  0  0  0  0  0
   66.7758   44.1830   52.8286 F   0  0  0  0  0  0  0  0  0  0  0  0
   68.0884   45.8740   53.9203 C   0  0  0  0  0  0  0  0  0  0  0  0
   68.8174   47.0395   53.8863 C   0  0  0  0  0  0  0  0  0  0  0  0
   69.8102   49.7748   50.9292 N   0  0  0  0  0  0  0  0  0  0  0  0
   69.8543   49.1471   52.5599 S   0  0  0  0  0  0  0  0  0  0  0  0
   69.3564   50.1850   53.5235 O   0  0  0  0  0  0  0  0  0  0  0  0
   71.2993   48.8917   52.8687 O   0  0  0  0  0  0  0  0  0  0  0  0
   69.4199   47.5788   55.0450 N   0  0  0  0  0  0  0  0  0  0  0  0
   69.1046   47.0123   56.6443 S   0  0  0  0  0  0  0  0  0  0  0  0
   69.1594   45.5325   56.7354 O   0  0  0  0  0  0  0  0  0  0  0  0
   67.7452   47.4729   57.0821 O   0  0  0  0  0  0  0  0  0  0  0  0
   70.2865   47.6416   57.7950 C   0  0  0  0  0  0  0  0  0  0  0  0
   70.9508   46.7891   58.6520 C   0  0  0  0  0  0  0  0  0  0  0  0
   71.8848   47.2157   59.5708 C   0  0  0  0  0  0  0  0  0  0  0  0
   72.1450   48.5675   59.6079 C   0  0  0  0  0  0  0  0  0  0  0  0
   71.4994   49.4491   58.7639 C   0  0  0  0  0  0  0  0  0  0  0  0
   71.8626   51.1802   58.8430 Cl  0  0  0  0  0  0  0  0  0  0  0  0
   70.5720   48.9838   57.8609 C   0  0  0  0  0  0  0  0  0  0  0  0
   69.7440   50.0875   56.7846 Cl  0  0  0  0  0  0  0  0  0  0  0  0
  9 10  1  0
 10 11  2  0
 10 12  2  0
 10  1  1  0
  1  2  2  0
  1  8  1  0
  2  3  1  0
  3  4  1  0
  3  5  2  0
  5  6  1  0
  5  7  1  0
  7  8  2  0
  8 13  1  0
 13 14  1  0
 14 15  2  0
 14 16  2  0
 14 17  1  0
 17 18  2  0
 17 23  1  0
 18 19  1  0
 19 20  2  0
 20 21  1  0
 21 22  1  0
 21 23  2  0
 23 24  1  0
M  END
>  <minimizedAffinity>  (930) 
-8.59223

$$$$
data/reference_output_2/data/smiles/173280.pdb
     RDKit          3D

 22 24  0  0  0  0  0  0  0  0999 V2000
   68.9465   45.3481   56.3556 C   0  0  0  0  0  0  0  0  0  0  0  0
   69.8982   46.0472   57.0077 N   0  0  0  0  0  0  0  0  0  0  0  0
   70.7250   45.4180   57.8477 C   0  0  0  0  0  0  0  0  0  0  0  0
   70.6445   44.0378   58.0843 C   0  0  0  0  0  0  0  0  0  0  0  0
   69.6735   43.3314   57.4171 C   0  0  0  0  0  0  0  0  0  0  0  0
   68.8742   44.0351   56.5840 N   0  0  0  0  0  0  0  0  0  0  0  0
   69.4429   41.9122   57.5815 C   0  0  0  0  0  0  0  0  0  0  0  0
   68.2935   41.3036   57.1256 C   0  0  0  0  0  0  0  0  0  0  0  0
   68.0754   39.9375   57.3398 C   0  0  0  0  0  0  0  0  0  0  0  0
   69.0085   39.1821   58.0112 C   0  0  0  0  0  0  0  0  0  0  0  0
   70.1150   39.7875   58.4440 N   0  0  0  0  0  0  0  0  0  0  0  0
   70.3506   41.1271   58.2439 C   0  0  0  0  0  0  0  0  0  0  0  0
   68.0142   45.9957   55.5195 N   0  0  0  0  0  0  0  0  0  0  0  0
   69.2928   47.6134   52.4299 C   0  0  0  0  0  0  0  0  0  0  0  0
   68.6140   46.9223   51.4482 C   0  0  0  0  0  0  0  0  0  0  0  0
   67.7464   45.9053   51.8246 C   0  0  0  0  0  0  0  0  0  0  0  0
   67.5730   45.5990   53.1620 C   0  0  0  0  0  0  0  0  0  0  0  0
   68.2418   46.2778   54.1610 C   0  0  0  0  0  0  0  0  0  0  0  0
   69.0991   47.2831   53.7716 C   0  0  0  0  0  0  0  0  0  0  0  0
   69.9711   49.3593   51.0260 O   0  0  0  0  0  0  0  0  0  0  0  0
   70.1919   48.7037   52.0738 C   0  0  0  0  0  0  0  0  0  0  0  0
   71.2848   49.0613   52.8379 O   0  0  0  0  0  0  0  0  0  0  0  0
 20 21  2  0
 21 22  1  0
 21 14  1  0
 14 15  2  0
 14 19  1  0
 15 16  1  0
 16 17  2  0
 17 18  1  0
 18 13  1  0
 18 19  2  0
 13  1  1  0
  1  2  2  0
  1  6  1  0
  2  3  1  0
  3  4  2  0
  4  5  1  0
  5  7  1  0
  5  6  2  0
  7  8  2  0
  7 12  1  0
  8  9  1  0
  9 10  2  0
 10 11  1  0
 11 12  2  0
M  END
>  <minimizedAffinity>  (931) 
-9.32116

$$$$
data/reference_output_2/data/smiles/173313.pdb
     RDKit          3D

 32 35  0  0  0  0  0  0  0  0999 V2000
   70.8872   44.2549   58.8691 C   0  0  0  0  0  0  0  0  0  0  0  0
   70.8038   45.5678   58.7342 C   0  0  0  0  0  0  0  0  0  0  0  0
   71.4471   46.3791   59.5938 N   0  0  0  0  0  0  0  0  0  0  0  0
   71.3550   47.7183   59.4448 C   0  0  0  0  0  0  0  0  0  0  0  0
   71.9673   48.4688   60.2630 O   0  0  0  0  0  0  0  0  0  0  0  0
   70.6179   48.3163   58.4366 C   0  0  0  0  0  0  0  0  0  0  0  0
   70.5367   49.6484   58.3024 C   0  0  0  0  0  0  0  0  0  0  0  0
   69.9795   47.4965   57.5849 N   0  0  0  0  0  0  0  0  0  0  0  0
   70.0668   46.1530   57.7250 C   0  0  0  0  0  0  0  0  0  0  0  0
   69.4569   45.4047   56.9112 O   0  0  0  0  0  0  0  0  0  0  0  0
   69.7603   50.2603   57.2394 C   0  0  0  0  0  0  0  0  0  0  0  0
   68.6704   51.0630   57.4514 C   0  0  0  0  0  0  0  0  0  0  0  0
   67.9655   51.6230   56.3767 C   0  0  0  0  0  0  0  0  0  0  0  0
   68.3447   51.3842   55.0886 C   0  0  0  0  0  0  0  0  0  0  0  0
   69.4447   50.5756   54.8577 C   0  0  0  0  0  0  0  0  0  0  0  0
   70.1251   50.0345   55.9177 C   0  0  0  0  0  0  0  0  0  0  0  0
   69.8223   50.3240   53.4637 C   0  0  0  0  0  0  0  0  0  0  0  0
   70.2974   51.2717   52.7455 O   0  0  0  0  0  0  0  0  0  0  0  0
   69.6866   49.0282   52.8272 C   0  0  0  0  0  0  0  0  0  0  0  0
   68.9669   47.9158   53.2284 C   0  0  0  0  0  0  0  0  0  0  0  0
   69.1582   46.9453   52.2646 C   0  0  0  0  0  0  0  0  0  0  0  0
   69.9385   47.4418   51.3492 O   0  0  0  0  0  0  0  0  0  0  0  0
   70.2831   48.6618   51.6245 C   0  0  0  0  0  0  0  0  0  0  0  0
   72.9359   43.1275   59.8269 C   0  0  0  0  0  0  0  0  0  0  0  0
   73.2833   42.5634   61.0228 N   0  0  0  0  0  0  0  0  0  0  0  0
   72.2244   42.6854   61.8304 C   0  0  0  0  0  0  0  0  0  0  0  0
   71.2296   43.3149   61.1509 N   0  0  0  0  0  0  0  0  0  0  0  0
   71.6464   43.5983   59.9088 C   0  0  0  0  0  0  0  0  0  0  0  0
   73.1669   42.7376   57.3655 C   0  0  0  0  0  0  0  0  0  0  0  0
   73.8083   43.2287   58.6409 C   0  0  0  0  0  0  0  0  0  0  0  0
   74.4056   44.6136   58.4656 C   0  0  0  0  0  0  0  0  0  0  0  0
   75.0205   42.2983   58.8390 C   0  0  0  0  0  0  0  0  0  0  0  0
 29 30  1  0
 30 31  1  0
 30 32  1  0
 30 24  1  0
 24 25  1  0
 24 28  2  0
 25 26  1  0
 26 27  2  0
 27 28  1  0
 28  1  1  0
  1  2  2  0
  2  3  1  0
  2  9  1  0
  3  4  1  0
  4  5  2  0
  4  6  1  0
  6  7  2  0
  6  8  1  0
  7 11  1  0
 11 12  2  0
 11 16  1  0
 12 13  1  0
 13 14  2  0
 14 15  1  0
 15 17  1  0
 15 16  2  0
 17 18  2  0
 17 19  1  0
 19 20  1  0
 19 23  2  0
 20 21  2  0
 21 22  1  0
 22 23  1  0
  8  9  1  0
  9 10  2  0
M  CHG  1  27   1
M  END
>  <minimizedAffinity>  (932) 
-8.94005

$$$$
data/reference_output_2/data/smiles/173495.pdb
     RDKit          3D

 25 27  0  0  0  0  0  0  0  0999 V2000
   69.7943   46.1220   57.2887 N   0  0  0  0  0  0  0  0  0  0  0  0
   69.4524   47.4842   57.2742 C   0  0  0  0  0  0  0  0  0  0  0  0
   70.0568   48.2705   58.0507 O   0  0  0  0  0  0  0  0  0  0  0  0
   70.8292   45.7049   58.2127 C   0  0  0  0  0  0  0  0  0  0  0  0
   71.1911   43.2218   57.8360 N   0  0  0  0  0  0  0  0  0  0  0  0
   70.5626   44.2771   58.5674 C   0  0  0  0  0  0  0  0  0  0  0  0
   69.7980   44.0000   59.4918 O   0  0  0  0  0  0  0  0  0  0  0  0
   70.6956   37.6499   58.9402 C   0  0  0  0  0  0  0  0  0  0  0  0
   70.7629   39.1038   58.6313 C   0  0  0  0  0  0  0  0  0  0  0  0
   72.0054   39.7233   58.6949 C   0  0  0  0  0  0  0  0  0  0  0  0
   72.0938   41.0713   58.4257 C   0  0  0  0  0  0  0  0  0  0  0  0
   70.9694   41.8499   58.0876 C   0  0  0  0  0  0  0  0  0  0  0  0
   69.8008   41.2072   58.0390 N   0  0  0  0  0  0  0  0  0  0  0  0
   69.6848   39.8793   58.2995 C   0  0  0  0  0  0  0  0  0  0  0  0
   68.4259   48.1243   56.4097 C   0  0  0  0  0  0  0  0  0  0  0  0
   69.0292   48.3702   55.0900 C   0  0  0  0  0  0  0  0  0  0  0  0
   69.9373   49.3776   54.8682 C   0  0  0  0  0  0  0  0  0  0  0  0
   70.5489   49.5888   53.6225 C   0  0  0  0  0  0  0  0  0  0  0  0
   70.2331   48.7481   52.5494 C   0  0  0  0  0  0  0  0  0  0  0  0
   69.3220   47.7281   52.7514 C   0  0  0  0  0  0  0  0  0  0  0  0
   69.0168   46.9209   51.6733 C   0  0  0  0  0  0  0  0  0  0  0  0
   68.1035   45.9247   51.8788 C   0  0  0  0  0  0  0  0  0  0  0  0
   67.4918   45.7003   53.0913 C   0  0  0  0  0  0  0  0  0  0  0  0
   67.8363   46.5419   54.1385 C   0  0  0  0  0  0  0  0  0  0  0  0
   68.7475   47.5580   53.9874 C   0  0  0  0  0  0  0  0  0  0  0  0
  8  9  1  0
  9 10  2  0
  9 14  1  0
 10 11  1  0
 11 12  2  0
 12  5  1  0
 12 13  1  0
  5  6  1  0
  6  7  2  0
  6  4  1  0
  4  1  1  0
  1  2  1  0
  2  3  2  0
  2 15  1  0
 15 16  1  0
 16 17  2  0
 16 25  1  0
 17 18  1  0
 18 19  2  0
 19 20  1  0
 20 21  1  0
 20 25  2  0
 21 22  2  0
 22 23  1  0
 23 24  2  0
 24 25  1  0
 13 14  2  0
M  END
>  <minimizedAffinity>  (933) 
-8.53610

$$$$
data/reference_output_2/data/smiles/173570.pdb
     RDKit          3D

 21 23  0  0  0  0  0  0  0  0999 V2000
   70.1275   49.6368   53.2428 S   0  0  0  0  0  0  0  0  0  0  0  0
   69.6722   49.8916   51.8068 O   0  0  0  0  0  0  0  0  0  0  0  0
   71.5909   49.3452   53.1398 O   0  0  0  0  0  0  0  0  0  0  0  0
   69.8359   51.0530   54.1959 N   0  0  0  0  0  0  0  0  0  0  0  0
   68.5987   51.5046   54.5634 C   0  0  0  0  0  0  0  0  0  0  0  0
   68.7102   52.6189   55.3485 C   0  0  0  0  0  0  0  0  0  0  0  0
   70.0651   52.8875   55.4850 C   0  0  0  0  0  0  0  0  0  0  0  0
   70.7335   53.9022   56.1588 C   0  0  0  0  0  0  0  0  0  0  0  0
   72.1091   53.9388   56.1100 C   0  0  0  0  0  0  0  0  0  0  0  0
   72.7663   52.9591   55.3869 C   0  0  0  0  0  0  0  0  0  0  0  0
   72.0951   51.9592   54.7243 C   0  0  0  0  0  0  0  0  0  0  0  0
   70.7046   51.9003   54.7602 C   0  0  0  0  0  0  0  0  0  0  0  0
   68.9005   47.1924   53.0342 C   0  0  0  0  0  0  0  0  0  0  0  0
   68.2820   46.0691   53.6131 C   0  0  0  0  0  0  0  0  0  0  0  0
   68.0854   45.9835   54.9514 C   0  0  0  0  0  0  0  0  0  0  0  0
   68.5065   47.0279   55.7461 C   0  0  0  0  0  0  0  0  0  0  0  0
   69.1097   48.1290   55.2087 C   0  0  0  0  0  0  0  0  0  0  0  0
   69.3140   48.2213   53.8382 C   0  0  0  0  0  0  0  0  0  0  0  0
   68.0369   46.9558   50.9288 O   0  0  0  0  0  0  0  0  0  0  0  0
   69.0407   47.1529   51.6340 N   0  0  0  0  0  0  0  0  0  0  0  0
   70.2287   47.3176   51.0267 O   0  0  0  0  0  0  0  0  0  0  0  0
 19 20  2  0
 20 21  1  0
 20 13  1  0
 13 14  2  0
 13 18  1  0
 14 15  1  0
 15 16  2  0
 16 17  1  0
 17 18  2  0
 18  1  1  0
  1  2  2  0
  1  3  2  0
  1  4  1  0
  4  5  1  0
  4 12  1  0
  5  6  2  0
  6  7  1  0
  7  8  1  0
  7 12  2  0
  8  9  2  0
  9 10  1  0
 10 11  2  0
 11 12  1  0
M  CHG  2  20   1  21  -1
M  END
>  <minimizedAffinity>  (934) 
-8.50662

$$$$
data/reference_output_2/data/smiles/173581.pdb
     RDKit          3D

 29 32  0  0  0  0  0  0  0  0999 V2000
   70.7585   39.3186   58.4818 C   0  0  0  0  0  0  0  0  0  0  0  0
   71.5758   40.4216   58.5724 C   0  0  0  0  0  0  0  0  0  0  0  0
   73.0107   40.4984   58.9565 C   0  0  0  0  0  0  0  0  0  0  0  0
   70.8437   41.5001   58.2827 N   0  0  0  0  0  0  0  0  0  0  0  0
   69.5687   41.1797   58.0018 N   0  0  0  0  0  0  0  0  0  0  0  0
   69.5218   39.8198   58.1259 C   0  0  0  0  0  0  0  0  0  0  0  0
   68.3042   39.0220   57.8194 C   0  0  0  0  0  0  0  0  0  0  0  0
   73.1228   35.2055   56.8923 C   0  0  0  0  0  0  0  0  0  0  0  0
   72.2155   35.8946   57.8891 C   0  0  0  0  0  0  0  0  0  0  0  0
   71.9389   37.2239   57.7670 C   0  0  0  0  0  0  0  0  0  0  0  0
   71.1318   37.9000   58.6308 C   0  0  0  0  0  0  0  0  0  0  0  0
   70.6002   37.1694   59.6481 N   0  0  0  0  0  0  0  0  0  0  0  0
   70.8785   35.8516   59.7634 C   0  0  0  0  0  0  0  0  0  0  0  0
   70.3846   35.1695   60.7077 O   0  0  0  0  0  0  0  0  0  0  0  0
   71.6749   35.2055   58.9021 N   0  0  0  0  0  0  0  0  0  0  0  0
   68.5395   42.1175   57.6993 C   0  0  0  0  0  0  0  0  0  0  0  0
   68.7723   43.1448   56.6828 C   0  0  0  0  0  0  0  0  0  0  0  0
   69.2946   44.4544   57.0391 C   0  0  0  0  0  0  0  0  0  0  0  0
   69.9771   44.7297   58.0499 O   0  0  0  0  0  0  0  0  0  0  0  0
   69.0343   45.5972   56.1769 N   0  0  0  0  0  0  0  0  0  0  0  0
   69.5670   46.8758   56.5597 C   0  0  0  0  0  0  0  0  0  0  0  0
   68.7711   48.0206   55.9205 C   0  0  0  0  0  0  0  0  0  0  0  0
   68.8866   47.7907   54.4571 C   0  0  0  0  0  0  0  0  0  0  0  0
   69.2282   48.7852   53.5854 C   0  0  0  0  0  0  0  0  0  0  0  0
   69.3200   48.5169   52.2364 C   0  0  0  0  0  0  0  0  0  0  0  0
   69.0683   47.2447   51.7593 C   0  0  0  0  0  0  0  0  0  0  0  0
   68.7219   46.2444   52.6587 C   0  0  0  0  0  0  0  0  0  0  0  0
   68.6333   46.5251   54.0022 C   0  0  0  0  0  0  0  0  0  0  0  0
   68.2541   45.4202   54.9698 C   0  0  0  0  0  0  0  0  0  0  0  0
  8  9  1  0
  9 10  1  0
  9 15  2  0
 10 11  2  0
 11  1  1  0
 11 12  1  0
  1  2  1  0
  1  6  2  0
  2  3  1  0
  2  4  2  0
  4  5  1  0
  5 16  1  0
  5  6  1  0
 16 17  1  0
 17 18  1  0
 18 19  2  0
 18 20  1  0
 20 21  1  0
 20 29  1  0
 21 22  1  0
 22 23  1  0
 23 24  2  0
 23 28  1  0
 24 25  1  0
 25 26  2  0
 26 27  1  0
 27 28  2  0
 28 29  1  0
  6  7  1  0
 12 13  1  0
 13 14  2  0
 13 15  1  0
M  END
>  <minimizedAffinity>  (935) 
-8.50562

$$$$
data/reference_output_2/data/smiles/173627.pdb
     RDKit          3D

 32 34  0  0  0  0  0  0  0  0999 V2000
   70.2755   42.5291   58.6127 C   0  0  1  0  0  0  0  0  0  0  0  0
   69.8222   43.1613   59.8910 C   0  0  0  0  0  0  0  0  0  0  0  0
   68.6267   43.3801   60.1676 O   0  0  0  0  0  0  0  0  0  0  0  0
   70.8249   43.5213   60.8225 N   0  0  0  0  0  0  0  0  0  0  0  0
   72.1281   42.8921   60.8848 C   0  0  0  0  0  0  0  0  0  0  0  0
   72.4564   42.1740   59.5869 C   0  0  0  0  0  0  0  0  0  0  0  0
   71.2849   41.5950   58.9945 N   0  0  0  0  0  0  0  0  0  0  0  0
   71.1507   40.2146   58.8203 C   0  0  0  0  0  0  0  0  0  0  0  0
   70.0862   39.8204   58.2760 O   0  0  0  0  0  0  0  0  0  0  0  0
   72.1089   39.2449   59.2069 N   0  0  0  0  0  0  0  0  0  0  0  0
   71.9714   37.8551   59.0287 C   0  0  0  0  0  0  0  0  0  0  0  0
   72.5327   37.2917   57.8652 C   0  0  0  0  0  0  0  0  0  0  0  0
   72.4685   35.9520   57.5739 C   0  0  0  0  0  0  0  0  0  0  0  0
   73.0709   35.3936   56.3372 C   0  0  0  0  0  0  0  0  0  0  0  0
   71.8190   35.1190   58.4705 C   0  0  0  0  0  0  0  0  0  0  0  0
   71.2506   35.6048   59.6239 C   0  0  0  0  0  0  0  0  0  0  0  0
   70.5630   34.7017   60.5668 C   0  0  0  0  0  0  0  0  0  0  0  0
   71.3538   36.9796   59.8575 C   0  0  0  0  0  0  0  0  0  0  0  0
   69.1677   42.0592   57.7633 C   0  0  0  0  0  0  0  0  0  0  0  0
   69.3032   44.4673   56.9261 N   0  0  0  0  0  0  0  0  0  0  0  0
   68.7566   43.1653   56.8174 C   0  0  0  0  0  0  0  0  0  0  0  0
   67.9163   42.9597   55.9075 O   0  0  0  0  0  0  0  0  0  0  0  0
   68.2276   46.4367   53.9295 C   0  0  0  0  0  0  0  0  0  0  0  0
   68.2500   47.7139   54.4369 C   0  0  0  0  0  0  0  0  0  0  0  0
   68.6187   47.9100   55.7586 C   0  0  0  0  0  0  0  0  0  0  0  0
   68.9634   46.8162   56.5615 C   0  0  0  0  0  0  0  0  0  0  0  0
   68.9426   45.5330   56.0579 C   0  0  0  0  0  0  0  0  0  0  0  0
   68.5777   45.3631   54.7574 C   0  0  0  0  0  0  0  0  0  0  0  0
   67.8415   46.2310   52.5482 C   0  0  0  0  0  0  0  0  0  0  0  0
   66.9593   45.3817   52.2864 O   0  0  0  0  0  0  0  0  0  0  0  0
   69.7299   47.4058   51.4971 C   0  0  0  0  0  0  0  0  0  0  0  0
   68.3970   46.9291   51.4860 O   0  0  0  0  0  0  0  0  0  0  0  0
 31 32  1  0
 32 29  1  0
 29 30  2  0
 29 23  1  0
 23 24  2  0
 23 28  1  0
 24 25  1  0
 25 26  2  0
 26 27  1  0
 27 20  1  0
 27 28  2  0
 20 21  1  0
 21 22  2  0
 21 19  1  0
  1 19  1  1
  1  2  1  0
  1  7  1  0
  2  3  2  0
  2  4  1  0
  4  5  1  0
  5  6  1  0
  6  7  1  0
  7  8  1  0
  8  9  2  0
  8 10  1  0
 10 11  1  0
 11 12  2  0
 11 18  1  0
 12 13  1  0
 13 14  1  0
 13 15  2  0
 15 16  1  0
 16 17  1  0
 16 18  2  0
M  END
>  <minimizedAffinity>  (936) 
-8.97070

$$$$
data/reference_output_2/data/smiles/173710.pdb
     RDKit          3D

 25 27  0  0  0  0  0  0  0  0999 V2000
   71.0428   44.4274   58.7130 S   0  0  0  0  0  0  0  0  0  0  0  0
   71.0960   44.8022   60.2083 O   0  0  0  0  0  0  0  0  0  0  0  0
   72.4492   44.8159   58.2394 O   0  0  0  0  0  0  0  0  0  0  0  0
   70.8549   42.6835   58.5875 C   0  0  0  0  0  0  0  0  0  0  0  0
   69.6025   42.1480   58.2440 C   0  0  0  0  0  0  0  0  0  0  0  0
   69.3895   40.7885   58.1680 C   0  0  0  0  0  0  0  0  0  0  0  0
   70.3977   39.8883   58.4273 C   0  0  0  0  0  0  0  0  0  0  0  0
   70.2136   38.5212   58.3589 C   0  0  0  0  0  0  0  0  0  0  0  0
   71.2259   37.6203   58.6184 C   0  0  0  0  0  0  0  0  0  0  0  0
   72.4682   38.1256   58.9590 C   0  0  0  0  0  0  0  0  0  0  0  0
   72.6449   39.4922   59.0258 C   0  0  0  0  0  0  0  0  0  0  0  0
   71.6333   40.3937   58.7657 C   0  0  0  0  0  0  0  0  0  0  0  0
   71.8393   41.7669   58.8398 C   0  0  0  0  0  0  0  0  0  0  0  0
   69.8598   45.3515   58.0209 N   0  0  0  0  0  0  0  0  0  0  0  0
   68.7751   46.4248   56.0829 C   0  0  0  0  0  0  0  0  0  0  0  0
   68.0127   47.1595   56.8263 O   0  0  0  0  0  0  0  0  0  0  0  0
   69.6764   45.5396   56.7005 N   0  0  0  0  0  0  0  0  0  0  0  0
   69.7970   49.1083   52.0225 C   0  0  0  0  0  0  0  0  0  0  0  0
   69.1763   47.8939   52.6570 C   0  0  0  0  0  0  0  0  0  0  0  0
   68.5428   46.9507   51.8790 C   0  0  0  0  0  0  0  0  0  0  0  0
   67.9834   45.8515   52.4769 C   0  0  0  0  0  0  0  0  0  0  0  0
   68.0246   45.6356   53.8677 C   0  0  0  0  0  0  0  0  0  0  0  0
   67.4073   44.5185   54.3439 F   0  0  0  0  0  0  0  0  0  0  0  0
   68.6510   46.5665   54.6366 C   0  0  0  0  0  0  0  0  0  0  0  0
   69.2199   47.6893   54.0094 C   0  0  0  0  0  0  0  0  0  0  0  0
 18 19  1  0
 19 20  2  0
 19 25  1  0
 20 21  1  0
 21 22  2  0
 22 23  1  0
 22 24  1  0
 24 15  1  0
 24 25  2  0
 15 16  2  0
 15 17  1  0
 17 14  1  0
 14  1  1  0
  1  2  2  0
  1  3  2  0
  1  4  1  0
  4  5  2  0
  4 13  1  0
  5  6  1  0
  6  7  2  0
  7  8  1  0
  7 12  1  0
  8  9  2  0
  9 10  1  0
 10 11  2  0
 11 12  1  0
 12 13  2  0
M  END
>  <minimizedAffinity>  (937) 
-8.77150

$$$$
data/reference_output_2/data/smiles/173720.pdb
     RDKit          3D

 27 30  0  0  0  0  0  0  0  0999 V2000
   70.1510   42.0212   59.8040 C   0  0  0  0  0  0  0  0  0  0  0  0
   69.3345   41.5933   58.6629 C   0  0  0  0  0  0  0  0  0  0  0  0
   69.0542   42.5445   57.6896 C   0  0  0  0  0  0  0  0  0  0  0  0
   69.3708   43.8773   57.5201 C   0  0  0  0  0  0  0  0  0  0  0  0
   70.0596   44.5636   58.3143 O   0  0  0  0  0  0  0  0  0  0  0  0
   68.8351   44.3399   56.3753 N   0  0  0  0  0  0  0  0  0  0  0  0
   68.1890   43.3272   55.8236 N   0  0  0  0  0  0  0  0  0  0  0  0
   68.2946   42.2143   56.5884 C   0  0  0  0  0  0  0  0  0  0  0  0
   67.8401   40.9281   56.5033 C   0  0  0  0  0  0  0  0  0  0  0  0
   68.1432   40.0040   57.5004 C   0  0  0  0  0  0  0  0  0  0  0  0
   67.7118   38.8301   57.3948 O   0  0  0  0  0  0  0  0  0  0  0  0
   68.8937   40.3305   58.5889 N   0  0  0  0  0  0  0  0  0  0  0  0
   68.9441   45.7036   55.8383 C   0  0  0  0  0  0  0  0  0  0  0  0
   68.1003   45.8217   54.5671 C   0  0  0  0  0  0  0  0  0  0  0  0
   68.7124   46.8115   53.6577 C   0  0  0  0  0  0  0  0  0  0  0  0
   69.1116   48.0476   54.1722 C   0  0  0  0  0  0  0  0  0  0  0  0
   69.6850   48.9865   53.3410 C   0  0  0  0  0  0  0  0  0  0  0  0
   69.8886   48.7608   51.9969 C   0  0  0  0  0  0  0  0  0  0  0  0
   69.4917   47.5378   51.4946 C   0  0  0  0  0  0  0  0  0  0  0  0
   68.9193   46.5963   52.3132 C   0  0  0  0  0  0  0  0  0  0  0  0
   69.1743   39.3050   59.5889 C   0  0  0  0  0  0  0  0  0  0  0  0
   70.1801   38.3135   59.1283 C   0  0  0  0  0  0  0  0  0  0  0  0
   70.2434   37.0413   59.6510 C   0  0  0  0  0  0  0  0  0  0  0  0
   71.1891   36.1053   59.2149 C   0  0  0  0  0  0  0  0  0  0  0  0
   72.0891   36.4542   58.2326 C   0  0  0  0  0  0  0  0  0  0  0  0
   72.0028   37.7333   57.7264 C   0  0  0  0  0  0  0  0  0  0  0  0
   71.0865   38.6034   58.1666 N   0  0  0  0  0  0  0  0  0  0  0  0
  1  2  1  0
  2  3  2  0
  2 12  1  0
  3  4  1  0
  3  8  1  0
  4  5  2  0
  4  6  1  0
  6 13  1  0
  6  7  1  0
 13 14  1  0
 14 15  1  0
 15 16  2  0
 15 20  1  0
 16 17  1  0
 17 18  2  0
 18 19  1  0
 19 20  2  0
  7  8  1  0
  8  9  2  0
  9 10  1  0
 10 11  2  0
 10 12  1  0
 12 21  1  0
 21 22  1  0
 22 23  2  0
 22 27  1  0
 23 24  1  0
 24 25  2  0
 25 26  1  0
 26 27  2  0
M  END
>  <minimizedAffinity>  (938) 
-8.68440

$$$$
data/reference_output_2/data/smiles/173730.pdb
     RDKit          3D

 26 29  0  0  0  0  0  0  0  0999 V2000
   70.2062   50.7884   55.3994 N   0  0  0  0  0  0  0  0  0  0  0  0
   68.8589   51.2551   55.6123 C   0  0  0  0  0  0  0  0  0  0  0  0
   68.9870   51.9930   56.9265 C   0  0  0  0  0  0  0  0  0  0  0  0
   70.0482   51.1941   57.6276 C   0  0  2  0  0  0  0  0  0  0  0  0
   71.4164   51.8484   57.6739 C   0  0  0  0  0  0  0  0  0  0  0  0
   71.9258   50.4940   57.2425 C   0  0  1  0  0  0  0  0  0  0  0  0
   70.6405   50.2718   56.5694 C   0  0  2  0  0  0  0  0  0  0  0  0
   70.5477   50.2466   53.8794 S   0  0  0  0  0  0  0  0  0  0  0  0
   72.0070   49.8491   53.8247 O   0  0  0  0  0  0  0  0  0  0  0  0
   70.3199   51.2168   52.8014 O   0  0  0  0  0  0  0  0  0  0  0  0
   67.5446   45.2196   52.2989 C   0  0  0  0  0  0  0  0  0  0  0  0
   68.2702   46.4466   52.7162 C   0  0  0  0  0  0  0  0  0  0  0  0
   68.2892   46.9194   54.0113 C   0  0  0  0  0  0  0  0  0  0  0  0
   68.9635   48.0578   54.3911 C   0  0  0  0  0  0  0  0  0  0  0  0
   69.6587   48.7738   53.4463 C   0  0  0  0  0  0  0  0  0  0  0  0
   69.6650   48.3379   52.1469 C   0  0  0  0  0  0  0  0  0  0  0  0
   68.9822   47.1966   51.7966 C   0  0  0  0  0  0  0  0  0  0  0  0
   73.1387   50.4825   56.4799 N   0  0  0  0  0  0  0  0  0  0  0  0
   74.2459   49.7729   56.9979 C   0  0  0  0  0  0  0  0  0  0  0  0
   74.1189   49.1698   58.1278 O   0  0  0  0  0  0  0  0  0  0  0  0
   75.5427   49.6691   56.3413 C   0  0  0  0  0  0  0  0  0  0  0  0
   75.6404   49.3953   55.0043 N   0  0  0  0  0  0  0  0  0  0  0  0
   76.9180   49.3630   54.7002 N   0  0  0  0  0  0  0  0  0  0  0  0
   77.6809   49.5994   55.7591 C   0  0  0  0  0  0  0  0  0  0  0  0
   76.8104   49.7973   56.8213 C   0  0  0  0  0  0  0  0  0  0  0  0
   77.3073   50.1783   58.6159 Br  0  0  0  0  0  0  0  0  0  0  0  0
 11 12  1  0
 12 13  2  0
 12 17  1  0
 13 14  1  0
 14 15  2  0
 15  8  1  0
 15 16  1  0
  8  9  2  0
  8 10  2  0
  8  1  1  0
  1  2  1  0
  7  1  1  6
  2  3  1  0
  4  3  1  6
  4  5  1  0
  4  7  1  0
  5  6  1  0
  6 18  1  6
  6  7  1  0
 18 19  1  0
 19 20  2  0
 19 21  1  0
 21 22  1  0
 21 25  2  0
 22 23  1  0
 23 24  2  0
 24 25  1  0
 25 26  1  0
 16 17  2  0
M  END
>  <minimizedAffinity>  (939) 
-8.50402

$$$$
data/reference_output_2/data/smiles/173774.pdb
     RDKit          3D

 25 28  0  0  0  0  0  0  0  0999 V2000
   70.0353   47.2789   57.9675 C   0  0  0  0  0  0  0  0  0  0  0  0
   70.9171   46.2449   58.5045 N   0  0  0  0  0  0  0  0  0  0  0  0
   71.9571   46.3835   59.3681 C   0  0  0  0  0  0  0  0  0  0  0  0
   72.4817   45.1033   59.6062 C   0  0  0  0  0  0  0  0  0  0  0  0
   71.7433   44.2091   58.8748 C   0  0  0  0  0  0  0  0  0  0  0  0
   70.7642   44.9399   58.1871 C   0  0  0  0  0  0  0  0  0  0  0  0
   69.7410   44.4756   57.2662 C   0  0  0  0  0  0  0  0  0  0  0  0
   69.2140   45.4177   56.4655 N   0  0  0  0  0  0  0  0  0  0  0  0
   68.2604   45.1525   55.5566 C   0  0  0  0  0  0  0  0  0  0  0  0
   67.8227   43.8924   55.4536 N   0  0  0  0  0  0  0  0  0  0  0  0
   68.3194   42.8946   56.2375 C   0  0  0  0  0  0  0  0  0  0  0  0
   69.2830   43.1576   57.1569 C   0  0  0  0  0  0  0  0  0  0  0  0
   69.7612   41.9735   57.9514 C   0  0  0  0  0  0  0  0  0  0  0  0
   71.2787   41.9829   57.8134 C   0  0  0  0  0  0  0  0  0  0  0  0
   71.9796   42.7581   58.8647 C   0  0  0  0  0  0  0  0  0  0  0  0
   72.4701   47.5992   59.9397 C   0  0  0  0  0  0  0  0  0  0  0  0
   73.2336   48.5152   59.2159 N   0  0  0  0  0  0  0  0  0  0  0  0
   72.2317   47.8651   61.1409 O   0  0  0  0  0  0  0  0  0  0  0  0
   67.6855   46.1345   54.6951 N   0  0  0  0  0  0  0  0  0  0  0  0
   68.4902   46.9136   53.8238 C   0  0  0  0  0  0  0  0  0  0  0  0
   69.1043   48.0922   54.1905 C   0  0  0  0  0  0  0  0  0  0  0  0
   69.8819   48.8173   53.2976 C   0  0  0  0  0  0  0  0  0  0  0  0
   70.0671   48.3788   52.0049 C   0  0  0  0  0  0  0  0  0  0  0  0
   69.4605   47.2057   51.6256 C   0  0  0  0  0  0  0  0  0  0  0  0
   68.6775   46.4806   52.5338 C   0  0  0  0  0  0  0  0  0  0  0  0
  1  2  1  0
  2  3  1  0
  2  6  1  0
  3 16  1  0
  3  4  2  0
 16 17  1  0
 16 18  2  0
  4  5  1  0
  5  6  2  0
  5 15  1  0
  6  7  1  0
  7  8  2  0
  7 12  1  0
  8  9  1  0
  9 19  1  0
  9 10  2  0
 19 20  1  0
 20 21  2  0
 20 25  1  0
 21 22  1  0
 22 23  2  0
 23 24  1  0
 24 25  2  0
 10 11  1  0
 11 12  2  0
 12 13  1  0
 13 14  1  0
 14 15  1  0
M  END
>  <minimizedAffinity>  (940) 
-8.52987

$$$$
data/reference_output_2/data/smiles/173937.pdb
     RDKit          3D

 24 27  0  0  0  0  0  0  0  0999 V2000
   66.4659   42.1869   56.3524 O   0  0  0  0  0  0  0  0  0  0  0  0
   67.5399   41.7584   56.8455 C   0  0  0  0  0  0  0  0  0  0  0  0
   67.7530   40.4137   57.3580 N   0  0  0  0  0  0  0  0  0  0  0  0
   69.0835   40.2832   57.8383 C   0  0  0  0  0  0  0  0  0  0  0  0
   69.7200   39.1786   58.4058 C   0  0  0  0  0  0  0  0  0  0  0  0
   71.0275   39.2641   58.8068 C   0  0  0  0  0  0  0  0  0  0  0  0
   71.7282   40.4523   58.6496 C   0  0  0  0  0  0  0  0  0  0  0  0
   73.3948   40.5247   59.1682 Cl  0  0  0  0  0  0  0  0  0  0  0  0
   71.0555   41.5332   58.0757 C   0  0  0  0  0  0  0  0  0  0  0  0
   69.7467   41.4739   57.6672 C   0  0  0  0  0  0  0  0  0  0  0  0
   68.8180   42.4262   57.0472 C   0  0  0  0  0  0  0  0  0  0  0  0
   69.0556   43.6583   56.7236 N   0  0  0  0  0  0  0  0  0  0  0  0
   68.0850   44.4935   56.1286 N   0  0  0  0  0  0  0  0  0  0  0  0
   68.4810   45.6500   55.4237 C   0  0  0  0  0  0  0  0  0  0  0  0
   68.5260   45.7442   54.0810 N   0  0  0  0  0  0  0  0  0  0  0  0
   68.9319   46.8477   53.4375 C   0  0  0  0  0  0  0  0  0  0  0  0
   68.9853   46.8963   52.0610 C   0  0  0  0  0  0  0  0  0  0  0  0
   69.4294   48.0415   51.4003 C   0  0  0  0  0  0  0  0  0  0  0  0
   69.8256   49.1529   52.0865 C   0  0  0  0  0  0  0  0  0  0  0  0
   69.7799   49.1282   53.4760 C   0  0  0  0  0  0  0  0  0  0  0  0
   69.3365   47.9851   54.1267 C   0  0  0  0  0  0  0  0  0  0  0  0
   69.2940   47.9052   55.4665 N   0  0  0  0  0  0  0  0  0  0  0  0
   68.8900   46.8037   56.1083 C   0  0  0  0  0  0  0  0  0  0  0  0
   68.8495   46.7305   57.3608 O   0  0  0  0  0  0  0  0  0  0  0  0
  1  2  2  0
  2  3  1  0
  2 11  1  0
  3  4  1  0
  4  5  2  0
  4 10  1  0
  5  6  1  0
  6  7  2  0
  7  8  1  0
  7  9  1  0
  9 10  2  0
 10 11  1  0
 11 12  2  0
 12 13  1  0
 13 14  1  0
 14 15  2  0
 14 23  1  0
 15 16  1  0
 16 17  2  0
 16 21  1  0
 17 18  1  0
 18 19  2  0
 19 20  1  0
 20 21  2  0
 21 22  1  0
 22 23  1  0
 23 24  2  0
M  END
>  <minimizedAffinity>  (941) 
-8.54784

$$$$
data/reference_output_2/data/smiles/174044.pdb
     RDKit          3D

 27 30  0  0  0  0  0  0  0  0999 V2000
   75.6598   34.6913   53.3612 C   0  0  0  0  0  0  0  0  0  0  0  0
   75.8923   34.7164   54.6852 N   0  0  0  0  0  0  0  0  0  0  0  0
   74.9389   35.0842   55.5701 C   0  0  0  0  0  0  0  0  0  0  0  0
   75.1770   35.1103   56.9292 C   0  0  0  0  0  0  0  0  0  0  0  0
   74.1909   35.4885   57.8176 C   0  0  0  0  0  0  0  0  0  0  0  0
   72.9259   35.8589   57.4029 C   0  0  0  0  0  0  0  0  0  0  0  0
   72.6881   35.8335   56.0431 C   0  0  0  0  0  0  0  0  0  0  0  0
   73.6769   35.4534   55.1527 C   0  0  0  0  0  0  0  0  0  0  0  0
   73.4485   35.4242   53.7907 C   0  0  0  0  0  0  0  0  0  0  0  0
   72.2996   35.7600   53.4050 O   0  0  0  0  0  0  0  0  0  0  0  0
   74.4318   35.0501   52.9539 N   0  0  0  0  0  0  0  0  0  0  0  0
   71.8886   36.2595   58.3508 C   0  0  0  0  0  0  0  0  0  0  0  0
   71.2991   37.5018   58.4199 C   0  0  0  0  0  0  0  0  0  0  0  0
   70.4015   37.4725   59.4129 N   0  0  0  0  0  0  0  0  0  0  0  0
   70.3801   36.2897   59.9833 N   0  0  0  0  0  0  0  0  0  0  0  0
   71.2823   35.5283   59.3499 C   0  0  0  0  0  0  0  0  0  0  0  0
   77.8529   33.6615   53.0694 N   0  0  0  0  0  0  0  0  0  0  0  0
   76.7297   34.2812   52.4019 C   0  0  2  0  0  0  0  0  0  0  0  0
   77.2421   35.4425   51.5946 C   0  0  0  0  0  0  0  0  0  0  0  0
   77.1859   35.1856   50.1347 C   0  0  0  0  0  0  0  0  0  0  0  0
   78.0650   35.7905   49.2525 C   0  0  0  0  0  0  0  0  0  0  0  0
   78.0079   35.5476   47.8948 C   0  0  0  0  0  0  0  0  0  0  0  0
   77.0721   34.6952   47.3837 C   0  0  0  0  0  0  0  0  0  0  0  0
   76.9998   34.4447   46.0598 F   0  0  0  0  0  0  0  0  0  0  0  0
   76.1781   34.0728   48.2267 C   0  0  0  0  0  0  0  0  0  0  0  0
   75.2593   33.2368   47.7306 F   0  0  0  0  0  0  0  0  0  0  0  0
   76.2394   34.3185   49.5834 C   0  0  0  0  0  0  0  0  0  0  0  0
 18 17  1  1
 18 19  1  0
 18  1  1  0
 19 20  1  0
 20 21  2  0
 20 27  1  0
 21 22  1  0
 22 23  2  0
 23 24  1  0
 23 25  1  0
 25 26  1  0
 25 27  2  0
  1  2  2  0
  1 11  1  0
  2  3  1  0
  3  4  2  0
  3  8  1  0
  4  5  1  0
  5  6  2  0
  6 12  1  0
  6  7  1  0
 12 13  1  0
 12 16  2  0
 13 14  2  0
 14 15  1  0
 15 16  1  0
  7  8  2  0
  8  9  1  0
  9 10  2  0
  9 11  1  0
M  CHG  1  17   1
M  END
>  <minimizedAffinity>  (942) 
-8.91227

$$$$
data/reference_output_2/data/smiles/174059.pdb
     RDKit          3D

 20 22  0  0  0  0  0  0  0  0999 V2000
   70.3796   48.8762   50.9591 O   0  0  0  0  0  0  0  0  0  0  0  0
   70.2549   48.8199   52.2019 C   0  0  0  0  0  0  0  0  0  0  0  0
   70.8537   49.6169   53.0261 O   0  0  0  0  0  0  0  0  0  0  0  0
   70.7251   49.5585   54.3332 C   0  0  0  0  0  0  0  0  0  0  0  0
   71.3858   50.4206   54.9682 O   0  0  0  0  0  0  0  0  0  0  0  0
   69.9336   48.6337   54.9548 N   0  0  0  0  0  0  0  0  0  0  0  0
   69.2977   47.7907   54.0994 C   0  0  0  0  0  0  0  0  0  0  0  0
   68.4576   46.8354   54.5988 C   0  0  0  0  0  0  0  0  0  0  0  0
   67.7600   45.9483   53.7696 C   0  0  0  0  0  0  0  0  0  0  0  0
   67.9034   46.0150   52.4030 C   0  0  0  0  0  0  0  0  0  0  0  0
   67.0421   44.9153   51.3452 Cl  0  0  0  0  0  0  0  0  0  0  0  0
   68.7422   46.9722   51.8905 C   0  0  0  0  0  0  0  0  0  0  0  0
   69.4315   47.8513   52.7313 C   0  0  0  0  0  0  0  0  0  0  0  0
   69.8157   48.6068   56.3747 C   0  0  0  0  0  0  0  0  0  0  0  0
   68.6138   49.3340   56.8747 C   0  0  0  0  0  0  0  0  0  0  0  0
   67.5945   48.7303   57.5679 C   0  0  0  0  0  0  0  0  0  0  0  0
   66.5046   49.4968   57.9876 C   0  0  0  0  0  0  0  0  0  0  0  0
   66.4194   50.8455   57.7264 C   0  0  0  0  0  0  0  0  0  0  0  0
   67.4525   51.4452   57.0258 C   0  0  0  0  0  0  0  0  0  0  0  0
   68.5289   50.7071   56.6079 C   0  0  0  0  0  0  0  0  0  0  0  0
  1  2  2  0
  2  3  1  0
  2 13  1  0
  3  4  1  0
  4  5  2  0
  4  6  1  0
  6 14  1  0
  6  7  1  0
 14 15  1  0
 15 16  2  0
 15 20  1  0
 16 17  1  0
 17 18  2  0
 18 19  1  0
 19 20  2  0
  7  8  1  0
  7 13  2  0
  8  9  2  0
  9 10  1  0
 10 11  1  0
 10 12  2  0
 12 13  1  0
M  END
>  <minimizedAffinity>  (943) 
-8.63534

$$$$
data/reference_output_2/data/smiles/174070.pdb
     RDKit          3D

 27 29  0  0  0  0  0  0  0  0999 V2000
   68.4519   46.7474   53.9446 C   0  0  0  0  0  0  0  0  0  0  0  0
   68.5349   46.3378   52.6309 C   0  0  0  0  0  0  0  0  0  0  0  0
   69.2992   47.0864   51.7634 C   0  0  0  0  0  0  0  0  0  0  0  0
   69.9739   48.2271   52.1887 C   0  0  0  0  0  0  0  0  0  0  0  0
   69.8926   48.6394   53.5003 C   0  0  0  0  0  0  0  0  0  0  0  0
   69.1282   47.8814   54.3450 C   0  0  0  0  0  0  0  0  0  0  0  0
   70.6199   49.8404   53.8880 C   0  0  0  0  0  0  0  0  0  0  0  0
   71.8897   49.7689   53.7610 O   0  0  0  0  0  0  0  0  0  0  0  0
   69.9834   51.0015   54.3696 N   0  0  0  0  0  0  0  0  0  0  0  0
   70.6111   52.2339   54.7783 C   0  0  0  0  0  0  0  0  0  0  0  0
   69.5763   52.9711   55.6199 C   0  0  0  0  0  0  0  0  0  0  0  0
   68.5507   51.8816   55.9013 C   0  0  2  0  0  0  0  0  0  0  0  0
   69.1014   50.9849   56.8098 O   0  0  0  0  0  0  0  0  0  0  0  0
   68.5595   51.1645   54.5420 C   0  0  0  0  0  0  0  0  0  0  0  0
   67.6826   45.9983   54.8299 O   0  0  0  0  0  0  0  0  0  0  0  0
   70.0035   44.5761   57.3106 C   0  0  0  0  0  0  0  0  0  0  0  0
   69.3703   45.4468   56.4518 C   0  0  0  0  0  0  0  0  0  0  0  0
   68.2867   45.0645   55.6892 C   0  0  0  0  0  0  0  0  0  0  0  0
   67.8523   43.7952   55.8062 N   0  0  0  0  0  0  0  0  0  0  0  0
   68.4359   42.9086   56.6294 C   0  0  0  0  0  0  0  0  0  0  0  0
   69.5219   43.2899   57.3954 C   0  0  0  0  0  0  0  0  0  0  0  0
   67.8988   41.5195   56.7046 C   0  0  0  0  0  0  0  0  0  0  0  0
   67.5251   41.0631   55.4536 F   0  0  0  0  0  0  0  0  0  0  0  0
   66.7641   41.4690   57.4965 F   0  0  0  0  0  0  0  0  0  0  0  0
   68.8348   40.6801   57.3026 F   0  0  0  0  0  0  0  0  0  0  0  0
   70.7327   45.8561   59.2180 N   0  0  0  0  0  0  0  0  0  0  0  0
   71.1762   44.9844   58.1368 C   0  0  0  0  0  0  0  0  0  0  0  0
 26 27  1  0
 27 16  1  0
 16 17  2  0
 16 21  1  0
 17 18  1  0
 18 15  1  0
 18 19  2  0
 15  1  1  0
  1  2  2  0
  1  6  1  0
  2  3  1  0
  3  4  2  0
  4  5  1  0
  5  7  1  0
  5  6  2  0
  7  8  2  0
  7  9  1  0
  9 10  1  0
  9 14  1  0
 10 11  1  0
 11 12  1  0
 12 13  1  1
 12 14  1  0
 19 20  1  0
 20 22  1  0
 20 21  2  0
 22 23  1  0
 22 24  1  0
 22 25  1  0
M  CHG  1  26   1
M  END
>  <minimizedAffinity>  (944) 
-8.92940

$$$$
data/reference_output_2/data/smiles/174451.pdb
     RDKit          3D

 28 31  0  0  0  0  0  0  0  0999 V2000
   70.0725   45.9121   57.6437 N   0  0  0  0  0  0  0  0  0  0  0  0
   70.1413   47.2930   57.9043 C   0  0  0  0  0  0  0  0  0  0  0  0
   71.0027   47.7218   58.6587 O   0  0  0  0  0  0  0  0  0  0  0  0
   69.1894   48.2857   57.2884 C   0  0  2  0  0  0  0  0  0  0  0  0
   68.3051   47.4722   56.3517 C   0  0  0  0  0  0  0  0  0  0  0  0
   68.8597   47.8051   55.0082 C   0  0  0  0  0  0  0  0  0  0  0  0
   69.7701   48.8348   55.1542 C   0  0  0  0  0  0  0  0  0  0  0  0
   70.3976   49.2889   54.0124 C   0  0  0  0  0  0  0  0  0  0  0  0
   70.1235   48.7355   52.7797 C   0  0  0  0  0  0  0  0  0  0  0  0
   69.2084   47.7022   52.6341 C   0  0  0  0  0  0  0  0  0  0  0  0
   68.9167   47.1305   51.4126 C   0  0  0  0  0  0  0  0  0  0  0  0
   67.9996   46.1054   51.3179 C   0  0  0  0  0  0  0  0  0  0  0  0
   67.3500   45.6224   52.4347 C   0  0  0  0  0  0  0  0  0  0  0  0
   67.6564   46.2064   53.6454 C   0  0  0  0  0  0  0  0  0  0  0  0
   68.5678   47.2335   53.7784 C   0  0  0  0  0  0  0  0  0  0  0  0
   69.8640   49.2116   56.4917 O   0  0  0  0  0  0  0  0  0  0  0  0
   70.8020   44.8816   58.0638 N   0  0  0  0  0  0  0  0  0  0  0  0
   70.2450   43.4812   58.7354 S   0  0  0  0  0  0  0  0  0  0  0  0
   71.3115   42.5845   59.3229 O   0  0  0  0  0  0  0  0  0  0  0  0
   69.3824   43.8551   59.9504 O   0  0  0  0  0  0  0  0  0  0  0  0
   67.4222   41.3973   55.8382 C   0  0  0  0  0  0  0  0  0  0  0  0
   68.0361   40.6643   56.8232 C   0  0  0  0  0  0  0  0  0  0  0  0
   68.8941   41.2692   57.7217 C   0  0  0  0  0  0  0  0  0  0  0  0
   69.1797   42.6005   57.6864 C   0  0  0  0  0  0  0  0  0  0  0  0
   68.5512   43.3452   56.6797 C   0  0  0  0  0  0  0  0  0  0  0  0
   67.6900   42.7475   55.7755 C   0  0  0  0  0  0  0  0  0  0  0  0
   65.5759   41.5136   54.2230 C   0  0  0  0  0  0  0  0  0  0  0  0
   66.5580   40.8150   54.9251 O   0  0  0  0  0  0  0  0  0  0  0  0
 27 28  1  0
 28 21  1  0
 21 22  2  0
 21 26  1  0
 22 23  1  0
 23 24  2  0
 24 18  1  0
 24 25  1  0
 18 19  2  0
 18 20  2  0
 18 17  1  0
 17  1  1  0
  1  2  1  0
  2  3  2  0
  4  2  1  6
  4  5  1  0
  4 16  1  0
  5  6  1  0
  6  7  2  0
  6 15  1  0
  7  8  1  0
  7 16  1  0
  8  9  2  0
  9 10  1  0
 10 11  1  0
 10 15  2  0
 11 12  2  0
 12 13  1  0
 13 14  2  0
 14 15  1  0
 25 26  2  0
M  END
>  <minimizedAffinity>  (945) 
-9.03654

$$$$
data/reference_output_2/data/smiles/174480.pdb
     RDKit          3D

 30 34  0  0  0  0  0  0  0  0999 V2000
   73.8278   35.6002   56.8650 N   0  0  0  0  0  0  0  0  0  0  0  0
   73.8252   35.5900   55.5469 N   0  0  0  0  0  0  0  0  0  0  0  0
   75.0345   35.2789   55.0473 C   0  0  0  0  0  0  0  0  0  0  0  0
   75.8135   35.0917   56.1380 N   0  0  0  0  0  0  0  0  0  0  0  0
   75.0834   35.2864   57.2224 N   0  0  0  0  0  0  0  0  0  0  0  0
   70.6231   34.1256   60.1527 F   0  0  0  0  0  0  0  0  0  0  0  0
   71.1889   35.0890   59.4051 C   0  0  0  0  0  0  0  0  0  0  0  0
   70.6784   36.3829   59.5639 C   0  0  0  0  0  0  0  0  0  0  0  0
   71.2484   37.3844   58.8026 C   0  0  0  0  0  0  0  0  0  0  0  0
   72.2750   37.1545   57.9169 C   0  0  0  0  0  0  0  0  0  0  0  0
   72.7696   35.8778   57.7677 C   0  0  0  0  0  0  0  0  0  0  0  0
   72.2269   34.8533   58.5093 C   0  0  0  0  0  0  0  0  0  0  0  0
   75.4743   35.1567   53.6601 C   0  0  0  0  0  0  0  0  0  0  0  0
   76.6335   35.7686   53.2181 C   0  0  0  0  0  0  0  0  0  0  0  0
   77.0593   35.6600   51.9096 C   0  0  0  0  0  0  0  0  0  0  0  0
   76.3495   34.9363   50.9782 C   0  0  0  0  0  0  0  0  0  0  0  0
   75.1939   34.3252   51.4091 C   0  0  0  0  0  0  0  0  0  0  0  0
   74.7699   34.4343   52.7189 C   0  0  0  0  0  0  0  0  0  0  0  0
   76.8171   34.8286   49.5781 C   0  0  0  0  0  0  0  0  0  0  0  0
   76.1689   34.0132   48.6799 C   0  0  0  0  0  0  0  0  0  0  0  0
   76.5889   33.8989   47.3725 C   0  0  0  0  0  0  0  0  0  0  0  0
   77.6860   34.6241   46.9662 C   0  0  0  0  0  0  0  0  0  0  0  0
   78.3462   35.4431   47.8473 C   0  0  0  0  0  0  0  0  0  0  0  0
   77.9051   35.5376   49.1415 C   0  0  0  0  0  0  0  0  0  0  0  0
   75.5660   35.1761   58.5500 C   0  0  0  0  0  0  0  0  0  0  0  0
   75.8637   36.3146   59.2989 C   0  0  0  0  0  0  0  0  0  0  0  0
   76.3370   36.2456   60.5894 C   0  0  0  0  0  0  0  0  0  0  0  0
   76.5268   35.0287   61.1735 C   0  0  0  0  0  0  0  0  0  0  0  0
   76.2342   33.8959   60.4384 C   0  0  0  0  0  0  0  0  0  0  0  0
   75.7649   33.9492   59.1562 C   0  0  0  0  0  0  0  0  0  0  0  0
  6  7  1  0
  7  8  2  0
  7 12  1  0
  8  9  1  0
  9 10  2  0
 10 11  1  0
 11  1  1  0
 11 12  2  0
  1  2  2  0
  1  5  1  0
  2  3  1  0
  3 13  1  0
  3  4  2  0
 13 14  2  0
 13 18  1  0
 14 15  1  0
 15 16  2  0
 16 19  1  0
 16 17  1  0
 19 20  2  0
 19 24  1  0
 20 21  1  0
 21 22  2  0
 22 23  1  0
 23 24  2  0
 17 18  2  0
  4  5  1  0
  5 25  1  0
 25 26  2  0
 25 30  1  0
 26 27  1  0
 27 28  2  0
 28 29  1  0
 29 30  2  0
M  CHG  1   1   1
M  END
>  <minimizedAffinity>  (946) 
-8.57205

$$$$
data/reference_output_2/data/smiles/174559.pdb
     RDKit          3D

 19 21  0  0  0  0  0  0  0  0999 V2000
   68.1175   45.9806   55.7461 N   0  0  0  0  0  0  0  0  0  0  0  0
   68.8257   44.9604   56.4259 C   0  0  0  0  0  0  0  0  0  0  0  0
   69.9222   45.1704   57.1453 N   0  0  0  0  0  0  0  0  0  0  0  0
   70.6169   44.1913   57.7818 C   0  0  0  0  0  0  0  0  0  0  0  0
   70.1438   42.9416   57.6594 N   0  0  0  0  0  0  0  0  0  0  0  0
   69.0462   42.6171   56.9565 C   0  0  0  0  0  0  0  0  0  0  0  0
   68.4076   41.4552   56.7003 N   0  0  0  0  0  0  0  0  0  0  0  0
   67.3638   41.7848   55.9241 C   0  0  0  0  0  0  0  0  0  0  0  0
   67.3411   43.1044   55.6980 N   0  0  0  0  0  0  0  0  0  0  0  0
   68.3783   43.6467   56.3307 C   0  0  0  0  0  0  0  0  0  0  0  0
   69.2907   47.6031   52.5990 C   0  0  0  0  0  0  0  0  0  0  0  0
   68.6239   46.8630   51.6341 C   0  0  0  0  0  0  0  0  0  0  0  0
   67.7959   45.8446   52.0372 C   0  0  0  0  0  0  0  0  0  0  0  0
   67.6273   45.5601   53.3689 C   0  0  0  0  0  0  0  0  0  0  0  0
   68.2790   46.2808   54.3691 C   0  0  0  0  0  0  0  0  0  0  0  0
   69.1096   47.3030   53.9301 C   0  0  0  0  0  0  0  0  0  0  0  0
   71.1848   49.0120   52.8744 O   0  0  0  0  0  0  0  0  0  0  0  0
   70.1745   48.6932   52.1734 C   0  0  0  0  0  0  0  0  0  0  0  0
   69.9610   49.4155   51.0132 O   0  0  0  0  0  0  0  0  0  0  0  0
 17 18  2  0
 18 19  1  0
 18 11  1  0
 11 12  2  0
 11 16  1  0
 12 13  1  0
 13 14  2  0
 14 15  1  0
 15  1  1  0
 15 16  2  0
  1  2  1  0
  2  3  2  0
  2 10  1  0
  3  4  1  0
  4  5  2  0
  5  6  1  0
  6  7  1  0
  6 10  2  0
  7  8  1  0
  8  9  2  0
  9 10  1  0
M  CHG  1   9   1
M  END
>  <minimizedAffinity>  (947) 
-8.50954

$$$$
data/reference_output_2/data/smiles/174841.pdb
     RDKit          3D

 32 35  0  0  0  0  0  0  0  0999 V2000
   71.3084   47.6891   58.2898 C   0  0  0  0  0  0  0  0  0  0  0  0
   72.5176   47.6828   57.8350 O   0  0  0  0  0  0  0  0  0  0  0  0
   71.0015   47.0129   59.4844 N   0  0  0  0  0  0  0  0  0  0  0  0
   72.0753   46.3136   60.2143 C   0  0  2  0  0  0  0  0  0  0  0  0
   73.0881   47.2886   60.6760 C   0  0  0  0  0  0  0  0  0  0  0  0
   72.8625   47.7628   61.8210 O   0  0  0  0  0  0  0  0  0  0  0  0
   74.2632   47.7845   60.0606 N   0  0  0  0  0  0  0  0  0  0  0  0
   74.8794   49.0567   60.4438 C   0  0  0  0  0  0  0  0  0  0  0  0
   76.3561   48.6760   60.2842 C   0  0  0  0  0  0  0  0  0  0  0  0
   76.2784   47.8441   59.0027 C   0  0  0  0  0  0  0  0  0  0  0  0
   74.9983   47.1918   59.0498 N   0  0  0  0  0  0  0  0  0  0  0  0
   75.2260   45.7836   59.3610 C   0  0  0  0  0  0  0  0  0  0  0  0
   73.9918   45.0598   58.9723 C   0  0  0  0  0  0  0  0  0  0  0  0
   74.3079   44.0232   58.1227 C   0  0  0  0  0  0  0  0  0  0  0  0
   73.3239   43.1876   57.6087 C   0  0  0  0  0  0  0  0  0  0  0  0
   72.0237   43.4191   57.9696 C   0  0  0  0  0  0  0  0  0  0  0  0
   71.7026   44.4503   58.8163 C   0  0  0  0  0  0  0  0  0  0  0  0
   72.6867   45.2947   59.3356 C   0  0  0  0  0  0  0  0  0  0  0  0
   70.3215   48.4117   57.5096 C   0  0  2  0  0  0  0  0  0  0  0  0
   70.2193   49.8319   58.1131 C   0  0  0  0  0  0  0  0  0  0  0  0
   68.9544   47.8983   57.4153 C   0  0  0  0  0  0  0  0  0  0  0  0
   69.3037   47.4972   55.0172 N   0  0  0  0  0  0  0  0  0  0  0  0
   68.3815   47.5133   56.1447 C   0  0  0  0  0  0  0  0  0  0  0  0
   67.2283   47.1904   55.8420 O   0  0  0  0  0  0  0  0  0  0  0  0
   70.0345   49.1202   52.7271 C   0  0  0  0  0  0  0  0  0  0  0  0
   69.1848   47.8839   52.6082 C   0  0  0  0  0  0  0  0  0  0  0  0
   68.7223   47.4761   51.4159 N   0  0  0  0  0  0  0  0  0  0  0  0
   67.9656   46.3771   51.3052 C   0  0  0  0  0  0  0  0  0  0  0  0
   67.6101   45.5934   52.3904 C   0  0  0  0  0  0  0  0  0  0  0  0
   66.8521   44.5060   52.2215 F   0  0  0  0  0  0  0  0  0  0  0  0
   68.0791   46.0032   53.6215 C   0  0  0  0  0  0  0  0  0  0  0  0
   68.8573   47.1364   53.7195 C   0  0  0  0  0  0  0  0  0  0  0  0
 25 26  1  0
 26 27  2  0
 26 32  1  0
 27 28  1  0
 28 29  2  0
 29 30  1  0
 29 31  1  0
 31 32  2  0
 32 22  1  0
 22 23  1  0
 23 24  2  0
 23 21  1  0
 21 19  1  0
 19 20  1  1
 19  1  1  0
  1  2  2  0
  1  3  1  0
  4  3  1  6
  4  5  1  0
  4 18  1  0
  5  6  2  0
  5  7  1  0
  7  8  1  0
  8  9  1  0
  9 10  1  0
 10 11  1  0
 11  7  1  0
 11 12  1  0
 12 13  1  0
 13 14  1  0
 13 18  2  0
 14 15  2  0
 15 16  1  0
 16 17  2  0
 17 18  1  0
M  END
>  <minimizedAffinity>  (948) 
-8.72560

$$$$
data/reference_output_2/data/smiles/174853.pdb
     RDKit          3D

 25 27  0  0  0  0  0  0  0  0999 V2000
   68.9014   48.0001   56.5836 C   0  0  0  0  0  0  0  0  0  0  0  0
   68.0817   48.7368   57.1896 O   0  0  0  0  0  0  0  0  0  0  0  0
   69.5446   48.4227   55.3513 C   0  0  0  0  0  0  0  0  0  0  0  0
   70.5303   49.3521   55.1158 C   0  0  0  0  0  0  0  0  0  0  0  0
   70.8218   49.4118   53.7815 N   0  0  0  0  0  0  0  0  0  0  0  0
   70.0429   48.5350   53.1288 C   0  0  0  0  0  0  0  0  0  0  0  0
   69.9417   48.2062   51.7744 C   0  0  0  0  0  0  0  0  0  0  0  0
   69.0445   47.2529   51.3492 C   0  0  0  0  0  0  0  0  0  0  0  0
   68.2721   46.6556   52.3092 C   0  0  0  0  0  0  0  0  0  0  0  0
   68.3597   46.9693   53.6498 C   0  0  0  0  0  0  0  0  0  0  0  0
   69.2521   47.9169   54.0672 C   0  0  0  0  0  0  0  0  0  0  0  0
   67.3288   45.6611   51.9146 N   0  0  0  0  0  0  0  0  0  0  0  0
   67.0049   44.7314   52.6572 O   0  0  0  0  0  0  0  0  0  0  0  0
   66.7325   45.7024   50.6684 O   0  0  0  0  0  0  0  0  0  0  0  0
   68.9065   45.6326   56.5372 O   0  0  0  0  0  0  0  0  0  0  0  0
   69.2082   46.6927   57.1372 C   0  0  0  0  0  0  0  0  0  0  0  0
   69.8658   46.5319   58.3884 N   0  0  0  0  0  0  0  0  0  0  0  0
   70.1325   45.2579   58.8669 N   0  0  0  0  0  0  0  0  0  0  0  0
   71.2499   44.4957   58.4284 C   0  0  0  0  0  0  0  0  0  0  0  0
   72.5155   45.0394   58.3408 C   0  0  0  0  0  0  0  0  0  0  0  0
   73.6074   44.2981   57.9137 C   0  0  0  0  0  0  0  0  0  0  0  0
   73.4536   42.9745   57.5593 C   0  0  0  0  0  0  0  0  0  0  0  0
   74.5097   42.2422   57.1421 F   0  0  0  0  0  0  0  0  0  0  0  0
   72.1912   42.4061   57.6401 C   0  0  0  0  0  0  0  0  0  0  0  0
   71.1155   43.1739   58.0716 C   0  0  0  0  0  0  0  0  0  0  0  0
 15 16  2  0
 16 17  1  0
 16  1  1  0
 17 18  1  0
 18 19  1  0
 19 20  2  0
 19 25  1  0
 20 21  1  0
 21 22  2  0
 22 23  1  0
 22 24  1  0
 24 25  2  0
  1  2  2  0
  1  3  1  0
  3  4  2  0
  3 11  1  0
  4  5  1  0
  5  6  1  0
  6  7  1  0
  6 11  2  0
  7  8  2  0
  8  9  1  0
  9 12  1  0
  9 10  2  0
 12 13  2  0
 12 14  1  0
 10 11  1  0
M  CHG  2  12   1  14  -1
M  END
>  <minimizedAffinity>  (949) 
-9.00165

$$$$
data/reference_output_2/data/smiles/174968.pdb
     RDKit          3D

 24 27  0  0  0  0  0  0  0  0999 V2000
   66.2958   48.0918   58.4763 N   0  0  0  0  0  0  0  0  0  0  0  0
   67.0159   49.1762   57.8623 C   0  0  0  0  0  0  0  0  0  0  0  0
   66.4038   50.3813   57.6226 C   0  0  0  0  0  0  0  0  0  0  0  0
   67.1175   51.3894   57.0387 C   0  0  0  0  0  0  0  0  0  0  0  0
   68.4599   51.2310   56.6741 C   0  0  0  0  0  0  0  0  0  0  0  0
   69.0693   50.0534   56.9053 C   0  0  0  0  0  0  0  0  0  0  0  0
   68.3271   49.0264   57.5058 C   0  0  0  0  0  0  0  0  0  0  0  0
   70.4127   49.5719   56.6561 C   0  0  0  0  0  0  0  0  0  0  0  0
   71.3353   50.3937   55.8589 C   0  0  2  0  0  0  0  0  0  0  0  0
   72.0588   51.3433   56.7924 C   0  0  0  0  0  0  0  0  0  0  0  0
   71.3025   52.6459   56.6769 C   0  0  0  0  0  0  0  0  0  0  0  0
   70.3180   52.4669   55.5684 C   0  0  2  0  0  0  0  0  0  0  0  0
   68.9398   52.4648   56.0820 C   0  0  0  0  0  0  0  0  0  0  0  0
   70.7125   51.2287   54.7954 C   0  0  2  0  0  0  0  0  0  0  0  0
   69.6396   50.5326   54.1786 N   0  0  0  0  0  0  0  0  0  0  0  0
   70.1453   49.4764   52.9113 S   0  0  0  0  0  0  0  0  0  0  0  0
   71.6138   49.1834   52.9843 O   0  0  0  0  0  0  0  0  0  0  0  0
   69.8743   50.1255   51.5859 O   0  0  0  0  0  0  0  0  0  0  0  0
   69.2145   47.9997   52.9815 C   0  0  0  0  0  0  0  0  0  0  0  0
   68.8913   47.2502   51.8749 C   0  0  0  0  0  0  0  0  0  0  0  0
   68.1482   46.0933   52.0524 C   0  0  0  0  0  0  0  0  0  0  0  0
   67.7249   45.6716   53.2919 C   0  0  0  0  0  0  0  0  0  0  0  0
   68.0490   46.4211   54.3935 C   0  0  0  0  0  0  0  0  0  0  0  0
   68.7862   47.5675   54.2194 C   0  0  0  0  0  0  0  0  0  0  0  0
  1  2  1  0
  2  3  2  0
  2  7  1  0
  3  4  1  0
  4  5  2  0
  5  6  1  0
  5 13  1  0
  6  7  2  0
  6  8  1  0
  9  8  1  1
  9 10  1  0
  9 14  1  0
 10 11  1  0
 12 11  1  1
 12 13  1  0
 12 14  1  0
 14 15  1  1
 15 16  1  0
 16 17  2  0
 16 18  2  0
 16 19  1  0
 19 20  2  0
 19 24  1  0
 20 21  1  0
 21 22  2  0
 22 23  1  0
 23 24  2  0
M  END
>  <minimizedAffinity>  (950) 
-8.55883

$$$$
data/reference_output_2/data/smiles/175024.pdb
     RDKit          3D

 23 25  0  0  0  0  0  0  0  0999 V2000
   70.9701   47.8241   58.5276 O   0  0  0  0  0  0  0  0  0  0  0  0
   70.1076   47.2996   57.7499 C   0  0  0  0  0  0  0  0  0  0  0  0
   69.6799   45.9640   58.0204 N   0  0  0  0  0  0  0  0  0  0  0  0
   69.5599   48.0791   56.5960 C   0  0  0  0  0  0  0  0  0  0  0  0
   68.8639   47.1762   55.6307 C   0  0  0  0  0  0  0  0  0  0  0  0
   68.0631   46.1404   55.9395 N   0  0  0  0  0  0  0  0  0  0  0  0
   67.6285   45.5761   54.8629 O   0  0  0  0  0  0  0  0  0  0  0  0
   68.1069   46.1901   53.7962 C   0  0  0  0  0  0  0  0  0  0  0  0
   67.9641   46.0071   52.4477 C   0  0  0  0  0  0  0  0  0  0  0  0
   68.5972   46.8291   51.5493 C   0  0  0  0  0  0  0  0  0  0  0  0
   69.3795   47.8423   52.0131 C   0  0  0  0  0  0  0  0  0  0  0  0
   69.5347   48.0376   53.3729 C   0  0  0  0  0  0  0  0  0  0  0  0
   68.9110   47.2298   54.2606 C   0  0  0  0  0  0  0  0  0  0  0  0
   70.2868   45.3739   59.1470 N   0  0  0  0  0  0  0  0  0  0  0  0
   71.3257   44.3927   58.9293 C   0  0  0  0  0  0  0  0  0  0  0  0
   72.5643   44.2657   59.9318 S   0  0  0  0  0  0  0  0  0  0  0  0
   71.1983   43.5504   57.8068 N   0  0  0  0  0  0  0  0  0  0  0  0
   70.1062   42.6837   57.5869 C   0  0  0  0  0  0  0  0  0  0  0  0
   70.0933   41.3955   58.1190 C   0  0  0  0  0  0  0  0  0  0  0  0
   69.0241   40.5529   57.8861 C   0  0  0  0  0  0  0  0  0  0  0  0
   67.9275   40.9467   57.1233 C   0  0  0  0  0  0  0  0  0  0  0  0
   67.9412   42.2174   56.6006 C   0  0  0  0  0  0  0  0  0  0  0  0
   69.0080   43.0510   56.8356 C   0  0  0  0  0  0  0  0  0  0  0  0
  1  2  2  0
  2  4  1  0
  2  3  1  0
  4  5  1  0
  5  6  2  0
  5 13  1  0
  6  7  1  0
  7  8  1  0
  8  9  1  0
  8 13  2  0
  9 10  2  0
 10 11  1  0
 11 12  2  0
 12 13  1  0
  3 14  1  0
 14 15  1  0
 15 16  2  0
 15 17  1  0
 17 18  1  0
 18 19  2  0
 18 23  1  0
 19 20  1  0
 20 21  2  0
 21 22  1  0
 22 23  2  0
M  END
>  <minimizedAffinity>  (951) 
-8.50730

$$$$
data/reference_output_2/data/smiles/175140.pdb
     RDKit          3D

 23 25  0  0  0  0  0  0  0  0999 V2000
   67.9552   44.5887   56.0671 O   0  0  0  0  0  0  0  0  0  0  0  0
   69.8345   49.8437   50.8043 O   0  0  0  0  0  0  0  0  0  0  0  0
   69.6110   49.1119   51.8128 C   0  0  0  0  0  0  0  0  0  0  0  0
   69.9749   49.4923   53.0892 C   0  0  0  0  0  0  0  0  0  0  0  0
   69.7331   48.6978   54.1918 C   0  0  0  0  0  0  0  0  0  0  0  0
   69.1074   47.4754   54.0417 C   0  0  0  0  0  0  0  0  0  0  0  0
   68.8518   46.6597   55.1248 C   0  0  0  0  0  0  0  0  0  0  0  0
   68.2268   45.4378   54.9800 C   0  0  0  0  0  0  0  0  0  0  0  0
   67.8733   45.0825   53.6947 C   0  0  0  0  0  0  0  0  0  0  0  0
   68.1261   45.8937   52.6102 C   0  0  0  0  0  0  0  0  0  0  0  0
   68.7513   47.1146   52.7585 C   0  0  0  0  0  0  0  0  0  0  0  0
   69.0028   47.9175   51.6977 N   0  0  0  0  0  0  0  0  0  0  0  0
   68.5556   43.3431   56.2048 C   0  0  0  0  0  0  0  0  0  0  0  0
   69.1942   43.0532   57.4922 C   0  0  0  0  0  0  0  0  0  0  0  0
   68.4988   42.5193   58.4333 N   0  0  0  0  0  0  0  0  0  0  0  0
   67.1993   42.1678   58.4004 O   0  0  0  0  0  0  0  0  0  0  0  0
   70.6137   43.3507   57.6433 C   0  0  0  0  0  0  0  0  0  0  0  0
   71.0535   44.6196   57.9576 C   0  0  0  0  0  0  0  0  0  0  0  0
   72.4007   44.9107   58.1065 C   0  0  0  0  0  0  0  0  0  0  0  0
   73.3558   43.9333   57.9438 C   0  0  0  0  0  0  0  0  0  0  0  0
   74.6875   44.1925   58.0847 F   0  0  0  0  0  0  0  0  0  0  0  0
   72.9318   42.6616   57.6301 C   0  0  0  0  0  0  0  0  0  0  0  0
   71.5736   42.3839   57.4836 C   0  0  0  0  0  0  0  0  0  0  0  0
  2  3  2  0
  3  4  1  0
  3 12  1  0
  4  5  2  0
  5  6  1  0
  6  7  1  0
  6 11  2  0
  7  8  2  0
  8  1  1  0
  8  9  1  0
  1 13  1  0
 13 14  1  0
 14 15  2  0
 14 17  1  0
 15 16  1  0
 17 18  2  0
 17 23  1  0
 18 19  1  0
 19 20  2  0
 20 21  1  0
 20 22  1  0
 22 23  2  0
  9 10  2  0
 10 11  1  0
 11 12  1  0
M  END
>  <minimizedAffinity>  (952) 
-8.52625

$$$$
data/reference_output_2/data/smiles/175208.pdb
     RDKit          3D

 26 28  0  0  0  0  0  0  0  0999 V2000
   69.3957   47.6811   56.1904 C   0  0  0  0  0  0  0  0  0  0  0  0
   70.6874   48.2533   56.2061 O   0  0  0  0  0  0  0  0  0  0  0  0
   68.4708   48.6757   56.7091 C   0  0  0  0  0  0  0  0  0  0  0  0
   68.7076   50.0142   56.5072 C   0  0  0  0  0  0  0  0  0  0  0  0
   67.8458   50.9874   56.9947 C   0  0  0  0  0  0  0  0  0  0  0  0
   66.7244   50.6099   57.6964 C   0  0  0  0  0  0  0  0  0  0  0  0
   66.4713   49.2741   57.9090 C   0  0  0  0  0  0  0  0  0  0  0  0
   67.3512   48.3122   57.4109 C   0  0  0  0  0  0  0  0  0  0  0  0
   69.0529   47.4451   54.7626 C   0  0  0  0  0  0  0  0  0  0  0  0
   69.6824   48.1763   53.7497 C   0  0  0  0  0  0  0  0  0  0  0  0
   69.3799   47.9738   52.4317 C   0  0  0  0  0  0  0  0  0  0  0  0
   68.4416   47.0368   52.0802 C   0  0  0  0  0  0  0  0  0  0  0  0
   67.8218   46.3176   53.0744 C   0  0  0  0  0  0  0  0  0  0  0  0
   68.1097   46.5030   54.4107 C   0  0  0  0  0  0  0  0  0  0  0  0
   69.7325   46.4445   58.1513 O   0  0  0  0  0  0  0  0  0  0  0  0
   69.3891   46.3981   56.9449 C   0  0  0  0  0  0  0  0  0  0  0  0
   69.0311   45.1431   56.4207 N   0  0  0  0  0  0  0  0  0  0  0  0
   69.0222   43.9482   57.1148 N   0  0  0  0  0  0  0  0  0  0  0  0
   68.6044   42.8134   56.6957 C   0  0  0  0  0  0  0  0  0  0  0  0
   68.6226   41.5957   57.4764 C   0  0  0  0  0  0  0  0  0  0  0  0
   69.0772   41.5639   58.7601 C   0  0  0  0  0  0  0  0  0  0  0  0
   69.0763   40.3610   59.4820 C   0  0  0  0  0  0  0  0  0  0  0  0
   68.6190   39.1984   58.9102 C   0  0  0  0  0  0  0  0  0  0  0  0
   68.1591   39.2301   57.6127 C   0  0  0  0  0  0  0  0  0  0  0  0
   68.1644   40.4352   56.9048 C   0  0  0  0  0  0  0  0  0  0  0  0
   67.7008   40.4404   55.6139 O   0  0  0  0  0  0  0  0  0  0  0  0
 15 16  2  0
 16 17  1  0
 16  1  1  0
 17 18  1  0
 18 19  2  0
 19 20  1  0
 20 21  2  0
 20 25  1  0
 21 22  1  0
 22 23  2  0
 23 24  1  0
 24 25  2  0
 25 26  1  0
  1  2  1  0
  1  3  1  0
  1  9  1  0
  3  4  2  0
  3  8  1  0
  4  5  1  0
  5  6  2  0
  6  7  1  0
  7  8  2  0
  9 10  2  0
  9 14  1  0
 10 11  1  0
 11 12  2  0
 12 13  1  0
 13 14  2  0
M  END
>  <minimizedAffinity>  (953) 
-9.02985

$$$$
data/reference_output_2/data/smiles/175311.pdb
     RDKit          3D

 21 22  0  0  0  0  0  0  0  0999 V2000
   68.9588   50.0377   56.6215 C   0  0  0  0  0  0  0  0  0  0  0  0
   68.1353   51.0567   57.0469 C   0  0  0  0  0  0  0  0  0  0  0  0
   66.9120   50.8396   57.6790 C   0  0  0  0  0  0  0  0  0  0  0  0
   66.5126   49.5420   57.8858 C   0  0  0  0  0  0  0  0  0  0  0  0
   67.3281   48.5032   57.4644 C   0  0  0  0  0  0  0  0  0  0  0  0
   68.5335   48.7253   56.8416 C   0  0  0  0  0  0  0  0  0  0  0  0
   70.3837   50.9114   54.8230 C   0  0  0  0  0  0  0  0  0  0  0  0
   70.2354   50.2625   55.9623 C   0  0  0  0  0  0  0  0  0  0  0  0
   71.8870   52.2465   53.6486 O   0  0  0  0  0  0  0  0  0  0  0  0
   71.6642   51.1304   54.1725 C   0  0  0  0  0  0  0  0  0  0  0  0
   72.6760   50.1459   54.0987 N   0  0  0  0  0  0  0  0  0  0  0  0
   73.8750   50.3756   53.4800 O   0  0  0  0  0  0  0  0  0  0  0  0
   69.2789   47.6224   56.4574 O   0  0  0  0  0  0  0  0  0  0  0  0
   68.7843   46.5453   55.7814 C   0  0  0  0  0  0  0  0  0  0  0  0
   68.4775   45.5228   56.4482 O   0  0  0  0  0  0  0  0  0  0  0  0
   68.6293   46.6090   54.3328 C   0  0  0  0  0  0  0  0  0  0  0  0
   67.8293   45.6970   53.6803 C   0  0  0  0  0  0  0  0  0  0  0  0
   67.6658   45.7373   52.2922 C   0  0  0  0  0  0  0  0  0  0  0  0
   68.3146   46.7067   51.5563 C   0  0  0  0  0  0  0  0  0  0  0  0
   69.1285   47.6399   52.1996 C   0  0  0  0  0  0  0  0  0  0  0  0
   69.2606   47.5629   53.5568 C   0  0  0  0  0  0  0  0  0  0  0  0
  9 10  2  0
 10  7  1  0
 10 11  1  0
  7  8  2  0
  8  1  1  0
  1  2  2  0
  1  6  1  0
  2  3  1  0
  3  4  2  0
  4  5  1  0
  5  6  2  0
  6 13  1  0
 13 14  1  0
 14 15  2  0
 14 16  1  0
 16 17  2  0
 16 21  1  0
 17 18  1  0
 18 19  2  0
 19 20  1  0
 20 21  2  0
 11 12  1  0
M  END
>  <minimizedAffinity>  (954) 
-8.72443

$$$$
data/reference_output_2/data/smiles/175321.pdb
     RDKit          3D

 23 24  0  0  0  0  0  0  0  0999 V2000
   70.3143   46.0407   57.7816 C   0  0  0  0  0  0  0  0  0  0  0  0
   71.3078   47.0981   58.5420 S   0  0  0  0  0  0  0  0  0  0  0  0
   70.2422   43.7053   58.6227 C   0  0  0  0  0  0  0  0  0  0  0  0
   69.4449   44.0664   59.5124 O   0  0  0  0  0  0  0  0  0  0  0  0
   70.7200   44.6611   57.7002 N   0  0  0  0  0  0  0  0  0  0  0  0
   71.7156   38.1435   58.4364 C   0  0  0  0  0  0  0  0  0  0  0  0
   71.3687   39.6094   58.5002 C   0  0  0  0  0  0  0  0  0  0  0  0
   72.3209   40.5716   58.7084 C   0  0  0  0  0  0  0  0  0  0  0  0
   71.9545   41.9167   58.7575 C   0  0  0  0  0  0  0  0  0  0  0  0
   70.6325   42.2974   58.5989 C   0  0  0  0  0  0  0  0  0  0  0  0
   69.7018   41.3080   58.3930 C   0  0  0  0  0  0  0  0  0  0  0  0
   70.0471   39.9868   58.3420 C   0  0  0  0  0  0  0  0  0  0  0  0
   69.0799   46.4961   57.2390 N   0  0  0  0  0  0  0  0  0  0  0  0
   68.7992   46.4995   55.8633 C   0  0  0  0  0  0  0  0  0  0  0  0
   69.0083   47.6039   55.0730 C   0  0  0  0  0  0  0  0  0  0  0  0
   68.7019   47.5752   53.7067 C   0  0  0  0  0  0  0  0  0  0  0  0
   68.1806   46.4381   53.1115 C   0  0  0  0  0  0  0  0  0  0  0  0
   67.9773   45.3417   53.9224 C   0  0  0  0  0  0  0  0  0  0  0  0
   68.2695   45.3348   55.2772 C   0  0  0  0  0  0  0  0  0  0  0  0
   68.0728   44.2497   56.0986 O   0  0  0  0  0  0  0  0  0  0  0  0
   67.8553   46.3605   51.7310 N   0  0  0  0  0  0  0  0  0  0  0  0
   68.5256   47.0336   50.9202 O   0  0  0  0  0  0  0  0  0  0  0  0
   66.8431   45.5788   51.2280 O   0  0  0  0  0  0  0  0  0  0  0  0
  6  7  1  0
  7  8  2  0
  7 12  1  0
  8  9  1  0
  9 10  2  0
 10  3  1  0
 10 11  1  0
  3  4  2  0
  3  5  1  0
  5  1  1  0
  1  2  2  0
  1 13  1  0
 13 14  1  0
 14 15  2  0
 14 19  1  0
 15 16  1  0
 16 17  2  0
 17 21  1  0
 17 18  1  0
 21 22  2  0
 21 23  1  0
 18 19  2  0
 19 20  1  0
 11 12  2  0
M  CHG  2  21   1  23  -1
M  END
>  <minimizedAffinity>  (955) 
-8.62920

$$$$
data/reference_output_2/data/smiles/175338.pdb
     RDKit          3D

 32 35  0  0  0  0  0  0  0  0999 V2000
   70.0830   45.4243   58.6230 N   0  0  0  0  0  0  0  0  0  0  0  0
   70.5045   44.4073   57.7080 C   0  0  1  0  0  0  0  0  0  0  0  0
   71.8988   43.9510   58.1879 C   0  0  0  0  0  0  0  0  0  0  0  0
   72.3029   42.6972   57.4902 C   0  0  0  0  0  0  0  0  0  0  0  0
   72.1665   41.4602   58.3217 C   0  0  0  0  0  0  0  0  0  0  0  0
   70.8016   41.3396   58.9682 C   0  0  0  0  0  0  0  0  0  0  0  0
   69.7662   41.8612   58.1078 N   0  0  0  0  0  0  0  0  0  0  0  0
   69.6647   43.2074   57.5962 C   0  0  0  0  0  0  0  0  0  0  0  0
   68.6239   43.4263   56.8839 O   0  0  0  0  0  0  0  0  0  0  0  0
   68.7137   41.0139   57.6498 C   0  0  0  0  0  0  0  0  0  0  0  0
   67.8710   40.3271   58.6060 C   0  0  0  0  0  0  0  0  0  0  0  0
   67.5954   39.0888   58.2982 O   0  0  0  0  0  0  0  0  0  0  0  0
   67.3190   40.7686   59.7928 N   0  0  0  0  0  0  0  0  0  0  0  0
   66.4565   39.9219   60.6715 C   0  0  0  0  0  0  0  0  0  0  0  0
   65.4205   40.9313   61.1297 C   0  0  0  0  0  0  0  0  0  0  0  0
   66.2365   42.1948   61.3710 C   0  0  0  0  0  0  0  0  0  0  0  0
   67.4497   42.0338   60.4617 C   0  0  0  0  0  0  0  0  0  0  0  0
   71.2687   47.3889   58.9406 N   0  0  0  0  0  0  0  0  0  0  0  0
   70.2532   46.8254   58.4173 C   0  0  0  0  0  0  0  0  0  0  0  0
   71.7430   49.9151   58.7762 N   0  0  0  0  0  0  0  0  0  0  0  0
   71.5260   48.7016   58.8551 C   0  0  0  0  0  0  0  0  0  0  0  0
   69.3306   47.6212   57.6942 N   0  0  0  0  0  0  0  0  0  0  0  0
   69.2935   47.6228   56.2761 C   0  0  0  0  0  0  0  0  0  0  0  0
   69.8431   48.5946   55.4823 C   0  0  0  0  0  0  0  0  0  0  0  0
   69.7056   48.5578   54.1070 C   0  0  0  0  0  0  0  0  0  0  0  0
   69.0232   47.5653   53.4617 C   0  0  0  0  0  0  0  0  0  0  0  0
   68.8587   47.5028   52.1020 C   0  0  0  0  0  0  0  0  0  0  0  0
   68.1539   46.4979   51.4657 C   0  0  0  0  0  0  0  0  0  0  0  0
   67.5882   45.5113   52.2423 C   0  0  0  0  0  0  0  0  0  0  0  0
   67.7486   45.5645   53.6192 C   0  0  0  0  0  0  0  0  0  0  0  0
   68.4482   46.5569   54.2655 C   0  0  0  0  0  0  0  0  0  0  0  0
   68.5943   46.6048   55.6338 C   0  0  0  0  0  0  0  0  0  0  0  0
 20 21  3  0
 21 18  1  0
 18 19  2  0
 19 22  1  0
 19  1  1  0
 22 23  1  0
 23 24  2  0
 23 32  1  0
 24 25  1  0
 25 26  2  0
 26 27  1  0
 26 31  1  0
 27 28  2  0
 28 29  1  0
 29 30  2  0
 30 31  1  0
 31 32  2  0
  2  1  1  1
  2  3  1  0
  2  8  1  0
  3  4  1  0
  4  5  1  0
  5  6  1  0
  6  7  1  0
  7 10  1  0
  7  8  1  0
 10 11  1  0
 11 12  2  0
 11 13  1  0
 13 14  1  0
 13 17  1  0
 14 15  1  0
 15 16  1  0
 16 17  1  0
  8  9  2  0
M  CHG  1  18   1
M  END
>  <minimizedAffinity>  (956) 
-8.51567

$$$$
data/reference_output_2/data/smiles/175422.pdb
     RDKit          3D

 27 29  0  0  0  0  0  0  0  0999 V2000
   74.2503   42.5431   58.6300 C   0  0  0  0  0  0  0  0  0  0  0  0
   72.8860   41.9532   58.3841 C   0  0  0  0  0  0  0  0  0  0  0  0
   72.6599   40.6365   58.6885 C   0  0  0  0  0  0  0  0  0  0  0  0
   71.4201   40.0435   58.4804 C   0  0  0  0  0  0  0  0  0  0  0  0
   70.4404   40.8470   57.9571 C   0  0  0  0  0  0  0  0  0  0  0  0
   70.6292   42.1990   57.6315 C   0  0  0  0  0  0  0  0  0  0  0  0
   71.8627   42.7113   57.8597 C   0  0  0  0  0  0  0  0  0  0  0  0
   72.1373   43.9868   57.5842 F   0  0  0  0  0  0  0  0  0  0  0  0
   71.2043   38.6468   58.8113 C   0  0  0  0  0  0  0  0  0  0  0  0
   72.0296   37.7052   58.2482 C   0  0  0  0  0  0  0  0  0  0  0  0
   71.8342   36.3795   58.5553 C   0  0  0  0  0  0  0  0  0  0  0  0
   70.8584   35.9967   59.3874 N   0  0  0  0  0  0  0  0  0  0  0  0
   70.0693   36.9173   59.9226 N   0  0  0  0  0  0  0  0  0  0  0  0
   70.2097   38.2256   59.6621 C   0  0  0  0  0  0  0  0  0  0  0  0
   69.4898   42.9160   57.0795 C   0  0  0  0  0  0  0  0  0  0  0  0
   68.4187   42.2635   56.8193 O   0  0  0  0  0  0  0  0  0  0  0  0
   69.4311   44.2970   56.7888 N   0  0  0  0  0  0  0  0  0  0  0  0
   68.2595   44.8902   56.2507 N   0  0  0  0  0  0  0  0  0  0  0  0
   68.5944   46.5597   55.8794 S   0  0  0  0  0  0  0  0  0  0  0  0
   67.4747   47.3641   56.5029 O   0  0  0  0  0  0  0  0  0  0  0  0
   69.8598   46.9544   56.5564 O   0  0  0  0  0  0  0  0  0  0  0  0
   68.6791   46.8011   54.1666 C   0  0  0  0  0  0  0  0  0  0  0  0
   67.9757   45.9814   53.3021 C   0  0  0  0  0  0  0  0  0  0  0  0
   68.0057   46.1287   51.9351 C   0  0  0  0  0  0  0  0  0  0  0  0
   68.7570   47.1229   51.3813 C   0  0  0  0  0  0  0  0  0  0  0  0
   69.4816   47.9716   52.2176 C   0  0  0  0  0  0  0  0  0  0  0  0
   69.4314   47.7998   53.5784 C   0  0  0  0  0  0  0  0  0  0  0  0
  1  2  1  0
  2  3  2  0
  2  7  1  0
  3  4  1  0
  4  9  1  0
  4  5  2  0
  9 10  2  0
  9 14  1  0
 10 11  1  0
 11 12  2  0
 12 13  1  0
 13 14  2  0
  5  6  1  0
  6 15  1  0
  6  7  2  0
 15 16  2  0
 15 17  1  0
 17 18  1  0
 18 19  1  0
 19 20  2  0
 19 21  2  0
 19 22  1  0
 22 23  2  0
 22 27  1  0
 23 24  1  0
 24 25  2  0
 25 26  1  0
 26 27  2  0
  7  8  1  0
M  END
>  <minimizedAffinity>  (957) 
-9.06853

$$$$
data/reference_output_2/data/smiles/175493.pdb
     RDKit          3D

 24 25  0  0  0  0  0  0  0  0999 V2000
   70.0668   49.2684   52.5918 S   0  0  0  0  0  0  0  0  0  0  0  0
   69.8943   49.3347   51.1098 O   0  0  0  0  0  0  0  0  0  0  0  0
   71.5457   49.0658   52.8408 O   0  0  0  0  0  0  0  0  0  0  0  0
   69.2355   47.8869   53.2176 C   0  0  0  0  0  0  0  0  0  0  0  0
   69.2260   47.6477   54.5754 C   0  0  0  0  0  0  0  0  0  0  0  0
   69.8813   48.5206   55.3721 F   0  0  0  0  0  0  0  0  0  0  0  0
   68.5696   46.5505   55.1163 C   0  0  0  0  0  0  0  0  0  0  0  0
   68.5872   46.3562   56.4550 F   0  0  0  0  0  0  0  0  0  0  0  0
   67.9120   45.6849   54.2531 C   0  0  0  0  0  0  0  0  0  0  0  0
   67.9258   45.9296   52.8943 C   0  0  0  0  0  0  0  0  0  0  0  0
   67.2809   45.0806   52.0511 F   0  0  0  0  0  0  0  0  0  0  0  0
   68.5866   47.0347   52.3486 C   0  0  0  0  0  0  0  0  0  0  0  0
   68.5848   47.2538   51.0117 F   0  0  0  0  0  0  0  0  0  0  0  0
   69.6157   50.7391   53.3586 N   0  0  0  0  0  0  0  0  0  0  0  0
   72.0501   52.7036   56.2562 C   0  0  0  0  0  0  0  0  0  0  0  0
   72.5402   51.6718   55.4810 C   0  0  0  0  0  0  0  0  0  0  0  0
   71.7412   51.0451   54.5472 C   0  0  0  0  0  0  0  0  0  0  0  0
   70.4191   51.4015   54.3277 C   0  0  0  0  0  0  0  0  0  0  0  0
   69.9388   52.4334   55.1084 C   0  0  0  0  0  0  0  0  0  0  0  0
   70.7326   53.0652   56.0443 C   0  0  0  0  0  0  0  0  0  0  0  0
   73.8601   52.3021   58.3915 N   0  0  0  0  0  0  0  0  0  0  0  0
   73.0552   53.5047   57.4427 S   0  0  0  0  0  0  0  0  0  0  0  0
   72.2632   54.4050   58.3379 O   0  0  0  0  0  0  0  0  0  0  0  0
   74.1501   54.3099   56.7604 O   0  0  0  0  0  0  0  0  0  0  0  0
 21 22  1  0
 22 23  2  0
 22 24  2  0
 22 15  1  0
 15 16  2  0
 15 20  1  0
 16 17  1  0
 17 18  2  0
 18 14  1  0
 18 19  1  0
 14  1  1  0
  1  2  2  0
  1  3  2  0
  1  4  1  0
  4  5  2  0
  4 12  1  0
  5  6  1  0
  5  7  1  0
  7  8  1  0
  7  9  2  0
  9 10  1  0
 10 11  1  0
 10 12  2  0
 12 13  1  0
 19 20  2  0
M  END
>  <minimizedAffinity>  (958) 
-8.63573

$$$$
data/reference_output_2/data/smiles/175669.pdb
     RDKit          3D

 33 37  0  0  0  0  0  0  0  0999 V2000
   71.8767   46.5623   59.2455 C   0  0  0  0  0  0  0  0  0  0  0  0
   70.9350   47.1853   58.4712 C   0  0  0  0  0  0  0  0  0  0  0  0
   70.1301   46.5013   57.5465 C   0  0  0  0  0  0  0  0  0  0  0  0
   70.3158   45.1597   57.4363 C   0  0  0  0  0  0  0  0  0  0  0  0
   71.2589   44.5195   58.2083 C   0  0  0  0  0  0  0  0  0  0  0  0
   72.0516   45.2059   59.1216 C   0  0  0  0  0  0  0  0  0  0  0  0
   72.9627   44.5108   59.8508 F   0  0  0  0  0  0  0  0  0  0  0  0
   72.2036   47.5992   61.3058 O   0  0  0  0  0  0  0  0  0  0  0  0
   72.6778   47.3212   60.1808 C   0  0  0  0  0  0  0  0  0  0  0  0
   73.9904   47.7723   59.8799 N   0  0  0  0  0  0  0  0  0  0  0  0
   74.7691   48.5231   60.8123 C   0  0  0  0  0  0  0  0  0  0  0  0
   75.7493   49.4879   60.1811 C   0  0  0  0  0  0  0  0  0  0  0  0
   76.3418   48.8912   58.9775 N   0  0  0  0  0  0  0  0  0  0  0  0
   76.0324   47.5150   58.6645 C   0  0  0  0  0  0  0  0  0  0  0  0
   74.5214   47.4437   58.5802 C   0  0  0  0  0  0  0  0  0  0  0  0
   77.1941   49.6557   58.1606 C   0  0  0  0  0  0  0  0  0  0  0  0
   78.3433   50.3044   58.5352 C   0  0  0  0  0  0  0  0  0  0  0  0
   79.1053   51.0368   57.6510 C   0  0  0  0  0  0  0  0  0  0  0  0
   78.7263   51.1406   56.3393 C   0  0  0  0  0  0  0  0  0  0  0  0
   77.5720   50.4891   55.9629 C   0  0  0  0  0  0  0  0  0  0  0  0
   76.8473   49.7825   56.8402 N   0  0  0  0  0  0  0  0  0  0  0  0
   69.1413   47.3114   56.7839 C   0  0  0  0  0  0  0  0  0  0  0  0
   68.6559   46.6460   55.5547 C   0  0  0  0  0  0  0  0  0  0  0  0
   68.0464   45.4353   55.6147 N   0  0  0  0  0  0  0  0  0  0  0  0
   67.5695   44.7752   54.5936 N   0  0  0  0  0  0  0  0  0  0  0  0
   67.6791   45.3188   53.3715 C   0  0  0  0  0  0  0  0  0  0  0  0
   67.2233   44.6994   52.3511 O   0  0  0  0  0  0  0  0  0  0  0  0
   68.2850   46.5452   53.2186 C   0  0  0  0  0  0  0  0  0  0  0  0
   68.7818   47.2250   54.3109 C   0  0  0  0  0  0  0  0  0  0  0  0
   69.4447   48.5409   54.1239 C   0  0  0  0  0  0  0  0  0  0  0  0
   70.1796   48.6931   52.8385 C   0  0  0  0  0  0  0  0  0  0  0  0
   69.8555   47.6646   51.7951 C   0  0  0  0  0  0  0  0  0  0  0  0
   68.4243   47.1836   51.8881 C   0  0  0  0  0  0  0  0  0  0  0  0
  8  9  2  0
  9  1  1  0
  9 10  1  0
  1  2  2  0
  1  6  1  0
  2  3  1  0
  3 22  1  0
  3  4  2  0
 22 23  1  0
 23 24  2  0
 23 29  1  0
 24 25  1  0
 25 26  1  0
 26 27  2  0
 26 28  1  0
 28 29  2  0
 28 33  1  0
 29 30  1  0
 30 31  1  0
 31 32  1  0
 32 33  1  0
  4  5  1  0
  5  6  2  0
  6  7  1  0
 10 11  1  0
 10 15  1  0
 11 12  1  0
 12 13  1  0
 13 16  1  0
 13 14  1  0
 16 17  2  0
 16 21  1  0
 17 18  1  0
 18 19  2  0
 19 20  1  0
 20 21  2  0
 14 15  1  0
M  END
>  <minimizedAffinity>  (959) 
-9.81302

$$$$
data/reference_output_2/data/smiles/175707.pdb
     RDKit          3D

 21 24  0  0  0  0  0  0  0  0999 V2000
   70.4257   49.0522   50.9672 O   0  0  0  0  0  0  0  0  0  0  0  0
   69.9597   48.6884   52.2255 C   0  0  0  0  0  0  0  0  0  0  0  0
   70.3587   49.3303   53.3733 C   0  0  0  0  0  0  0  0  0  0  0  0
   69.8637   48.9258   54.5794 C   0  0  0  0  0  0  0  0  0  0  0  0
   68.9439   47.8643   54.7333 C   0  0  0  0  0  0  0  0  0  0  0  0
   68.5841   47.2605   53.5603 C   0  0  0  0  0  0  0  0  0  0  0  0
   67.7147   46.2046   53.6063 C   0  0  0  0  0  0  0  0  0  0  0  0
   67.3194   45.5391   52.4675 C   0  0  0  0  0  0  0  0  0  0  0  0
   67.8061   45.9375   51.2405 C   0  0  0  0  0  0  0  0  0  0  0  0
   68.6557   46.9708   51.2222 N   0  0  0  0  0  0  0  0  0  0  0  0
   69.0595   47.6390   52.3236 C   0  0  0  0  0  0  0  0  0  0  0  0
   68.4512   47.5882   56.0881 C   0  0  0  0  0  0  0  0  0  0  0  0
   69.1077   46.4851   56.7640 N   0  0  0  0  0  0  0  0  0  0  0  0
   68.7678   45.1997   56.5160 N   0  0  0  0  0  0  0  0  0  0  0  0
   69.5278   44.3660   57.1580 N   0  0  0  0  0  0  0  0  0  0  0  0
   70.4289   45.0843   57.8807 C   0  0  0  0  0  0  0  0  0  0  0  0
   71.4396   44.7028   58.7468 C   0  0  0  0  0  0  0  0  0  0  0  0
   72.1980   45.6508   59.3853 C   0  0  0  0  0  0  0  0  0  0  0  0
   71.8984   46.9672   59.1157 C   0  0  0  0  0  0  0  0  0  0  0  0
   70.8946   47.3500   58.2526 C   0  0  0  0  0  0  0  0  0  0  0  0
   70.1275   46.4074   57.6029 C   0  0  0  0  0  0  0  0  0  0  0  0
  1  2  1  0
  2  3  2  0
  2 11  1  0
  3  4  1  0
  4  5  2  0
  5 12  1  0
  5  6  1  0
 12 13  1  0
 13 14  1  0
 13 21  1  0
 14 15  2  0
 15 16  1  0
 16 17  1  0
 16 21  2  0
 17 18  2  0
 18 19  1  0
 19 20  2  0
 20 21  1  0
  6  7  1  0
  6 11  2  0
  7  8  2  0
  8  9  1  0
  9 10  2  0
 10 11  1  0
M  END
>  <minimizedAffinity>  (960) 
-8.86911

$$$$
data/reference_output_2/data/smiles/175714.pdb
     RDKit          3D

 20 22  0  0  0  0  0  0  0  0999 V2000
   70.1470   49.1494   51.0410 O   0  0  0  0  0  0  0  0  0  0  0  0
   69.8926   48.7611   52.2078 C   0  0  0  0  0  0  0  0  0  0  0  0
   70.3573   49.3824   53.4712 C   0  0  0  0  0  0  0  0  0  0  0  0
   71.0911   50.4075   53.4868 O   0  0  0  0  0  0  0  0  0  0  0  0
   69.8421   48.6332   54.5595 N   0  0  0  0  0  0  0  0  0  0  0  0
   69.0681   47.5577   53.9786 C   0  0  0  0  0  0  0  0  0  0  0  0
   68.3611   46.5409   54.5777 C   0  0  0  0  0  0  0  0  0  0  0  0
   67.6829   45.6020   53.8108 C   0  0  0  0  0  0  0  0  0  0  0  0
   67.7114   45.6784   52.4316 C   0  0  0  0  0  0  0  0  0  0  0  0
   67.0580   44.7739   51.6653 F   0  0  0  0  0  0  0  0  0  0  0  0
   68.4156   46.6894   51.8550 C   0  0  0  0  0  0  0  0  0  0  0  0
   69.0931   47.6287   52.6130 C   0  0  0  0  0  0  0  0  0  0  0  0
   69.9988   48.8437   55.9787 C   0  0  0  0  0  0  0  0  0  0  0  0
   68.8243   49.4856   56.5885 C   0  0  0  0  0  0  0  0  0  0  0  0
   67.9559   48.7211   57.3333 C   0  0  0  0  0  0  0  0  0  0  0  0
   66.8203   49.2786   57.9166 C   0  0  0  0  0  0  0  0  0  0  0  0
   66.5533   50.6247   57.7475 C   0  0  0  0  0  0  0  0  0  0  0  0
   67.4093   51.3749   57.0147 C   0  0  0  0  0  0  0  0  0  0  0  0
   68.5520   50.8179   56.4281 C   0  0  0  0  0  0  0  0  0  0  0  0
   69.3510   51.6779   55.7321 F   0  0  0  0  0  0  0  0  0  0  0  0
  1  2  2  0
  2  3  1  0
  2 12  1  0
  3  4  2  0
  3  5  1  0
  5 13  1  0
  5  6  1  0
 13 14  1  0
 14 15  2  0
 14 19  1  0
 15 16  1  0
 16 17  2  0
 17 18  1  0
 18 19  2  0
 19 20  1  0
  6  7  2  0
  6 12  1  0
  7  8  1  0
  8  9  2  0
  9 10  1  0
  9 11  1  0
 11 12  2  0
M  END
>  <minimizedAffinity>  (961) 
-8.77085

$$$$
data/reference_output_2/data/smiles/175854.pdb
     RDKit          3D

 26 28  0  0  0  0  0  0  0  0999 V2000
   74.3572   42.8987   58.5542 C   0  0  0  0  0  0  0  0  0  0  0  0
   73.0244   42.2258   58.3792 C   0  0  0  0  0  0  0  0  0  0  0  0
   72.8723   40.8785   58.6085 C   0  0  0  0  0  0  0  0  0  0  0  0
   71.6588   40.2360   58.4557 C   0  0  0  0  0  0  0  0  0  0  0  0
   70.6045   41.0207   58.0590 C   0  0  0  0  0  0  0  0  0  0  0  0
   70.6846   42.3829   57.8095 C   0  0  0  0  0  0  0  0  0  0  0  0
   71.9069   42.9729   57.9759 C   0  0  0  0  0  0  0  0  0  0  0  0
   72.1294   44.2877   57.7639 F   0  0  0  0  0  0  0  0  0  0  0  0
   71.5342   38.8417   58.7011 N   0  0  0  0  0  0  0  0  0  0  0  0
   71.0208   38.2685   59.8054 C   0  0  0  0  0  0  0  0  0  0  0  0
   71.0723   36.8890   59.6697 C   0  0  0  0  0  0  0  0  0  0  0  0
   71.6412   36.6723   58.4321 C   0  0  0  0  0  0  0  0  0  0  0  0
   71.9014   37.8856   57.8878 N   0  0  0  0  0  0  0  0  0  0  0  0
   69.4896   43.0968   57.4011 C   0  0  0  0  0  0  0  0  0  0  0  0
   68.3603   42.6591   57.7851 O   0  0  0  0  0  0  0  0  0  0  0  0
   69.4865   44.2479   56.6065 N   0  0  0  0  0  0  0  0  0  0  0  0
   68.2690   44.8559   56.2711 N   0  0  0  0  0  0  0  0  0  0  0  0
   68.5547   46.4877   55.8426 S   0  0  0  0  0  0  0  0  0  0  0  0
   69.8748   46.8952   56.4388 O   0  0  0  0  0  0  0  0  0  0  0  0
   67.4391   47.3503   56.4168 O   0  0  0  0  0  0  0  0  0  0  0  0
   68.5706   46.6797   54.1137 C   0  0  0  0  0  0  0  0  0  0  0  0
   67.8420   45.8413   53.3114 C   0  0  0  0  0  0  0  0  0  0  0  0
   67.8612   46.0082   51.9395 C   0  0  0  0  0  0  0  0  0  0  0  0
   68.6211   47.0288   51.3963 C   0  0  0  0  0  0  0  0  0  0  0  0
   69.3606   47.8819   52.1905 C   0  0  0  0  0  0  0  0  0  0  0  0
   69.3325   47.7040   53.5482 C   0  0  0  0  0  0  0  0  0  0  0  0
  1  2  1  0
  2  3  2  0
  2  7  1  0
  3  4  1  0
  4  9  1  0
  4  5  2  0
  9 10  1  0
  9 13  1  0
 10 11  2  0
 11 12  1  0
 12 13  2  0
  5  6  1  0
  6 14  1  0
  6  7  2  0
 14 15  2  0
 14 16  1  0
 16 17  1  0
 17 18  1  0
 18 19  2  0
 18 20  2  0
 18 21  1  0
 21 22  2  0
 21 26  1  0
 22 23  1  0
 23 24  2  0
 24 25  1  0
 25 26  2  0
  7  8  1  0
M  END
>  <minimizedAffinity>  (962) 
-8.54273

$$$$
data/reference_output_2/data/smiles/175877.pdb
     RDKit          3D

 25 28  0  0  0  0  0  0  0  0999 V2000
   68.2417   43.6531   56.1656 C   0  0  0  0  0  0  0  0  0  0  0  0
   67.2237   42.9387   56.0059 O   0  0  0  0  0  0  0  0  0  0  0  0
   69.1970   43.1850   57.1028 N   0  0  0  0  0  0  0  0  0  0  0  0
   69.1002   41.9921   57.8620 C   0  0  2  0  0  0  0  0  0  0  0  0
   70.4109   41.3823   58.2608 C   0  0  0  0  0  0  0  0  0  0  0  0
   70.1466   40.0920   58.9994 C   0  0  1  0  0  0  0  0  0  0  0  0
   69.4136   40.4130   60.2643 C   0  0  0  0  0  0  0  0  0  0  0  0
   68.0687   40.9864   59.9271 C   0  0  2  0  0  0  0  0  0  0  0  0
   67.2566   40.0220   59.1174 C   0  0  0  0  0  0  0  0  0  0  0  0
   68.0347   39.7229   57.8530 C   0  0  2  0  0  0  0  0  0  0  0  0
   69.3588   39.1053   58.1757 C   0  0  0  0  0  0  0  0  0  0  0  0
   68.2924   40.9696   57.0462 C   0  0  0  0  0  0  0  0  0  0  0  0
   68.2782   42.2382   59.1030 C   0  0  0  0  0  0  0  0  0  0  0  0
   68.5572   47.2103   53.7996 C   0  0  0  0  0  0  0  0  0  0  0  0
   69.0091   47.1952   55.1020 C   0  0  0  0  0  0  0  0  0  0  0  0
   68.9155   46.0467   55.8887 C   0  0  0  0  0  0  0  0  0  0  0  0
   68.3686   44.8852   55.3959 C   0  0  0  0  0  0  0  0  0  0  0  0
   67.9221   44.9223   54.0910 C   0  0  0  0  0  0  0  0  0  0  0  0
   68.0088   46.0463   53.3038 C   0  0  0  0  0  0  0  0  0  0  0  0
   67.4169   45.9992   51.6601 Cl  0  0  0  0  0  0  0  0  0  0  0  0
   68.6504   48.3636   53.0065 O   0  0  0  0  0  0  0  0  0  0  0  0
   69.6960   49.9823   50.9350 N   0  0  0  0  0  0  0  0  0  0  0  0
   69.9797   48.6313   51.9825 S   0  0  0  0  0  0  0  0  0  0  0  0
   71.2281   48.9238   52.7656 O   0  0  0  0  0  0  0  0  0  0  0  0
   70.2312   47.4357   51.1221 O   0  0  0  0  0  0  0  0  0  0  0  0
 22 23  1  0
 23 24  2  0
 23 25  2  0
 23 21  1  0
 21 14  1  0
 14 15  2  0
 14 19  1  0
 15 16  1  0
 16 17  2  0
 17  1  1  0
 17 18  1  0
  1  2  2  0
  1  3  1  0
  4  3  1  6
  4  5  1  0
  4 12  1  0
  4 13  1  0
  6  5  1  6
  6  7  1  0
  6 11  1  0
  8  7  1  6
  8  9  1  0
  8 13  1  0
 10  9  1  1
 10 11  1  0
 10 12  1  0
 18 19  2  0
 19 20  1  0
M  END
>  <minimizedAffinity>  (963) 
-8.53960

$$$$
data/reference_output_2/data/smiles/175974.pdb
     RDKit          3D

 25 27  0  0  0  0  0  0  0  0999 V2000
   69.5799   43.5391   57.3190 C   0  0  0  0  0  0  0  0  0  0  0  0
   68.7525   42.4697   56.9947 C   0  0  0  0  0  0  0  0  0  0  0  0
   69.1570   41.3128   57.6251 C   0  0  0  0  0  0  0  0  0  0  0  0
   70.2849   41.7308   58.3607 C   0  0  0  0  0  0  0  0  0  0  0  0
   70.4973   43.0317   58.1550 N   0  0  0  0  0  0  0  0  0  0  0  0
   70.3188   45.7528   57.2999 O   0  0  0  0  0  0  0  0  0  0  0  0
   69.4968   44.9230   56.8643 C   0  0  0  0  0  0  0  0  0  0  0  0
   68.5162   45.3695   55.9425 N   0  0  0  0  0  0  0  0  0  0  0  0
   68.3689   46.7166   55.4494 C   0  0  0  0  0  0  0  0  0  0  0  0
   68.4914   46.8199   53.9691 C   0  0  0  0  0  0  0  0  0  0  0  0
   69.3067   47.7577   53.4059 C   0  0  0  0  0  0  0  0  0  0  0  0
   69.4035   47.8457   52.0365 C   0  0  0  0  0  0  0  0  0  0  0  0
   68.7217   47.0379   51.2092 N   0  0  0  0  0  0  0  0  0  0  0  0
   67.9219   46.1189   51.7650 C   0  0  0  0  0  0  0  0  0  0  0  0
   67.7828   45.9809   53.1246 C   0  0  0  0  0  0  0  0  0  0  0  0
   68.6272   39.9716   57.5690 C   0  0  0  0  0  0  0  0  0  0  0  0
   67.8621   39.6538   56.5893 O   0  0  0  0  0  0  0  0  0  0  0  0
   68.8844   38.9191   58.5410 C   0  0  0  0  0  0  0  0  0  0  0  0
   67.8780   38.5655   59.4510 C   0  0  0  0  0  0  0  0  0  0  0  0
   66.6808   39.2270   59.3332 F   0  0  0  0  0  0  0  0  0  0  0  0
   68.0606   37.6172   60.4110 C   0  0  0  0  0  0  0  0  0  0  0  0
   69.2633   36.9668   60.5132 C   0  0  0  0  0  0  0  0  0  0  0  0
   70.2466   37.3059   59.6330 C   0  0  0  0  0  0  0  0  0  0  0  0
   70.0789   38.2644   58.6566 C   0  0  0  0  0  0  0  0  0  0  0  0
   71.1217   38.5871   57.8272 F   0  0  0  0  0  0  0  0  0  0  0  0
  6  7  2  0
  7  8  1  0
  7  1  1  0
  8  9  1  0
  9 10  1  0
 10 11  2  0
 10 15  1  0
 11 12  1  0
 12 13  2  0
 13 14  1  0
 14 15  2  0
  1  2  2  0
  1  5  1  0
  2  3  1  0
  3 16  1  0
  3  4  2  0
 16 17  2  0
 16 18  1  0
 18 19  2  0
 18 24  1  0
 19 20  1  0
 19 21  1  0
 21 22  2  0
 22 23  1  0
 23 24  2  0
 24 25  1  0
  4  5  1  0
M  END
>  <minimizedAffinity>  (964) 
-8.59074

$$$$
data/reference_output_2/data/smiles/176213.pdb
     RDKit          3D

 26 28  0  0  0  0  0  0  0  0999 V2000
   68.8178   42.5789   57.1059 C   0  0  0  0  0  0  0  0  0  0  0  0
   68.9954   43.8201   56.6431 N   0  0  0  0  0  0  0  0  0  0  0  0
   68.2120   44.3506   55.6651 C   0  0  0  0  0  0  0  0  0  0  0  0
   67.2325   43.6107   55.1463 N   0  0  0  0  0  0  0  0  0  0  0  0
   67.0146   42.3432   55.5863 C   0  0  0  0  0  0  0  0  0  0  0  0
   66.0846   41.6306   55.0981 O   0  0  0  0  0  0  0  0  0  0  0  0
   67.7980   41.8185   56.5609 C   0  0  0  0  0  0  0  0  0  0  0  0
   67.6504   40.5353   57.0736 O   0  0  0  0  0  0  0  0  0  0  0  0
   68.5103   45.7121   55.2609 C   0  0  0  0  0  0  0  0  0  0  0  0
   68.3101   46.1328   53.9541 C   0  0  0  0  0  0  0  0  0  0  0  0
   68.5912   47.4162   53.5451 C   0  0  0  0  0  0  0  0  0  0  0  0
   69.0894   48.3472   54.4270 C   0  0  0  0  0  0  0  0  0  0  0  0
   69.4401   49.9831   53.8755 Cl  0  0  0  0  0  0  0  0  0  0  0  0
   69.2991   47.9619   55.7280 C   0  0  0  0  0  0  0  0  0  0  0  0
   69.0061   46.6506   56.1258 C   0  0  0  0  0  0  0  0  0  0  0  0
   69.6628   42.6298   59.2652 O   0  0  0  0  0  0  0  0  0  0  0  0
   69.6816   42.0592   58.1548 C   0  0  0  0  0  0  0  0  0  0  0  0
   70.5067   40.9402   57.8935 N   0  0  0  0  0  0  0  0  0  0  0  0
   71.4024   40.3514   58.8700 C   0  0  0  0  0  0  0  0  0  0  0  0
   71.3681   38.8815   58.9094 C   0  0  0  0  0  0  0  0  0  0  0  0
   72.2084   38.1520   58.1105 C   0  0  0  0  0  0  0  0  0  0  0  0
   72.1377   36.7591   58.1753 C   0  0  0  0  0  0  0  0  0  0  0  0
   71.2693   36.0816   58.9991 C   0  0  0  0  0  0  0  0  0  0  0  0
   71.2275   34.7210   59.0356 F   0  0  0  0  0  0  0  0  0  0  0  0
   70.4207   36.8447   59.8067 C   0  0  0  0  0  0  0  0  0  0  0  0
   70.4819   38.2202   59.7499 C   0  0  0  0  0  0  0  0  0  0  0  0
 16 17  2  0
 17 18  1  0
 17  1  1  0
 18 19  1  0
 19 20  1  0
 20 21  2  0
 20 26  1  0
 21 22  1  0
 22 23  2  0
 23 24  1  0
 23 25  1  0
 25 26  2  0
  1  2  1  0
  1  7  2  0
  2  3  2  0
  3  9  1  0
  3  4  1  0
  9 10  2  0
  9 15  1  0
 10 11  1  0
 11 12  2  0
 12 13  1  0
 12 14  1  0
 14 15  2  0
  4  5  1  0
  5  6  2  0
  5  7  1  0
  7  8  1  0
M  END
>  <minimizedAffinity>  (965) 
-8.60522

$$$$
data/reference_output_2/data/smiles/176388.pdb
     RDKit          3D

 28 30  0  0  0  0  0  0  0  0999 V2000
   69.5049   47.2972   57.5735 C   0  0  0  0  0  0  0  0  0  0  0  0
   69.3830   47.4101   56.1182 N   0  0  0  0  0  0  0  0  0  0  0  0
   69.9593   48.4011   55.4829 N   0  0  0  0  0  0  0  0  0  0  0  0
   69.8878   48.5696   54.1240 C   0  0  0  0  0  0  0  0  0  0  0  0
   69.1615   47.6174   53.4574 C   0  0  0  0  0  0  0  0  0  0  0  0
   69.0244   47.6894   52.0874 C   0  0  0  0  0  0  0  0  0  0  0  0
   68.2741   46.6945   51.4611 C   0  0  0  0  0  0  0  0  0  0  0  0
   67.6820   45.6709   52.1329 C   0  0  0  0  0  0  0  0  0  0  0  0
   67.8123   45.5892   53.4993 C   0  0  0  0  0  0  0  0  0  0  0  0
   68.5433   46.5556   54.1319 C   0  0  0  0  0  0  0  0  0  0  0  0
   68.6659   46.4612   55.4994 C   0  0  0  0  0  0  0  0  0  0  0  0
   68.1368   45.5339   56.1714 O   0  0  0  0  0  0  0  0  0  0  0  0
   70.5543   49.6936   53.5037 C   0  0  0  0  0  0  0  0  0  0  0  0
   71.8426   49.6766   53.4799 O   0  0  0  0  0  0  0  0  0  0  0  0
   70.0021   50.7971   52.9258 O   0  0  0  0  0  0  0  0  0  0  0  0
   71.6146   46.9246   58.5287 O   0  0  0  0  0  0  0  0  0  0  0  0
   70.6639   46.4168   57.9102 C   0  0  0  0  0  0  0  0  0  0  0  0
   70.6945   45.0572   57.5466 N   0  0  0  0  0  0  0  0  0  0  0  0
   71.7390   44.1471   57.8166 C   0  0  0  0  0  0  0  0  0  0  0  0
   73.0677   44.4492   57.9445 C   0  0  0  0  0  0  0  0  0  0  0  0
   74.0520   43.4901   58.2093 C   0  0  0  0  0  0  0  0  0  0  0  0
   73.7110   42.1645   58.3570 C   0  0  0  0  0  0  0  0  0  0  0  0
   72.3833   41.8360   58.2335 C   0  0  0  0  0  0  0  0  0  0  0  0
   71.4201   42.8052   57.9694 C   0  0  0  0  0  0  0  0  0  0  0  0
   69.9884   42.4059   57.8581 C   0  0  0  0  0  0  0  0  0  0  0  0
   69.2162   42.8299   58.9014 F   0  0  0  0  0  0  0  0  0  0  0  0
   69.9179   41.0064   57.8683 F   0  0  0  0  0  0  0  0  0  0  0  0
   69.4647   42.7836   56.6162 F   0  0  0  0  0  0  0  0  0  0  0  0
 16 17  2  0
 17  1  1  0
 17 18  1  0
  1  2  1  0
  2  3  1  0
  2 11  1  0
  3  4  2  0
  4 13  1  0
  4  5  1  0
 13 14  2  0
 13 15  1  0
  5  6  2  0
  5 10  1  0
  6  7  1  0
  7  8  2  0
  8  9  1  0
  9 10  2  0
 10 11  1  0
 11 12  2  0
 18 19  1  0
 19 20  2  0
 19 24  1  0
 20 21  1  0
 21 22  2  0
 22 23  1  0
 23 24  2  0
 24 25  1  0
 25 26  1  0
 25 27  1  0
 25 28  1  0
M  END
>  <minimizedAffinity>  (966) 
-8.86774

$$$$
data/reference_output_2/data/smiles/176447.pdb
     RDKit          3D

 28 31  0  0  0  0  0  0  0  0999 V2000
   71.6428   50.7323   54.8309 C   0  0  0  0  0  0  0  0  0  0  0  0
   71.9390   51.7266   54.0962 O   0  0  0  0  0  0  0  0  0  0  0  0
   72.0427   50.6703   56.1836 N   0  0  0  0  0  0  0  0  0  0  0  0
   72.8081   51.6907   56.8661 C   0  0  0  0  0  0  0  0  0  0  0  0
   72.9494   51.1689   58.3077 C   0  0  0  0  0  0  0  0  0  0  0  0
   72.8869   49.6947   58.0664 C   0  0  2  0  0  0  0  0  0  0  0  0
   71.7505   49.5805   57.0874 C   0  0  0  0  0  0  0  0  0  0  0  0
   68.1223   47.2776   55.2080 C   0  0  0  0  0  0  0  0  0  0  0  0
   69.1469   48.0049   54.4209 C   0  0  0  0  0  0  0  0  0  0  0  0
   69.9280   49.0228   54.9494 C   0  0  0  0  0  0  0  0  0  0  0  0
   70.8711   49.6767   54.1854 C   0  0  0  0  0  0  0  0  0  0  0  0
   71.0249   49.3102   52.9040 N   0  0  0  0  0  0  0  0  0  0  0  0
   70.2749   48.3162   52.3541 C   0  0  0  0  0  0  0  0  0  0  0  0
   70.2210   47.7616   51.1318 N   0  0  0  0  0  0  0  0  0  0  0  0
   69.3123   46.8037   51.0685 N   0  0  0  0  0  0  0  0  0  0  0  0
   68.7469   46.7158   52.2698 C   0  0  0  0  0  0  0  0  0  0  0  0
   67.8278   45.9175   52.6224 O   0  0  0  0  0  0  0  0  0  0  0  0
   69.3257   47.6499   53.1017 C   0  0  0  0  0  0  0  0  0  0  0  0
   72.7298   48.8688   59.2925 C   0  0  0  0  0  0  0  0  0  0  0  0
   72.6589   47.4467   58.8887 C   0  0  0  0  0  0  0  0  0  0  0  0
   73.8013   46.7975   58.4735 C   0  0  0  0  0  0  0  0  0  0  0  0
   73.8000   45.4735   58.0851 C   0  0  0  0  0  0  0  0  0  0  0  0
   72.6340   44.7427   58.0990 C   0  0  0  0  0  0  0  0  0  0  0  0
   71.4783   45.3715   58.5105 C   0  0  0  0  0  0  0  0  0  0  0  0
   71.4990   46.7047   58.8980 C   0  0  0  0  0  0  0  0  0  0  0  0
   70.2357   44.6094   58.5302 C   0  0  0  0  0  0  0  0  0  0  0  0
   69.6238   44.2538   57.2941 N   0  0  0  0  0  0  0  0  0  0  0  0
   69.6939   44.2598   59.5838 O   0  0  0  0  0  0  0  0  0  0  0  0
  8  9  1  0
  9 10  2  0
  9 18  1  0
 10 11  1  0
 11  1  1  0
 11 12  2  0
  1  2  2  0
  1  3  1  0
  3  4  1  0
  3  7  1  0
  4  5  1  0
  5  6  1  0
  6 19  1  1
  6  7  1  0
 19 20  1  0
 20 21  2  0
 20 25  1  0
 21 22  1  0
 22 23  2  0
 23 24  1  0
 24 26  1  0
 24 25  2  0
 26 27  1  0
 26 28  2  0
 12 13  1  0
 13 14  1  0
 13 18  2  0
 14 15  1  0
 15 16  1  0
 16 17  2  0
 16 18  1  0
M  END
>  <minimizedAffinity>  (967) 
-8.86175

$$$$
data/reference_output_2/data/smiles/176481.pdb
     RDKit          3D

 25 26  0  0  0  0  0  0  0  0999 V2000
   67.6143   41.1279   58.0636 C   0  0  0  0  0  0  0  0  0  0  0  0
   67.1123   41.6955   59.0634 O   0  0  0  0  0  0  0  0  0  0  0  0
   67.6895   41.8451   56.8129 C   0  0  0  0  0  0  0  0  0  0  0  0
   67.6519   41.1474   55.7411 O   0  0  0  0  0  0  0  0  0  0  0  0
   67.8011   43.2330   56.6522 N   0  0  0  0  0  0  0  0  0  0  0  0
   67.8708   43.8688   55.4032 N   0  0  0  0  0  0  0  0  0  0  0  0
   68.2287   45.2369   55.2665 C   0  0  0  0  0  0  0  0  0  0  0  0
   68.4745   45.8519   56.3362 O   0  0  0  0  0  0  0  0  0  0  0  0
   68.3155   45.9202   53.9820 C   0  0  0  0  0  0  0  0  0  0  0  0
   69.0159   47.0814   53.8134 C   0  0  0  0  0  0  0  0  0  0  0  0
   69.0807   47.7025   52.5720 C   0  0  0  0  0  0  0  0  0  0  0  0
   68.4313   47.1599   51.4533 C   0  0  0  0  0  0  0  0  0  0  0  0
   67.7336   45.9993   51.6325 C   0  0  0  0  0  0  0  0  0  0  0  0
   67.6805   45.3957   52.8784 C   0  0  0  0  0  0  0  0  0  0  0  0
   68.1070   39.7324   58.2410 C   0  0  0  0  0  0  0  0  0  0  0  0
   69.4540   39.6869   58.8017 C   0  0  0  0  0  0  0  0  0  0  0  0
   69.9983   40.7136   59.3199 O   0  0  0  0  0  0  0  0  0  0  0  0
   71.7316   36.0349   58.9069 C   0  0  0  0  0  0  0  0  0  0  0  0
   72.0188   37.0189   57.9879 C   0  0  0  0  0  0  0  0  0  0  0  0
   71.2837   38.1996   57.9486 C   0  0  0  0  0  0  0  0  0  0  0  0
   70.2429   38.4693   58.7990 C   0  0  0  0  0  0  0  0  0  0  0  0
   69.9658   37.4512   59.7317 C   0  0  0  0  0  0  0  0  0  0  0  0
   70.6887   36.2916   59.7679 C   0  0  0  0  0  0  0  0  0  0  0  0
   73.0390   34.3728   57.7781 C   0  0  0  0  0  0  0  0  0  0  0  0
   72.4498   34.8511   58.9629 O   0  0  0  0  0  0  0  0  0  0  0  0
 24 25  1  0
 25 18  1  0
 18 19  2  0
 18 23  1  0
 19 20  1  0
 20 21  2  0
 21 16  1  0
 21 22  1  0
 16 17  2  0
 16 15  1  0
 15  1  1  0
  1  2  2  0
  1  3  1  0
  3  4  2  0
  3  5  1  0
  5  6  1  0
  6  7  1  0
  7  8  2  0
  7  9  1  0
  9 10  2  0
  9 14  1  0
 10 11  1  0
 11 12  2  0
 12 13  1  0
 13 14  2  0
 22 23  2  0
M  END
>  <minimizedAffinity>  (968) 
-8.54580

$$$$
data/reference_output_2/data/smiles/176496.pdb
     RDKit          3D

 29 31  0  0  0  0  0  0  0  0999 V2000
   73.4567   46.2917   58.3619 C   0  0  0  0  0  0  0  0  0  0  0  0
   72.5357   46.5523   59.5037 C   0  0  2  0  0  0  0  0  0  0  0  0
   71.5107   45.5369   59.5186 N   0  0  0  0  0  0  0  0  0  0  0  0
   70.5394   45.9495   58.5742 C   0  0  0  0  0  0  0  0  0  0  0  0
   69.6913   45.2137   58.0143 O   0  0  0  0  0  0  0  0  0  0  0  0
   70.6569   47.3749   58.3333 N   0  0  0  0  0  0  0  0  0  0  0  0
   71.7513   47.7742   59.1884 C   0  0  0  0  0  0  0  0  0  0  0  0
   71.9487   48.9607   59.5615 O   0  0  0  0  0  0  0  0  0  0  0  0
   73.2221   46.6883   60.8078 C   0  0  0  0  0  0  0  0  0  0  0  0
   73.4335   45.5914   61.6195 C   0  0  0  0  0  0  0  0  0  0  0  0
   74.0747   45.7239   62.8357 C   0  0  0  0  0  0  0  0  0  0  0  0
   74.5316   46.9393   63.2994 C   0  0  0  0  0  0  0  0  0  0  0  0
   74.3203   48.0388   62.4893 C   0  0  0  0  0  0  0  0  0  0  0  0
   73.6794   47.9035   61.2744 C   0  0  0  0  0  0  0  0  0  0  0  0
   75.3449   47.1157   64.8404 S   0  0  0  0  0  0  0  0  0  0  0  0
   75.9384   45.5636   65.3161 N   0  0  0  0  0  0  0  0  0  0  0  0
   76.5366   48.0127   64.6754 O   0  0  0  0  0  0  0  0  0  0  0  0
   74.3841   47.6344   65.8533 O   0  0  0  0  0  0  0  0  0  0  0  0
   69.9136   48.1778   57.4461 C   0  0  0  0  0  0  0  0  0  0  0  0
   68.8276   47.6664   56.6452 C   0  0  0  0  0  0  0  0  0  0  0  0
   67.7306   47.4422   57.3600 O   0  0  0  0  0  0  0  0  0  0  0  0
   68.7263   47.3659   55.2449 C   0  0  0  0  0  0  0  0  0  0  0  0
   69.3169   48.2150   54.2897 C   0  0  0  0  0  0  0  0  0  0  0  0
   69.2524   47.9820   52.9573 C   0  0  0  0  0  0  0  0  0  0  0  0
   68.6029   46.8968   52.4400 C   0  0  0  0  0  0  0  0  0  0  0  0
   68.5225   46.6414   51.1191 F   0  0  0  0  0  0  0  0  0  0  0  0
   68.0102   46.0391   53.3360 C   0  0  0  0  0  0  0  0  0  0  0  0
   67.3551   44.9499   52.8517 F   0  0  0  0  0  0  0  0  0  0  0  0
   68.0797   46.2853   54.7179 C   0  0  0  0  0  0  0  0  0  0  0  0
  2  1  1  6
  2  9  1  0
  2  3  1  0
  2  7  1  0
  9 10  2  0
  9 14  1  0
 10 11  1  0
 11 12  2  0
 12 15  1  0
 12 13  1  0
 15 16  1  0
 15 17  2  0
 15 18  2  0
 13 14  2  0
  3  4  1  0
  4  5  2  0
  4  6  1  0
  6 19  1  0
  6  7  1  0
 19 20  1  0
 20 21  2  0
 20 22  1  0
 22 23  2  0
 22 29  1  0
 23 24  1  0
 24 25  2  0
 25 26  1  0
 25 27  1  0
 27 28  1  0
 27 29  2  0
  7  8  2  0
M  END
>  <minimizedAffinity>  (969) 
-8.83012

$$$$
data/reference_output_2/data/smiles/176510.pdb
     RDKit          3D

 24 26  0  0  0  0  0  0  0  0999 V2000
   70.2821   43.0012   57.3909 O   0  0  0  0  0  0  0  0  0  0  0  0
   69.1411   42.5071   57.1991 C   0  0  0  0  0  0  0  0  0  0  0  0
   68.1854   43.3393   56.5513 N   0  0  0  0  0  0  0  0  0  0  0  0
   68.8681   41.1576   57.6363 C   0  0  0  0  0  0  0  0  0  0  0  0
   67.6874   40.4465   57.6714 C   0  0  0  0  0  0  0  0  0  0  0  0
   67.9323   39.2082   58.1651 N   0  0  0  0  0  0  0  0  0  0  0  0
   69.2511   39.0854   58.4567 C   0  0  0  0  0  0  0  0  0  0  0  0
   69.9883   38.0383   58.9747 C   0  0  0  0  0  0  0  0  0  0  0  0
   71.3394   38.1933   59.1721 C   0  0  0  0  0  0  0  0  0  0  0  0
   71.9401   39.3950   58.8510 C   0  0  0  0  0  0  0  0  0  0  0  0
   71.1966   40.4315   58.3361 C   0  0  0  0  0  0  0  0  0  0  0  0
   69.8288   40.2941   58.1290 C   0  0  0  0  0  0  0  0  0  0  0  0
   68.5345   44.6387   56.1606 N   0  0  0  0  0  0  0  0  0  0  0  0
   68.1679   45.1853   55.0760 C   0  0  0  0  0  0  0  0  0  0  0  0
   68.5408   46.5468   54.6806 C   0  0  0  0  0  0  0  0  0  0  0  0
   68.9865   46.8387   53.4100 C   0  0  0  0  0  0  0  0  0  0  0  0
   69.3501   48.1026   52.9864 C   0  0  0  0  0  0  0  0  0  0  0  0
   69.2487   49.1147   53.9224 C   0  0  0  0  0  0  0  0  0  0  0  0
   68.8090   48.8766   55.2070 C   0  0  0  0  0  0  0  0  0  0  0  0
   68.4542   47.5836   55.5847 C   0  0  0  0  0  0  0  0  0  0  0  0
   68.0082   47.2989   56.8602 O   0  0  0  0  0  0  0  0  0  0  0  0
   69.8042   48.3725   51.6747 N   0  0  0  0  0  0  0  0  0  0  0  0
   70.1960   47.4376   50.9682 O   0  0  0  0  0  0  0  0  0  0  0  0
   69.8179   49.6438   51.1773 O   0  0  0  0  0  0  0  0  0  0  0  0
  1  2  2  0
  2  3  1  0
  2  4  1  0
  3 13  1  0
 13 14  2  0
 14 15  1  0
 15 16  2  0
 15 20  1  0
 16 17  1  0
 17 22  1  0
 17 18  2  0
 22 23  2  0
 22 24  1  0
 18 19  1  0
 19 20  2  0
 20 21  1  0
  4  5  2  0
  4 12  1  0
  5  6  1  0
  6  7  1  0
  7  8  1  0
  7 12  2  0
  8  9  2  0
  9 10  1  0
 10 11  2  0
 11 12  1  0
M  CHG  2  22   1  24  -1
M  END
>  <minimizedAffinity>  (970) 
-8.92025

$$$$
data/reference_output_2/data/smiles/176676.pdb
     RDKit          3D

 26 28  0  0  0  0  0  0  0  0999 V2000
   70.9179   43.8269   57.8388 O   0  0  0  0  0  0  0  0  0  0  0  0
   69.7583   43.7429   57.3138 C   0  0  0  0  0  0  0  0  0  0  0  0
   69.2018   44.9814   56.9196 N   0  0  0  0  0  0  0  0  0  0  0  0
   69.1290   42.4423   57.1683 C   0  0  0  0  0  0  0  0  0  0  0  0
   69.7263   41.3748   57.8079 C   0  0  0  0  0  0  0  0  0  0  0  0
   69.2225   40.0917   57.7442 C   0  0  0  0  0  0  0  0  0  0  0  0
   68.0762   39.8604   57.0129 C   0  0  0  0  0  0  0  0  0  0  0  0
   67.4546   40.9050   56.3607 C   0  0  0  0  0  0  0  0  0  0  0  0
   67.9978   42.1887   56.4517 C   0  0  0  0  0  0  0  0  0  0  0  0
   67.3548   43.1753   55.7976 F   0  0  0  0  0  0  0  0  0  0  0  0
   69.9197   39.0255   58.4524 C   0  0  0  0  0  0  0  0  0  0  0  0
   69.3335   38.3163   59.4623 C   0  0  0  0  0  0  0  0  0  0  0  0
   70.0510   37.3020   60.1073 C   0  0  0  0  0  0  0  0  0  0  0  0
   71.3455   37.0073   59.7376 C   0  0  0  0  0  0  0  0  0  0  0  0
   71.8975   37.7469   58.7160 C   0  0  0  0  0  0  0  0  0  0  0  0
   71.1911   38.7210   58.1048 N   0  0  0  0  0  0  0  0  0  0  0  0
   69.9283   46.1945   57.1201 N   0  0  0  0  0  0  0  0  0  0  0  0
   68.9941   47.4370   56.3639 S   0  0  0  0  0  0  0  0  0  0  0  0
   67.6701   47.4884   57.0744 O   0  0  0  0  0  0  0  0  0  0  0  0
   69.6436   48.7754   56.5328 O   0  0  0  0  0  0  0  0  0  0  0  0
   68.7712   47.1086   54.6611 C   0  0  0  0  0  0  0  0  0  0  0  0
   68.0179   46.0545   54.1887 C   0  0  0  0  0  0  0  0  0  0  0  0
   67.8537   45.8110   52.8352 C   0  0  0  0  0  0  0  0  0  0  0  0
   68.4675   46.6570   51.9194 C   0  0  0  0  0  0  0  0  0  0  0  0
   69.2194   47.7101   52.3869 C   0  0  0  0  0  0  0  0  0  0  0  0
   69.3689   47.9315   53.7402 C   0  0  0  0  0  0  0  0  0  0  0  0
  1  2  2  0
  2  3  1  0
  2  4  1  0
  3 17  1  0
 17 18  1  0
 18 19  2  0
 18 20  2  0
 18 21  1  0
 21 22  2  0
 21 26  1  0
 22 23  1  0
 23 24  2  0
 24 25  1  0
 25 26  2  0
  4  5  2  0
  4  9  1  0
  5  6  1  0
  6 11  1  0
  6  7  2  0
 11 12  2  0
 11 16  1  0
 12 13  1  0
 13 14  2  0
 14 15  1  0
 15 16  2  0
  7  8  1  0
  8  9  2  0
  9 10  1  0
M  END
>  <minimizedAffinity>  (971) 
-8.97693

$$$$
data/reference_output_2/data/smiles/176710.pdb
     RDKit          3D

 26 28  0  0  0  0  0  0  0  0999 V2000
   68.4446   46.0613   54.0853 C   0  0  0  0  0  0  0  0  0  0  0  0
   68.0035   45.7577   52.8239 C   0  0  0  0  0  0  0  0  0  0  0  0
   68.2605   46.6744   51.7904 C   0  0  0  0  0  0  0  0  0  0  0  0
   68.9355   47.8483   52.0257 C   0  0  0  0  0  0  0  0  0  0  0  0
   69.3865   48.1674   53.2933 C   0  0  0  0  0  0  0  0  0  0  0  0
   69.1283   47.2706   54.2753 C   0  0  0  0  0  0  0  0  0  0  0  0
   68.4872   45.5712   56.3516 O   0  0  0  0  0  0  0  0  0  0  0  0
   68.2086   45.1637   55.1878 C   0  0  0  0  0  0  0  0  0  0  0  0
   67.6886   43.8636   55.0557 N   0  0  0  0  0  0  0  0  0  0  0  0
   67.4420   42.9571   56.0750 N   0  0  0  0  0  0  0  0  0  0  0  0
   68.1626   42.0321   56.5276 C   0  0  0  0  0  0  0  0  0  0  0  0
   67.6697   41.1816   57.6426 C   0  0  0  0  0  0  0  0  0  0  0  0
   68.1005   39.8733   57.7207 C   0  0  0  0  0  0  0  0  0  0  0  0
   67.6872   39.0410   58.7240 C   0  0  0  0  0  0  0  0  0  0  0  0
   66.8228   39.5057   59.6835 C   0  0  0  0  0  0  0  0  0  0  0  0
   66.3688   38.7333   60.7152 F   0  0  0  0  0  0  0  0  0  0  0  0
   66.3937   40.8046   59.6083 C   0  0  0  0  0  0  0  0  0  0  0  0
   66.8079   41.6469   58.5977 C   0  0  0  0  0  0  0  0  0  0  0  0
   70.2371   49.6744   53.5195 S   0  0  0  0  0  0  0  0  0  0  0  0
   69.8208   50.6135   52.4194 O   0  0  0  0  0  0  0  0  0  0  0  0
   71.7047   49.5043   53.4193 O   0  0  0  0  0  0  0  0  0  0  0  0
   69.7907   50.2692   55.0732 N   0  0  0  0  0  0  0  0  0  0  0  0
   68.6523   51.1597   55.0101 C   0  0  0  0  0  0  0  0  0  0  0  0
   69.2679   52.5006   54.7288 C   0  0  0  0  0  0  0  0  0  0  0  0
   70.5706   52.4690   55.4783 C   0  0  0  0  0  0  0  0  0  0  0  0
   70.8428   51.0240   55.7083 C   0  0  0  0  0  0  0  0  0  0  0  0
  7  8  2  0
  8  9  1  0
  8  1  1  0
  9 10  1  0
 10 11  2  0
 11 12  1  0
 12 13  2  0
 12 18  1  0
 13 14  1  0
 14 15  2  0
 15 16  1  0
 15 17  1  0
 17 18  2  0
  1  2  2  0
  1  6  1  0
  2  3  1  0
  3  4  2  0
  4  5  1  0
  5 19  1  0
  5  6  2  0
 19 20  2  0
 19 21  2  0
 19 22  1  0
 22 23  1  0
 22 26  1  0
 23 24  1  0
 24 25  1  0
 25 26  1  0
M  END
>  <minimizedAffinity>  (972) 
-8.65599

$$$$
data/reference_output_2/data/smiles/176756.pdb
     RDKit          3D

 23 24  0  0  0  0  0  0  0  0999 V2000
   69.2253   47.4103   56.9835 S   0  0  0  0  0  0  0  0  0  0  0  0
   69.1794   46.8169   58.3615 O   0  0  0  0  0  0  0  0  0  0  0  0
   70.6822   47.4523   56.5892 O   0  0  0  0  0  0  0  0  0  0  0  0
   68.5638   49.0256   57.0727 C   0  0  0  0  0  0  0  0  0  0  0  0
   67.3935   49.3038   57.7469 C   0  0  0  0  0  0  0  0  0  0  0  0
   66.8416   50.5564   57.8410 C   0  0  0  0  0  0  0  0  0  0  0  0
   67.4831   51.6167   57.2298 C   0  0  0  0  0  0  0  0  0  0  0  0
   68.6659   51.3595   56.5443 C   0  0  0  0  0  0  0  0  0  0  0  0
   69.2033   50.0972   56.4614 C   0  0  0  0  0  0  0  0  0  0  0  0
   69.3192   52.5426   55.9013 C   0  0  0  0  0  0  0  0  0  0  0  0
   68.7966   53.6901   56.5095 F   0  0  0  0  0  0  0  0  0  0  0  0
   69.0390   52.5797   54.5429 F   0  0  0  0  0  0  0  0  0  0  0  0
   70.6828   52.5427   56.1046 F   0  0  0  0  0  0  0  0  0  0  0  0
   68.3182   46.4035   55.9399 N   0  0  0  0  0  0  0  0  0  0  0  0
   69.2340   47.7033   52.6357 C   0  0  0  0  0  0  0  0  0  0  0  0
   68.6172   46.8095   51.7746 C   0  0  0  0  0  0  0  0  0  0  0  0
   67.8847   45.7574   52.2880 C   0  0  0  0  0  0  0  0  0  0  0  0
   67.8037   45.6496   53.6613 C   0  0  0  0  0  0  0  0  0  0  0  0
   68.4007   46.5148   54.5287 C   0  0  0  0  0  0  0  0  0  0  0  0
   69.1341   47.5675   54.0039 C   0  0  0  0  0  0  0  0  0  0  0  0
   70.2539   49.9832   52.8559 N   0  0  0  0  0  0  0  0  0  0  0  0
   70.0055   48.8123   52.0878 C   0  0  0  0  0  0  0  0  0  0  0  0
   70.4708   48.7692   50.9332 O   0  0  0  0  0  0  0  0  0  0  0  0
 21 22  1  0
 22 23  2  0
 22 15  1  0
 15 16  2  0
 15 20  1  0
 16 17  1  0
 17 18  2  0
 18 19  1  0
 19 14  1  0
 19 20  2  0
 14  1  1  0
  1  2  2  0
  1  3  2  0
  1  4  1  0
  4  5  2  0
  4  9  1  0
  5  6  1  0
  6  7  2  0
  7  8  1  0
  8 10  1  0
  8  9  2  0
 10 11  1  0
 10 12  1  0
 10 13  1  0
M  END
>  <minimizedAffinity>  (973) 
-8.69805

$$$$
data/reference_output_2/data/smiles/176789.pdb
     RDKit          3D

 24 26  0  0  0  0  0  0  0  0999 V2000
   69.2968   43.7243   56.8155 N   0  0  0  0  0  0  0  0  0  0  0  0
   68.8777   42.5248   57.0116 C   0  0  0  0  0  0  0  0  0  0  0  0
   67.5764   42.0409   56.6162 C   0  0  0  0  0  0  0  0  0  0  0  0
   66.6839   42.7063   56.0359 O   0  0  0  0  0  0  0  0  0  0  0  0
   67.5233   40.6706   57.0188 N   0  0  0  0  0  0  0  0  0  0  0  0
   68.7404   40.2901   57.6475 C   0  0  0  0  0  0  0  0  0  0  0  0
   69.1651   39.0993   58.1944 C   0  0  0  0  0  0  0  0  0  0  0  0
   70.4235   39.0143   58.7485 C   0  0  0  0  0  0  0  0  0  0  0  0
   71.2798   40.0937   58.7725 C   0  0  0  0  0  0  0  0  0  0  0  0
   72.8780   39.9723   59.4807 Cl  0  0  0  0  0  0  0  0  0  0  0  0
   70.8230   41.2850   58.2112 C   0  0  0  0  0  0  0  0  0  0  0  0
   71.8436   42.6905   58.2034 Cl  0  0  0  0  0  0  0  0  0  0  0  0
   69.5635   41.3950   57.6497 C   0  0  0  0  0  0  0  0  0  0  0  0
   70.0272   46.3099   56.9878 O   0  0  0  0  0  0  0  0  0  0  0  0
   68.9813   46.0537   56.3262 C   0  0  0  0  0  0  0  0  0  0  0  0
   68.5290   44.7117   56.1880 N   0  0  0  0  0  0  0  0  0  0  0  0
   68.2603   47.2045   55.7101 C   0  0  0  0  0  0  0  0  0  0  0  0
   68.8499   47.5827   54.4082 C   0  0  0  0  0  0  0  0  0  0  0  0
   69.5992   48.7292   54.3326 C   0  0  0  0  0  0  0  0  0  0  0  0
   70.1788   49.1377   53.1418 C   0  0  0  0  0  0  0  0  0  0  0  0
   69.9977   48.3726   51.9982 C   0  0  0  0  0  0  0  0  0  0  0  0
   70.5975   48.8287   50.8430 O   0  0  0  0  0  0  0  0  0  0  0  0
   69.2447   47.2231   52.0787 C   0  0  0  0  0  0  0  0  0  0  0  0
   68.6730   46.8267   53.2723 C   0  0  0  0  0  0  0  0  0  0  0  0
 14 15  2  0
 15 17  1  0
 15 16  1  0
 17 18  1  0
 18 19  2  0
 18 24  1  0
 19 20  1  0
 20 21  2  0
 21 22  1  0
 21 23  1  0
 23 24  2  0
 16  1  1  0
  1  2  2  0
  2  3  1  0
  2 13  1  0
  3  4  2  0
  3  5  1  0
  5  6  1  0
  6  7  1  0
  6 13  2  0
  7  8  2  0
  8  9  1  0
  9 10  1  0
  9 11  2  0
 11 12  1  0
 11 13  1  0
M  END
>  <minimizedAffinity>  (974) 
-8.89694

$$$$
data/reference_output_2/data/smiles/176793.pdb
     RDKit          3D

 24 27  0  0  0  0  0  0  0  0999 V2000
   66.5138   42.2413   56.2022 O   0  0  0  0  0  0  0  0  0  0  0  0
   67.5242   41.7278   56.7516 C   0  0  0  0  0  0  0  0  0  0  0  0
   67.7131   40.4165   57.2462 N   0  0  0  0  0  0  0  0  0  0  0  0
   69.0380   40.2930   57.7880 C   0  0  0  0  0  0  0  0  0  0  0  0
   69.6971   39.2243   58.3830 C   0  0  0  0  0  0  0  0  0  0  0  0
   70.9903   39.3398   58.8352 C   0  0  0  0  0  0  0  0  0  0  0  0
   71.6302   40.5517   58.6859 C   0  0  0  0  0  0  0  0  0  0  0  0
   73.4274   40.7379   59.3064 Br  0  0  0  0  0  0  0  0  0  0  0  0
   70.9707   41.6073   58.0949 C   0  0  0  0  0  0  0  0  0  0  0  0
   69.6622   41.5137   57.6299 C   0  0  0  0  0  0  0  0  0  0  0  0
   68.7546   42.4572   56.9811 C   0  0  0  0  0  0  0  0  0  0  0  0
   69.0195   43.6853   56.6848 N   0  0  0  0  0  0  0  0  0  0  0  0
   68.0774   44.5001   56.0646 N   0  0  0  0  0  0  0  0  0  0  0  0
   68.5047   45.6918   55.3988 C   0  0  0  0  0  0  0  0  0  0  0  0
   68.5701   45.7687   54.0589 N   0  0  0  0  0  0  0  0  0  0  0  0
   68.9745   46.8954   53.4309 C   0  0  0  0  0  0  0  0  0  0  0  0
   69.0405   46.9698   52.0557 C   0  0  0  0  0  0  0  0  0  0  0  0
   69.4534   48.1198   51.4138 C   0  0  0  0  0  0  0  0  0  0  0  0
   69.8205   49.2525   52.1159 C   0  0  0  0  0  0  0  0  0  0  0  0
   69.7534   49.1747   53.4919 C   0  0  0  0  0  0  0  0  0  0  0  0
   69.3390   48.0200   54.1387 C   0  0  0  0  0  0  0  0  0  0  0  0
   69.2742   47.9456   55.4806 N   0  0  0  0  0  0  0  0  0  0  0  0
   68.8714   46.8217   56.1002 C   0  0  0  0  0  0  0  0  0  0  0  0
   68.8108   46.7523   57.3624 O   0  0  0  0  0  0  0  0  0  0  0  0
  1  2  2  0
  2  3  1  0
  2 11  1  0
  3  4  1  0
  4  5  2  0
  4 10  1  0
  5  6  1  0
  6  7  2  0
  7  8  1  0
  7  9  1  0
  9 10  2  0
 10 11  1  0
 11 12  2  0
 12 13  1  0
 13 14  1  0
 14 15  2  0
 14 23  1  0
 15 16  1  0
 16 17  2  0
 16 21  1  0
 17 18  1  0
 18 19  2  0
 19 20  1  0
 20 21  2  0
 21 22  1  0
 22 23  1  0
 23 24  2  0
M  END
>  <minimizedAffinity>  (975) 
-8.54445

$$$$
data/reference_output_2/data/smiles/176840.pdb
     RDKit          3D

 29 32  0  0  0  0  0  0  0  0999 V2000
   71.0095   37.3593   58.9652 C   0  0  0  0  0  0  0  0  0  0  0  0
   70.4680   36.7179   60.0025 N   0  0  0  0  0  0  0  0  0  0  0  0
   70.7889   35.4499   60.0232 N   0  0  0  0  0  0  0  0  0  0  0  0
   71.5806   35.2456   58.9451 C   0  0  0  0  0  0  0  0  0  0  0  0
   72.2174   34.1331   58.4447 C   0  0  0  0  0  0  0  0  0  0  0  0
   72.9850   34.2106   57.2946 C   0  0  0  0  0  0  0  0  0  0  0  0
   73.1486   35.3971   56.5983 C   0  0  0  0  0  0  0  0  0  0  0  0
   72.5052   36.4962   57.1129 C   0  0  0  0  0  0  0  0  0  0  0  0
   71.7340   36.4342   58.2633 C   0  0  0  0  0  0  0  0  0  0  0  0
   69.5638   40.6630   57.8469 C   0  0  0  0  0  0  0  0  0  0  0  0
   70.6369   41.5007   58.0335 C   0  0  0  0  0  0  0  0  0  0  0  0
   71.8144   40.9710   58.5213 C   0  0  0  0  0  0  0  0  0  0  0  0
   71.9391   39.6436   58.8218 C   0  0  0  0  0  0  0  0  0  0  0  0
   70.8611   38.7708   58.6399 C   0  0  0  0  0  0  0  0  0  0  0  0
   69.6937   39.3051   58.1536 C   0  0  0  0  0  0  0  0  0  0  0  0
   67.6657   40.4913   55.7548 N   0  0  0  0  0  0  0  0  0  0  0  0
   68.0590   41.2746   57.2350 S   0  0  0  0  0  0  0  0  0  0  0  0
   66.9347   41.0242   58.2074 O   0  0  0  0  0  0  0  0  0  0  0  0
   68.1620   42.7609   57.0503 O   0  0  0  0  0  0  0  0  0  0  0  0
   73.9310   35.4334   55.4436 N   0  0  0  0  0  0  0  0  0  0  0  0
   73.3863   35.4231   54.1350 C   0  0  0  0  0  0  0  0  0  0  0  0
   72.1374   35.3800   54.0607 O   0  0  0  0  0  0  0  0  0  0  0  0
   74.2855   35.4625   52.9442 C   0  0  0  0  0  0  0  0  0  0  0  0
   75.6767   35.1044   53.3190 C   0  0  0  0  0  0  0  0  0  0  0  0
   76.0930   33.8036   53.4915 C   0  0  0  0  0  0  0  0  0  0  0  0
   77.4009   33.5469   53.8391 C   0  0  0  0  0  0  0  0  0  0  0  0
   78.3187   34.5162   54.0266 N   0  0  0  0  0  0  0  0  0  0  0  0
   77.9065   35.7862   53.8569 C   0  0  0  0  0  0  0  0  0  0  0  0
   76.6104   36.1030   53.5089 C   0  0  0  0  0  0  0  0  0  0  0  0
 16 17  1  0
 17 18  2  0
 17 19  2  0
 17 10  1  0
 10 11  2  0
 10 15  1  0
 11 12  1  0
 12 13  2  0
 13 14  1  0
 14  1  1  0
 14 15  2  0
  1  2  2  0
  1  9  1  0
  2  3  1  0
  3  4  1  0
  4  5  1  0
  4  9  2  0
  5  6  2  0
  6  7  1  0
  7 20  1  0
  7  8  2  0
 20 21  1  0
 21 22  2  0
 21 23  1  0
 23 24  1  0
 24 25  2  0
 24 29  1  0
 25 26  1  0
 26 27  2  0
 27 28  1  0
 28 29  2  0
  8  9  1  0
M  END
>  <minimizedAffinity>  (976) 
-8.54064

$$$$
data/reference_output_2/data/smiles/176844.pdb
     RDKit          3D

 26 29  0  0  0  0  0  0  0  0999 V2000
   71.7887   49.6529   55.1553 N   0  0  0  0  0  0  0  0  0  0  0  0
   70.8955   49.8963   54.0852 C   0  0  0  0  0  0  0  0  0  0  0  0
   70.8389   51.0790   53.6371 O   0  0  0  0  0  0  0  0  0  0  0  0
   70.0419   48.8521   53.4757 C   0  0  0  0  0  0  0  0  0  0  0  0
   70.0602   48.5423   52.1414 C   0  0  0  0  0  0  0  0  0  0  0  0
   69.2466   47.5576   51.6027 C   0  0  0  0  0  0  0  0  0  0  0  0
   68.3761   46.8404   52.3966 C   0  0  0  0  0  0  0  0  0  0  0  0
   68.3573   47.1518   53.7412 C   0  0  0  0  0  0  0  0  0  0  0  0
   69.1655   48.1306   54.2796 C   0  0  0  0  0  0  0  0  0  0  0  0
   67.5197   45.8044   51.8323 C   0  0  0  0  0  0  0  0  0  0  0  0
   66.9408   45.8473   50.6233 N   0  0  0  0  0  0  0  0  0  0  0  0
   66.2343   44.7435   50.4351 N   0  0  0  0  0  0  0  0  0  0  0  0
   66.3542   43.9920   51.5155 N   0  0  0  0  0  0  0  0  0  0  0  0
   67.1338   44.6355   52.3626 N   0  0  0  0  0  0  0  0  0  0  0  0
   72.6223   50.5815   55.8157 C   0  0  0  0  0  0  0  0  0  0  0  0
   72.0979   51.4381   56.8929 C   0  0  0  0  0  0  0  0  0  0  0  0
   71.1707   54.2399   56.1192 C   0  0  0  0  0  0  0  0  0  0  0  0
   70.2857   53.1045   56.5523 C   0  0  0  0  0  0  0  0  0  0  0  0
   68.9293   53.1689   56.6616 C   0  0  0  0  0  0  0  0  0  0  0  0
   68.5371   51.9128   57.0848 C   0  0  0  0  0  0  0  0  0  0  0  0
   67.2702   51.4374   57.3517 C   0  0  0  0  0  0  0  0  0  0  0  0
   67.1447   50.1308   57.7642 C   0  0  0  0  0  0  0  0  0  0  0  0
   68.2607   49.3452   57.8992 C   0  0  0  0  0  0  0  0  0  0  0  0
   69.5157   49.8378   57.6277 C   0  0  0  0  0  0  0  0  0  0  0  0
   69.6587   51.1576   57.2091 C   0  0  0  0  0  0  0  0  0  0  0  0
   70.7605   51.8945   56.8784 N   0  0  0  0  0  0  0  0  0  0  0  0
 17 18  1  0
 18 19  2  0
 18 26  1  0
 19 20  1  0
 20 21  2  0
 20 25  1  0
 21 22  1  0
 22 23  2  0
 23 24  1  0
 24 25  2  0
 25 26  1  0
 26 16  1  0
 16 15  1  0
 15  1  1  0
  1  2  1  0
  2  3  2  0
  2  4  1  0
  4  5  2  0
  4  9  1  0
  5  6  1  0
  6  7  2  0
  7 10  1  0
  7  8  1  0
 10 11  2  0
 10 14  1  0
 11 12  1  0
 12 13  2  0
 13 14  1  0
  8  9  2  0
M  END
>  <minimizedAffinity>  (977) 
-8.61552

$$$$
data/reference_output_2/data/smiles/176918.pdb
     RDKit          3D

 22 23  0  0  0  0  0  0  0  0999 V2000
   70.0600   51.4400   54.0255 C   0  0  0  0  0  0  0  0  0  0  0  0
   70.8472   51.9230   53.1851 O   0  0  0  0  0  0  0  0  0  0  0  0
   69.5413   50.1313   53.8369 N   0  0  0  0  0  0  0  0  0  0  0  0
   69.9614   49.1715   52.4700 S   0  0  0  0  0  0  0  0  0  0  0  0
   69.5503   49.9259   51.2483 O   0  0  0  0  0  0  0  0  0  0  0  0
   71.4276   48.8672   52.4316 O   0  0  0  0  0  0  0  0  0  0  0  0
   69.0154   47.6942   52.5700 C   0  0  0  0  0  0  0  0  0  0  0  0
   68.8910   47.0064   53.7722 C   0  0  0  0  0  0  0  0  0  0  0  0
   68.1414   45.8382   53.8679 C   0  0  0  0  0  0  0  0  0  0  0  0
   67.5061   45.3444   52.7588 C   0  0  0  0  0  0  0  0  0  0  0  0
   66.7605   44.2050   52.8074 F   0  0  0  0  0  0  0  0  0  0  0  0
   67.6326   46.0350   51.5614 C   0  0  0  0  0  0  0  0  0  0  0  0
   66.9983   45.5388   50.4675 F   0  0  0  0  0  0  0  0  0  0  0  0
   68.3838   47.2082   51.4563 C   0  0  0  0  0  0  0  0  0  0  0  0
   69.6602   52.2509   55.2291 C   0  0  0  0  0  0  0  0  0  0  0  0
   69.4417   47.6674   57.2385 C   0  0  0  0  0  0  0  0  0  0  0  0
   68.8499   49.0367   57.0729 C   0  0  0  0  0  0  0  0  0  0  0  0
   67.6559   49.3520   57.7091 C   0  0  0  0  0  0  0  0  0  0  0  0
   67.1322   50.6152   57.5328 C   0  0  0  0  0  0  0  0  0  0  0  0
   67.7611   51.5629   56.7480 C   0  0  0  0  0  0  0  0  0  0  0  0
   68.9454   51.2775   56.1066 C   0  0  0  0  0  0  0  0  0  0  0  0
   69.4570   49.9973   56.2977 C   0  0  0  0  0  0  0  0  0  0  0  0
 16 17  1  0
 17 18  2  0
 17 22  1  0
 18 19  1  0
 19 20  2  0
 20 21  1  0
 21 15  1  0
 21 22  2  0
 15  1  1  0
  1  2  2  0
  1  3  1  0
  3  4  1  0
  4  5  2  0
  4  6  2  0
  4  7  1  0
  7  8  2  0
  7 14  1  0
  8  9  1  0
  9 10  2  0
 10 11  1  0
 10 12  1  0
 12 13  1  0
 12 14  2  0
M  END
>  <minimizedAffinity>  (978) 
-8.63177

$$$$
data/reference_output_2/data/smiles/176943.pdb
     RDKit          3D

 25 27  0  0  0  0  0  0  0  0999 V2000
   70.8244   39.9638   59.0034 C   0  0  0  0  0  0  0  0  0  0  0  0
   69.9872   38.8783   58.7307 C   0  0  0  0  0  0  0  0  0  0  0  0
   68.8502   39.0292   57.9634 C   0  0  0  0  0  0  0  0  0  0  0  0
   68.4948   40.2587   57.4356 C   0  0  0  0  0  0  0  0  0  0  0  0
   69.2946   41.3482   57.6860 C   0  0  0  0  0  0  0  0  0  0  0  0
   70.4260   41.1793   58.4518 C   0  0  0  0  0  0  0  0  0  0  0  0
   71.4368   42.5610   58.7684 Cl  0  0  0  0  0  0  0  0  0  0  0  0
   68.7008   42.5121   56.9983 C   0  0  0  0  0  0  0  0  0  0  0  0
   69.1098   43.7158   56.9861 N   0  0  0  0  0  0  0  0  0  0  0  0
   67.4909   42.0549   56.3114 C   0  0  0  0  0  0  0  0  0  0  0  0
   66.6962   42.7145   55.6107 O   0  0  0  0  0  0  0  0  0  0  0  0
   67.3937   40.6599   56.6040 N   0  0  0  0  0  0  0  0  0  0  0  0
   68.5382   44.8005   56.3317 N   0  0  0  0  0  0  0  0  0  0  0  0
   68.9678   46.1300   56.3383 C   0  0  0  0  0  0  0  0  0  0  0  0
   69.9826   46.4144   57.0380 O   0  0  0  0  0  0  0  0  0  0  0  0
   68.2381   47.1239   55.5530 C   0  0  0  0  0  0  0  0  0  0  0  0
   68.8636   47.4350   54.2372 C   0  0  0  0  0  0  0  0  0  0  0  0
   69.6664   48.5850   54.1248 C   0  0  0  0  0  0  0  0  0  0  0  0
   70.2524   48.9489   52.9455 C   0  0  0  0  0  0  0  0  0  0  0  0
   70.0724   48.1795   51.7889 C   0  0  0  0  0  0  0  0  0  0  0  0
   70.6955   48.6198   50.6446 O   0  0  0  0  0  0  0  0  0  0  0  0
   69.2923   47.0581   51.8941 C   0  0  0  0  0  0  0  0  0  0  0  0
   68.7066   46.7008   53.0880 C   0  0  0  0  0  0  0  0  0  0  0  0
   73.0626   39.1045   59.3501 C   0  0  0  0  0  0  0  0  0  0  0  0
   71.9687   39.8563   59.7616 O   0  0  0  0  0  0  0  0  0  0  0  0
 24 25  1  0
 25  1  1  0
  1  2  2  0
  1  6  1  0
  2  3  1  0
  3  4  2  0
  4  5  1  0
  4 12  1  0
  5  6  2  0
  5  8  1  0
  6  7  1  0
  8  9  2  0
  8 10  1  0
  9 13  1  0
 13 14  1  0
 14 15  2  0
 14 16  1  0
 16 17  1  0
 17 18  2  0
 17 23  1  0
 18 19  1  0
 19 20  2  0
 20 21  1  0
 20 22  1  0
 22 23  2  0
 10 11  2  0
 10 12  1  0
M  END
>  <minimizedAffinity>  (979) 
-8.63488

$$$$
data/reference_output_2/data/smiles/177149.pdb
     RDKit          3D

 33 37  0  0  0  0  0  0  0  0999 V2000
   70.8213   46.8531   58.4332 C   0  0  0  0  0  0  0  0  0  0  0  0
   69.9733   47.3541   57.4385 C   0  0  0  0  0  0  0  0  0  0  0  0
   69.7747   48.6951   57.2178 C   0  0  0  0  0  0  0  0  0  0  0  0
   70.4484   49.6270   58.0189 C   0  0  0  0  0  0  0  0  0  0  0  0
   71.2807   49.1571   58.9971 C   0  0  0  0  0  0  0  0  0  0  0  0
   71.4624   47.7792   59.1982 C   0  0  0  0  0  0  0  0  0  0  0  0
   72.2873   47.3710   60.1798 F   0  0  0  0  0  0  0  0  0  0  0  0
   72.0577   44.8702   58.2057 O   0  0  0  0  0  0  0  0  0  0  0  0
   70.9520   45.4200   58.5565 C   0  0  0  0  0  0  0  0  0  0  0  0
   69.9834   44.5095   59.0314 N   0  0  0  0  0  0  0  0  0  0  0  0
   70.2072   43.0765   59.1133 C   0  0  1  0  0  0  0  0  0  0  0  0
   70.0080   42.5708   60.5477 C   0  0  0  0  0  0  0  0  0  0  0  0
   69.9019   41.1357   60.5568 N   0  0  0  0  0  0  0  0  0  0  0  0
   68.9968   40.5242   59.6565 C   0  0  0  0  0  0  0  0  0  0  0  0
   68.4826   39.4038   59.9175 O   0  0  0  0  0  0  0  0  0  0  0  0
   68.6701   41.2171   58.4197 C   0  0  0  0  0  0  0  0  0  0  0  0
   67.7839   40.6534   57.5168 C   0  0  0  0  0  0  0  0  0  0  0  0
   67.4797   41.3188   56.3557 C   0  0  0  0  0  0  0  0  0  0  0  0
   68.0475   42.5449   56.0794 C   0  0  0  0  0  0  0  0  0  0  0  0
   68.9252   43.0782   56.9977 C   0  0  0  0  0  0  0  0  0  0  0  0
   69.2545   42.4339   58.1794 C   0  0  0  0  0  0  0  0  0  0  0  0
   68.8729   49.2636   56.1831 C   0  0  0  0  0  0  0  0  0  0  0  0
   69.3021   49.0104   54.8033 C   0  0  0  0  0  0  0  0  0  0  0  0
   70.1470   49.8969   54.1899 N   0  0  0  0  0  0  0  0  0  0  0  0
   70.5481   49.7724   52.9429 N   0  0  0  0  0  0  0  0  0  0  0  0
   70.1534   48.7586   52.1784 C   0  0  0  0  0  0  0  0  0  0  0  0
   70.5612   48.6715   50.9776 O   0  0  0  0  0  0  0  0  0  0  0  0
   69.3086   47.8171   52.7030 C   0  0  0  0  0  0  0  0  0  0  0  0
   68.9166   46.7627   51.9000 C   0  0  0  0  0  0  0  0  0  0  0  0
   68.0762   45.8071   52.4288 C   0  0  0  0  0  0  0  0  0  0  0  0
   67.6645   45.9464   53.7352 C   0  0  0  0  0  0  0  0  0  0  0  0
   68.0605   47.0039   54.5338 C   0  0  0  0  0  0  0  0  0  0  0  0
   68.8918   47.9613   54.0250 C   0  0  0  0  0  0  0  0  0  0  0  0
  8  9  2  0
  9 10  1  0
  9  1  1  0
 11 10  1  1
 11 12  1  0
 11 21  1  0
 12 13  1  0
 13 14  1  0
 14 15  2  0
 14 16  1  0
 16 17  2  0
 16 21  1  0
 17 18  1  0
 18 19  2  0
 19 20  1  0
 20 21  2  0
  1  2  2  0
  1  6  1  0
  2  3  1  0
  3 22  1  0
  3  4  2  0
 22 23  1  0
 23 24  2  0
 23 33  1  0
 24 25  1  0
 25 26  1  0
 26 27  2  0
 26 28  1  0
 28 29  1  0
 28 33  2  0
 29 30  2  0
 30 31  1  0
 31 32  2  0
 32 33  1  0
  4  5  1  0
  5  6  2  0
  6  7  1  0
M  END
>  <minimizedAffinity>  (980) 
-10.13426

$$$$
data/reference_output_2/data/smiles/177283.pdb
     RDKit          3D

 24 26  0  0  0  0  0  0  0  0999 V2000
   68.9092   47.5753   57.1739 C   0  0  0  0  0  0  0  0  0  0  0  0
   68.4521   48.9684   57.2339 C   0  0  0  0  0  0  0  0  0  0  0  0
   67.1681   49.3862   57.5208 C   0  0  0  0  0  0  0  0  0  0  0  0
   66.8279   50.7086   57.5529 C   0  0  0  0  0  0  0  0  0  0  0  0
   65.6597   51.0430   57.8177 O   0  0  0  0  0  0  0  0  0  0  0  0
   67.7208   51.6247   57.3083 O   0  0  0  0  0  0  0  0  0  0  0  0
   68.9702   51.2971   57.0236 C   0  0  0  0  0  0  0  0  0  0  0  0
   69.8858   52.3273   56.7661 C   0  0  0  0  0  0  0  0  0  0  0  0
   71.1939   52.0238   56.4623 C   0  0  0  0  0  0  0  0  0  0  0  0
   72.3037   53.3572   56.1469 Cl  0  0  0  0  0  0  0  0  0  0  0  0
   71.6227   50.7205   56.4066 C   0  0  0  0  0  0  0  0  0  0  0  0
   70.6984   49.6986   56.6673 C   0  0  0  0  0  0  0  0  0  0  0  0
   69.3778   49.9804   56.9757 C   0  0  0  0  0  0  0  0  0  0  0  0
   68.2074   46.7181   56.2658 N   0  0  0  0  0  0  0  0  0  0  0  0
   69.3091   47.7286   52.9204 C   0  0  0  0  0  0  0  0  0  0  0  0
   68.6885   46.8329   52.0749 C   0  0  0  0  0  0  0  0  0  0  0  0
   67.8770   45.8770   52.6320 C   0  0  0  0  0  0  0  0  0  0  0  0
   67.7069   45.8399   54.0108 C   0  0  0  0  0  0  0  0  0  0  0  0
   68.3153   46.7208   54.8706 C   0  0  0  0  0  0  0  0  0  0  0  0
   69.1412   47.6913   54.2770 C   0  0  0  0  0  0  0  0  0  0  0  0
   69.5249   50.4549   52.0932 N   0  0  0  0  0  0  0  0  0  0  0  0
   70.3461   48.9533   52.1954 S   0  0  0  0  0  0  0  0  0  0  0  0
   70.7082   48.5048   50.8088 O   0  0  0  0  0  0  0  0  0  0  0  0
   71.6057   49.1485   52.9741 O   0  0  0  0  0  0  0  0  0  0  0  0
 21 22  1  0
 22 23  2  0
 22 24  2  0
 22 15  1  0
 15 16  2  0
 15 20  1  0
 16 17  1  0
 17 18  2  0
 18 19  1  0
 19 14  1  0
 19 20  2  0
 14  1  1  0
  1  2  1  0
  2  3  2  0
  2 13  1  0
  3  4  1  0
  4  5  2  0
  4  6  1  0
  6  7  1  0
  7  8  1  0
  7 13  2  0
  8  9  2  0
  9 10  1  0
  9 11  1  0
 11 12  2  0
 12 13  1  0
M  END
>  <minimizedAffinity>  (981) 
-8.72499

$$$$
data/reference_output_2/data/smiles/177292.pdb
     RDKit          3D

 29 32  0  0  0  0  0  0  0  0999 V2000
   69.6116   39.7459   59.0340 N   0  0  0  0  0  0  0  0  0  0  0  0
   68.5430   39.7681   58.1268 C   0  0  0  0  0  0  0  0  0  0  0  0
   67.7840   38.7403   58.0072 O   0  0  0  0  0  0  0  0  0  0  0  0
   68.4054   40.9886   57.3970 C   0  0  0  0  0  0  0  0  0  0  0  0
   67.4543   41.3253   56.4312 C   0  0  0  0  0  0  0  0  0  0  0  0
   67.4662   42.5628   55.8198 C   0  0  0  0  0  0  0  0  0  0  0  0
   68.4073   43.5100   56.1324 C   0  0  0  0  0  0  0  0  0  0  0  0
   69.3523   43.1957   57.0827 C   0  0  0  0  0  0  0  0  0  0  0  0
   69.3196   41.9528   57.6791 C   0  0  0  0  0  0  0  0  0  0  0  0
   70.3849   41.2834   58.9037 S   0  0  0  0  0  0  0  0  0  0  0  0
   71.7868   41.1533   58.3918 O   0  0  0  0  0  0  0  0  0  0  0  0
   70.2935   42.0852   60.1470 O   0  0  0  0  0  0  0  0  0  0  0  0
   68.4084   44.8232   55.4705 C   0  0  0  0  0  0  0  0  0  0  0  0
   67.8832   44.9906   54.2055 C   0  0  0  0  0  0  0  0  0  0  0  0
   67.8714   46.2123   53.5564 C   0  0  0  0  0  0  0  0  0  0  0  0
   68.4038   47.3091   54.1958 C   0  0  0  0  0  0  0  0  0  0  0  0
   68.9302   47.1536   55.4566 C   0  0  0  0  0  0  0  0  0  0  0  0
   68.9308   45.9146   56.0903 C   0  0  0  0  0  0  0  0  0  0  0  0
   70.0301   38.6720   59.9300 C   0  0  0  0  0  0  0  0  0  0  0  0
   72.2920   35.6867   57.8239 C   0  0  0  0  0  0  0  0  0  0  0  0
   71.5156   35.3557   58.9088 C   0  0  0  0  0  0  0  0  0  0  0  0
   70.7811   36.3343   59.5925 C   0  0  0  0  0  0  0  0  0  0  0  0
   70.8086   37.6492   59.2088 C   0  0  0  0  0  0  0  0  0  0  0  0
   71.5837   37.9782   58.1258 C   0  0  0  0  0  0  0  0  0  0  0  0
   72.3234   37.0303   57.4282 C   0  0  0  0  0  0  0  0  0  0  0  0
   73.0639   33.4831   57.3582 O   0  0  0  0  0  0  0  0  0  0  0  0
   73.0775   34.7141   57.0665 C   0  0  0  0  0  0  0  0  0  0  0  0
   73.8784   35.1373   55.9792 N   0  0  0  0  0  0  0  0  0  0  0  0
   74.6203   34.2242   55.2640 O   0  0  0  0  0  0  0  0  0  0  0  0
 26 27  2  0
 27 28  1  0
 27 20  1  0
 28 29  1  0
 20 21  2  0
 20 25  1  0
 21 22  1  0
 22 23  2  0
 23 19  1  0
 23 24  1  0
 19  1  1  0
  1  2  1  0
  1 10  1  0
  2  3  2  0
  2  4  1  0
  4  5  1  0
  4  9  2  0
  5  6  2  0
  6  7  1  0
  7 13  1  0
  7  8  2  0
 13 14  2  0
 13 18  1  0
 14 15  1  0
 15 16  2  0
 16 17  1  0
 17 18  2  0
  8  9  1  0
  9 10  1  0
 10 11  2  0
 10 12  2  0
 24 25  2  0
M  END
>  <minimizedAffinity>  (982) 
-8.50738

$$$$
data/reference_output_2/data/smiles/177421.pdb
     RDKit          3D

 22 24  0  0  0  0  0  0  0  0999 V2000
   67.4811   44.3180   54.7561 N   0  0  0  0  0  0  0  0  0  0  0  0
   69.2053   47.9144   53.3293 C   0  0  0  0  0  0  0  0  0  0  0  0
   69.0692   47.6730   54.6722 C   0  0  0  0  0  0  0  0  0  0  0  0
   68.5021   46.5022   55.1770 C   0  0  0  0  0  0  0  0  0  0  0  0
   68.0514   45.5292   54.3223 C   0  0  0  0  0  0  0  0  0  0  0  0
   68.1926   45.7796   52.9496 C   0  0  0  0  0  0  0  0  0  0  0  0
   68.7496   46.9304   52.4781 C   0  0  0  0  0  0  0  0  0  0  0  0
   71.5158   49.5423   53.3896 N   0  0  0  0  0  0  0  0  0  0  0  0
   69.9181   49.3852   52.7050 S   0  0  0  0  0  0  0  0  0  0  0  0
   69.1447   50.5946   53.0791 O   0  0  0  0  0  0  0  0  0  0  0  0
   70.1210   49.2778   51.2037 O   0  0  0  0  0  0  0  0  0  0  0  0
   67.9460   43.5444   55.8467 C   0  0  0  0  0  0  0  0  0  0  0  0
   69.0346   43.7040   56.6137 N   0  0  0  0  0  0  0  0  0  0  0  0
   69.0756   42.7295   57.5326 C   0  0  0  0  0  0  0  0  0  0  0  0
   67.9742   41.9425   57.3243 C   0  0  0  0  0  0  0  0  0  0  0  0
   67.3398   42.4623   56.3215 O   0  0  0  0  0  0  0  0  0  0  0  0
   67.6428   40.7600   58.1209 C   0  0  0  0  0  0  0  0  0  0  0  0
   68.2437   39.5431   57.8770 C   0  0  0  0  0  0  0  0  0  0  0  0
   67.9324   38.4220   58.6274 C   0  0  0  0  0  0  0  0  0  0  0  0
   67.0085   38.4694   59.6499 C   0  0  0  0  0  0  0  0  0  0  0  0
   66.4061   39.6965   59.8919 C   0  0  0  0  0  0  0  0  0  0  0  0
   66.7189   40.8110   59.1433 C   0  0  0  0  0  0  0  0  0  0  0  0
  8  9  1  0
  9 10  2  0
  9 11  2  0
  9  2  1  0
  2  3  2  0
  2  7  1  0
  3  4  1  0
  4  5  2  0
  5  1  1  0
  5  6  1  0
  1 12  1  0
 12 13  2  0
 12 16  1  0
 13 14  1  0
 14 15  2  0
 15 17  1  0
 15 16  1  0
 17 18  2  0
 17 22  1  0
 18 19  1  0
 19 20  2  0
 20 21  1  0
 21 22  2  0
  6  7  2  0
M  END
>  <minimizedAffinity>  (983) 
-8.58082

$$$$
data/reference_output_2/data/smiles/177430.pdb
     RDKit          3D

 24 27  0  0  0  0  0  0  0  0999 V2000
   76.3776   35.0619   52.1279 C   0  0  0  0  0  0  0  0  0  0  0  0
   75.1000   35.2132   52.6159 C   0  0  0  0  0  0  0  0  0  0  0  0
   74.8159   35.2866   53.9492 N   0  0  0  0  0  0  0  0  0  0  0  0
   73.6829   35.4290   54.6590 C   0  0  0  0  0  0  0  0  0  0  0  0
   72.5432   35.5336   54.1504 O   0  0  0  0  0  0  0  0  0  0  0  0
   73.9405   35.4442   55.9793 N   0  0  0  0  0  0  0  0  0  0  0  0
   75.2555   35.3088   56.0822 N   0  0  0  0  0  0  0  0  0  0  0  0
   75.8021   35.2110   54.8514 C   0  0  0  0  0  0  0  0  0  0  0  0
   77.0796   35.0607   54.3836 C   0  0  0  0  0  0  0  0  0  0  0  0
   78.0112   34.9896   55.2205 O   0  0  0  0  0  0  0  0  0  0  0  0
   77.3548   34.9885   53.0429 N   0  0  0  0  0  0  0  0  0  0  0  0
   77.5242   34.7720   46.4847 C   0  0  0  0  0  0  0  0  0  0  0  0
   77.2454   34.8601   47.9322 C   0  0  0  0  0  0  0  0  0  0  0  0
   76.2367   34.1090   48.4785 C   0  0  0  0  0  0  0  0  0  0  0  0
   75.9493   34.1697   49.8392 C   0  0  0  0  0  0  0  0  0  0  0  0
   76.6657   34.9848   50.6921 C   0  0  0  0  0  0  0  0  0  0  0  0
   77.6694   35.7250   50.1171 C   0  0  0  0  0  0  0  0  0  0  0  0
   77.9803   35.6847   48.7531 C   0  0  0  0  0  0  0  0  0  0  0  0
   73.0285   35.5760   57.0656 C   0  0  0  0  0  0  0  0  0  0  0  0
   72.4394   36.7663   57.4369 C   0  0  0  0  0  0  0  0  0  0  0  0
   71.5575   36.8514   58.4996 C   0  0  0  0  0  0  0  0  0  0  0  0
   71.2280   35.7240   59.2435 C   0  0  0  0  0  0  0  0  0  0  0  0
   71.8131   34.5328   58.8777 C   0  0  0  0  0  0  0  0  0  0  0  0
   72.6899   34.4592   57.8170 C   0  0  0  0  0  0  0  0  0  0  0  0
 12 13  1  0
 13 14  2  0
 13 18  1  0
 14 15  1  0
 15 16  2  0
 16  1  1  0
 16 17  1  0
  1  2  2  0
  1 11  1  0
  2  3  1  0
  3  4  1  0
  3  8  1  0
  4  5  2  0
  4  6  1  0
  6 19  1  0
  6  7  1  0
 19 20  2  0
 19 24  1  0
 20 21  1  0
 21 22  2  0
 22 23  1  0
 23 24  2  0
  7  8  2  0
  8  9  1  0
  9 10  2  0
  9 11  1  0
 17 18  2  0
M  END
>  <minimizedAffinity>  (984) 
-8.74917

$$$$
data/reference_output_2/data/smiles/177458.pdb
     RDKit          3D

 23 25  0  0  0  0  0  0  0  0999 V2000
   71.6001   50.7052   54.2220 C   0  0  0  0  0  0  0  0  0  0  0  0
   70.7839   51.4032   53.3955 N   0  0  0  0  0  0  0  0  0  0  0  0
   69.8723   50.5561   52.9477 N   0  0  0  0  0  0  0  0  0  0  0  0
   70.0965   49.3403   53.4735 C   0  0  0  0  0  0  0  0  0  0  0  0
   71.1487   49.4757   54.2364 O   0  0  0  0  0  0  0  0  0  0  0  0
   69.3079   48.1332   53.2256 C   0  0  0  0  0  0  0  0  0  0  0  0
   68.6868   47.4267   54.2321 C   0  0  0  0  0  0  0  0  0  0  0  0
   67.9447   46.2921   54.0083 C   0  0  0  0  0  0  0  0  0  0  0  0
   67.8017   45.8146   52.7029 C   0  0  0  0  0  0  0  0  0  0  0  0
   67.0698   44.6932   52.4687 F   0  0  0  0  0  0  0  0  0  0  0  0
   68.4137   46.5037   51.6775 C   0  0  0  0  0  0  0  0  0  0  0  0
   69.1622   47.6569   51.9407 C   0  0  0  0  0  0  0  0  0  0  0  0
   74.2176   50.1426   53.5634 O   0  0  0  0  0  0  0  0  0  0  0  0
   74.0651   50.8729   54.5759 C   0  0  0  0  0  0  0  0  0  0  0  0
   72.7298   51.1818   54.9432 N   0  0  0  0  0  0  0  0  0  0  0  0
   75.2466   51.3833   55.3458 C   0  0  0  0  0  0  0  0  0  0  0  0
   75.9396   50.3214   55.9619 O   0  0  0  0  0  0  0  0  0  0  0  0
   77.3126   50.1846   55.9185 C   0  0  0  0  0  0  0  0  0  0  0  0
   77.9474   49.1004   55.3582 C   0  0  0  0  0  0  0  0  0  0  0  0
   79.3264   48.9879   55.3281 C   0  0  0  0  0  0  0  0  0  0  0  0
   80.1048   49.9762   55.8669 C   0  0  0  0  0  0  0  0  0  0  0  0
   79.4935   51.0777   56.4363 C   0  0  0  0  0  0  0  0  0  0  0  0
   78.0994   51.1764   56.4591 C   0  0  0  0  0  0  0  0  0  0  0  0
 13 14  2  0
 14 16  1  0
 14 15  1  0
 16 17  1  0
 17 18  1  0
 18 19  2  0
 18 23  1  0
 19 20  1  0
 20 21  2  0
 21 22  1  0
 22 23  2  0
 15  1  1  0
  1  2  2  0
  1  5  1  0
  2  3  1  0
  3  4  2  0
  4  6  1  0
  4  5  1  0
  6  7  2  0
  6 12  1  0
  7  8  1  0
  8  9  2  0
  9 10  1  0
  9 11  1  0
 11 12  2  0
M  END
>  <minimizedAffinity>  (985) 
-8.52233

$$$$
data/reference_output_2/data/smiles/177586.pdb
     RDKit          3D

 26 28  0  0  0  0  0  0  0  0999 V2000
   68.5099   45.3741   55.7362 C   0  0  0  0  0  0  0  0  0  0  0  0
   69.5457   45.5823   56.6627 C   0  0  0  0  0  0  0  0  0  0  0  0
   69.9988   44.5566   57.4540 C   0  0  0  0  0  0  0  0  0  0  0  0
   69.4800   43.2761   57.3962 C   0  0  0  0  0  0  0  0  0  0  0  0
   68.4658   43.1084   56.4769 C   0  0  0  0  0  0  0  0  0  0  0  0
   68.0318   44.1244   55.7061 N   0  0  0  0  0  0  0  0  0  0  0  0
   68.0663   46.4105   54.9509 O   0  0  0  0  0  0  0  0  0  0  0  0
   70.7699   50.3174   53.9502 C   0  0  0  0  0  0  0  0  0  0  0  0
   70.0115   49.1136   53.4952 C   0  0  0  0  0  0  0  0  0  0  0  0
   69.9227   48.7836   52.1585 C   0  0  0  0  0  0  0  0  0  0  0  0
   69.1977   47.6423   51.7874 C   0  0  0  0  0  0  0  0  0  0  0  0
   68.5815   46.8570   52.7286 C   0  0  0  0  0  0  0  0  0  0  0  0
   67.8124   45.6477   52.3354 C   0  0  0  0  0  0  0  0  0  0  0  0
   68.6960   47.2282   54.0884 C   0  0  0  0  0  0  0  0  0  0  0  0
   69.3934   48.3284   54.4620 C   0  0  0  0  0  0  0  0  0  0  0  0
   70.0173   42.2068   58.2777 C   0  0  0  0  0  0  0  0  0  0  0  0
   68.9902   41.6154   59.1137 N   0  0  0  0  0  0  0  0  0  0  0  0
   68.3356   42.2425   60.1805 C   0  0  0  0  0  0  0  0  0  0  0  0
   68.6485   43.4359   60.4612 O   0  0  0  0  0  0  0  0  0  0  0  0
   67.3030   41.4857   60.9404 C   0  0  1  0  0  0  0  0  0  0  0  0
   67.5736   40.0518   61.1287 C   0  0  0  0  0  0  0  0  0  0  0  0
   68.2155   39.7488   62.4242 C   0  0  0  0  0  0  0  0  0  0  0  0
   67.6815   41.0747   63.4717 S   0  0  0  0  0  0  0  0  0  0  0  0
   68.8158   41.7351   64.1897 O   0  0  0  0  0  0  0  0  0  0  0  0
   66.6956   40.6218   64.5005 O   0  0  0  0  0  0  0  0  0  0  0  0
   66.9555   42.1383   62.2507 C   0  0  0  0  0  0  0  0  0  0  0  0
  8  9  1  0
  9 10  2  0
  9 15  1  0
 10 11  1  0
 11 12  2  0
 12 13  1  0
 12 14  1  0
 14  7  1  0
 14 15  2  0
  7  1  1  0
  1  2  2  0
  1  6  1  0
  2  3  1  0
  3  4  2  0
  4 16  1  0
  4  5  1  0
 16 17  1  0
 17 18  1  0
 18 19  2  0
 20 18  1  1
 20 21  1  0
 20 26  1  0
 21 22  1  0
 22 23  1  0
 23 24  2  0
 23 25  2  0
 23 26  1  0
  5  6  2  0
M  END
>  <minimizedAffinity>  (986) 
-8.50788

$$$$
data/reference_output_2/data/smiles/177626.pdb
     RDKit          3D

 21 23  0  0  0  0  0  0  0  0999 V2000
   69.0985   45.7797   56.4563 N   0  0  0  0  0  0  0  0  0  0  0  0
   68.7349   46.7495   55.8186 C   0  0  0  0  0  0  0  0  0  0  0  0
   68.2924   47.9295   56.5644 C   0  0  0  0  0  0  0  0  0  0  0  0
   68.9474   49.1061   56.4810 C   0  0  0  0  0  0  0  0  0  0  0  0
   68.4782   50.2636   57.1386 C   0  0  0  0  0  0  0  0  0  0  0  0
   67.3270   50.1410   57.8684 C   0  0  0  0  0  0  0  0  0  0  0  0
   66.6734   48.9352   57.9458 C   0  0  0  0  0  0  0  0  0  0  0  0
   67.1509   47.8544   57.3044 N   0  0  0  0  0  0  0  0  0  0  0  0
   68.6929   46.7373   54.3407 C   0  0  0  0  0  0  0  0  0  0  0  0
   67.8479   45.8344   53.6820 C   0  0  0  0  0  0  0  0  0  0  0  0
   67.7198   45.8346   52.2996 C   0  0  0  0  0  0  0  0  0  0  0  0
   68.4450   46.7514   51.5562 C   0  0  0  0  0  0  0  0  0  0  0  0
   69.2594   47.6178   52.2271 C   0  0  0  0  0  0  0  0  0  0  0  0
   69.3468   47.5735   53.5481 N   0  0  0  0  0  0  0  0  0  0  0  0
   69.4760   44.7718   57.1387 N   0  0  0  0  0  0  0  0  0  0  0  0
   67.8085   40.9315   56.6106 C   0  0  0  0  0  0  0  0  0  0  0  0
   68.9333   41.0936   57.3730 C   0  0  0  0  0  0  0  0  0  0  0  0
   69.4630   42.3799   57.5292 C   0  0  0  0  0  0  0  0  0  0  0  0
   68.8598   43.4679   56.9219 C   0  0  0  0  0  0  0  0  0  0  0  0
   67.7754   43.2781   56.1918 N   0  0  0  0  0  0  0  0  0  0  0  0
   67.2231   42.0429   56.0120 C   0  0  0  0  0  0  0  0  0  0  0  0
 16 17  2  0
 16 21  1  0
 17 18  1  0
 18 19  2  0
 19 15  1  0
 19 20  1  0
 15  1  1  0
  1  2  2  3
  2  3  1  0
  2  9  1  0
  3  4  2  0
  3  8  1  0
  4  5  1  0
  5  6  2  0
  6  7  1  0
  7  8  2  0
  9 10  2  0
  9 14  1  0
 10 11  1  0
 11 12  2  0
 12 13  1  0
 13 14  2  0
 20 21  2  0
M  END
>  <minimizedAffinity>  (987) 
-9.20437

$$$$
data/reference_output_2/data/smiles/177643.pdb
     RDKit          3D

 29 33  0  0  0  0  0  0  0  0999 V2000
   69.2284   51.8863   56.8532 C   0  0  0  0  0  0  0  0  0  0  0  0
   70.3638   50.9384   56.6356 C   0  0  2  0  0  0  0  0  0  0  0  0
   70.1906   50.0907   55.4738 N   0  0  0  0  0  0  0  0  0  0  0  0
   69.4048   48.9220   55.3223 C   0  0  0  0  0  0  0  0  0  0  0  0
   68.6062   48.3309   56.3117 C   0  0  0  0  0  0  0  0  0  0  0  0
   67.8854   47.1874   56.0327 C   0  0  0  0  0  0  0  0  0  0  0  0
   67.9322   46.6020   54.7865 C   0  0  0  0  0  0  0  0  0  0  0  0
   68.7137   47.1771   53.8147 C   0  0  0  0  0  0  0  0  0  0  0  0
   68.7923   46.6316   52.5595 C   0  0  0  0  0  0  0  0  0  0  0  0
   69.5777   47.2086   51.5802 C   0  0  0  0  0  0  0  0  0  0  0  0
   70.2881   48.3701   51.9187 C   0  0  0  0  0  0  0  0  0  0  0  0
   70.2082   48.9125   53.1707 C   0  0  0  0  0  0  0  0  0  0  0  0
   69.4359   48.3341   54.1144 C   0  0  0  0  0  0  0  0  0  0  0  0
   70.9312   50.3043   53.9218 S   0  0  0  0  0  0  0  0  0  0  0  0
   70.4590   51.5912   53.3144 O   0  0  0  0  0  0  0  0  0  0  0  0
   72.4159   50.2322   53.9871 O   0  0  0  0  0  0  0  0  0  0  0  0
   70.6435   50.1045   57.8620 C   0  0  0  0  0  0  0  0  0  0  0  0
   69.9678   50.2660   58.9073 O   0  0  0  0  0  0  0  0  0  0  0  0
   71.6627   49.1279   57.8656 N   0  0  0  0  0  0  0  0  0  0  0  0
   71.9701   48.3040   58.9992 C   0  0  0  0  0  0  0  0  0  0  0  0
   71.9041   46.8877   58.6211 C   0  0  0  0  0  0  0  0  0  0  0  0
   72.9338   45.9917   58.6199 C   0  0  0  0  0  0  0  0  0  0  0  0
   72.7952   44.6599   58.2595 C   0  0  0  0  0  0  0  0  0  0  0  0
   71.5538   44.2082   57.8815 C   0  0  0  0  0  0  0  0  0  0  0  0
   70.4963   45.0578   57.8654 C   0  0  0  0  0  0  0  0  0  0  0  0
   70.6590   46.3800   58.2284 C   0  0  0  0  0  0  0  0  0  0  0  0
   69.3446   44.3629   57.4464 O   0  0  0  0  0  0  0  0  0  0  0  0
   69.6583   42.9782   57.5272 C   0  0  0  0  0  0  0  0  0  0  0  0
   71.0790   42.9508   57.4688 O   0  0  0  0  0  0  0  0  0  0  0  0
  2  1  1  1
  2 17  1  0
  2  3  1  0
 17 18  2  0
 17 19  1  0
 19 20  1  0
 20 21  1  0
 21 22  2  0
 21 26  1  0
 22 23  1  0
 23 24  2  0
 24 25  1  0
 24 29  1  0
 25 26  2  0
 25 27  1  0
 27 28  1  0
 28 29  1  0
  3  4  1  0
  3 14  1  0
  4  5  2  0
  4 13  1  0
  5  6  1  0
  6  7  2  0
  7  8  1  0
  8  9  1  0
  8 13  2  0
  9 10  2  0
 10 11  1  0
 11 12  2  0
 12 13  1  0
 12 14  1  0
 14 15  2  0
 14 16  2  0
M  END
>  <minimizedAffinity>  (988) 
-8.68829

$$$$
data/reference_output_2/data/smiles/177720.pdb
     RDKit          3D

 28 31  0  0  0  0  0  0  0  0999 V2000
   69.5428   42.6333   57.3490 C   0  0  2  0  0  0  0  0  0  0  0  0
   68.3381   42.1764   56.5596 C   0  0  0  0  0  0  0  0  0  0  0  0
   68.2576   40.7545   56.9826 C   0  0  0  0  0  0  0  0  0  0  0  0
   67.5117   39.8908   56.4771 O   0  0  0  0  0  0  0  0  0  0  0  0
   69.1691   40.5258   58.0653 N   0  0  0  0  0  0  0  0  0  0  0  0
   69.3410   41.8450   58.6373 C   0  0  0  0  0  0  0  0  0  0  0  0
   69.7672   39.3313   58.4895 C   0  0  0  0  0  0  0  0  0  0  0  0
   69.1551   38.4912   59.3878 C   0  0  0  0  0  0  0  0  0  0  0  0
   69.7334   37.3119   59.8207 C   0  0  0  0  0  0  0  0  0  0  0  0
   70.9593   36.9276   59.3644 C   0  0  0  0  0  0  0  0  0  0  0  0
   71.6043   37.7425   58.4643 C   0  0  0  0  0  0  0  0  0  0  0  0
   71.0247   38.9089   58.0402 C   0  0  0  0  0  0  0  0  0  0  0  0
   72.8493   37.3076   58.0297 O   0  0  0  0  0  0  0  0  0  0  0  0
   73.7403   36.6778   58.9522 C   0  0  0  0  0  0  0  0  0  0  0  0
   73.0332   35.7005   59.8510 C   0  0  0  0  0  0  0  0  0  0  0  0
   71.6277   35.7704   59.7321 O   0  0  0  0  0  0  0  0  0  0  0  0
   69.9967   44.5284   58.6613 O   0  0  0  0  0  0  0  0  0  0  0  0
   69.6228   44.0576   57.5606 C   0  0  0  0  0  0  0  0  0  0  0  0
   69.2825   44.9961   56.5331 N   0  0  0  0  0  0  0  0  0  0  0  0
   69.3547   46.4065   56.7299 C   0  0  0  0  0  0  0  0  0  0  0  0
   68.3737   47.1790   55.9282 C   0  0  0  0  0  0  0  0  0  0  0  0
   68.6688   47.1602   54.4846 C   0  0  0  0  0  0  0  0  0  0  0  0
   69.4023   48.2636   54.0216 C   0  0  0  0  0  0  0  0  0  0  0  0
   69.6910   48.4054   52.7011 C   0  0  0  0  0  0  0  0  0  0  0  0
   69.2452   47.4382   51.8403 C   0  0  0  0  0  0  0  0  0  0  0  0
   68.5266   46.3457   52.2630 C   0  0  0  0  0  0  0  0  0  0  0  0
   68.2372   46.2045   53.5952 C   0  0  0  0  0  0  0  0  0  0  0  0
   67.5780   45.0820   54.0124 F   0  0  0  0  0  0  0  0  0  0  0  0
 17 18  2  0
 18 19  1  0
  1 18  1  1
 19 20  1  0
 20 21  1  0
 21 22  1  0
 22 23  2  0
 22 27  1  0
 23 24  1  0
 24 25  2  0
 25 26  1  0
 26 27  2  0
 27 28  1  0
  1  2  1  0
  1  6  1  0
  2  3  1  0
  3  4  2  0
  3  5  1  0
  5  7  1  0
  5  6  1  0
  7  8  2  0
  7 12  1  0
  8  9  1  0
  9 10  2  0
 10 11  1  0
 10 16  1  0
 11 12  2  0
 11 13  1  0
 13 14  1  0
 14 15  1  0
 15 16  1  0
M  END
>  <minimizedAffinity>  (989) 
-8.65574

$$$$
data/reference_output_2/data/smiles/177753.pdb
     RDKit          3D

 22 23  0  0  0  0  0  0  0  0999 V2000
   69.3090   46.1229   56.8455 C   0  0  0  0  0  0  0  0  0  0  0  0
   69.9289   47.3640   57.6704 S   0  0  0  0  0  0  0  0  0  0  0  0
   67.9646   43.7406   56.4386 O   0  0  0  0  0  0  0  0  0  0  0  0
   69.1141   43.6161   56.9832 C   0  0  0  0  0  0  0  0  0  0  0  0
   69.8329   44.8148   57.2076 N   0  0  0  0  0  0  0  0  0  0  0  0
   69.6266   42.2986   57.3406 C   0  0  0  0  0  0  0  0  0  0  0  0
   70.7372   42.0726   57.9931 C   0  0  0  0  0  0  0  0  0  0  0  0
   71.2043   40.7218   58.3255 C   0  0  0  0  0  0  0  0  0  0  0  0
   72.4223   40.3768   58.8714 C   0  0  0  0  0  0  0  0  0  0  0  0
   72.4412   39.0010   59.0186 C   0  0  0  0  0  0  0  0  0  0  0  0
   71.2244   38.5571   58.5516 C   0  0  0  0  0  0  0  0  0  0  0  0
   70.5556   39.5978   58.1662 O   0  0  0  0  0  0  0  0  0  0  0  0
   68.3338   46.1678   55.8320 N   0  0  0  0  0  0  0  0  0  0  0  0
   68.4771   46.4624   54.4711 C   0  0  0  0  0  0  0  0  0  0  0  0
   67.7501   45.6917   53.5659 C   0  0  0  0  0  0  0  0  0  0  0  0
   67.8587   45.9442   52.2292 C   0  0  0  0  0  0  0  0  0  0  0  0
   68.6615   46.9366   51.7313 C   0  0  0  0  0  0  0  0  0  0  0  0
   69.3872   47.7100   52.6044 C   0  0  0  0  0  0  0  0  0  0  0  0
   69.2777   47.4523   53.9647 C   0  0  0  0  0  0  0  0  0  0  0  0
   70.2319   48.7475   52.1330 N   0  0  0  0  0  0  0  0  0  0  0  0
   71.2545   49.0492   52.7472 O   0  0  0  0  0  0  0  0  0  0  0  0
   69.9225   49.4263   50.9882 O   0  0  0  0  0  0  0  0  0  0  0  0
  3  4  2  0
  4  6  1  0
  4  5  1  0
  6  7  2  0
  7  8  1  0
  8  9  2  0
  8 12  1  0
  9 10  1  0
 10 11  2  0
 11 12  1  0
  5  1  1  0
  1  2  2  0
  1 13  1  0
 13 14  1  0
 14 15  2  0
 14 19  1  0
 15 16  1  0
 16 17  2  0
 17 18  1  0
 18 20  1  0
 18 19  2  0
 20 21  2  0
 20 22  1  0
M  CHG  2  20   1  22  -1
M  END
>  <minimizedAffinity>  (990) 
-8.54623

$$$$
data/reference_output_2/data/smiles/177834.pdb
     RDKit          3D

 22 24  0  0  0  0  0  0  0  0999 V2000
   69.5260   44.1457   57.2643 C   0  0  0  0  0  0  0  0  0  0  0  0
   68.9337   44.8423   56.2648 N   0  0  0  0  0  0  0  0  0  0  0  0
   69.0202   46.1447   56.5181 C   0  0  0  0  0  0  0  0  0  0  0  0
   69.6737   46.2528   57.6883 N   0  0  0  0  0  0  0  0  0  0  0  0
   69.9579   45.0664   58.1037 O   0  0  0  0  0  0  0  0  0  0  0  0
   69.6637   42.6605   57.3959 C   0  0  0  0  0  0  0  0  0  0  0  0
   67.7639   41.1496   57.5210 C   0  0  1  0  0  0  0  0  0  0  0  0
   68.3439   39.7555   57.6739 C   0  0  0  0  0  0  0  0  0  0  0  0
   68.8361   39.5908   59.0965 C   0  0  0  0  0  0  0  0  0  0  0  0
   68.2693   40.6738   60.0136 C   0  0  0  0  0  0  0  0  0  0  0  0
   68.6972   42.0414   59.5214 C   0  0  0  0  0  0  0  0  0  0  0  0
   68.6258   42.0594   58.1181 N   0  0  1  0  0  0  0  0  0  0  0  0
   67.5471   40.3019   55.2967 O   0  0  0  0  0  0  0  0  0  0  0  0
   67.3615   41.4260   56.1011 C   0  0  0  0  0  0  0  0  0  0  0  0
   68.5388   47.3243   55.7511 C   0  0  0  0  0  0  0  0  0  0  0  0
   68.5642   47.1224   54.2997 C   0  0  0  0  0  0  0  0  0  0  0  0
   69.3582   47.9240   53.5164 C   0  0  0  0  0  0  0  0  0  0  0  0
   69.3676   47.7185   52.1534 C   0  0  0  0  0  0  0  0  0  0  0  0
   68.6069   46.7376   51.5661 C   0  0  0  0  0  0  0  0  0  0  0  0
   67.8044   45.9261   52.3401 C   0  0  0  0  0  0  0  0  0  0  0  0
   67.0584   44.9631   51.7498 F   0  0  0  0  0  0  0  0  0  0  0  0
   67.8037   46.1434   53.7130 C   0  0  0  0  0  0  0  0  0  0  0  0
 13 14  1  0
  7 14  1  6
  7  8  1  0
  7 12  1  0
  8  9  1  0
  9 10  1  0
 10 11  1  0
 11 12  1  0
 12  6  1  6
  6  1  1  0
  1  2  2  0
  1  5  1  0
  2  3  1  0
  3 15  1  0
  3  4  2  0
 15 16  1  0
 16 17  2  0
 16 22  1  0
 17 18  1  0
 18 19  2  0
 19 20  1  0
 20 21  1  0
 20 22  2  0
  4  5  1  0
M  CHG  1  12   1
M  END
>  <minimizedAffinity>  (991) 
-8.85026

$$$$
data/reference_output_2/data/smiles/177867.pdb
     RDKit          3D

 29 32  0  0  0  0  0  0  0  0999 V2000
   69.6539   45.5373   57.6908 O   0  0  0  0  0  0  0  0  0  0  0  0
   70.2909   46.5207   58.1082 C   0  0  0  0  0  0  0  0  0  0  0  0
   71.4532   46.3445   59.0191 C   0  0  0  0  0  0  0  0  0  0  0  0
   71.8063   47.5046   59.7282 N   0  0  0  0  0  0  0  0  0  0  0  0
   71.3681   48.7566   59.2975 C   0  0  0  0  0  0  0  0  0  0  0  0
   70.8488   48.8857   57.9108 C   0  0  0  0  0  0  0  0  0  0  0  0
   69.8780   47.8297   57.6905 N   0  0  0  0  0  0  0  0  0  0  0  0
   73.2340   47.4305   60.6241 S   0  0  0  0  0  0  0  0  0  0  0  0
   72.9571   47.8310   62.0460 O   0  0  0  0  0  0  0  0  0  0  0  0
   73.8004   46.0387   60.5737 O   0  0  0  0  0  0  0  0  0  0  0  0
   74.4081   48.5180   59.9179 C   0  0  0  0  0  0  0  0  0  0  0  0
   75.3003   48.1577   59.0194 C   0  0  0  0  0  0  0  0  0  0  0  0
   76.2880   49.0297   58.4117 C   0  0  0  0  0  0  0  0  0  0  0  0
   77.0755   49.8972   59.1175 C   0  0  0  0  0  0  0  0  0  0  0  0
   77.9891   50.6866   58.4343 C   0  0  0  0  0  0  0  0  0  0  0  0
   78.1592   50.6540   57.0670 C   0  0  0  0  0  0  0  0  0  0  0  0
   79.3359   51.6789   56.2507 Cl  0  0  0  0  0  0  0  0  0  0  0  0
   77.3603   49.7762   56.3682 C   0  0  0  0  0  0  0  0  0  0  0  0
   76.4486   48.9862   57.0309 C   0  0  0  0  0  0  0  0  0  0  0  0
   68.5799   48.0085   57.1042 C   0  0  0  0  0  0  0  0  0  0  0  0
   68.5843   47.6839   55.6397 C   0  0  0  0  0  0  0  0  0  0  0  0
   69.3131   48.2587   54.6312 C   0  0  0  0  0  0  0  0  0  0  0  0
   69.0081   47.6537   53.4324 C   0  0  0  0  0  0  0  0  0  0  0  0
   69.4146   47.8074   52.1202 C   0  0  0  0  0  0  0  0  0  0  0  0
   68.8932   47.0200   51.1714 N   0  0  0  0  0  0  0  0  0  0  0  0
   67.9757   46.0750   51.4558 C   0  0  0  0  0  0  0  0  0  0  0  0
   67.5249   45.8668   52.7420 C   0  0  0  0  0  0  0  0  0  0  0  0
   68.0654   46.6838   53.7308 C   0  0  0  0  0  0  0  0  0  0  0  0
   67.8382   46.7305   55.0508 N   0  0  0  0  0  0  0  0  0  0  0  0
  1  2  2  0
  2  3  1  0
  2  7  1  0
  3  4  1  0
  4  8  1  0
  4  5  1  0
  8  9  2  0
  8 10  2  0
  8 11  1  0
 11 12  2  0
 12 13  1  0
 13 14  2  0
 13 19  1  0
 14 15  1  0
 15 16  2  0
 16 17  1  0
 16 18  1  0
 18 19  2  0
  5  6  1  0
  6  7  1  0
  7 20  1  0
 20 21  1  0
 21 22  2  0
 21 29  1  0
 22 23  1  0
 23 24  2  0
 23 28  1  0
 24 25  1  0
 25 26  2  0
 26 27  1  0
 27 28  2  0
 28 29  1  0
M  END
>  <minimizedAffinity>  (992) 
-8.51962

$$$$
data/reference_output_2/data/smiles/178148.pdb
     RDKit          3D

 20 21  0  0  0  0  0  0  0  0999 V2000
   69.9148   49.1759   52.4863 S   0  0  0  0  0  0  0  0  0  0  0  0
   69.9699   49.4975   51.0097 O   0  0  0  0  0  0  0  0  0  0  0  0
   71.3060   48.9843   52.9660 O   0  0  0  0  0  0  0  0  0  0  0  0
   68.2315   45.8765   54.0289 C   0  0  0  0  0  0  0  0  0  0  0  0
   67.6248   45.3097   52.9151 C   0  0  0  0  0  0  0  0  0  0  0  0
   67.7362   45.9314   51.7322 N   0  0  0  0  0  0  0  0  0  0  0  0
   68.4203   47.0824   51.6153 C   0  0  0  0  0  0  0  0  0  0  0  0
   69.0320   47.6669   52.7044 C   0  0  0  0  0  0  0  0  0  0  0  0
   68.9392   47.0629   53.9171 C   0  0  0  0  0  0  0  0  0  0  0  0
   68.4276   45.8368   56.3082 O   0  0  0  0  0  0  0  0  0  0  0  0
   68.1201   45.2301   55.2784 N   0  0  0  0  0  0  0  0  0  0  0  0
   67.6762   43.9454   55.3420 O   0  0  0  0  0  0  0  0  0  0  0  0
   69.1683   50.4556   53.3045 N   0  0  0  0  0  0  0  0  0  0  0  0
   69.7720   50.7834   54.5670 C   0  0  0  0  0  0  0  0  0  0  0  0
   68.8984   50.4925   55.7189 C   0  0  0  0  0  0  0  0  0  0  0  0
   68.8715   49.2546   56.3150 C   0  0  0  0  0  0  0  0  0  0  0  0
   68.0356   49.0583   57.3782 C   0  0  0  0  0  0  0  0  0  0  0  0
   67.2089   50.0380   57.8950 C   0  0  0  0  0  0  0  0  0  0  0  0
   67.2458   51.2758   57.2884 C   0  0  0  0  0  0  0  0  0  0  0  0
   68.0829   51.4915   56.2135 C   0  0  0  0  0  0  0  0  0  0  0  0
 10 11  2  0
 11 12  1  0
 11  4  1  0
  4  5  2  0
  4  9  1  0
  5  6  1  0
  6  7  2  0
  7  8  1  0
  8  1  1  0
  8  9  2  0
  1  2  2  0
  1  3  2  0
  1 13  1  0
 13 14  1  0
 14 15  1  0
 15 16  2  0
 15 20  1  0
 16 17  1  0
 17 18  2  0
 18 19  1  0
 19 20  2  0
M  CHG  2  11   1  12  -1
M  END
>  <minimizedAffinity>  (993) 
-8.69562

$$$$
data/reference_output_2/data/smiles/178453.pdb
     RDKit          3D

 24 26  0  0  0  0  0  0  0  0999 V2000
   68.4486   42.4276   56.7153 C   0  0  0  0  0  0  0  0  0  0  0  0
   67.7809   40.9366   57.0291 S   0  0  0  0  0  0  0  0  0  0  0  0
   69.7653   44.0883   58.6002 O   0  0  0  0  0  0  0  0  0  0  0  0
   70.4620   43.3542   57.8206 C   0  0  0  0  0  0  0  0  0  0  0  0
   69.8385   42.5151   56.8631 N   0  0  0  0  0  0  0  0  0  0  0  0
   71.8917   43.4467   57.9915 C   0  0  0  0  0  0  0  0  0  0  0  0
   72.4933   44.6598   58.2216 C   0  0  0  0  0  0  0  0  0  0  0  0
   73.8848   44.7444   58.3946 C   0  0  0  0  0  0  0  0  0  0  0  0
   74.6493   43.6038   58.3341 C   0  0  0  0  0  0  0  0  0  0  0  0
   76.4031   43.7363   58.5535 Cl  0  0  0  0  0  0  0  0  0  0  0  0
   74.0623   42.3923   58.1076 C   0  0  0  0  0  0  0  0  0  0  0  0
   72.6812   42.3358   57.9392 C   0  0  0  0  0  0  0  0  0  0  0  0
   67.5424   43.4223   56.3298 N   0  0  0  0  0  0  0  0  0  0  0  0
   67.7218   44.2016   55.1712 N   0  0  0  0  0  0  0  0  0  0  0  0
   68.2814   45.5134   55.2453 C   0  0  0  0  0  0  0  0  0  0  0  0
   68.5807   46.0036   56.4593 N   0  0  0  0  0  0  0  0  0  0  0  0
   69.1231   47.2503   56.6024 C   0  0  0  0  0  0  0  0  0  0  0  0
   69.3441   47.9609   55.5074 N   0  0  0  0  0  0  0  0  0  0  0  0
   69.0670   47.5242   54.2781 C   0  0  0  0  0  0  0  0  0  0  0  0
   69.3150   48.3157   53.1776 C   0  0  0  0  0  0  0  0  0  0  0  0
   69.0136   47.8483   51.9074 C   0  0  0  0  0  0  0  0  0  0  0  0
   68.4660   46.5858   51.7709 C   0  0  0  0  0  0  0  0  0  0  0  0
   68.2099   45.7777   52.8523 C   0  0  0  0  0  0  0  0  0  0  0  0
   68.5104   46.2477   54.1018 C   0  0  0  0  0  0  0  0  0  0  0  0
  3  4  2  0
  4  5  1  0
  4  6  1  0
  5  1  1  0
  1  2  2  0
  1 13  1  0
 13 14  1  0
 14 15  1  0
 15 16  2  0
 15 24  1  0
 16 17  1  0
 17 18  2  0
 18 19  1  0
 19 20  1  0
 19 24  2  0
 20 21  2  0
 21 22  1  0
 22 23  2  0
 23 24  1  0
  6  7  2  0
  6 12  1  0
  7  8  1  0
  8  9  2  0
  9 10  1  0
  9 11  1  0
 11 12  2  0
M  END
>  <minimizedAffinity>  (994) 
-8.73270

$$$$
data/reference_output_2/data/smiles/178528.pdb
     RDKit          3D

 28 31  0  0  0  0  0  0  0  0999 V2000
   71.7533   47.8401   58.6240 C   0  0  0  0  0  0  0  0  0  0  0  0
   71.4915   46.4289   58.6016 C   0  0  0  0  0  0  0  0  0  0  0  0
   70.0708   46.3496   57.4912 S   0  0  0  0  0  0  0  0  0  0  0  0
   69.9263   48.0417   57.1549 C   0  0  0  0  0  0  0  0  0  0  0  0
   70.9241   48.5774   57.8712 C   0  0  0  0  0  0  0  0  0  0  0  0
   78.2601   50.6943   57.0061 C   0  0  0  0  0  0  0  0  0  0  0  0
   77.9593   50.2258   58.3686 C   0  0  0  0  0  0  0  0  0  0  0  0
   78.6765   50.5677   59.3200 O   0  0  0  0  0  0  0  0  0  0  0  0
   76.8475   49.3811   58.5898 N   0  0  0  0  0  0  0  0  0  0  0  0
   76.0546   49.0005   57.4608 C   0  0  0  0  0  0  0  0  0  0  0  0
   74.6654   48.5655   57.7870 C   0  0  0  0  0  0  0  0  0  0  0  0
   74.1976   48.6287   59.1125 N   0  0  0  0  0  0  0  0  0  0  0  0
   72.8833   48.2784   59.4799 C   0  0  0  0  0  0  0  0  0  0  0  0
   72.6227   48.3552   60.7661 O   0  0  0  0  0  0  0  0  0  0  0  0
   75.0732   49.1214   60.1942 C   0  0  0  0  0  0  0  0  0  0  0  0
   76.4938   48.8928   59.9044 C   0  0  0  0  0  0  0  0  0  0  0  0
   68.8768   48.5524   56.2797 C   0  0  0  0  0  0  0  0  0  0  0  0
   69.2958   48.4969   54.8721 C   0  0  0  0  0  0  0  0  0  0  0  0
   70.1856   49.4273   54.4358 N   0  0  0  0  0  0  0  0  0  0  0  0
   70.5946   49.5132   53.1934 N   0  0  0  0  0  0  0  0  0  0  0  0
   70.1535   48.6641   52.2256 C   0  0  0  0  0  0  0  0  0  0  0  0
   70.5714   48.7807   51.0352 O   0  0  0  0  0  0  0  0  0  0  0  0
   69.2497   47.6965   52.6094 C   0  0  0  0  0  0  0  0  0  0  0  0
   68.7781   46.7982   51.7115 C   0  0  0  0  0  0  0  0  0  0  0  0
   67.8823   45.7857   52.0491 C   0  0  0  0  0  0  0  0  0  0  0  0
   67.4818   45.7283   53.3695 C   0  0  0  0  0  0  0  0  0  0  0  0
   67.9310   46.6162   54.3165 C   0  0  0  0  0  0  0  0  0  0  0  0
   68.8195   47.6112   53.9393 C   0  0  0  0  0  0  0  0  0  0  0  0
  6  7  1  0
  7  8  2  0
  7  9  1  0
  9 10  1  0
  9 16  1  0
 10 11  1  0
 11 12  1  0
 12 13  1  0
 12 15  1  0
 13 14  2  0
 13  1  1  0
  1  2  2  0
  1  5  1  0
  2  3  1  0
  3  4  1  0
  4 17  1  0
  4  5  2  0
 17 18  1  0
 18 19  2  0
 18 28  1  0
 19 20  1  0
 20 21  1  0
 21 22  2  0
 21 23  1  0
 23 24  1  0
 23 28  2  0
 24 25  2  0
 25 26  1  0
 26 27  2  0
 27 28  1  0
 15 16  1  0
M  END
>  <minimizedAffinity>  (995) 
-8.80520

$$$$
data/reference_output_2/data/smiles/178630.pdb
     RDKit          3D

 27 29  0  0  0  0  0  0  0  0999 V2000
   70.1197   47.7410   57.6111 C   0  0  0  0  0  0  0  0  0  0  0  0
   70.0634   46.2849   57.9013 C   0  0  0  0  0  0  0  0  0  0  0  0
   69.9793   45.8663   59.0993 O   0  0  0  0  0  0  0  0  0  0  0  0
   70.0980   45.2658   56.9133 N   0  0  0  0  0  0  0  0  0  0  0  0
   70.0415   43.8864   57.2524 C   0  0  0  0  0  0  0  0  0  0  0  0
   71.1108   43.2976   57.9372 C   0  0  0  0  0  0  0  0  0  0  0  0
   71.0616   41.9446   58.2680 C   0  0  0  0  0  0  0  0  0  0  0  0
   69.9451   41.1942   57.9118 C   0  0  0  0  0  0  0  0  0  0  0  0
   68.8938   41.7706   57.2397 C   0  0  0  0  0  0  0  0  0  0  0  0
   68.9580   43.1051   56.9220 C   0  0  0  0  0  0  0  0  0  0  0  0
   67.7005   40.9909   56.8494 C   0  0  0  0  0  0  0  0  0  0  0  0
   66.5309   41.6174   57.2389 F   0  0  0  0  0  0  0  0  0  0  0  0
   67.7786   39.7701   57.5245 F   0  0  0  0  0  0  0  0  0  0  0  0
   67.6846   40.7149   55.5142 F   0  0  0  0  0  0  0  0  0  0  0  0
   67.7640   48.4796   57.2896 C   0  0  0  0  0  0  0  0  0  0  0  0
   69.0673   48.1896   56.7308 N   0  0  0  0  0  0  0  0  0  0  0  0
   69.3122   48.3321   55.3021 C   0  0  0  0  0  0  0  0  0  0  0  0
   70.0082   49.3126   54.8904 N   0  0  0  0  0  0  0  0  0  0  0  0
   70.1132   49.2023   53.1830 S   0  0  0  0  0  0  0  0  0  0  0  0
   71.5227   48.9845   52.7081 O   0  0  0  0  0  0  0  0  0  0  0  0
   69.4690   50.3742   52.5012 O   0  0  0  0  0  0  0  0  0  0  0  0
   69.1550   47.7336   53.0122 C   0  0  0  0  0  0  0  0  0  0  0  0
   68.7804   46.9943   51.9020 C   0  0  0  0  0  0  0  0  0  0  0  0
   68.0171   45.8788   52.0999 C   0  0  0  0  0  0  0  0  0  0  0  0
   67.6481   45.5271   53.3787 C   0  0  0  0  0  0  0  0  0  0  0  0
   68.0228   46.2636   54.4760 C   0  0  0  0  0  0  0  0  0  0  0  0
   68.8123   47.4230   54.3050 C   0  0  0  0  0  0  0  0  0  0  0  0
 15 16  1  0
 16  1  1  0
 16 17  1  0
  1  2  1  0
  2  3  2  0
  2  4  1  0
  4  5  1  0
  5  6  2  0
  5 10  1  0
  6  7  1  0
  7  8  2  0
  8  9  1  0
  9 11  1  0
  9 10  2  0
 11 12  1  0
 11 13  1  0
 11 14  1  0
 17 18  2  0
 17 27  1  0
 18 19  1  0
 19 20  2  0
 19 21  2  0
 19 22  1  0
 22 23  1  0
 22 27  2  0
 23 24  2  0
 24 25  1  0
 25 26  2  0
 26 27  1  0
M  CHG  1  18   1
M  END
>  <minimizedAffinity>  (996) 
-8.86164

$$$$
data/reference_output_2/data/smiles/178657.pdb
     RDKit          3D

 26 28  0  0  0  0  0  0  0  0999 V2000
   70.0259   45.5323   58.9047 O   0  0  0  0  0  0  0  0  0  0  0  0
   69.8722   44.6136   58.0455 C   0  0  0  0  0  0  0  0  0  0  0  0
   69.4303   45.0109   56.7767 N   0  0  0  0  0  0  0  0  0  0  0  0
   69.0945   46.6442   56.3412 S   0  0  0  0  0  0  0  0  0  0  0  0
   70.2208   47.5610   56.7188 O   0  0  0  0  0  0  0  0  0  0  0  0
   67.8360   47.1254   57.0503 O   0  0  0  0  0  0  0  0  0  0  0  0
   68.7655   46.6999   54.6293 C   0  0  0  0  0  0  0  0  0  0  0  0
   68.0128   45.6874   54.0757 C   0  0  0  0  0  0  0  0  0  0  0  0
   67.7137   45.6668   52.7312 C   0  0  0  0  0  0  0  0  0  0  0  0
   68.1693   46.6653   51.9241 C   0  0  0  0  0  0  0  0  0  0  0  0
   67.8492   46.6034   50.6018 F   0  0  0  0  0  0  0  0  0  0  0  0
   68.9155   47.6682   52.4734 C   0  0  0  0  0  0  0  0  0  0  0  0
   69.2312   47.7162   53.8156 C   0  0  0  0  0  0  0  0  0  0  0  0
   70.1692   43.2425   58.4598 C   0  0  0  0  0  0  0  0  0  0  0  0
   69.8013   42.1728   57.7883 C   0  0  0  0  0  0  0  0  0  0  0  0
   70.0816   40.7961   58.1750 C   0  0  0  0  0  0  0  0  0  0  0  0
   69.0127   39.9608   58.4377 C   0  0  0  0  0  0  0  0  0  0  0  0
   69.1772   38.6395   58.8121 C   0  0  0  0  0  0  0  0  0  0  0  0
   70.4382   38.0994   58.9376 C   0  0  0  0  0  0  0  0  0  0  0  0
   71.5179   38.9174   58.6787 C   0  0  0  0  0  0  0  0  0  0  0  0
   71.3219   40.2481   58.3036 C   0  0  0  0  0  0  0  0  0  0  0  0
   72.8545   38.5696   58.7482 O   0  0  0  0  0  0  0  0  0  0  0  0
   73.3981   37.2843   59.0717 C   0  0  0  0  0  0  0  0  0  0  0  0
   72.6130   36.2073   58.3299 C   0  0  0  0  0  0  0  0  0  0  0  0
   71.4598   35.7695   59.2013 C   0  0  0  0  0  0  0  0  0  0  0  0
   70.4615   36.7662   59.3175 O   0  0  0  0  0  0  0  0  0  0  0  0
  1  2  2  0
  2 14  1  0
  2  3  1  0
 14 15  2  0
 15 16  1  0
 16 17  2  0
 16 21  1  0
 17 18  1  0
 18 19  2  0
 19 20  1  0
 19 26  1  0
 20 21  2  0
 20 22  1  0
 22 23  1  0
 23 24  1  0
 24 25  1  0
 25 26  1  0
  3  4  1  0
  4  5  2  0
  4  6  2  0
  4  7  1  0
  7  8  2  0
  7 13  1  0
  8  9  1  0
  9 10  2  0
 10 11  1  0
 10 12  1  0
 12 13  2  0
M  END
>  <minimizedAffinity>  (997) 
-8.71955

$$$$
data/reference_output_2/data/smiles/178796.pdb
     RDKit          3D

 20 21  0  0  0  0  0  0  0  0999 V2000
   68.7553   46.4778   54.8092 N   0  0  0  0  0  0  0  0  0  0  0  0
   67.9286   45.6601   54.1224 C   0  0  0  0  0  0  0  0  0  0  0  0
   67.7867   45.8158   52.7469 C   0  0  0  0  0  0  0  0  0  0  0  0
   66.9431   44.9873   52.0226 O   0  0  0  0  0  0  0  0  0  0  0  0
   68.4895   46.8037   52.0899 C   0  0  0  0  0  0  0  0  0  0  0  0
   68.3783   46.9674   50.8357 O   0  0  0  0  0  0  0  0  0  0  0  0
   69.3369   47.6410   52.7983 C   0  0  0  0  0  0  0  0  0  0  0  0
   69.4321   47.4339   54.1558 C   0  0  0  0  0  0  0  0  0  0  0  0
   70.0949   48.6944   52.1359 C   0  0  0  0  0  0  0  0  0  0  0  0
   71.2443   48.9520   52.5403 O   0  0  0  0  0  0  0  0  0  0  0  0
   69.5726   49.4036   51.0846 O   0  0  0  0  0  0  0  0  0  0  0  0
   68.9346   46.3528   56.2474 C   0  0  0  0  0  0  0  0  0  0  0  0
   67.0504   50.7719   57.6030 C   0  0  0  0  0  0  0  0  0  0  0  0
   68.1802   49.8039   57.5631 C   0  0  0  0  0  0  0  0  0  0  0  0
   68.0120   48.5806   56.9410 C   0  0  0  0  0  0  0  0  0  0  0  0
   69.0669   47.6735   56.9016 C   0  0  0  0  0  0  0  0  0  0  0  0
   70.2630   48.0288   57.4931 C   0  0  0  0  0  0  0  0  0  0  0  0
   70.4595   49.2425   58.1199 C   0  0  0  0  0  0  0  0  0  0  0  0
   69.3919   50.1286   58.1457 C   0  0  0  0  0  0  0  0  0  0  0  0
   69.4900   51.3413   58.7373 F   0  0  0  0  0  0  0  0  0  0  0  0
 13 14  1  0
 14 15  2  0
 14 19  1  0
 15 16  1  0
 16 12  1  0
 16 17  2  0
 12  1  1  0
  1  2  1  0
  1  8  1  0
  2  3  2  0
  3  4  1  0
  3  5  1  0
  5  6  2  0
  5  7  1  0
  7  9  1  0
  7  8  2  0
  9 10  2  0
  9 11  1  0
 17 18  1  0
 18 19  2  0
 19 20  1  0
M  END
>  <minimizedAffinity>  (998) 
-8.52207

$$$$
data/reference_output_2/data/smiles/178873.pdb
     RDKit          3D

 27 29  0  0  0  0  0  0  0  0999 V2000
   69.0388   41.9385   57.0455 C   0  0  2  0  0  0  0  0  0  0  0  0
   67.5710   41.5693   56.9751 C   0  0  0  0  0  0  0  0  0  0  0  0
   67.0745   41.5000   58.3802 C   0  0  0  0  0  0  0  0  0  0  0  0
   68.2949   41.7223   59.1991 C   0  0  0  0  0  0  0  0  0  0  0  0
   68.3173   42.0003   60.4482 O   0  0  0  0  0  0  0  0  0  0  0  0
   69.4473   41.5758   58.3780 N   0  0  0  0  0  0  0  0  0  0  0  0
   70.0013   44.1042   57.4202 O   0  0  0  0  0  0  0  0  0  0  0  0
   69.1006   43.4326   56.8564 C   0  0  0  0  0  0  0  0  0  0  0  0
   68.1457   44.0999   56.0418 N   0  0  0  0  0  0  0  0  0  0  0  0
   68.1533   45.4789   55.8303 N   0  0  0  0  0  0  0  0  0  0  0  0
   68.3167   46.0319   54.5318 C   0  0  0  0  0  0  0  0  0  0  0  0
   67.7453   45.3364   53.4814 C   0  0  0  0  0  0  0  0  0  0  0  0
   67.8925   45.8540   52.2143 C   0  0  0  0  0  0  0  0  0  0  0  0
   68.5844   47.0252   52.0001 C   0  0  0  0  0  0  0  0  0  0  0  0
   69.1591   47.7250   53.0515 C   0  0  0  0  0  0  0  0  0  0  0  0
   69.0139   47.2062   54.3366 C   0  0  0  0  0  0  0  0  0  0  0  0
   71.0086   41.0622   58.9335 S   0  0  0  0  0  0  0  0  0  0  0  0
   72.0963   41.4928   57.9859 O   0  0  0  0  0  0  0  0  0  0  0  0
   71.3251   41.6412   60.2701 O   0  0  0  0  0  0  0  0  0  0  0  0
   71.0722   39.3204   59.0289 C   0  0  0  0  0  0  0  0  0  0  0  0
   70.4443   38.6219   60.0440 C   0  0  0  0  0  0  0  0  0  0  0  0
   70.4915   37.2491   60.1228 C   0  0  0  0  0  0  0  0  0  0  0  0
   71.1704   36.5044   59.1892 C   0  0  0  0  0  0  0  0  0  0  0  0
   71.2457   34.7478   59.2681 Cl  0  0  0  0  0  0  0  0  0  0  0  0
   71.7984   37.2053   58.1739 C   0  0  0  0  0  0  0  0  0  0  0  0
   72.6649   36.2707   56.9798 Cl  0  0  0  0  0  0  0  0  0  0  0  0
   71.7554   38.5782   58.0877 C   0  0  0  0  0  0  0  0  0  0  0  0
  7  8  2  0
  8  9  1  0
  1  8  1  1
  9 10  1  0
 10 11  1  0
 11 12  2  0
 11 16  1  0
 12 13  1  0
 13 14  2  0
 14 15  1  0
 15 16  2  0
  1  2  1  0
  1  6  1  0
  2  3  1  0
  3  4  1  0
  4  5  2  0
  4  6  1  0
  6 17  1  0
 17 18  2  0
 17 19  2  0
 17 20  1  0
 20 21  2  0
 20 27  1  0
 21 22  1  0
 22 23  2  0
 23 24  1  0
 23 25  1  0
 25 26  1  0
 25 27  2  0
M  END
>  <minimizedAffinity>  (999) 
-8.93029

$$$$
data/reference_output_2/data/smiles/179162.pdb
     RDKit          3D

 24 26  0  0  0  0  0  0  0  0999 V2000
   69.9772   49.4517   57.3885 C   0  0  0  0  0  0  0  0  0  0  0  0
   69.4557   50.5615   57.9812 C   0  0  0  0  0  0  0  0  0  0  0  0
   68.9438   51.5704   57.1625 C   0  0  0  0  0  0  0  0  0  0  0  0
   68.9619   51.4515   55.7892 C   0  0  0  0  0  0  0  0  0  0  0  0
   68.5353   52.2723   54.7880 N   0  0  0  0  0  0  0  0  0  0  0  0
   68.7766   51.7050   53.5929 C   0  0  0  0  0  0  0  0  0  0  0  0
   69.3689   50.4960   53.7950 C   0  0  0  0  0  0  0  0  0  0  0  0
   69.4844   50.3369   55.1713 C   0  0  0  0  0  0  0  0  0  0  0  0
   69.9847   49.3544   55.9870 C   0  0  0  0  0  0  0  0  0  0  0  0
   69.9172   49.2975   52.6582 S   0  0  0  0  0  0  0  0  0  0  0  0
   71.3825   49.0112   52.9477 O   0  0  0  0  0  0  0  0  0  0  0  0
   69.7892   49.8358   51.2585 O   0  0  0  0  0  0  0  0  0  0  0  0
   69.0463   47.8114   52.7899 C   0  0  0  0  0  0  0  0  0  0  0  0
   68.6354   47.1699   51.6402 C   0  0  0  0  0  0  0  0  0  0  0  0
   67.9270   45.9640   51.6995 C   0  0  0  0  0  0  0  0  0  0  0  0
   67.6260   45.3927   52.9192 C   0  0  0  0  0  0  0  0  0  0  0  0
   68.0476   46.0514   54.0555 C   0  0  0  0  0  0  0  0  0  0  0  0
   68.7460   47.2408   54.0085 C   0  0  0  0  0  0  0  0  0  0  0  0
   70.2315   47.0885   57.7651 C   0  0  0  0  0  0  0  0  0  0  0  0
   70.5497   48.3117   58.0858 C   0  0  0  0  0  0  0  0  0  0  0  0
   71.9799   45.5773   58.3382 O   0  0  0  0  0  0  0  0  0  0  0  0
   70.7538   45.8789   58.4072 C   0  0  0  0  0  0  0  0  0  0  0  0
   69.8797   45.0354   59.1120 N   0  0  0  0  0  0  0  0  0  0  0  0
   70.3283   43.8889   59.7304 O   0  0  0  0  0  0  0  0  0  0  0  0
 21 22  2  0
 22 19  1  0
 22 23  1  0
 19 20  2  0
 20  1  1  0
  1  2  2  0
  1  9  1  0
  2  3  1  0
  3  4  2  0
  4  5  1  0
  4  8  1  0
  5  6  1  0
  6  7  2  0
  7 10  1  0
  7  8  1  0
 10 11  2  0
 10 12  2  0
 10 13  1  0
 13 14  2  0
 13 18  1  0
 14 15  1  0
 15 16  2  0
 16 17  1  0
 17 18  2  0
  8  9  2  0
 23 24  1  0
M  END
>  <minimizedAffinity>  (1000) 
-8.81640

$$$$
data/reference_output_2/data/smiles/179177.pdb
     RDKit          3D

 29 31  0  0  0  0  0  0  0  0999 V2000
   69.8473   39.7843   58.9052 C   0  0  0  0  0  0  0  0  0  0  0  0
   68.8062   39.0757   58.3481 C   0  0  0  0  0  0  0  0  0  0  0  0
   67.9748   39.6848   57.4247 C   0  0  0  0  0  0  0  0  0  0  0  0
   68.2030   41.0187   57.0680 C   0  0  0  0  0  0  0  0  0  0  0  0
   69.2353   41.7372   57.6154 C   0  0  0  0  0  0  0  0  0  0  0  0
   70.0358   41.0899   58.5278 C   0  0  0  0  0  0  0  0  0  0  0  0
   70.8730   38.9812   60.0673 S   0  0  0  0  0  0  0  0  0  0  0  0
   72.3006   39.3051   59.8314 O   0  0  0  0  0  0  0  0  0  0  0  0
   70.4899   39.4063   61.4741 O   0  0  0  0  0  0  0  0  0  0  0  0
   69.5742   36.6075   60.7148 C   0  0  0  0  0  0  0  0  0  0  0  0
   70.5801   37.2784   59.9275 N   0  0  0  0  0  0  0  0  0  0  0  0
   71.3396   36.4749   59.0090 C   0  0  0  0  0  0  0  0  0  0  0  0
   71.9074   37.0665   57.8998 C   0  0  0  0  0  0  0  0  0  0  0  0
   72.6256   36.2675   57.0458 C   0  0  0  0  0  0  0  0  0  0  0  0
   72.7647   34.9160   57.3034 C   0  0  0  0  0  0  0  0  0  0  0  0
   72.1857   34.3478   58.4222 C   0  0  0  0  0  0  0  0  0  0  0  0
   71.4592   35.1288   59.2953 C   0  0  0  0  0  0  0  0  0  0  0  0
   69.4413   43.1190   57.2212 C   0  0  0  0  0  0  0  0  0  0  0  0
   70.5708   43.6681   57.4596 O   0  0  0  0  0  0  0  0  0  0  0  0
   68.4824   43.9329   56.5821 N   0  0  0  0  0  0  0  0  0  0  0  0
   68.7482   45.2755   56.2238 N   0  0  0  0  0  0  0  0  0  0  0  0
   68.4694   45.7780   54.9362 C   0  0  0  0  0  0  0  0  0  0  0  0
   67.9722   44.9989   54.0983 O   0  0  0  0  0  0  0  0  0  0  0  0
   68.7306   47.1623   54.5283 C   0  0  0  0  0  0  0  0  0  0  0  0
   68.9050   47.5291   53.2089 C   0  0  0  0  0  0  0  0  0  0  0  0
   69.1536   48.8492   52.8352 C   0  0  0  0  0  0  0  0  0  0  0  0
   69.2285   49.8265   53.8019 C   0  0  0  0  0  0  0  0  0  0  0  0
   69.0593   49.4973   55.1271 C   0  0  0  0  0  0  0  0  0  0  0  0
   68.8159   48.1804   55.4563 C   0  0  0  0  0  0  0  0  0  0  0  0
 10 11  1  0
 11 12  1  0
 11  7  1  0
 12 13  2  0
 12 17  1  0
 13 14  1  0
 14 15  2  0
 15 16  1  0
 16 17  2  0
  7  8  2  0
  7  9  2  0
  7  1  1  0
  1  2  2  0
  1  6  1  0
  2  3  1  0
  3  4  2  0
  4  5  1  0
  5 18  1  0
  5  6  2  0
 18 19  2  0
 18 20  1  0
 20 21  1  0
 21 22  1  0
 22 23  2  0
 22 24  1  0
 24 25  2  0
 24 29  1  0
 25 26  1  0
 26 27  2  0
 27 28  1  0
 28 29  2  0
M  END
>  <minimizedAffinity>  (1001) 
-8.72147

$$$$
data/reference_output_2/data/smiles/179187.pdb
     RDKit          3D

 23 25  0  0  0  0  0  0  0  0999 V2000
   69.9328   48.2700   53.9780 C   0  0  0  0  0  0  0  0  0  0  0  0
   68.1340   46.5726   53.6914 C   0  0  0  0  0  0  0  0  0  0  0  0
   67.3374   45.8815   52.8252 N   0  0  0  0  0  0  0  0  0  0  0  0
   67.4143   45.9983   51.5092 C   0  0  0  0  0  0  0  0  0  0  0  0
   66.6539   45.3382   50.7192 O   0  0  0  0  0  0  0  0  0  0  0  0
   68.3224   46.8416   50.9920 N   0  0  0  0  0  0  0  0  0  0  0  0
   69.1344   47.5507   51.7913 C   0  0  0  0  0  0  0  0  0  0  0  0
   69.9578   48.3180   51.2218 O   0  0  0  0  0  0  0  0  0  0  0  0
   69.0593   47.4344   53.1609 C   0  0  0  0  0  0  0  0  0  0  0  0
   67.4722   47.1557   55.8666 O   0  0  0  0  0  0  0  0  0  0  0  0
   67.9553   46.3212   55.0889 C   0  0  0  0  0  0  0  0  0  0  0  0
   68.3257   45.1062   55.6321 O   0  0  0  0  0  0  0  0  0  0  0  0
   69.5542   49.7559   53.9396 C   0  0  0  0  0  0  0  0  0  0  0  0
   70.7185   50.6101   54.3203 C   0  0  0  0  0  0  0  0  0  0  0  0
   71.9767   50.2620   53.9839 N   0  0  0  0  0  0  0  0  0  0  0  0
   73.0399   50.9916   54.3523 C   0  0  0  0  0  0  0  0  0  0  0  0
   72.9305   52.1444   55.0977 C   0  0  0  0  0  0  0  0  0  0  0  0
   71.6564   52.5418   55.4671 C   0  0  0  0  0  0  0  0  0  0  0  0
   71.5126   53.7066   56.2095 C   0  0  0  0  0  0  0  0  0  0  0  0
   70.2345   54.0821   56.5493 C   0  0  0  0  0  0  0  0  0  0  0  0
   69.1500   53.3270   56.1624 C   0  0  0  0  0  0  0  0  0  0  0  0
   69.3039   52.1755   55.4287 C   0  0  0  0  0  0  0  0  0  0  0  0
   70.5711   51.7647   55.0694 C   0  0  0  0  0  0  0  0  0  0  0  0
 10 11  2  0
 11 12  1  0
 11  2  1  0
  2  3  1  0
  2  9  2  0
  3  4  1  0
  4  5  2  0
  4  6  1  0
  6  7  1  0
  7  8  2  0
  7  9  1  0
  9  1  1  0
  1 13  1  0
 13 14  1  0
 14 15  2  0
 14 23  1  0
 15 16  1  0
 16 17  2  0
 17 18  1  0
 18 19  1  0
 18 23  2  0
 19 20  2  0
 20 21  1  0
 21 22  2  0
 22 23  1  0
M  END
>  <minimizedAffinity>  (1002) 
-8.64750

$$$$
data/reference_output_2/data/smiles/179198.pdb
     RDKit          3D

 22 24  0  0  0  0  0  0  0  0999 V2000
   68.2019   45.3547   55.3264 C   0  0  0  0  0  0  0  0  0  0  0  0
   68.6313   45.8982   56.4801 N   0  0  0  0  0  0  0  0  0  0  0  0
   69.2650   47.0924   56.4854 C   0  0  0  0  0  0  0  0  0  0  0  0
   69.4784   47.7529   55.3486 N   0  0  0  0  0  0  0  0  0  0  0  0
   69.0820   47.2803   54.1550 C   0  0  0  0  0  0  0  0  0  0  0  0
   69.3270   48.0116   53.0123 C   0  0  0  0  0  0  0  0  0  0  0  0
   68.8949   47.4778   51.8180 C   0  0  0  0  0  0  0  0  0  0  0  0
   68.2372   46.2452   51.7868 C   0  0  0  0  0  0  0  0  0  0  0  0
   68.0108   45.5445   52.9502 C   0  0  0  0  0  0  0  0  0  0  0  0
   68.4280   46.0487   54.1547 C   0  0  0  0  0  0  0  0  0  0  0  0
   70.0199   49.2941   53.0825 C   0  0  0  0  0  0  0  0  0  0  0  0
   69.3480   50.5294   53.1733 N   0  0  0  0  0  0  0  0  0  0  0  0
   71.2793   49.3146   53.0620 O   0  0  0  0  0  0  0  0  0  0  0  0
   67.5309   44.1035   55.2988 N   0  0  0  0  0  0  0  0  0  0  0  0
   69.7994   42.0909   57.4788 C   0  0  0  0  0  0  0  0  0  0  0  0
   69.0159   40.9811   57.7400 C   0  0  0  0  0  0  0  0  0  0  0  0
   67.7386   40.8990   57.1902 C   0  0  0  0  0  0  0  0  0  0  0  0
   67.2644   41.9205   56.3935 C   0  0  0  0  0  0  0  0  0  0  0  0
   68.0341   43.0557   56.1110 C   0  0  0  0  0  0  0  0  0  0  0  0
   69.2917   43.1056   56.6697 C   0  0  0  0  0  0  0  0  0  0  0  0
   72.2269   42.3343   58.4741 C   0  0  0  0  0  0  0  0  0  0  0  0
   71.1184   42.2176   58.0275 C   0  0  0  0  0  0  0  0  0  0  0  0
 21 22  3  0
 22 15  1  0
 15 16  2  0
 15 20  1  0
 16 17  1  0
 17 18  2  0
 18 19  1  0
 19 14  1  0
 19 20  2  0
 14  1  1  0
  1  2  2  0
  1 10  1  0
  2  3  1  0
  3  4  2  0
  4  5  1  0
  5  6  1  0
  5 10  2  0
  6 11  1  0
  6  7  2  0
 11 12  1  0
 11 13  2  0
  7  8  1  0
  8  9  2  0
  9 10  1  0
M  END
>  <minimizedAffinity>  (1003) 
-8.68212

$$$$
data/reference_output_2/data/smiles/179208.pdb
     RDKit          3D

 29 32  0  0  0  0  0  0  0  0999 V2000
   69.7700   44.5748   57.2419 C   0  0  0  0  0  0  0  0  0  0  0  0
   70.7912   45.2126   57.8651 C   0  0  0  0  0  0  0  0  0  0  0  0
   71.8180   44.8798   58.6857 C   0  0  0  0  0  0  0  0  0  0  0  0
   71.7951   43.2656   58.9871 C   0  0  0  0  0  0  0  0  0  0  0  0
   72.7472   42.9299   59.7737 F   0  0  0  0  0  0  0  0  0  0  0  0
   70.8426   43.1463   58.3137 C   0  0  0  0  0  0  0  0  0  0  0  0
   69.7672   43.0131   57.5536 C   0  0  0  0  0  0  0  0  0  0  0  0
   68.9010   42.3196   57.0604 F   0  0  0  0  0  0  0  0  0  0  0  0
   70.9402   41.3387   58.4928 C   0  0  0  0  0  0  0  0  0  0  0  0
   71.0125   40.2168   58.5888 C   0  0  0  0  0  0  0  0  0  0  0  0
   71.0924   38.8342   58.6891 C   0  0  0  0  0  0  0  0  0  0  0  0
   70.3192   38.1201   59.5860 C   0  0  0  0  0  0  0  0  0  0  0  0
   70.4022   36.7926   59.6804 N   0  0  0  0  0  0  0  0  0  0  0  0
   71.2410   36.0939   58.9042 C   0  0  0  0  0  0  0  0  0  0  0  0
   71.5030   34.7567   58.8156 N   0  0  0  0  0  0  0  0  0  0  0  0
   72.4209   34.5654   57.8912 N   0  0  0  0  0  0  0  0  0  0  0  0
   72.7704   35.7735   57.3657 C   0  0  0  0  0  0  0  0  0  0  0  0
   72.0343   36.7486   57.9941 C   0  0  0  0  0  0  0  0  0  0  0  0
   71.9616   38.1062   57.8855 C   0  0  0  0  0  0  0  0  0  0  0  0
   68.8052   44.9672   56.3984 N   0  0  0  0  0  0  0  0  0  0  0  0
   67.4636   47.2802   56.5522 O   0  0  0  0  0  0  0  0  0  0  0  0
   68.6403   46.6547   55.9137 S   0  0  0  0  0  0  0  0  0  0  0  0
   69.9010   47.3549   56.2948 O   0  0  0  0  0  0  0  0  0  0  0  0
   68.5267   46.6581   54.1717 C   0  0  0  0  0  0  0  0  0  0  0  0
   67.7678   45.6895   53.5253 C   0  0  0  0  0  0  0  0  0  0  0  0
   67.6506   45.7061   52.1573 C   0  0  0  0  0  0  0  0  0  0  0  0
   68.3041   46.7076   51.4371 C   0  0  0  0  0  0  0  0  0  0  0  0
   69.0224   47.6155   52.1116 N   0  0  0  0  0  0  0  0  0  0  0  0
   69.1615   47.6324   53.4514 C   0  0  0  0  0  0  0  0  0  0  0  0
 21 22  2  0
 22 23  2  0
 22 20  1  0
 22 24  1  0
 20  1  1  0
  1  2  2  0
  1  7  1  0
  2  3  1  0
  3  4  2  0
  4  5  1  0
  4  6  1  0
  6  9  1  0
  6  7  2  0
  9 10  3  0
 10 11  1  0
 11 12  2  0
 11 19  1  0
 12 13  1  0
 13 14  2  0
 14 15  1  0
 14 18  1  0
 15 16  1  0
 16 17  2  0
 17 18  1  0
 18 19  2  0
  7  8  1  0
 24 25  2  0
 24 29  1  0
 25 26  1  0
 26 27  2  0
 27 28  1  0
 28 29  2  0
M  END
>  <minimizedAffinity>  (1004) 
-9.56064

$$$$
data/reference_output_2/data/smiles/179256.pdb
     RDKit          3D

 33 36  0  0  0  0  0  0  0  0999 V2000
   65.6451   40.0290   60.8842 C   0  0  0  0  0  0  0  0  0  0  0  0
   66.4841   40.4965   59.9645 C   0  0  0  0  0  0  0  0  0  0  0  0
   67.0534   39.6138   59.1238 N   0  0  0  0  0  0  0  0  0  0  0  0
   67.9036   40.0891   58.1922 C   0  0  0  0  0  0  0  0  0  0  0  0
   68.4480   39.2932   57.3976 O   0  0  0  0  0  0  0  0  0  0  0  0
   68.2085   41.4339   58.0706 C   0  0  0  0  0  0  0  0  0  0  0  0
   69.0369   41.9181   57.1668 C   0  0  0  0  0  0  0  0  0  0  0  0
   67.6341   42.3119   58.9158 N   0  0  0  0  0  0  0  0  0  0  0  0
   66.7838   41.8464   59.8493 C   0  0  0  0  0  0  0  0  0  0  0  0
   66.2513   42.6793   60.6370 O   0  0  0  0  0  0  0  0  0  0  0  0
   69.3125   43.3519   57.0955 C   0  0  0  0  0  0  0  0  0  0  0  0
   70.3163   43.9154   57.8572 C   0  0  0  0  0  0  0  0  0  0  0  0
   70.5777   45.2785   57.7876 C   0  0  0  0  0  0  0  0  0  0  0  0
   69.8516   46.1097   56.9638 C   0  0  0  0  0  0  0  0  0  0  0  0
   68.8281   45.5616   56.1802 C   0  0  0  0  0  0  0  0  0  0  0  0
   68.6019   44.2080   56.2786 C   0  0  0  0  0  0  0  0  0  0  0  0
   68.0970   46.4098   55.3478 O   0  0  0  0  0  0  0  0  0  0  0  0
   68.5504   46.8952   54.1361 C   0  0  0  0  0  0  0  0  0  0  0  0
   69.3039   48.0499   54.0276 C   0  0  0  0  0  0  0  0  0  0  0  0
   69.7299   48.4895   52.7967 C   0  0  0  0  0  0  0  0  0  0  0  0
   69.4326   47.8127   51.6225 C   0  0  0  0  0  0  0  0  0  0  0  0
   68.6852   46.6676   51.7208 C   0  0  0  0  0  0  0  0  0  0  0  0
   68.2485   46.2135   52.9678 C   0  0  0  0  0  0  0  0  0  0  0  0
   67.5089   45.0912   53.0601 F   0  0  0  0  0  0  0  0  0  0  0  0
   65.9424   37.7011   61.7938 C   0  0  0  0  0  0  0  0  0  0  0  0
   65.3935   36.5021   61.5460 N   0  0  0  0  0  0  0  0  0  0  0  0
   64.4798   36.6287   60.5822 C   0  0  0  0  0  0  0  0  0  0  0  0
   64.4677   37.9368   60.2297 N   0  0  0  0  0  0  0  0  0  0  0  0
   65.3625   38.6116   60.9659 C   0  0  0  0  0  0  0  0  0  0  0  0
   67.0944   36.8036   63.7296 C   0  0  0  0  0  0  0  0  0  0  0  0
   66.9845   37.9767   62.7832 C   0  0  0  0  0  0  0  0  0  0  0  0
   68.3493   38.1809   62.1652 C   0  0  0  0  0  0  0  0  0  0  0  0
   66.5698   39.1829   63.6118 C   0  0  0  0  0  0  0  0  0  0  0  0
 30 31  1  0
 31 32  1  0
 31 33  1  0
 31 25  1  0
 25 26  1  0
 25 29  2  0
 26 27  1  0
 27 28  2  0
 28 29  1  0
 29  1  1  0
  1  2  2  0
  2  3  1  0
  2  9  1  0
  3  4  1  0
  4  5  2  0
  4  6  1  0
  6  7  2  0
  6  8  1  0
  7 11  1  0
 11 12  2  0
 11 16  1  0
 12 13  1  0
 13 14  2  0
 14 15  1  0
 15 17  1  0
 15 16  2  0
 17 18  1  0
 18 19  2  0
 18 23  1  0
 19 20  1  0
 20 21  2  0
 21 22  1  0
 22 23  2  0
 23 24  1  0
  8  9  1  0
  9 10  2  0
M  CHG  1  28   1
M  END
>  <minimizedAffinity>  (1005) 
-9.42064

$$$$
data/reference_output_2/data/smiles/179306.pdb
     RDKit          3D

 31 35  0  0  0  0  0  0  0  0999 V2000
   71.4040   44.6432   57.6597 N   0  0  0  0  0  0  0  0  0  0  0  0
   70.7441   45.7084   58.3305 C   0  0  0  0  0  0  0  0  0  0  0  0
   69.7818   45.3617   59.0965 O   0  0  0  0  0  0  0  0  0  0  0  0
   67.5344   40.9382   56.0793 C   0  0  0  0  0  0  0  0  0  0  0  0
   68.0297   40.8111   57.5000 C   0  0  1  0  0  0  0  0  0  0  0  0
   68.2947   39.4029   57.8917 C   0  0  0  0  0  0  0  0  0  0  0  0
   67.5305   38.4190   57.8493 O   0  0  0  0  0  0  0  0  0  0  0  0
   69.6359   39.3422   58.3508 N   0  0  0  0  0  0  0  0  0  0  0  0
   70.5061   38.2714   58.8752 C   0  0  0  0  0  0  0  0  0  0  0  0
   71.9551   38.6260   58.5568 C   0  0  0  0  0  0  0  0  0  0  0  0
   72.3640   39.9647   59.1157 C   0  0  0  0  0  0  0  0  0  0  0  0
   71.4642   41.0046   58.5623 C   0  0  0  0  0  0  0  0  0  0  0  0
   71.8606   42.3398   58.3708 C   0  0  0  0  0  0  0  0  0  0  0  0
   70.9953   43.2791   57.8644 C   0  0  0  0  0  0  0  0  0  0  0  0
   69.7149   42.8673   57.5474 C   0  0  0  0  0  0  0  0  0  0  0  0
   69.2997   41.5456   57.7290 C   0  0  0  0  0  0  0  0  0  0  0  0
   70.1867   40.6444   58.2325 C   0  0  0  0  0  0  0  0  0  0  0  0
   71.0899   47.1102   58.2010 C   0  0  0  0  0  0  0  0  0  0  0  0
   72.0552   47.5973   58.8340 O   0  0  0  0  0  0  0  0  0  0  0  0
   70.3499   48.0000   57.3498 N   0  0  0  0  0  0  0  0  0  0  0  0
   70.6521   49.3808   57.2094 C   0  0  0  0  0  0  0  0  0  0  0  0
   69.9241   50.0464   56.1106 C   0  0  0  0  0  0  0  0  0  0  0  0
   70.0540   49.4762   54.7682 C   0  0  0  0  0  0  0  0  0  0  0  0
   70.8951   50.0410   53.8062 C   0  0  0  0  0  0  0  0  0  0  0  0
   70.7491   49.3305   52.6725 N   0  0  0  0  0  0  0  0  0  0  0  0
   69.8601   48.3427   52.8646 C   0  0  0  0  0  0  0  0  0  0  0  0
   69.4193   47.3715   51.9958 C   0  0  0  0  0  0  0  0  0  0  0  0
   68.4969   46.4270   52.4390 C   0  0  0  0  0  0  0  0  0  0  0  0
   68.0495   46.4967   53.7462 C   0  0  0  0  0  0  0  0  0  0  0  0
   68.5133   47.4745   54.5648 C   0  0  0  0  0  0  0  0  0  0  0  0
   69.4234   48.4331   54.1815 C   0  0  0  0  0  0  0  0  0  0  0  0
  5  4  1  6
  5  6  1  0
  5 16  1  0
  6  7  2  0
  6  8  1  0
  8  9  1  0
  8 17  1  0
  9 10  1  0
 10 11  1  0
 11 12  1  0
 12 13  1  0
 12 17  2  0
 13 14  2  0
 14  1  1  0
 14 15  1  0
  1  2  1  0
  2  3  2  0
  2 18  1  0
 18 19  2  0
 18 20  1  0
 20 21  1  0
 21 22  1  0
 22 23  1  0
 23 24  2  0
 23 31  1  0
 24 25  1  0
 25 26  1  0
 26 27  1  0
 26 31  2  0
 27 28  2  0
 28 29  1  0
 29 30  2  0
 30 31  1  0
 15 16  2  0
 16 17  1  0
M  END
>  <minimizedAffinity>  (1006) 
-9.34638

$$$$
data/reference_output_2/data/smiles/179318.pdb
     RDKit          3D

 26 28  0  0  0  0  0  0  0  0999 V2000
   68.0926   42.5272   56.4493 C   0  0  0  0  0  0  0  0  0  0  0  0
   68.3227   42.0726   57.8260 C   0  0  0  0  0  0  0  0  0  0  0  0
   67.4042   42.1688   58.6672 O   0  0  0  0  0  0  0  0  0  0  0  0
   69.5660   41.4989   58.2227 N   0  0  0  0  0  0  0  0  0  0  0  0
   69.6257   40.1591   58.8390 C   0  0  0  0  0  0  0  0  0  0  0  0
   71.0604   39.9566   59.3710 C   0  0  0  0  0  0  0  0  0  0  0  0
   71.9749   40.2964   58.2473 O   0  0  0  0  0  0  0  0  0  0  0  0
   71.9700   41.7030   58.0612 C   0  0  0  0  0  0  0  0  0  0  0  0
   73.0693   42.4843   57.8855 C   0  0  0  0  0  0  0  0  0  0  0  0
   73.0144   43.9592   57.7207 C   0  0  0  0  0  0  0  0  0  0  0  0
   71.7726   44.3822   57.7936 C   0  0  0  0  0  0  0  0  0  0  0  0
   70.5850   43.7296   57.9057 C   0  0  0  0  0  0  0  0  0  0  0  0
   70.7346   42.2639   58.0342 C   0  0  0  0  0  0  0  0  0  0  0  0
   71.5410   46.1789   58.5687 S   0  0  0  0  0  0  0  0  0  0  0  0
   71.3322   45.5759   60.1297 O   0  0  0  0  0  0  0  0  0  0  0  0
   72.5653   46.8368   58.5826 O   0  0  0  0  0  0  0  0  0  0  0  0
   69.8436   46.2198   58.1610 N   0  0  0  0  0  0  0  0  0  0  0  0
   69.5901   47.4236   57.5981 C   0  0  0  0  0  0  0  0  0  0  0  0
   68.6818   47.2593   56.3827 C   0  0  0  0  0  0  0  0  0  0  0  0
   68.7535   47.0228   55.0577 C   0  0  0  0  0  0  0  0  0  0  0  0
   68.1200   45.9584   54.5246 C   0  0  0  0  0  0  0  0  0  0  0  0
   67.9196   45.6428   53.2578 C   0  0  0  0  0  0  0  0  0  0  0  0
   68.4941   46.5755   52.3452 C   0  0  0  0  0  0  0  0  0  0  0  0
   69.1983   47.6786   52.8057 C   0  0  0  0  0  0  0  0  0  0  0  0
   69.9739   48.4292   51.7822 C   0  0  0  0  0  0  0  0  0  0  0  0
   69.3662   47.9588   54.1507 C   0  0  0  0  0  0  0  0  0  0  0  0
  1  2  1  0
  2  3  2  0
  2  4  1  0
  4  5  1  0
  4 13  1  0
  5  6  1  0
  6  7  1  0
  7  8  1  0
  8  9  1  0
  8 13  2  0
  9 10  2  0
 10 11  1  0
 11 14  1  0
 11 12  2  0
 14 15  2  0
 14 16  2  0
 14 17  1  0
 17 18  1  0
 18 19  1  0
 19 20  1  0
 20 21  2  0
 20 26  1  0
 21 22  1  0
 22 23  2  0
 23 24  1  0
 24 25  1  0
 24 26  2  0
 12 13  1  0
M  END
>  <minimizedAffinity>  (1007) 
-8.52839

$$$$
data/reference_output_2/data/smiles/179424.pdb
     RDKit          3D

 27 29  0  0  0  0  0  0  0  0999 V2000
   74.2128   51.8049   54.9117 C   0  0  0  0  0  0  0  0  0  0  0  0
   73.9349   50.0922   53.3545 O   0  0  0  0  0  0  0  0  0  0  0  0
   73.3724   50.8398   54.1864 C   0  0  0  0  0  0  0  0  0  0  0  0
   71.9793   50.7141   54.3789 N   0  0  0  0  0  0  0  0  0  0  0  0
   71.2904   49.7496   53.6195 N   0  0  0  0  0  0  0  0  0  0  0  0
   70.2034   49.0219   54.1319 C   0  0  0  0  0  0  0  0  0  0  0  0
   69.9024   49.3202   55.3505 O   0  0  0  0  0  0  0  0  0  0  0  0
   69.4080   48.0109   53.4779 C   0  0  0  0  0  0  0  0  0  0  0  0
   68.5325   47.2047   54.2160 C   0  0  0  0  0  0  0  0  0  0  0  0
   67.7579   46.2298   53.6368 C   0  0  0  0  0  0  0  0  0  0  0  0
   67.7990   45.9907   52.2825 C   0  0  0  0  0  0  0  0  0  0  0  0
   68.6480   46.7656   51.5351 C   0  0  0  0  0  0  0  0  0  0  0  0
   69.4407   47.7643   52.1364 C   0  0  0  0  0  0  0  0  0  0  0  0
   70.2508   48.4819   51.3144 F   0  0  0  0  0  0  0  0  0  0  0  0
   74.7523   51.3199   56.0988 O   0  0  0  0  0  0  0  0  0  0  0  0
   75.3329   50.0805   56.2970 C   0  0  0  0  0  0  0  0  0  0  0  0
   76.3274   49.7742   55.5984 O   0  0  0  0  0  0  0  0  0  0  0  0
   74.8357   49.1065   57.2935 C   0  0  1  0  0  0  0  0  0  0  0  0
   75.9196   48.2546   57.8963 C   0  0  0  0  0  0  0  0  0  0  0  0
   76.5444   48.8652   59.1241 C   0  0  2  0  0  0  0  0  0  0  0  0
   75.9890   48.3157   60.3880 C   0  0  0  0  0  0  0  0  0  0  0  0
   74.9426   49.0697   61.0857 C   0  0  0  0  0  0  0  0  0  0  0  0
   74.7003   50.4895   60.6946 C   0  0  0  0  0  0  0  0  0  0  0  0
   74.9329   50.7480   59.2210 C   0  0  2  0  0  0  0  0  0  0  0  0
   74.0993   49.8337   58.3856 C   0  0  0  0  0  0  0  0  0  0  0  0
   76.3770   50.3472   59.0188 C   0  0  0  0  0  0  0  0  0  0  0  0
   77.2645   51.1241   58.8032 O   0  0  0  0  0  0  0  0  0  0  0  0
  2  3  2  0
  3  1  1  0
  3  4  1  0
  1 15  1  0
 15 16  1  0
 16 17  2  0
 18 16  1  6
 18 19  1  0
 18 25  1  0
 20 19  1  6
 20 21  1  0
 20 26  1  0
 21 22  1  0
 22 23  1  0
 24 23  1  1
 24 25  1  0
 24 26  1  0
 26 27  2  0
  4  5  1  0
  5  6  1  0
  6  7  2  0
  6  8  1  0
  8  9  2  0
  8 13  1  0
  9 10  1  0
 10 11  2  0
 11 12  1  0
 12 13  2  0
 13 14  1  0
M  END
>  <minimizedAffinity>  (1008) 
-8.57264

$$$$
data/reference_output_2/data/smiles/179652.pdb
     RDKit          3D

 26 28  0  0  0  0  0  0  0  0999 V2000
   70.4649   43.7091   57.3494 N   0  0  0  0  0  0  0  0  0  0  0  0
   70.3675   44.7786   58.2806 C   0  0  0  0  0  0  0  0  0  0  0  0
   69.7145   44.5457   59.3297 O   0  0  0  0  0  0  0  0  0  0  0  0
   68.4971   40.0362   58.0431 C   0  0  0  0  0  0  0  0  0  0  0  0
   69.7634   40.2572   58.5441 C   0  0  0  0  0  0  0  0  0  0  0  0
   70.4262   41.4489   58.3310 C   0  0  0  0  0  0  0  0  0  0  0  0
   69.8572   42.4690   57.6107 C   0  0  0  0  0  0  0  0  0  0  0  0
   68.5877   42.2448   57.1092 C   0  0  0  0  0  0  0  0  0  0  0  0
   67.9183   41.0569   57.3178 C   0  0  0  0  0  0  0  0  0  0  0  0
   66.2640   37.3045   59.6254 C   0  0  0  0  0  0  0  0  0  0  0  0
   67.0029   38.5636   59.4071 C   0  0  0  0  0  0  0  0  0  0  0  0
   66.9431   39.4548   60.2787 O   0  0  0  0  0  0  0  0  0  0  0  0
   67.7875   38.8187   58.2459 N   0  0  0  0  0  0  0  0  0  0  0  0
   71.0079   46.1087   58.0236 C   0  0  0  0  0  0  0  0  0  0  0  0
   70.0760   47.1405   57.9758 O   0  0  0  0  0  0  0  0  0  0  0  0
   69.4733   47.6363   56.8548 C   0  0  0  0  0  0  0  0  0  0  0  0
   69.4350   48.8812   56.6971 O   0  0  0  0  0  0  0  0  0  0  0  0
   68.8779   46.7672   55.8460 C   0  0  0  0  0  0  0  0  0  0  0  0
   68.2239   45.6085   56.0427 N   0  0  0  0  0  0  0  0  0  0  0  0
   67.8257   45.1021   54.8870 N   0  0  0  0  0  0  0  0  0  0  0  0
   68.2068   45.9150   53.8776 C   0  0  0  0  0  0  0  0  0  0  0  0
   68.0657   45.8838   52.5119 C   0  0  0  0  0  0  0  0  0  0  0  0
   68.5879   46.9013   51.7502 C   0  0  0  0  0  0  0  0  0  0  0  0
   69.2488   47.9514   52.3242 C   0  0  0  0  0  0  0  0  0  0  0  0
   69.3917   47.9867   53.6861 C   0  0  0  0  0  0  0  0  0  0  0  0
   68.8760   46.9745   54.4817 C   0  0  0  0  0  0  0  0  0  0  0  0
 10 11  1  0
 11 12  2  0
 11 13  1  0
 13  4  1  0
  4  5  2  0
  4  9  1  0
  5  6  1  0
  6  7  2  0
  7  1  1  0
  7  8  1  0
  1  2  1  0
  2  3  2  0
  2 14  1  0
 14 15  1  0
 15 16  1  0
 16 17  2  0
 16 18  1  0
 18 19  1  0
 18 26  2  0
 19 20  1  0
 20 21  2  0
 21 22  1  0
 21 26  1  0
 22 23  2  0
 23 24  1  0
 24 25  2  0
 25 26  1  0
  8  9  2  0
M  END
>  <minimizedAffinity>  (1009) 
-8.59553

$$$$
data/reference_output_2/data/smiles/179656.pdb
     RDKit          3D

 24 27  0  0  0  0  0  0  0  0999 V2000
   69.8891   47.2392   51.0058 O   0  0  0  0  0  0  0  0  0  0  0  0
   69.7833   48.3185   51.6089 C   0  0  0  0  0  0  0  0  0  0  0  0
   70.0238   49.5625   51.0784 N   0  0  0  0  0  0  0  0  0  0  0  0
   69.8118   50.4862   52.0316 N   0  0  0  0  0  0  0  0  0  0  0  0
   69.4473   49.8583   53.1395 C   0  0  0  0  0  0  0  0  0  0  0  0
   69.4296   48.5210   52.8680 N   0  0  0  0  0  0  0  0  0  0  0  0
   69.0628   47.4930   53.7911 C   0  0  0  0  0  0  0  0  0  0  0  0
   68.5523   46.4066   53.1196 C   0  0  0  0  0  0  0  0  0  0  0  0
   68.1575   45.3146   53.8932 C   0  0  0  0  0  0  0  0  0  0  0  0
   68.2434   45.2555   55.2526 C   0  0  0  0  0  0  0  0  0  0  0  0
   68.7693   46.3918   55.8806 C   0  0  0  0  0  0  0  0  0  0  0  0
   69.1803   47.5093   55.1800 C   0  0  0  0  0  0  0  0  0  0  0  0
   69.6565   48.5582   56.1198 C   0  0  0  0  0  0  0  0  0  0  0  0
   70.1451   49.7689   55.4637 C   0  0  0  0  0  0  0  0  0  0  0  0
   69.1645   50.4434   54.5015 C   0  0  0  0  0  0  0  0  0  0  0  0
   67.8773   44.2289   56.0587 O   0  0  0  0  0  0  0  0  0  0  0  0
   67.6710   42.9010   55.8708 C   0  0  0  0  0  0  0  0  0  0  0  0
   68.3769   41.9451   56.7548 C   0  0  0  0  0  0  0  0  0  0  0  0
   69.5662   42.1910   57.3882 C   0  0  0  0  0  0  0  0  0  0  0  0
   70.2168   41.2862   58.1991 C   0  0  0  0  0  0  0  0  0  0  0  0
   69.6338   40.0506   58.3858 C   0  0  0  0  0  0  0  0  0  0  0  0
   68.4358   39.7609   57.7675 C   0  0  0  0  0  0  0  0  0  0  0  0
   67.8981   38.5280   57.9828 F   0  0  0  0  0  0  0  0  0  0  0  0
   67.8060   40.6830   56.9618 C   0  0  0  0  0  0  0  0  0  0  0  0
  1  2  2  0
  2  3  1  0
  2  6  1  0
  3  4  1  0
  4  5  2  0
  5  6  1  0
  5 15  1  0
  6  7  1  0
  7  8  2  0
  7 12  1  0
  8  9  1  0
  9 10  2  0
 10 16  1  0
 10 11  1  0
 16 17  1  0
 17 18  1  0
 18 19  2  0
 18 24  1  0
 19 20  1  0
 20 21  2  0
 21 22  1  0
 22 23  1  0
 22 24  2  0
 11 12  2  0
 12 13  1  0
 13 14  1  0
 14 15  1  0
M  END
>  <minimizedAffinity>  (1010) 
-9.83943

$$$$
data/reference_output_2/data/smiles/179840.pdb
     RDKit          3D

 28 31  0  0  0  0  0  0  0  0999 V2000
   70.5233   44.2511   58.7151 C   0  0  2  0  0  0  0  0  0  0  0  0
   69.4395   44.0743   59.5344 O   0  0  0  0  0  0  0  0  0  0  0  0
   70.7278   43.1274   57.7388 C   0  0  0  0  0  0  0  0  0  0  0  0
   72.0413   42.4630   58.0557 C   0  0  0  0  0  0  0  0  0  0  0  0
   72.7983   43.5015   58.7263 N   0  0  0  0  0  0  0  0  0  0  0  0
   71.8303   44.2699   59.4268 C   0  0  0  0  0  0  0  0  0  0  0  0
   72.1160   44.8717   60.5204 O   0  0  0  0  0  0  0  0  0  0  0  0
   74.2145   43.6760   58.6654 C   0  0  0  0  0  0  0  0  0  0  0  0
   74.7899   44.9108   58.8767 C   0  0  0  0  0  0  0  0  0  0  0  0
   76.1438   45.0895   58.8226 N   0  0  0  0  0  0  0  0  0  0  0  0
   76.9945   44.0786   58.5622 C   0  0  0  0  0  0  0  0  0  0  0  0
   78.3374   44.0279   58.4639 N   0  0  0  0  0  0  0  0  0  0  0  0
   78.6974   42.7721   58.1864 C   0  0  0  0  0  0  0  0  0  0  0  0
   77.5482   42.0160   58.1102 C   0  0  0  0  0  0  0  0  0  0  0  0
   76.4555   42.8274   58.3462 C   0  0  0  0  0  0  0  0  0  0  0  0
   75.0811   42.6385   58.3988 C   0  0  0  0  0  0  0  0  0  0  0  0
   71.4575   46.3247   58.0482 O   0  0  0  0  0  0  0  0  0  0  0  0
   70.4520   45.5730   57.9867 C   0  0  0  0  0  0  0  0  0  0  0  0
   69.3262   45.9715   57.2652 N   0  0  0  0  0  0  0  0  0  0  0  0
   69.2066   47.2231   56.5557 C   0  0  0  0  0  0  0  0  0  0  0  0
   68.9126   47.0313   55.1292 C   0  0  0  0  0  0  0  0  0  0  0  0
   68.1892   45.9910   54.5913 C   0  0  0  0  0  0  0  0  0  0  0  0
   67.9573   45.8737   53.2228 C   0  0  0  0  0  0  0  0  0  0  0  0
   67.2387   44.8344   52.7292 F   0  0  0  0  0  0  0  0  0  0  0  0
   68.4517   46.8095   52.3479 C   0  0  0  0  0  0  0  0  0  0  0  0
   69.1782   47.8593   52.8570 C   0  0  0  0  0  0  0  0  0  0  0  0
   69.8230   49.0719   51.7517 Cl  0  0  0  0  0  0  0  0  0  0  0  0
   69.4031   47.9672   54.2090 C   0  0  0  0  0  0  0  0  0  0  0  0
 17 18  2  0
 18 19  1  0
 19 20  1  0
 20 21  1  0
 21 22  2  0
 21 28  1  0
 22 23  1  0
 23 24  1  0
 23 25  2  0
 25 26  1  0
 26 27  1  0
 26 28  2  0
  1 18  1  0
  1  2  1  1
  1  3  1  0
  1  6  1  0
  3  4  1  0
  4  5  1  0
  5  8  1  0
  5  6  1  0
  8  9  2  0
  8 16  1  0
  9 10  1  0
 10 11  2  0
 11 12  1  0
 11 15  1  0
 12 13  1  0
 13 14  2  0
 14 15  1  0
 15 16  2  0
  6  7  2  0
M  END
>  <minimizedAffinity>  (1011) 
-8.70018

$$$$
data/reference_output_2/data/smiles/179845.pdb
     RDKit          3D

 33 36  0  0  0  0  0  0  0  0999 V2000
   70.7552   44.2889   58.9889 C   0  0  0  0  0  0  0  0  0  0  0  0
   70.7328   45.5997   58.8089 C   0  0  0  0  0  0  0  0  0  0  0  0
   71.3962   46.3814   59.6824 N   0  0  0  0  0  0  0  0  0  0  0  0
   71.3659   47.7117   59.4995 C   0  0  0  0  0  0  0  0  0  0  0  0
   71.9799   48.4604   60.3075 O   0  0  0  0  0  0  0  0  0  0  0  0
   70.6838   48.3174   58.4529 C   0  0  0  0  0  0  0  0  0  0  0  0
   70.6940   49.6525   58.3344 C   0  0  0  0  0  0  0  0  0  0  0  0
   70.0226   47.5405   57.5792 N   0  0  0  0  0  0  0  0  0  0  0  0
   70.0532   46.2085   57.7637 C   0  0  0  0  0  0  0  0  0  0  0  0
   69.4499   45.4529   56.9705 O   0  0  0  0  0  0  0  0  0  0  0  0
   70.0040   50.3208   57.2709 C   0  0  0  0  0  0  0  0  0  0  0  0
   69.2265   51.4310   57.5082 C   0  0  0  0  0  0  0  0  0  0  0  0
   68.5683   52.0485   56.4606 C   0  0  0  0  0  0  0  0  0  0  0  0
   68.6968   51.5386   55.1606 C   0  0  0  0  0  0  0  0  0  0  0  0
   69.4658   50.4355   54.9009 C   0  0  0  0  0  0  0  0  0  0  0  0
   70.1085   49.8494   55.9865 C   0  0  0  0  0  0  0  0  0  0  0  0
   69.6634   49.8666   53.5857 C   0  0  0  0  0  0  0  0  0  0  0  0
   70.3208   50.5595   52.7345 O   0  0  0  0  0  0  0  0  0  0  0  0
   69.1441   48.5566   53.2246 C   0  0  0  0  0  0  0  0  0  0  0  0
   68.4943   47.7981   54.2048 C   0  0  0  0  0  0  0  0  0  0  0  0
   68.0005   46.5371   53.9188 C   0  0  0  0  0  0  0  0  0  0  0  0
   68.1509   46.0228   52.6472 C   0  0  0  0  0  0  0  0  0  0  0  0
   67.6687   44.7720   52.3360 F   0  0  0  0  0  0  0  0  0  0  0  0
   68.7856   46.7405   51.6580 C   0  0  0  0  0  0  0  0  0  0  0  0
   69.2683   47.9972   51.9775 C   0  0  0  0  0  0  0  0  0  0  0  0
   72.7926   43.2537   60.0561 C   0  0  0  0  0  0  0  0  0  0  0  0
   73.1182   42.8250   61.3057 N   0  0  0  0  0  0  0  0  0  0  0  0
   72.0635   43.0277   62.1077 C   0  0  0  0  0  0  0  0  0  0  0  0
   71.0872   43.5725   61.3828 N   0  0  0  0  0  0  0  0  0  0  0  0
   71.5054   43.7184   60.1420 C   0  0  0  0  0  0  0  0  0  0  0  0
   74.4180   41.8908   58.7648 C   0  0  0  0  0  0  0  0  0  0  0  0
   73.7037   43.1963   58.8523 C   0  0  0  0  0  0  0  0  0  0  0  0
   74.5982   44.4083   58.7604 C   0  0  0  0  0  0  0  0  0  0  0  0
 31 32  1  0
 32 33  1  0
 32 26  1  0
 26 27  1  0
 26 30  2  0
 27 28  1  0
 28 29  2  0
 29 30  1  0
 30  1  1  0
  1  2  2  0
  2  3  1  0
  2  9  1  0
  3  4  1  0
  4  5  2  0
  4  6  1  0
  6  7  2  0
  6  8  1  0
  7 11  1  0
 11 12  2  0
 11 16  1  0
 12 13  1  0
 13 14  2  0
 14 15  1  0
 15 17  1  0
 15 16  2  0
 17 18  2  0
 17 19  1  0
 19 20  2  0
 19 25  1  0
 20 21  1  0
 21 22  2  0
 22 23  1  0
 22 24  1  0
 24 25  2  0
  8  9  1  0
  9 10  2  0
M  CHG  1  29   1
M  END
>  <minimizedAffinity>  (1012) 
-9.33689

$$$$
data/reference_output_2/data/smiles/179850.pdb
     RDKit          3D

 27 30  0  0  0  0  0  0  0  0999 V2000
   70.7150   49.6584   56.8796 C   0  0  0  0  0  0  0  0  0  0  0  0
   70.4095   49.5322   55.4323 C   0  0  0  0  0  0  0  0  0  0  0  0
   70.8424   50.5247   54.5826 C   0  0  0  0  0  0  0  0  0  0  0  0
   70.5405   50.3763   53.2398 C   0  0  0  0  0  0  0  0  0  0  0  0
   69.8380   49.2806   52.7876 C   0  0  0  0  0  0  0  0  0  0  0  0
   69.4014   48.2817   53.6372 C   0  0  0  0  0  0  0  0  0  0  0  0
   68.6928   47.1834   53.1551 C   0  0  0  0  0  0  0  0  0  0  0  0
   68.2739   46.2088   54.0262 C   0  0  0  0  0  0  0  0  0  0  0  0
   68.6152   46.4255   55.3678 C   0  0  0  0  0  0  0  0  0  0  0  0
   68.2285   45.5249   56.1737 O   0  0  0  0  0  0  0  0  0  0  0  0
   69.2842   47.4763   55.7729 O   0  0  0  0  0  0  0  0  0  0  0  0
   69.7025   48.4297   54.9742 C   0  0  0  0  0  0  0  0  0  0  0  0
   67.5403   45.1212   53.3413 C   0  0  0  0  0  0  0  0  0  0  0  0
   67.5575   45.5144   51.8993 C   0  0  0  0  0  0  0  0  0  0  0  0
   68.2673   46.8350   51.7701 C   0  0  0  0  0  0  0  0  0  0  0  0
   71.5455   51.6119   55.0969 O   0  0  0  0  0  0  0  0  0  0  0  0
   72.7702   52.0466   54.6171 C   0  0  0  0  0  0  0  0  0  0  0  0
   73.8743   51.0594   54.6702 C   0  0  0  0  0  0  0  0  0  0  0  0
   73.9332   50.2754   53.6627 O   0  0  0  0  0  0  0  0  0  0  0  0
   74.8196   50.9251   55.6906 N   0  0  0  0  0  0  0  0  0  0  0  0
   75.8513   49.9206   55.6589 C   0  0  0  0  0  0  0  0  0  0  0  0
   76.9466   50.1388   56.6199 C   0  0  0  0  0  0  0  0  0  0  0  0
   78.0645   50.8589   56.2207 C   0  0  0  0  0  0  0  0  0  0  0  0
   79.1144   51.0793   57.1018 C   0  0  0  0  0  0  0  0  0  0  0  0
   79.0669   50.5874   58.3874 C   0  0  0  0  0  0  0  0  0  0  0  0
   77.9808   49.8928   58.7607 N   0  0  0  0  0  0  0  0  0  0  0  0
   76.9377   49.6660   57.9089 C   0  0  0  0  0  0  0  0  0  0  0  0
  1  2  1  0
  2  3  2  0
  2 12  1  0
  3 16  1  0
  3  4  1  0
 16 17  1  0
 17 18  1  0
 18 19  2  0
 18 20  1  0
 20 21  1  0
 21 22  1  0
 22 23  2  0
 22 27  1  0
 23 24  1  0
 24 25  2  0
 25 26  1  0
 26 27  2  0
  4  5  2  0
  5  6  1  0
  6  7  1  0
  6 12  2  0
  7  8  2  0
  7 15  1  0
  8  9  1  0
  8 13  1  0
  9 10  2  0
  9 11  1  0
 11 12  1  0
 13 14  1  0
 14 15  1  0
M  END
>  <minimizedAffinity>  (1013) 
-8.52096

$$$$
data/reference_output_2/data/smiles/179852.pdb
     RDKit          3D

 28 36  0  0  0  0  0  0  0  0999 V2000
   70.8856   50.3747   55.5904 C   0  0  2  0  0  0  0  0  0  0  0  0
   69.4004   50.6004   55.8097 C   0  0  1  0  0  0  0  0  0  0  0  0
   68.9660   49.4644   56.6779 C   0  0  2  0  0  0  0  0  0  0  0  0
   67.9554   50.1701   57.5960 C   0  0  0  0  0  0  0  0  0  0  0  0
   68.9018   51.2943   58.0401 C   0  0  1  0  0  0  0  0  0  0  0  0
   70.0778   50.5032   58.5212 C   0  0  1  0  0  0  0  0  0  0  0  0
   70.1200   49.2741   57.6024 C   0  0  2  0  0  0  0  0  0  0  0  0
   71.3306   49.8081   56.8770 C   0  0  2  0  0  0  0  0  0  0  0  0
   71.2851   51.0272   57.8081 C   0  0  1  0  0  0  0  0  0  0  0  0
   70.8131   52.1271   56.9214 C   0  0  1  0  0  0  0  0  0  0  0  0
   71.1347   53.3832   57.2895 O   0  0  0  0  0  0  0  0  0  0  0  0
   71.7595   54.0277   56.2203 C   0  0  0  0  0  0  0  0  0  0  0  0
   73.0594   53.3616   55.8301 C   0  0  0  0  0  0  0  0  0  0  0  0
   72.7853   51.8547   55.7186 C   0  0  0  0  0  0  0  0  0  0  0  0
   71.3734   51.7259   55.6191 N   0  0  1  0  0  0  0  0  0  0  0  0
   69.3645   51.8329   56.7279 C   0  0  1  0  0  0  0  0  0  0  0  0
   71.1923   49.6511   54.4614 O   0  0  0  0  0  0  0  0  0  0  0  0
   70.3146   50.8440   52.7743 O   0  0  0  0  0  0  0  0  0  0  0  0
   70.4972   49.7119   53.2911 C   0  0  0  0  0  0  0  0  0  0  0  0
   69.9530   48.5396   52.6022 C   0  0  0  0  0  0  0  0  0  0  0  0
   70.1068   48.1992   51.3100 N   0  0  0  0  0  0  0  0  0  0  0  0
   69.4706   47.0710   51.0420 N   0  0  0  0  0  0  0  0  0  0  0  0
   68.8579   46.6061   52.1587 C   0  0  0  0  0  0  0  0  0  0  0  0
   68.0796   45.5019   52.4392 C   0  0  0  0  0  0  0  0  0  0  0  0
   67.5876   45.2971   53.7122 C   0  0  0  0  0  0  0  0  0  0  0  0
   67.8830   46.2119   54.7004 C   0  0  0  0  0  0  0  0  0  0  0  0
   68.6608   47.3077   54.4009 C   0  0  0  0  0  0  0  0  0  0  0  0
   69.1691   47.5431   53.1412 C   0  0  0  0  0  0  0  0  0  0  0  0
 18 19  2  0
 19 17  1  0
 19 20  1  0
  1 17  1  6
  1  2  1  0
  1  8  1  0
  1 15  1  0
  2  3  1  1
  2 16  1  0
  3  4  1  1
  7  3  1  6
  5  4  1  6
  6  5  1  6
 16  5  1  1
  6  7  1  0
  9  6  1  1
  8  7  1  1
  8  9  1  0
  9 10  1  0
 10 11  1  1
 10 15  1  0
 10 16  1  0
 11 12  1  0
 12 13  1  0
 13 14  1  0
 15 14  1  1
 20 21  2  0
 20 28  1  0
 21 22  1  0
 22 23  1  0
 23 24  1  0
 23 28  2  0
 24 25  2  0
 25 26  1  0
 26 27  2  0
 27 28  1  0
M  CHG  1  15   1
M  END
>  <minimizedAffinity>  (1014) 
-8.67527

$$$$
data/reference_output_2/data/smiles/179967.pdb
     RDKit          3D

 27 31  0  0  0  0  0  0  0  0999 V2000
   75.6694   35.1736   56.3316 N   0  0  0  0  0  0  0  0  0  0  0  0
   74.7043   35.3774   55.3119 C   0  0  0  0  0  0  0  0  0  0  0  0
   75.0015   35.4447   53.9450 C   0  0  0  0  0  0  0  0  0  0  0  0
   73.7978   35.6473   53.3571 C   0  0  0  0  0  0  0  0  0  0  0  0
   72.8403   35.6963   54.3312 N   0  0  0  0  0  0  0  0  0  0  0  0
   73.3869   35.5339   55.5165 N   0  0  0  0  0  0  0  0  0  0  0  0
   72.7599   35.5170   56.7874 C   0  0  0  0  0  0  0  0  0  0  0  0
   72.3386   36.6865   57.3571 C   0  0  0  0  0  0  0  0  0  0  0  0
   71.7157   36.6930   58.6135 C   0  0  0  0  0  0  0  0  0  0  0  0
   71.5377   35.4824   59.2641 C   0  0  0  0  0  0  0  0  0  0  0  0
   70.9832   35.2028   60.4529 N   0  0  0  0  0  0  0  0  0  0  0  0
   71.0628   33.8728   60.6099 C   0  0  0  0  0  0  0  0  0  0  0  0
   70.6449   33.2142   61.6129 O   0  0  0  0  0  0  0  0  0  0  0  0
   71.6553   33.3181   59.5464 N   0  0  0  0  0  0  0  0  0  0  0  0
   71.9550   34.3077   58.7020 C   0  0  0  0  0  0  0  0  0  0  0  0
   72.5779   34.3300   57.4407 C   0  0  0  0  0  0  0  0  0  0  0  0
   76.3154   35.3531   53.3643 C   0  0  0  0  0  0  0  0  0  0  0  0
   77.3534   35.3894   54.1350 O   0  0  0  0  0  0  0  0  0  0  0  0
   76.6115   35.2207   51.9505 C   0  0  0  0  0  0  0  0  0  0  0  0
   75.9465   34.3526   51.0632 C   0  0  0  0  0  0  0  0  0  0  0  0
   76.4382   34.4923   49.7913 C   0  0  0  0  0  0  0  0  0  0  0  0
   76.1632   33.9089   48.5685 C   0  0  0  0  0  0  0  0  0  0  0  0
   76.8346   34.2533   47.4163 C   0  0  0  0  0  0  0  0  0  0  0  0
   77.8144   35.2207   47.5203 C   0  0  0  0  0  0  0  0  0  0  0  0
   78.1089   35.8219   48.7418 C   0  0  0  0  0  0  0  0  0  0  0  0
   77.4149   35.4534   49.8789 C   0  0  0  0  0  0  0  0  0  0  0  0
   77.4967   35.8705   51.1761 N   0  0  0  0  0  0  0  0  0  0  0  0
  1  2  1  0
  2  3  2  0
  2  6  1  0
  3 17  1  0
  3  4  1  0
 17 18  2  0
 17 19  1  0
 19 20  2  0
 19 27  1  0
 20 21  1  0
 21 22  2  0
 21 26  1  0
 22 23  1  0
 23 24  2  0
 24 25  1  0
 25 26  2  0
 26 27  1  0
  4  5  2  0
  5  6  1  0
  6  7  1  0
  7  8  2  0
  7 16  1  0
  8  9  1  0
  9 10  2  0
 10 11  1  0
 10 15  1  0
 11 12  1  0
 12 13  2  0
 12 14  1  0
 14 15  1  0
 15 16  2  0
M  CHG  1  11   1
M  END
>  <minimizedAffinity>  (1015) 
-8.92128

$$$$
data/reference_output_2/data/smiles/180049.pdb
     RDKit          3D

 20 22  0  0  0  0  0  0  0  0999 V2000
   69.7964   48.6336   54.5018 N   0  0  0  0  0  0  0  0  0  0  0  0
   70.2991   49.4286   53.3888 C   0  0  0  0  0  0  0  0  0  0  0  0
   70.9772   50.4665   53.4791 O   0  0  0  0  0  0  0  0  0  0  0  0
   69.8843   48.8227   52.1412 C   0  0  0  0  0  0  0  0  0  0  0  0
   70.1386   49.2346   50.9852 O   0  0  0  0  0  0  0  0  0  0  0  0
   69.1140   47.6426   52.5221 C   0  0  0  0  0  0  0  0  0  0  0  0
   68.4630   46.7285   51.7326 C   0  0  0  0  0  0  0  0  0  0  0  0
   67.7401   45.6906   52.2730 C   0  0  0  0  0  0  0  0  0  0  0  0
   67.7012   45.6141   53.6459 C   0  0  0  0  0  0  0  0  0  0  0  0
   68.3451   46.5172   54.4844 C   0  0  0  0  0  0  0  0  0  0  0  0
   68.1855   46.4162   55.8036 F   0  0  0  0  0  0  0  0  0  0  0  0
   69.0750   47.5545   53.9241 C   0  0  0  0  0  0  0  0  0  0  0  0
   70.0058   49.0530   55.8689 C   0  0  0  0  0  0  0  0  0  0  0  0
   69.2113   51.9860   55.8169 C   0  0  0  0  0  0  0  0  0  0  0  0
   68.4532   50.9281   56.4649 C   0  0  0  0  0  0  0  0  0  0  0  0
   67.2701   51.3215   57.1225 C   0  0  0  0  0  0  0  0  0  0  0  0
   66.4955   50.4424   57.8434 C   0  0  0  0  0  0  0  0  0  0  0  0
   66.9299   49.1371   57.9003 C   0  0  0  0  0  0  0  0  0  0  0  0
   68.0771   48.7305   57.2691 C   0  0  0  0  0  0  0  0  0  0  0  0
   68.8721   49.6538   56.5197 C   0  0  0  0  0  0  0  0  0  0  0  0
 14 15  1  0
 15 16  2  0
 15 20  1  0
 16 17  1  0
 17 18  2  0
 18 19  1  0
 19 20  2  0
 20 13  1  0
 13  1  1  0
  1  2  1  0
  1 12  1  0
  2  3  2  0
  2  4  1  0
  4  5  2  0
  4  6  1  0
  6  7  1  0
  6 12  2  0
  7  8  2  0
  8  9  1  0
  9 10  2  0
 10 11  1  0
 10 12  1  0
M  END
>  <minimizedAffinity>  (1016) 
-8.90474

$$$$
data/reference_output_2/data/smiles/180054.pdb
     RDKit          3D

 31 35  0  0  0  0  0  0  0  0999 V2000
   69.3125   40.0454   58.0100 C   0  0  0  0  0  0  0  0  0  0  0  0
   68.1960   40.0634   57.2031 C   0  0  0  0  0  0  0  0  0  0  0  0
   67.7888   41.2332   56.5910 C   0  0  0  0  0  0  0  0  0  0  0  0
   68.4686   42.4223   56.7536 C   0  0  0  0  0  0  0  0  0  0  0  0
   69.6048   42.4197   57.5702 C   0  0  0  0  0  0  0  0  0  0  0  0
   69.9901   41.2529   58.1666 C   0  0  0  0  0  0  0  0  0  0  0  0
   73.0119   35.9678   57.2277 C   0  0  0  0  0  0  0  0  0  0  0  0
   72.1460   35.9510   58.3945 N   0  0  0  0  0  0  0  0  0  0  0  0
   72.1406   35.0152   59.3493 C   0  0  0  0  0  0  0  0  0  0  0  0
   72.9105   34.0133   59.3423 O   0  0  0  0  0  0  0  0  0  0  0  0
   71.2024   35.3321   60.2735 N   0  0  0  0  0  0  0  0  0  0  0  0
   70.6039   36.4782   59.9078 C   0  0  0  0  0  0  0  0  0  0  0  0
   69.6207   37.2407   60.4413 N   0  0  0  0  0  0  0  0  0  0  0  0
   69.2000   38.3739   59.8513 C   0  0  0  0  0  0  0  0  0  0  0  0
   69.7562   38.8169   58.6647 C   0  0  0  0  0  0  0  0  0  0  0  0
   70.7589   38.0252   58.1350 C   0  0  0  0  0  0  0  0  0  0  0  0
   71.2001   36.8633   58.7249 C   0  0  0  0  0  0  0  0  0  0  0  0
   70.3308   43.6714   57.7508 C   0  0  0  0  0  0  0  0  0  0  0  0
   71.5861   43.6932   57.8340 O   0  0  0  0  0  0  0  0  0  0  0  0
   69.6630   44.9195   57.8399 N   0  0  0  0  0  0  0  0  0  0  0  0
   70.3765   46.1620   58.0171 C   0  0  0  0  0  0  0  0  0  0  0  0
   69.6614   47.3582   57.4289 C   0  0  0  0  0  0  0  0  0  0  0  0
   69.2186   47.0636   56.0195 C   0  0  0  0  0  0  0  0  0  0  0  0
   68.4139   46.0687   55.6060 N   0  0  0  0  0  0  0  0  0  0  0  0
   68.2415   46.1172   54.2715 C   0  0  0  0  0  0  0  0  0  0  0  0
   67.5293   45.3530   53.3569 C   0  0  0  0  0  0  0  0  0  0  0  0
   67.5551   45.6703   52.0140 C   0  0  0  0  0  0  0  0  0  0  0  0
   68.2841   46.7505   51.5325 C   0  0  0  0  0  0  0  0  0  0  0  0
   68.9794   47.4905   52.4613 C   0  0  0  0  0  0  0  0  0  0  0  0
   68.9699   47.1927   53.8159 C   0  0  0  0  0  0  0  0  0  0  0  0
   69.5494   47.7424   54.9062 N   0  0  0  0  0  0  0  0  0  0  0  0
  7  8  1  0
  8  9  1  0
  8 17  1  0
  9 10  2  0
  9 11  1  0
 11 12  1  0
 12 13  1  0
 12 17  2  0
 13 14  2  0
 14 15  1  0
 15  1  1  0
 15 16  2  0
  1  2  2  0
  1  6  1  0
  2  3  1  0
  3  4  2  0
  4  5  1  0
  5 18  1  0
  5  6  2  0
 18 19  2  0
 18 20  1  0
 20 21  1  0
 21 22  1  0
 22 23  1  0
 23 24  2  0
 23 31  1  0
 24 25  1  0
 25 26  2  0
 25 30  1  0
 26 27  1  0
 27 28  2  0
 28 29  1  0
 29 30  2  0
 30 31  1  0
 16 17  1  0
M  CHG  1  24   1
M  END
>  <minimizedAffinity>  (1017) 
-9.88948

$$$$
data/reference_output_2/data/smiles/180227.pdb
     RDKit          3D

 24 26  0  0  0  0  0  0  0  0999 V2000
   69.5848   45.7713   57.1285 N   0  0  0  0  0  0  0  0  0  0  0  0
   68.9876   46.5776   56.3920 C   0  0  0  0  0  0  0  0  0  0  0  0
   68.7417   46.5723   54.9715 C   0  0  0  0  0  0  0  0  0  0  0  0
   68.0747   45.5027   54.3728 C   0  0  0  0  0  0  0  0  0  0  0  0
   67.6617   44.4659   55.2072 O   0  0  0  0  0  0  0  0  0  0  0  0
   67.8274   45.4545   53.0280 C   0  0  0  0  0  0  0  0  0  0  0  0
   68.2114   46.4413   52.1776 C   0  0  0  0  0  0  0  0  0  0  0  0
   68.8778   47.5232   52.7323 C   0  0  0  0  0  0  0  0  0  0  0  0
   69.2978   48.5616   51.9048 C   0  0  0  0  0  0  0  0  0  0  0  0
   69.9645   49.6409   52.4359 C   0  0  0  0  0  0  0  0  0  0  0  0
   70.2252   49.7132   53.7824 C   0  0  0  0  0  0  0  0  0  0  0  0
   69.8101   48.6775   54.6324 C   0  0  0  0  0  0  0  0  0  0  0  0
   69.1432   47.5969   54.1055 C   0  0  0  0  0  0  0  0  0  0  0  0
   69.8084   45.7895   58.4747 N   0  0  0  0  0  0  0  0  0  0  0  0
   69.1409   43.8092   59.9951 O   0  0  0  0  0  0  0  0  0  0  0  0
   70.3578   44.3765   59.2717 S   0  0  0  0  0  0  0  0  0  0  0  0
   71.4486   44.6865   60.2588 O   0  0  0  0  0  0  0  0  0  0  0  0
   70.9001   43.2058   58.0598 C   0  0  0  0  0  0  0  0  0  0  0  0
   69.9740   42.1031   57.8303 C   0  0  0  0  0  0  0  0  0  0  0  0
   68.8908   42.2606   57.0039 C   0  0  0  0  0  0  0  0  0  0  0  0
   68.0141   41.2216   56.8077 C   0  0  0  0  0  0  0  0  0  0  0  0
   68.2199   40.0043   57.4458 C   0  0  0  0  0  0  0  0  0  0  0  0
   69.2958   39.8494   58.2661 C   0  0  0  0  0  0  0  0  0  0  0  0
   70.1651   40.8989   58.4526 C   0  0  0  0  0  0  0  0  0  0  0  0
 15 16  2  0
 16 17  2  0
 16 18  1  0
 16 14  1  0
 18 19  1  0
 19 20  2  0
 19 24  1  0
 20 21  1  0
 21 22  2  0
 22 23  1  0
 23 24  2  0
 14  1  1  0
  1  2  2  0
  2  3  1  0
  3  4  2  0
  3 13  1  0
  4  5  1  0
  4  6  1  0
  6  7  2  0
  7  8  1  0
  8  9  1  0
  8 13  2  0
  9 10  2  0
 10 11  1  0
 11 12  2  0
 12 13  1  0
M  END
>  <minimizedAffinity>  (1018) 
-9.13834

$$$$
data/reference_output_2/data/smiles/180319.pdb
     RDKit          3D

 27 29  0  0  0  0  0  0  0  0999 V2000
   68.7417   43.2649   56.7561 C   0  0  0  0  0  0  0  0  0  0  0  0
   67.8083   42.4784   56.0996 C   0  0  0  0  0  0  0  0  0  0  0  0
   67.5250   41.1957   56.5259 C   0  0  0  0  0  0  0  0  0  0  0  0
   68.1726   40.6814   57.6178 C   0  0  0  0  0  0  0  0  0  0  0  0
   67.8003   39.0613   58.1390 Cl  0  0  0  0  0  0  0  0  0  0  0  0
   69.1191   41.4605   58.2952 C   0  0  0  0  0  0  0  0  0  0  0  0
   69.4045   42.7583   57.8626 C   0  0  0  0  0  0  0  0  0  0  0  0
   70.3528   43.5727   58.5529 C   0  0  0  0  0  0  0  0  0  0  0  0
   69.8005   44.4436   59.3754 O   0  0  0  0  0  0  0  0  0  0  0  0
   71.7306   43.6538   58.5506 N   0  0  0  0  0  0  0  0  0  0  0  0
   72.3774   44.6461   59.4293 C   0  0  0  0  0  0  0  0  0  0  0  0
   73.2435   45.5014   58.5310 C   0  0  0  0  0  0  0  0  0  0  0  0
   74.1923   44.7347   57.8580 O   0  0  0  0  0  0  0  0  0  0  0  0
   74.0598   43.3933   58.0731 C   0  0  0  0  0  0  0  0  0  0  0  0
   72.6266   42.8789   57.7729 C   0  0  0  0  0  0  0  0  0  0  0  0
   67.5030   44.5033   54.6592 O   0  0  0  0  0  0  0  0  0  0  0  0
   68.3922   45.2158   55.2342 C   0  0  0  0  0  0  0  0  0  0  0  0
   69.0418   44.5777   56.3283 N   0  0  0  0  0  0  0  0  0  0  0  0
   68.6923   46.5608   54.7885 C   0  0  0  0  0  0  0  0  0  0  0  0
   68.5805   47.5940   55.6950 C   0  0  0  0  0  0  0  0  0  0  0  0
   68.8579   48.9151   55.3192 C   0  0  0  0  0  0  0  0  0  0  0  0
   69.2454   49.1877   54.0339 C   0  0  0  0  0  0  0  0  0  0  0  0
   69.3645   48.1715   53.1126 C   0  0  0  0  0  0  0  0  0  0  0  0
   69.0859   46.8968   53.5164 C   0  0  0  0  0  0  0  0  0  0  0  0
   69.7623   48.4143   51.7788 N   0  0  0  0  0  0  0  0  0  0  0  0
   69.8247   49.5615   51.3272 O   0  0  0  0  0  0  0  0  0  0  0  0
   70.0831   47.3547   50.9788 O   0  0  0  0  0  0  0  0  0  0  0  0
 16 17  2  0
 17 18  1  0
 17 19  1  0
 18  1  1  0
  1  2  2  0
  1  7  1  0
  2  3  1  0
  3  4  2  0
  4  5  1  0
  4  6  1  0
  6  7  2  0
  7  8  1  0
  8  9  2  0
  8 10  1  0
 10 11  1  0
 10 15  1  0
 11 12  1  0
 12 13  1  0
 13 14  1  0
 14 15  1  0
 19 20  2  0
 19 24  1  0
 20 21  1  0
 21 22  2  0
 22 23  1  0
 23 25  1  0
 23 24  2  0
 25 26  2  0
 25 27  1  0
M  CHG  2  25   1  27  -1
M  END
>  <minimizedAffinity>  (1019) 
-8.92170

$$$$
data/reference_output_2/data/smiles/180460.pdb
     RDKit          3D

 26 28  0  0  0  0  0  0  0  0999 V2000
   69.8454   49.8041   55.5365 C   0  0  0  0  0  0  0  0  0  0  0  0
   69.5803   49.1351   56.7101 C   0  0  0  0  0  0  0  0  0  0  0  0
   69.1506   47.8066   56.7188 C   0  0  0  0  0  0  0  0  0  0  0  0
   68.9753   47.1174   55.5461 C   0  0  0  0  0  0  0  0  0  0  0  0
   69.2350   47.7731   54.3735 C   0  0  0  0  0  0  0  0  0  0  0  0
   69.0765   47.1318   53.1829 C   0  0  0  0  0  0  0  0  0  0  0  0
   69.3326   47.7680   51.9902 C   0  0  0  0  0  0  0  0  0  0  0  0
   69.7639   49.0929   51.9517 C   0  0  0  0  0  0  0  0  0  0  0  0
   69.9219   49.7368   53.1544 C   0  0  0  0  0  0  0  0  0  0  0  0
   69.6669   49.1034   54.3506 C   0  0  0  0  0  0  0  0  0  0  0  0
   68.5122   45.7083   55.4942 C   0  0  0  0  0  0  0  0  0  0  0  0
   67.7285   45.3238   54.6168 O   0  0  0  0  0  0  0  0  0  0  0  0
   68.9663   44.7720   56.4580 N   0  0  0  0  0  0  0  0  0  0  0  0
   68.6169   43.4138   56.5408 C   0  0  0  0  0  0  0  0  0  0  0  0
   69.2916   42.6294   57.4909 C   0  0  0  0  0  0  0  0  0  0  0  0
   69.0256   41.2906   57.6658 C   0  0  0  0  0  0  0  0  0  0  0  0
   68.0740   40.6440   56.9121 C   0  0  0  0  0  0  0  0  0  0  0  0
   67.4084   41.3961   55.9825 C   0  0  0  0  0  0  0  0  0  0  0  0
   66.4612   40.8118   55.2146 F   0  0  0  0  0  0  0  0  0  0  0  0
   67.6821   42.7670   55.8052 C   0  0  0  0  0  0  0  0  0  0  0  0
   70.2732   51.1284   55.4916 O   0  0  0  0  0  0  0  0  0  0  0  0
   71.5469   51.5318   55.9412 C   0  0  0  0  0  0  0  0  0  0  0  0
   74.0606   50.1585   53.4115 N   0  0  0  0  0  0  0  0  0  0  0  0
   73.0203   50.8993   53.9875 N   0  0  0  0  0  0  0  0  0  0  0  0
   72.6391   50.7491   55.3454 C   0  0  0  0  0  0  0  0  0  0  0  0
   73.2842   49.9093   56.0268 O   0  0  0  0  0  0  0  0  0  0  0  0
 23 24  1  0
 24 25  1  0
 25 26  2  0
 25 22  1  0
 22 21  1  0
 21  1  1  0
  1  2  2  0
  1 10  1  0
  2  3  1  0
  3  4  2  0
  4 11  1  0
  4  5  1  0
 11 12  2  0
 11 13  1  0
 13 14  1  0
 14 15  2  0
 14 20  1  0
 15 16  1  0
 16 17  2  0
 17 18  1  0
 18 19  1  0
 18 20  2  0
  5  6  1  0
  5 10  2  0
  6  7  2  0
  7  8  1  0
  8  9  2  0
  9 10  1  0
M  END
>  <minimizedAffinity>  (1020) 
-8.72510

$$$$
data/reference_output_2/data/smiles/180525.pdb
     RDKit          3D

 26 28  0  0  0  0  0  0  0  0999 V2000
   73.2280   51.9596   58.1698 C   0  0  0  0  0  0  0  0  0  0  0  0
   71.8473   52.0290   58.2743 C   0  0  0  0  0  0  0  0  0  0  0  0
   71.0914   50.8632   58.2822 C   0  0  0  0  0  0  0  0  0  0  0  0
   71.6727   49.6167   58.1893 C   0  0  0  0  0  0  0  0  0  0  0  0
   73.0365   49.5466   58.0863 C   0  0  0  0  0  0  0  0  0  0  0  0
   73.8126   50.7145   58.0769 C   0  0  0  0  0  0  0  0  0  0  0  0
   70.7516   48.4548   58.2090 C   0  0  0  0  0  0  0  0  0  0  0  0
   69.7593   48.7320   57.1978 N   0  0  0  0  0  0  0  0  0  0  0  0
   69.0533   49.9509   57.3397 C   0  0  0  0  0  0  0  0  0  0  0  0
   69.6100   50.8675   58.3923 C   0  0  0  0  0  0  0  0  0  0  0  0
   68.8036   47.3855   56.7843 S   0  0  0  0  0  0  0  0  0  0  0  0
   67.4086   47.6045   57.2493 O   0  0  0  0  0  0  0  0  0  0  0  0
   69.3215   46.1488   57.4554 O   0  0  0  0  0  0  0  0  0  0  0  0
   68.7838   47.2285   55.0414 C   0  0  0  0  0  0  0  0  0  0  0  0
   68.1302   46.1530   54.4681 C   0  0  0  0  0  0  0  0  0  0  0  0
   68.0983   46.0026   53.0808 C   0  0  0  0  0  0  0  0  0  0  0  0
   68.7222   46.9335   52.2759 C   0  0  0  0  0  0  0  0  0  0  0  0
   69.3787   48.0125   52.8220 C   0  0  0  0  0  0  0  0  0  0  0  0
   69.3969   48.1391   54.1988 C   0  0  0  0  0  0  0  0  0  0  0  0
   70.0286   48.9779   51.9516 C   0  0  0  0  0  0  0  0  0  0  0  0
   70.0147   50.2162   52.1774 O   0  0  0  0  0  0  0  0  0  0  0  0
   70.6870   48.5386   50.8358 O   0  0  0  0  0  0  0  0  0  0  0  0
   73.3481   54.3740   58.1906 C   0  0  0  0  0  0  0  0  0  0  0  0
   74.0119   53.1276   58.1595 O   0  0  0  0  0  0  0  0  0  0  0  0
   75.1949   50.6491   57.9725 O   0  0  0  0  0  0  0  0  0  0  0  0
   75.9287   50.1057   59.0520 C   0  0  0  0  0  0  0  0  0  0  0  0
 23 24  1  0
 24  1  1  0
  1  2  2  0
  1  6  1  0
  2  3  1  0
  3  4  2  0
  3 10  1  0
  4  5  1  0
  4  7  1  0
  5  6  2  0
  6 25  1  0
 25 26  1  0
  7  8  1  0
  8 11  1  0
  8  9  1  0
 11 12  2  0
 11 13  2  0
 11 14  1  0
 14 15  2  0
 14 19  1  0
 15 16  1  0
 16 17  2  0
 17 18  1  0
 18 20  1  0
 18 19  2  0
 20 21  2  0
 20 22  1  0
  9 10  1  0
M  END
>  <minimizedAffinity>  (1021) 
-8.61659

$$$$
data/reference_output_2/data/smiles/180660.pdb
     RDKit          3D

 24 26  0  0  0  0  0  0  0  0999 V2000
   72.2942   51.1866   54.6646 C   0  0  1  0  0  0  0  0  0  0  0  0
   75.9455   51.0084   55.6260 N   0  0  0  0  0  0  0  0  0  0  0  0
   74.5816   51.3294   55.6539 N   0  0  0  0  0  0  0  0  0  0  0  0
   73.7335   50.8505   54.6386 C   0  0  0  0  0  0  0  0  0  0  0  0
   74.2449   50.1384   53.7288 O   0  0  0  0  0  0  0  0  0  0  0  0
   71.6050   49.9353   54.4105 N   0  0  0  0  0  0  0  0  0  0  0  0
   70.4948   49.8526   53.5171 C   0  0  0  0  0  0  0  0  0  0  0  0
   70.1690   50.9457   52.9742 O   0  0  0  0  0  0  0  0  0  0  0  0
   69.7682   48.6258   53.2253 C   0  0  0  0  0  0  0  0  0  0  0  0
   68.9524   48.0119   54.1240 C   0  0  0  0  0  0  0  0  0  0  0  0
   68.2634   46.8299   53.8151 C   0  0  0  0  0  0  0  0  0  0  0  0
   68.3976   46.2541   52.5792 C   0  0  0  0  0  0  0  0  0  0  0  0
   69.2271   46.8765   51.6626 C   0  0  0  0  0  0  0  0  0  0  0  0
   69.9084   48.0531   51.9804 C   0  0  0  0  0  0  0  0  0  0  0  0
   71.9975   51.7630   56.0002 C   0  0  0  0  0  0  0  0  0  0  0  0
   70.6208   52.0515   56.3233 C   0  0  0  0  0  0  0  0  0  0  0  0
   70.0441   53.2978   56.1745 C   0  0  0  0  0  0  0  0  0  0  0  0
   68.7607   53.2494   56.5558 N   0  0  0  0  0  0  0  0  0  0  0  0
   68.4871   51.9929   56.9523 C   0  0  0  0  0  0  0  0  0  0  0  0
   67.3620   51.3520   57.4381 C   0  0  0  0  0  0  0  0  0  0  0  0
   67.3545   50.0098   57.7799 C   0  0  0  0  0  0  0  0  0  0  0  0
   68.5382   49.2832   57.6217 C   0  0  0  0  0  0  0  0  0  0  0  0
   69.6738   49.8941   57.1407 C   0  0  0  0  0  0  0  0  0  0  0  0
   69.6432   51.2271   56.8131 C   0  0  0  0  0  0  0  0  0  0  0  0
  2  3  1  0
  3  4  1  0
  4  5  2  0
  4  1  1  0
  1 15  1  1
  1  6  1  0
 15 16  1  0
 16 17  2  0
 16 24  1  0
 17 18  1  0
 18 19  1  0
 19 20  1  0
 19 24  2  0
 20 21  2  0
 21 22  1  0
 22 23  2  0
 23 24  1  0
  6  7  1  0
  7  8  2  0
  7  9  1  0
  9 10  2  0
  9 14  1  0
 10 11  1  0
 11 12  2  0
 12 13  1  0
 13 14  2  0
M  END
>  <minimizedAffinity>  (1022) 
-8.73161

$$$$
data/reference_output_2/data/smiles/180678.pdb
     RDKit          3D

 28 31  0  0  0  0  0  0  0  0999 V2000
   69.4951   39.3261   58.2601 C   0  0  0  0  0  0  0  0  0  0  0  0
   68.2984   39.2650   57.5299 C   0  0  0  0  0  0  0  0  0  0  0  0
   67.7647   40.4073   56.9753 C   0  0  0  0  0  0  0  0  0  0  0  0
   68.3535   41.6502   57.0994 C   0  0  0  0  0  0  0  0  0  0  0  0
   69.5269   41.6799   57.8238 C   0  0  0  0  0  0  0  0  0  0  0  0
   70.0908   40.5498   58.3924 C   0  0  0  0  0  0  0  0  0  0  0  0
   68.5155   37.7426   60.6823 C   0  0  0  0  0  0  0  0  0  0  0  0
   69.6897   37.4014   59.8946 N   0  0  0  0  0  0  0  0  0  0  0  0
   70.0735   38.1282   58.8391 C   0  0  0  0  0  0  0  0  0  0  0  0
   71.2133   37.5020   58.3612 C   0  0  0  0  0  0  0  0  0  0  0  0
   71.4932   36.4293   59.1199 N   0  0  0  0  0  0  0  0  0  0  0  0
   72.4532   35.4937   59.1081 C   0  0  0  0  0  0  0  0  0  0  0  0
   72.4847   34.4865   60.0382 C   0  0  0  0  0  0  0  0  0  0  0  0
   71.5252   34.4032   61.0223 C   0  0  0  0  0  0  0  0  0  0  0  0
   70.5382   35.3614   61.0398 C   0  0  0  0  0  0  0  0  0  0  0  0
   70.5501   36.3483   60.0864 C   0  0  0  0  0  0  0  0  0  0  0  0
   67.7633   42.8339   56.4809 C   0  0  0  0  0  0  0  0  0  0  0  0
   68.1695   43.8821   56.1314 N   0  0  0  0  0  0  0  0  0  0  0  0
   68.5524   45.0481   55.7285 N   0  0  0  0  0  0  0  0  0  0  0  0
   68.2728   45.6492   54.4483 C   0  0  0  0  0  0  0  0  0  0  0  0
   67.5801   44.9340   53.6742 O   0  0  0  0  0  0  0  0  0  0  0  0
   68.7210   46.9503   54.0331 C   0  0  0  0  0  0  0  0  0  0  0  0
   68.8498   48.0469   54.8516 C   0  0  0  0  0  0  0  0  0  0  0  0
   69.2806   49.2774   54.4059 C   0  0  0  0  0  0  0  0  0  0  0  0
   69.6096   49.4584   53.0840 C   0  0  0  0  0  0  0  0  0  0  0  0
   70.0538   50.7215   52.6172 N   0  0  0  0  0  0  0  0  0  0  0  0
   69.4964   48.3874   52.2278 C   0  0  0  0  0  0  0  0  0  0  0  0
   69.0636   47.1662   52.6919 C   0  0  0  0  0  0  0  0  0  0  0  0
  7  8  1  0
  8  9  1  0
  8 16  2  0
  9  1  1  0
  9 10  2  0
  1  2  2  0
  1  6  1  0
  2  3  1  0
  3  4  2  0
  4 17  1  0
  4  5  1  0
 17 18  2  0
 18 19  1  0
 19 20  1  0
 20 21  2  0
 20 22  1  0
 22 23  2  0
 22 28  1  0
 23 24  1  0
 24 25  2  0
 25 26  1  0
 25 27  1  0
 27 28  2  0
  5  6  2  0
 10 11  1  0
 11 12  1  0
 11 16  1  0
 12 13  2  0
 13 14  1  0
 14 15  2  0
 15 16  1  0
M  CHG  1   8   1
M  END
>  <minimizedAffinity>  (1023) 
-8.81964

$$$$
data/reference_output_2/data/smiles/180710.pdb
     RDKit          3D

 26 28  0  0  0  0  0  0  0  0999 V2000
   69.2517   44.1128   56.7075 O   0  0  0  0  0  0  0  0  0  0  0  0
   68.2808   43.5621   56.0972 C   0  0  0  0  0  0  0  0  0  0  0  0
   67.7237   44.2872   55.0351 N   0  0  0  0  0  0  0  0  0  0  0  0
   68.2094   45.5791   54.6343 C   0  0  0  0  0  0  0  0  0  0  0  0
   68.4535   46.5510   55.5826 C   0  0  0  0  0  0  0  0  0  0  0  0
   68.9233   47.7820   55.1394 C   0  0  0  0  0  0  0  0  0  0  0  0
   69.1452   48.0539   53.8206 C   0  0  0  0  0  0  0  0  0  0  0  0
   69.5839   49.1244   53.1236 N   0  0  0  0  0  0  0  0  0  0  0  0
   69.6025   48.8134   51.8237 C   0  0  0  0  0  0  0  0  0  0  0  0
   69.9646   49.6054   50.9196 O   0  0  0  0  0  0  0  0  0  0  0  0
   69.1783   47.5401   51.6615 N   0  0  0  0  0  0  0  0  0  0  0  0
   68.8933   47.0666   52.8926 C   0  0  0  0  0  0  0  0  0  0  0  0
   68.4265   45.8306   53.2948 C   0  0  0  0  0  0  0  0  0  0  0  0
   67.8578   42.2326   56.5800 C   0  0  0  0  0  0  0  0  0  0  0  0
   66.9967   42.2744   57.6731 O   0  0  0  0  0  0  0  0  0  0  0  0
   67.1556   41.4159   58.7363 C   0  0  0  0  0  0  0  0  0  0  0  0
   66.2762   41.3431   59.6135 O   0  0  0  0  0  0  0  0  0  0  0  0
   68.3574   40.5996   58.8204 C   0  0  0  0  0  0  0  0  0  0  0  0
   68.3454   39.2887   58.8361 C   0  0  0  0  0  0  0  0  0  0  0  0
   69.5017   38.4162   58.9181 C   0  0  0  0  0  0  0  0  0  0  0  0
   70.6188   38.6184   58.1062 C   0  0  0  0  0  0  0  0  0  0  0  0
   71.7266   37.8032   58.1671 C   0  0  0  0  0  0  0  0  0  0  0  0
   71.7803   36.7408   59.0418 C   0  0  0  0  0  0  0  0  0  0  0  0
   70.6871   36.5255   59.8506 C   0  0  0  0  0  0  0  0  0  0  0  0
   70.7332   35.4764   60.7187 F   0  0  0  0  0  0  0  0  0  0  0  0
   69.5597   37.3556   59.7883 C   0  0  0  0  0  0  0  0  0  0  0  0
  1  2  2  0
  2 14  1  0
  2  3  1  0
 14 15  1  0
 15 16  1  0
 16 17  2  0
 16 18  1  0
 18 19  2  0
 19 20  1  0
 20 21  2  0
 20 26  1  0
 21 22  1  0
 22 23  2  0
 23 24  1  0
 24 25  1  0
 24 26  2  0
  3  4  1  0
  4  5  2  0
  4 13  1  0
  5  6  1  0
  6  7  2  0
  7  8  1  0
  7 12  1  0
  8  9  1  0
  9 10  2  0
  9 11  1  0
 11 12  1  0
 12 13  2  0
M  CHG  1   8   1
M  END
>  <minimizedAffinity>  (1024) 
-8.54322

$$$$
data/reference_output_2/data/smiles/180717.pdb
     RDKit          3D

 26 27  0  0  0  0  0  0  0  0999 V2000
   70.5578   45.1055   59.0151 N   0  0  0  0  0  0  0  0  0  0  0  0
   70.3605   43.8207   58.4442 C   0  0  0  0  0  0  0  0  0  0  0  0
   69.3821   43.7673   57.6130 O   0  0  0  0  0  0  0  0  0  0  0  0
   69.7418   46.2001   58.6935 N   0  0  0  0  0  0  0  0  0  0  0  0
   70.0695   47.1520   57.7303 C   0  0  0  0  0  0  0  0  0  0  0  0
   70.5950   48.6260   58.1254 S   0  0  0  0  0  0  0  0  0  0  0  0
   68.6796   46.7851   55.7109 C   0  0  0  0  0  0  0  0  0  0  0  0
   67.6858   47.0669   56.4673 O   0  0  0  0  0  0  0  0  0  0  0  0
   69.9365   46.8180   56.3327 N   0  0  0  0  0  0  0  0  0  0  0  0
   69.4908   48.4211   53.0244 C   0  0  0  0  0  0  0  0  0  0  0  0
   68.7507   47.1530   53.1874 C   0  0  0  0  0  0  0  0  0  0  0  0
   68.2539   46.4206   52.1026 C   0  0  0  0  0  0  0  0  0  0  0  0
   67.6317   45.3192   52.6359 C   0  0  0  0  0  0  0  0  0  0  0  0
   67.7478   45.3906   53.9219 O   0  0  0  0  0  0  0  0  0  0  0  0
   68.4095   46.4670   54.3193 C   0  0  0  0  0  0  0  0  0  0  0  0
   71.1531   42.6254   58.7212 C   0  0  0  0  0  0  0  0  0  0  0  0
   70.5024   41.4172   58.7628 O   0  0  0  0  0  0  0  0  0  0  0  0
   71.0485   40.1428   58.7166 C   0  0  0  0  0  0  0  0  0  0  0  0
   72.3964   39.8642   58.7862 C   0  0  0  0  0  0  0  0  0  0  0  0
   72.8861   38.5748   58.7353 C   0  0  0  0  0  0  0  0  0  0  0  0
   72.0490   37.4822   58.6121 C   0  0  0  0  0  0  0  0  0  0  0  0
   70.6978   37.7481   58.5420 C   0  0  0  0  0  0  0  0  0  0  0  0
   70.2094   39.0361   58.5922 C   0  0  0  0  0  0  0  0  0  0  0  0
   72.5841   36.0956   58.5578 C   0  0  0  0  0  0  0  0  0  0  0  0
   71.5169   35.0940   59.0171 C   0  0  0  0  0  0  0  0  0  0  0  0
   72.8956   35.7342   57.1138 C   0  0  0  0  0  0  0  0  0  0  0  0
 10 11  1  0
 11 12  1  0
 11 15  2  0
 12 13  2  0
 13 14  1  0
 14 15  1  0
 15  7  1  0
  7  8  2  0
  7  9  1  0
  9  5  1  0
  5  6  2  0
  5  4  1  0
  4  1  1  0
  1  2  1  0
  2  3  2  0
  2 16  1  0
 16 17  1  0
 17 18  1  0
 18 19  2  0
 18 23  1  0
 19 20  1  0
 20 21  2  0
 21 24  1  0
 21 22  1  0
 24 25  1  0
 24 26  1  0
 22 23  2  0
M  END
>  <minimizedAffinity>  (1025) 
-8.53545

$$$$
data/reference_output_2/data/smiles/180736.pdb
     RDKit          3D

 30 33  0  0  0  0  0  0  0  0999 V2000
   71.8464   40.7334   58.4885 C   0  0  0  0  0  0  0  0  0  0  0  0
   70.6314   41.2040   58.0673 C   0  0  0  0  0  0  0  0  0  0  0  0
   70.3489   42.5683   57.9962 C   0  0  0  0  0  0  0  0  0  0  0  0
   71.2811   43.5222   58.3472 C   0  0  0  0  0  0  0  0  0  0  0  0
   72.5085   43.0580   58.7717 C   0  0  0  0  0  0  0  0  0  0  0  0
   72.7875   41.7116   58.8422 C   0  0  0  0  0  0  0  0  0  0  0  0
   71.4086   38.3187   57.9914 N   0  0  0  0  0  0  0  0  0  0  0  0
   72.1999   39.3255   58.5837 C   0  0  0  0  0  0  0  0  0  0  0  0
   73.2304   38.9322   59.1989 O   0  0  0  0  0  0  0  0  0  0  0  0
   70.3693   36.7067   59.9998 N   0  0  0  0  0  0  0  0  0  0  0  0
   71.2563   36.1049   59.0671 C   0  0  0  0  0  0  0  0  0  0  0  0
   71.5963   34.7597   59.1482 C   0  0  0  0  0  0  0  0  0  0  0  0
   72.4550   34.2177   58.2271 C   0  0  0  0  0  0  0  0  0  0  0  0
   72.9697   35.0197   57.2295 C   0  0  0  0  0  0  0  0  0  0  0  0
   72.6152   36.3732   57.1642 C   0  0  0  0  0  0  0  0  0  0  0  0
   71.7549   36.9252   58.0839 C   0  0  0  0  0  0  0  0  0  0  0  0
   70.9822   44.9781   58.2595 C   0  0  0  0  0  0  0  0  0  0  0  0
   69.7935   45.2775   57.4913 N   0  0  0  0  0  0  0  0  0  0  0  0
   69.4495   46.5582   56.9950 C   0  0  0  0  0  0  0  0  0  0  0  0
   70.3059   47.5062   56.8204 N   0  0  0  0  0  0  0  0  0  0  0  0
   69.6723   48.6752   56.3122 C   0  0  0  0  0  0  0  0  0  0  0  0
   70.0823   49.8597   56.3347 O   0  0  0  0  0  0  0  0  0  0  0  0
   68.3768   48.1639   55.7325 C   0  0  2  0  0  0  0  0  0  0  0  0
   68.1403   47.0312   56.6111 N   0  0  0  0  0  0  0  0  0  0  0  0
   68.6399   47.7147   54.3490 C   0  0  0  0  0  0  0  0  0  0  0  0
   67.9785   46.6138   53.8579 C   0  0  0  0  0  0  0  0  0  0  0  0
   68.1893   46.1485   52.5576 C   0  0  0  0  0  0  0  0  0  0  0  0
   69.0805   46.8033   51.7437 C   0  0  0  0  0  0  0  0  0  0  0  0
   69.7475   47.8995   52.2139 C   0  0  0  0  0  0  0  0  0  0  0  0
   69.5332   48.3511   53.4943 C   0  0  0  0  0  0  0  0  0  0  0  0
 10 11  1  0
 11 12  2  0
 11 16  1  0
 12 13  1  0
 13 14  2  0
 14 15  1  0
 15 16  2  0
 16  7  1  0
  7  8  1  0
  8  9  2  0
  8  1  1  0
  1  2  2  0
  1  6  1  0
  2  3  1  0
  3  4  2  0
  4 17  1  0
  4  5  1  0
 17 18  1  0
 18 19  1  0
 19 20  2  0
 19 24  1  0
 20 21  1  0
 21 22  2  0
 21 23  1  0
 23 25  1  6
 23 24  1  0
 25 26  2  0
 25 30  1  0
 26 27  1  0
 27 28  2  0
 28 29  1  0
 29 30  2  0
  5  6  2  0
M  CHG  1  20   1
M  END
>  <minimizedAffinity>  (1026) 
-9.11836

$$$$
data/reference_output_2/data/smiles/180766.pdb
     RDKit          3D

 26 28  0  0  0  0  0  0  0  0999 V2000
   75.8757   35.5406   53.4747 N   0  0  0  0  0  0  0  0  0  0  0  0
   74.5443   35.6575   53.3454 C   0  0  0  0  0  0  0  0  0  0  0  0
   73.6743   35.5491   54.4153 C   0  0  0  0  0  0  0  0  0  0  0  0
   74.1323   35.3156   55.6636 N   0  0  0  0  0  0  0  0  0  0  0  0
   75.4624   35.1974   55.8024 C   0  0  0  0  0  0  0  0  0  0  0  0
   75.9149   34.9765   56.9740 O   0  0  0  0  0  0  0  0  0  0  0  0
   76.3369   35.3046   54.7403 C   0  0  0  0  0  0  0  0  0  0  0  0
   77.5790   35.1912   54.8913 O   0  0  0  0  0  0  0  0  0  0  0  0
   73.2510   35.2036   56.7727 C   0  0  0  0  0  0  0  0  0  0  0  0
   73.0184   33.9920   57.3806 C   0  0  0  0  0  0  0  0  0  0  0  0
   72.1493   33.8908   58.4673 C   0  0  0  0  0  0  0  0  0  0  0  0
   71.4981   35.0014   58.9626 C   0  0  0  0  0  0  0  0  0  0  0  0
   70.6495   34.9021   60.0256 F   0  0  0  0  0  0  0  0  0  0  0  0
   71.7275   36.2187   58.3568 C   0  0  0  0  0  0  0  0  0  0  0  0
   71.0772   37.3215   58.8528 F   0  0  0  0  0  0  0  0  0  0  0  0
   72.5875   36.3046   57.2852 C   0  0  0  0  0  0  0  0  0  0  0  0
   76.8001   35.6411   52.3858 C   0  0  0  0  0  0  0  0  0  0  0  0
   76.5304   33.3805   51.8682 O   0  0  0  0  0  0  0  0  0  0  0  0
   76.7451   34.5533   51.4050 C   0  0  0  0  0  0  0  0  0  0  0  0
   76.9068   34.6567   49.9794 C   0  0  0  0  0  0  0  0  0  0  0  0
   77.8204   35.5399   49.4539 C   0  0  0  0  0  0  0  0  0  0  0  0
   77.9902   35.6641   48.0829 C   0  0  0  0  0  0  0  0  0  0  0  0
   77.2504   34.9091   47.1976 C   0  0  0  0  0  0  0  0  0  0  0  0
   77.4359   35.0518   45.8675 F   0  0  0  0  0  0  0  0  0  0  0  0
   76.3291   34.0182   47.7236 C   0  0  0  0  0  0  0  0  0  0  0  0
   76.1682   33.9030   49.0892 C   0  0  0  0  0  0  0  0  0  0  0  0
 18 19  2  0
 19 17  1  0
 19 20  1  0
 17  1  1  0
  1  2  1  0
  1  7  1  0
  2  3  2  0
  3  4  1  0
  4  9  1  0
  4  5  1  0
  9 10  2  0
  9 16  1  0
 10 11  1  0
 11 12  2  0
 12 13  1  0
 12 14  1  0
 14 15  1  0
 14 16  2  0
  5  6  2  0
  5  7  1  0
  7  8  2  0
 20 21  2  0
 20 26  1  0
 21 22  1  0
 22 23  2  0
 23 24  1  0
 23 25  1  0
 25 26  2  0
M  END
>  <minimizedAffinity>  (1027) 
-8.67373

$$$$
data/reference_output_2/data/smiles/180775.pdb
     RDKit          3D

 23 24  0  0  0  0  0  0  0  0999 V2000
   67.9719   43.4914   55.9463 C   0  0  0  0  0  0  0  0  0  0  0  0
   68.9011   43.9139   56.6876 O   0  0  0  0  0  0  0  0  0  0  0  0
   67.5753   44.2591   54.8388 N   0  0  0  0  0  0  0  0  0  0  0  0
   68.1105   45.5038   54.4449 C   0  0  0  0  0  0  0  0  0  0  0  0
   68.6824   46.4487   55.2307 C   0  0  0  0  0  0  0  0  0  0  0  0
   69.2170   47.6287   54.7371 C   0  0  0  0  0  0  0  0  0  0  0  0
   69.1964   47.9077   53.4000 C   0  0  0  0  0  0  0  0  0  0  0  0
   68.6192   46.9658   52.5734 C   0  0  0  0  0  0  0  0  0  0  0  0
   68.0892   45.7957   53.0713 C   0  0  0  0  0  0  0  0  0  0  0  0
   67.5309   44.8987   52.2129 F   0  0  0  0  0  0  0  0  0  0  0  0
   69.8954   49.3800   52.7613 S   0  0  0  0  0  0  0  0  0  0  0  0
   69.7960   49.5327   51.0788 N   0  0  0  0  0  0  0  0  0  0  0  0
   69.2080   50.5835   53.3853 O   0  0  0  0  0  0  0  0  0  0  0  0
   71.3349   49.4556   53.2767 O   0  0  0  0  0  0  0  0  0  0  0  0
   67.3020   42.1719   56.2552 C   0  0  0  0  0  0  0  0  0  0  0  0
   70.0569   39.8181   58.4815 C   0  0  0  0  0  0  0  0  0  0  0  0
   70.3842   41.1118   58.1835 C   0  0  0  0  0  0  0  0  0  0  0  0
   69.4732   41.8550   57.4539 C   0  0  0  0  0  0  0  0  0  0  0  0
   68.2769   41.3770   57.0198 C   0  0  0  0  0  0  0  0  0  0  0  0
   67.9723   40.0537   57.3410 C   0  0  0  0  0  0  0  0  0  0  0  0
   68.8591   39.2810   58.0668 C   0  0  0  0  0  0  0  0  0  0  0  0
   72.1251   38.4692   58.7432 C   0  0  0  0  0  0  0  0  0  0  0  0
   70.9335   39.0419   59.2045 O   0  0  0  0  0  0  0  0  0  0  0  0
 22 23  1  0
 23 16  1  0
 16 17  2  0
 16 21  1  0
 17 18  1  0
 18 19  2  0
 19 15  1  0
 19 20  1  0
 15  1  1  0
  1  2  2  0
  1  3  1  0
  3  4  1  0
  4  5  2  0
  4  9  1  0
  5  6  1  0
  6  7  2  0
  7 11  1  0
  7  8  1  0
 11 12  1  0
 11 13  2  0
 11 14  2  0
  8  9  2  0
  9 10  1  0
 20 21  2  0
M  END
>  <minimizedAffinity>  (1028) 
-8.76728

$$$$
data/reference_output_2/data/smiles/180823.pdb
     RDKit          3D

 30 33  0  0  0  0  0  0  0  0999 V2000
   69.6244   39.2150   62.2307 C   0  0  0  0  0  0  0  0  0  0  0  0
   69.8693   39.1379   60.8102 N   0  0  0  0  0  0  0  0  0  0  0  0
   69.6617   40.3382   60.0311 C   0  0  0  0  0  0  0  0  0  0  0  0
   69.0040   41.2227   60.5782 O   0  0  0  0  0  0  0  0  0  0  0  0
   70.1969   40.5262   58.6468 C   0  0  2  0  0  0  0  0  0  0  0  0
   71.6004   40.0013   58.5426 C   0  0  0  0  0  0  0  0  0  0  0  0
   71.7172   38.5500   58.2864 C   0  0  0  0  0  0  0  0  0  0  0  0
   71.1002   37.6460   59.2409 C   0  0  0  0  0  0  0  0  0  0  0  0
   71.4280   36.3362   58.9162 C   0  0  0  0  0  0  0  0  0  0  0  0
   70.9563   35.2939   59.6781 C   0  0  0  0  0  0  0  0  0  0  0  0
   71.2697   33.9956   59.3716 F   0  0  0  0  0  0  0  0  0  0  0  0
   70.1416   35.5461   60.7876 C   0  0  0  0  0  0  0  0  0  0  0  0
   69.8089   36.8338   61.1231 C   0  0  0  0  0  0  0  0  0  0  0  0
   69.0319   37.1477   62.1655 F   0  0  0  0  0  0  0  0  0  0  0  0
   70.2935   37.8603   60.3444 C   0  0  0  0  0  0  0  0  0  0  0  0
   70.1395   41.9280   58.3738 N   0  0  0  0  0  0  0  0  0  0  0  0
   69.3704   42.5311   57.3470 C   0  0  0  0  0  0  0  0  0  0  0  0
   68.6904   41.7492   56.6314 O   0  0  0  0  0  0  0  0  0  0  0  0
   69.3469   43.9720   57.1092 C   0  0  0  0  0  0  0  0  0  0  0  0
   70.1117   44.8679   57.7574 N   0  0  0  0  0  0  0  0  0  0  0  0
   69.8789   46.0858   57.3392 N   0  0  0  0  0  0  0  0  0  0  0  0
   68.9255   45.9854   56.3791 C   0  0  0  0  0  0  0  0  0  0  0  0
   68.6097   44.6625   56.2525 N   0  0  0  0  0  0  0  0  0  0  0  0
   68.3820   47.1368   55.6531 C   0  0  0  0  0  0  0  0  0  0  0  0
   68.4499   46.9985   54.1804 C   0  0  0  0  0  0  0  0  0  0  0  0
   69.2817   47.7926   53.4461 C   0  0  0  0  0  0  0  0  0  0  0  0
   69.3266   47.6396   52.0594 C   0  0  0  0  0  0  0  0  0  0  0  0
   68.5539   46.7110   51.4113 C   0  0  0  0  0  0  0  0  0  0  0  0
   67.7150   45.9099   52.1501 C   0  0  0  0  0  0  0  0  0  0  0  0
   67.6699   46.0618   53.5387 C   0  0  0  0  0  0  0  0  0  0  0  0
  1  2  1  0
  2  3  1  0
  2 15  1  0
  3  4  2  0
  3  5  1  0
  5 16  1  1
  5  6  1  0
 16 17  1  0
 17 18  2  0
 17 19  1  0
 19 20  2  0
 19 23  1  0
 20 21  1  0
 21 22  1  0
 22 24  1  0
 22 23  2  0
 24 25  1  0
 25 26  2  0
 25 30  1  0
 26 27  1  0
 27 28  2  0
 28 29  1  0
 29 30  2  0
  6  7  1  0
  7  8  1  0
  8  9  2  0
  8 15  1  0
  9 10  1  0
 10 11  1  0
 10 12  2  0
 12 13  1  0
 13 14  1  0
 13 15  2  0
M  END
>  <minimizedAffinity>  (1029) 
-9.04087

$$$$
data/reference_output_2/data/smiles/180863.pdb
     RDKit          3D

 30 33  0  0  0  0  0  0  0  0999 V2000
   71.0602   44.3984   58.4639 C   0  0  0  0  0  0  0  0  0  0  0  0
   71.1762   45.7503   58.7118 C   0  0  0  0  0  0  0  0  0  0  0  0
   70.4611   46.6987   58.0132 C   0  0  0  0  0  0  0  0  0  0  0  0
   69.5844   46.3124   57.0197 C   0  0  0  0  0  0  0  0  0  0  0  0
   69.4782   44.9608   56.7823 C   0  0  0  0  0  0  0  0  0  0  0  0
   70.1931   44.0680   57.4850 N   0  0  0  0  0  0  0  0  0  0  0  0
   68.6703   47.5032   56.1205 S   0  0  0  0  0  0  0  0  0  0  0  0
   69.3501   48.8291   56.3374 O   0  0  0  0  0  0  0  0  0  0  0  0
   67.2835   47.5296   56.6389 O   0  0  0  0  0  0  0  0  0  0  0  0
   68.6426   47.1816   54.4098 C   0  0  0  0  0  0  0  0  0  0  0  0
   67.8684   46.1997   53.8359 C   0  0  0  0  0  0  0  0  0  0  0  0
   67.9122   46.0218   52.4760 C   0  0  0  0  0  0  0  0  0  0  0  0
   67.1725   45.0691   51.8303 F   0  0  0  0  0  0  0  0  0  0  0  0
   68.7115   46.8018   51.6569 C   0  0  0  0  0  0  0  0  0  0  0  0
   69.4949   47.7907   52.2182 C   0  0  0  0  0  0  0  0  0  0  0  0
   70.2988   48.5816   51.4329 F   0  0  0  0  0  0  0  0  0  0  0  0
   69.4354   47.9513   53.5858 C   0  0  0  0  0  0  0  0  0  0  0  0
   71.8368   43.3689   59.2272 C   0  0  0  0  0  0  0  0  0  0  0  0
   70.9692   43.9647   61.7892 O   0  0  0  0  0  0  0  0  0  0  0  0
   70.4464   42.9351   61.2810 C   0  0  0  0  0  0  0  0  0  0  0  0
   70.8633   42.5997   59.9798 N   0  0  0  0  0  0  0  0  0  0  0  0
   69.4638   42.1691   62.0458 C   0  0  0  0  0  0  0  0  0  0  0  0
   68.4933   42.6202   62.9066 C   0  0  0  0  0  0  0  0  0  0  0  0
   67.7778   41.5678   63.4282 C   0  0  0  0  0  0  0  0  0  0  0  0
   66.7215   41.4160   64.3132 C   0  0  0  0  0  0  0  0  0  0  0  0
   66.2338   40.1975   64.6276 N   0  0  0  0  0  0  0  0  0  0  0  0
   66.7747   39.0943   64.0770 C   0  0  0  0  0  0  0  0  0  0  0  0
   67.8258   39.1905   63.1911 C   0  0  0  0  0  0  0  0  0  0  0  0
   68.3385   40.4273   62.8575 C   0  0  0  0  0  0  0  0  0  0  0  0
   69.3419   40.8371   62.0391 N   0  0  0  0  0  0  0  0  0  0  0  0
 19 20  2  0
 20 21  1  0
 20 22  1  0
 21 18  1  0
 18  1  1  0
  1  2  2  0
  1  6  1  0
  2  3  1  0
  3  4  2  0
  4  7  1  0
  4  5  1  0
  7  8  2  0
  7  9  2  0
  7 10  1  0
 10 11  2  0
 10 17  1  0
 11 12  1  0
 12 13  1  0
 12 14  2  0
 14 15  1  0
 15 16  1  0
 15 17  2  0
  5  6  2  0
 22 23  2  0
 22 30  1  0
 23 24  1  0
 24 25  2  0
 24 29  1  0
 25 26  1  0
 26 27  2  0
 27 28  1  0
 28 29  2  0
 29 30  1  0
M  END
>  <minimizedAffinity>  (1030) 
-8.94459

$$$$
data/reference_output_2/data/smiles/180887.pdb
     RDKit          3D

 22 24  0  0  0  0  0  0  0  0999 V2000
   67.7886   48.5359   57.4639 C   0  0  0  0  0  0  0  0  0  0  0  0
   68.8664   47.7907   56.6384 C   0  0  0  0  0  0  0  0  0  0  0  0
   70.0821   47.6551   57.5851 C   0  0  0  0  0  0  0  0  0  0  0  0
   69.2490   48.6471   55.5112 C   0  0  0  0  0  0  0  0  0  0  0  0
   69.1797   48.0146   54.1901 C   0  0  0  0  0  0  0  0  0  0  0  0
   69.5937   48.7154   53.0475 C   0  0  0  0  0  0  0  0  0  0  0  0
   69.5085   48.1200   51.8282 C   0  0  0  0  0  0  0  0  0  0  0  0
   69.0216   46.8377   51.6961 C   0  0  0  0  0  0  0  0  0  0  0  0
   68.6194   46.1551   52.8002 C   0  0  0  0  0  0  0  0  0  0  0  0
   68.6940   46.7339   54.0566 C   0  0  0  0  0  0  0  0  0  0  0  0
   68.2842   45.9735   55.2269 C   0  0  0  0  0  0  0  0  0  0  0  0
   68.3822   46.4972   56.3578 N   0  0  0  0  0  0  0  0  0  0  0  0
   67.8055   44.6676   55.0937 N   0  0  0  0  0  0  0  0  0  0  0  0
   67.9291   43.6364   56.0151 N   0  0  0  0  0  0  0  0  0  0  0  0
   67.2194   42.4170   56.0348 C   0  0  0  0  0  0  0  0  0  0  0  0
   66.3788   42.2151   55.1166 O   0  0  0  0  0  0  0  0  0  0  0  0
   67.4224   41.3865   57.0761 C   0  0  0  0  0  0  0  0  0  0  0  0
   68.1579   40.2462   56.8982 C   0  0  0  0  0  0  0  0  0  0  0  0
   68.2929   39.3250   57.9484 C   0  0  0  0  0  0  0  0  0  0  0  0
   67.6927   39.5492   59.1669 C   0  0  0  0  0  0  0  0  0  0  0  0
   66.9772   40.6782   59.3114 N   0  0  0  0  0  0  0  0  0  0  0  0
   66.8353   41.5749   58.3141 C   0  0  0  0  0  0  0  0  0  0  0  0
  1  2  1  0
  2  3  1  0
  2  4  1  0
  2 12  1  0
  4  5  1  0
  5  6  1  0
  5 10  2  0
  6  7  2  0
  7  8  1  0
  8  9  2  0
  9 10  1  0
 10 11  1  0
 11 13  1  0
 11 12  2  0
 13 14  1  0
 14 15  1  0
 15 16  2  0
 15 17  1  0
 17 18  2  0
 17 22  1  0
 18 19  1  0
 19 20  2  0
 20 21  1  0
 21 22  2  0
M  CHG  1  12   1
M  END
>  <minimizedAffinity>  (1031) 
-8.74156

$$$$
data/reference_output_2/data/smiles/180907.pdb
     RDKit          3D

 26 28  0  0  0  0  0  0  0  0999 V2000
   69.2568   45.1064   56.9257 N   0  0  0  0  0  0  0  0  0  0  0  0
   69.7989   46.3189   57.3597 C   0  0  0  0  0  0  0  0  0  0  0  0
   70.6587   46.3085   58.2831 O   0  0  0  0  0  0  0  0  0  0  0  0
   69.3526   47.6016   56.7265 C   0  0  1  0  0  0  0  0  0  0  0  0
   70.4653   48.4729   56.5937 N   0  0  0  0  0  0  0  0  0  0  0  0
   70.4476   49.4770   55.2294 S   0  0  0  0  0  0  0  0  0  0  0  0
   69.5331   50.6565   55.4422 O   0  0  0  0  0  0  0  0  0  0  0  0
   71.8581   49.9394   54.9170 O   0  0  0  0  0  0  0  0  0  0  0  0
   69.8751   48.5053   53.8707 C   0  0  0  0  0  0  0  0  0  0  0  0
   70.3126   48.6945   52.6039 C   0  0  0  0  0  0  0  0  0  0  0  0
   69.8070   47.8910   51.6105 C   0  0  0  0  0  0  0  0  0  0  0  0
   68.8679   46.9040   51.8879 C   0  0  0  0  0  0  0  0  0  0  0  0
   68.4167   46.7013   53.1684 C   0  0  0  0  0  0  0  0  0  0  0  0
   68.9449   47.5298   54.1624 C   0  0  0  0  0  0  0  0  0  0  0  0
   68.5265   47.3836   55.5486 C   0  0  0  0  0  0  0  0  0  0  0  0
   67.3067   47.0265   55.7252 O   0  0  0  0  0  0  0  0  0  0  0  0
   67.9342   42.8793   56.1354 C   0  0  0  0  0  0  0  0  0  0  0  0
   69.0291   42.7613   57.1302 C   0  0  0  0  0  0  0  0  0  0  0  0
   69.6241   43.8505   57.4700 N   0  0  0  0  0  0  0  0  0  0  0  0
   69.3792   41.4548   57.6688 C   0  0  0  0  0  0  0  0  0  0  0  0
   70.6284   41.1881   58.1769 C   0  0  0  0  0  0  0  0  0  0  0  0
   70.9279   39.9216   58.6853 C   0  0  0  0  0  0  0  0  0  0  0  0
   69.9943   38.9091   58.6961 C   0  0  0  0  0  0  0  0  0  0  0  0
   70.3879   37.3093   59.3435 Cl  0  0  0  0  0  0  0  0  0  0  0  0
   68.7439   39.1784   58.1873 C   0  0  0  0  0  0  0  0  0  0  0  0
   68.4506   40.4379   57.6832 C   0  0  0  0  0  0  0  0  0  0  0  0
 17 18  1  0
 18 19  2  0
 18 20  1  0
 19  1  1  0
  1  2  1  0
  2  3  2  0
  4  2  1  6
  4  5  1  0
  4 15  1  0
  5  6  1  0
  6  7  2  0
  6  8  2  0
  6  9  1  0
  9 10  2  0
  9 14  1  0
 10 11  1  0
 11 12  2  0
 12 13  1  0
 13 14  2  0
 14 15  1  0
 15 16  2  0
 20 21  2  0
 20 26  1  0
 21 22  1  0
 22 23  2  0
 23 24  1  0
 23 25  1  0
 25 26  2  0
M  END
>  <minimizedAffinity>  (1032) 
-8.53851

$$$$
data/reference_output_2/data/smiles/181427.pdb
     RDKit          3D

 25 27  0  0  0  0  0  0  0  0999 V2000
   69.4008   42.9279   57.4023 C   0  0  0  0  0  0  0  0  0  0  0  0
   68.2381   42.5644   57.7957 O   0  0  0  0  0  0  0  0  0  0  0  0
   69.4132   44.0883   56.5848 N   0  0  0  0  0  0  0  0  0  0  0  0
   74.2934   42.8011   58.1828 C   0  0  0  0  0  0  0  0  0  0  0  0
   72.9739   42.1206   58.1742 C   0  0  0  0  0  0  0  0  0  0  0  0
   71.8126   42.7877   57.8089 C   0  0  0  0  0  0  0  0  0  0  0  0
   70.5786   42.1764   57.7939 C   0  0  0  0  0  0  0  0  0  0  0  0
   70.5408   40.8533   58.1634 C   0  0  0  0  0  0  0  0  0  0  0  0
   71.6838   40.1595   58.5341 C   0  0  0  0  0  0  0  0  0  0  0  0
   72.9139   40.7730   58.5479 C   0  0  0  0  0  0  0  0  0  0  0  0
   71.6181   38.7572   58.9222 C   0  0  0  0  0  0  0  0  0  0  0  0
   71.6757   37.7151   58.0021 C   0  0  0  0  0  0  0  0  0  0  0  0
   71.5864   36.5534   58.7218 C   0  0  0  0  0  0  0  0  0  0  0  0
   71.4799   36.9197   60.0401 C   0  0  0  0  0  0  0  0  0  0  0  0
   71.5043   38.2234   60.0932 O   0  0  0  0  0  0  0  0  0  0  0  0
   68.2384   44.7734   56.2408 N   0  0  0  0  0  0  0  0  0  0  0  0
   68.5903   46.4576   55.9359 S   0  0  0  0  0  0  0  0  0  0  0  0
   67.5887   47.3404   56.5781 O   0  0  0  0  0  0  0  0  0  0  0  0
   69.9353   46.7415   56.5623 O   0  0  0  0  0  0  0  0  0  0  0  0
   68.6707   46.7642   54.2057 C   0  0  0  0  0  0  0  0  0  0  0  0
   68.0141   45.9569   53.2957 C   0  0  0  0  0  0  0  0  0  0  0  0
   68.0687   46.1847   51.9347 C   0  0  0  0  0  0  0  0  0  0  0  0
   68.7933   47.2452   51.4296 C   0  0  0  0  0  0  0  0  0  0  0  0
   69.4484   48.0496   52.3397 C   0  0  0  0  0  0  0  0  0  0  0  0
   69.3943   47.8225   53.6992 C   0  0  0  0  0  0  0  0  0  0  0  0
  4  5  1  0
  5  6  2  0
  5 10  1  0
  6  7  1  0
  7  1  1  0
  7  8  2  0
  1  2  2  0
  1  3  1  0
  3 16  1  0
 16 17  1  0
 17 18  2  0
 17 19  2  0
 17 20  1  0
 20 21  2  0
 20 25  1  0
 21 22  1  0
 22 23  2  0
 23 24  1  0
 24 25  2  0
  8  9  1  0
  9 11  1  0
  9 10  2  0
 11 12  2  0
 11 15  1  0
 12 13  1  0
 13 14  2  0
 14 15  1  0
M  END
>  <minimizedAffinity>  (1033) 
-8.53431

$$$$
data/reference_output_2/data/smiles/181449.pdb
     RDKit          3D

 24 26  0  0  0  0  0  0  0  0999 V2000
   68.1655   43.9638   55.7202 C   0  0  0  0  0  0  0  0  0  0  0  0
   67.7049   44.4841   54.6315 N   0  0  0  0  0  0  0  0  0  0  0  0
   68.1371   45.7656   54.0995 C   0  0  0  0  0  0  0  0  0  0  0  0
   67.9972   45.8586   52.7443 C   0  0  0  0  0  0  0  0  0  0  0  0
   68.5069   46.9657   52.0875 C   0  0  0  0  0  0  0  0  0  0  0  0
   69.1475   47.9576   52.7998 C   0  0  0  0  0  0  0  0  0  0  0  0
   69.7847   49.3482   51.9496 Cl  0  0  0  0  0  0  0  0  0  0  0  0
   69.3045   47.8931   54.1689 C   0  0  0  0  0  0  0  0  0  0  0  0
   68.7831   46.7806   54.8182 C   0  0  0  0  0  0  0  0  0  0  0  0
   69.0190   46.9168   56.2333 C   0  0  0  0  0  0  0  0  0  0  0  0
   69.1781   45.8743   57.0482 N   0  0  0  0  0  0  0  0  0  0  0  0
   69.1266   44.4985   56.6759 N   0  0  0  0  0  0  0  0  0  0  0  0
   69.9655   43.5156   57.2548 C   0  0  0  0  0  0  0  0  0  0  0  0
   69.0711   48.2110   56.8853 C   0  0  0  0  0  0  0  0  0  0  0  0
   67.8631   48.8579   57.2067 C   0  0  0  0  0  0  0  0  0  0  0  0
   67.8051   50.1323   57.6969 C   0  0  0  0  0  0  0  0  0  0  0  0
   68.9652   50.8447   57.8993 C   0  0  0  0  0  0  0  0  0  0  0  0
   70.1670   50.2699   57.6039 C   0  0  0  0  0  0  0  0  0  0  0  0
   70.1761   48.9714   57.1053 C   0  0  0  0  0  0  0  0  0  0  0  0
   67.6013   42.7098   56.0291 N   0  0  0  0  0  0  0  0  0  0  0  0
   68.5127   39.5885   58.0491 C   0  0  0  0  0  0  0  0  0  0  0  0
   68.0767   40.4774   56.9208 C   0  0  0  0  0  0  0  0  0  0  0  0
   67.7563   40.0289   55.7931 O   0  0  0  0  0  0  0  0  0  0  0  0
   68.0046   41.8825   57.0728 N   0  0  0  0  0  0  0  0  0  0  0  0
 21 22  1  0
 22 23  2  0
 22 24  1  0
 24 20  1  0
 20  1  1  0
  1  2  2  0
  1 12  1  0
  2  3  1  0
  3  4  2  0
  3  9  1  0
  4  5  1  0
  5  6  2  0
  6  7  1  0
  6  8  1  0
  8  9  2  0
  9 10  1  0
 10 14  1  0
 10 11  2  0
 14 15  2  0
 14 19  1  0
 15 16  1  0
 16 17  2  0
 17 18  1  0
 18 19  2  0
 11 12  1  0
 12 13  1  0
M  CHG  1   2   1
M  END
>  <minimizedAffinity>  (1034) 
-8.81042

$$$$
data/reference_output_2/data/smiles/181521.pdb
     RDKit          3D

 26 29  0  0  0  0  0  0  0  0999 V2000
   75.8309   34.7713   53.5250 C   0  0  0  0  0  0  0  0  0  0  0  0
   75.9757   34.8024   54.8543 N   0  0  0  0  0  0  0  0  0  0  0  0
   75.0061   35.1370   55.7247 C   0  0  0  0  0  0  0  0  0  0  0  0
   75.1942   35.1568   57.0893 C   0  0  0  0  0  0  0  0  0  0  0  0
   74.1823   35.5044   57.9616 C   0  0  0  0  0  0  0  0  0  0  0  0
   72.9199   35.8534   57.5132 C   0  0  0  0  0  0  0  0  0  0  0  0
   72.7443   35.8285   56.1424 C   0  0  0  0  0  0  0  0  0  0  0  0
   73.7502   35.4825   55.2650 C   0  0  0  0  0  0  0  0  0  0  0  0
   73.5774   35.4578   53.8988 C   0  0  0  0  0  0  0  0  0  0  0  0
   72.4274   35.7744   53.4763 O   0  0  0  0  0  0  0  0  0  0  0  0
   74.5781   35.1169   53.0780 N   0  0  0  0  0  0  0  0  0  0  0  0
   71.8533   36.2197   58.4312 C   0  0  0  0  0  0  0  0  0  0  0  0
   71.2260   35.5053   59.4271 C   0  0  0  0  0  0  0  0  0  0  0  0
   70.2956   36.2696   60.0134 N   0  0  0  0  0  0  0  0  0  0  0  0
   70.2939   37.4512   59.4367 N   0  0  0  0  0  0  0  0  0  0  0  0
   71.2288   37.4502   58.4739 C   0  0  0  0  0  0  0  0  0  0  0  0
   78.0994   34.1462   53.3313 N   0  0  0  0  0  0  0  0  0  0  0  0
   76.8729   34.4099   52.5473 C   0  0  2  0  0  0  0  0  0  0  0  0
   77.2125   35.4761   51.5832 C   0  0  0  0  0  0  0  0  0  0  0  0
   77.1576   35.1741   50.1640 C   0  0  0  0  0  0  0  0  0  0  0  0
   77.9844   35.8032   49.2703 C   0  0  0  0  0  0  0  0  0  0  0  0
   77.9196   35.5397   47.9090 C   0  0  0  0  0  0  0  0  0  0  0  0
   77.0295   34.6401   47.3973 C   0  0  0  0  0  0  0  0  0  0  0  0
   76.9964   34.4101   46.0638 F   0  0  0  0  0  0  0  0  0  0  0  0
   76.1836   33.9911   48.2805 C   0  0  0  0  0  0  0  0  0  0  0  0
   76.2462   34.2523   49.6323 C   0  0  0  0  0  0  0  0  0  0  0  0
 18 17  1  1
 18 19  1  0
 18  1  1  0
 19 20  1  0
 20 21  2  0
 20 26  1  0
 21 22  1  0
 22 23  2  0
 23 24  1  0
 23 25  1  0
 25 26  2  0
  1  2  2  0
  1 11  1  0
  2  3  1  0
  3  4  2  0
  3  8  1  0
  4  5  1  0
  5  6  2  0
  6 12  1  0
  6  7  1  0
 12 13  1  0
 12 16  2  0
 13 14  2  0
 14 15  1  0
 15 16  1  0
  7  8  2  0
  8  9  1  0
  9 10  2  0
  9 11  1  0
M  CHG  1  17   1
M  END
>  <minimizedAffinity>  (1035) 
-8.74655

$$$$
data/reference_output_2/data/smiles/181798.pdb
     RDKit          3D

 32 35  0  0  0  0  0  0  0  0999 V2000
   72.2766   41.5716   59.9702 C   0  0  2  0  0  0  0  0  0  0  0  0
   72.7690   40.1764   59.6589 C   0  0  0  0  0  0  0  0  0  0  0  0
   73.2433   38.8629   59.3529 C   0  0  0  0  0  0  0  0  0  0  0  0
   73.3856   38.4565   59.2514 C   0  0  0  0  0  0  0  0  0  0  0  0
   72.2113   37.3584   58.3990 C   0  0  0  0  0  0  0  0  0  0  0  0
   71.3848   38.1511   58.4048 C   0  0  0  0  0  0  0  0  0  0  0  0
   70.4903   39.0266   58.3958 C   0  0  0  0  0  0  0  0  0  0  0  0
   69.5107   39.9896   58.3637 C   0  0  0  0  0  0  0  0  0  0  0  0
   70.2500   41.3293   58.4084 C   0  0  1  0  0  0  0  0  0  0  0  0
   69.2782   42.4098   58.8869 C   0  0  0  0  0  0  0  0  0  0  0  0
   68.1083   42.6873   59.0393 O   0  0  0  0  0  0  0  0  0  0  0  0
   70.5280   43.0975   59.1383 N   0  0  0  0  0  0  0  0  0  0  0  0
   70.8894   44.3931   58.8731 C   0  0  0  0  0  0  0  0  0  0  0  0
   72.0336   44.9181   59.0695 O   0  0  0  0  0  0  0  0  0  0  0  0
   69.9623   45.3794   58.3154 N   0  0  0  0  0  0  0  0  0  0  0  0
   70.9060   41.7589   59.6550 C   0  0  2  0  0  0  0  0  0  0  0  0
   73.2828   42.4744   59.6008 O   0  0  0  0  0  0  0  0  0  0  0  0
   75.4904   42.2844   58.3745 C   0  0  0  0  0  0  0  0  0  0  0  0
   74.0062   42.3872   58.3775 C   0  0  0  0  0  0  0  0  0  0  0  0
   73.3657   42.4073   57.3187 O   0  0  0  0  0  0  0  0  0  0  0  0
   70.3202   46.7016   58.0426 C   0  0  0  0  0  0  0  0  0  0  0  0
   69.3122   47.5873   57.4060 C   0  0  0  0  0  0  0  0  0  0  0  0
   69.2100   47.5719   55.9294 C   0  0  0  0  0  0  0  0  0  0  0  0
   69.7217   48.5025   55.1077 C   0  0  0  0  0  0  0  0  0  0  0  0
   69.5439   48.4355   53.7200 C   0  0  0  0  0  0  0  0  0  0  0  0
   68.8393   47.4026   53.1498 C   0  0  0  0  0  0  0  0  0  0  0  0
   68.6351   47.3085   51.7456 C   0  0  0  0  0  0  0  0  0  0  0  0
   67.9251   46.2510   51.2894 C   0  0  0  0  0  0  0  0  0  0  0  0
   67.3859   45.2634   52.1219 C   0  0  0  0  0  0  0  0  0  0  0  0
   67.5899   45.3757   53.4434 C   0  0  0  0  0  0  0  0  0  0  0  0
   68.3183   46.4421   53.9873 C   0  0  0  0  0  0  0  0  0  0  0  0
   68.4855   46.5059   55.3467 C   0  0  0  0  0  0  0  0  0  0  0  0
 18 19  1  0
 19 20  2  0
 19 17  1  0
  1 17  1  6
  1  2  1  0
  1 16  1  0
  2  3  3  0
  3  4  1  0
  4  5  2  0
  5  6  1  0
  6  7  3  0
  7  8  1  0
  9  8  1  1
  9 10  1  0
  9 16  1  0
 10 11  2  0
 10 12  1  0
 12 13  1  0
 16 12  1  6
 13 14  2  0
 13 15  1  0
 15 21  1  0
 21 22  1  0
 22 23  1  0
 23 24  2  0
 23 32  1  0
 24 25  1  0
 25 26  2  0
 26 27  1  0
 26 31  1  0
 27 28  2  0
 28 29  1  0
 29 30  2  0
 30 31  1  0
 31 32  2  0
M  END
>  <minimizedAffinity>  (1036) 
-9.12255

$$$$
data/reference_output_2/data/smiles/181935.pdb
     RDKit          3D

 25 27  0  0  0  0  0  0  0  0999 V2000
   70.9591   45.8581   58.3844 C   0  0  2  0  0  0  0  0  0  0  0  0
   71.5196   46.3782   59.6400 C   0  0  0  0  0  0  0  0  0  0  0  0
   71.6340   45.6581   60.6618 O   0  0  0  0  0  0  0  0  0  0  0  0
   71.9529   47.7540   59.7119 C   0  0  0  0  0  0  0  0  0  0  0  0
   71.6077   48.6104   58.7752 C   0  0  0  0  0  0  0  0  0  0  0  0
   70.7792   48.2289   57.6246 C   0  0  0  0  0  0  0  0  0  0  0  0
   70.0761   46.9252   57.7295 C   0  0  1  0  0  0  0  0  0  0  0  0
   70.1209   44.7286   58.5897 O   0  0  0  0  0  0  0  0  0  0  0  0
   71.5735   43.1411   57.9497 O   0  0  0  0  0  0  0  0  0  0  0  0
   70.3743   43.5223   57.9533 C   0  0  0  0  0  0  0  0  0  0  0  0
   69.3095   42.7361   57.3197 C   0  0  0  0  0  0  0  0  0  0  0  0
   69.1249   41.4000   57.5897 C   0  0  0  0  0  0  0  0  0  0  0  0
   68.1298   40.6476   57.0018 C   0  0  0  0  0  0  0  0  0  0  0  0
   67.2689   41.2371   56.0998 C   0  0  0  0  0  0  0  0  0  0  0  0
   67.4313   42.5760   55.8105 C   0  0  0  0  0  0  0  0  0  0  0  0
   68.4470   43.3184   56.4181 C   0  0  0  0  0  0  0  0  0  0  0  0
   69.6230   46.4119   56.5133 O   0  0  0  0  0  0  0  0  0  0  0  0
   68.5063   46.8878   55.8496 C   0  0  0  0  0  0  0  0  0  0  0  0
   67.5816   47.3602   56.5202 O   0  0  0  0  0  0  0  0  0  0  0  0
   68.4691   46.8108   54.3872 C   0  0  0  0  0  0  0  0  0  0  0  0
   67.7685   45.8244   53.7278 C   0  0  0  0  0  0  0  0  0  0  0  0
   67.7322   45.7507   52.3498 C   0  0  0  0  0  0  0  0  0  0  0  0
   68.4082   46.6781   51.5728 C   0  0  0  0  0  0  0  0  0  0  0  0
   69.1084   47.6636   52.2342 C   0  0  0  0  0  0  0  0  0  0  0  0
   69.1415   47.7324   53.6148 C   0  0  0  0  0  0  0  0  0  0  0  0
  9 10  2  0
 10  8  1  0
 10 11  1  0
  1  8  1  1
  1  2  1  0
  1  7  1  0
  2  3  2  0
  2  4  1  0
  4  5  2  0
  5  6  1  0
  6  7  1  0
  7 17  1  6
 17 18  1  0
 18 19  2  0
 18 20  1  0
 20 21  2  0
 20 25  1  0
 21 22  1  0
 22 23  2  0
 23 24  1  0
 24 25  2  0
 11 12  2  0
 11 16  1  0
 12 13  1  0
 13 14  2  0
 14 15  1  0
 15 16  2  0
M  END
>  <minimizedAffinity>  (1037) 
-8.69356

$$$$
data/reference_output_2/data/smiles/181944.pdb
     RDKit          3D

 26 29  0  0  0  0  0  0  0  0999 V2000
   72.4490   53.1283   55.6164 C   0  0  0  0  0  0  0  0  0  0  0  0
   71.1086   53.3782   55.5137 N   0  0  0  0  0  0  0  0  0  0  0  0
   70.4837   52.3122   54.9883 C   0  0  0  0  0  0  0  0  0  0  0  0
   69.1582   52.0443   54.6782 C   0  0  0  0  0  0  0  0  0  0  0  0
   68.7646   50.8364   54.1300 C   0  0  0  0  0  0  0  0  0  0  0  0
   69.6845   49.8428   53.8668 C   0  0  0  0  0  0  0  0  0  0  0  0
   71.0008   50.1152   54.1767 C   0  0  0  0  0  0  0  0  0  0  0  0
   71.3987   51.3180   54.7244 C   0  0  0  0  0  0  0  0  0  0  0  0
   72.6176   51.8597   55.1277 C   0  0  0  0  0  0  0  0  0  0  0  0
   69.2470   48.5793   53.2880 C   0  0  0  0  0  0  0  0  0  0  0  0
   68.5800   47.6301   54.0301 C   0  0  0  0  0  0  0  0  0  0  0  0
   68.1634   46.4262   53.4741 C   0  0  0  0  0  0  0  0  0  0  0  0
   68.4250   46.1755   52.1444 C   0  0  0  0  0  0  0  0  0  0  0  0
   69.0828   47.1183   51.4251 N   0  0  0  0  0  0  0  0  0  0  0  0
   69.4897   48.2918   51.9648 C   0  0  0  0  0  0  0  0  0  0  0  0
   73.9136   54.0048   57.4679 N   0  0  0  0  0  0  0  0  0  0  0  0
   73.3864   54.1002   56.1580 C   0  0  0  0  0  0  0  0  0  0  0  0
   73.7484   55.0622   55.4518 O   0  0  0  0  0  0  0  0  0  0  0  0
   74.1244   51.0040   54.9908 S   0  0  0  0  0  0  0  0  0  0  0  0
   74.2130   50.3527   53.6207 O   0  0  0  0  0  0  0  0  0  0  0  0
   75.2659   51.9343   55.1242 O   0  0  0  0  0  0  0  0  0  0  0  0
   74.1195   49.7572   56.2134 N   0  0  0  0  0  0  0  0  0  0  0  0
   75.4871   49.4300   56.5400 C   0  0  0  0  0  0  0  0  0  0  0  0
   75.3291   48.7108   57.8678 C   0  0  0  0  0  0  0  0  0  0  0  0
   74.2892   49.5438   58.5609 C   0  0  0  0  0  0  0  0  0  0  0  0
   73.5373   50.2445   57.4334 C   0  0  0  0  0  0  0  0  0  0  0  0
 16 17  1  0
 17 18  2  0
 17  1  1  0
  1  2  1  0
  1  9  2  0
  2  3  1  0
  3  4  2  0
  3  8  1  0
  4  5  1  0
  5  6  2  0
  6 10  1  0
  6  7  1  0
 10 11  2  0
 10 15  1  0
 11 12  1  0
 12 13  2  0
 13 14  1  0
 14 15  2  0
  7  8  2  0
  8  9  1  0
  9 19  1  0
 19 20  2  0
 19 21  2  0
 19 22  1  0
 22 23  1  0
 22 26  1  0
 23 24  1  0
 24 25  1  0
 25 26  1  0
M  END
>  <minimizedAffinity>  (1038) 
-8.52462

$$$$
data/reference_output_2/data/smiles/182032.pdb
     RDKit          3D

 23 24  0  0  0  0  0  0  0  0999 V2000
   69.4325   46.3475   57.0961 C   0  0  0  0  0  0  0  0  0  0  0  0
   69.9976   47.4534   57.7450 C   0  0  0  0  0  0  0  0  0  0  0  0
   71.0227   47.2510   58.5870 N   0  0  0  0  0  0  0  0  0  0  0  0
   71.5301   46.0305   58.8321 C   0  0  0  0  0  0  0  0  0  0  0  0
   70.9515   44.9365   58.1748 C   0  0  0  0  0  0  0  0  0  0  0  0
   69.8971   45.0832   57.3008 C   0  0  0  0  0  0  0  0  0  0  0  0
   68.3692   46.6148   56.2393 N   0  0  0  0  0  0  0  0  0  0  0  0
   69.0449   47.4303   52.6782 C   0  0  0  0  0  0  0  0  0  0  0  0
   68.3727   46.4142   52.0151 C   0  0  0  0  0  0  0  0  0  0  0  0
   67.6954   45.4600   52.7558 C   0  0  0  0  0  0  0  0  0  0  0  0
   67.6824   45.5066   54.1330 C   0  0  0  0  0  0  0  0  0  0  0  0
   68.3506   46.5169   54.8259 C   0  0  0  0  0  0  0  0  0  0  0  0
   69.0078   47.4414   54.0393 C   0  0  0  0  0  0  0  0  0  0  0  0
   70.3122   49.2345   51.2772 N   0  0  0  0  0  0  0  0  0  0  0  0
   69.7524   48.4280   51.9017 C   0  0  0  0  0  0  0  0  0  0  0  0
   69.3162   43.9896   56.6685 N   0  0  0  0  0  0  0  0  0  0  0  0
   68.8127   42.5435   57.4503 S   0  0  0  0  0  0  0  0  0  0  0  0
   68.4784   42.8424   58.9058 O   0  0  0  0  0  0  0  0  0  0  0  0
   69.9792   41.6015   57.4984 O   0  0  0  0  0  0  0  0  0  0  0  0
   67.4841   41.7214   56.6646 C   0  0  0  0  0  0  0  0  0  0  0  0
   67.0998   42.5205   55.5789 F   0  0  0  0  0  0  0  0  0  0  0  0
   66.3487   41.7118   57.4872 F   0  0  0  0  0  0  0  0  0  0  0  0
   67.7593   40.4892   56.1697 F   0  0  0  0  0  0  0  0  0  0  0  0
 14 15  3  0
 15  8  1  0
  8  9  2  0
  8 13  1  0
  9 10  1  0
 10 11  2  0
 11 12  1  0
 12  7  1  0
 12 13  2  0
  7  1  1  0
  1  2  2  0
  1  6  1  0
  2  3  1  0
  3  4  2  0
  4  5  1  0
  5  6  2  0
  6 16  1  0
 16 17  1  0
 17 18  2  0
 17 19  2  0
 17 20  1  0
 20 21  1  0
 20 22  1  0
 20 23  1  0
M  END
>  <minimizedAffinity>  (1039) 
-8.59609

$$$$
data/reference_output_2/data/smiles/182049.pdb
     RDKit          3D

 29 32  0  0  0  0  0  0  0  0999 V2000
   68.9035   46.4032   55.3573 C   0  0  0  0  0  0  0  0  0  0  0  0
   68.1752   45.5013   54.6139 C   0  0  0  0  0  0  0  0  0  0  0  0
   67.8314   45.7864   53.3029 C   0  0  0  0  0  0  0  0  0  0  0  0
   68.2116   46.9752   52.7222 C   0  0  0  0  0  0  0  0  0  0  0  0
   68.9563   47.9230   53.4442 C   0  0  0  0  0  0  0  0  0  0  0  0
   69.2671   47.5843   54.7396 C   0  0  0  0  0  0  0  0  0  0  0  0
   69.9304   44.9141   57.1528 N   0  0  0  0  0  0  0  0  0  0  0  0
   69.2539   46.0771   56.7354 C   0  0  0  0  0  0  0  0  0  0  0  0
   68.9376   46.8867   57.6443 O   0  0  0  0  0  0  0  0  0  0  0  0
   70.2344   44.6776   58.5448 C   0  0  0  0  0  0  0  0  0  0  0  0
   67.6478   39.8219   58.9226 C   0  0  0  0  0  0  0  0  0  0  0  0
   68.6996   40.8210   59.0107 N   0  0  0  0  0  0  0  0  0  0  0  0
   68.3321   41.9209   59.8761 C   0  0  0  0  0  0  0  0  0  0  0  0
   69.4885   42.8280   60.0327 C   0  0  0  0  0  0  0  0  0  0  0  0
   70.2472   43.1621   58.8072 C   0  0  0  0  0  0  0  0  0  0  0  0
   69.9095   42.4086   57.5791 C   0  0  0  0  0  0  0  0  0  0  0  0
   68.8518   41.3820   57.6839 C   0  0  0  0  0  0  0  0  0  0  0  0
   69.3408   49.2083   52.7979 C   0  0  0  0  0  0  0  0  0  0  0  0
   70.3074   50.0090   53.5266 C   0  0  0  0  0  0  0  0  0  0  0  0
   71.6112   49.6398   53.4917 N   0  0  0  0  0  0  0  0  0  0  0  0
   72.5563   50.2889   54.1516 N   0  0  0  0  0  0  0  0  0  0  0  0
   72.2634   51.3681   54.9041 C   0  0  0  0  0  0  0  0  0  0  0  0
   73.1379   52.0066   55.5438 O   0  0  0  0  0  0  0  0  0  0  0  0
   70.9506   51.7716   54.9635 C   0  0  0  0  0  0  0  0  0  0  0  0
   69.9674   51.0832   54.2659 C   0  0  0  0  0  0  0  0  0  0  0  0
   68.6069   51.6461   54.3933 C   0  0  0  0  0  0  0  0  0  0  0  0
   68.2867   51.6929   55.8520 C   0  0  0  0  0  0  0  0  0  0  0  0
   69.3074   52.5149   56.5950 C   0  0  0  0  0  0  0  0  0  0  0  0
   70.4871   52.9377   55.7634 C   0  0  0  0  0  0  0  0  0  0  0  0
 11 12  1  0
 12 13  1  0
 12 17  1  0
 13 14  1  0
 14 15  1  0
 15 10  1  0
 15 16  1  0
 10  7  1  0
  7  8  1  0
  8  9  2  0
  8  1  1  0
  1  2  2  0
  1  6  1  0
  2  3  1  0
  3  4  2  0
  4  5  1  0
  5 18  1  0
  5  6  2  0
 18 19  1  0
 19 20  2  0
 19 25  1  0
 20 21  1  0
 21 22  1  0
 22 23  2  0
 22 24  1  0
 24 25  2  0
 24 29  1  0
 25 26  1  0
 26 27  1  0
 27 28  1  0
 28 29  1  0
 16 17  1  0
M  CHG  1  12   1
M  END
>  <minimizedAffinity>  (1040) 
-8.58336

$$$$
data/reference_output_2/data/smiles/182102.pdb
     RDKit          3D

 23 25  0  0  0  0  0  0  0  0999 V2000
   68.1213   41.2354   56.7509 C   0  0  0  0  0  0  0  0  0  0  0  0
   68.6004   41.0229   57.9471 C   0  0  0  0  0  0  0  0  0  0  0  0
   68.6437   39.6889   58.2360 N   0  0  0  0  0  0  0  0  0  0  0  0
   68.2028   39.1383   57.2018 N   0  0  0  0  0  0  0  0  0  0  0  0
   67.8365   39.9399   56.1957 N   0  0  0  0  0  0  0  0  0  0  0  0
   68.1982   43.5270   55.9272 N   0  0  0  0  0  0  0  0  0  0  0  0
   67.4306   42.4175   56.1340 C   0  0  0  0  0  0  0  0  0  0  0  0
   66.2331   42.4764   55.8559 O   0  0  0  0  0  0  0  0  0  0  0  0
   68.0472   46.2691   53.4935 C   0  0  0  0  0  0  0  0  0  0  0  0
   68.6360   47.3015   54.1799 C   0  0  0  0  0  0  0  0  0  0  0  0
   69.0932   47.1719   55.5250 C   0  0  0  0  0  0  0  0  0  0  0  0
   68.9929   46.0194   56.2450 C   0  0  0  0  0  0  0  0  0  0  0  0
   68.3813   44.8045   55.6455 C   0  0  0  0  0  0  0  0  0  0  0  0
   68.0209   45.2079   54.3630 C   0  0  0  0  0  0  0  0  0  0  0  0
   67.3648   45.8601   51.0760 C   0  0  0  0  0  0  0  0  0  0  0  0
   67.6769   46.0550   52.2113 C   0  0  0  0  0  0  0  0  0  0  0  0
   68.9978   39.2682   59.6305 C   0  0  0  0  0  0  0  0  0  0  0  0
   70.1385   38.2703   59.3454 C   0  0  0  0  0  0  0  0  0  0  0  0
   70.1482   37.0152   59.7653 C   0  0  0  0  0  0  0  0  0  0  0  0
   71.0350   36.0340   59.2945 C   0  0  0  0  0  0  0  0  0  0  0  0
   71.9509   36.4525   58.2961 C   0  0  0  0  0  0  0  0  0  0  0  0
   71.9410   37.7380   57.8866 C   0  0  0  0  0  0  0  0  0  0  0  0
   71.0705   38.7221   58.3658 C   0  0  0  0  0  0  0  0  0  0  0  0
 15 16  3  0
 16  9  1  0
  9 10  2  0
  9 14  1  0
 10 11  1  0
 11 12  2  0
 12 13  1  0
 13  6  1  0
 13 14  2  0
  6  7  1  0
  7  8  2  0
  7  1  1  0
  1  2  2  0
  1  5  1  0
  2  3  1  0
  3 17  1  0
  3  4  1  0
 17 18  1  0
 18 19  2  0
 18 23  1  0
 19 20  1  0
 20 21  2  0
 21 22  1  0
 22 23  2  0
  4  5  2  0
M  END
>  <minimizedAffinity>  (1041) 
-8.52331

$$$$
data/reference_output_2/data/smiles/182165.pdb
     RDKit          3D

 27 30  0  0  0  0  0  0  0  0999 V2000
   73.6377   50.7221   56.7387 C   0  0  0  0  0  0  0  0  0  0  0  0
   73.8647   52.0340   56.5092 N   0  0  0  0  0  0  0  0  0  0  0  0
   73.4220   52.6840   55.4199 C   0  0  0  0  0  0  0  0  0  0  0  0
   72.7045   51.9319   54.5141 C   0  0  0  0  0  0  0  0  0  0  0  0
   72.4458   50.5766   54.7044 C   0  0  0  0  0  0  0  0  0  0  0  0
   72.9375   50.0381   55.8326 N   0  0  0  0  0  0  0  0  0  0  0  0
   72.4534   46.3944   60.6329 C   0  0  0  0  0  0  0  0  0  0  0  0
   73.1104   47.7015   60.9251 C   0  0  0  0  0  0  0  0  0  0  0  0
   73.0497   48.1084   62.1162 O   0  0  0  0  0  0  0  0  0  0  0  0
   73.7769   48.4613   59.9238 N   0  0  0  0  0  0  0  0  0  0  0  0
   73.8302   47.9365   58.5858 C   0  0  0  0  0  0  0  0  0  0  0  0
   74.8166   48.8123   57.7885 C   0  0  0  0  0  0  0  0  0  0  0  0
   74.2035   50.1574   57.9036 N   0  0  0  0  0  0  0  0  0  0  0  0
   74.2446   50.7599   59.1970 C   0  0  0  0  0  0  0  0  0  0  0  0
   74.3527   49.7299   60.3047 C   0  0  0  0  0  0  0  0  0  0  0  0
   71.7433   49.8491   53.7223 N   0  0  0  0  0  0  0  0  0  0  0  0
   70.2850   49.9991   53.6731 C   0  0  0  0  0  0  0  0  0  0  0  0
   69.6580   48.8494   54.3774 C   0  0  0  0  0  0  0  0  0  0  0  0
   69.6467   48.7985   55.7489 C   0  0  0  0  0  0  0  0  0  0  0  0
   69.0730   47.7600   56.4393 C   0  0  0  0  0  0  0  0  0  0  0  0
   68.4866   46.7260   55.7608 C   0  0  0  0  0  0  0  0  0  0  0  0
   68.4904   46.7604   54.3797 C   0  0  0  0  0  0  0  0  0  0  0  0
   67.9044   45.7256   53.6778 C   0  0  0  0  0  0  0  0  0  0  0  0
   67.8876   45.7175   52.3071 C   0  0  0  0  0  0  0  0  0  0  0  0
   68.4619   46.7592   51.6150 C   0  0  0  0  0  0  0  0  0  0  0  0
   69.0479   47.7968   52.3395 C   0  0  0  0  0  0  0  0  0  0  0  0
   69.0682   47.8083   53.7029 C   0  0  0  0  0  0  0  0  0  0  0  0
  7  8  1  0
  8  9  2  0
  8 10  1  0
 10 11  1  0
 10 15  1  0
 11 12  1  0
 12 13  1  0
 13  1  1  0
 13 14  1  0
  1  2  2  0
  1  6  1  0
  2  3  1  0
  3  4  2  0
  4  5  1  0
  5 16  1  0
  5  6  2  0
 16 17  1  0
 17 18  1  0
 18 19  2  0
 18 27  1  0
 19 20  1  0
 20 21  2  0
 21 22  1  0
 22 23  1  0
 22 27  2  0
 23 24  2  0
 24 25  1  0
 25 26  2  0
 26 27  1  0
 14 15  1  0
M  END
>  <minimizedAffinity>  (1042) 
-8.53271

$$$$
data/reference_output_2/data/smiles/182323.pdb
     RDKit          3D

 29 31  0  0  0  0  0  0  0  0999 V2000
   73.0329   49.4908   57.2801 C   0  0  1  0  0  0  0  0  0  0  0  0
   72.5962   48.2504   57.9754 C   0  0  0  0  0  0  0  0  0  0  0  0
   71.3794   48.5228   58.8851 C   0  0  0  0  0  0  0  0  0  0  0  0
   70.2964   48.8952   57.8978 C   0  0  1  0  0  0  0  0  0  0  0  0
   70.6311   50.3118   57.4588 C   0  0  0  0  0  0  0  0  0  0  0  0
   72.0258   50.5442   57.0496 C   0  0  0  0  0  0  0  0  0  0  0  0
   74.2223   51.4058   58.2397 N   0  0  0  0  0  0  0  0  0  0  0  0
   74.3112   50.0033   57.9251 C   0  0  2  0  0  0  0  0  0  0  0  0
   75.4462   49.8035   57.0001 C   0  0  0  0  0  0  0  0  0  0  0  0
   75.1863   49.5271   55.7775 O   0  0  0  0  0  0  0  0  0  0  0  0
   76.8298   49.8998   57.3725 N   0  0  0  0  0  0  0  0  0  0  0  0
   77.9315   49.6791   56.4624 C   0  0  0  0  0  0  0  0  0  0  0  0
   79.0304   50.5254   56.9955 C   0  0  1  0  0  0  0  0  0  0  0  0
   79.1497   51.6583   56.2241 F   0  0  0  0  0  0  0  0  0  0  0  0
   78.6852   50.8713   58.4125 C   0  0  2  0  0  0  0  0  0  0  0  0
   79.6376   50.3668   59.3050 F   0  0  0  0  0  0  0  0  0  0  0  0
   77.3589   50.2218   58.6615 C   0  0  0  0  0  0  0  0  0  0  0  0
   70.3840   47.9553   56.8161 N   0  0  0  0  0  0  0  0  0  0  0  0
   68.9482   47.0088   56.6188 S   0  0  0  0  0  0  0  0  0  0  0  0
   69.2575   45.6321   57.2003 O   0  0  0  0  0  0  0  0  0  0  0  0
   67.7826   47.5404   57.3529 O   0  0  0  0  0  0  0  0  0  0  0  0
   68.6966   46.8464   54.9019 C   0  0  0  0  0  0  0  0  0  0  0  0
   68.0485   45.7741   54.3583 C   0  0  0  0  0  0  0  0  0  0  0  0
   67.8568   45.6529   52.9868 C   0  0  0  0  0  0  0  0  0  0  0  0
   68.3370   46.6431   52.1676 C   0  0  0  0  0  0  0  0  0  0  0  0
   68.1494   46.5230   50.8290 F   0  0  0  0  0  0  0  0  0  0  0  0
   69.0007   47.7493   52.6782 C   0  0  0  0  0  0  0  0  0  0  0  0
   69.1698   47.8331   54.0460 C   0  0  0  0  0  0  0  0  0  0  0  0
   69.8163   48.9208   54.5255 F   0  0  0  0  0  0  0  0  0  0  0  0
  8  7  1  6
  8  9  1  0
  8  1  1  0
  9 10  2  0
  9 11  1  0
 11 12  1  0
 11 17  1  0
 12 13  1  0
 13 14  1  6
 13 15  1  0
 15 16  1  1
 15 17  1  0
  1  2  1  1
  1  6  1  0
  2  3  1  0
  3  4  1  0
  4 18  1  6
  4  5  1  0
 18 19  1  0
 19 20  2  0
 19 21  2  0
 19 22  1  0
 22 23  2  0
 22 28  1  0
 23 24  1  0
 24 25  2  0
 25 26  1  0
 25 27  1  0
 27 28  2  0
 28 29  1  0
  5  6  1  0
M  CHG  1   7   1
M  END
>  <minimizedAffinity>  (1043) 
-8.51834

$$$$
data/reference_output_2/data/smiles/182341.pdb
     RDKit          3D

 28 31  0  0  0  0  0  0  0  0999 V2000
   70.4387   43.4293   57.8382 C   0  0  0  0  0  0  0  0  0  0  0  0
   70.0625   44.5516   57.9008 N   0  0  0  0  0  0  0  0  0  0  0  0
   70.7814   45.6064   58.1884 C   0  0  0  0  0  0  0  0  0  0  0  0
   72.0890   45.4524   58.4477 C   0  0  0  0  0  0  0  0  0  0  0  0
   72.2024   43.6135   58.2375 S   0  0  0  0  0  0  0  0  0  0  0  0
   72.8125   46.6560   58.7517 C   0  0  0  0  0  0  0  0  0  0  0  0
   71.8747   47.7504   58.2660 C   0  0  0  0  0  0  0  0  0  0  0  0
   70.5261   47.0920   58.3248 C   0  0  1  0  0  0  0  0  0  0  0  0
   68.6518   41.6757   58.1300 C   0  0  0  0  0  0  0  0  0  0  0  0
   68.0883   42.4954   58.8993 O   0  0  0  0  0  0  0  0  0  0  0  0
   69.8701   42.0877   57.5465 N   0  0  0  0  0  0  0  0  0  0  0  0
   68.0547   40.3365   57.8544 C   0  0  2  0  0  0  0  0  0  0  0  0
   69.1445   39.3266   58.2496 C   0  0  0  0  0  0  0  0  0  0  0  0
   67.1731   41.1945   55.7712 C   0  0  0  0  0  0  0  0  0  0  0  0
   67.8205   40.1155   56.4528 N   0  0  0  0  0  0  0  0  0  0  0  0
   69.5798   47.6022   57.3328 C   0  0  0  0  0  0  0  0  0  0  0  0
   68.3287   47.5371   57.5677 O   0  0  0  0  0  0  0  0  0  0  0  0
   69.9479   48.1768   56.0989 N   0  0  0  0  0  0  0  0  0  0  0  0
   68.9699   48.6677   55.1503 C   0  0  1  0  0  0  0  0  0  0  0  0
   69.2822   50.0704   54.7052 C   0  0  0  0  0  0  0  0  0  0  0  0
   69.8012   50.2217   53.3293 C   0  0  0  0  0  0  0  0  0  0  0  0
   70.3310   48.9643   52.6855 C   0  0  0  0  0  0  0  0  0  0  0  0
   69.3776   47.8369   52.8191 C   0  0  0  0  0  0  0  0  0  0  0  0
   69.1357   46.9435   51.8025 C   0  0  0  0  0  0  0  0  0  0  0  0
   68.2398   45.9103   51.9709 C   0  0  0  0  0  0  0  0  0  0  0  0
   67.5990   45.8020   53.1853 C   0  0  0  0  0  0  0  0  0  0  0  0
   67.8477   46.7092   54.2101 C   0  0  0  0  0  0  0  0  0  0  0  0
   68.7426   47.7400   54.0381 C   0  0  0  0  0  0  0  0  0  0  0  0
 14 15  1  0
 15 12  1  0
 12 13  1  6
 12  9  1  0
  9 10  2  0
  9 11  1  0
 11  1  1  0
  1  2  2  0
  1  5  1  0
  2  3  1  0
  3  4  2  0
  3  8  1  0
  4  5  1  0
  4  6  1  0
  6  7  1  0
  7  8  1  0
  8 16  1  6
 16 17  2  0
 16 18  1  0
 19 18  1  6
 19 20  1  0
 19 28  1  0
 20 21  1  0
 21 22  1  0
 22 23  1  0
 23 24  2  0
 23 28  1  0
 24 25  1  0
 25 26  2  0
 26 27  1  0
 27 28  2  0
M  CHG  1  15   1
M  END
>  <minimizedAffinity>  (1044) 
-8.69681

$$$$
data/reference_output_2/data/smiles/182409.pdb
     RDKit          3D

 24 26  0  0  0  0  0  0  0  0999 V2000
   68.6741   44.5156   56.2653 C   0  0  0  0  0  0  0  0  0  0  0  0
   69.4540   45.3775   56.9527 N   0  0  0  0  0  0  0  0  0  0  0  0
   70.2909   45.0196   57.9232 C   0  0  0  0  0  0  0  0  0  0  0  0
   70.3575   43.6670   58.2428 C   0  0  0  0  0  0  0  0  0  0  0  0
   69.5799   42.7646   57.5659 C   0  0  0  0  0  0  0  0  0  0  0  0
   68.7751   43.2195   56.6127 N   0  0  0  0  0  0  0  0  0  0  0  0
   69.6478   41.3579   57.8970 C   0  0  0  0  0  0  0  0  0  0  0  0
   70.8643   40.8058   58.3067 C   0  0  0  0  0  0  0  0  0  0  0  0
   71.0317   39.4866   58.6411 C   0  0  0  0  0  0  0  0  0  0  0  0
   69.9388   38.6581   58.5690 C   0  0  0  0  0  0  0  0  0  0  0  0
   68.7080   39.1329   58.1720 C   0  0  0  0  0  0  0  0  0  0  0  0
   68.5842   40.4903   57.8391 C   0  0  0  0  0  0  0  0  0  0  0  0
   71.1260   45.9959   58.6483 C   0  0  0  0  0  0  0  0  0  0  0  0
   71.4289   45.7363   60.0101 N   0  0  0  0  0  0  0  0  0  0  0  0
   71.5392   47.0071   58.0657 O   0  0  0  0  0  0  0  0  0  0  0  0
   67.8111   44.9236   55.2583 O   0  0  0  0  0  0  0  0  0  0  0  0
   69.1326   47.9011   52.7101 C   0  0  0  0  0  0  0  0  0  0  0  0
   68.6346   46.7383   52.1504 C   0  0  0  0  0  0  0  0  0  0  0  0
   68.1877   45.7305   52.9926 C   0  0  0  0  0  0  0  0  0  0  0  0
   68.2423   45.8937   54.3675 C   0  0  0  0  0  0  0  0  0  0  0  0
   68.7502   47.0770   54.8837 C   0  0  0  0  0  0  0  0  0  0  0  0
   69.2020   48.0959   54.0732 C   0  0  0  0  0  0  0  0  0  0  0  0
   69.9572   49.7461   51.0579 N   0  0  0  0  0  0  0  0  0  0  0  0
   69.5899   48.9280   51.8046 C   0  0  0  0  0  0  0  0  0  0  0  0
 23 24  3  0
 24 17  1  0
 17 18  2  0
 17 22  1  0
 18 19  1  0
 19 20  2  0
 20 16  1  0
 20 21  1  0
 16  1  1  0
  1  2  2  0
  1  6  1  0
  2  3  1  0
  3 13  1  0
  3  4  2  0
 13 14  1  0
 13 15  2  0
  4  5  1  0
  5  7  1  0
  5  6  2  0
  7  8  2  0
  7 12  1  0
  8  9  1  0
  9 10  2  0
 10 11  1  0
 11 12  2  0
 21 22  2  0
M  END
>  <minimizedAffinity>  (1045) 
-8.66423

$$$$
data/reference_output_2/data/smiles/182449.pdb
     RDKit          3D

 26 29  0  0  0  0  0  0  0  0999 V2000
   67.8102   39.2566   57.2392 O   0  0  0  0  0  0  0  0  0  0  0  0
   68.3411   40.4064   57.2869 C   0  0  0  0  0  0  0  0  0  0  0  0
   67.7624   41.4759   56.4817 C   0  0  0  0  0  0  0  0  0  0  0  0
   68.4305   42.7525   56.5601 N   0  0  0  0  0  0  0  0  0  0  0  0
   68.1178   43.9042   55.9126 N   0  0  0  0  0  0  0  0  0  0  0  0
   68.9737   44.8753   56.2530 C   0  0  0  0  0  0  0  0  0  0  0  0
   69.8464   44.2919   57.1467 C   0  0  0  0  0  0  0  0  0  0  0  0
   69.4870   42.9525   57.3269 C   0  0  0  0  0  0  0  0  0  0  0  0
   70.0439   41.8777   58.1349 C   0  0  0  0  0  0  0  0  0  0  0  0
   71.0472   42.0770   58.8608 O   0  0  0  0  0  0  0  0  0  0  0  0
   69.4671   40.5695   58.1236 N   0  0  0  0  0  0  0  0  0  0  0  0
   68.9557   46.2424   55.7634 C   0  0  0  0  0  0  0  0  0  0  0  0
   68.6204   46.5047   54.4636 C   0  0  0  0  0  0  0  0  0  0  0  0
   68.6030   47.8254   53.9902 C   0  0  0  0  0  0  0  0  0  0  0  0
   68.9294   48.8471   54.8587 C   0  0  0  0  0  0  0  0  0  0  0  0
   69.2687   48.6036   56.1662 C   0  0  0  0  0  0  0  0  0  0  0  0
   69.2756   47.2773   56.6015 C   0  0  0  0  0  0  0  0  0  0  0  0
   69.9536   39.4557   58.8926 C   0  0  0  0  0  0  0  0  0  0  0  0
   71.2839   38.9896   58.3541 C   0  0  0  0  0  0  0  0  0  0  0  0
   71.4980   37.5404   58.4425 C   0  0  0  0  0  0  0  0  0  0  0  0
   72.3234   36.8482   57.5514 C   0  0  0  0  0  0  0  0  0  0  0  0
   72.5311   35.4923   57.6238 C   0  0  0  0  0  0  0  0  0  0  0  0
   71.9080   34.7561   58.6099 C   0  0  0  0  0  0  0  0  0  0  0  0
   72.0946   33.4062   58.7069 F   0  0  0  0  0  0  0  0  0  0  0  0
   71.0889   35.4211   59.4986 C   0  0  0  0  0  0  0  0  0  0  0  0
   70.8908   36.7789   59.4143 C   0  0  0  0  0  0  0  0  0  0  0  0
  1  2  2  0
  2  3  1  0
  2 11  1  0
  3  4  1  0
  4  5  1  0
  4  8  1  0
  5  6  2  0
  6 12  1  0
  6  7  1  0
 12 13  2  0
 12 17  1  0
 13 14  1  0
 14 15  2  0
 15 16  1  0
 16 17  2  0
  7  8  2  0
  8  9  1  0
  9 10  2  0
  9 11  1  0
 11 18  1  0
 18 19  1  0
 19 20  1  0
 20 21  2  0
 20 26  1  0
 21 22  1  0
 22 23  2  0
 23 24  1  0
 23 25  1  0
 25 26  2  0
M  END
>  <minimizedAffinity>  (1046) 
-8.67949

$$$$
data/reference_output_2/data/smiles/182778.pdb
     RDKit          3D

 31 35  0  0  0  0  0  0  0  0999 V2000
   71.4609   47.1533   58.8041 C   0  0  0  0  0  0  0  0  0  0  0  0
   70.6253   47.9293   57.9915 C   0  0  0  0  0  0  0  0  0  0  0  0
   69.7486   47.4196   57.0978 C   0  0  0  0  0  0  0  0  0  0  0  0
   69.6637   46.0222   56.9709 C   0  0  0  0  0  0  0  0  0  0  0  0
   70.4623   45.2303   57.7484 C   0  0  0  0  0  0  0  0  0  0  0  0
   71.3589   45.7914   58.6631 C   0  0  0  0  0  0  0  0  0  0  0  0
   72.1050   44.9574   59.3859 F   0  0  0  0  0  0  0  0  0  0  0  0
   72.0441   47.8155   60.9839 O   0  0  0  0  0  0  0  0  0  0  0  0
   72.3844   47.7110   59.7525 C   0  0  0  0  0  0  0  0  0  0  0  0
   73.6986   48.1775   59.4317 N   0  0  0  0  0  0  0  0  0  0  0  0
   74.2092   48.1006   58.0734 C   0  0  0  0  0  0  0  0  0  0  0  0
   75.7389   47.9906   58.1341 C   0  0  0  0  0  0  0  0  0  0  0  0
   76.0672   47.3155   59.3239 N   0  0  0  0  0  0  0  0  0  0  0  0
   75.9709   48.2523   60.4189 C   0  0  0  0  0  0  0  0  0  0  0  0
   74.5495   48.7507   60.4496 C   0  0  0  0  0  0  0  0  0  0  0  0
   77.1657   46.4468   59.3958 C   0  0  0  0  0  0  0  0  0  0  0  0
   76.9506   44.9895   59.4785 C   0  0  0  0  0  0  0  0  0  0  0  0
   75.9679   44.1692   58.7945 C   0  0  0  0  0  0  0  0  0  0  0  0
   75.8247   44.4277   60.2990 C   0  0  0  0  0  0  0  0  0  0  0  0
   68.8313   48.1633   56.2029 C   0  0  0  0  0  0  0  0  0  0  0  0
   69.2933   48.2594   54.8138 C   0  0  0  0  0  0  0  0  0  0  0  0
   70.1965   49.2075   54.4938 N   0  0  0  0  0  0  0  0  0  0  0  0
   70.6073   49.4013   53.2791 N   0  0  0  0  0  0  0  0  0  0  0  0
   70.1408   48.6514   52.2805 C   0  0  0  0  0  0  0  0  0  0  0  0
   70.5450   48.8485   51.1109 O   0  0  0  0  0  0  0  0  0  0  0  0
   69.2232   47.6673   52.5313 C   0  0  0  0  0  0  0  0  0  0  0  0
   68.7498   46.8722   51.5035 C   0  0  0  0  0  0  0  0  0  0  0  0
   67.8482   45.8864   51.7965 C   0  0  0  0  0  0  0  0  0  0  0  0
   67.4014   45.6638   53.0846 C   0  0  0  0  0  0  0  0  0  0  0  0
   67.8742   46.4558   54.0955 C   0  0  0  0  0  0  0  0  0  0  0  0
   68.7817   47.4576   53.8345 C   0  0  0  0  0  0  0  0  0  0  0  0
  8  9  2  0
  9  1  1  0
  9 10  1  0
  1  2  2  0
  1  6  1  0
  2  3  1  0
  3 20  1  0
  3  4  2  0
 20 21  1  0
 21 22  2  0
 21 31  1  0
 22 23  1  0
 23 24  1  0
 24 25  2  0
 24 26  1  0
 26 27  1  0
 26 31  2  0
 27 28  2  0
 28 29  1  0
 29 30  2  0
 30 31  1  0
  4  5  1  0
  5  6  2  0
  6  7  1  0
 10 11  1  0
 10 15  1  0
 11 12  1  0
 12 13  1  0
 13 16  1  0
 13 14  1  0
 16 17  1  0
 17 18  1  0
 17 19  1  0
 18 19  1  0
 14 15  1  0
M  CHG  1  13   1
M  END
>  <minimizedAffinity>  (1047) 
-9.13586

$$$$
data/reference_output_2/data/smiles/182925.pdb
     RDKit          3D

 20 22  0  0  0  0  0  0  0  0999 V2000
   69.8375   48.7055   54.5350 N   0  0  0  0  0  0  0  0  0  0  0  0
   70.3733   49.4722   53.4124 C   0  0  0  0  0  0  0  0  0  0  0  0
   71.0669   50.4880   53.5371 O   0  0  0  0  0  0  0  0  0  0  0  0
   69.9379   48.8206   52.2023 C   0  0  0  0  0  0  0  0  0  0  0  0
   70.1660   49.1349   51.0060 O   0  0  0  0  0  0  0  0  0  0  0  0
   69.1299   47.6505   52.6117 C   0  0  0  0  0  0  0  0  0  0  0  0
   68.4769   46.7240   51.8394 C   0  0  0  0  0  0  0  0  0  0  0  0
   67.7463   45.7149   52.4552 C   0  0  0  0  0  0  0  0  0  0  0  0
   67.0869   44.7787   51.7362 F   0  0  0  0  0  0  0  0  0  0  0  0
   67.6807   45.6494   53.8283 C   0  0  0  0  0  0  0  0  0  0  0  0
   68.3542   46.6020   54.5557 C   0  0  0  0  0  0  0  0  0  0  0  0
   69.1013   47.6307   53.9942 C   0  0  0  0  0  0  0  0  0  0  0  0
   70.0271   49.0927   55.9194 C   0  0  0  0  0  0  0  0  0  0  0  0
   69.1202   51.9839   56.0426 C   0  0  0  0  0  0  0  0  0  0  0  0
   68.3523   50.8851   56.6504 C   0  0  0  0  0  0  0  0  0  0  0  0
   67.1668   51.2421   57.2941 C   0  0  0  0  0  0  0  0  0  0  0  0
   66.4550   50.2555   57.9185 C   0  0  0  0  0  0  0  0  0  0  0  0
   66.8813   48.9489   57.9199 C   0  0  0  0  0  0  0  0  0  0  0  0
   68.0553   48.6462   57.2704 C   0  0  0  0  0  0  0  0  0  0  0  0
   68.8395   49.6137   56.6042 C   0  0  0  0  0  0  0  0  0  0  0  0
 14 15  1  0
 15 16  2  0
 15 20  1  0
 16 17  1  0
 17 18  2  0
 18 19  1  0
 19 20  2  0
 20 13  1  0
 13  1  1  0
  1  2  1  0
  1 12  1  0
  2  3  2  0
  2  4  1  0
  4  5  2  0
  4  6  1  0
  6  7  1  0
  6 12  2  0
  7  8  2  0
  8  9  1  0
  8 10  1  0
 10 11  2  0
 11 12  1  0
M  END
>  <minimizedAffinity>  (1048) 
-9.03621

$$$$
data/reference_output_2/data/smiles/182948.pdb
     RDKit          3D

 25 26  0  0  0  0  0  0  0  0999 V2000
   69.5494   46.2143   57.9283 N   0  0  0  0  0  0  0  0  0  0  0  0
   68.0796   44.8857   56.0224 O   0  0  0  0  0  0  0  0  0  0  0  0
   68.7308   45.9012   55.6509 C   0  0  0  0  0  0  0  0  0  0  0  0
   69.5113   46.6323   56.5886 N   0  0  0  0  0  0  0  0  0  0  0  0
   68.6434   46.2737   54.2492 C   0  0  0  0  0  0  0  0  0  0  0  0
   67.8070   45.6441   53.3439 C   0  0  0  0  0  0  0  0  0  0  0  0
   67.7548   46.0365   52.0025 C   0  0  0  0  0  0  0  0  0  0  0  0
   68.5512   47.0740   51.5637 C   0  0  0  0  0  0  0  0  0  0  0  0
   69.3954   47.7242   52.4346 C   0  0  0  0  0  0  0  0  0  0  0  0
   69.4195   47.3077   53.7509 C   0  0  0  0  0  0  0  0  0  0  0  0
   70.2205   48.7932   51.9969 N   0  0  0  0  0  0  0  0  0  0  0  0
   69.9545   49.4241   50.9659 O   0  0  0  0  0  0  0  0  0  0  0  0
   71.3172   49.1177   52.7302 O   0  0  0  0  0  0  0  0  0  0  0  0
   70.3923   45.1447   58.3640 C   0  0  0  0  0  0  0  0  0  0  0  0
   71.9818   45.3851   58.6282 S   0  0  0  0  0  0  0  0  0  0  0  0
   69.8805   43.8430   58.5836 N   0  0  0  0  0  0  0  0  0  0  0  0
   70.3581   42.7459   57.8269 C   0  0  0  0  0  0  0  0  0  0  0  0
   71.2386   42.8766   56.9457 O   0  0  0  0  0  0  0  0  0  0  0  0
   69.8202   41.4113   58.0652 C   0  0  0  0  0  0  0  0  0  0  0  0
   70.4442   40.5223   58.9096 C   0  0  0  0  0  0  0  0  0  0  0  0
   69.9193   39.2691   59.1197 C   0  0  0  0  0  0  0  0  0  0  0  0
   68.7616   38.8928   58.4859 C   0  0  0  0  0  0  0  0  0  0  0  0
   68.1050   39.7542   57.6313 C   0  0  0  0  0  0  0  0  0  0  0  0
   68.6475   41.0002   57.4371 C   0  0  0  0  0  0  0  0  0  0  0  0
   67.8265   42.1131   56.3525 Cl  0  0  0  0  0  0  0  0  0  0  0  0
  2  3  2  0
  3  4  1  0
  3  5  1  0
  4  1  1  0
  1 14  1  0
 14 15  2  0
 14 16  1  0
 16 17  1  0
 17 18  2  0
 17 19  1  0
 19 20  2  0
 19 24  1  0
 20 21  1  0
 21 22  2  0
 22 23  1  0
 23 24  2  0
 24 25  1  0
  5  6  2  0
  5 10  1  0
  6  7  1  0
  7  8  2  0
  8  9  1  0
  9 11  1  0
  9 10  2  0
 11 12  2  0
 11 13  1  0
M  CHG  2  11   1  13  -1
M  END
>  <minimizedAffinity>  (1049) 
-8.98991

$$$$
data/reference_output_2/data/smiles/183048.pdb
     RDKit          3D

 23 24  0  0  0  0  0  0  0  0999 V2000
   70.1460   46.3273   58.0810 C   0  0  0  0  0  0  0  0  0  0  0  0
   70.6598   43.9147   57.4564 N   0  0  0  0  0  0  0  0  0  0  0  0
   70.1944   44.8905   58.3986 C   0  0  0  0  0  0  0  0  0  0  0  0
   69.8292   44.4666   59.5073 O   0  0  0  0  0  0  0  0  0  0  0  0
   70.7470   38.3454   58.6973 C   0  0  0  0  0  0  0  0  0  0  0  0
   70.7526   39.8013   58.3791 C   0  0  0  0  0  0  0  0  0  0  0  0
   71.9053   40.5567   58.4388 C   0  0  0  0  0  0  0  0  0  0  0  0
   71.8686   41.8976   58.1376 C   0  0  0  0  0  0  0  0  0  0  0  0
   70.7036   42.5384   57.7681 C   0  0  0  0  0  0  0  0  0  0  0  0
   69.5600   41.7676   57.7125 C   0  0  0  0  0  0  0  0  0  0  0  0
   69.5916   40.4074   58.0183 C   0  0  0  0  0  0  0  0  0  0  0  0
   68.2873   39.6921   57.9191 C   0  0  0  0  0  0  0  0  0  0  0  0
   68.9534   46.6637   57.4247 O   0  0  0  0  0  0  0  0  0  0  0  0
   68.9531   46.7892   56.0390 C   0  0  0  0  0  0  0  0  0  0  0  0
   69.4449   47.8806   55.3700 C   0  0  0  0  0  0  0  0  0  0  0  0
   69.4209   47.9491   53.9736 C   0  0  0  0  0  0  0  0  0  0  0  0
   68.9045   46.9274   53.2188 C   0  0  0  0  0  0  0  0  0  0  0  0
   68.4098   45.8328   53.8838 C   0  0  0  0  0  0  0  0  0  0  0  0
   68.4268   45.7507   55.2554 C   0  0  0  0  0  0  0  0  0  0  0  0
   68.9017   47.0443   51.7649 C   0  0  0  0  0  0  0  0  0  0  0  0
   67.8362   46.7269   51.1102 N   0  0  0  0  0  0  0  0  0  0  0  0
   70.0289   47.4967   51.0241 N   0  0  0  0  0  0  0  0  0  0  0  0
   70.4269   48.7970   51.0325 O   0  0  0  0  0  0  0  0  0  0  0  0
  5  6  1  0
  6  7  2  0
  6 11  1  0
  7  8  1  0
  8  9  2  0
  9  2  1  0
  9 10  1  0
  2  3  1  0
  3  4  2  0
  3  1  1  0
  1 13  1  0
 13 14  1  0
 14 15  2  0
 14 19  1  0
 15 16  1  0
 16 17  2  0
 17 20  1  0
 17 18  1  0
 20 21  2  0
 20 22  1  0
 22 23  1  0
 18 19  2  0
 10 11  2  0
 11 12  1  0
M  CHG  1  21   1
M  END
>  <minimizedAffinity>  (1050) 
-8.50248

$$$$
data/reference_output_2/data/smiles/183057.pdb
     RDKit          3D

 20 22  0  0  0  0  0  0  0  0999 V2000
   66.6037   44.9692   50.7868 O   0  0  0  0  0  0  0  0  0  0  0  0
   67.3037   45.7395   51.5355 C   0  0  0  0  0  0  0  0  0  0  0  0
   68.2070   46.5630   51.0120 N   0  0  0  0  0  0  0  0  0  0  0  0
   68.9535   47.3810   51.7773 C   0  0  0  0  0  0  0  0  0  0  0  0
   69.7961   48.1335   51.2691 O   0  0  0  0  0  0  0  0  0  0  0  0
   68.7706   47.3638   53.1392 C   0  0  0  0  0  0  0  0  0  0  0  0
   69.5078   48.1724   53.9528 C   0  0  0  0  0  0  0  0  0  0  0  0
   69.2690   48.0746   55.3525 C   0  0  0  0  0  0  0  0  0  0  0  0
   68.3264   47.1957   55.7698 C   0  0  0  0  0  0  0  0  0  0  0  0
   68.1006   47.0950   56.9925 O   0  0  0  0  0  0  0  0  0  0  0  0
   67.6478   46.4516   54.9486 O   0  0  0  0  0  0  0  0  0  0  0  0
   67.8044   46.4722   53.6542 C   0  0  0  0  0  0  0  0  0  0  0  0
   67.0754   45.6654   52.8564 N   0  0  0  0  0  0  0  0  0  0  0  0
   70.4194   49.2462   53.5237 C   0  0  0  0  0  0  0  0  0  0  0  0
   69.5600   50.4676   53.2524 C   0  0  0  0  0  0  0  0  0  0  0  0
   69.7224   51.4819   54.3319 C   0  0  0  0  0  0  0  0  0  0  0  0
   68.3736   51.9270   54.8955 C   0  0  0  0  0  0  0  0  0  0  0  0
   68.5860   52.0789   56.4018 C   0  0  0  0  0  0  0  0  0  0  0  0
   69.0923   50.9384   57.2009 C   0  0  0  0  0  0  0  0  0  0  0  0
   67.6692   51.2969   57.3210 C   0  0  0  0  0  0  0  0  0  0  0  0
  1  2  2  0
  2  3  1  0
  2 13  1  0
  3  4  1  0
  4  5  2  0
  4  6  1  0
  6  7  1  0
  6 12  2  0
  7 14  1  0
  7  8  2  0
 14 15  1  0
 15 16  1  0
 16 17  1  0
 17 18  1  0
 18 19  1  0
 18 20  1  0
 19 20  1  0
  8  9  1  0
  9 10  2  0
  9 11  1  0
 11 12  1  0
 12 13  1  0
M  END
>  <minimizedAffinity>  (1051) 
-9.22372

$$$$
data/reference_output_2/data/smiles/183099.pdb
     RDKit          3D

 29 33  0  0  0  0  0  0  0  0999 V2000
   69.1190   38.7566   59.3218 C   0  0  0  0  0  0  0  0  0  0  0  0
   69.6335   39.4583   58.2607 C   0  0  0  0  0  0  0  0  0  0  0  0
   70.6978   38.7189   57.8308 N   0  0  0  0  0  0  0  0  0  0  0  0
   70.8488   37.6317   58.5595 N   0  0  0  0  0  0  0  0  0  0  0  0
   71.6060   36.5137   58.7281 C   0  0  0  0  0  0  0  0  0  0  0  0
   71.1072   35.7890   59.7910 C   0  0  0  0  0  0  0  0  0  0  0  0
   70.0606   36.4910   60.2357 N   0  0  0  0  0  0  0  0  0  0  0  0
   69.8926   37.6065   59.5011 C   0  0  0  0  0  0  0  0  0  0  0  0
   71.8194   34.5260   60.1193 C   0  0  0  0  0  0  0  0  0  0  0  0
   72.0129   33.7924   58.8077 C   0  0  0  0  0  0  0  0  0  0  0  0
   72.7523   34.5389   57.8440 N   0  0  0  0  0  0  0  0  0  0  0  0
   72.7929   35.9525   58.0353 C   0  0  0  0  0  0  0  0  0  0  0  0
   69.1979   40.7265   57.6823 C   0  0  0  0  0  0  0  0  0  0  0  0
   69.9515   41.8646   57.8415 C   0  0  0  0  0  0  0  0  0  0  0  0
   69.5618   43.0692   57.2761 C   0  0  0  0  0  0  0  0  0  0  0  0
   68.4155   43.2212   56.5291 C   0  0  0  0  0  0  0  0  0  0  0  0
   67.6512   42.0341   56.3754 C   0  0  0  0  0  0  0  0  0  0  0  0
   68.0495   40.8517   56.9388 C   0  0  0  0  0  0  0  0  0  0  0  0
   67.9742   44.3580   55.9529 O   0  0  0  0  0  0  0  0  0  0  0  0
   68.5360   45.5567   55.6639 C   0  0  0  0  0  0  0  0  0  0  0  0
   68.4439   46.0331   54.2630 C   0  0  0  0  0  0  0  0  0  0  0  0
   67.7192   45.2554   53.3444 C   0  0  0  0  0  0  0  0  0  0  0  0
   67.6208   45.6090   52.0232 C   0  0  0  0  0  0  0  0  0  0  0  0
   68.2245   46.7415   51.5245 C   0  0  0  0  0  0  0  0  0  0  0  0
   68.9361   47.5070   52.4192 C   0  0  0  0  0  0  0  0  0  0  0  0
   69.0403   47.1561   53.7528 C   0  0  0  0  0  0  0  0  0  0  0  0
   66.6618   38.8085   59.7994 N   0  0  0  0  0  0  0  0  0  0  0  0
   68.0117   39.1149   60.1626 C   0  0  0  0  0  0  0  0  0  0  0  0
   68.2065   39.7105   61.2444 O   0  0  0  0  0  0  0  0  0  0  0  0
 27 28  1  0
 28 29  2  0
 28  1  1  0
  1  2  1  0
  1  8  2  0
  2 13  1  0
  2  3  2  0
 13 14  2  0
 13 18  1  0
 14 15  1  0
 15 16  2  0
 16 19  1  0
 16 17  1  0
 19 20  1  0
 20 21  1  0
 21 22  2  0
 21 26  1  0
 22 23  1  0
 23 24  2  0
 24 25  1  0
 25 26  2  0
 17 18  2  0
  3  4  1  0
  4  5  1  0
  4  8  1  0
  5  6  2  0
  5 12  1  0
  6  7  1  0
  6  9  1  0
  7  8  1  0
  9 10  1  0
 10 11  1  0
 11 12  1  0
M  CHG  1  11   1
M  END
>  <minimizedAffinity>  (1052) 
-8.56021

$$$$
data/reference_output_2/data/smiles/183162.pdb
     RDKit          3D

 27 30  0  0  0  0  0  0  0  0999 V2000
   70.5982   39.0707   58.4511 C   0  0  0  0  0  0  0  0  0  0  0  0
   69.2851   38.7478   58.6056 N   0  0  0  0  0  0  0  0  0  0  0  0
   68.5314   39.8326   58.5334 N   0  0  0  0  0  0  0  0  0  0  0  0
   69.2944   40.9229   58.3294 C   0  0  0  0  0  0  0  0  0  0  0  0
   69.0255   42.2819   58.1818 C   0  0  0  0  0  0  0  0  0  0  0  0
   70.0396   43.1958   57.9783 C   0  0  0  0  0  0  0  0  0  0  0  0
   71.2893   42.6979   57.9327 N   0  0  0  0  0  0  0  0  0  0  0  0
   71.5783   41.3884   58.0734 C   0  0  0  0  0  0  0  0  0  0  0  0
   70.5896   40.4470   58.2773 C   0  0  0  0  0  0  0  0  0  0  0  0
   73.2140   35.2192   56.7071 C   0  0  0  0  0  0  0  0  0  0  0  0
   73.0615   36.3324   57.6607 C   0  0  0  0  0  0  0  0  0  0  0  0
   71.9321   37.1366   57.5919 C   0  0  0  0  0  0  0  0  0  0  0  0
   71.7487   38.1882   58.4635 C   0  0  0  0  0  0  0  0  0  0  0  0
   72.7373   38.3950   59.3962 C   0  0  0  0  0  0  0  0  0  0  0  0
   73.8679   37.5704   59.4467 C   0  0  0  0  0  0  0  0  0  0  0  0
   74.0122   36.5502   58.5763 N   0  0  0  0  0  0  0  0  0  0  0  0
   69.7793   44.5951   57.8237 N   0  0  0  0  0  0  0  0  0  0  0  0
   69.1765   45.0484   56.6051 C   0  0  0  0  0  0  0  0  0  0  0  0
   68.9062   44.1918   55.7295 O   0  0  0  0  0  0  0  0  0  0  0  0
   68.8773   46.4005   56.3479 N   0  0  0  0  0  0  0  0  0  0  0  0
   68.2735   46.7920   55.0951 C   0  0  0  0  0  0  0  0  0  0  0  0
   68.8889   48.0761   54.5956 C   0  0  0  0  0  0  0  0  0  0  0  0
   69.2909   47.8460   53.1872 C   0  0  0  0  0  0  0  0  0  0  0  0
   70.2352   48.5251   52.4249 C   0  0  0  0  0  0  0  0  0  0  0  0
   70.2605   47.9633   51.1903 N   0  0  0  0  0  0  0  0  0  0  0  0
   69.3748   46.9703   51.1606 N   0  0  0  0  0  0  0  0  0  0  0  0
   68.7742   46.8828   52.3658 C   0  0  0  0  0  0  0  0  0  0  0  0
 10 11  1  0
 11 12  2  0
 11 16  1  0
 12 13  1  0
 13  1  1  0
 13 14  2  0
  1  2  2  0
  1  9  1  0
  2  3  1  0
  3  4  1  0
  4  5  1  0
  4  9  2  0
  5  6  2  0
  6 17  1  0
  6  7  1  0
 17 18  1  0
 18 19  2  0
 18 20  1  0
 20 21  1  0
 21 22  1  0
 22 23  1  0
 23 24  1  0
 23 27  2  0
 24 25  2  0
 25 26  1  0
 26 27  1  0
  7  8  2  0
  8  9  1  0
 14 15  1  0
 15 16  2  0
M  END
>  <minimizedAffinity>  (1053) 
-8.69111

$$$$
data/reference_output_2/data/smiles/183184.pdb
     RDKit          3D

 22 25  0  0  0  0  0  0  0  0999 V2000
   69.4758   49.4963   57.3886 N   0  0  2  0  0  0  0  0  0  0  0  0
   70.7069   49.5482   56.6204 C   0  0  0  0  0  0  0  0  0  0  0  0
   70.4075   49.0431   55.2627 C   0  0  0  0  0  0  0  0  0  0  0  0
   71.1521   49.5839   54.3516 N   0  0  0  0  0  0  0  0  0  0  0  0
   71.1671   49.3650   52.9542 N   0  0  0  0  0  0  0  0  0  0  0  0
   70.3641   48.4896   52.1630 C   0  0  0  0  0  0  0  0  0  0  0  0
   70.5773   48.4835   50.9245 O   0  0  0  0  0  0  0  0  0  0  0  0
   69.3083   47.5862   52.6326 C   0  0  0  0  0  0  0  0  0  0  0  0
   68.7067   46.8629   51.6334 C   0  0  0  0  0  0  0  0  0  0  0  0
   67.6906   45.9803   52.0077 C   0  0  0  0  0  0  0  0  0  0  0  0
   67.0924   45.2633   51.0285 F   0  0  0  0  0  0  0  0  0  0  0  0
   67.2852   45.8249   53.3376 C   0  0  0  0  0  0  0  0  0  0  0  0
   67.9170   46.5719   54.3061 C   0  0  0  0  0  0  0  0  0  0  0  0
   67.7850   46.6726   55.6505 N   0  0  0  0  0  0  0  0  0  0  0  0
   68.6677   47.5764   56.1550 C   0  0  0  0  0  0  0  0  0  0  0  0
   69.3701   48.0494   55.0799 C   0  0  0  0  0  0  0  0  0  0  0  0
   68.9262   47.4515   53.9525 C   0  0  0  0  0  0  0  0  0  0  0  0
   69.0363   48.1392   57.4895 C   0  0  0  0  0  0  0  0  0  0  0  0
   68.5402   50.3863   56.7906 C   0  0  0  0  0  0  0  0  0  0  0  0
   68.6912   51.8179   57.2366 C   0  0  0  0  0  0  0  0  0  0  0  0
   68.3813   52.1478   54.7746 C   0  0  0  0  0  0  0  0  0  0  0  0
   68.9540   52.7040   56.0362 C   0  0  0  0  0  0  0  0  0  0  0  0
 21 22  1  0
 22 20  1  0
 20 19  1  0
  1 19  1  6
  1  2  1  0
  1 18  1  0
  2  3  1  0
  3  4  2  0
  3 16  1  0
  4  5  1  0
  5  6  1  0
  6  7  2  0
  6  8  1  0
  8  9  1  0
  8 17  2  0
  9 10  2  0
 10 11  1  0
 10 12  1  0
 12 13  2  0
 13 14  1  0
 13 17  1  0
 14 15  1  0
 15 16  2  0
 15 18  1  0
 16 17  1  0
M  CHG  1   1   1
M  END
>  <minimizedAffinity>  (1054) 
-8.83980

$$$$
data/reference_output_2/data/smiles/183207.pdb
     RDKit          3D

 25 28  0  0  0  0  0  0  0  0999 V2000
   70.0575   50.7325   53.8240 C   0  0  0  0  0  0  0  0  0  0  0  0
   68.6949   50.9023   53.7444 C   0  0  0  0  0  0  0  0  0  0  0  0
   68.0988   51.9098   54.4758 C   0  0  0  0  0  0  0  0  0  0  0  0
   68.8438   52.7432   55.2802 C   0  0  0  0  0  0  0  0  0  0  0  0
   70.2310   52.5912   55.3773 C   0  0  0  0  0  0  0  0  0  0  0  0
   70.8033   51.5773   54.6367 C   0  0  0  0  0  0  0  0  0  0  0  0
   72.2358   51.3899   54.7125 C   0  0  0  0  0  0  0  0  0  0  0  0
   72.7592   50.4738   54.0437 O   0  0  0  0  0  0  0  0  0  0  0  0
   73.0037   52.2856   55.5707 C   0  0  0  0  0  0  0  0  0  0  0  0
   72.4581   53.2581   56.2811 C   0  0  0  0  0  0  0  0  0  0  0  0
   71.0190   53.4789   56.2318 C   0  0  0  0  0  0  0  0  0  0  0  0
   70.4574   54.3911   56.8904 O   0  0  0  0  0  0  0  0  0  0  0  0
   73.2587   54.1029   57.1030 N   0  0  0  0  0  0  0  0  0  0  0  0
   73.6834   54.7319   58.3233 C   0  0  0  0  0  0  0  0  0  0  0  0
   74.4277   55.0614   57.1052 C   0  0  0  0  0  0  0  0  0  0  0  0
   70.6932   49.7254   53.0984 O   0  0  0  0  0  0  0  0  0  0  0  0
   70.1258   49.1608   50.9825 O   0  0  0  0  0  0  0  0  0  0  0  0
   70.0468   48.9016   52.2071 C   0  0  0  0  0  0  0  0  0  0  0  0
   69.2658   47.7274   52.6274 C   0  0  0  0  0  0  0  0  0  0  0  0
   68.6939   46.8872   51.7057 C   0  0  0  0  0  0  0  0  0  0  0  0
   67.9593   45.7830   52.1298 C   0  0  0  0  0  0  0  0  0  0  0  0
   67.7880   45.5059   53.4660 C   0  0  0  0  0  0  0  0  0  0  0  0
   67.0839   44.4460   53.9207 F   0  0  0  0  0  0  0  0  0  0  0  0
   68.3582   46.3429   54.3943 C   0  0  0  0  0  0  0  0  0  0  0  0
   69.0866   47.4388   53.9623 C   0  0  0  0  0  0  0  0  0  0  0  0
 17 18  2  0
 18 16  1  0
 18 19  1  0
 16  1  1  0
  1  2  2  0
  1  6  1  0
  2  3  1  0
  3  4  2  0
  4  5  1  0
  5  6  2  0
  5 11  1  0
  6  7  1  0
  7  8  2  0
  7  9  1  0
  9 10  2  0
 10 13  1  0
 10 11  1  0
 13 14  1  0
 13 15  1  0
 14 15  1  0
 11 12  2  0
 19 20  2  0
 19 25  1  0
 20 21  1  0
 21 22  2  0
 22 23  1  0
 22 24  1  0
 24 25  2  0
M  END
>  <minimizedAffinity>  (1055) 
-8.69404

$$$$
data/reference_output_2/data/smiles/183426.pdb
     RDKit          3D

 23 24  0  0  0  0  0  0  0  0999 V2000
   69.5493   45.3021   57.2565 N   0  0  0  0  0  0  0  0  0  0  0  0
   70.0156   46.6359   57.5611 C   0  0  0  0  0  0  0  0  0  0  0  0
   70.7767   46.7113   58.5354 O   0  0  0  0  0  0  0  0  0  0  0  0
   70.0516   43.9585   58.2151 S   0  0  0  0  0  0  0  0  0  0  0  0
   71.5260   43.7245   57.9720 O   0  0  0  0  0  0  0  0  0  0  0  0
   69.7844   44.1800   59.6737 O   0  0  0  0  0  0  0  0  0  0  0  0
   69.1034   38.8316   58.6724 C   0  0  0  0  0  0  0  0  0  0  0  0
   68.8412   40.1213   57.9752 C   0  0  0  0  0  0  0  0  0  0  0  0
   67.9582   40.2025   56.9208 C   0  0  0  0  0  0  0  0  0  0  0  0
   67.6859   41.3762   56.2466 C   0  0  0  0  0  0  0  0  0  0  0  0
   66.8128   41.3735   55.2304 F   0  0  0  0  0  0  0  0  0  0  0  0
   68.3320   42.5174   56.6518 C   0  0  0  0  0  0  0  0  0  0  0  0
   69.2232   42.4921   57.6975 C   0  0  0  0  0  0  0  0  0  0  0  0
   69.4722   41.3028   58.3491 C   0  0  0  0  0  0  0  0  0  0  0  0
   69.6236   47.7966   56.7877 C   0  0  0  0  0  0  0  0  0  0  0  0
   68.3760   47.6788   55.9925 C   0  0  0  0  0  0  0  0  0  0  0  0
   68.5160   47.3600   54.5715 C   0  0  0  0  0  0  0  0  0  0  0  0
   69.3293   48.0689   53.7194 C   0  0  0  0  0  0  0  0  0  0  0  0
   69.4707   47.7550   52.4224 N   0  0  0  0  0  0  0  0  0  0  0  0
   68.8029   46.7137   51.9047 C   0  0  0  0  0  0  0  0  0  0  0  0
   67.9644   45.9449   52.6770 C   0  0  0  0  0  0  0  0  0  0  0  0
   67.3262   44.9136   52.0870 F   0  0  0  0  0  0  0  0  0  0  0  0
   67.8310   46.2768   53.9991 C   0  0  0  0  0  0  0  0  0  0  0  0
  7  8  1  0
  8  9  2  0
  8 14  1  0
  9 10  1  0
 10 11  1  0
 10 12  2  0
 12 13  1  0
 13  4  1  0
 13 14  2  0
  4  5  2  0
  4  6  2  0
  4  1  1  0
  1  2  1  0
  2  3  2  0
  2 15  1  0
 15 16  1  0
 16 17  1  0
 17 18  2  0
 17 23  1  0
 18 19  1  0
 19 20  2  0
 20 21  1  0
 21 22  1  0
 21 23  2  0
M  END
>  <minimizedAffinity>  (1056) 
-8.55212

$$$$
data/reference_output_2/data/smiles/183497.pdb
     RDKit          3D

 29 32  0  0  0  0  0  0  0  0999 V2000
   69.6065   43.3672   57.5733 C   0  0  0  0  0  0  0  0  0  0  0  0
   68.4443   42.8407   56.8214 C   0  0  0  0  0  0  0  0  0  0  0  0
   67.8294   41.6202   57.0255 C   0  0  0  0  0  0  0  0  0  0  0  0
   66.8030   41.6074   56.0745 C   0  0  0  0  0  0  0  0  0  0  0  0
   66.8547   42.7613   55.3859 N   0  0  0  0  0  0  0  0  0  0  0  0
   67.8441   43.5198   55.8271 N   0  0  0  0  0  0  0  0  0  0  0  0
   68.1705   44.8125   55.3057 C   0  0  0  0  0  0  0  0  0  0  0  0
   68.1048   45.0858   53.9899 N   0  0  0  0  0  0  0  0  0  0  0  0
   68.4140   46.3103   53.4944 C   0  0  0  0  0  0  0  0  0  0  0  0
   68.8120   47.3260   54.3391 C   0  0  0  0  0  0  0  0  0  0  0  0
   68.8797   47.0499   55.6797 C   0  0  0  0  0  0  0  0  0  0  0  0
   69.2422   47.9710   56.4577 O   0  0  0  0  0  0  0  0  0  0  0  0
   68.5581   45.8050   56.1237 N   0  0  0  0  0  0  0  0  0  0  0  0
   69.1339   48.6382   53.7211 C   0  0  0  0  0  0  0  0  0  0  0  0
   70.1120   48.3567   52.5995 C   0  0  0  0  0  0  0  0  0  0  0  0
   69.5911   47.3683   51.6116 C   0  0  0  0  0  0  0  0  0  0  0  0
   68.3486   46.6372   52.0468 C   0  0  0  0  0  0  0  0  0  0  0  0
   68.1534   40.5818   57.9923 C   0  0  0  0  0  0  0  0  0  0  0  0
   68.9823   39.6845   57.7205 O   0  0  0  0  0  0  0  0  0  0  0  0
   67.5305   40.5734   59.2605 N   0  0  0  0  0  0  0  0  0  0  0  0
   67.8420   39.5464   60.2352 C   0  0  0  0  0  0  0  0  0  0  0  0
   66.6327   39.3213   61.1379 C   0  0  0  0  0  0  0  0  0  0  0  0
   66.3269   40.5254   61.9737 C   0  0  0  0  0  0  0  0  0  0  0  0
   66.6661   41.7675   61.1945 C   0  0  0  0  0  0  0  0  0  0  0  0
   66.5569   41.5602   59.6851 C   0  0  0  0  0  0  0  0  0  0  0  0
   67.0604   40.4857   63.3060 C   0  0  0  0  0  0  0  0  0  0  0  0
   68.2355   41.1840   63.1576 F   0  0  0  0  0  0  0  0  0  0  0  0
   66.2238   41.1384   64.2203 F   0  0  0  0  0  0  0  0  0  0  0  0
   67.2698   39.1800   63.6588 F   0  0  0  0  0  0  0  0  0  0  0  0
  1  2  1  0
  2  3  2  0
  2  6  1  0
  3 18  1  0
  3  4  1  0
 18 19  2  0
 18 20  1  0
 20 21  1  0
 20 25  1  0
 21 22  1  0
 22 23  1  0
 23 26  1  0
 23 24  1  0
 26 27  1  0
 26 28  1  0
 26 29  1  0
 24 25  1  0
  4  5  2  0
  5  6  1  0
  6  7  1  0
  7  8  2  0
  7 13  1  0
  8  9  1  0
  9 10  2  0
  9 17  1  0
 10 11  1  0
 10 14  1  0
 11 12  2  0
 11 13  1  0
 14 15  1  0
 15 16  1  0
 16 17  1  0
M  END
>  <minimizedAffinity>  (1057) 
-9.24672

$$$$
data/reference_output_2/data/smiles/183527.pdb
     RDKit          3D

 24 26  0  0  0  0  0  0  0  0999 V2000
   73.6144   50.2856   55.7624 N   0  0  0  0  0  0  0  0  0  0  0  0
   72.9611   50.9333   54.6894 C   0  0  0  0  0  0  0  0  0  0  0  0
   73.6216   51.7423   54.0003 O   0  0  0  0  0  0  0  0  0  0  0  0
   71.5184   50.6517   54.3944 C   0  0  0  0  0  0  0  0  0  0  0  0
   70.5678   51.6655   54.3811 C   0  0  0  0  0  0  0  0  0  0  0  0
   69.0227   50.7305   53.9681 S   0  0  0  0  0  0  0  0  0  0  0  0
   69.9636   49.1300   53.8911 C   0  0  0  0  0  0  0  0  0  0  0  0
   71.0107   49.4563   54.1240 N   0  0  0  0  0  0  0  0  0  0  0  0
   69.1485   47.8718   53.5580 C   0  0  0  0  0  0  0  0  0  0  0  0
   68.8119   47.0639   54.5871 C   0  0  0  0  0  0  0  0  0  0  0  0
   68.0668   45.8976   54.3498 C   0  0  0  0  0  0  0  0  0  0  0  0
   67.6794   45.5786   53.0657 C   0  0  0  0  0  0  0  0  0  0  0  0
   68.0371   46.4220   52.0375 C   0  0  0  0  0  0  0  0  0  0  0  0
   67.6598   46.1145   50.7733 F   0  0  0  0  0  0  0  0  0  0  0  0
   68.7822   47.5848   52.2900 C   0  0  0  0  0  0  0  0  0  0  0  0
   75.7033   49.0698   54.4768 O   0  0  0  0  0  0  0  0  0  0  0  0
   76.0203   49.8703   55.3945 C   0  0  0  0  0  0  0  0  0  0  0  0
   74.9596   50.5151   56.0769 N   0  0  0  0  0  0  0  0  0  0  0  0
   77.4304   50.0996   55.7111 C   0  0  0  0  0  0  0  0  0  0  0  0
   78.3669   49.1585   55.3942 C   0  0  0  0  0  0  0  0  0  0  0  0
   79.7206   49.3580   55.6884 C   0  0  0  0  0  0  0  0  0  0  0  0
   80.1219   50.5217   56.3087 C   0  0  0  0  0  0  0  0  0  0  0  0
   79.1402   51.4522   56.6140 C   0  0  0  0  0  0  0  0  0  0  0  0
   77.8312   51.2315   56.3162 N   0  0  0  0  0  0  0  0  0  0  0  0
 16 17  2  0
 17 18  1  0
 17 19  1  0
 18  1  1  0
  1  2  1  0
  2  3  2  0
  2  4  1  0
  4  5  2  0
  4  8  1  0
  5  6  1  0
  6  7  1  0
  7  9  1  0
  7  8  2  0
  9 10  2  0
  9 15  1  0
 10 11  1  0
 11 12  2  0
 12 13  1  0
 13 14  1  0
 13 15  2  0
 19 20  2  0
 19 24  1  0
 20 21  1  0
 21 22  2  0
 22 23  1  0
 23 24  2  0
M  END
>  <minimizedAffinity>  (1058) 
-8.91616

$$$$
data/reference_output_2/data/smiles/183851.pdb
     RDKit          3D

 27 29  0  0  0  0  0  0  0  0999 V2000
   70.6926   49.3372   57.7053 C   0  0  0  0  0  0  0  0  0  0  0  0
   70.1201   50.3540   58.1993 O   0  0  0  0  0  0  0  0  0  0  0  0
   70.8016   49.3272   56.2916 N   0  0  0  0  0  0  0  0  0  0  0  0
   73.4305   47.8698   61.5249 C   0  0  0  0  0  0  0  0  0  0  0  0
   72.5316   47.5141   60.4126 C   0  0  0  0  0  0  0  0  0  0  0  0
   72.0541   48.5336   59.6177 C   0  0  0  0  0  0  0  0  0  0  0  0
   71.1974   48.2636   58.5449 C   0  0  0  0  0  0  0  0  0  0  0  0
   70.8606   46.9700   58.3229 C   0  0  0  0  0  0  0  0  0  0  0  0
   71.3117   45.8915   59.0927 C   0  0  0  0  0  0  0  0  0  0  0  0
   72.1549   46.2098   60.1402 C   0  0  0  0  0  0  0  0  0  0  0  0
   70.9228   44.5632   58.8085 N   0  0  0  0  0  0  0  0  0  0  0  0
   69.7339   44.0669   59.1111 N   0  0  0  0  0  0  0  0  0  0  0  0
   69.6370   42.7834   58.7258 C   0  0  0  0  0  0  0  0  0  0  0  0
   70.8366   42.4432   58.1438 C   0  0  0  0  0  0  0  0  0  0  0  0
   71.6239   43.5935   58.2143 C   0  0  0  0  0  0  0  0  0  0  0  0
   73.0043   43.7690   57.7311 C   0  0  0  0  0  0  0  0  0  0  0  0
   70.3129   50.3667   55.4878 N   0  0  0  0  0  0  0  0  0  0  0  0
   70.5054   49.9585   53.8425 S   0  0  0  0  0  0  0  0  0  0  0  0
   70.0789   51.1458   53.0177 O   0  0  0  0  0  0  0  0  0  0  0  0
   71.9861   49.7767   53.5782 O   0  0  0  0  0  0  0  0  0  0  0  0
   69.6310   48.5139   53.4060 C   0  0  0  0  0  0  0  0  0  0  0  0
   68.8150   47.8779   54.3171 C   0  0  0  0  0  0  0  0  0  0  0  0
   68.1068   46.7197   53.9857 C   0  0  0  0  0  0  0  0  0  0  0  0
   68.2378   46.2130   52.7107 C   0  0  0  0  0  0  0  0  0  0  0  0
   69.0476   46.8299   51.7798 C   0  0  0  0  0  0  0  0  0  0  0  0
   69.7341   47.9769   52.1447 C   0  0  0  0  0  0  0  0  0  0  0  0
   70.5210   48.5605   51.2145 F   0  0  0  0  0  0  0  0  0  0  0  0
  4  5  1  0
  5  6  2  0
  5 10  1  0
  6  7  1  0
  7  1  1  0
  7  8  2  0
  1  2  2  0
  1  3  1  0
  3 17  1  0
 17 18  1  0
 18 19  2  0
 18 20  2  0
 18 21  1  0
 21 22  2  0
 21 26  1  0
 22 23  1  0
 23 24  2  0
 24 25  1  0
 25 26  2  0
 26 27  1  0
  8  9  1  0
  9 11  1  0
  9 10  2  0
 11 12  1  0
 11 15  1  0
 12 13  2  0
 13 14  1  0
 14 15  2  0
 15 16  1  0
M  END
>  <minimizedAffinity>  (1059) 
-8.63556

$$$$
data/reference_output_2/data/smiles/183958.pdb
     RDKit          3D

 26 29  0  0  0  0  0  0  0  0999 V2000
   69.6715   46.2982   57.1423 C   0  0  0  0  0  0  0  0  0  0  0  0
   70.5867   46.3392   58.0185 O   0  0  0  0  0  0  0  0  0  0  0  0
   69.1465   45.0592   56.7692 N   0  0  0  0  0  0  0  0  0  0  0  0
   69.6132   43.8503   57.3494 N   0  0  0  0  0  0  0  0  0  0  0  0
   69.0156   42.7339   57.1703 C   0  0  0  0  0  0  0  0  0  0  0  0
   67.8138   42.5701   56.3713 C   0  0  0  0  0  0  0  0  0  0  0  0
   67.1920   43.4560   55.7518 O   0  0  0  0  0  0  0  0  0  0  0  0
   67.5004   41.1756   56.4489 N   0  0  0  0  0  0  0  0  0  0  0  0
   68.4791   40.5218   57.2665 C   0  0  0  0  0  0  0  0  0  0  0  0
   68.6093   39.1928   57.6379 C   0  0  0  0  0  0  0  0  0  0  0  0
   69.6473   38.7754   58.4478 C   0  0  0  0  0  0  0  0  0  0  0  0
   70.5803   39.6781   58.9038 C   0  0  0  0  0  0  0  0  0  0  0  0
   72.0089   39.0836   60.0215 Br  0  0  0  0  0  0  0  0  0  0  0  0
   70.4452   41.0053   58.5294 C   0  0  0  0  0  0  0  0  0  0  0  0
   69.4092   41.4324   57.7194 C   0  0  0  0  0  0  0  0  0  0  0  0
   70.0267   48.7022   56.7971 C   0  0  0  0  0  0  0  0  0  0  0  0
   69.1519   47.5304   56.5083 C   0  0  1  0  0  0  0  0  0  0  0  0
   68.9047   47.3613   55.0577 C   0  0  0  0  0  0  0  0  0  0  0  0
   69.6613   48.0792   54.1665 C   0  0  0  0  0  0  0  0  0  0  0  0
   69.4538   47.9258   52.8176 C   0  0  0  0  0  0  0  0  0  0  0  0
   68.5007   47.0645   52.3240 C   0  0  0  0  0  0  0  0  0  0  0  0
   67.7301   46.3334   53.1965 C   0  0  0  0  0  0  0  0  0  0  0  0
   67.9563   46.5039   54.5479 C   0  0  0  0  0  0  0  0  0  0  0  0
   66.8607   45.5567   52.4331 O   0  0  0  0  0  0  0  0  0  0  0  0
   67.4243   45.4588   51.1183 C   0  0  0  0  0  0  0  0  0  0  0  0
   68.0777   46.7120   51.0299 O   0  0  0  0  0  0  0  0  0  0  0  0
 17 16  1  6
 17  1  1  0
 17 18  1  0
  1  2  2  0
  1  3  1  0
  3  4  1  0
  4  5  2  0
  5  6  1  0
  5 15  1  0
  6  7  2  0
  6  8  1  0
  8  9  1  0
  9 10  1  0
  9 15  2  0
 10 11  2  0
 11 12  1  0
 12 13  1  0
 12 14  2  0
 14 15  1  0
 18 19  2  0
 18 23  1  0
 19 20  1  0
 20 21  2  0
 21 22  1  0
 21 26  1  0
 22 23  2  0
 22 24  1  0
 24 25  1  0
 25 26  1  0
M  END
>  <minimizedAffinity>  (1060) 
-8.51365

$$$$
data/reference_output_2/data/smiles/183975.pdb
     RDKit          3D

 25 27  0  0  0  0  0  0  0  0999 V2000
   68.6984   45.0240   56.1307 C   0  0  0  0  0  0  0  0  0  0  0  0
   68.5899   43.6539   56.1839 N   0  0  0  0  0  0  0  0  0  0  0  0
   69.2785   42.9733   57.0848 C   0  0  0  0  0  0  0  0  0  0  0  0
   70.1149   43.5793   57.9904 C   0  0  0  0  0  0  0  0  0  0  0  0
   70.2352   44.9497   57.9509 C   0  0  0  0  0  0  0  0  0  0  0  0
   69.5135   45.6115   57.0131 N   0  0  0  0  0  0  0  0  0  0  0  0
   71.1138   45.6557   58.8846 C   0  0  0  0  0  0  0  0  0  0  0  0
   71.9320   45.0007   59.7748 C   0  0  0  0  0  0  0  0  0  0  0  0
   72.7654   45.7111   60.6555 C   0  0  0  0  0  0  0  0  0  0  0  0
   72.8076   47.0847   60.6729 C   0  0  0  0  0  0  0  0  0  0  0  0
   71.9918   47.7432   59.7842 C   0  0  0  0  0  0  0  0  0  0  0  0
   71.1647   47.0344   58.9106 C   0  0  0  0  0  0  0  0  0  0  0  0
   73.8430   47.9759   61.7657 S   0  0  0  0  0  0  0  0  0  0  0  0
   74.2678   49.5171   61.1117 N   0  0  0  0  0  0  0  0  0  0  0  0
   75.0880   47.2031   62.0819 O   0  0  0  0  0  0  0  0  0  0  0  0
   73.1523   48.2394   63.0845 O   0  0  0  0  0  0  0  0  0  0  0  0
   67.9339   45.6489   55.1344 N   0  0  0  0  0  0  0  0  0  0  0  0
   70.2846   49.7468   53.5561 C   0  0  0  0  0  0  0  0  0  0  0  0
   69.5718   48.4775   53.2647 C   0  0  0  0  0  0  0  0  0  0  0  0
   69.3670   48.0770   51.9643 C   0  0  0  0  0  0  0  0  0  0  0  0
   68.7010   46.8910   51.7413 C   0  0  0  0  0  0  0  0  0  0  0  0
   68.2533   46.1321   52.8015 C   0  0  0  0  0  0  0  0  0  0  0  0
   67.6058   44.9775   52.5376 F   0  0  0  0  0  0  0  0  0  0  0  0
   68.4445   46.5107   54.1416 C   0  0  0  0  0  0  0  0  0  0  0  0
   69.1061   47.6866   54.3181 C   0  0  0  0  0  0  0  0  0  0  0  0
 18 19  1  0
 19 20  2  0
 19 25  1  0
 20 21  1  0
 21 22  2  0
 22 23  1  0
 22 24  1  0
 24 17  1  0
 24 25  2  0
 17  1  1  0
  1  2  2  0
  1  6  1  0
  2  3  1  0
  3  4  2  0
  4  5  1  0
  5  7  1  0
  5  6  2  0
  7  8  2  0
  7 12  1  0
  8  9  1  0
  9 10  2  0
 10 13  1  0
 10 11  1  0
 13 14  1  0
 13 15  2  0
 13 16  2  0
 11 12  2  0
M  END
>  <minimizedAffinity>  (1061) 
-8.54226

$$$$
data/reference_output_2/data/smiles/184013.pdb
     RDKit          3D

 30 33  0  0  0  0  0  0  0  0999 V2000
   72.7390   48.2573   59.4604 C   0  0  0  0  0  0  0  0  0  0  0  0
   72.5914   49.6083   59.2645 C   0  0  0  0  0  0  0  0  0  0  0  0
   71.4957   50.0705   58.5492 C   0  0  0  0  0  0  0  0  0  0  0  0
   70.5450   49.2256   58.0248 C   0  0  0  0  0  0  0  0  0  0  0  0
   70.6991   47.8702   58.2250 C   0  0  0  0  0  0  0  0  0  0  0  0
   71.8017   47.3937   58.9452 C   0  0  0  0  0  0  0  0  0  0  0  0
   74.8591   47.0108   62.3357 N   0  0  0  0  0  0  0  0  0  0  0  0
   73.7868   47.5049   61.5886 C   0  0  0  0  0  0  0  0  0  0  0  0
   72.6998   47.7541   62.1425 O   0  0  0  0  0  0  0  0  0  0  0  0
   73.8445   47.7550   60.1834 N   0  0  0  0  0  0  0  0  0  0  0  0
   74.8160   46.7547   63.7536 C   0  0  0  0  0  0  0  0  0  0  0  0
   79.0440   49.0823   66.7933 N   0  0  0  0  0  0  0  0  0  0  0  0
   78.0099   48.5015   66.0104 C   0  0  0  0  0  0  0  0  0  0  0  0
   78.2083   48.2025   64.6767 C   0  0  0  0  0  0  0  0  0  0  0  0
   77.1722   47.6330   63.9289 C   0  0  0  0  0  0  0  0  0  0  0  0
   75.9472   47.3589   64.4886 C   0  0  0  0  0  0  0  0  0  0  0  0
   75.8067   47.6827   65.8374 C   0  0  0  0  0  0  0  0  0  0  0  0
   76.8154   48.2331   66.5497 N   0  0  0  0  0  0  0  0  0  0  0  0
   69.3703   49.7608   57.2468 C   0  0  0  0  0  0  0  0  0  0  0  0
   69.2142   48.9637   56.0180 N   0  0  0  0  0  0  0  0  0  0  0  0
   69.8398   49.2168   54.7645 C   0  0  0  0  0  0  0  0  0  0  0  0
   70.6298   50.1600   54.5043 O   0  0  0  0  0  0  0  0  0  0  0  0
   69.4123   48.1903   53.8161 C   0  0  0  0  0  0  0  0  0  0  0  0
   69.7004   47.9454   52.4754 C   0  0  0  0  0  0  0  0  0  0  0  0
   69.1642   46.8885   51.7719 C   0  0  0  0  0  0  0  0  0  0  0  0
   68.2977   46.0267   52.4229 C   0  0  0  0  0  0  0  0  0  0  0  0
   67.9980   46.2530   53.7556 C   0  0  0  0  0  0  0  0  0  0  0  0
   68.5470   47.3205   54.4465 C   0  0  0  0  0  0  0  0  0  0  0  0
   68.4189   47.8002   55.8274 C   0  0  0  0  0  0  0  0  0  0  0  0
   67.7140   47.2738   56.7251 O   0  0  0  0  0  0  0  0  0  0  0  0
 12 13  1  0
 13 14  2  0
 13 18  1  0
 14 15  1  0
 15 16  2  0
 16 11  1  0
 16 17  1  0
 11  7  1  0
  7  8  1  0
  8  9  2  0
  8 10  1  0
 10  1  1  0
  1  2  2  0
  1  6  1  0
  2  3  1  0
  3  4  2  0
  4 19  1  0
  4  5  1  0
 19 20  1  0
 20 21  1  0
 20 29  1  0
 21 22  2  0
 21 23  1  0
 23 24  1  0
 23 28  2  0
 24 25  2  0
 25 26  1  0
 26 27  2  0
 27 28  1  0
 28 29  1  0
 29 30  2  0
  5  6  2  0
 17 18  2  0
M  END
>  <minimizedAffinity>  (1062) 
-8.53209

$$$$
data/reference_output_2/data/smiles/184115.pdb
     RDKit          3D

 22 24  0  0  0  0  0  0  0  0999 V2000
   67.4938   47.6152   57.0743 N   0  0  0  0  0  0  0  0  0  0  0  0
   67.9026   48.9636   56.9293 C   0  0  0  0  0  0  0  0  0  0  0  0
   68.8540   49.2796   55.9261 C   0  0  0  0  0  0  0  0  0  0  0  0
   69.1873   50.6110   55.8630 C   0  0  0  0  0  0  0  0  0  0  0  0
   70.0919   51.0519   54.9426 C   0  0  0  0  0  0  0  0  0  0  0  0
   70.4434   52.3825   54.8568 C   0  0  0  0  0  0  0  0  0  0  0  0
   69.8654   53.2791   55.7231 C   0  0  0  0  0  0  0  0  0  0  0  0
   68.9474   52.9035   56.6737 C   0  0  0  0  0  0  0  0  0  0  0  0
   68.6196   51.5600   56.7297 C   0  0  0  0  0  0  0  0  0  0  0  0
   67.7472   51.1936   57.6311 O   0  0  0  0  0  0  0  0  0  0  0  0
   67.3873   49.9418   57.7435 C   0  0  0  0  0  0  0  0  0  0  0  0
   66.5448   49.6495   58.6286 O   0  0  0  0  0  0  0  0  0  0  0  0
   69.3687   48.2891   55.1095 N   0  0  0  0  0  0  0  0  0  0  0  0
   68.9552   47.5730   53.9965 C   0  0  0  0  0  0  0  0  0  0  0  0
   68.0526   46.5239   54.2719 C   0  0  0  0  0  0  0  0  0  0  0  0
   67.5574   45.7302   53.2897 C   0  0  0  0  0  0  0  0  0  0  0  0
   67.9198   45.9222   51.9840 C   0  0  0  0  0  0  0  0  0  0  0  0
   68.7909   46.9249   51.6652 C   0  0  0  0  0  0  0  0  0  0  0  0
   69.2929   47.7347   52.6849 C   0  0  0  0  0  0  0  0  0  0  0  0
   70.1957   48.7813   52.2825 C   0  0  0  0  0  0  0  0  0  0  0  0
   71.2901   48.9449   52.8179 O   0  0  0  0  0  0  0  0  0  0  0  0
   69.8520   49.6458   51.2662 O   0  0  0  0  0  0  0  0  0  0  0  0
  1  2  1  0
  2  3  2  0
  2 11  1  0
  3 13  1  0
  3  4  1  0
 13 14  1  0
 14 15  2  0
 14 19  1  0
 15 16  1  0
 16 17  2  0
 17 18  1  0
 18 19  2  0
 19 20  1  0
 20 21  2  0
 20 22  1  0
  4  5  2  0
  4  9  1  0
  5  6  1  0
  6  7  2  0
  7  8  1  0
  8  9  2  0
  9 10  1  0
 10 11  1  0
 11 12  2  0
M  END
>  <minimizedAffinity>  (1063) 
-9.06181

$$$$
data/reference_output_2/data/smiles/184300.pdb
     RDKit          3D

 27 29  0  0  0  0  0  0  0  0999 V2000
   70.2787   50.5867   54.6400 C   0  0  1  0  0  0  0  0  0  0  0  0
   69.4457   50.2055   53.4293 C   0  0  0  0  0  0  0  0  0  0  0  0
   69.1683   48.7788   53.7230 C   0  0  0  0  0  0  0  0  0  0  0  0
   68.9147   47.7049   52.9020 C   0  0  0  0  0  0  0  0  0  0  0  0
   68.6768   46.4283   53.4262 C   0  0  0  0  0  0  0  0  0  0  0  0
   68.6982   46.2573   54.7820 C   0  0  0  0  0  0  0  0  0  0  0  0
   68.9566   47.3599   55.5844 C   0  0  0  0  0  0  0  0  0  0  0  0
   69.1908   48.6064   55.0930 C   0  0  0  0  0  0  0  0  0  0  0  0
   69.4867   49.9216   55.7466 C   0  0  0  0  0  0  0  0  0  0  0  0
   68.4656   44.9916   55.4016 N   0  0  0  0  0  0  0  0  0  0  0  0
   69.1796   44.5078   56.4364 C   0  0  0  0  0  0  0  0  0  0  0  0
   68.7040   43.2653   56.8005 C   0  0  0  0  0  0  0  0  0  0  0  0
   67.6619   43.0118   55.9355 C   0  0  0  0  0  0  0  0  0  0  0  0
   67.5525   44.0815   55.1074 N   0  0  0  0  0  0  0  0  0  0  0  0
   66.8530   41.7713   55.9683 C   0  0  0  0  0  0  0  0  0  0  0  0
   67.6836   40.6794   55.7882 F   0  0  0  0  0  0  0  0  0  0  0  0
   66.0145   41.8173   54.8544 F   0  0  0  0  0  0  0  0  0  0  0  0
   66.1409   41.6470   57.1315 F   0  0  0  0  0  0  0  0  0  0  0  0
   69.2242   42.4050   57.8969 C   0  0  0  0  0  0  0  0  0  0  0  0
   68.7449   42.8079   59.1482 O   0  0  0  0  0  0  0  0  0  0  0  0
   71.5347   49.9022   54.5146 N   0  0  0  0  0  0  0  0  0  0  0  0
   72.8699   50.9651   54.3592 S   0  0  0  0  0  0  0  0  0  0  0  0
   72.5074   52.2453   53.7088 O   0  0  0  0  0  0  0  0  0  0  0  0
   73.9030   50.2561   53.4951 O   0  0  0  0  0  0  0  0  0  0  0  0
   72.9470   52.3923   56.6050 C   0  0  0  0  0  0  0  0  0  0  0  0
   73.5753   51.1943   55.9721 C   0  0  0  0  0  0  0  0  0  0  0  0
   73.2989   49.9590   56.7986 C   0  0  0  0  0  0  0  0  0  0  0  0
 25 26  1  0
 26 27  1  0
 26 22  1  0
 22 23  2  0
 22 24  2  0
 22 21  1  0
  1 21  1  6
  1  2  1  0
  1  9  1  0
  2  3  1  0
  3  4  2  0
  3  8  1  0
  4  5  1  0
  5  6  2  0
  6 10  1  0
  6  7  1  0
 10 11  1  0
 10 14  1  0
 11 12  2  0
 12 19  1  0
 12 13  1  0
 19 20  1  0
 13 15  1  0
 13 14  2  0
 15 16  1  0
 15 17  1  0
 15 18  1  0
  7  8  2  0
  8  9  1  0
M  END
>  <minimizedAffinity>  (1064) 
-8.54995

$$$$
data/reference_output_2/data/smiles/184347.pdb
     RDKit          3D

 33 37  0  0  0  0  0  0  0  0999 V2000
   69.0253   38.2054   58.9115 O   0  0  0  0  0  0  0  0  0  0  0  0
   70.2082   38.7387   58.8993 C   0  0  0  0  0  0  0  0  0  0  0  0
   70.3275   40.1229   58.6674 N   0  0  0  0  0  0  0  0  0  0  0  0
   69.1027   40.8985   58.4926 C   0  0  0  0  0  0  0  0  0  0  0  0
   69.2143   42.2527   59.1084 C   0  0  0  0  0  0  0  0  0  0  0  0
   68.1876   42.7736   59.5919 O   0  0  0  0  0  0  0  0  0  0  0  0
   70.4445   42.9404   59.1471 N   0  0  0  0  0  0  0  0  0  0  0  0
   71.3996   44.0616   59.1395 C   0  0  1  0  0  0  0  0  0  0  0  0
   72.2652   43.1680   58.3400 C   0  0  2  0  0  0  0  0  0  0  0  0
   71.6513   42.1078   59.2619 C   0  0  2  0  0  0  0  0  0  0  0  0
   71.5629   40.7955   58.5668 C   0  0  0  0  0  0  0  0  0  0  0  0
   73.7134   43.2340   58.3380 C   0  0  0  0  0  0  0  0  0  0  0  0
   74.4576   44.2080   58.9642 C   0  0  0  0  0  0  0  0  0  0  0  0
   75.8536   44.2097   58.9364 C   0  0  0  0  0  0  0  0  0  0  0  0
   76.5891   43.2563   58.2907 C   0  0  0  0  0  0  0  0  0  0  0  0
   75.8234   42.2544   57.6473 C   0  0  0  0  0  0  0  0  0  0  0  0
   74.4625   42.2524   57.6752 C   0  0  0  0  0  0  0  0  0  0  0  0
   78.0065   43.1888   58.2154 C   0  0  0  0  0  0  0  0  0  0  0  0
   79.2319   43.1172   58.1322 C   0  0  0  0  0  0  0  0  0  0  0  0
   80.7025   43.0169   58.0357 C   0  0  0  0  0  0  0  0  0  0  0  0
   80.9831   41.7626   57.2712 C   0  0  0  0  0  0  0  0  0  0  0  0
   80.2087   41.3415   56.2230 C   0  0  0  0  0  0  0  0  0  0  0  0
   80.4758   40.1905   55.5174 C   0  0  0  0  0  0  0  0  0  0  0  0
   81.5830   39.3945   55.8656 C   0  0  0  0  0  0  0  0  0  0  0  0
   82.3654   39.8100   56.9163 C   0  0  0  0  0  0  0  0  0  0  0  0
   82.0809   40.9593   57.6033 C   0  0  0  0  0  0  0  0  0  0  0  0
   71.3033   37.7847   59.1399 C   0  0  0  0  0  0  0  0  0  0  0  0
   70.9323   36.5331   59.8549 C   0  0  0  0  0  0  0  0  0  0  0  0
   71.5338   35.3668   59.0875 C   0  0  0  0  0  0  0  0  0  0  0  0
   72.2447   35.9289   57.8823 C   0  0  0  0  0  0  0  0  0  0  0  0
   72.0330   37.4002   57.8625 C   0  0  0  0  0  0  0  0  0  0  0  0
   70.9197   45.2525   58.3035 C   0  0  0  0  0  0  0  0  0  0  0  0
   69.7566   45.7922   58.8443 O   0  0  0  0  0  0  0  0  0  0  0  0
  1  2  2  0
  2 27  1  0
  2  3  1  0
 27 28  1  0
 27 31  1  0
 28 29  1  0
 29 30  1  0
 30 31  1  0
  3  4  1  0
  3 11  1  0
  4  5  1  0
  5  6  2  0
  5  7  1  0
  7  8  1  0
  7 10  1  0
  8 32  1  6
  8  9  1  0
 32 33  1  0
  9 12  1  1
  9 10  1  0
 12 13  2  0
 12 17  1  0
 13 14  1  0
 14 15  2  0
 15 18  1  0
 15 16  1  0
 18 19  3  0
 19 20  1  0
 20 21  1  0
 21 22  2  0
 21 26  1  0
 22 23  1  0
 23 24  2  0
 24 25  1  0
 25 26  2  0
 16 17  2  0
 10 11  1  6
M  END
>  <minimizedAffinity>  (1065) 
-8.50021

$$$$
data/reference_output_2/data/smiles/184427.pdb
     RDKit          3D

 22 23  0  0  0  0  0  0  0  0999 V2000
   67.7060   42.3251   56.2605 C   0  0  0  0  0  0  0  0  0  0  0  0
   66.5201   42.0798   55.8686 O   0  0  0  0  0  0  0  0  0  0  0  0
   68.2350   43.5737   55.8720 N   0  0  0  0  0  0  0  0  0  0  0  0
   69.7742   39.3872   58.5963 C   0  0  0  0  0  0  0  0  0  0  0  0
   70.3068   40.6421   58.4179 C   0  0  0  0  0  0  0  0  0  0  0  0
   69.6407   41.5948   57.6628 C   0  0  0  0  0  0  0  0  0  0  0  0
   68.4303   41.3450   57.0605 C   0  0  0  0  0  0  0  0  0  0  0  0
   67.9017   40.0630   57.2519 C   0  0  0  0  0  0  0  0  0  0  0  0
   68.5614   39.1141   58.0014 C   0  0  0  0  0  0  0  0  0  0  0  0
   71.5900   37.6951   58.6415 C   0  0  0  0  0  0  0  0  0  0  0  0
   70.4681   38.3386   59.4042 C   0  0  0  0  0  0  0  0  0  0  0  0
   67.5161   44.4884   55.1077 N   0  0  0  0  0  0  0  0  0  0  0  0
   68.1032   45.6718   54.5740 C   0  0  0  0  0  0  0  0  0  0  0  0
   68.1341   45.9056   53.2151 C   0  0  0  0  0  0  0  0  0  0  0  0
   68.6984   47.0450   52.6787 C   0  0  0  0  0  0  0  0  0  0  0  0
   69.2621   48.0100   53.4885 C   0  0  0  0  0  0  0  0  0  0  0  0
   69.2325   47.7780   54.8485 C   0  0  0  0  0  0  0  0  0  0  0  0
   68.6669   46.6375   55.3816 C   0  0  0  0  0  0  0  0  0  0  0  0
   69.9871   49.4684   52.8446 S   0  0  0  0  0  0  0  0  0  0  0  0
   69.9107   49.4717   51.1054 N   0  0  0  0  0  0  0  0  0  0  0  0
   71.4409   49.5252   53.2162 O   0  0  0  0  0  0  0  0  0  0  0  0
   69.2490   50.6979   53.3004 O   0  0  0  0  0  0  0  0  0  0  0  0
 10 11  1  0
 11  4  1  0
  4  5  2  0
  4  9  1  0
  5  6  1  0
  6  7  2  0
  7  1  1  0
  7  8  1  0
  1  2  2  0
  1  3  1  0
  3 12  1  0
 12 13  1  0
 13 14  2  0
 13 18  1  0
 14 15  1  0
 15 16  2  0
 16 19  1  0
 16 17  1  0
 19 20  1  0
 19 21  2  0
 19 22  2  0
 17 18  2  0
  8  9  2  0
M  END
>  <minimizedAffinity>  (1066) 
-8.86890

$$$$
data/reference_output_2/data/smiles/184444.pdb
     RDKit          3D

 21 23  0  0  0  0  0  0  0  0999 V2000
   69.9967   46.0873   56.9488 O   0  0  0  0  0  0  0  0  0  0  0  0
   68.9799   46.0542   56.2251 C   0  0  0  0  0  0  0  0  0  0  0  0
   68.3303   44.8188   56.0026 N   0  0  0  0  0  0  0  0  0  0  0  0
   68.8352   43.5714   56.6123 C   0  0  0  0  0  0  0  0  0  0  0  0
   69.7141   43.0675   57.1264 N   0  0  0  0  0  0  0  0  0  0  0  0
   69.8692   41.8410   57.5922 C   0  0  0  0  0  0  0  0  0  0  0  0
   70.9885   41.2629   58.2257 C   0  0  0  0  0  0  0  0  0  0  0  0
   70.9007   39.9686   58.6168 C   0  0  0  0  0  0  0  0  0  0  0  0
   69.8072   39.1376   58.4575 C   0  0  0  0  0  0  0  0  0  0  0  0
   69.8115   37.8193   58.8936 O   0  0  0  0  0  0  0  0  0  0  0  0
   68.7004   39.6923   57.8368 C   0  0  0  0  0  0  0  0  0  0  0  0
   68.7626   41.0438   57.4167 C   0  0  0  0  0  0  0  0  0  0  0  0
   67.5964   42.0982   56.6076 S   0  0  0  0  0  0  0  0  0  0  0  0
   68.4762   47.2939   55.6178 C   0  0  0  0  0  0  0  0  0  0  0  0
   68.6165   47.2040   54.1439 C   0  0  0  0  0  0  0  0  0  0  0  0
   67.8734   46.2589   53.4436 C   0  0  0  0  0  0  0  0  0  0  0  0
   67.9634   46.1291   52.0740 C   0  0  0  0  0  0  0  0  0  0  0  0
   68.8252   46.9708   51.3716 C   0  0  0  0  0  0  0  0  0  0  0  0
   69.5851   47.9283   52.0372 C   0  0  0  0  0  0  0  0  0  0  0  0
   70.4290   48.7440   51.2982 O   0  0  0  0  0  0  0  0  0  0  0  0
   69.4550   48.0138   53.4090 C   0  0  0  0  0  0  0  0  0  0  0  0
  1  2  2  0
  2 14  1  0
  2  3  1  0
 14 15  1  0
 15 16  2  0
 15 21  1  0
 16 17  1  0
 17 18  2  0
 18 19  1  0
 19 20  1  0
 19 21  2  0
  3  4  1  0
  4  5  2  0
  4 13  1  0
  5  6  1  0
  6  7  2  0
  6 12  1  0
  7  8  1  0
  8  9  2  0
  9 10  1  0
  9 11  1  0
 11 12  2  0
 12 13  1  0
M  END
>  <minimizedAffinity>  (1067) 
-8.53181

$$$$
data/reference_output_2/data/smiles/184464.pdb
     RDKit          3D

 24 26  0  0  0  0  0  0  0  0999 V2000
   72.2328   52.6178   55.3491 C   0  0  0  0  0  0  0  0  0  0  0  0
   71.5007   53.6839   55.8126 C   0  0  0  0  0  0  0  0  0  0  0  0
   70.2655   53.4990   56.3940 C   0  0  0  0  0  0  0  0  0  0  0  0
   69.7752   52.2008   56.5009 C   0  0  0  0  0  0  0  0  0  0  0  0
   68.5595   51.9744   57.0696 C   0  0  0  0  0  0  0  0  0  0  0  0
   68.0646   50.6962   57.1817 C   0  0  0  0  0  0  0  0  0  0  0  0
   68.7908   49.5840   56.7153 C   0  0  0  0  0  0  0  0  0  0  0  0
   69.9652   49.8757   56.1734 N   0  0  0  0  0  0  0  0  0  0  0  0
   70.4838   51.1075   56.0460 C   0  0  0  0  0  0  0  0  0  0  0  0
   71.7129   51.3434   55.4717 C   0  0  0  0  0  0  0  0  0  0  0  0
   72.4845   50.2906   54.9906 O   0  0  0  0  0  0  0  0  0  0  0  0
   74.5746   53.0314   55.4011 O   0  0  0  0  0  0  0  0  0  0  0  0
   73.5438   52.7998   54.7301 C   0  0  0  0  0  0  0  0  0  0  0  0
   73.6504   52.7135   53.3518 O   0  0  0  0  0  0  0  0  0  0  0  0
   68.1939   48.2545   56.8711 C   0  0  0  0  0  0  0  0  0  0  0  0
   68.9378   47.1024   56.2822 C   0  0  0  0  0  0  0  0  0  0  0  0
   68.8109   47.0484   54.8108 C   0  0  0  0  0  0  0  0  0  0  0  0
   69.4152   47.9162   53.9325 C   0  0  0  0  0  0  0  0  0  0  0  0
   69.2019   47.7948   52.5727 C   0  0  0  0  0  0  0  0  0  0  0  0
   68.3861   46.8050   52.0748 C   0  0  0  0  0  0  0  0  0  0  0  0
   68.1769   46.6894   50.7099 O   0  0  0  0  0  0  0  0  0  0  0  0
   67.7691   45.9222   52.9190 C   0  0  0  0  0  0  0  0  0  0  0  0
   66.9462   44.9248   52.4126 O   0  0  0  0  0  0  0  0  0  0  0  0
   67.9859   46.0516   54.2687 C   0  0  0  0  0  0  0  0  0  0  0  0
 12 13  2  0
 13 14  1  0
 13  1  1  0
  1  2  2  0
  1 10  1  0
  2  3  1  0
  3  4  2  0
  4  5  1  0
  4  9  1  0
  5  6  2  0
  6  7  1  0
  7 15  1  0
  7  8  2  0
 15 16  1  0
 16 17  1  0
 17 18  2  0
 17 24  1  0
 18 19  1  0
 19 20  2  0
 20 21  1  0
 20 22  1  0
 22 23  1  0
 22 24  2  0
  8  9  1  0
  9 10  2  0
 10 11  1  0
M  END
>  <minimizedAffinity>  (1068) 
-8.63805

$$$$
data/reference_output_2/data/smiles/184651.pdb
     RDKit          3D

 24 26  0  0  0  0  0  0  0  0999 V2000
   68.6176   43.5432   56.4290 C   0  0  0  0  0  0  0  0  0  0  0  0
   70.0199   43.4555   57.6956 S   0  0  0  0  0  0  0  0  0  0  0  0
   69.8071   41.7000   57.8770 C   0  0  0  0  0  0  0  0  0  0  0  0
   68.9758   41.3950   57.1961 N   0  0  0  0  0  0  0  0  0  0  0  0
   68.2327   42.2399   56.3680 C   0  0  0  0  0  0  0  0  0  0  0  0
   68.3320   46.0941   55.5082 C   0  0  0  0  0  0  0  0  0  0  0  0
   68.1805   46.7950   56.5268 O   0  0  0  0  0  0  0  0  0  0  0  0
   68.4763   44.7188   55.8064 N   0  0  0  0  0  0  0  0  0  0  0  0
   68.5467   46.6974   52.8588 C   0  0  0  0  0  0  0  0  0  0  0  0
   68.4378   46.4099   54.1735 C   0  0  0  0  0  0  0  0  0  0  0  0
   67.0631   41.7005   55.7665 C   0  0  0  0  0  0  0  0  0  0  0  0
   65.7898   41.7616   55.3690 N   0  0  0  0  0  0  0  0  0  0  0  0
   67.4328   40.3252   55.3145 O   0  0  0  0  0  0  0  0  0  0  0  0
   70.7883   41.0043   58.7593 N   0  0  0  0  0  0  0  0  0  0  0  0
   70.6845   39.6435   59.0329 C   0  0  0  0  0  0  0  0  0  0  0  0
   69.9060   38.9759   59.9658 C   0  0  0  0  0  0  0  0  0  0  0  0
   70.0709   37.5658   60.1052 C   0  0  0  0  0  0  0  0  0  0  0  0
   70.9227   36.7774   59.3994 C   0  0  0  0  0  0  0  0  0  0  0  0
   71.0687   35.4436   59.3976 C   0  0  0  0  0  0  0  0  0  0  0  0
   71.9371   34.7494   58.4899 C   0  0  0  0  0  0  0  0  0  0  0  0
   72.6280   35.3620   57.6490 C   0  0  0  0  0  0  0  0  0  0  0  0
   72.5482   36.8198   57.5713 C   0  0  0  0  0  0  0  0  0  0  0  0
   71.6993   37.4855   58.4463 C   0  0  0  0  0  0  0  0  0  0  0  0
   71.5876   38.8168   58.2814 C   0  0  0  0  0  0  0  0  0  0  0  0
  9 10  3  0
 10  6  1  0
  6  7  2  0
  6  8  1  0
  8  1  1  0
  1  2  1  0
  1  5  2  0
  2  3  1  0
  3 14  1  0
  3  4  2  0
 14 15  1  0
 15 16  2  0
 15 24  1  0
 16 17  1  0
 17 18  2  0
 18 19  1  0
 18 23  1  0
 19 20  2  0
 20 21  1  0
 21 22  2  0
 22 23  1  0
 23 24  2  0
  4  5  1  0
  5 11  1  0
 11 12  1  0
 11 13  2  0
M  END
>  <minimizedAffinity>  (1069) 
-8.82066

$$$$
data/reference_output_2/data/smiles/184681.pdb
     RDKit          3D

 26 29  0  0  0  0  0  0  0  0999 V2000
   73.2053   53.9708   57.8947 C   0  0  0  0  0  0  0  0  0  0  0  0
   72.3605   53.2438   56.9656 N   0  0  0  0  0  0  0  0  0  0  0  0
   71.0498   53.3020   56.7865 C   0  0  0  0  0  0  0  0  0  0  0  0
   70.6516   52.4482   55.8084 N   0  0  0  0  0  0  0  0  0  0  0  0
   71.7507   51.8429   55.3665 C   0  0  0  0  0  0  0  0  0  0  0  0
   71.9259   50.9031   54.3710 C   0  0  0  0  0  0  0  0  0  0  0  0
   73.2242   50.4953   54.1479 N   0  0  0  0  0  0  0  0  0  0  0  0
   74.2463   50.9772   54.8499 C   0  0  0  0  0  0  0  0  0  0  0  0
   74.0706   51.8895   55.8138 N   0  0  0  0  0  0  0  0  0  0  0  0
   72.8567   52.3297   56.0854 C   0  0  0  0  0  0  0  0  0  0  0  0
   69.2924   52.2900   55.4558 C   0  0  0  0  0  0  0  0  0  0  0  0
   68.5893   51.2887   56.2952 C   0  0  0  0  0  0  0  0  0  0  0  0
   67.3334   51.5510   56.8621 C   0  0  0  0  0  0  0  0  0  0  0  0
   66.6984   50.6245   57.6662 C   0  0  0  0  0  0  0  0  0  0  0  0
   67.2987   49.4037   57.9302 C   0  0  0  0  0  0  0  0  0  0  0  0
   68.5132   49.1310   57.3928 C   0  0  0  0  0  0  0  0  0  0  0  0
   69.1305   50.0789   56.5889 C   0  0  0  0  0  0  0  0  0  0  0  0
   70.9002   50.3307   53.5918 N   0  0  0  0  0  0  0  0  0  0  0  0
   71.2079   49.2236   52.8839 O   0  0  0  0  0  0  0  0  0  0  0  0
   70.2522   48.7330   52.0572 C   0  0  0  0  0  0  0  0  0  0  0  0
   69.3449   47.7149   52.6186 C   0  0  0  0  0  0  0  0  0  0  0  0
   68.7050   46.8300   51.7820 C   0  0  0  0  0  0  0  0  0  0  0  0
   67.8781   45.8888   52.3463 C   0  0  0  0  0  0  0  0  0  0  0  0
   67.6577   45.7875   53.7013 C   0  0  0  0  0  0  0  0  0  0  0  0
   68.3266   46.7023   54.4931 C   0  0  0  0  0  0  0  0  0  0  0  0
   69.1637   47.6610   53.9758 C   0  0  0  0  0  0  0  0  0  0  0  0
  1  2  1  0
  2  3  1  0
  2 10  1  0
  3  4  2  0
  4 11  1  0
  4  5  1  0
 11 12  1  0
 12 13  2  0
 12 17  1  0
 13 14  1  0
 14 15  2  0
 15 16  1  0
 16 17  2  0
  5  6  1  0
  5 10  2  0
  6 18  1  0
  6  7  2  0
 18 19  1  0
 19 20  1  0
 20 21  1  0
 21 22  2  0
 21 26  1  0
 22 23  1  0
 23 24  2  0
 24 25  1  0
 25 26  2  0
  7  8  1  0
  8  9  2  0
  9 10  1  0
M  CHG  1   4   1
M  END
>  <minimizedAffinity>  (1070) 
-8.97998

$$$$
data/reference_output_2/data/smiles/184737.pdb
     RDKit          3D

 24 27  0  0  0  0  0  0  0  0999 V2000
   68.3264   47.2523   55.5046 C   0  0  0  0  0  0  0  0  0  0  0  0
   68.2971   48.5805   56.1742 C   0  0  0  0  0  0  0  0  0  0  0  0
   67.8796   48.8863   57.4636 C   0  0  0  0  0  0  0  0  0  0  0  0
   67.9264   50.1893   57.9357 C   0  0  0  0  0  0  0  0  0  0  0  0
   68.3988   51.1722   57.0896 C   0  0  0  0  0  0  0  0  0  0  0  0
   68.8202   50.8706   55.7929 C   0  0  0  0  0  0  0  0  0  0  0  0
   68.7673   49.5672   55.3352 C   0  0  0  0  0  0  0  0  0  0  0  0
   69.1214   48.9406   54.0706 C   0  0  0  0  0  0  0  0  0  0  0  0
   69.6384   49.4265   52.8755 C   0  0  0  0  0  0  0  0  0  0  0  0
   69.8976   48.6054   51.7851 C   0  0  0  0  0  0  0  0  0  0  0  0
   69.6309   47.2532   51.8962 C   0  0  0  0  0  0  0  0  0  0  0  0
   69.1217   46.7747   53.0733 C   0  0  0  0  0  0  0  0  0  0  0  0
   68.8671   47.5937   54.1494 C   0  0  0  0  0  0  0  0  0  0  0  0
   69.3048   46.4054   56.1969 N   0  0  0  0  0  0  0  0  0  0  0  0
   68.2752   42.3518   56.3999 C   0  0  0  0  0  0  0  0  0  0  0  0
   67.6593   43.1991   55.5221 C   0  0  0  0  0  0  0  0  0  0  0  0
   67.9976   44.5081   55.4620 N   0  0  0  0  0  0  0  0  0  0  0  0
   68.9385   45.0200   56.2533 C   0  0  0  0  0  0  0  0  0  0  0  0
   69.5548   44.1880   57.1254 N   0  0  0  0  0  0  0  0  0  0  0  0
   69.2500   42.8889   57.2156 C   0  0  0  0  0  0  0  0  0  0  0  0
   67.5191   40.3823   55.3992 O   0  0  0  0  0  0  0  0  0  0  0  0
   67.9208   40.9434   56.4743 C   0  0  0  0  0  0  0  0  0  0  0  0
   67.9876   40.1536   57.6365 N   0  0  0  0  0  0  0  0  0  0  0  0
   67.6244   38.8377   57.5576 O   0  0  0  0  0  0  0  0  0  0  0  0
 21 22  2  0
 22 23  1  0
 22 15  1  0
 23 24  1  0
 15 16  2  0
 15 20  1  0
 16 17  1  0
 17 18  2  0
 18 14  1  0
 18 19  1  0
 14  1  1  0
  1  2  1  0
  1 13  1  0
  2  3  2  0
  2  7  1  0
  3  4  1  0
  4  5  2  0
  5  6  1  0
  6  7  2  0
  7  8  1  0
  8  9  2  0
  8 13  1  0
  9 10  1  0
 10 11  2  0
 11 12  1  0
 12 13  2  0
 19 20  2  0
M  END
>  <minimizedAffinity>  (1071) 
-8.93791

$$$$
data/reference_output_2/data/smiles/184816.pdb
     RDKit          3D

 28 32  0  0  0  0  0  0  0  0999 V2000
   77.7710   35.0279   55.3808 O   0  0  0  0  0  0  0  0  0  0  0  0
   76.8477   35.0627   54.5266 C   0  0  0  0  0  0  0  0  0  0  0  0
   77.1589   35.0309   53.1932 N   0  0  0  0  0  0  0  0  0  0  0  0
   76.2257   35.0658   52.2255 C   0  0  0  0  0  0  0  0  0  0  0  0
   74.9181   35.1349   52.6544 C   0  0  0  0  0  0  0  0  0  0  0  0
   74.5727   35.1690   54.0118 C   0  0  0  0  0  0  0  0  0  0  0  0
   73.2651   35.2379   54.4324 C   0  0  0  0  0  0  0  0  0  0  0  0
   72.9810   35.2685   55.8019 C   0  0  0  0  0  0  0  0  0  0  0  0
   73.9440   35.2325   56.7396 N   0  0  0  0  0  0  0  0  0  0  0  0
   75.2199   35.1645   56.3153 C   0  0  0  0  0  0  0  0  0  0  0  0
   75.5519   35.1326   54.9730 C   0  0  0  0  0  0  0  0  0  0  0  0
   76.5891   35.0306   50.8060 C   0  0  0  0  0  0  0  0  0  0  0  0
   77.6207   35.7996   50.3153 C   0  0  0  0  0  0  0  0  0  0  0  0
   77.9921   35.7877   48.9606 C   0  0  0  0  0  0  0  0  0  0  0  0
   77.3200   34.9895   48.0683 C   0  0  0  0  0  0  0  0  0  0  0  0
   77.6580   34.9497   46.7202 C   0  0  0  0  0  0  0  0  0  0  0  0
   76.9894   34.1527   45.8219 C   0  0  0  0  0  0  0  0  0  0  0  0
   75.9533   33.3720   46.2831 C   0  0  0  0  0  0  0  0  0  0  0  0
   75.6170   33.4148   47.6390 C   0  0  0  0  0  0  0  0  0  0  0  0
   76.2888   34.2146   48.5357 C   0  0  0  0  0  0  0  0  0  0  0  0
   75.9334   34.2413   49.8915 C   0  0  0  0  0  0  0  0  0  0  0  0
   73.6151   35.2658   58.1578 C   0  0  0  0  0  0  0  0  0  0  0  0
   72.5108   36.2413   58.4319 C   0  0  0  0  0  0  0  0  0  0  0  0
   71.4248   35.8313   59.1780 C   0  0  0  0  0  0  0  0  0  0  0  0
   70.3845   36.7064   59.4513 C   0  0  0  0  0  0  0  0  0  0  0  0
   70.4034   38.0030   58.9893 C   0  0  0  0  0  0  0  0  0  0  0  0
   71.5021   38.3825   58.2471 C   0  0  0  0  0  0  0  0  0  0  0  0
   72.5418   37.5246   57.9686 C   0  0  0  0  0  0  0  0  0  0  0  0
  1  2  2  0
  2  3  1  0
  2 11  1  0
  3  4  1  0
  4 12  1  0
  4  5  2  0
 12 13  2  0
 12 21  1  0
 13 14  1  0
 14 15  2  0
 15 16  1  0
 15 20  1  0
 16 17  2  0
 17 18  1  0
 18 19  2  0
 19 20  1  0
 20 21  2  0
  5  6  1  0
  6  7  1  0
  6 11  2  0
  7  8  2  0
  8  9  1  0
  9 22  1  0
  9 10  2  0
 22 23  1  0
 23 24  2  0
 23 28  1  0
 24 25  1  0
 25 26  2  0
 26 27  1  0
 27 28  2  0
 10 11  1  0
M  CHG  1   9   1
M  END
>  <minimizedAffinity>  (1072) 
-9.44700

$$$$
data/reference_output_2/data/smiles/184884.pdb
     RDKit          3D

 25 28  0  0  0  0  0  0  0  0999 V2000
   68.0615   43.5422   55.9931 C   0  0  0  0  0  0  0  0  0  0  0  0
   66.9797   42.8864   55.8595 O   0  0  0  0  0  0  0  0  0  0  0  0
   69.0044   43.0171   56.8850 N   0  0  0  0  0  0  0  0  0  0  0  0
   68.8514   41.8075   57.6532 C   0  0  1  0  0  0  0  0  0  0  0  0
   68.0132   42.0602   58.8959 C   0  0  0  0  0  0  0  0  0  0  0  0
   68.0390   40.8890   59.8226 C   0  0  2  0  0  0  0  0  0  0  0  0
   69.4373   40.5110   60.2557 C   0  0  0  0  0  0  0  0  0  0  0  0
   70.2411   40.2347   59.0289 C   0  0  1  0  0  0  0  0  0  0  0  0
   69.6214   39.0867   58.2799 C   0  0  0  0  0  0  0  0  0  0  0  0
   68.2291   39.4682   57.8429 C   0  0  1  0  0  0  0  0  0  0  0  0
   67.3903   39.7286   59.0598 C   0  0  0  0  0  0  0  0  0  0  0  0
   68.2414   40.6738   56.9168 C   0  0  0  0  0  0  0  0  0  0  0  0
   70.2636   41.4352   58.1143 C   0  0  0  0  0  0  0  0  0  0  0  0
   68.5122   47.1374   53.7202 C   0  0  0  0  0  0  0  0  0  0  0  0
   68.9567   47.0495   55.0207 C   0  0  0  0  0  0  0  0  0  0  0  0
   68.8065   45.8680   55.7614 C   0  0  0  0  0  0  0  0  0  0  0  0
   68.2113   44.7570   55.2180 C   0  0  0  0  0  0  0  0  0  0  0  0
   67.7757   44.8691   53.9193 C   0  0  0  0  0  0  0  0  0  0  0  0
   67.9157   46.0212   53.1791 C   0  0  0  0  0  0  0  0  0  0  0  0
   67.4731   46.0935   51.9006 F   0  0  0  0  0  0  0  0  0  0  0  0
   68.6653   48.3130   52.9935 O   0  0  0  0  0  0  0  0  0  0  0  0
   71.4070   49.0333   52.8733 N   0  0  0  0  0  0  0  0  0  0  0  0
   69.9857   48.6453   52.0096 S   0  0  0  0  0  0  0  0  0  0  0  0
   69.6258   49.8590   51.1664 O   0  0  0  0  0  0  0  0  0  0  0  0
   70.2692   47.5010   51.0645 O   0  0  0  0  0  0  0  0  0  0  0  0
 22 23  1  0
 23 24  2  0
 23 25  2  0
 23 21  1  0
 21 14  1  0
 14 15  2  0
 14 19  1  0
 15 16  1  0
 16 17  2  0
 17  1  1  0
 17 18  1  0
  1  2  2  0
  1  3  1  0
  4  3  1  6
  4  5  1  0
  4 12  1  0
  4 13  1  0
  6  5  1  6
  6  7  1  0
  6 11  1  0
  8  7  1  1
  8  9  1  0
  8 13  1  0
 10  9  1  1
 10 11  1  0
 10 12  1  0
 18 19  2  0
 19 20  1  0
M  END
>  <minimizedAffinity>  (1073) 
-8.53449

$$$$
data/reference_output_2/data/smiles/184982.pdb
     RDKit          3D

 23 24  0  0  0  0  0  0  0  0999 V2000
   67.7818   42.0890   56.7524 C   0  0  0  0  0  0  0  0  0  0  0  0
   67.6988   41.4030   55.7135 O   0  0  0  0  0  0  0  0  0  0  0  0
   67.9519   43.4885   56.6224 N   0  0  0  0  0  0  0  0  0  0  0  0
   68.0185   44.0276   55.3352 N   0  0  0  0  0  0  0  0  0  0  0  0
   68.1661   45.4039   55.0616 C   0  0  0  0  0  0  0  0  0  0  0  0
   68.2406   46.1741   56.0508 O   0  0  0  0  0  0  0  0  0  0  0  0
   68.2363   45.9800   53.7317 C   0  0  0  0  0  0  0  0  0  0  0  0
   69.0248   47.0780   53.4930 C   0  0  0  0  0  0  0  0  0  0  0  0
   69.1128   47.6572   52.2200 C   0  0  0  0  0  0  0  0  0  0  0  0
   68.4174   47.1428   51.1915 N   0  0  0  0  0  0  0  0  0  0  0  0
   67.6476   46.0700   51.4284 C   0  0  0  0  0  0  0  0  0  0  0  0
   67.5320   45.4690   52.6659 C   0  0  0  0  0  0  0  0  0  0  0  0
   67.7003   41.4212   58.0613 C   0  0  0  0  0  0  0  0  0  0  0  0
   67.9743   39.9304   57.9311 C   0  0  0  0  0  0  0  0  0  0  0  0
   69.1561   39.4641   58.1811 O   0  0  0  0  0  0  0  0  0  0  0  0
   72.2048   35.7446   59.0684 C   0  0  0  0  0  0  0  0  0  0  0  0
   71.8917   37.1978   58.8754 C   0  0  0  0  0  0  0  0  0  0  0  0
   72.9118   38.0861   58.9678 C   0  0  0  0  0  0  0  0  0  0  0  0
   72.6499   39.4287   58.7942 C   0  0  0  0  0  0  0  0  0  0  0  0
   71.4035   39.9121   58.5296 C   0  0  0  0  0  0  0  0  0  0  0  0
   71.1844   41.3744   58.3510 C   0  0  0  0  0  0  0  0  0  0  0  0
   70.3279   39.0025   58.4296 C   0  0  0  0  0  0  0  0  0  0  0  0
   70.6353   37.6516   58.6127 C   0  0  0  0  0  0  0  0  0  0  0  0
 16 17  1  0
 17 18  2  0
 17 23  1  0
 18 19  1  0
 19 20  2  0
 20 21  1  0
 20 22  1  0
 22 15  1  0
 22 23  2  0
 15 14  1  0
 14 13  1  0
 13  1  1  0
  1  2  2  0
  1  3  1  0
  3  4  1  0
  4  5  1  0
  5  6  2  0
  5  7  1  0
  7  8  2  0
  7 12  1  0
  8  9  1  0
  9 10  2  0
 10 11  1  0
 11 12  2  0
M  END
>  <minimizedAffinity>  (1074) 
-8.66387

$$$$
data/reference_output_2/data/smiles/184985.pdb
     RDKit          3D

 27 29  0  0  0  0  0  0  0  0999 V2000
   70.2817   49.6514   54.1559 C   0  0  0  0  0  0  0  0  0  0  0  0
   69.7909   49.1337   55.3184 C   0  0  0  0  0  0  0  0  0  0  0  0
   69.0283   47.9940   55.3068 N   0  0  0  0  0  0  0  0  0  0  0  0
   68.7215   47.3342   54.1822 C   0  0  0  0  0  0  0  0  0  0  0  0
   67.9440   46.2021   54.2036 C   0  0  0  0  0  0  0  0  0  0  0  0
   67.6581   45.5709   52.9859 C   0  0  0  0  0  0  0  0  0  0  0  0
   68.1402   46.0670   51.7947 C   0  0  0  0  0  0  0  0  0  0  0  0
   68.9158   47.2016   51.7910 C   0  0  0  0  0  0  0  0  0  0  0  0
   69.2096   47.8373   52.9661 C   0  0  0  0  0  0  0  0  0  0  0  0
   69.9782   48.9876   52.9972 C   0  0  0  0  0  0  0  0  0  0  0  0
   70.4179   49.4431   51.9113 O   0  0  0  0  0  0  0  0  0  0  0  0
   71.1062   50.8820   54.1390 C   0  0  0  0  0  0  0  0  0  0  0  0
   70.7644   51.7533   53.3004 O   0  0  0  0  0  0  0  0  0  0  0  0
   72.2459   51.0792   55.0343 C   0  0  0  0  0  0  0  0  0  0  0  0
   73.5266   51.3190   54.3156 C   0  0  0  0  0  0  0  0  0  0  0  0
   74.0077   50.3709   53.6433 O   0  0  0  0  0  0  0  0  0  0  0  0
   75.0917   52.7968   55.2284 O   0  0  0  0  0  0  0  0  0  0  0  0
   74.2417   52.5687   54.3478 C   0  0  0  0  0  0  0  0  0  0  0  0
   73.9900   53.5331   53.3946 O   0  0  0  0  0  0  0  0  0  0  0  0
   68.5662   47.4650   56.5892 C   0  0  0  0  0  0  0  0  0  0  0  0
   69.6608   46.7811   57.3236 C   0  0  0  0  0  0  0  0  0  0  0  0
   69.9551   45.4477   57.2736 C   0  0  0  0  0  0  0  0  0  0  0  0
   71.0114   44.8849   58.0031 C   0  0  0  0  0  0  0  0  0  0  0  0
   71.8057   45.6605   58.8111 C   0  0  0  0  0  0  0  0  0  0  0  0
   72.8398   45.1347   59.5300 F   0  0  0  0  0  0  0  0  0  0  0  0
   71.5215   47.0040   58.8714 C   0  0  0  0  0  0  0  0  0  0  0  0
   70.4860   47.5556   58.1562 C   0  0  0  0  0  0  0  0  0  0  0  0
 17 18  2  0
 18 19  1  0
 18 15  1  0
 15 16  2  0
 15 14  1  0
 14 12  1  0
 12 13  2  0
 12  1  1  0
  1  2  2  0
  1 10  1  0
  2  3  1  0
  3 20  1  0
  3  4  1  0
 20 21  1  0
 21 22  2  0
 21 27  1  0
 22 23  1  0
 23 24  2  0
 24 25  1  0
 24 26  1  0
 26 27  2  0
  4  5  1  0
  4  9  2  0
  5  6  2  0
  6  7  1  0
  7  8  2  0
  8  9  1  0
  9 10  1  0
 10 11  2  0
M  END
>  <minimizedAffinity>  (1075) 
-9.01328

$$$$
data/reference_output_2/data/smiles/185183.pdb
     RDKit          3D

 23 25  0  0  0  0  0  0  0  0999 V2000
   71.8466   49.8140   54.3947 O   0  0  0  0  0  0  0  0  0  0  0  0
   70.8160   49.9926   53.4968 C   0  0  0  0  0  0  0  0  0  0  0  0
   70.3438   51.1438   53.3515 O   0  0  0  0  0  0  0  0  0  0  0  0
   70.2710   48.8853   52.7213 C   0  0  0  0  0  0  0  0  0  0  0  0
   70.5175   48.6057   51.4204 N   0  0  0  0  0  0  0  0  0  0  0  0
   69.8553   47.5291   51.0477 N   0  0  0  0  0  0  0  0  0  0  0  0
   69.1355   47.0375   52.0829 C   0  0  0  0  0  0  0  0  0  0  0  0
   68.2914   45.9518   52.2162 C   0  0  0  0  0  0  0  0  0  0  0  0
   67.6862   45.7024   53.4292 C   0  0  0  0  0  0  0  0  0  0  0  0
   67.9420   46.5527   54.4926 C   0  0  0  0  0  0  0  0  0  0  0  0
   68.7898   47.6301   54.3317 C   0  0  0  0  0  0  0  0  0  0  0  0
   69.4010   47.8961   53.1319 C   0  0  0  0  0  0  0  0  0  0  0  0
   71.7752   50.4708   55.6417 C   0  0  0  0  0  0  0  0  0  0  0  0
   71.4727   48.7032   57.1927 O   0  0  0  0  0  0  0  0  0  0  0  0
   70.9657   49.6951   56.6130 C   0  0  0  0  0  0  0  0  0  0  0  0
   69.5962   50.0668   56.9026 C   0  0  0  0  0  0  0  0  0  0  0  0
   69.1419   51.3589   56.7385 C   0  0  0  0  0  0  0  0  0  0  0  0
   67.8381   51.7240   57.0116 C   0  0  0  0  0  0  0  0  0  0  0  0
   66.9522   50.7684   57.4643 C   0  0  0  0  0  0  0  0  0  0  0  0
   65.6765   51.1480   57.7264 F   0  0  0  0  0  0  0  0  0  0  0  0
   67.3774   49.4565   57.6402 C   0  0  0  0  0  0  0  0  0  0  0  0
   66.4682   48.5575   58.0868 F   0  0  0  0  0  0  0  0  0  0  0  0
   68.6868   49.1382   57.3556 C   0  0  0  0  0  0  0  0  0  0  0  0
 14 15  2  0
 15 13  1  0
 15 16  1  0
 13  1  1  0
  1  2  1  0
  2  3  2  0
  2  4  1  0
  4  5  1  0
  4 12  2  0
  5  6  1  0
  6  7  2  0
  7  8  1  0
  7 12  1  0
  8  9  2  0
  9 10  1  0
 10 11  2  0
 11 12  1  0
 16 17  2  0
 16 23  1  0
 17 18  1  0
 18 19  2  0
 19 20  1  0
 19 21  1  0
 21 22  1  0
 21 23  2  0
M  END
>  <minimizedAffinity>  (1076) 
-9.24275

$$$$
data/reference_output_2/data/smiles/185303.pdb
     RDKit          3D

 24 26  0  0  0  0  0  0  0  0999 V2000
   68.4948   44.0039   56.1479 N   0  0  0  0  0  0  0  0  0  0  0  0
   67.9942   42.6675   56.2879 C   0  0  0  0  0  0  0  0  0  0  0  0
   66.9285   42.4018   55.6880 O   0  0  0  0  0  0  0  0  0  0  0  0
   68.6581   41.6400   57.0765 C   0  0  0  0  0  0  0  0  0  0  0  0
   68.1027   40.4371   57.4421 C   0  0  0  0  0  0  0  0  0  0  0  0
   69.0329   39.7411   58.1786 C   0  0  0  0  0  0  0  0  0  0  0  0
   69.0225   38.4884   58.7963 C   0  0  0  0  0  0  0  0  0  0  0  0
   70.1036   37.9942   59.4942 C   0  0  0  0  0  0  0  0  0  0  0  0
   70.0416   36.4073   60.2576 Cl  0  0  0  0  0  0  0  0  0  0  0  0
   71.2311   38.7822   59.5751 C   0  0  0  0  0  0  0  0  0  0  0  0
   71.2568   40.0208   58.9701 C   0  0  0  0  0  0  0  0  0  0  0  0
   70.1532   40.5052   58.2669 C   0  0  0  0  0  0  0  0  0  0  0  0
   69.8988   41.6397   57.5959 N   0  0  0  0  0  0  0  0  0  0  0  0
   67.8834   44.9812   55.4106 N   0  0  0  0  0  0  0  0  0  0  0  0
   68.4069   46.5768   55.5715 S   0  0  0  0  0  0  0  0  0  0  0  0
   69.5857   46.5464   56.5553 O   0  0  0  0  0  0  0  0  0  0  0  0
   67.3683   47.4263   56.3001 O   0  0  0  0  0  0  0  0  0  0  0  0
   67.7873   45.6969   52.6805 C   0  0  0  0  0  0  0  0  0  0  0  0
   68.6709   46.8464   52.8957 C   0  0  0  0  0  0  0  0  0  0  0  0
   69.1997   47.4931   51.7667 C   0  0  0  0  0  0  0  0  0  0  0  0
   69.9890   48.5937   51.8382 C   0  0  0  0  0  0  0  0  0  0  0  0
   70.2813   49.0955   53.0862 C   0  0  0  0  0  0  0  0  0  0  0  0
   69.7681   48.4688   54.2000 C   0  0  0  0  0  0  0  0  0  0  0  0
   68.9565   47.3360   54.1386 C   0  0  0  0  0  0  0  0  0  0  0  0
 18 19  1  0
 19 20  2  0
 19 24  1  0
 20 21  1  0
 21 22  2  0
 22 23  1  0
 23 24  2  0
 24 15  1  0
 15 16  2  0
 15 17  2  0
 15 14  1  0
 14  1  1  0
  1  2  1  0
  2  3  2  0
  2  4  1  0
  4  5  2  0
  4 13  1  0
  5  6  1  0
  6  7  2  0
  6 12  1  0
  7  8  1  0
  8  9  1  0
  8 10  2  0
 10 11  1  0
 11 12  2  0
 12 13  1  0
M  END
>  <minimizedAffinity>  (1077) 
-8.85475

$$$$
data/reference_output_2/data/smiles/185315.pdb
     RDKit          3D

 27 30  0  0  0  0  0  0  0  0999 V2000
   70.3490   45.4656   58.2554 C   0  0  0  0  0  0  0  0  0  0  0  0
   71.5528   45.7494   58.8592 C   0  0  0  0  0  0  0  0  0  0  0  0
   72.1475   47.0082   58.6979 C   0  0  0  0  0  0  0  0  0  0  0  0
   71.5431   47.9859   57.9365 C   0  0  0  0  0  0  0  0  0  0  0  0
   70.3167   47.6953   57.3235 C   0  0  0  0  0  0  0  0  0  0  0  0
   69.7687   46.4586   57.5026 C   0  0  0  0  0  0  0  0  0  0  0  0
   70.1801   43.0304   57.7713 C   0  0  0  0  0  0  0  0  0  0  0  0
   71.2419   43.2155   57.0645 O   0  0  0  0  0  0  0  0  0  0  0  0
   69.7144   44.1980   58.3911 N   0  0  0  0  0  0  0  0  0  0  0  0
   67.5212   41.8969   56.4536 C   0  0  0  0  0  0  0  0  0  0  0  0
   68.5131   41.2029   57.2829 N   0  0  0  0  0  0  0  0  0  0  0  0
   68.4071   39.8807   57.6172 C   0  0  0  0  0  0  0  0  0  0  0  0
   69.4763   39.5295   58.3931 C   0  0  0  0  0  0  0  0  0  0  0  0
   70.2219   40.6596   58.5184 C   0  0  0  0  0  0  0  0  0  0  0  0
   69.6270   41.6978   57.8313 C   0  0  0  0  0  0  0  0  0  0  0  0
   69.7369   48.7516   56.4892 C   0  0  0  0  0  0  0  0  0  0  0  0
   69.9076   48.6165   55.0450 C   0  0  0  0  0  0  0  0  0  0  0  0
   70.8660   49.4277   54.5000 N   0  0  0  0  0  0  0  0  0  0  0  0
   71.1182   49.4304   53.2101 N   0  0  0  0  0  0  0  0  0  0  0  0
   70.4254   48.6261   52.4197 C   0  0  0  0  0  0  0  0  0  0  0  0
   70.6846   48.6457   51.1770 O   0  0  0  0  0  0  0  0  0  0  0  0
   69.4469   47.7829   52.8926 C   0  0  0  0  0  0  0  0  0  0  0  0
   69.1754   47.7746   54.2511 C   0  0  0  0  0  0  0  0  0  0  0  0
   68.1599   46.8771   54.8296 C   0  0  0  0  0  0  0  0  0  0  0  0
   67.2905   46.2572   53.7626 C   0  0  0  0  0  0  0  0  0  0  0  0
   68.2119   45.7177   52.6766 C   0  0  0  0  0  0  0  0  0  0  0  0
   68.7285   46.9122   51.9318 C   0  0  0  0  0  0  0  0  0  0  0  0
 10 11  1  0
 11 12  1  0
 11 15  1  0
 12 13  2  0
 13 14  1  0
 14 15  2  0
 15  7  1  0
  7  8  2  0
  7  9  1  0
  9  1  1  0
  1  2  2  0
  1  6  1  0
  2  3  1  0
  3  4  2  0
  4  5  1  0
  5 16  1  0
  5  6  2  0
 16 17  1  0
 17 18  2  0
 17 23  1  0
 18 19  1  0
 19 20  1  0
 20 21  2  0
 20 22  1  0
 22 23  2  0
 22 27  1  0
 23 24  1  0
 24 25  1  0
 25 26  1  0
 26 27  1  0
M  END
>  <minimizedAffinity>  (1078) 
-8.89952

$$$$
data/reference_output_2/data/smiles/185323.pdb
     RDKit          3D

 28 31  0  0  0  0  0  0  0  0999 V2000
   69.7177   47.4762   57.1153 C   0  0  0  0  0  0  0  0  0  0  0  0
   69.7560   46.0998   57.0033 C   0  0  0  0  0  0  0  0  0  0  0  0
   70.6241   45.3437   57.7803 C   0  0  0  0  0  0  0  0  0  0  0  0
   71.4652   45.9650   58.6802 C   0  0  0  0  0  0  0  0  0  0  0  0
   72.3312   45.2295   59.4568 F   0  0  0  0  0  0  0  0  0  0  0  0
   71.4088   47.3340   58.7739 C   0  0  0  0  0  0  0  0  0  0  0  0
   70.5532   48.0977   58.0102 C   0  0  0  0  0  0  0  0  0  0  0  0
   72.2964   47.9922   59.7233 C   0  0  0  0  0  0  0  0  0  0  0  0
   72.0442   47.8879   60.9478 O   0  0  0  0  0  0  0  0  0  0  0  0
   73.4269   48.7418   59.3250 N   0  0  0  0  0  0  0  0  0  0  0  0
   74.2182   49.3405   60.3771 C   0  0  0  0  0  0  0  0  0  0  0  0
   75.2677   48.3043   60.7795 C   0  0  0  0  0  0  0  0  0  0  0  0
   76.2826   48.2622   59.6392 C   0  0  0  0  0  0  0  0  0  0  0  0
   75.6987   47.5506   58.5223 N   0  0  0  0  0  0  0  0  0  0  0  0
   75.1000   48.4195   57.5552 C   0  0  0  0  0  0  0  0  0  0  0  0
   73.7153   48.8605   57.9079 C   0  0  0  0  0  0  0  0  0  0  0  0
   68.7784   48.2879   56.2773 C   0  0  0  0  0  0  0  0  0  0  0  0
   67.1693   44.8290   52.1623 C   0  0  0  0  0  0  0  0  0  0  0  0
   67.9780   46.0179   52.5971 C   0  0  0  0  0  0  0  0  0  0  0  0
   68.7895   46.7900   51.7948 C   0  0  0  0  0  0  0  0  0  0  0  0
   69.3176   47.7519   52.6265 C   0  0  0  0  0  0  0  0  0  0  0  0
   70.1992   48.7777   52.3155 C   0  0  0  0  0  0  0  0  0  0  0  0
   70.6241   48.9247   51.1360 O   0  0  0  0  0  0  0  0  0  0  0  0
   70.5902   49.6095   53.2944 N   0  0  0  0  0  0  0  0  0  0  0  0
   70.1288   49.4410   54.5506 C   0  0  0  0  0  0  0  0  0  0  0  0
   69.2487   48.4233   54.8769 C   0  0  0  0  0  0  0  0  0  0  0  0
   68.8697   47.6009   53.8838 N   0  0  0  0  0  0  0  0  0  0  0  0
   68.0519   46.5433   53.8696 C   0  0  0  0  0  0  0  0  0  0  0  0
 18 19  1  0
 19 20  1  0
 19 28  2  0
 20 21  2  0
 21 22  1  0
 21 27  1  0
 22 23  2  0
 22 24  1  0
 24 25  1  0
 25 26  2  0
 26 17  1  0
 26 27  1  0
 17  1  1  0
  1  2  2  0
  1  7  1  0
  2  3  1  0
  3  4  2  0
  4  5  1  0
  4  6  1  0
  6  8  1  0
  6  7  2  0
  8  9  2  0
  8 10  1  0
 10 11  1  0
 10 16  1  0
 11 12  1  0
 12 13  1  0
 13 14  1  0
 14 15  1  0
 15 16  1  0
 27 28  1  0
M  CHG  1  14   1
M  END
>  <minimizedAffinity>  (1079) 
-8.64001

$$$$
data/reference_output_2/data/smiles/185326.pdb
     RDKit          3D

 26 29  0  0  0  0  0  0  0  0999 V2000
   68.2995   45.7653   54.0581 C   0  0  0  0  0  0  0  0  0  0  0  0
   67.6017   45.3930   52.9294 C   0  0  0  0  0  0  0  0  0  0  0  0
   67.6396   46.1603   51.7667 C   0  0  0  0  0  0  0  0  0  0  0  0
   68.3952   47.3115   51.7593 C   0  0  0  0  0  0  0  0  0  0  0  0
   69.1038   47.7144   52.8640 C   0  0  0  0  0  0  0  0  0  0  0  0
   69.0349   46.9260   53.9842 C   0  0  0  0  0  0  0  0  0  0  0  0
   68.5497   45.3902   56.3702 O   0  0  0  0  0  0  0  0  0  0  0  0
   68.2241   44.9250   55.2476 C   0  0  0  0  0  0  0  0  0  0  0  0
   67.7947   43.5693   55.2341 N   0  0  0  0  0  0  0  0  0  0  0  0
   67.7439   42.7913   56.4476 C   0  0  0  0  0  0  0  0  0  0  0  0
   66.7389   42.3975   57.0624 N   0  0  0  0  0  0  0  0  0  0  0  0
   66.8447   41.6489   58.2295 C   0  0  0  0  0  0  0  0  0  0  0  0
   68.2134   41.7299   58.8279 C   0  0  0  0  0  0  0  0  0  0  0  0
   69.1682   42.2073   57.3551 S   0  0  0  0  0  0  0  0  0  0  0  0
   70.0296   49.1812   52.7630 S   0  0  0  0  0  0  0  0  0  0  0  0
   71.4866   48.8594   52.8214 O   0  0  0  0  0  0  0  0  0  0  0  0
   69.7673   49.8072   51.4220 O   0  0  0  0  0  0  0  0  0  0  0  0
   69.5745   50.3202   53.9774 N   0  0  0  0  0  0  0  0  0  0  0  0
   69.7028   51.7617   53.8928 C   0  0  0  0  0  0  0  0  0  0  0  0
   68.5198   52.2613   54.6902 C   0  0  0  0  0  0  0  0  0  0  0  0
   68.3611   51.2088   55.7130 C   0  0  0  0  0  0  0  0  0  0  0  0
   67.7236   51.2223   56.9345 C   0  0  0  0  0  0  0  0  0  0  0  0
   67.7090   50.0781   57.7406 C   0  0  0  0  0  0  0  0  0  0  0  0
   68.3551   48.9655   57.2502 C   0  0  0  0  0  0  0  0  0  0  0  0
   68.9987   48.9258   56.0380 C   0  0  0  0  0  0  0  0  0  0  0  0
   69.0031   50.0621   55.2548 C   0  0  0  0  0  0  0  0  0  0  0  0
  7  8  2  0
  8  9  1  0
  8  1  1  0
  9 10  1  0
 10 11  2  0
 10 14  1  0
 11 12  1  0
 12 13  1  0
 13 14  1  0
  1  2  2  0
  1  6  1  0
  2  3  1  0
  3  4  2  0
  4  5  1  0
  5 15  1  0
  5  6  2  0
 15 16  2  0
 15 17  2  0
 15 18  1  0
 18 19  1  0
 18 26  1  0
 19 20  1  0
 20 21  1  0
 21 22  1  0
 21 26  2  0
 22 23  2  0
 23 24  1  0
 24 25  2  0
 25 26  1  0
M  CHG  1  11   1
M  END
>  <minimizedAffinity>  (1080) 
-8.76965

$$$$
data/reference_output_2/data/smiles/185537.pdb
     RDKit          3D

 31 34  0  0  0  0  0  0  0  0999 V2000
   71.1873   46.9525   58.4849 C   0  0  0  0  0  0  0  0  0  0  0  0
   71.0385   45.5960   58.4133 C   0  0  0  0  0  0  0  0  0  0  0  0
   71.4586   44.7584   59.4671 C   0  0  0  0  0  0  0  0  0  0  0  0
   72.0322   45.2407   60.6117 C   0  0  0  0  0  0  0  0  0  0  0  0
   72.1768   46.6408   60.6638 C   0  0  0  0  0  0  0  0  0  0  0  0
   71.7671   47.4501   59.6356 C   0  0  0  0  0  0  0  0  0  0  0  0
   72.4735   44.4691   61.7041 N   0  0  0  0  0  0  0  0  0  0  0  0
   71.7337   43.6416   62.5633 C   0  0  0  0  0  0  0  0  0  0  0  0
   70.5045   43.5535   62.3571 O   0  0  0  0  0  0  0  0  0  0  0  0
   72.3417   42.9142   63.6443 N   0  0  0  0  0  0  0  0  0  0  0  0
   71.5930   42.0605   64.5366 C   0  0  0  0  0  0  0  0  0  0  0  0
   72.4119   41.9118   65.7584 C   0  0  0  0  0  0  0  0  0  0  0  0
   72.0873   41.4140   66.9770 C   0  0  0  0  0  0  0  0  0  0  0  0
   73.0230   41.3744   67.9803 C   0  0  0  0  0  0  0  0  0  0  0  0
   74.2836   41.8616   67.6763 C   0  0  0  0  0  0  0  0  0  0  0  0
   74.5821   42.3568   66.4406 N   0  0  0  0  0  0  0  0  0  0  0  0
   73.6700   42.3986   65.4530 C   0  0  0  0  0  0  0  0  0  0  0  0
   73.7014   42.8655   64.0576 C   0  0  0  0  0  0  0  0  0  0  0  0
   69.6479   47.5925   56.5926 N   0  0  0  0  0  0  0  0  0  0  0  0
   70.7641   47.8697   57.4103 C   0  0  0  0  0  0  0  0  0  0  0  0
   71.3958   48.9351   57.1925 O   0  0  0  0  0  0  0  0  0  0  0  0
   69.1951   48.4568   55.5312 C   0  0  0  0  0  0  0  0  0  0  0  0
   69.3807   48.0597   53.0447 C   0  0  0  0  0  0  0  0  0  0  0  0
   69.0257   47.2497   51.9656 C   0  0  0  0  0  0  0  0  0  0  0  0
   68.2276   46.1501   52.1243 C   0  0  0  0  0  0  0  0  0  0  0  0
   67.7494   45.8075   53.3581 C   0  0  0  0  0  0  0  0  0  0  0  0
   68.0919   46.5943   54.4245 C   0  0  0  0  0  0  0  0  0  0  0  0
   68.9118   47.7262   54.2741 C   0  0  0  0  0  0  0  0  0  0  0  0
   69.8479   50.5117   52.4468 N   0  0  0  0  0  0  0  0  0  0  0  0
   70.2090   49.2089   52.8207 C   0  0  0  0  0  0  0  0  0  0  0  0
   71.4799   49.0364   52.9820 O   0  0  0  0  0  0  0  0  0  0  0  0
 29 30  1  0
 30 31  2  0
 30 23  1  0
 23 24  2  0
 23 28  1  0
 24 25  1  0
 25 26  2  0
 26 27  1  0
 27 28  2  0
 28 22  1  0
 22 19  1  0
 19 20  1  0
 20 21  2  0
 20  1  1  0
  1  2  2  0
  1  6  1  0
  2  3  1  0
  3  4  2  0
  4  7  1  0
  4  5  1  0
  7  8  1  0
  8  9  2  0
  8 10  1  0
 10 11  1  0
 10 18  1  0
 11 12  1  0
 12 13  1  0
 12 17  2  0
 13 14  2  0
 14 15  1  0
 15 16  2  0
 16 17  1  0
 17 18  1  0
  5  6  2  0
M  END
>  <minimizedAffinity>  (1081) 
-9.17628

$$$$
data/reference_output_2/data/smiles/185626.pdb
     RDKit          3D

 26 28  0  0  0  0  0  0  0  0999 V2000
   67.9619   42.1946   56.6561 C   0  0  0  0  0  0  0  0  0  0  0  0
   67.3281   41.4082   55.8911 O   0  0  0  0  0  0  0  0  0  0  0  0
   68.2516   41.7317   57.9558 N   0  0  0  0  0  0  0  0  0  0  0  0
   67.8253   40.3999   58.3663 C   0  0  2  0  0  0  0  0  0  0  0  0
   67.8556   40.2454   59.8548 C   0  0  0  0  0  0  0  0  0  0  0  0
   69.3673   40.1034   60.0943 C   0  0  0  0  0  0  0  0  0  0  0  0
   69.6740   39.1204   59.1099 N   0  0  1  0  0  0  0  0  0  0  0  0
   68.9339   39.4407   57.9228 C   0  0  0  0  0  0  0  0  0  0  0  0
   71.0266   38.7704   58.9313 C   0  0  0  0  0  0  0  0  0  0  0  0
   71.3547   37.3568   58.7824 C   0  0  0  0  0  0  0  0  0  0  0  0
   72.1710   36.9627   57.7446 C   0  0  0  0  0  0  0  0  0  0  0  0
   72.5204   35.6207   57.5640 C   0  0  0  0  0  0  0  0  0  0  0  0
   72.0001   34.7301   58.4786 C   0  0  0  0  0  0  0  0  0  0  0  0
   71.1822   35.1223   59.5176 C   0  0  0  0  0  0  0  0  0  0  0  0
   70.8457   36.4476   59.6848 C   0  0  0  0  0  0  0  0  0  0  0  0
   69.2925   44.0914   56.8658 O   0  0  0  0  0  0  0  0  0  0  0  0
   68.3779   43.5215   56.2218 C   0  0  0  0  0  0  0  0  0  0  0  0
   67.7486   44.1325   55.0956 N   0  0  0  0  0  0  0  0  0  0  0  0
   68.1164   45.4081   54.6423 C   0  0  0  0  0  0  0  0  0  0  0  0
   68.4932   46.3944   55.5105 C   0  0  0  0  0  0  0  0  0  0  0  0
   68.8437   47.6265   55.0050 C   0  0  0  0  0  0  0  0  0  0  0  0
   68.8313   47.9047   53.6736 C   0  0  0  0  0  0  0  0  0  0  0  0
   69.2808   49.4787   53.0483 Cl  0  0  0  0  0  0  0  0  0  0  0  0
   68.4546   46.9255   52.7792 C   0  0  0  0  0  0  0  0  0  0  0  0
   68.4203   47.1368   51.4406 F   0  0  0  0  0  0  0  0  0  0  0  0
   68.1029   45.6910   53.2804 C   0  0  0  0  0  0  0  0  0  0  0  0
 16 17  2  0
 17 18  1  0
 17  1  1  0
 18 19  1  0
 19 20  2  0
 19 26  1  0
 20 21  1  0
 21 22  2  0
 22 23  1  0
 22 24  1  0
 24 25  1  0
 24 26  2  0
  1  2  2  0
  1  3  1  0
  4  3  1  1
  4  5  1  0
  4  8  1  0
  5  6  1  0
  6  7  1  0
  7  9  1  6
  7  8  1  0
  9 10  1  0
 10 11  2  0
 10 15  1  0
 11 12  1  0
 12 13  2  0
 13 14  1  0
 14 15  2  0
M  CHG  1   7   1
M  END
>  <minimizedAffinity>  (1082) 
-8.70735

$$$$
data/reference_output_2/data/smiles/185647.pdb
     RDKit          3D

 24 26  0  0  0  0  0  0  0  0999 V2000
   69.8275   44.6268   57.3186 O   0  0  0  0  0  0  0  0  0  0  0  0
   70.0059   45.8559   57.5680 C   0  0  0  0  0  0  0  0  0  0  0  0
   71.0051   46.3551   58.4440 N   0  0  0  0  0  0  0  0  0  0  0  0
   70.8433   47.7779   58.4237 C   0  0  0  0  0  0  0  0  0  0  0  0
   71.5458   48.6003   59.0776 O   0  0  0  0  0  0  0  0  0  0  0  0
   69.7414   48.1052   57.5281 C   0  0  0  0  0  0  0  0  0  0  0  0
   69.2460   46.9690   57.0220 C   0  0  0  0  0  0  0  0  0  0  0  0
   69.2229   49.4351   57.1771 C   0  0  0  0  0  0  0  0  0  0  0  0
   67.9900   49.8287   57.6591 C   0  0  0  0  0  0  0  0  0  0  0  0
   67.4429   51.0793   57.3764 C   0  0  0  0  0  0  0  0  0  0  0  0
   68.1636   51.9556   56.5843 C   0  0  0  0  0  0  0  0  0  0  0  0
   69.3994   51.5929   56.0868 C   0  0  0  0  0  0  0  0  0  0  0  0
   69.9080   50.3368   56.3923 C   0  0  0  0  0  0  0  0  0  0  0  0
   71.4624   49.9206   55.7587 Cl  0  0  0  0  0  0  0  0  0  0  0  0
   68.1494   46.8112   56.1037 N   0  0  0  0  0  0  0  0  0  0  0  0
   68.3056   46.7823   54.6999 C   0  0  0  0  0  0  0  0  0  0  0  0
   67.6970   45.8587   53.8944 C   0  0  0  0  0  0  0  0  0  0  0  0
   67.8709   45.8480   52.5149 C   0  0  0  0  0  0  0  0  0  0  0  0
   68.6878   46.8007   51.9341 C   0  0  0  0  0  0  0  0  0  0  0  0
   69.3061   47.7346   52.7304 C   0  0  0  0  0  0  0  0  0  0  0  0
   69.1145   47.7218   54.1016 C   0  0  0  0  0  0  0  0  0  0  0  0
   70.1668   48.7395   52.1428 C   0  0  0  0  0  0  0  0  0  0  0  0
   71.3175   48.9562   52.6455 O   0  0  0  0  0  0  0  0  0  0  0  0
   69.8386   49.5129   51.0427 O   0  0  0  0  0  0  0  0  0  0  0  0
  1  2  2  0
  2  3  1  0
  2  7  1  0
  3  4  1  0
  4  5  2  0
  4  6  1  0
  6  8  1  0
  6  7  2  0
  8  9  2  0
  8 13  1  0
  9 10  1  0
 10 11  2  0
 11 12  1  0
 12 13  2  0
 13 14  1  0
  7 15  1  0
 15 16  1  0
 16 17  2  0
 16 21  1  0
 17 18  1  0
 18 19  2  0
 19 20  1  0
 20 22  1  0
 20 21  2  0
 22 23  2  0
 22 24  1  0
M  END
>  <minimizedAffinity>  (1083) 
-8.97808

$$$$
data/reference_output_2/data/smiles/185656.pdb
     RDKit          3D

 31 34  0  0  0  0  0  0  0  0999 V2000
   71.7243   41.4828   58.2189 C   0  0  1  0  0  0  0  0  0  0  0  0
   71.6765   40.0886   58.4168 C   0  0  0  0  0  0  0  0  0  0  0  0
   71.6135   38.8126   58.6093 C   0  0  0  0  0  0  0  0  0  0  0  0
   71.5483   37.5154   58.8210 C   0  0  0  0  0  0  0  0  0  0  0  0
   70.1934   37.1770   59.5386 C   0  0  0  0  0  0  0  0  0  0  0  0
   69.6988   38.3522   59.6058 C   0  0  0  0  0  0  0  0  0  0  0  0
   69.2114   39.4710   59.6547 C   0  0  0  0  0  0  0  0  0  0  0  0
   68.6838   40.7368   59.7000 C   0  0  0  0  0  0  0  0  0  0  0  0
   69.3306   41.1088   58.3347 C   0  0  1  0  0  0  0  0  0  0  0  0
   68.8439   41.8863   57.3053 C   0  0  0  0  0  0  0  0  0  0  0  0
   68.0087   41.7883   56.3656 O   0  0  0  0  0  0  0  0  0  0  0  0
   69.7287   43.0545   57.6954 N   0  0  0  0  0  0  0  0  0  0  0  0
   69.4760   44.3748   57.2575 C   0  0  0  0  0  0  0  0  0  0  0  0
   69.9438   45.3786   57.9365 O   0  0  0  0  0  0  0  0  0  0  0  0
   68.7142   44.7351   56.1016 N   0  0  0  0  0  0  0  0  0  0  0  0
   70.3777   42.1597   58.5514 C   0  0  2  0  0  0  0  0  0  0  0  0
   72.7169   42.1824   58.8799 O   0  0  0  0  0  0  0  0  0  0  0  0
   75.1496   42.5482   58.2310 C   0  0  0  0  0  0  0  0  0  0  0  0
   73.7175   42.8620   58.1846 C   0  0  0  0  0  0  0  0  0  0  0  0
   73.3867   43.8306   57.4484 O   0  0  0  0  0  0  0  0  0  0  0  0
   68.3822   46.1179   55.7941 C   0  0  0  0  0  0  0  0  0  0  0  0
   68.3478   46.2561   54.3682 C   0  0  0  0  0  0  0  0  0  0  0  0
   67.7996   45.4832   53.3629 C   0  0  0  0  0  0  0  0  0  0  0  0
   67.8032   45.6947   52.0602 C   0  0  0  0  0  0  0  0  0  0  0  0
   68.4021   46.8344   51.4179 C   0  0  0  0  0  0  0  0  0  0  0  0
   68.9617   47.6294   52.4497 C   0  0  0  0  0  0  0  0  0  0  0  0
   69.6246   48.7792   51.8567 C   0  0  0  0  0  0  0  0  0  0  0  0
   70.2514   49.6535   52.7157 C   0  0  0  0  0  0  0  0  0  0  0  0
   70.2406   49.4067   54.0590 C   0  0  0  0  0  0  0  0  0  0  0  0
   69.6142   48.3235   54.5880 C   0  0  0  0  0  0  0  0  0  0  0  0
   68.9722   47.4408   53.7017 C   0  0  0  0  0  0  0  0  0  0  0  0
 18 19  1  0
 19 20  2  0
 19 17  1  0
  1 17  1  1
  1  2  1  0
  1 16  1  0
  2  3  3  0
  3  4  1  0
  4  5  2  0
  5  6  1  0
  6  7  3  0
  7  8  1  0
  9  8  1  1
  9 10  1  0
  9 16  1  0
 10 11  2  0
 10 12  1  0
 12 13  1  0
 16 12  1  6
 13 14  2  0
 13 15  1  0
 15 21  1  0
 21 22  1  0
 22 23  2  0
 22 31  1  0
 23 24  1  0
 24 25  2  0
 25 26  1  0
 26 27  1  0
 26 31  2  0
 27 28  2  0
 28 29  1  0
 29 30  2  0
 30 31  1  0
M  END
>  <minimizedAffinity>  (1084) 
-8.85091

$$$$
data/reference_output_2/data/smiles/185671.pdb
     RDKit          3D

 27 29  0  0  0  0  0  0  0  0999 V2000
   69.7043   46.3447   57.4520 N   0  0  0  0  0  0  0  0  0  0  0  0
   69.8637   47.7022   57.0792 C   0  0  0  0  0  0  0  0  0  0  0  0
   70.8927   48.3070   57.4681 O   0  0  0  0  0  0  0  0  0  0  0  0
   70.6472   45.6020   58.2532 C   0  0  0  0  0  0  0  0  0  0  0  0
   70.3394   43.1660   57.5400 N   0  0  0  0  0  0  0  0  0  0  0  0
   70.1413   44.2336   58.4514 C   0  0  0  0  0  0  0  0  0  0  0  0
   69.4872   43.9678   59.4888 O   0  0  0  0  0  0  0  0  0  0  0  0
   72.1038   41.2820   58.5107 C   0  0  0  0  0  0  0  0  0  0  0  0
   70.7121   40.8920   58.2062 C   0  0  0  0  0  0  0  0  0  0  0  0
   70.2649   39.6031   58.3932 C   0  0  0  0  0  0  0  0  0  0  0  0
   71.3666   38.3902   59.0074 Cl  0  0  0  0  0  0  0  0  0  0  0  0
   68.9685   39.2252   58.1118 C   0  0  0  0  0  0  0  0  0  0  0  0
   68.1160   40.2071   57.6251 C   0  0  0  0  0  0  0  0  0  0  0  0
   68.5530   41.5199   57.4292 C   0  0  0  0  0  0  0  0  0  0  0  0
   69.8562   41.8504   57.7242 C   0  0  0  0  0  0  0  0  0  0  0  0
   68.8872   48.4559   56.2542 C   0  0  0  0  0  0  0  0  0  0  0  0
   69.3325   48.5430   54.8327 C   0  0  0  0  0  0  0  0  0  0  0  0
   70.1976   49.4681   54.3884 N   0  0  0  0  0  0  0  0  0  0  0  0
   70.6068   49.5664   53.1481 N   0  0  0  0  0  0  0  0  0  0  0  0
   70.1670   48.7167   52.2160 C   0  0  0  0  0  0  0  0  0  0  0  0
   70.5199   48.7554   51.0074 O   0  0  0  0  0  0  0  0  0  0  0  0
   69.2598   47.7259   52.6170 C   0  0  0  0  0  0  0  0  0  0  0  0
   68.7760   46.8196   51.6822 C   0  0  0  0  0  0  0  0  0  0  0  0
   67.8831   45.8294   52.0279 C   0  0  0  0  0  0  0  0  0  0  0  0
   67.4836   45.7655   53.3396 C   0  0  0  0  0  0  0  0  0  0  0  0
   67.9433   46.6454   54.2869 C   0  0  0  0  0  0  0  0  0  0  0  0
   68.8321   47.6239   53.9189 C   0  0  0  0  0  0  0  0  0  0  0  0
  8  9  1  0
  9 10  2  0
  9 15  1  0
 10 11  1  0
 10 12  1  0
 12 13  2  0
 13 14  1  0
 14 15  2  0
 15  5  1  0
  5  6  1  0
  6  7  2  0
  6  4  1  0
  4  1  1  0
  1  2  1  0
  2  3  2  0
  2 16  1  0
 16 17  1  0
 17 18  2  0
 17 27  1  0
 18 19  1  0
 19 20  1  0
 20 21  2  0
 20 22  1  0
 22 23  1  0
 22 27  2  0
 23 24  2  0
 24 25  1  0
 25 26  2  0
 26 27  1  0
M  END
>  <minimizedAffinity>  (1085) 
-9.82524

$$$$
data/reference_output_2/data/smiles/185845.pdb
     RDKit          3D

 27 29  0  0  0  0  0  0  0  0999 V2000
   69.0330   47.1367   56.6784 S   0  0  0  0  0  0  0  0  0  0  0  0
   67.6967   47.5327   57.2124 O   0  0  0  0  0  0  0  0  0  0  0  0
   69.0583   45.6410   56.5390 O   0  0  0  0  0  0  0  0  0  0  0  0
   70.2894   47.5798   57.8262 C   0  0  0  0  0  0  0  0  0  0  0  0
   70.4723   48.8987   58.1814 C   0  0  0  0  0  0  0  0  0  0  0  0
   71.4570   49.2326   59.0796 C   0  0  0  0  0  0  0  0  0  0  0  0
   72.2690   48.2611   59.6328 C   0  0  0  0  0  0  0  0  0  0  0  0
   72.0745   46.9313   59.2665 C   0  0  0  0  0  0  0  0  0  0  0  0
   71.0932   46.5976   58.3721 C   0  0  0  0  0  0  0  0  0  0  0  0
   72.9990   45.9690   59.9261 C   0  0  0  0  0  0  0  0  0  0  0  0
   73.1933   46.2687   61.3958 C   0  0  0  0  0  0  0  0  0  0  0  0
   73.5123   47.7105   61.6875 C   0  0  0  0  0  0  0  0  0  0  0  0
   73.2926   48.5717   60.5577 N   0  0  0  0  0  0  0  0  0  0  0  0
   74.0982   49.7018   60.3469 C   0  0  0  0  0  0  0  0  0  0  0  0
   74.0767   50.5760   59.1475 C   0  0  0  0  0  0  0  0  0  0  0  0
   74.9226   49.9847   61.2846 O   0  0  0  0  0  0  0  0  0  0  0  0
   69.2731   47.8660   55.1439 N   0  0  0  0  0  0  0  0  0  0  0  0
   69.2984   47.8479   52.7414 C   0  0  0  0  0  0  0  0  0  0  0  0
   68.8610   47.2514   51.5489 C   0  0  0  0  0  0  0  0  0  0  0  0
   68.0042   46.1777   51.5293 C   0  0  0  0  0  0  0  0  0  0  0  0
   67.5703   45.6844   52.7265 C   0  0  0  0  0  0  0  0  0  0  0  0
   67.9785   46.2430   53.8892 C   0  0  0  0  0  0  0  0  0  0  0  0
   68.8340   47.3128   53.9059 C   0  0  0  0  0  0  0  0  0  0  0  0
   70.1797   48.9924   52.6595 C   0  0  0  0  0  0  0  0  0  0  0  0
   71.4433   48.7501   52.6413 O   0  0  0  0  0  0  0  0  0  0  0  0
   69.8200   51.1903   53.7047 C   0  0  0  0  0  0  0  0  0  0  0  0
   69.8367   50.3098   52.5965 O   0  0  0  0  0  0  0  0  0  0  0  0
 26 27  1  0
 27 24  1  0
 24 25  2  0
 24 18  1  0
 18 19  2  0
 18 23  1  0
 19 20  1  0
 20 21  2  0
 21 22  1  0
 22 23  2  0
 23 17  1  0
 17  1  1  0
  1  2  2  0
  1  3  2  0
  1  4  1  0
  4  5  2  0
  4  9  1  0
  5  6  1  0
  6  7  2  0
  7  8  1  0
  7 13  1  0
  8  9  2  0
  8 10  1  0
 10 11  1  0
 11 12  1  0
 12 13  1  0
 13 14  1  0
 14 15  1  0
 14 16  2  0
M  END
>  <minimizedAffinity>  (1086) 
-8.57082

$$$$
data/reference_output_2/data/smiles/185879.pdb
     RDKit          3D

 28 30  0  0  0  0  0  0  0  0999 V2000
   71.5532   47.6421   59.1097 C   0  0  0  0  0  0  0  0  0  0  0  0
   71.2861   46.3364   58.7738 C   0  0  0  0  0  0  0  0  0  0  0  0
   70.3641   46.0003   57.7786 C   0  0  0  0  0  0  0  0  0  0  0  0
   69.6804   46.9747   57.0869 C   0  0  0  0  0  0  0  0  0  0  0  0
   69.9421   48.2864   57.4164 C   0  0  0  0  0  0  0  0  0  0  0  0
   70.8519   48.6126   58.3977 C   0  0  0  0  0  0  0  0  0  0  0  0
   72.4230   47.5437   61.4639 N   0  0  0  0  0  0  0  0  0  0  0  0
   72.5050   48.0320   60.1390 C   0  0  0  0  0  0  0  0  0  0  0  0
   73.4411   48.8432   59.8201 O   0  0  0  0  0  0  0  0  0  0  0  0
   74.4587   47.1226   62.7657 C   0  0  0  0  0  0  0  0  0  0  0  0
   74.5688   46.0183   62.1410 O   0  0  0  0  0  0  0  0  0  0  0  0
   73.3642   47.9408   62.4453 N   0  0  0  0  0  0  0  0  0  0  0  0
   78.4050   48.3913   66.7878 C   0  0  0  0  0  0  0  0  0  0  0  0
   77.4144   48.0645   65.7306 C   0  0  0  0  0  0  0  0  0  0  0  0
   77.7668   47.8959   64.4077 C   0  0  0  0  0  0  0  0  0  0  0  0
   76.8123   47.5887   63.4308 C   0  0  0  0  0  0  0  0  0  0  0  0
   75.4810   47.4431   63.7606 C   0  0  0  0  0  0  0  0  0  0  0  0
   75.1507   47.6162   65.0878 C   0  0  0  0  0  0  0  0  0  0  0  0
   76.0829   47.9193   66.0575 C   0  0  0  0  0  0  0  0  0  0  0  0
   68.5191   46.5908   55.8335 S   0  0  0  0  0  0  0  0  0  0  0  0
   67.2183   47.3440   56.0522 O   0  0  0  0  0  0  0  0  0  0  0  0
   68.2083   45.1248   55.9257 O   0  0  0  0  0  0  0  0  0  0  0  0
   69.0862   46.9733   54.2707 N   0  0  0  0  0  0  0  0  0  0  0  0
   69.0440   48.4085   54.0452 C   0  0  0  0  0  0  0  0  0  0  0  0
   69.8744   48.7411   52.8268 C   0  0  0  0  0  0  0  0  0  0  0  0
   69.8186   47.6591   51.7853 C   0  0  0  0  0  0  0  0  0  0  0  0
   68.5197   46.8601   51.8973 C   0  0  0  0  0  0  0  0  0  0  0  0
   68.4004   46.2263   53.2598 C   0  0  0  0  0  0  0  0  0  0  0  0
 13 14  1  0
 14 15  2  0
 14 19  1  0
 15 16  1  0
 16 17  2  0
 17 10  1  0
 17 18  1  0
 10 11  2  0
 10 12  1  0
 12  7  1  0
  7  8  1  0
  8  9  2  0
  8  1  1  0
  1  2  2  0
  1  6  1  0
  2  3  1  0
  3  4  2  0
  4 20  1  0
  4  5  1  0
 20 21  2  0
 20 22  2  0
 20 23  1  0
 23 24  1  0
 23 28  1  0
 24 25  1  0
 25 26  1  0
 26 27  1  0
 27 28  1  0
  5  6  2  0
 18 19  2  0
M  END
>  <minimizedAffinity>  (1087) 
-8.62446

$$$$
data/reference_output_2/data/smiles/185913.pdb
     RDKit          3D

 19 20  0  0  0  0  0  0  0  0999 V2000
   71.4105   48.9322   52.7672 O   0  0  0  0  0  0  0  0  0  0  0  0
   70.2363   48.6622   52.1132 C   0  0  0  0  0  0  0  0  0  0  0  0
   69.9532   49.3443   51.0987 O   0  0  0  0  0  0  0  0  0  0  0  0
   69.2889   47.6312   52.5150 C   0  0  0  0  0  0  0  0  0  0  0  0
   69.0608   47.3327   53.8395 C   0  0  0  0  0  0  0  0  0  0  0  0
   68.1721   46.3620   54.2560 C   0  0  0  0  0  0  0  0  0  0  0  0
   67.4594   45.6364   53.3236 C   0  0  0  0  0  0  0  0  0  0  0  0
   67.6779   45.9243   51.9917 C   0  0  0  0  0  0  0  0  0  0  0  0
   66.9890   45.2222   51.0595 F   0  0  0  0  0  0  0  0  0  0  0  0
   68.5678   46.8951   51.5799 C   0  0  0  0  0  0  0  0  0  0  0  0
   71.5331   49.8594   53.7835 N   0  0  0  0  0  0  0  0  0  0  0  0
   70.4257   51.8242   53.2559 N   0  0  0  0  0  0  0  0  0  0  0  0
   70.5380   50.8244   54.0781 C   0  0  0  0  0  0  0  0  0  0  0  0
   69.6545   50.7517   55.2337 C   0  0  0  0  0  0  0  0  0  0  0  0
   69.8548   49.7923   56.2021 C   0  0  0  0  0  0  0  0  0  0  0  0
   69.0244   49.7013   57.3183 C   0  0  0  0  0  0  0  0  0  0  0  0
   67.9718   50.5728   57.4891 C   0  0  0  0  0  0  0  0  0  0  0  0
   67.7688   51.5335   56.5229 C   0  0  0  0  0  0  0  0  0  0  0  0
   68.6059   51.6172   55.4083 C   0  0  0  0  0  0  0  0  0  0  0  0
 12 13  2  0
 13 11  1  0
 13 14  1  0
 11  1  1  0
  1  2  1  0
  2  3  2  0
  2  4  1  0
  4  5  2  0
  4 10  1  0
  5  6  1  0
  6  7  2  0
  7  8  1  0
  8  9  1  0
  8 10  2  0
 14 15  2  0
 14 19  1  0
 15 16  1  0
 16 17  2  0
 17 18  1  0
 18 19  2  0
M  CHG  1  12   1
M  END
>  <minimizedAffinity>  (1088) 
-8.62456

$$$$
data/reference_output_2/data/smiles/186142.pdb
     RDKit          3D

 28 31  0  0  0  0  0  0  0  0999 V2000
   68.7943   43.2033   56.7922 C   0  0  0  0  0  0  0  0  0  0  0  0
   67.7029   42.6272   56.1298 C   0  0  0  0  0  0  0  0  0  0  0  0
   67.5062   41.2647   56.1802 C   0  0  0  0  0  0  0  0  0  0  0  0
   68.3693   40.4433   56.8751 C   0  0  0  0  0  0  0  0  0  0  0  0
   69.4566   40.9802   57.5405 C   0  0  0  0  0  0  0  0  0  0  0  0
   69.6311   42.3496   57.4747 C   0  0  0  0  0  0  0  0  0  0  0  0
   68.1893   46.3440   53.5023 C   0  0  0  0  0  0  0  0  0  0  0  0
   68.5413   47.6055   53.9272 C   0  0  0  0  0  0  0  0  0  0  0  0
   69.0131   47.8361   55.1962 C   0  0  0  0  0  0  0  0  0  0  0  0
   69.1398   46.7833   56.0734 C   0  0  0  0  0  0  0  0  0  0  0  0
   69.5574   46.6675   57.3558 N   0  0  0  0  0  0  0  0  0  0  0  0
   69.4835   45.4075   57.7442 N   0  0  0  0  0  0  0  0  0  0  0  0
   69.0192   44.6345   56.7560 C   0  0  0  0  0  0  0  0  0  0  0  0
   68.7980   45.4806   55.6978 C   0  0  0  0  0  0  0  0  0  0  0  0
   68.3234   45.3038   54.3950 C   0  0  0  0  0  0  0  0  0  0  0  0
   68.1609   46.7880   51.0359 N   0  0  0  0  0  0  0  0  0  0  0  0
   67.6895   46.0596   52.1761 C   0  0  0  0  0  0  0  0  0  0  0  0
   66.8297   45.1730   51.9469 O   0  0  0  0  0  0  0  0  0  0  0  0
   70.3770   40.1733   58.2731 N   0  0  0  0  0  0  0  0  0  0  0  0
   69.9108   39.3601   59.3427 C   0  0  0  0  0  0  0  0  0  0  0  0
   68.6990   39.3189   59.6787 O   0  0  0  0  0  0  0  0  0  0  0  0
   70.8625   38.5091   60.1200 C   0  0  0  0  0  0  0  0  0  0  0  0
   71.3482   37.3690   59.3366 C   0  0  0  0  0  0  0  0  0  0  0  0
   71.0645   36.0567   59.6246 C   0  0  0  0  0  0  0  0  0  0  0  0
   71.5367   34.9956   58.8669 C   0  0  0  0  0  0  0  0  0  0  0  0
   72.3228   35.2746   57.7785 C   0  0  0  0  0  0  0  0  0  0  0  0
   72.5983   36.5845   57.5008 C   0  0  0  0  0  0  0  0  0  0  0  0
   72.1346   37.5905   58.2426 N   0  0  0  0  0  0  0  0  0  0  0  0
 16 17  1  0
 17 18  2  0
 17  7  1  0
  7  8  2  0
  7 15  1  0
  8  9  1  0
  9 10  2  0
 10 11  1  0
 10 14  1  0
 11 12  1  0
 12 13  2  0
 13  1  1  0
 13 14  1  0
  1  2  2  0
  1  6  1  0
  2  3  1  0
  3  4  2  0
  4  5  1  0
  5 19  1  0
  5  6  2  0
 19 20  1  0
 20 21  2  0
 20 22  1  0
 22 23  1  0
 23 24  2  0
 23 28  1  0
 24 25  1  0
 25 26  2  0
 26 27  1  0
 27 28  2  0
 14 15  2  0
M  END
>  <minimizedAffinity>  (1089) 
-8.93874

$$$$
data/reference_output_2/data/smiles/186179.pdb
     RDKit          3D

 32 36  0  0  0  0  0  0  0  0999 V2000
   72.1864   47.9808   59.9551 C   0  0  0  0  0  0  0  0  0  0  0  0
   72.0194   48.9453   59.0950 C   0  0  0  0  0  0  0  0  0  0  0  0
   75.7639   47.3766   62.1573 C   0  0  0  0  0  0  0  0  0  0  0  0
   75.0615   46.3062   61.6724 C   0  0  0  0  0  0  0  0  0  0  0  0
   73.8680   46.4361   60.9529 C   0  0  0  0  0  0  0  0  0  0  0  0
   73.3853   47.6985   60.7273 C   0  0  0  0  0  0  0  0  0  0  0  0
   74.0967   48.7919   61.2219 C   0  0  0  0  0  0  0  0  0  0  0  0
   75.2680   48.6689   61.9273 C   0  0  0  0  0  0  0  0  0  0  0  0
   78.0714   47.2892   62.1912 O   0  0  0  0  0  0  0  0  0  0  0  0
   76.9972   47.2524   62.8766 C   0  0  0  0  0  0  0  0  0  0  0  0
   77.0772   47.1031   64.2487 N   0  0  0  0  0  0  0  0  0  0  0  0
   75.9039   47.0229   65.1046 C   0  0  0  0  0  0  0  0  0  0  0  0
   76.0854   48.1612   66.1159 C   0  0  0  0  0  0  0  0  0  0  0  0
   77.2440   47.8746   66.8314 O   0  0  0  0  0  0  0  0  0  0  0  0
   78.3952   48.0175   66.0781 C   0  0  0  0  0  0  0  0  0  0  0  0
   78.4007   47.0673   64.8913 C   0  0  0  0  0  0  0  0  0  0  0  0
   70.8081   49.2086   58.3357 C   0  0  0  0  0  0  0  0  0  0  0  0
   70.4573   48.5635   57.1811 C   0  0  0  0  0  0  0  0  0  0  0  0
   69.2776   48.7817   56.4871 C   0  0  0  0  0  0  0  0  0  0  0  0
   68.4213   49.7170   57.0209 C   0  0  0  0  0  0  0  0  0  0  0  0
   68.7599   50.3917   58.2027 C   0  0  0  0  0  0  0  0  0  0  0  0
   69.9234   50.1209   58.8124 N   0  0  0  0  0  0  0  0  0  0  0  0
   68.9532   48.0946   55.2477 C   0  0  0  0  0  0  0  0  0  0  0  0
   69.6083   48.3006   54.0270 C   0  0  0  0  0  0  0  0  0  0  0  0
   69.0166   47.4957   53.0704 C   0  0  0  0  0  0  0  0  0  0  0  0
   69.1844   47.2510   51.7310 C   0  0  0  0  0  0  0  0  0  0  0  0
   70.0923   47.8664   51.1309 O   0  0  0  0  0  0  0  0  0  0  0  0
   68.4190   46.3787   51.0281 N   0  0  0  0  0  0  0  0  0  0  0  0
   67.4416   45.7201   51.6948 C   0  0  0  0  0  0  0  0  0  0  0  0
   67.2654   45.9445   52.9909 N   0  0  0  0  0  0  0  0  0  0  0  0
   67.9977   46.7943   53.7065 C   0  0  0  0  0  0  0  0  0  0  0  0
   68.0151   47.1978   54.9999 N   0  0  0  0  0  0  0  0  0  0  0  0
  9 10  2  0
 10  3  1  0
 10 11  1  0
  3  4  2  0
  3  8  1  0
  4  5  1  0
  5  6  2  0
  6  1  1  0
  6  7  1  0
  1  2  2  0
  2 17  1  0
 17 18  2  0
 17 22  1  0
 18 19  1  0
 19 23  1  0
 19 20  2  0
 23 24  2  0
 23 32  1  0
 24 25  1  0
 25 26  1  0
 25 31  2  0
 26 27  2  0
 26 28  1  0
 28 29  1  0
 29 30  2  0
 30 31  1  0
 31 32  1  0
 20 21  1  0
 21 22  2  0
  7  8  2  0
 11 12  1  0
 11 16  1  0
 12 13  1  0
 13 14  1  0
 14 15  1  0
 15 16  1  0
M  END
>  <minimizedAffinity>  (1090) 
-8.68227

$$$$
data/reference_output_2/data/smiles/186180.pdb
     RDKit          3D

 28 30  0  0  0  0  0  0  0  0999 V2000
   68.8554   42.6006   57.1880 C   0  0  0  0  0  0  0  0  0  0  0  0
   69.0100   43.8278   56.6822 N   0  0  0  0  0  0  0  0  0  0  0  0
   68.2497   44.3549   55.6807 C   0  0  0  0  0  0  0  0  0  0  0  0
   67.2854   43.5660   55.1862 N   0  0  0  0  0  0  0  0  0  0  0  0
   67.0789   42.3016   55.6631 C   0  0  0  0  0  0  0  0  0  0  0  0
   66.1584   41.5752   55.1775 O   0  0  0  0  0  0  0  0  0  0  0  0
   67.8515   41.7966   56.6633 C   0  0  0  0  0  0  0  0  0  0  0  0
   67.6616   40.5070   57.1698 O   0  0  0  0  0  0  0  0  0  0  0  0
   68.5014   45.7050   55.1988 C   0  0  0  0  0  0  0  0  0  0  0  0
   68.2769   46.0356   53.8960 C   0  0  0  0  0  0  0  0  0  0  0  0
   68.5145   47.3382   53.4191 C   0  0  0  0  0  0  0  0  0  0  0  0
   68.9803   48.3110   54.2619 C   0  0  0  0  0  0  0  0  0  0  0  0
   69.2096   49.5690   53.8004 F   0  0  0  0  0  0  0  0  0  0  0  0
   69.2093   47.9747   55.5913 C   0  0  0  0  0  0  0  0  0  0  0  0
   68.9700   46.6866   56.0453 C   0  0  0  0  0  0  0  0  0  0  0  0
   69.7783   42.6786   59.3278 O   0  0  0  0  0  0  0  0  0  0  0  0
   69.6892   42.0742   58.2550 C   0  0  0  0  0  0  0  0  0  0  0  0
   70.3900   40.8699   58.0447 N   0  0  0  0  0  0  0  0  0  0  0  0
   71.2513   40.2527   59.0338 C   0  0  0  0  0  0  0  0  0  0  0  0
   71.3126   38.7883   58.9065 C   0  0  0  0  0  0  0  0  0  0  0  0
   70.5353   38.0289   59.7923 C   0  0  0  0  0  0  0  0  0  0  0  0
   70.5625   36.6547   59.7240 C   0  0  0  0  0  0  0  0  0  0  0  0
   69.8378   35.8560   60.5474 F   0  0  0  0  0  0  0  0  0  0  0  0
   71.3609   36.0404   58.7763 C   0  0  0  0  0  0  0  0  0  0  0  0
   71.3877   34.6870   58.7093 F   0  0  0  0  0  0  0  0  0  0  0  0
   72.1305   36.7583   57.8982 C   0  0  0  0  0  0  0  0  0  0  0  0
   72.9248   36.2237   56.9571 F   0  0  0  0  0  0  0  0  0  0  0  0
   72.0977   38.1547   57.9735 C   0  0  0  0  0  0  0  0  0  0  0  0
 16 17  2  0
 17 18  1  0
 17  1  1  0
 18 19  1  0
 19 20  1  0
 20 21  2  0
 20 28  1  0
 21 22  1  0
 22 23  1  0
 22 24  2  0
 24 25  1  0
 24 26  1  0
 26 27  1  0
 26 28  2  0
  1  2  1  0
  1  7  2  0
  2  3  2  0
  3  9  1  0
  3  4  1  0
  9 10  2  0
  9 15  1  0
 10 11  1  0
 11 12  2  0
 12 13  1  0
 12 14  1  0
 14 15  2  0
  4  5  1  0
  5  6  2  0
  5  7  1  0
  7  8  1  0
M  END
>  <minimizedAffinity>  (1091) 
-9.31494

$$$$
data/reference_output_2/data/smiles/186206.pdb
     RDKit          3D

 30 33  0  0  0  0  0  0  0  0999 V2000
   69.0724   39.3841   59.1567 C   0  0  1  0  0  0  0  0  0  0  0  0
   68.1571   38.8180   60.1128 N   0  0  1  0  0  0  0  0  0  0  0  0
   67.9828   39.5719   61.2904 C   0  0  0  0  0  0  0  0  0  0  0  0
   67.1722   38.8729   62.3542 C   0  0  0  0  0  0  0  0  0  0  0  0
   66.1911   37.9340   61.7902 C   0  0  0  0  0  0  0  0  0  0  0  0
   65.3203   37.3010   62.6679 C   0  0  0  0  0  0  0  0  0  0  0  0
   64.3532   36.3930   62.2191 C   0  0  0  0  0  0  0  0  0  0  0  0
   64.2657   36.1224   60.8730 C   0  0  0  0  0  0  0  0  0  0  0  0
   65.1395   36.7584   59.9958 C   0  0  0  0  0  0  0  0  0  0  0  0
   66.0870   37.6506   60.4529 C   0  0  0  0  0  0  0  0  0  0  0  0
   66.9918   38.3032   59.5023 C   0  0  0  0  0  0  0  0  0  0  0  0
   70.1284   38.3889   58.9234 C   0  0  0  0  0  0  0  0  0  0  0  0
   70.1080   37.1646   59.5653 C   0  0  0  0  0  0  0  0  0  0  0  0
   71.0894   36.2234   59.3358 C   0  0  0  0  0  0  0  0  0  0  0  0
   72.1162   36.5020   58.4473 C   0  0  0  0  0  0  0  0  0  0  0  0
   72.1319   37.6848   57.8298 N   0  0  0  0  0  0  0  0  0  0  0  0
   71.1559   38.6193   58.0583 C   0  0  0  0  0  0  0  0  0  0  0  0
   68.3430   39.8756   57.9736 C   0  0  0  0  0  0  0  0  0  0  0  0
   66.9164   41.5155   56.1384 O   0  0  0  0  0  0  0  0  0  0  0  0
   67.9634   41.9819   56.6555 C   0  0  0  0  0  0  0  0  0  0  0  0
   68.7412   41.2394   57.5803 N   0  0  0  0  0  0  0  0  0  0  0  0
   68.4039   43.3263   56.3027 C   0  0  0  0  0  0  0  0  0  0  0  0
   69.3475   43.8937   56.9105 O   0  0  0  0  0  0  0  0  0  0  0  0
   67.7777   44.0475   55.2515 N   0  0  0  0  0  0  0  0  0  0  0  0
   68.1597   45.3582   54.8599 C   0  0  0  0  0  0  0  0  0  0  0  0
   68.1123   45.7316   53.5318 C   0  0  0  0  0  0  0  0  0  0  0  0
   68.4768   46.9983   53.1058 C   0  0  0  0  0  0  0  0  0  0  0  0
   68.8988   47.9117   54.0525 C   0  0  0  0  0  0  0  0  0  0  0  0
   68.9437   47.5309   55.3836 C   0  0  0  0  0  0  0  0  0  0  0  0
   68.5795   46.2639   55.7977 C   0  0  0  0  0  0  0  0  0  0  0  0
 19 20  2  0
 20 21  1  0
 20 22  1  0
 21 18  1  0
  1 18  1  6
  1 12  1  0
  1  2  1  0
 12 13  2  0
 12 17  1  0
 13 14  1  0
 14 15  2  0
 15 16  1  0
 16 17  2  0
  2  3  1  1
  2 11  1  0
  3  4  1  0
  4  5  1  0
  5  6  2  0
  5 10  1  0
  6  7  1  0
  7  8  2  0
  8  9  1  0
  9 10  2  0
 10 11  1  0
 22 23  2  0
 22 24  1  0
 24 25  1  0
 25 26  2  0
 25 30  1  0
 26 27  1  0
 27 28  2  0
 28 29  1  0
 29 30  2  0
M  CHG  1   2   1
M  END
>  <minimizedAffinity>  (1092) 
-8.67536

$$$$
data/reference_output_2/data/smiles/186391.pdb
     RDKit          3D

 28 32  0  0  0  0  0  0  0  0999 V2000
   68.5728   42.3560   56.7430 C   0  0  0  0  0  0  0  0  0  0  0  0
   69.5257   41.9532   57.6412 C   0  0  0  0  0  0  0  0  0  0  0  0
   70.1911   43.0764   57.9720 N   0  0  0  0  0  0  0  0  0  0  0  0
   69.7250   44.1452   57.3461 N   0  0  0  0  0  0  0  0  0  0  0  0
   69.8632   45.4765   57.1818 C   0  0  0  0  0  0  0  0  0  0  0  0
   68.9247   45.9194   56.2864 C   0  0  0  0  0  0  0  0  0  0  0  0
   68.2238   44.8212   55.9209 N   0  0  0  0  0  0  0  0  0  0  0  0
   68.6970   43.7263   56.5582 C   0  0  0  0  0  0  0  0  0  0  0  0
   68.8069   47.3251   55.8891 C   0  0  0  0  0  0  0  0  0  0  0  0
   69.1167   48.1158   57.0643 N   0  0  0  0  0  0  0  0  0  0  0  0
   70.4196   47.8641   57.5823 C   0  0  0  0  0  0  0  0  0  0  0  0
   70.8030   46.4443   57.7775 C   0  0  0  0  0  0  0  0  0  0  0  0
   69.7979   40.6206   58.1745 C   0  0  0  0  0  0  0  0  0  0  0  0
   71.1132   40.1862   58.3591 C   0  0  0  0  0  0  0  0  0  0  0  0
   71.4166   38.9304   58.8371 C   0  0  0  0  0  0  0  0  0  0  0  0
   70.4298   38.0250   59.1626 C   0  0  0  0  0  0  0  0  0  0  0  0
   69.1275   38.4401   58.9849 C   0  0  0  0  0  0  0  0  0  0  0  0
   68.8236   39.7089   58.5007 C   0  0  0  0  0  0  0  0  0  0  0  0
   70.7351   36.7509   59.6490 O   0  0  0  0  0  0  0  0  0  0  0  0
   71.4725   35.8268   58.9147 C   0  0  0  0  0  0  0  0  0  0  0  0
   72.1350   36.2202   57.7721 C   0  0  0  0  0  0  0  0  0  0  0  0
   72.8876   35.3285   57.0019 C   0  0  0  0  0  0  0  0  0  0  0  0
   72.9607   34.0163   57.4083 C   0  0  0  0  0  0  0  0  0  0  0  0
   72.3195   33.5916   58.5317 C   0  0  0  0  0  0  0  0  0  0  0  0
   71.5727   34.5024   59.2848 C   0  0  0  0  0  0  0  0  0  0  0  0
   67.8222   40.3067   55.5137 N   0  0  0  0  0  0  0  0  0  0  0  0
   67.5547   41.5753   56.0862 C   0  0  0  0  0  0  0  0  0  0  0  0
   66.3746   41.9836   55.9884 O   0  0  0  0  0  0  0  0  0  0  0  0
 26 27  1  0
 27 28  2  0
 27  1  1  0
  1  2  1  0
  1  8  2  0
  2 13  1  0
  2  3  2  0
 13 14  2  0
 13 18  1  0
 14 15  1  0
 15 16  2  0
 16 19  1  0
 16 17  1  0
 19 20  1  0
 20 21  2  0
 20 25  1  0
 21 22  1  0
 22 23  2  0
 23 24  1  0
 24 25  2  0
 17 18  2  0
  3  4  1  0
  4  5  1  0
  4  8  1  0
  5  6  2  0
  5 12  1  0
  6  7  1  0
  6  9  1  0
  7  8  1  0
  9 10  1  0
 10 11  1  0
 11 12  1  0
M  CHG  1  10   1
M  END
>  <minimizedAffinity>  (1093) 
-8.75061

$$$$
data/reference_output_2/data/smiles/186476.pdb
     RDKit          3D

 21 23  0  0  0  0  0  0  0  0999 V2000
   71.6061   49.3479   53.2646 O   0  0  0  0  0  0  0  0  0  0  0  0
   70.4634   49.2749   53.8494 C   0  0  0  0  0  0  0  0  0  0  0  0
   70.1648   50.2855   54.7808 N   0  0  0  0  0  0  0  0  0  0  0  0
   70.8479   51.5947   54.7559 C   0  0  0  0  0  0  0  0  0  0  0  0
   69.9715   52.7417   55.0717 C   0  0  0  0  0  0  0  0  0  0  0  0
   68.5261   52.4418   55.3462 C   0  0  0  0  0  0  0  0  0  0  0  0
   68.3268   51.1866   56.0884 C   0  0  0  0  0  0  0  0  0  0  0  0
   67.3642   51.0721   57.0536 C   0  0  0  0  0  0  0  0  0  0  0  0
   67.2480   49.8555   57.7229 C   0  0  0  0  0  0  0  0  0  0  0  0
   66.3144   49.6745   58.6894 F   0  0  0  0  0  0  0  0  0  0  0  0
   68.0986   48.7882   57.4062 C   0  0  0  0  0  0  0  0  0  0  0  0
   69.0616   48.9062   56.4400 C   0  0  0  0  0  0  0  0  0  0  0  0
   69.1599   50.1451   55.7773 C   0  0  0  0  0  0  0  0  0  0  0  0
   69.6215   48.1913   53.4967 C   0  0  0  0  0  0  0  0  0  0  0  0
   68.9880   47.3869   54.4057 C   0  0  0  0  0  0  0  0  0  0  0  0
   68.1085   46.3735   54.0024 C   0  0  0  0  0  0  0  0  0  0  0  0
   67.8466   46.1468   52.6858 C   0  0  0  0  0  0  0  0  0  0  0  0
   66.9679   45.1290   52.3551 O   0  0  0  0  0  0  0  0  0  0  0  0
   68.4694   46.9435   51.7498 C   0  0  0  0  0  0  0  0  0  0  0  0
   69.3319   47.9359   52.1556 C   0  0  0  0  0  0  0  0  0  0  0  0
   69.9397   48.7157   51.1978 O   0  0  0  0  0  0  0  0  0  0  0  0
  1  2  2  0
  2 14  1  0
  2  3  1  0
 14 15  2  0
 14 20  1  0
 15 16  1  0
 16 17  2  0
 17 18  1  0
 17 19  1  0
 19 20  2  0
 20 21  1  0
  3  4  1  0
  3 13  1  0
  4  5  1  0
  5  6  1  0
  6  7  1  0
  7  8  2  0
  7 13  1  0
  8  9  1  0
  9 10  1  0
  9 11  2  0
 11 12  1  0
 12 13  2  0
M  END
>  <minimizedAffinity>  (1094) 
-9.25267

$$$$
data/reference_output_2/data/smiles/186691.pdb
     RDKit          3D

 26 28  0  0  0  0  0  0  0  0999 V2000
   68.1043   45.4820   54.4219 C   0  0  0  0  0  0  0  0  0  0  0  0
   68.6434   46.4389   55.2569 C   0  0  0  0  0  0  0  0  0  0  0  0
   69.2417   47.5859   54.7745 C   0  0  0  0  0  0  0  0  0  0  0  0
   69.3307   47.8339   53.4210 C   0  0  0  0  0  0  0  0  0  0  0  0
   68.7933   46.8804   52.5798 C   0  0  0  0  0  0  0  0  0  0  0  0
   68.1966   45.7367   53.0678 C   0  0  0  0  0  0  0  0  0  0  0  0
   69.1254   43.8566   56.4235 O   0  0  0  0  0  0  0  0  0  0  0  0
   68.0326   43.4783   55.9272 C   0  0  0  0  0  0  0  0  0  0  0  0
   67.4476   42.3092   56.4177 N   0  0  0  0  0  0  0  0  0  0  0  0
   67.4911   44.2905   54.8994 N   0  0  0  0  0  0  0  0  0  0  0  0
   67.9755   41.4502   57.4562 C   0  0  0  0  0  0  0  0  0  0  0  0
   67.6666   41.9095   58.8187 C   0  0  0  0  0  0  0  0  0  0  0  0
   66.5622   41.4330   59.4748 C   0  0  0  0  0  0  0  0  0  0  0  0
   66.3218   41.9132   60.7570 C   0  0  0  0  0  0  0  0  0  0  0  0
   67.1400   42.8343   61.3799 C   0  0  0  0  0  0  0  0  0  0  0  0
   68.2107   43.2541   60.6656 N   0  0  0  0  0  0  0  0  0  0  0  0
   68.4662   42.8176   59.4459 N   0  0  0  0  0  0  0  0  0  0  0  0
   70.0883   49.2848   52.7833 S   0  0  0  0  0  0  0  0  0  0  0  0
   71.5879   49.0599   52.8296 O   0  0  0  0  0  0  0  0  0  0  0  0
   69.7014   49.5449   51.3743 O   0  0  0  0  0  0  0  0  0  0  0  0
   69.7592   50.6780   53.8163 C   0  0  0  0  0  0  0  0  0  0  0  0
   70.8263   51.3861   54.3452 C   0  0  0  0  0  0  0  0  0  0  0  0
   70.6872   52.4854   55.1585 C   0  0  0  0  0  0  0  0  0  0  0  0
   69.3930   52.8839   55.4489 C   0  0  0  0  0  0  0  0  0  0  0  0
   68.3072   52.1988   54.9382 C   0  0  0  0  0  0  0  0  0  0  0  0
   68.4793   51.0884   54.1157 C   0  0  0  0  0  0  0  0  0  0  0  0
  7  8  2  0
  8  9  1  0
  8 10  1  0
  9 11  1  0
 11 12  1  0
 12 13  2  0
 12 17  1  0
 13 14  1  0
 14 15  2  0
 15 16  1  0
 16 17  2  0
 10  1  1  0
  1  2  2  0
  1  6  1  0
  2  3  1  0
  3  4  2  0
  4 18  1  0
  4  5  1  0
 18 19  2  0
 18 20  2  0
 18 21  1  0
 21 22  2  0
 21 26  1  0
 22 23  1  0
 23 24  2  0
 24 25  1  0
 25 26  2  0
  5  6  2  0
M  END
>  <minimizedAffinity>  (1095) 
-9.27630

$$$$
data/reference_output_2/data/smiles/186711.pdb
     RDKit          3D

 23 25  0  0  0  0  0  0  0  0999 V2000
   72.1668   50.3074   53.9579 O   0  0  0  0  0  0  0  0  0  0  0  0
   70.8162   50.1288   53.7191 C   0  0  0  0  0  0  0  0  0  0  0  0
   70.0239   50.9503   54.2471 O   0  0  0  0  0  0  0  0  0  0  0  0
   70.3211   49.0213   52.8815 C   0  0  0  0  0  0  0  0  0  0  0  0
   70.6303   48.8209   51.5894 N   0  0  0  0  0  0  0  0  0  0  0  0
   70.0122   47.7274   51.1316 N   0  0  0  0  0  0  0  0  0  0  0  0
   69.2979   47.2255   52.1513 C   0  0  0  0  0  0  0  0  0  0  0  0
   68.4750   46.1146   52.2435 C   0  0  0  0  0  0  0  0  0  0  0  0
   67.8253   45.7834   53.4274 C   0  0  0  0  0  0  0  0  0  0  0  0
   68.0027   46.5795   54.5397 C   0  0  0  0  0  0  0  0  0  0  0  0
   68.8296   47.6977   54.4535 C   0  0  0  0  0  0  0  0  0  0  0  0
   69.4673   48.0159   53.2763 C   0  0  0  0  0  0  0  0  0  0  0  0
   72.6919   51.2772   54.8431 C   0  0  0  0  0  0  0  0  0  0  0  0
   74.9141   52.0019   55.0700 O   0  0  0  0  0  0  0  0  0  0  0  0
   74.1231   51.0250   55.1242 C   0  0  0  0  0  0  0  0  0  0  0  0
   74.6572   49.7665   55.4481 N   0  0  0  0  0  0  0  0  0  0  0  0
   76.0417   49.5323   55.7192 C   0  0  0  0  0  0  0  0  0  0  0  0
   76.5362   49.5205   57.0077 C   0  0  0  0  0  0  0  0  0  0  0  0
   77.8721   49.2960   57.2957 C   0  0  0  0  0  0  0  0  0  0  0  0
   78.7677   49.0731   56.2684 C   0  0  0  0  0  0  0  0  0  0  0  0
   80.4571   48.7872   56.5996 Cl  0  0  0  0  0  0  0  0  0  0  0  0
   78.2469   49.0903   54.9834 C   0  0  0  0  0  0  0  0  0  0  0  0
   76.9403   49.3109   54.7359 N   0  0  0  0  0  0  0  0  0  0  0  0
 14 15  2  0
 15 13  1  0
 15 16  1  0
 13  1  1  0
  1  2  1  0
  2  3  2  0
  2  4  1  0
  4  5  2  0
  4 12  1  0
  5  6  1  0
  6  7  1  0
  7  8  1  0
  7 12  2  0
  8  9  2  0
  9 10  1  0
 10 11  2  0
 11 12  1  0
 16 17  1  0
 17 18  2  0
 17 23  1  0
 18 19  1  0
 19 20  2  0
 20 21  1  0
 20 22  1  0
 22 23  2  0
M  END
>  <minimizedAffinity>  (1096) 
-8.85037

$$$$
data/reference_output_2/data/smiles/186715.pdb
     RDKit          3D

 25 27  0  0  0  0  0  0  0  0999 V2000
   70.4887   46.3348   59.1102 O   0  0  0  0  0  0  0  0  0  0  0  0
   70.5745   45.4711   58.2233 C   0  0  0  0  0  0  0  0  0  0  0  0
   69.8055   45.8307   57.0411 N   0  0  0  0  0  0  0  0  0  0  0  0
   71.2938   44.2482   58.2309 C   0  0  0  0  0  0  0  0  0  0  0  0
   72.6037   44.4016   58.1358 O   0  0  0  0  0  0  0  0  0  0  0  0
   70.9144   42.8781   58.3225 C   0  0  0  0  0  0  0  0  0  0  0  0
   71.6211   41.9311   59.0945 C   0  0  0  0  0  0  0  0  0  0  0  0
   71.0039   40.7370   59.0276 N   0  0  0  0  0  0  0  0  0  0  0  0
   69.9267   40.8209   58.2578 C   0  0  0  0  0  0  0  0  0  0  0  0
   69.0070   39.8887   57.8934 C   0  0  0  0  0  0  0  0  0  0  0  0
   67.9578   40.2575   57.0435 C   0  0  0  0  0  0  0  0  0  0  0  0
   67.8453   41.5359   56.5784 C   0  0  0  0  0  0  0  0  0  0  0  0
   66.5628   42.0713   55.5125 Cl  0  0  0  0  0  0  0  0  0  0  0  0
   68.8160   42.4607   56.9814 C   0  0  0  0  0  0  0  0  0  0  0  0
   69.8674   42.1485   57.8169 C   0  0  0  0  0  0  0  0  0  0  0  0
   69.0607   47.0668   56.9962 C   0  0  0  0  0  0  0  0  0  0  0  0
   68.1667   47.1815   55.8287 C   0  0  0  0  0  0  0  0  0  0  0  0
   68.7548   47.5460   54.5477 C   0  0  0  0  0  0  0  0  0  0  0  0
   68.5950   46.8275   53.3817 C   0  0  0  0  0  0  0  0  0  0  0  0
   69.1640   47.2248   52.2091 C   0  0  0  0  0  0  0  0  0  0  0  0
   69.9273   48.3665   52.1349 C   0  0  0  0  0  0  0  0  0  0  0  0
   70.5016   48.7596   50.9353 O   0  0  0  0  0  0  0  0  0  0  0  0
   70.1127   49.1130   53.2769 C   0  0  0  0  0  0  0  0  0  0  0  0
   70.8779   50.2655   53.2285 O   0  0  0  0  0  0  0  0  0  0  0  0
   69.5213   48.6888   54.4699 C   0  0  0  0  0  0  0  0  0  0  0  0
  1  2  2  0
  2  3  1  0
  2  4  1  0
  3 16  1  0
 16 17  1  0
 17 18  1  0
 18 19  2  0
 18 25  1  0
 19 20  1  0
 20 21  2  0
 21 22  1  0
 21 23  1  0
 23 24  1  0
 23 25  2  0
  4  5  2  0
  4  6  1  0
  6  7  2  0
  6 15  1  0
  7  8  1  0
  8  9  1  0
  9 10  1  0
  9 15  2  0
 10 11  2  0
 11 12  1  0
 12 13  1  0
 12 14  2  0
 14 15  1  0
M  END
>  <minimizedAffinity>  (1097) 
-8.58351

$$$$
data/reference_output_2/data/smiles/186837.pdb
     RDKit          3D

 28 30  0  0  0  0  0  0  0  0999 V2000
   68.4884   46.6123   54.9190 C   0  0  0  0  0  0  0  0  0  0  0  0
   67.9414   46.0439   53.7733 C   0  0  0  0  0  0  0  0  0  0  0  0
   68.2270   46.6128   52.5389 C   0  0  0  0  0  0  0  0  0  0  0  0
   69.0370   47.7192   52.4335 C   0  0  0  0  0  0  0  0  0  0  0  0
   69.5632   48.2582   53.5846 C   0  0  0  0  0  0  0  0  0  0  0  0
   69.3008   47.7211   54.8271 C   0  0  0  0  0  0  0  0  0  0  0  0
   70.4569   49.4222   53.5536 C   0  0  0  0  0  0  0  0  0  0  0  0
   71.5689   49.2749   53.0157 O   0  0  0  0  0  0  0  0  0  0  0  0
   70.0952   50.6656   54.0993 N   0  0  0  0  0  0  0  0  0  0  0  0
   70.8883   51.8563   54.1034 C   0  0  0  0  0  0  0  0  0  0  0  0
   70.6970   52.3600   55.5153 C   0  0  1  0  0  0  0  0  0  0  0  0
   70.8478   53.7414   55.6019 O   0  0  0  0  0  0  0  0  0  0  0  0
   69.3193   51.9073   55.8721 C   0  0  1  0  0  0  0  0  0  0  0  0
   68.4261   52.9391   56.0192 F   0  0  0  0  0  0  0  0  0  0  0  0
   68.8619   50.9796   54.7596 C   0  0  0  0  0  0  0  0  0  0  0  0
   68.2235   46.0606   56.1866 O   0  0  0  0  0  0  0  0  0  0  0  0
   71.0095   46.2130   58.5214 C   0  0  0  0  0  0  0  0  0  0  0  0
   69.9582   46.5799   57.7145 C   0  0  0  0  0  0  0  0  0  0  0  0
   69.2788   45.6157   56.9807 C   0  0  0  0  0  0  0  0  0  0  0  0
   69.6531   44.3320   57.0646 N   0  0  0  0  0  0  0  0  0  0  0  0
   70.6912   43.9388   57.8558 C   0  0  0  0  0  0  0  0  0  0  0  0
   71.3873   44.8751   58.5980 C   0  0  0  0  0  0  0  0  0  0  0  0
   71.0820   42.4875   57.9208 C   0  0  0  0  0  0  0  0  0  0  0  0
   70.0787   41.6844   57.4272 F   0  0  0  0  0  0  0  0  0  0  0  0
   72.2673   42.3221   57.2354 F   0  0  0  0  0  0  0  0  0  0  0  0
   71.3085   42.1806   59.2577 F   0  0  0  0  0  0  0  0  0  0  0  0
   71.7049   46.9390   60.7108 N   0  0  0  0  0  0  0  0  0  0  0  0
   71.6915   47.2876   59.2827 C   0  0  0  0  0  0  0  0  0  0  0  0
 27 28  1  0
 28 17  1  0
 17 18  2  0
 17 22  1  0
 18 19  1  0
 19 16  1  0
 19 20  2  0
 16  1  1  0
  1  2  2  0
  1  6  1  0
  2  3  1  0
  3  4  2  0
  4  5  1  0
  5  7  1  0
  5  6  2  0
  7  8  2  0
  7  9  1  0
  9 10  1  0
  9 15  1  0
 10 11  1  0
 11 12  1  6
 11 13  1  0
 13 14  1  6
 13 15  1  0
 20 21  1  0
 21 23  1  0
 21 22  2  0
 23 24  1  0
 23 25  1  0
 23 26  1  0
M  CHG  1  27   1
M  END
>  <minimizedAffinity>  (1098) 
-8.66322

$$$$
data/reference_output_2/data/smiles/187031.pdb
     RDKit          3D

 23 25  0  0  0  0  0  0  0  0999 V2000
   70.8681   50.2875   53.4973 C   0  0  0  0  0  0  0  0  0  0  0  0
   72.0817   50.1212   53.8004 O   0  0  0  0  0  0  0  0  0  0  0  0
   70.0719   49.1390   53.1417 C   0  0  0  0  0  0  0  0  0  0  0  0
   69.6093   48.1762   54.0105 C   0  0  0  0  0  0  0  0  0  0  0  0
   68.8417   47.0977   53.5650 C   0  0  0  0  0  0  0  0  0  0  0  0
   68.3712   46.1260   54.4200 C   0  0  0  0  0  0  0  0  0  0  0  0
   67.6108   45.0575   53.9821 C   0  0  0  0  0  0  0  0  0  0  0  0
   67.3025   44.9476   52.6222 C   0  0  0  0  0  0  0  0  0  0  0  0
   67.7655   45.9115   51.7515 C   0  0  0  0  0  0  0  0  0  0  0  0
   68.5282   46.9733   52.2303 C   0  0  0  0  0  0  0  0  0  0  0  0
   68.9831   47.9043   51.4332 O   0  0  0  0  0  0  0  0  0  0  0  0
   69.7049   48.9300   51.8158 C   0  0  0  0  0  0  0  0  0  0  0  0
   70.1114   49.7969   50.9734 O   0  0  0  0  0  0  0  0  0  0  0  0
   70.4489   51.6109   53.5505 O   0  0  0  0  0  0  0  0  0  0  0  0
   69.2460   52.0131   54.1032 C   0  0  0  0  0  0  0  0  0  0  0  0
   69.9681   52.6750   56.1724 O   0  0  0  0  0  0  0  0  0  0  0  0
   69.1972   51.8368   55.5473 C   0  0  0  0  0  0  0  0  0  0  0  0
   68.4594   50.9164   56.3607 C   0  0  0  0  0  0  0  0  0  0  0  0
   67.3119   51.3736   57.0112 C   0  0  0  0  0  0  0  0  0  0  0  0
   66.5095   50.6214   57.8137 C   0  0  0  0  0  0  0  0  0  0  0  0
   66.8471   49.3019   58.0070 C   0  0  0  0  0  0  0  0  0  0  0  0
   67.9557   48.7828   57.4034 C   0  0  0  0  0  0  0  0  0  0  0  0
   68.7545   49.5916   56.5852 C   0  0  0  0  0  0  0  0  0  0  0  0
 16 17  2  0
 17 15  1  0
 17 18  1  0
 15 14  1  0
 14  1  1  0
  1  2  2  0
  1  3  1  0
  3  4  2  0
  3 12  1  0
  4  5  1  0
  5  6  2  0
  5 10  1  0
  6  7  1  0
  7  8  2  0
  8  9  1  0
  9 10  2  0
 10 11  1  0
 11 12  1  0
 12 13  2  0
 18 19  2  0
 18 23  1  0
 19 20  1  0
 20 21  2  0
 21 22  1  0
 22 23  2  0
M  END
>  <minimizedAffinity>  (1099) 
-8.54549

$$$$
data/reference_output_2/data/smiles/187068.pdb
     RDKit          3D

 26 28  0  0  0  0  0  0  0  0999 V2000
   69.0529   46.6110   57.0927 N   0  0  0  0  0  0  0  0  0  0  0  0
   68.7724   47.3999   56.1515 C   0  0  0  0  0  0  0  0  0  0  0  0
   68.7388   47.0227   54.7654 C   0  0  0  0  0  0  0  0  0  0  0  0
   69.2839   47.7289   53.7113 C   0  0  0  0  0  0  0  0  0  0  0  0
   69.0681   47.4234   52.3829 C   0  0  0  0  0  0  0  0  0  0  0  0
   68.2773   46.3662   52.0118 C   0  0  0  0  0  0  0  0  0  0  0  0
   67.7135   45.6354   53.0242 C   0  0  0  0  0  0  0  0  0  0  0  0
   67.9318   45.9491   54.3498 C   0  0  0  0  0  0  0  0  0  0  0  0
   68.4248   48.7658   56.5813 C   0  0  0  0  0  0  0  0  0  0  0  0
   67.3911   48.9642   57.5077 C   0  0  0  0  0  0  0  0  0  0  0  0
   66.9250   50.1854   57.8798 C   0  0  0  0  0  0  0  0  0  0  0  0
   67.4661   51.3355   57.3457 C   0  0  0  0  0  0  0  0  0  0  0  0
   68.4810   51.1616   56.4322 C   0  0  0  0  0  0  0  0  0  0  0  0
   68.9537   49.9120   56.0522 C   0  0  0  0  0  0  0  0  0  0  0  0
   69.8667   44.5304   58.0904 C   0  0  0  0  0  0  0  0  0  0  0  0
   69.9772   45.2364   59.1839 O   0  0  0  0  0  0  0  0  0  0  0  0
   69.3783   45.2805   57.0055 N   0  0  0  0  0  0  0  0  0  0  0  0
   70.2489   43.1497   58.1750 C   0  0  0  0  0  0  0  0  0  0  0  0
   67.6140   42.0053   56.4779 C   0  0  0  0  0  0  0  0  0  0  0  0
   68.0226   40.7853   57.2646 C   0  0  1  0  0  0  0  0  0  0  0  0
   69.4377   40.9600   57.7249 C   0  0  0  0  0  0  0  0  0  0  0  0
   69.4864   42.1029   58.6114 N   0  0  2  0  0  0  0  0  0  0  0  0
   68.5899   42.0882   59.6629 C   0  0  0  0  0  0  0  0  0  0  0  0
   67.7492   40.7831   59.5491 C   0  0  1  0  0  0  0  0  0  0  0  0
   66.6383   40.9718   60.5845 C   0  0  0  0  0  0  0  0  0  0  0  0
   67.1305   40.6784   58.3290 O   0  0  0  0  0  0  0  0  0  0  0  0
 20 19  1  6
 20 21  1  0
 20 26  1  0
 21 22  1  0
 22 18  1  6
 22 23  1  0
 18 15  1  0
 15 16  2  0
 15 17  1  0
 17  1  1  0
  1  2  2  0
  2  3  1  0
  2  9  1  0
  3  4  2  0
  3  8  1  0
  4  5  1  0
  5  6  2  0
  6  7  1  0
  7  8  2  0
  9 10  2  0
  9 14  1  0
 10 11  1  0
 11 12  2  0
 12 13  1  0
 13 14  2  0
 23 24  1  0
 24 25  1  1
 24 26  1  0
M  CHG  1  22   1
M  END
>  <minimizedAffinity>  (1100) 
-8.72766

$$$$
data/reference_output_2/data/smiles/187122.pdb
     RDKit          3D

 26 28  0  0  0  0  0  0  0  0999 V2000
   68.8326   42.6681   57.1272 C   0  0  0  0  0  0  0  0  0  0  0  0
   68.9948   43.8798   56.5686 N   0  0  0  0  0  0  0  0  0  0  0  0
   68.2045   44.3320   55.5762 C   0  0  0  0  0  0  0  0  0  0  0  0
   67.2145   43.5535   55.1180 N   0  0  0  0  0  0  0  0  0  0  0  0
   66.9705   42.3052   55.6221 C   0  0  0  0  0  0  0  0  0  0  0  0
   66.0448   41.5713   55.1958 O   0  0  0  0  0  0  0  0  0  0  0  0
   67.8088   41.8837   56.6407 C   0  0  0  0  0  0  0  0  0  0  0  0
   67.6487   40.6216   57.2315 O   0  0  0  0  0  0  0  0  0  0  0  0
   68.4347   45.6559   55.0132 C   0  0  0  0  0  0  0  0  0  0  0  0
   68.8006   46.7558   55.7317 C   0  0  0  0  0  0  0  0  0  0  0  0
   69.0108   47.9998   55.1203 C   0  0  0  0  0  0  0  0  0  0  0  0
   68.8502   48.1357   53.7714 C   0  0  0  0  0  0  0  0  0  0  0  0
   68.4765   47.0371   53.0031 C   0  0  0  0  0  0  0  0  0  0  0  0
   68.3107   47.1428   51.6618 F   0  0  0  0  0  0  0  0  0  0  0  0
   68.2820   45.8421   53.6363 C   0  0  0  0  0  0  0  0  0  0  0  0
   69.5968   42.6881   59.3294 O   0  0  0  0  0  0  0  0  0  0  0  0
   69.7067   42.1785   58.2113 C   0  0  0  0  0  0  0  0  0  0  0  0
   70.6526   41.1545   58.0106 N   0  0  0  0  0  0  0  0  0  0  0  0
   71.5500   40.6137   59.0029 C   0  0  0  0  0  0  0  0  0  0  0  0
   71.4386   39.1411   58.9761 C   0  0  0  0  0  0  0  0  0  0  0  0
   72.2672   38.3741   58.1717 C   0  0  0  0  0  0  0  0  0  0  0  0
   72.1832   37.0068   58.1169 C   0  0  0  0  0  0  0  0  0  0  0  0
   71.2571   36.3365   58.8715 C   0  0  0  0  0  0  0  0  0  0  0  0
   71.1581   34.9696   58.8284 F   0  0  0  0  0  0  0  0  0  0  0  0
   70.4156   37.0774   59.6838 C   0  0  0  0  0  0  0  0  0  0  0  0
   70.5110   38.4725   59.7309 C   0  0  0  0  0  0  0  0  0  0  0  0
 16 17  2  0
 17 18  1  0
 17  1  1  0
 18 19  1  0
 19 20  1  0
 20 21  2  0
 20 26  1  0
 21 22  1  0
 22 23  2  0
 23 24  1  0
 23 25  1  0
 25 26  2  0
  1  2  1  0
  1  7  2  0
  2  3  2  0
  3  9  1  0
  3  4  1  0
  9 10  2  0
  9 15  1  0
 10 11  1  0
 11 12  2  0
 12 13  1  0
 13 14  1  0
 13 15  2  0
  4  5  1  0
  5  6  2  0
  5  7  1  0
  7  8  1  0
M  END
>  <minimizedAffinity>  (1101) 
-8.77306

$$$$
data/reference_output_2/data/smiles/187242.pdb
     RDKit          3D

 21 23  0  0  0  0  0  0  0  0999 V2000
   69.9486   49.3916   52.7408 S   0  0  0  0  0  0  0  0  0  0  0  0
   71.4291   49.0758   52.8356 O   0  0  0  0  0  0  0  0  0  0  0  0
   69.7756   49.6743   51.2433 O   0  0  0  0  0  0  0  0  0  0  0  0
   69.1510   47.8705   53.0199 C   0  0  0  0  0  0  0  0  0  0  0  0
   68.6140   47.1836   51.9188 C   0  0  0  0  0  0  0  0  0  0  0  0
   67.9415   45.9990   52.1116 C   0  0  0  0  0  0  0  0  0  0  0  0
   67.7883   45.4763   53.3666 C   0  0  0  0  0  0  0  0  0  0  0  0
   68.3335   46.1743   54.4791 C   0  0  0  0  0  0  0  0  0  0  0  0
   68.2134   45.6648   55.7626 N   0  0  0  0  0  0  0  0  0  0  0  0
   69.0669   46.8731   56.7348 S   0  0  0  0  0  0  0  0  0  0  0  0
   69.4958   47.9095   55.4327 N   0  0  0  0  0  0  0  0  0  0  0  0
   68.9582   47.2832   54.2584 C   0  0  0  0  0  0  0  0  0  0  0  0
   69.4097   50.6639   53.5680 N   0  0  0  0  0  0  0  0  0  0  0  0
   67.4916   51.1281   57.1387 C   0  0  0  0  0  0  0  0  0  0  0  0
   68.7635   51.0238   56.3377 C   0  0  2  0  0  0  0  0  0  0  0  0
   69.9961   51.0246   57.2085 C   0  0  0  0  0  0  0  0  0  0  0  0
   71.1998   50.7391   56.3924 C   0  0  0  0  0  0  0  0  0  0  0  0
   71.2675   51.3376   55.0477 C   0  0  0  0  0  0  0  0  0  0  0  0
   69.9870   51.6228   54.3485 C   0  0  2  0  0  0  0  0  0  0  0  0
   68.9269   52.1282   55.3562 C   0  0  2  0  0  0  0  0  0  0  0  0
   69.3773   53.4224   55.9814 C   0  0  0  0  0  0  0  0  0  0  0  0
 15 14  1  1
 15 16  1  0
 15 20  1  0
 16 17  1  0
 17 18  1  0
 18 19  1  0
 19 13  1  1
 19 20  1  0
 13  1  1  0
  1  2  2  0
  1  3  2  0
  1  4  1  0
  4  5  2  0
  4 12  1  0
  5  6  1  0
  6  7  2  0
  7  8  1  0
  8  9  2  0
  8 12  1  0
  9 10  1  0
 10 11  1  0
 11 12  2  0
 20 21  1  1
M  END
>  <minimizedAffinity>  (1102) 
-8.54862

$$$$
data/reference_output_2/data/smiles/187283.pdb
     RDKit          3D

 22 24  0  0  0  0  0  0  0  0999 V2000
   69.4709   47.9912   56.4418 C   0  0  0  0  0  0  0  0  0  0  0  0
   69.7572   48.7551   57.4462 O   0  0  0  0  0  0  0  0  0  0  0  0
   69.0879   48.5131   55.2204 N   0  0  0  0  0  0  0  0  0  0  0  0
   69.0860   49.9762   55.1403 C   0  0  0  0  0  0  0  0  0  0  0  0
   68.5879   50.5648   56.2720 C   0  0  0  0  0  0  0  0  0  0  0  0
   68.5343   51.9533   56.3798 C   0  0  0  0  0  0  0  0  0  0  0  0
   68.9760   52.7621   55.3561 C   0  0  0  0  0  0  0  0  0  0  0  0
   69.4737   52.1457   54.2202 C   0  0  0  0  0  0  0  0  0  0  0  0
   69.5328   50.7685   54.1019 C   0  0  0  0  0  0  0  0  0  0  0  0
   70.0559   50.3040   52.8525 N   0  0  0  0  0  0  0  0  0  0  0  0
   69.9411   48.9910   52.2593 C   0  0  0  0  0  0  0  0  0  0  0  0
   70.5099   48.7570   51.1897 O   0  0  0  0  0  0  0  0  0  0  0  0
   69.1916   47.8641   52.8112 C   0  0  0  0  0  0  0  0  0  0  0  0
   68.8241   46.9080   51.9014 C   0  0  0  0  0  0  0  0  0  0  0  0
   68.0667   45.8010   52.2608 C   0  0  0  0  0  0  0  0  0  0  0  0
   67.6680   45.6660   53.5941 C   0  0  0  0  0  0  0  0  0  0  0  0
   68.0168   46.6070   54.5391 C   0  0  0  0  0  0  0  0  0  0  0  0
   68.7700   47.6720   54.1148 C   0  0  0  0  0  0  0  0  0  0  0  0
   69.6248   46.5772   56.8038 C   0  0  0  0  0  0  0  0  0  0  0  0
   70.4359   46.4251   58.1039 C   0  0  0  0  0  0  0  0  0  0  0  0
   70.3850   44.0074   58.1847 C   0  0  0  0  0  0  0  0  0  0  0  0
   69.9278   45.2447   58.7776 N   0  0  0  0  0  0  0  0  0  0  0  0
 21 22  1  0
 22 20  1  0
 20 19  1  0
 19  1  1  0
  1  2  2  0
  1  3  1  0
  3  4  1  0
  3 18  1  0
  4  5  2  0
  4  9  1  0
  5  6  1  0
  6  7  2  0
  7  8  1  0
  8  9  2  0
  9 10  1  0
 10 11  1  0
 11 12  2  0
 11 13  1  0
 13 14  2  0
 13 18  1  0
 14 15  1  0
 15 16  2  0
 16 17  1  0
 17 18  2  0
M  CHG  1  22   1
M  END
>  <minimizedAffinity>  (1103) 
-8.74735

$$$$
data/reference_output_2/data/smiles/187360.pdb
     RDKit          3D

 27 30  0  0  0  0  0  0  0  0999 V2000
   73.6639   35.2918   55.8144 C   0  0  0  0  0  0  0  0  0  0  0  0
   75.0288   35.1214   55.8279 C   0  0  0  0  0  0  0  0  0  0  0  0
   75.8386   35.2398   54.7294 C   0  0  0  0  0  0  0  0  0  0  0  0
   75.2833   35.5498   53.5113 C   0  0  0  0  0  0  0  0  0  0  0  0
   73.8790   35.7295   53.4740 C   0  0  0  0  0  0  0  0  0  0  0  0
   73.1016   35.6030   54.5929 C   0  0  0  0  0  0  0  0  0  0  0  0
   70.4725   37.3645   59.8999 C   0  0  0  0  0  0  0  0  0  0  0  0
   70.8275   35.9259   59.8348 C   0  0  0  0  0  0  0  0  0  0  0  0
   71.6148   35.5061   58.7974 C   0  0  0  0  0  0  0  0  0  0  0  0
   72.2258   36.0868   57.7009 C   0  0  0  0  0  0  0  0  0  0  0  0
   72.1582   37.2982   57.4108 O   0  0  0  0  0  0  0  0  0  0  0  0
   72.8989   35.1519   56.9997 N   0  0  0  0  0  0  0  0  0  0  0  0
   72.7216   33.9882   57.6382 N   0  0  0  0  0  0  0  0  0  0  0  0
   71.9538   34.1678   58.7232 C   0  0  0  0  0  0  0  0  0  0  0  0
   71.4683   33.3379   59.7129 C   0  0  0  0  0  0  0  0  0  0  0  0
   70.6707   33.8198   60.7467 C   0  0  0  0  0  0  0  0  0  0  0  0
   70.2554   33.0097   61.6256 O   0  0  0  0  0  0  0  0  0  0  0  0
   70.3537   35.1198   60.7994 N   0  0  0  0  0  0  0  0  0  0  0  0
   69.5153   35.6263   61.8843 C   0  0  0  0  0  0  0  0  0  0  0  0
   75.9855   35.6948   52.3537 O   0  0  0  0  0  0  0  0  0  0  0  0
   77.0525   35.1312   51.7531 C   0  0  0  0  0  0  0  0  0  0  0  0
   77.0683   34.9668   50.3009 C   0  0  0  0  0  0  0  0  0  0  0  0
   77.9281   35.7473   49.5368 C   0  0  0  0  0  0  0  0  0  0  0  0
   77.9650   35.6530   48.1605 C   0  0  0  0  0  0  0  0  0  0  0  0
   77.1494   34.7802   47.4969 C   0  0  0  0  0  0  0  0  0  0  0  0
   76.2908   33.9969   48.2281 C   0  0  0  0  0  0  0  0  0  0  0  0
   76.2601   34.0990   49.6173 C   0  0  0  0  0  0  0  0  0  0  0  0
  7  8  1  0
  8  9  2  0
  8 18  1  0
  9 10  1  0
  9 14  1  0
 10 11  2  0
 10 12  1  0
 12  1  1  0
 12 13  1  0
  1  2  2  0
  1  6  1  0
  2  3  1  0
  3  4  2  0
  4 20  1  0
  4  5  1  0
 20 21  1  0
 21 22  1  0
 22 23  2  0
 22 27  1  0
 23 24  1  0
 24 25  2  0
 25 26  1  0
 26 27  2  0
  5  6  2  0
 13 14  1  0
 14 15  2  0
 15 16  1  0
 16 17  2  0
 16 18  1  0
 18 19  1  0
M  END
>  <minimizedAffinity>  (1104) 
-8.89476

$$$$
data/reference_output_2/data/smiles/187388.pdb
     RDKit          3D

 23 25  0  0  0  0  0  0  0  0999 V2000
   69.6481   47.7852   56.4046 C   0  0  1  0  0  0  0  0  0  0  0  0
   70.0792   49.1905   51.1414 N   0  0  0  0  0  0  0  0  0  0  0  0
   69.4115   48.1925   51.9416 C   0  0  0  0  0  0  0  0  0  0  0  0
   69.5875   48.2081   53.2736 N   0  0  0  0  0  0  0  0  0  0  0  0
   68.9324   47.2416   53.9852 C   0  0  0  0  0  0  0  0  0  0  0  0
   68.9292   47.0187   55.3502 C   0  0  0  0  0  0  0  0  0  0  0  0
   68.1031   45.9122   55.5281 C   0  0  0  0  0  0  0  0  0  0  0  0
   67.6521   45.5168   54.3312 N   0  0  0  0  0  0  0  0  0  0  0  0
   68.1377   46.3067   53.3559 C   0  0  0  0  0  0  0  0  0  0  0  0
   67.9869   46.3307   51.9744 C   0  0  0  0  0  0  0  0  0  0  0  0
   67.2585   45.4678   51.4331 O   0  0  0  0  0  0  0  0  0  0  0  0
   68.6378   47.2859   51.3038 N   0  0  0  0  0  0  0  0  0  0  0  0
   68.8439   48.9832   56.7227 C   0  0  0  0  0  0  0  0  0  0  0  0
   67.7358   48.8294   57.5179 C   0  0  0  0  0  0  0  0  0  0  0  0
   66.9502   49.9240   57.8496 C   0  0  0  0  0  0  0  0  0  0  0  0
   67.3015   51.1617   57.3702 C   0  0  0  0  0  0  0  0  0  0  0  0
   68.4203   51.3046   56.5699 C   0  0  0  0  0  0  0  0  0  0  0  0
   68.8851   52.8766   55.9475 Cl  0  0  0  0  0  0  0  0  0  0  0  0
   69.2144   50.2317   56.2275 C   0  0  0  0  0  0  0  0  0  0  0  0
   69.8256   46.9696   57.6605 C   0  0  0  0  0  0  0  0  0  0  0  0
   71.0578   47.3750   58.3997 C   0  0  0  0  0  0  0  0  0  0  0  0
   71.9458   48.0865   57.9164 O   0  0  0  0  0  0  0  0  0  0  0  0
   71.2352   46.9327   59.7204 O   0  0  0  0  0  0  0  0  0  0  0  0
  2  3  1  0
  3  4  2  0
  3 12  1  0
  4  5  1  0
  5  6  1  0
  5  9  2  0
  6  1  1  0
  6  7  2  0
  1 20  1  1
  1 13  1  0
 20 21  1  0
 21 22  2  0
 21 23  1  0
 13 14  2  0
 13 19  1  0
 14 15  1  0
 15 16  2  0
 16 17  1  0
 17 18  1  0
 17 19  2  0
  7  8  1  0
  8  9  1  0
  9 10  1  0
 10 11  2  0
 10 12  1  0
M  END
>  <minimizedAffinity>  (1105) 
-8.93176

$$$$
data/reference_output_2/data/smiles/187396.pdb
     RDKit          3D

 26 28  0  0  0  0  0  0  0  0999 V2000
   73.2100   48.9622   57.6048 O   0  0  0  0  0  0  0  0  0  0  0  0
   72.7305   49.8697   56.8810 C   0  0  0  0  0  0  0  0  0  0  0  0
   73.6312   50.7984   56.3121 N   0  0  0  0  0  0  0  0  0  0  0  0
   75.0152   50.7702   56.5054 N   0  0  0  0  0  0  0  0  0  0  0  0
   75.8588   50.1032   55.5783 C   0  0  0  0  0  0  0  0  0  0  0  0
   75.2576   49.5571   54.5965 O   0  0  0  0  0  0  0  0  0  0  0  0
   77.3039   50.0365   55.7186 C   0  0  0  0  0  0  0  0  0  0  0  0
   77.9808   49.0121   55.1217 C   0  0  0  0  0  0  0  0  0  0  0  0
   79.3355   48.9088   55.2277 C   0  0  0  0  0  0  0  0  0  0  0  0
   80.0473   49.8518   55.9466 C   0  0  0  0  0  0  0  0  0  0  0  0
   81.4038   49.7271   56.0374 F   0  0  0  0  0  0  0  0  0  0  0  0
   79.4011   50.8926   56.5583 C   0  0  0  0  0  0  0  0  0  0  0  0
   78.0141   50.9721   56.4329 C   0  0  0  0  0  0  0  0  0  0  0  0
   71.2608   49.8996   56.6766 C   0  0  0  0  0  0  0  0  0  0  0  0
   70.8786   50.4692   55.3520 C   0  0  0  0  0  0  0  0  0  0  0  0
   70.2833   49.4906   54.4281 C   0  0  0  0  0  0  0  0  0  0  0  0
   69.4571   48.5042   54.7812 N   0  0  0  0  0  0  0  0  0  0  0  0
   68.9284   47.6242   53.9106 C   0  0  0  0  0  0  0  0  0  0  0  0
   68.0760   46.6079   54.2774 C   0  0  0  0  0  0  0  0  0  0  0  0
   67.5433   45.7135   53.3680 C   0  0  0  0  0  0  0  0  0  0  0  0
   67.8607   45.8188   52.0339 C   0  0  0  0  0  0  0  0  0  0  0  0
   68.7223   46.8417   51.6493 C   0  0  0  0  0  0  0  0  0  0  0  0
   69.2463   47.7269   52.5640 C   0  0  0  0  0  0  0  0  0  0  0  0
   70.0969   48.7418   52.2021 C   0  0  0  0  0  0  0  0  0  0  0  0
   70.4006   48.8574   50.9877 O   0  0  0  0  0  0  0  0  0  0  0  0
   70.5955   49.5953   53.1229 N   0  0  0  0  0  0  0  0  0  0  0  0
  1  2  2  0
  2 14  1  0
  2  3  1  0
 14 15  1  0
 15 16  1  0
 16 17  2  0
 16 26  1  0
 17 18  1  0
 18 19  2  0
 18 23  1  0
 19 20  1  0
 20 21  2  0
 21 22  1  0
 22 23  2  0
 23 24  1  0
 24 25  2  0
 24 26  1  0
  3  4  1  0
  4  5  1  0
  5  6  2  0
  5  7  1  0
  7  8  2  0
  7 13  1  0
  8  9  1  0
  9 10  2  0
 10 11  1  0
 10 12  1  0
 12 13  2  0
M  END
>  <minimizedAffinity>  (1106) 
-9.65806

$$$$
data/reference_output_2/data/smiles/187478.pdb
     RDKit          3D

 22 24  0  0  0  0  0  0  0  0999 V2000
   70.1461   49.2380   54.0985 C   0  0  0  0  0  0  0  0  0  0  0  0
   69.6623   48.5298   55.1601 C   0  0  0  0  0  0  0  0  0  0  0  0
   68.8346   47.4024   55.0060 C   0  0  0  0  0  0  0  0  0  0  0  0
   68.5029   46.9960   53.7501 C   0  0  0  0  0  0  0  0  0  0  0  0
   67.7103   45.8956   53.4917 C   0  0  0  0  0  0  0  0  0  0  0  0
   67.4135   45.5209   52.1833 C   0  0  0  0  0  0  0  0  0  0  0  0
   67.8936   46.2266   51.0987 C   0  0  0  0  0  0  0  0  0  0  0  0
   68.6568   47.2842   51.3883 N   0  0  0  0  0  0  0  0  0  0  0  0
   68.9736   47.6865   52.6439 C   0  0  0  0  0  0  0  0  0  0  0  0
   69.7753   48.7800   52.8361 C   0  0  0  0  0  0  0  0  0  0  0  0
   70.2240   49.4429   51.6961 O   0  0  0  0  0  0  0  0  0  0  0  0
   72.2798   50.0735   54.0048 O   0  0  0  0  0  0  0  0  0  0  0  0
   71.0253   50.3886   54.2272 C   0  0  0  0  0  0  0  0  0  0  0  0
   70.8104   51.7099   54.5275 N   0  0  0  0  0  0  0  0  0  0  0  0
   69.5945   52.4053   54.7899 C   0  0  0  0  0  0  0  0  0  0  0  0
   69.4340   52.4301   56.3057 C   0  0  0  0  0  0  0  0  0  0  0  0
   70.8152   52.7436   56.8575 C   0  0  0  0  0  0  0  0  0  0  0  0
   71.7156   53.4345   55.8805 C   0  0  0  0  0  0  0  0  0  0  0  0
   72.0111   52.6076   54.6412 C   0  0  0  0  0  0  0  0  0  0  0  0
   68.3829   46.7210   56.1560 N   0  0  0  0  0  0  0  0  0  0  0  0
   67.6298   47.3879   56.9252 O   0  0  0  0  0  0  0  0  0  0  0  0
   68.6753   45.4550   56.5031 O   0  0  0  0  0  0  0  0  0  0  0  0
 12 13  2  0
 13  1  1  0
 13 14  1  0
  1  2  2  0
  1 10  1  0
  2  3  1  0
  3 20  1  0
  3  4  2  0
 20 21  2  0
 20 22  1  0
  4  5  1  0
  4  9  1  0
  5  6  2  0
  6  7  1  0
  7  8  2  0
  8  9  1  0
  9 10  2  0
 10 11  1  0
 14 15  1  0
 14 19  1  0
 15 16  1  0
 16 17  1  0
 17 18  1  0
 18 19  1  0
M  CHG  2  20   1  22  -1
M  END
>  <minimizedAffinity>  (1107) 
-8.72163

$$$$
data/reference_output_2/data/smiles/187538.pdb
     RDKit          3D

 29 32  0  0  0  0  0  0  0  0999 V2000
   73.5301   34.9236   55.4526 C   0  0  0  0  0  0  0  0  0  0  0  0
   73.5367   33.6485   55.9820 C   0  0  0  0  0  0  0  0  0  0  0  0
   72.9634   33.3670   57.2173 C   0  0  0  0  0  0  0  0  0  0  0  0
   72.3646   34.3587   57.9640 C   0  0  0  0  0  0  0  0  0  0  0  0
   71.8032   34.0917   59.1690 N   0  0  0  0  0  0  0  0  0  0  0  0
   71.2201   35.0575   59.8941 C   0  0  0  0  0  0  0  0  0  0  0  0
   71.2050   36.3066   59.3924 N   0  0  0  0  0  0  0  0  0  0  0  0
   71.7498   36.6129   58.2026 C   0  0  0  0  0  0  0  0  0  0  0  0
   71.7418   37.7763   57.7218 O   0  0  0  0  0  0  0  0  0  0  0  0
   72.3535   35.6350   57.4415 C   0  0  0  0  0  0  0  0  0  0  0  0
   72.9254   35.9055   56.2138 C   0  0  0  0  0  0  0  0  0  0  0  0
   70.6345   37.4972   59.9971 C   0  0  0  0  0  0  0  0  0  0  0  0
   69.3672   37.1976   60.7338 C   0  0  0  0  0  0  0  0  0  0  0  0
   69.5651   36.6136   62.0965 C   0  0  0  0  0  0  0  0  0  0  0  0
   70.8222   35.7648   62.1692 C   0  0  0  0  0  0  0  0  0  0  0  0
   70.6561   34.5972   61.1878 C   0  0  0  0  0  0  0  0  0  0  0  0
   76.2782   35.0488   54.9503 O   0  0  0  0  0  0  0  0  0  0  0  0
   75.5242   35.2343   53.9682 C   0  0  0  0  0  0  0  0  0  0  0  0
   74.1260   35.1782   54.1839 N   0  0  0  0  0  0  0  0  0  0  0  0
   76.1433   35.4942   52.6750 C   0  0  0  0  0  0  0  0  0  0  0  0
   76.8077   36.5496   52.5106 O   0  0  0  0  0  0  0  0  0  0  0  0
   76.0185   34.5884   51.5883 N   0  0  0  0  0  0  0  0  0  0  0  0
   76.6037   34.8005   50.3129 C   0  0  0  0  0  0  0  0  0  0  0  0
   77.6892   35.6208   50.0926 C   0  0  0  0  0  0  0  0  0  0  0  0
   78.2428   35.8127   48.8441 C   0  0  0  0  0  0  0  0  0  0  0  0
   77.7084   35.1701   47.7464 C   0  0  0  0  0  0  0  0  0  0  0  0
   76.6178   34.3419   47.9465 C   0  0  0  0  0  0  0  0  0  0  0  0
   76.0763   34.1617   49.2091 C   0  0  0  0  0  0  0  0  0  0  0  0
   75.0113   33.3433   49.3587 F   0  0  0  0  0  0  0  0  0  0  0  0
 17 18  2  0
 18 19  1  0
 18 20  1  0
 19  1  1  0
  1  2  2  0
  1 11  1  0
  2  3  1  0
  3  4  2  0
  4  5  1  0
  4 10  1  0
  5  6  2  0
  6  7  1  0
  6 16  1  0
  7  8  1  0
  7 12  1  0
  8  9  2  0
  8 10  1  0
 10 11  2  0
 12 13  1  0
 13 14  1  0
 14 15  1  0
 15 16  1  0
 20 21  2  0
 20 22  1  0
 22 23  1  0
 23 24  2  0
 23 28  1  0
 24 25  1  0
 25 26  2  0
 26 27  1  0
 27 28  2  0
 28 29  1  0
M  END
>  <minimizedAffinity>  (1108) 
-8.64875

$$$$
data/reference_output_2/data/smiles/187589.pdb
     RDKit          3D

 23 25  0  0  0  0  0  0  0  0999 V2000
   69.1474   47.4110   56.4495 S   0  0  0  0  0  0  0  0  0  0  0  0
   70.3079   47.1768   57.4221 O   0  0  0  0  0  0  0  0  0  0  0  0
   68.3384   46.1486   56.5105 O   0  0  0  0  0  0  0  0  0  0  0  0
   68.2736   48.8307   56.9012 C   0  0  0  0  0  0  0  0  0  0  0  0
   67.1443   48.8047   57.6609 C   0  0  0  0  0  0  0  0  0  0  0  0
   66.4896   50.0005   57.9757 C   0  0  0  0  0  0  0  0  0  0  0  0
   66.9473   51.2254   57.5425 C   0  0  0  0  0  0  0  0  0  0  0  0
   68.0956   51.2276   56.7727 C   0  0  0  0  0  0  0  0  0  0  0  0
   68.5976   52.4465   56.3094 C   0  0  0  0  0  0  0  0  0  0  0  0
   69.7433   52.4199   55.5443 C   0  0  0  0  0  0  0  0  0  0  0  0
   70.3851   51.2410   55.2366 C   0  0  0  0  0  0  0  0  0  0  0  0
   69.8779   50.0855   55.6966 N   0  0  0  0  0  0  0  0  0  0  0  0
   68.7586   50.0619   56.4483 C   0  0  0  0  0  0  0  0  0  0  0  0
   69.7717   47.5554   54.8380 N   0  0  0  0  0  0  0  0  0  0  0  0
   69.2694   47.5215   52.4737 C   0  0  0  0  0  0  0  0  0  0  0  0
   68.5175   46.9461   51.4272 C   0  0  0  0  0  0  0  0  0  0  0  0
   67.6000   45.9533   51.6454 C   0  0  0  0  0  0  0  0  0  0  0  0
   67.4018   45.4997   52.9280 C   0  0  0  0  0  0  0  0  0  0  0  0
   68.0968   46.0167   53.9732 C   0  0  0  0  0  0  0  0  0  0  0  0
   69.0428   47.0418   53.7359 C   0  0  0  0  0  0  0  0  0  0  0  0
   69.9779   49.2585   51.1017 O   0  0  0  0  0  0  0  0  0  0  0  0
   70.2088   48.5779   52.1679 C   0  0  0  0  0  0  0  0  0  0  0  0
   71.3253   48.9725   52.8488 O   0  0  0  0  0  0  0  0  0  0  0  0
 21 22  2  0
 22 23  1  0
 22 15  1  0
 15 16  2  0
 15 20  1  0
 16 17  1  0
 17 18  2  0
 18 19  1  0
 19 20  2  0
 20 14  1  0
 14  1  1  0
  1  2  2  0
  1  3  2  0
  1  4  1  0
  4  5  2  0
  4 13  1  0
  5  6  1  0
  6  7  2  0
  7  8  1  0
  8  9  1  0
  8 13  2  0
  9 10  2  0
 10 11  1  0
 11 12  2  0
 12 13  1  0
M  END
>  <minimizedAffinity>  (1109) 
-9.07623

$$$$
data/reference_output_2/data/smiles/187601.pdb
     RDKit          3D

 23 24  0  0  0  0  0  0  0  0999 V2000
   68.5860   42.4172   56.9953 C   0  0  0  0  0  0  0  0  0  0  0  0
   67.4557   42.2754   56.4479 O   0  0  0  0  0  0  0  0  0  0  0  0
   69.1519   43.6994   56.9203 N   0  0  0  0  0  0  0  0  0  0  0  0
   70.3068   38.9501   58.8606 C   0  0  0  0  0  0  0  0  0  0  0  0
   71.0323   40.1233   58.7101 C   0  0  0  0  0  0  0  0  0  0  0  0
   70.4808   41.2519   58.1129 C   0  0  0  0  0  0  0  0  0  0  0  0
   69.1839   41.2551   57.6401 C   0  0  0  0  0  0  0  0  0  0  0  0
   68.4713   40.0853   57.7927 C   0  0  0  0  0  0  0  0  0  0  0  0
   69.0168   38.9583   58.3876 C   0  0  0  0  0  0  0  0  0  0  0  0
   69.8513   36.9597   60.2493 C   0  0  0  0  0  0  0  0  0  0  0  0
   70.9217   37.7507   59.5237 C   0  0  0  0  0  0  0  0  0  0  0  0
   71.9821   38.2093   60.5333 C   0  0  0  0  0  0  0  0  0  0  0  0
   71.5988   36.9047   58.5024 C   0  0  0  0  0  0  0  0  0  0  0  0
   68.6075   44.8239   56.3121 N   0  0  0  0  0  0  0  0  0  0  0  0
   69.1018   46.1508   56.4278 C   0  0  0  0  0  0  0  0  0  0  0  0
   70.1225   46.3053   57.1404 O   0  0  0  0  0  0  0  0  0  0  0  0
   68.4371   47.2738   55.7348 C   0  0  0  0  0  0  0  0  0  0  0  0
   68.5764   47.2045   54.2454 C   0  0  0  0  0  0  0  0  0  0  0  0
   67.8523   46.2440   53.5247 C   0  0  0  0  0  0  0  0  0  0  0  0
   67.9252   46.1223   52.1553 C   0  0  0  0  0  0  0  0  0  0  0  0
   68.7569   46.9967   51.4530 C   0  0  0  0  0  0  0  0  0  0  0  0
   69.4772   47.9489   52.1343 C   0  0  0  0  0  0  0  0  0  0  0  0
   69.3819   48.0439   53.5118 C   0  0  0  0  0  0  0  0  0  0  0  0
 10 11  1  0
 11 12  1  0
 11 13  1  0
 11  4  1  0
  4  5  2  0
  4  9  1  0
  5  6  1  0
  6  7  2  0
  7  1  1  0
  7  8  1  0
  1  2  2  0
  1  3  1  0
  3 14  1  0
 14 15  1  0
 15 16  2  0
 15 17  1  0
 17 18  1  0
 18 19  2  0
 18 23  1  0
 19 20  1  0
 20 21  2  0
 21 22  1  0
 22 23  2  0
  8  9  2  0
M  END
>  <minimizedAffinity>  (1110) 
-8.53030

$$$$
data/reference_output_2/data/smiles/187883.pdb
     RDKit          3D

 29 32  0  0  0  0  0  0  0  0999 V2000
   71.5090   47.3048   58.8056 C   0  0  0  0  0  0  0  0  0  0  0  0
   71.6782   45.9509   58.7553 C   0  0  0  0  0  0  0  0  0  0  0  0
   70.8549   45.1905   57.9191 C   0  0  0  0  0  0  0  0  0  0  0  0
   69.8886   45.8136   57.1608 C   0  0  0  0  0  0  0  0  0  0  0  0
   69.7070   47.1575   57.1973 C   0  0  0  0  0  0  0  0  0  0  0  0
   70.5361   47.8932   58.0356 C   0  0  0  0  0  0  0  0  0  0  0  0
   72.1599   47.9766   60.9350 O   0  0  0  0  0  0  0  0  0  0  0  0
   72.3306   48.1156   59.6862 C   0  0  0  0  0  0  0  0  0  0  0  0
   73.2922   49.0332   59.2367 N   0  0  0  0  0  0  0  0  0  0  0  0
   73.5965   49.3213   57.8449 C   0  0  0  0  0  0  0  0  0  0  0  0
   75.0620   49.7816   57.8433 C   0  0  0  0  0  0  0  0  0  0  0  0
   75.7652   48.8921   58.7299 N   0  0  0  0  0  0  0  0  0  0  0  0
   75.5532   49.3844   60.0849 C   0  0  0  0  0  0  0  0  0  0  0  0
   74.0876   49.7669   60.2225 C   0  0  0  0  0  0  0  0  0  0  0  0
   77.1813   48.8416   58.5021 C   0  0  0  0  0  0  0  0  0  0  0  0
   77.8401   50.2017   58.4785 C   0  0  0  0  0  0  0  0  0  0  0  0
   78.9287   50.3131   59.3057 O   0  0  0  0  0  0  0  0  0  0  0  0
   68.6897   47.9332   56.4477 C   0  0  0  0  0  0  0  0  0  0  0  0
   69.1204   48.1039   55.0714 C   0  0  0  0  0  0  0  0  0  0  0  0
   70.0135   49.1057   54.8001 N   0  0  0  0  0  0  0  0  0  0  0  0
   70.4638   49.3501   53.5839 N   0  0  0  0  0  0  0  0  0  0  0  0
   70.0788   48.6340   52.5147 C   0  0  0  0  0  0  0  0  0  0  0  0
   70.5397   48.9056   51.3530 O   0  0  0  0  0  0  0  0  0  0  0  0
   69.1819   47.6104   52.7076 C   0  0  0  0  0  0  0  0  0  0  0  0
   68.7838   46.8707   51.6173 C   0  0  0  0  0  0  0  0  0  0  0  0
   67.8863   45.8504   51.8446 C   0  0  0  0  0  0  0  0  0  0  0  0
   67.4077   45.5819   53.1121 C   0  0  0  0  0  0  0  0  0  0  0  0
   67.8271   46.3430   54.1912 C   0  0  0  0  0  0  0  0  0  0  0  0
   68.7121   47.3574   53.9936 C   0  0  0  0  0  0  0  0  0  0  0  0
  7  8  2  0
  8  1  1  0
  8  9  1  0
  1  2  2  0
  1  6  1  0
  2  3  1  0
  3  4  2  0
  4  5  1  0
  5 18  1  0
  5  6  2  0
 18 19  1  0
 19 20  2  0
 19 29  1  0
 20 21  1  0
 21 22  1  0
 22 23  2  0
 22 24  1  0
 24 25  1  0
 24 29  2  0
 25 26  2  0
 26 27  1  0
 27 28  2  0
 28 29  1  0
  9 10  1  0
  9 14  1  0
 10 11  1  0
 11 12  1  0
 12 15  1  0
 12 13  1  0
 15 16  1  0
 16 17  1  0
 13 14  1  0
M  CHG  1  12   1
M  END
>  <minimizedAffinity>  (1111) 
-8.82590

$$$$
data/reference_output_2/data/smiles/188008.pdb
     RDKit          3D

 23 25  0  0  0  0  0  0  0  0999 V2000
   72.3250   51.0501   54.9178 C   0  0  2  0  0  0  0  0  0  0  0  0
   70.2489   51.0339   53.0672 O   0  0  0  0  0  0  0  0  0  0  0  0
   70.5698   49.8784   53.5089 C   0  0  0  0  0  0  0  0  0  0  0  0
   71.6282   49.8520   54.4544 N   0  0  0  0  0  0  0  0  0  0  0  0
   69.8704   48.6839   53.0500 C   0  0  0  0  0  0  0  0  0  0  0  0
   68.9508   47.9850   53.7967 C   0  0  0  0  0  0  0  0  0  0  0  0
   68.3048   46.8448   53.3055 C   0  0  0  0  0  0  0  0  0  0  0  0
   68.5985   46.4070   52.0328 C   0  0  0  0  0  0  0  0  0  0  0  0
   69.4963   47.0860   51.2959 N   0  0  0  0  0  0  0  0  0  0  0  0
   70.1281   48.2007   51.7752 C   0  0  0  0  0  0  0  0  0  0  0  0
   73.7674   50.9811   54.6310 C   0  0  0  0  0  0  0  0  0  0  0  0
   74.1546   50.2832   53.6602 O   0  0  0  0  0  0  0  0  0  0  0  0
   74.7405   51.6413   55.3681 O   0  0  0  0  0  0  0  0  0  0  0  0
   71.9728   51.3659   56.3321 C   0  0  0  0  0  0  0  0  0  0  0  0
   70.6024   51.8262   56.5555 C   0  0  0  0  0  0  0  0  0  0  0  0
   70.0115   53.0629   56.4747 C   0  0  0  0  0  0  0  0  0  0  0  0
   68.7104   53.0199   56.7656 N   0  0  0  0  0  0  0  0  0  0  0  0
   68.4223   51.7360   57.0467 C   0  0  0  0  0  0  0  0  0  0  0  0
   67.1981   51.1912   57.4052 C   0  0  0  0  0  0  0  0  0  0  0  0
   67.0790   49.8295   57.6613 C   0  0  0  0  0  0  0  0  0  0  0  0
   68.2312   49.0852   57.5383 C   0  0  0  0  0  0  0  0  0  0  0  0
   69.4472   49.6180   57.1837 C   0  0  0  0  0  0  0  0  0  0  0  0
   69.5630   50.9674   56.9281 C   0  0  0  0  0  0  0  0  0  0  0  0
  2  3  2  0
  3  4  1  0
  3  5  1  0
  4  1  1  0
  1 14  1  1
  1 11  1  0
 14 15  1  0
 15 16  2  0
 15 23  1  0
 16 17  1  0
 17 18  1  0
 18 19  1  0
 18 23  2  0
 19 20  2  0
 20 21  1  0
 21 22  2  0
 22 23  1  0
 11 12  2  0
 11 13  1  0
  5  6  2  0
  5 10  1  0
  6  7  1  0
  7  8  2  0
  8  9  1  0
  9 10  2  0
M  END
>  <minimizedAffinity>  (1112) 
-8.55417

$$$$
data/reference_output_2/data/smiles/188113.pdb
     RDKit          3D

 27 29  0  0  0  0  0  0  0  0999 V2000
   70.9070   43.5064   58.9115 S   0  0  0  0  0  0  0  0  0  0  0  0
   70.4147   43.8000   60.3078 O   0  0  0  0  0  0  0  0  0  0  0  0
   72.1791   44.2759   58.7175 O   0  0  0  0  0  0  0  0  0  0  0  0
   71.4733   39.0163   58.4877 C   0  0  0  0  0  0  0  0  0  0  0  0
   72.5198   39.8469   58.9193 C   0  0  0  0  0  0  0  0  0  0  0  0
   72.3643   41.2051   59.0537 C   0  0  0  0  0  0  0  0  0  0  0  0
   71.1473   41.7831   58.7576 C   0  0  0  0  0  0  0  0  0  0  0  0
   70.1286   40.9518   58.3344 C   0  0  0  0  0  0  0  0  0  0  0  0
   70.2614   39.5930   58.1941 C   0  0  0  0  0  0  0  0  0  0  0  0
   73.1440   34.7360   56.6514 C   0  0  0  0  0  0  0  0  0  0  0  0
   72.4453   35.7323   57.5147 C   0  0  0  0  0  0  0  0  0  0  0  0
   71.6999   35.4030   58.6047 C   0  0  0  0  0  0  0  0  0  0  0  0
   71.2237   36.6095   59.1300 C   0  0  0  0  0  0  0  0  0  0  0  0
   70.3734   36.7944   60.3063 C   0  0  0  0  0  0  0  0  0  0  0  0
   71.6822   37.6123   58.3630 N   0  0  0  0  0  0  0  0  0  0  0  0
   72.4144   37.0700   57.3972 N   0  0  0  0  0  0  0  0  0  0  0  0
   69.7195   44.0031   57.7636 N   0  0  0  0  0  0  0  0  0  0  0  0
   69.6684   45.3477   57.2759 C   0  0  0  0  0  0  0  0  0  0  0  0
   70.4960   46.2002   57.6769 O   0  0  0  0  0  0  0  0  0  0  0  0
   68.6914   45.7456   56.3390 N   0  0  0  0  0  0  0  0  0  0  0  0
   68.5376   47.0533   55.7713 C   0  0  0  0  0  0  0  0  0  0  0  0
   68.5511   46.9690   54.2925 C   0  0  0  0  0  0  0  0  0  0  0  0
   67.8014   46.0032   53.6403 C   0  0  0  0  0  0  0  0  0  0  0  0
   67.7588   45.8672   52.2784 C   0  0  0  0  0  0  0  0  0  0  0  0
   68.4914   46.7220   51.4836 C   0  0  0  0  0  0  0  0  0  0  0  0
   69.2625   47.7101   52.0891 C   0  0  0  0  0  0  0  0  0  0  0  0
   69.2750   47.8107   53.4780 C   0  0  0  0  0  0  0  0  0  0  0  0
 10 11  1  0
 11 12  1  0
 11 16  2  0
 12 13  2  0
 13 14  1  0
 13 15  1  0
 15  4  1  0
 15 16  1  0
  4  5  2  0
  4  9  1  0
  5  6  1  0
  6  7  2  0
  7  1  1  0
  7  8  1  0
  1  2  2  0
  1  3  2  0
  1 17  1  0
 17 18  1  0
 18 19  2  0
 18 20  1  0
 20 21  1  0
 21 22  1  0
 22 23  2  0
 22 27  1  0
 23 24  1  0
 24 25  2  0
 25 26  1  0
 26 27  2  0
  8  9  2  0
M  END
>  <minimizedAffinity>  (1113) 
-9.12472

$$$$
data/reference_output_2/data/smiles/188173.pdb
     RDKit          3D

 28 31  0  0  0  0  0  0  0  0999 V2000
   71.5043   47.0487   58.8840 C   0  0  0  0  0  0  0  0  0  0  0  0
   70.6177   47.7726   58.0662 C   0  0  0  0  0  0  0  0  0  0  0  0
   69.7608   47.2174   57.1995 C   0  0  0  0  0  0  0  0  0  0  0  0
   69.7715   45.8069   57.1227 C   0  0  0  0  0  0  0  0  0  0  0  0
   70.6171   45.0622   57.8999 C   0  0  0  0  0  0  0  0  0  0  0  0
   71.4963   45.6859   58.7929 C   0  0  0  0  0  0  0  0  0  0  0  0
   72.3413   44.9535   59.5715 F   0  0  0  0  0  0  0  0  0  0  0  0
   72.0780   47.7690   61.0282 O   0  0  0  0  0  0  0  0  0  0  0  0
   72.4005   47.7434   59.8174 C   0  0  0  0  0  0  0  0  0  0  0  0
   73.5933   48.3681   59.3749 N   0  0  0  0  0  0  0  0  0  0  0  0
   74.4285   49.0390   60.3457 C   0  0  0  0  0  0  0  0  0  0  0  0
   74.7629   50.4024   59.7831 C   0  0  0  0  0  0  0  0  0  0  0  0
   73.8290   50.7233   58.6393 C   0  0  0  0  0  0  0  0  0  0  0  0
   74.0054   52.0534   58.2643 O   0  0  0  0  0  0  0  0  0  0  0  0
   73.9899   49.7774   57.4832 C   0  0  0  0  0  0  0  0  0  0  0  0
   74.0245   48.3675   58.0003 C   0  0  0  0  0  0  0  0  0  0  0  0
   68.7783   47.9244   56.3387 C   0  0  0  0  0  0  0  0  0  0  0  0
   69.3595   48.0949   54.9929 C   0  0  0  0  0  0  0  0  0  0  0  0
   70.2623   49.0992   54.7742 N   0  0  0  0  0  0  0  0  0  0  0  0
   70.7051   49.3325   53.5464 N   0  0  0  0  0  0  0  0  0  0  0  0
   70.2954   48.6100   52.4936 C   0  0  0  0  0  0  0  0  0  0  0  0
   70.7515   48.8827   51.3571 O   0  0  0  0  0  0  0  0  0  0  0  0
   69.3823   47.5807   52.6747 C   0  0  0  0  0  0  0  0  0  0  0  0
   68.9004   47.3085   53.9483 C   0  0  0  0  0  0  0  0  0  0  0  0
   68.0294   46.1701   54.2442 C   0  0  0  0  0  0  0  0  0  0  0  0
   67.6544   45.4100   52.9989 C   0  0  0  0  0  0  0  0  0  0  0  0
   67.5993   46.2551   51.7621 C   0  0  0  0  0  0  0  0  0  0  0  0
   68.9679   46.8361   51.4546 C   0  0  0  0  0  0  0  0  0  0  0  0
  8  9  2  0
  9  1  1  0
  9 10  1  0
  1  2  2  0
  1  6  1  0
  2  3  1  0
  3 17  1  0
  3  4  2  0
 17 18  1  0
 18 19  2  0
 18 24  1  0
 19 20  1  0
 20 21  1  0
 21 22  2  0
 21 23  1  0
 23 24  2  0
 23 28  1  0
 24 25  1  0
 25 26  1  0
 26 27  1  0
 27 28  1  0
  4  5  1  0
  5  6  2  0
  6  7  1  0
 10 11  1  0
 10 16  1  0
 11 12  1  0
 12 13  1  0
 13 14  1  0
 13 15  1  0
 15 16  1  0
M  END
>  <minimizedAffinity>  (1114) 
-9.07903

$$$$
data/reference_output_2/data/smiles/188188.pdb
     RDKit          3D

 25 26  0  0  0  0  0  0  0  0999 V2000
   68.6145   42.5673   57.8862 C   0  0  0  0  0  0  0  0  0  0  0  0
   69.4544   43.5110   58.1788 O   0  0  0  0  0  0  0  0  0  0  0  0
   67.9902   42.6927   56.6268 N   0  0  0  0  0  0  0  0  0  0  0  0
   67.0226   41.7524   56.1015 C   0  0  0  0  0  0  0  0  0  0  0  0
   68.3327   42.0218   60.3094 C   0  0  0  0  0  0  0  0  0  0  0  0
   68.4624   41.5336   58.9042 C   0  0  2  0  0  0  0  0  0  0  0  0
   69.5678   40.5577   58.8371 N   0  0  0  0  0  0  0  0  0  0  0  0
   69.3101   39.1701   58.7475 C   0  0  0  0  0  0  0  0  0  0  0  0
   68.0950   38.8107   58.7049 O   0  0  0  0  0  0  0  0  0  0  0  0
   70.3308   38.1466   58.7055 C   0  0  0  0  0  0  0  0  0  0  0  0
   70.2006   37.0424   59.5195 C   0  0  0  0  0  0  0  0  0  0  0  0
   71.1282   35.9925   59.5733 C   0  0  0  0  0  0  0  0  0  0  0  0
   72.2486   36.0600   58.7615 C   0  0  0  0  0  0  0  0  0  0  0  0
   72.3939   37.1561   57.9434 C   0  0  0  0  0  0  0  0  0  0  0  0
   71.4604   38.1672   57.9186 C   0  0  0  0  0  0  0  0  0  0  0  0
   68.3245   43.7540   55.8074 N   0  0  0  0  0  0  0  0  0  0  0  0
   67.4617   44.2676   55.0114 N   0  0  0  0  0  0  0  0  0  0  0  0
   67.9415   45.3810   54.2051 C   0  0  0  0  0  0  0  0  0  0  0  0
   67.8402   45.4344   52.8673 C   0  0  0  0  0  0  0  0  0  0  0  0
   68.3727   46.4850   52.1285 C   0  0  0  0  0  0  0  0  0  0  0  0
   69.0200   47.5131   52.7214 C   0  0  0  0  0  0  0  0  0  0  0  0
   69.1387   47.4865   54.1431 C   0  0  0  0  0  0  0  0  0  0  0  0
   68.6115   46.4422   54.8669 C   0  0  0  0  0  0  0  0  0  0  0  0
   69.5954   48.5839   52.0197 C   0  0  0  0  0  0  0  0  0  0  0  0
   70.0832   49.5065   51.3953 N   0  0  0  0  0  0  0  0  0  0  0  0
  6  5  1  1
  6  7  1  0
  6  1  1  0
  7  8  1  0
  8  9  2  0
  8 10  1  0
 10 11  2  0
 10 15  1  0
 11 12  1  0
 12 13  2  0
 13 14  1  0
 14 15  2  0
  1  2  2  0
  1  3  1  0
  3  4  1  0
  3 16  1  0
 16 17  2  0
 17 18  1  0
 18 19  2  0
 18 23  1  0
 19 20  1  0
 20 21  2  0
 21 24  1  0
 21 22  1  0
 24 25  3  0
 22 23  2  0
M  END
>  <minimizedAffinity>  (1115) 
-8.56844

$$$$
data/reference_output_2/data/smiles/188213.pdb
     RDKit          3D

 27 30  0  0  0  0  0  0  0  0999 V2000
   70.1692   46.5106   57.9532 C   0  0  0  0  0  0  0  0  0  0  0  0
   70.6936   46.1897   59.0559 O   0  0  0  0  0  0  0  0  0  0  0  0
   69.6293   45.4582   57.1735 N   0  0  0  0  0  0  0  0  0  0  0  0
   70.3357   48.8479   58.6066 N   0  0  0  0  0  0  0  0  0  0  0  0
   70.1431   47.9360   57.5369 C   0  0  2  0  0  0  0  0  0  0  0  0
   68.9697   48.2829   56.6962 C   0  0  0  0  0  0  0  0  0  0  0  0
   69.2674   48.3814   55.2324 C   0  0  0  0  0  0  0  0  0  0  0  0
   70.0750   49.3159   54.6279 C   0  0  0  0  0  0  0  0  0  0  0  0
   70.1139   49.0523   53.3266 N   0  0  0  0  0  0  0  0  0  0  0  0
   69.3436   47.9574   53.0542 C   0  0  0  0  0  0  0  0  0  0  0  0
   69.0793   47.3232   51.8543 C   0  0  0  0  0  0  0  0  0  0  0  0
   68.2381   46.2108   51.8528 C   0  0  0  0  0  0  0  0  0  0  0  0
   67.7117   45.8014   53.0587 C   0  0  0  0  0  0  0  0  0  0  0  0
   67.9680   46.4236   54.2575 C   0  0  0  0  0  0  0  0  0  0  0  0
   68.8028   47.5265   54.2565 C   0  0  0  0  0  0  0  0  0  0  0  0
   69.6705   44.1280   57.5925 N   0  0  0  0  0  0  0  0  0  0  0  0
   69.1762   43.1267   56.9946 C   0  0  0  0  0  0  0  0  0  0  0  0
   69.2586   41.7440   57.4959 C   0  0  0  0  0  0  0  0  0  0  0  0
   68.1672   40.9023   57.4466 C   0  0  0  0  0  0  0  0  0  0  0  0
   68.2536   39.6095   57.9168 C   0  0  0  0  0  0  0  0  0  0  0  0
   69.4401   39.1166   58.4536 C   0  0  0  0  0  0  0  0  0  0  0  0
   69.5044   37.8351   58.9139 N   0  0  0  0  0  0  0  0  0  0  0  0
   70.6498   37.3592   59.4310 C   0  0  0  0  0  0  0  0  0  0  0  0
   71.7291   38.2137   59.4721 C   0  0  0  0  0  0  0  0  0  0  0  0
   71.6581   39.4763   59.0167 N   0  0  0  0  0  0  0  0  0  0  0  0
   70.5108   39.9752   58.4900 C   0  0  0  0  0  0  0  0  0  0  0  0
   70.4261   41.2605   58.0229 C   0  0  0  0  0  0  0  0  0  0  0  0
  5  4  1  1
  5  6  1  0
  5  1  1  0
  6  7  1  0
  7  8  2  0
  7 15  1  0
  8  9  1  0
  9 10  1  0
 10 11  1  0
 10 15  2  0
 11 12  2  0
 12 13  1  0
 13 14  2  0
 14 15  1  0
  1  2  2  0
  1  3  1  0
  3 16  1  0
 16 17  2  0
 17 18  1  0
 18 19  2  0
 18 27  1  0
 19 20  1  0
 20 21  2  0
 21 22  1  0
 21 26  1  0
 22 23  2  0
 23 24  1  0
 24 25  2  0
 25 26  1  0
 26 27  2  0
M  CHG  1   4   1
M  END
>  <minimizedAffinity>  (1116) 
-8.69400

$$$$
data/reference_output_2/data/smiles/188288.pdb
     RDKit          3D

 24 26  0  0  0  0  0  0  0  0999 V2000
   70.8306   46.3809   59.2770 O   0  0  0  0  0  0  0  0  0  0  0  0
   70.6992   45.6645   58.2751 C   0  0  0  0  0  0  0  0  0  0  0  0
   69.9713   46.3462   57.1971 N   0  0  0  0  0  0  0  0  0  0  0  0
   71.1448   44.3407   58.0655 C   0  0  0  0  0  0  0  0  0  0  0  0
   72.4515   44.2232   58.0332 O   0  0  0  0  0  0  0  0  0  0  0  0
   70.4606   43.0956   57.8809 C   0  0  0  0  0  0  0  0  0  0  0  0
   70.8749   41.8751   58.4774 C   0  0  0  0  0  0  0  0  0  0  0  0
   70.0489   40.8939   58.1253 N   0  0  0  0  0  0  0  0  0  0  0  0
   69.0897   41.3418   57.3272 C   0  0  0  0  0  0  0  0  0  0  0  0
   68.0326   40.6916   56.7276 C   0  0  0  0  0  0  0  0  0  0  0  0
   67.1626   41.4129   55.9274 C   0  0  0  0  0  0  0  0  0  0  0  0
   67.4006   42.7735   55.7641 C   0  0  0  0  0  0  0  0  0  0  0  0
   68.4617   43.3914   56.3741 C   0  0  0  0  0  0  0  0  0  0  0  0
   69.3434   42.7119   57.1735 C   0  0  0  0  0  0  0  0  0  0  0  0
   69.5041   47.6844   57.3686 C   0  0  0  0  0  0  0  0  0  0  0  0
   68.3811   47.9676   56.4100 C   0  0  0  0  0  0  0  0  0  0  0  0
   68.7062   47.7098   54.9916 C   0  0  0  0  0  0  0  0  0  0  0  0
   68.1692   46.6287   54.3285 C   0  0  0  0  0  0  0  0  0  0  0  0
   68.4425   46.3861   53.0117 C   0  0  0  0  0  0  0  0  0  0  0  0
   69.2738   47.2197   52.2933 C   0  0  0  0  0  0  0  0  0  0  0  0
   69.5798   47.0133   50.9596 O   0  0  0  0  0  0  0  0  0  0  0  0
   69.8159   48.3091   52.9568 C   0  0  0  0  0  0  0  0  0  0  0  0
   70.6511   49.1661   52.2715 O   0  0  0  0  0  0  0  0  0  0  0  0
   69.5371   48.5538   54.2915 C   0  0  0  0  0  0  0  0  0  0  0  0
  1  2  2  0
  2  3  1  0
  2  4  1  0
  3 15  1  0
 15 16  1  0
 16 17  1  0
 17 18  2  0
 17 24  1  0
 18 19  1  0
 19 20  2  0
 20 21  1  0
 20 22  1  0
 22 23  1  0
 22 24  2  0
  4  5  2  0
  4  6  1  0
  6  7  2  0
  6 14  1  0
  7  8  1  0
  8  9  1  0
  9 10  1  0
  9 14  2  0
 10 11  2  0
 11 12  1  0
 12 13  2  0
 13 14  1  0
M  END
>  <minimizedAffinity>  (1117) 
-8.58915

$$$$
data/reference_output_2/data/smiles/188530.pdb
     RDKit          3D

 30 34  0  0  0  0  0  0  0  0999 V2000
   69.1538   41.2902   57.7286 C   0  0  0  0  0  0  0  0  0  0  0  0
   68.0612   41.0223   56.8990 C   0  0  0  0  0  0  0  0  0  0  0  0
   67.5107   41.9754   56.0584 C   0  0  0  0  0  0  0  0  0  0  0  0
   68.0278   43.2387   56.0088 C   0  0  0  0  0  0  0  0  0  0  0  0
   67.7374   44.3717   55.3200 N   0  0  0  0  0  0  0  0  0  0  0  0
   68.5816   45.3469   55.6634 C   0  0  0  0  0  0  0  0  0  0  0  0
   69.4167   44.8069   56.5869 N   0  0  0  0  0  0  0  0  0  0  0  0
   69.1018   43.5107   56.8216 C   0  0  0  0  0  0  0  0  0  0  0  0
   69.6646   42.5590   57.6734 C   0  0  0  0  0  0  0  0  0  0  0  0
   68.6632   46.7387   55.1921 C   0  0  0  0  0  0  0  0  0  0  0  0
   68.5895   47.7867   56.1067 C   0  0  0  0  0  0  0  0  0  0  0  0
   68.4358   47.4545   57.4885 N   0  0  0  0  0  0  0  0  0  0  0  0
   68.6600   49.1119   55.7340 C   0  0  0  0  0  0  0  0  0  0  0  0
   68.5869   50.1446   56.6450 C   0  0  0  0  0  0  0  0  0  0  0  0
   68.6582   51.4645   56.2556 C   0  0  0  0  0  0  0  0  0  0  0  0
   68.5881   52.4921   57.1349 F   0  0  0  0  0  0  0  0  0  0  0  0
   68.8058   51.7497   54.9166 C   0  0  0  0  0  0  0  0  0  0  0  0
   68.8816   53.0369   54.4812 F   0  0  0  0  0  0  0  0  0  0  0  0
   68.8798   50.7181   53.9945 C   0  0  0  0  0  0  0  0  0  0  0  0
   68.8083   49.3828   54.3904 C   0  0  0  0  0  0  0  0  0  0  0  0
   68.8787   48.3819   53.5020 N   0  0  0  0  0  0  0  0  0  0  0  0
   68.8103   47.0665   53.8737 C   0  0  0  0  0  0  0  0  0  0  0  0
   68.8816   46.1598   53.0047 O   0  0  0  0  0  0  0  0  0  0  0  0
   72.0536   37.3007   58.0908 C   0  0  0  0  0  0  0  0  0  0  0  0
   71.3355   38.1007   59.0820 N   0  0  0  0  0  0  0  0  0  0  0  0
   71.8180   39.4156   59.0511 C   0  0  0  0  0  0  0  0  0  0  0  0
   70.8335   40.5052   59.4097 C   0  0  0  0  0  0  0  0  0  0  0  0
   69.6728   40.2842   58.5874 N   0  0  0  0  0  0  0  0  0  0  0  0
   69.0597   38.9894   58.7119 C   0  0  0  0  0  0  0  0  0  0  0  0
   69.9548   37.8684   59.0824 C   0  0  0  0  0  0  0  0  0  0  0  0
 24 25  1  0
 25 26  1  0
 25 30  1  0
 26 27  1  0
 27 28  1  0
 28  1  1  0
 28 29  1  0
  1  2  2  0
  1  9  1  0
  2  3  1  0
  3  4  2  0
  4  5  1  0
  4  8  1  0
  5  6  1  0
  6 10  1  0
  6  7  2  0
 10 11  2  0
 10 22  1  0
 11 12  1  0
 11 13  1  0
 13 14  2  0
 13 20  1  0
 14 15  1  0
 15 16  1  0
 15 17  2  0
 17 18  1  0
 17 19  1  0
 19 20  2  0
 20 21  1  0
 21 22  1  0
 22 23  2  0
  7  8  1  0
  8  9  2  0
 29 30  1  0
M  CHG  2   7   1  25   1
M  END
>  <minimizedAffinity>  (1118) 
-8.91368

$$$$
data/reference_output_2/data/smiles/188660.pdb
     RDKit          3D

 27 29  0  0  0  0  0  0  0  0999 V2000
   69.0782   42.9826   57.1903 C   0  0  0  0  0  0  0  0  0  0  0  0
   67.9290   42.5401   57.4286 O   0  0  0  0  0  0  0  0  0  0  0  0
   69.1981   44.2009   56.5249 N   0  0  0  0  0  0  0  0  0  0  0  0
   73.9279   42.6249   58.1583 C   0  0  0  0  0  0  0  0  0  0  0  0
   72.5859   42.0078   58.1052 C   0  0  0  0  0  0  0  0  0  0  0  0
   71.4954   42.7322   57.6946 C   0  0  0  0  0  0  0  0  0  0  0  0
   70.2089   42.1748   57.6341 C   0  0  0  0  0  0  0  0  0  0  0  0
   70.1195   40.8551   58.0147 C   0  0  0  0  0  0  0  0  0  0  0  0
   71.1902   40.0847   58.4357 C   0  0  0  0  0  0  0  0  0  0  0  0
   72.4494   40.6937   58.4768 C   0  0  0  0  0  0  0  0  0  0  0  0
   71.0549   38.7316   58.8187 N   0  0  0  0  0  0  0  0  0  0  0  0
   71.7380   37.6910   58.3307 C   0  0  0  0  0  0  0  0  0  0  0  0
   71.3109   36.5199   58.9711 C   0  0  0  0  0  0  0  0  0  0  0  0
   71.8252   35.1677   58.7078 C   0  0  0  0  0  0  0  0  0  0  0  0
   70.3396   36.9499   59.8592 C   0  0  0  0  0  0  0  0  0  0  0  0
   70.2199   38.2860   59.7318 N   0  0  0  0  0  0  0  0  0  0  0  0
   68.2230   45.0321   56.0579 N   0  0  0  0  0  0  0  0  0  0  0  0
   68.5292   46.6610   55.8651 S   0  0  0  0  0  0  0  0  0  0  0  0
   67.4373   47.5509   56.4526 O   0  0  0  0  0  0  0  0  0  0  0  0
   69.7586   46.9940   56.7096 O   0  0  0  0  0  0  0  0  0  0  0  0
   68.9259   47.1690   54.2458 C   0  0  0  0  0  0  0  0  0  0  0  0
   69.6380   48.3430   54.0742 C   0  0  0  0  0  0  0  0  0  0  0  0
   69.9451   48.7790   52.8037 C   0  0  0  0  0  0  0  0  0  0  0  0
   69.5664   48.0874   51.6862 C   0  0  0  0  0  0  0  0  0  0  0  0
   68.8503   46.9106   51.8860 C   0  0  0  0  0  0  0  0  0  0  0  0
   68.5349   46.4583   53.1415 C   0  0  0  0  0  0  0  0  0  0  0  0
   67.8424   45.3193   53.3001 F   0  0  0  0  0  0  0  0  0  0  0  0
  4  5  1  0
  5  6  2  0
  5 10  1  0
  6  7  1  0
  7  1  1  0
  7  8  2  0
  1  2  2  0
  1  3  1  0
  3 17  1  0
 17 18  1  0
 18 19  2  0
 18 20  2  0
 18 21  1  0
 21 22  2  0
 21 26  1  0
 22 23  1  0
 23 24  2  0
 24 25  1  0
 25 26  2  0
 26 27  1  0
  8  9  1  0
  9 11  1  0
  9 10  2  0
 11 12  1  0
 11 16  1  0
 12 13  2  0
 13 14  1  0
 13 15  1  0
 15 16  2  0
M  END
>  <minimizedAffinity>  (1119) 
-9.51749

$$$$
data/reference_output_2/data/smiles/188729.pdb
     RDKit          3D

 27 29  0  0  0  0  0  0  0  0999 V2000
   70.1849   47.5397   56.9403 N   0  0  0  0  0  0  0  0  0  0  0  0
   69.7293   48.7661   56.4771 C   0  0  0  0  0  0  0  0  0  0  0  0
   69.6870   49.7106   57.3131 O   0  0  0  0  0  0  0  0  0  0  0  0
   69.3056   49.0772   55.1519 N   0  0  0  0  0  0  0  0  0  0  0  0
   69.2593   50.4811   54.7120 C   0  0  0  0  0  0  0  0  0  0  0  0
   70.2230   50.5293   53.5522 C   0  0  0  0  0  0  0  0  0  0  0  0
   71.1283   51.3547   53.5352 O   0  0  0  0  0  0  0  0  0  0  0  0
   69.9546   49.5451   52.5401 N   0  0  0  0  0  0  0  0  0  0  0  0
   69.3320   48.3088   52.8828 C   0  0  0  0  0  0  0  0  0  0  0  0
   69.0295   47.3462   51.9507 C   0  0  0  0  0  0  0  0  0  0  0  0
   68.4016   46.1765   52.3621 C   0  0  0  0  0  0  0  0  0  0  0  0
   68.0672   45.9432   53.6742 C   0  0  0  0  0  0  0  0  0  0  0  0
   68.3718   46.9065   54.6045 C   0  0  0  0  0  0  0  0  0  0  0  0
   69.0047   48.0810   54.1966 C   0  0  0  0  0  0  0  0  0  0  0  0
   70.6183   47.0905   58.1797 C   0  0  0  0  0  0  0  0  0  0  0  0
   71.1557   45.7990   58.5119 C   0  0  0  0  0  0  0  0  0  0  0  0
   69.5456   44.1927   59.4040 O   0  0  0  0  0  0  0  0  0  0  0  0
   70.3805   44.5626   58.5473 C   0  0  0  0  0  0  0  0  0  0  0  0
   70.5213   43.5678   57.5054 N   0  0  0  0  0  0  0  0  0  0  0  0
   69.7917   42.3804   57.5213 C   0  0  0  0  0  0  0  0  0  0  0  0
   68.5612   42.1890   56.9701 C   0  0  0  0  0  0  0  0  0  0  0  0
   67.8714   40.9944   57.0080 C   0  0  0  0  0  0  0  0  0  0  0  0
   68.4327   39.9127   57.6320 C   0  0  0  0  0  0  0  0  0  0  0  0
   67.7518   38.7343   57.6686 F   0  0  0  0  0  0  0  0  0  0  0  0
   69.6842   40.0549   58.2096 C   0  0  0  0  0  0  0  0  0  0  0  0
   70.3631   38.6510   58.9945 Cl  0  0  0  0  0  0  0  0  0  0  0  0
   70.3414   41.2699   58.1487 C   0  0  0  0  0  0  0  0  0  0  0  0
 17 18  2  0
 18 16  1  0
 18 19  1  0
 16 15  1  0
 15  1  1  0
  1  2  1  0
  2  3  2  0
  2  4  1  0
  4  5  1  0
  4 14  1  0
  5  6  1  0
  6  7  2  0
  6  8  1  0
  8  9  1  0
  9 10  2  0
  9 14  1  0
 10 11  1  0
 11 12  2  0
 12 13  1  0
 13 14  2  0
 19 20  1  0
 20 21  2  0
 20 27  1  0
 21 22  1  0
 22 23  2  0
 23 24  1  0
 23 25  1  0
 25 26  1  0
 25 27  2  0
M  END
>  <minimizedAffinity>  (1120) 
-8.72065

$$$$
data/reference_output_2/data/smiles/188761.pdb
     RDKit          3D

 30 34  0  0  0  0  0  0  0  0999 V2000
   67.7758   41.5997   57.0537 C   0  0  0  0  0  0  0  0  0  0  0  0
   66.6631   41.6002   56.1955 C   0  0  0  0  0  0  0  0  0  0  0  0
   66.7139   42.7455   55.4966 N   0  0  0  0  0  0  0  0  0  0  0  0
   67.7690   43.4536   55.8527 N   0  0  0  0  0  0  0  0  0  0  0  0
   68.4566   42.7730   56.8217 C   0  0  0  0  0  0  0  0  0  0  0  0
   68.1530   44.7207   55.3318 C   0  0  0  0  0  0  0  0  0  0  0  0
   68.1609   44.9944   54.0172 N   0  0  0  0  0  0  0  0  0  0  0  0
   68.5169   46.1784   53.4791 C   0  0  0  0  0  0  0  0  0  0  0  0
   68.8987   47.1749   54.3457 C   0  0  0  0  0  0  0  0  0  0  0  0
   68.8966   46.9118   55.6956 C   0  0  0  0  0  0  0  0  0  0  0  0
   69.2321   47.7679   56.5679 O   0  0  0  0  0  0  0  0  0  0  0  0
   68.5270   45.6996   56.1749 N   0  0  0  0  0  0  0  0  0  0  0  0
   69.2549   48.3966   53.6089 C   0  0  0  0  0  0  0  0  0  0  0  0
   69.3128   47.9813   52.1602 C   0  0  0  0  0  0  0  0  0  0  0  0
   68.5943   46.6785   52.0809 C   0  0  0  0  0  0  0  0  0  0  0  0
   68.8906   39.6463   57.6211 O   0  0  0  0  0  0  0  0  0  0  0  0
   68.1342   40.5611   57.9888 C   0  0  0  0  0  0  0  0  0  0  0  0
   67.6402   40.5770   59.2993 N   0  0  0  0  0  0  0  0  0  0  0  0
   66.7678   41.6485   59.6934 C   0  0  0  0  0  0  0  0  0  0  0  0
   65.8967   41.3456   60.8619 C   0  0  0  0  0  0  0  0  0  0  0  0
   66.4929   40.4200   61.8647 C   0  0  0  0  0  0  0  0  0  0  0  0
   66.9399   39.1689   61.1916 C   0  0  0  0  0  0  0  0  0  0  0  0
   68.0335   39.5044   60.2054 C   0  0  0  0  0  0  0  0  0  0  0  0
   67.5833   41.0647   62.6861 C   0  0  0  0  0  0  0  0  0  0  0  0
   68.3926   40.0737   63.1775 F   0  0  0  0  0  0  0  0  0  0  0  0
   68.2579   42.0476   62.0142 F   0  0  0  0  0  0  0  0  0  0  0  0
   66.9762   41.6643   63.7906 F   0  0  0  0  0  0  0  0  0  0  0  0
   69.6767   43.2908   57.4400 C   0  0  0  0  0  0  0  0  0  0  0  0
   70.8596   42.3862   57.6742 C   0  0  0  0  0  0  0  0  0  0  0  0
   70.0935   43.0757   58.8192 C   0  0  0  0  0  0  0  0  0  0  0  0
 16 17  2  0
 17  1  1  0
 17 18  1  0
  1  2  1  0
  1  5  2  0
  2  3  2  0
  3  4  1  0
  4  6  1  0
  4  5  1  0
  6  7  2  0
  6 12  1  0
  7  8  1  0
  8  9  2  0
  8 15  1  0
  9 10  1  0
  9 13  1  0
 10 11  2  0
 10 12  1  0
 13 14  1  0
 14 15  1  0
  5 28  1  0
 28 29  1  0
 28 30  1  0
 29 30  1  0
 18 19  1  0
 18 23  1  0
 19 20  1  0
 20 21  1  0
 21 24  1  0
 21 22  1  0
 24 25  1  0
 24 26  1  0
 24 27  1  0
 22 23  1  0
M  END
>  <minimizedAffinity>  (1121) 
-8.63850

$$$$
data/reference_output_2/data/smiles/189008.pdb
     RDKit          3D

 28 30  0  0  0  0  0  0  0  0999 V2000
   74.5211   50.9356   55.8507 N   0  0  0  0  0  0  0  0  0  0  0  0
   73.7142   50.8123   54.6970 C   0  0  0  0  0  0  0  0  0  0  0  0
   74.1491   50.2788   53.6424 O   0  0  0  0  0  0  0  0  0  0  0  0
   76.1396   50.3588   55.8625 S   0  0  0  0  0  0  0  0  0  0  0  0
   76.3221   49.4315   54.6739 O   0  0  0  0  0  0  0  0  0  0  0  0
   77.0400   51.5359   55.6148 O   0  0  0  0  0  0  0  0  0  0  0  0
   77.6399   47.6296   61.0595 C   0  0  0  0  0  0  0  0  0  0  0  0
   77.2640   48.2983   59.7797 C   0  0  0  0  0  0  0  0  0  0  0  0
   76.0164   48.1157   59.2216 C   0  0  0  0  0  0  0  0  0  0  0  0
   75.6593   48.7360   58.0299 C   0  0  0  0  0  0  0  0  0  0  0  0
   74.3154   48.5338   57.4379 C   0  0  0  0  0  0  0  0  0  0  0  0
   76.5348   49.5604   57.3535 C   0  0  0  0  0  0  0  0  0  0  0  0
   77.7848   49.7442   57.9102 C   0  0  0  0  0  0  0  0  0  0  0  0
   78.7461   50.6229   57.2077 C   0  0  0  0  0  0  0  0  0  0  0  0
   78.1344   49.1232   59.0983 C   0  0  0  0  0  0  0  0  0  0  0  0
   72.3151   51.3216   54.7169 C   0  0  0  0  0  0  0  0  0  0  0  0
   71.5062   50.7335   53.7596 O   0  0  0  0  0  0  0  0  0  0  0  0
   70.6147   49.6970   53.9193 C   0  0  0  0  0  0  0  0  0  0  0  0
   70.1513   49.2200   55.1257 C   0  0  0  0  0  0  0  0  0  0  0  0
   69.2575   48.1725   55.1871 C   0  0  0  0  0  0  0  0  0  0  0  0
   68.7704   47.5353   54.0397 C   0  0  0  0  0  0  0  0  0  0  0  0
   69.2301   48.0071   52.8333 C   0  0  0  0  0  0  0  0  0  0  0  0
   70.1213   49.0518   52.7778 C   0  0  0  0  0  0  0  0  0  0  0  0
   68.7556   47.3570   51.6398 N   0  0  0  0  0  0  0  0  0  0  0  0
   67.8479   46.2692   51.7427 C   0  0  0  0  0  0  0  0  0  0  0  0
   67.0141   45.9665   50.8668 O   0  0  0  0  0  0  0  0  0  0  0  0
   67.9351   45.4725   52.9877 C   0  0  0  0  0  0  0  0  0  0  0  0
   67.7994   46.4245   54.1490 C   0  0  0  0  0  0  0  0  0  0  0  0
  7  8  1  0
  8  9  2  0
  8 15  1  0
  9 10  1  0
 10 11  1  0
 10 12  2  0
 12  4  1  0
 12 13  1  0
  4  5  2  0
  4  6  2  0
  4  1  1  0
  1  2  1  0
  2  3  2  0
  2 16  1  0
 16 17  1  0
 17 18  1  0
 18 19  2  0
 18 23  1  0
 19 20  1  0
 20 21  2  0
 21 22  1  0
 21 28  1  0
 22 23  2  0
 22 24  1  0
 24 25  1  0
 25 26  2  0
 25 27  1  0
 27 28  1  0
 13 14  1  0
 13 15  2  0
M  END
>  <minimizedAffinity>  (1122) 
-8.70557

$$$$
data/reference_output_2/data/smiles/189014.pdb
     RDKit          3D

 28 31  0  0  0  0  0  0  0  0999 V2000
   69.5227   44.3927   56.7251 C   0  0  0  0  0  0  0  0  0  0  0  0
   68.5566   44.8429   55.8291 C   0  0  0  0  0  0  0  0  0  0  0  0
   67.7068   43.8338   55.5646 N   0  0  0  0  0  0  0  0  0  0  0  0
   68.0746   42.7250   56.2538 C   0  0  0  0  0  0  0  0  0  0  0  0
   67.5346   41.4588   56.3181 C   0  0  0  0  0  0  0  0  0  0  0  0
   68.1185   40.5023   57.1156 C   0  0  0  0  0  0  0  0  0  0  0  0
   69.2440   40.8082   57.8501 C   0  0  0  0  0  0  0  0  0  0  0  0
   69.7560   42.0812   57.7615 C   0  0  0  0  0  0  0  0  0  0  0  0
   69.2039   43.0787   56.9734 C   0  0  0  0  0  0  0  0  0  0  0  0
   70.6858   45.4050   58.6762 C   0  0  0  0  0  0  0  0  0  0  0  0
   69.7114   45.0298   59.3760 O   0  0  0  0  0  0  0  0  0  0  0  0
   70.6189   45.0887   57.2923 N   0  0  0  0  0  0  0  0  0  0  0  0
   72.9568   45.9207   58.7287 O   0  0  0  0  0  0  0  0  0  0  0  0
   71.8287   46.1194   59.2158 C   0  0  0  0  0  0  0  0  0  0  0  0
   71.7402   47.0497   60.2857 N   0  0  0  0  0  0  0  0  0  0  0  0
   72.8600   47.7492   60.8132 C   0  0  0  0  0  0  0  0  0  0  0  0
   73.3316   48.9000   60.2425 C   0  0  0  0  0  0  0  0  0  0  0  0
   74.4206   49.5486   60.7873 C   0  0  0  0  0  0  0  0  0  0  0  0
   75.0511   49.0837   61.8820 N   0  0  0  0  0  0  0  0  0  0  0  0
   74.5784   47.9520   62.4342 C   0  0  0  0  0  0  0  0  0  0  0  0
   73.5016   47.2529   61.9505 C   0  0  0  0  0  0  0  0  0  0  0  0
   68.5332   46.1895   55.3092 C   0  0  0  0  0  0  0  0  0  0  0  0
   68.5025   47.1627   56.0862 O   0  0  0  0  0  0  0  0  0  0  0  0
   68.5444   46.4165   53.8787 C   0  0  0  0  0  0  0  0  0  0  0  0
   67.6871   45.8133   52.9457 C   0  0  0  0  0  0  0  0  0  0  0  0
   68.0097   46.2846   51.6949 C   0  0  0  0  0  0  0  0  0  0  0  0
   69.0431   47.1522   51.8918 C   0  0  0  0  0  0  0  0  0  0  0  0
   69.3064   47.1895   53.1507 O   0  0  0  0  0  0  0  0  0  0  0  0
 13 14  2  0
 14 15  1  0
 14 10  1  0
 15 16  1  0
 16 17  2  0
 16 21  1  0
 17 18  1  0
 18 19  2  0
 19 20  1  0
 20 21  2  0
 10 11  2  0
 10 12  1  0
 12  1  1  0
  1  2  2  0
  1  9  1  0
  2 22  1  0
  2  3  1  0
 22 23  2  0
 22 24  1  0
 24 25  2  0
 24 28  1  0
 25 26  1  0
 26 27  2  0
 27 28  1  0
  3  4  1  0
  4  5  2  0
  4  9  1  0
  5  6  1  0
  6  7  2  0
  7  8  1  0
  8  9  2  0
M  END
>  <minimizedAffinity>  (1123) 
-8.78295

$$$$
data/reference_output_2/data/smiles/189129.pdb
     RDKit          3D

 25 27  0  0  0  0  0  0  0  0999 V2000
   68.4814   43.8028   56.2134 C   0  0  0  0  0  0  0  0  0  0  0  0
   69.4251   44.5622   56.7859 N   0  0  0  0  0  0  0  0  0  0  0  0
   70.1942   44.1370   57.7671 C   0  0  0  0  0  0  0  0  0  0  0  0
   70.0369   42.8525   58.2414 C   0  0  0  0  0  0  0  0  0  0  0  0
   69.0691   42.0147   57.6815 C   0  0  0  0  0  0  0  0  0  0  0  0
   68.2817   42.5119   56.6482 C   0  0  0  0  0  0  0  0  0  0  0  0
   67.2509   41.6953   56.0140 C   0  0  0  0  0  0  0  0  0  0  0  0
   67.5949   40.4260   55.4503 N   0  0  0  0  0  0  0  0  0  0  0  0
   66.0591   42.0525   55.9395 O   0  0  0  0  0  0  0  0  0  0  0  0
   67.6551   44.3107   55.1636 N   0  0  0  0  0  0  0  0  0  0  0  0
   69.5300   48.8872   54.6098 C   0  0  0  0  0  0  0  0  0  0  0  0
   68.9558   47.6336   54.0685 C   0  0  0  0  0  0  0  0  0  0  0  0
   68.7706   47.5113   52.7117 C   0  0  0  0  0  0  0  0  0  0  0  0
   68.2377   46.3683   52.1367 C   0  0  0  0  0  0  0  0  0  0  0  0
   67.8888   45.3331   52.9833 C   0  0  0  0  0  0  0  0  0  0  0  0
   68.0519   45.4041   54.3439 C   0  0  0  0  0  0  0  0  0  0  0  0
   68.5903   46.5690   54.8678 C   0  0  0  0  0  0  0  0  0  0  0  0
   71.1953   44.9707   58.3772 N   0  0  0  0  0  0  0  0  0  0  0  0
   72.1728   44.4027   59.2638 C   0  0  2  0  0  0  0  0  0  0  0  0
   72.3891   45.2404   60.5280 C   0  0  0  0  0  0  0  0  0  0  0  0
   72.6119   46.6480   60.0567 C   0  0  0  0  0  0  0  0  0  0  0  0
   74.0240   46.6620   59.4856 C   0  0  0  0  0  0  0  0  0  0  0  0
   74.1249   45.7007   58.3509 C   0  0  0  0  0  0  0  0  0  0  0  0
   73.5289   44.3610   58.5961 C   0  0  2  0  0  0  0  0  0  0  0  0
   73.5422   43.6065   57.3712 N   0  0  0  0  0  0  0  0  0  0  0  0
 11 12  1  0
 12 13  2  0
 12 17  1  0
 13 14  1  0
 14 15  2  0
 15 16  1  0
 16 10  1  0
 16 17  2  0
 10  1  1  0
  1  2  2  0
  1  6  1  0
  2  3  1  0
  3 18  1  0
  3  4  2  0
 19 18  1  6
 19 20  1  0
 19 24  1  0
 20 21  1  0
 21 22  1  0
 22 23  1  0
 23 24  1  0
 24 25  1  6
  4  5  1  0
  5  6  2  0
  6  7  1  0
  7  8  1  0
  7  9  2  0
M  CHG  1  25   1
M  END
>  <minimizedAffinity>  (1124) 
-8.54749

$$$$
data/reference_output_2/data/smiles/189144.pdb
     RDKit          3D

 24 25  0  0  0  0  0  0  0  0999 V2000
   70.1677   47.4767   57.8287 C   0  0  0  0  0  0  0  0  0  0  0  0
   67.8750   46.8195   56.4870 O   0  0  0  0  0  0  0  0  0  0  0  0
   68.8527   47.0551   55.7401 C   0  0  0  0  0  0  0  0  0  0  0  0
   70.0761   47.4045   56.4174 N   0  0  0  0  0  0  0  0  0  0  0  0
   68.7249   46.9728   54.2965 C   0  0  0  0  0  0  0  0  0  0  0  0
   67.9352   46.0518   53.6481 C   0  0  0  0  0  0  0  0  0  0  0  0
   67.8366   46.0034   52.2662 C   0  0  0  0  0  0  0  0  0  0  0  0
   67.0556   45.0915   51.6422 F   0  0  0  0  0  0  0  0  0  0  0  0
   68.5399   46.8921   51.4811 C   0  0  0  0  0  0  0  0  0  0  0  0
   69.3358   47.8211   52.1124 C   0  0  0  0  0  0  0  0  0  0  0  0
   70.0251   48.6920   51.3373 F   0  0  0  0  0  0  0  0  0  0  0  0
   69.4205   47.8534   53.4950 C   0  0  0  0  0  0  0  0  0  0  0  0
   70.4596   46.2002   58.5166 C   0  0  0  0  0  0  0  0  0  0  0  0
   69.8328   44.9975   58.1648 N   0  0  0  0  0  0  0  0  0  0  0  0
   70.3090   43.7340   57.7988 C   0  0  0  0  0  0  0  0  0  0  0  0
   71.5227   43.5339   57.7311 O   0  0  0  0  0  0  0  0  0  0  0  0
   69.4470   42.5764   57.4753 C   0  0  0  0  0  0  0  0  0  0  0  0
   68.4059   42.6587   56.5966 C   0  0  0  0  0  0  0  0  0  0  0  0
   67.6141   41.5295   56.3194 C   0  0  0  0  0  0  0  0  0  0  0  0
   66.5915   41.6540   55.4423 F   0  0  0  0  0  0  0  0  0  0  0  0
   67.8656   40.3326   56.9193 C   0  0  0  0  0  0  0  0  0  0  0  0
   68.9112   40.2340   57.8072 C   0  0  0  0  0  0  0  0  0  0  0  0
   69.1602   39.0488   58.4005 F   0  0  0  0  0  0  0  0  0  0  0  0
   69.6785   41.3552   58.0656 C   0  0  0  0  0  0  0  0  0  0  0  0
  2  3  2  0
  3  4  1  0
  3  5  1  0
  4  1  1  0
  1 13  1  0
 13 14  1  0
 14 15  1  0
 15 16  2  0
 15 17  1  0
 17 18  2  0
 17 24  1  0
 18 19  1  0
 19 20  1  0
 19 21  2  0
 21 22  1  0
 22 23  1  0
 22 24  2  0
  5  6  2  0
  5 12  1  0
  6  7  1  0
  7  8  1  0
  7  9  2  0
  9 10  1  0
 10 11  1  0
 10 12  2  0
M  END
>  <minimizedAffinity>  (1125) 
-8.68812

$$$$
data/reference_output_2/data/smiles/189168.pdb
     RDKit          3D

 25 27  0  0  0  0  0  0  0  0999 V2000
   69.1692   46.8648   57.2873 N   0  0  0  0  0  0  0  0  0  0  0  0
   68.6751   47.5500   56.3337 C   0  0  0  0  0  0  0  0  0  0  0  0
   68.6803   47.0623   54.9714 C   0  0  0  0  0  0  0  0  0  0  0  0
   67.9758   45.9749   54.5050 C   0  0  0  0  0  0  0  0  0  0  0  0
   67.8742   45.6821   53.1559 C   0  0  0  0  0  0  0  0  0  0  0  0
   68.4860   46.4778   52.2144 C   0  0  0  0  0  0  0  0  0  0  0  0
   69.2008   47.5755   52.6386 C   0  0  0  0  0  0  0  0  0  0  0  0
   69.2851   47.8467   53.9734 C   0  0  0  0  0  0  0  0  0  0  0  0
   68.1176   48.8867   56.6564 C   0  0  0  0  0  0  0  0  0  0  0  0
   67.0507   48.9588   57.5589 C   0  0  0  0  0  0  0  0  0  0  0  0
   66.5956   50.1651   57.9628 C   0  0  0  0  0  0  0  0  0  0  0  0
   67.1408   51.3490   57.5212 C   0  0  0  0  0  0  0  0  0  0  0  0
   68.1577   51.2920   56.6640 N   0  0  0  0  0  0  0  0  0  0  0  0
   68.6325   50.0694   56.2457 C   0  0  0  0  0  0  0  0  0  0  0  0
   70.6932   45.8483   59.3096 O   0  0  0  0  0  0  0  0  0  0  0  0
   70.5575   45.0986   58.3106 C   0  0  0  0  0  0  0  0  0  0  0  0
   69.7496   45.6452   57.2469 N   0  0  0  0  0  0  0  0  0  0  0  0
   71.1752   43.7805   58.2471 C   0  0  0  0  0  0  0  0  0  0  0  0
   72.5163   43.5502   58.0867 C   0  0  0  0  0  0  0  0  0  0  0  0
   73.0541   42.2629   58.0327 C   0  0  0  0  0  0  0  0  0  0  0  0
   74.4172   42.0616   57.8698 O   0  0  0  0  0  0  0  0  0  0  0  0
   72.2324   41.1629   58.1415 C   0  0  0  0  0  0  0  0  0  0  0  0
   70.8754   41.3845   58.3028 C   0  0  0  0  0  0  0  0  0  0  0  0
   70.3497   42.6588   58.3561 C   0  0  0  0  0  0  0  0  0  0  0  0
   68.9770   42.8656   58.5204 O   0  0  0  0  0  0  0  0  0  0  0  0
 15 16  2  0
 16 17  1  0
 16 18  1  0
 17  1  1  0
  1  2  2  0
  2  3  1  0
  2  9  1  0
  3  4  2  0
  3  8  1  0
  4  5  1  0
  5  6  2  0
  6  7  1  0
  7  8  2  0
  9 10  2  0
  9 14  1  0
 10 11  1  0
 11 12  2  0
 12 13  1  0
 13 14  2  0
 18 19  2  0
 18 24  1  0
 19 20  1  0
 20 21  1  0
 20 22  2  0
 22 23  1  0
 23 24  2  0
 24 25  1  0
M  END
>  <minimizedAffinity>  (1126) 
-8.87320

$$$$
data/reference_output_2/data/smiles/189271.pdb
     RDKit          3D

 25 26  0  0  0  0  0  0  0  0999 V2000
   68.8103   51.8719   55.2092 C   0  0  0  0  0  0  0  0  0  0  0  0
   70.3271   52.0010   55.2577 C   0  0  0  0  0  0  0  0  0  0  0  0
   70.8408   53.2777   55.6965 C   0  0  0  0  0  0  0  0  0  0  0  0
   71.0599   50.9330   54.8947 C   0  0  0  0  0  0  0  0  0  0  0  0
   70.2385   49.8151   54.5110 N   0  0  0  0  0  0  0  0  0  0  0  0
   70.3634   48.9508   53.4516 C   0  0  0  0  0  0  0  0  0  0  0  0
   71.2969   49.0624   52.6365 O   0  0  0  0  0  0  0  0  0  0  0  0
   69.3933   47.8386   53.2227 C   0  0  0  0  0  0  0  0  0  0  0  0
   68.7145   47.2048   54.2099 C   0  0  0  0  0  0  0  0  0  0  0  0
   67.8148   46.1635   53.9314 C   0  0  0  0  0  0  0  0  0  0  0  0
   67.5915   45.7517   52.6398 C   0  0  0  0  0  0  0  0  0  0  0  0
   68.2908   46.4097   51.6567 C   0  0  0  0  0  0  0  0  0  0  0  0
   69.1695   47.4219   51.9090 C   0  0  0  0  0  0  0  0  0  0  0  0
   72.4920   50.8590   54.8718 C   0  0  0  0  0  0  0  0  0  0  0  0
   73.1912   51.5570   54.0282 O   0  0  0  0  0  0  0  0  0  0  0  0
   73.3692   50.0900   55.6778 N   0  0  0  0  0  0  0  0  0  0  0  0
   74.7934   50.1569   55.4949 N   0  0  0  0  0  0  0  0  0  0  0  0
   75.5960   49.7458   56.3929 C   0  0  0  0  0  0  0  0  0  0  0  0
   77.0505   49.7880   56.2640 C   0  0  0  0  0  0  0  0  0  0  0  0
   77.7138   49.0953   55.2745 C   0  0  0  0  0  0  0  0  0  0  0  0
   79.0894   49.1485   55.1721 C   0  0  0  0  0  0  0  0  0  0  0  0
   79.8603   49.8894   56.0435 C   0  0  0  0  0  0  0  0  0  0  0  0
   81.2473   49.9408   55.9370 O   0  0  0  0  0  0  0  0  0  0  0  0
   79.2016   50.5847   57.0364 C   0  0  0  0  0  0  0  0  0  0  0  0
   77.8140   50.5302   57.1396 C   0  0  0  0  0  0  0  0  0  0  0  0
  1  2  1  0
  2  3  1  0
  2  4  2  0
  4  5  1  0
  4 14  1  0
  5  6  1  0
  6  7  2  0
  6  8  1  0
  8  9  2  0
  8 13  1  0
  9 10  1  0
 10 11  2  0
 11 12  1  0
 12 13  2  0
 14 15  2  0
 14 16  1  0
 16 17  1  0
 17 18  2  0
 18 19  1  0
 19 20  2  0
 19 25  1  0
 20 21  1  0
 21 22  2  0
 22 23  1  0
 22 24  1  0
 24 25  2  0
M  END
>  <minimizedAffinity>  (1127) 
-8.70696

$$$$
data/reference_output_2/data/smiles/189418.pdb
     RDKit          3D

 23 25  0  0  0  0  0  0  0  0999 V2000
   68.8179   45.0370   56.4851 N   0  0  0  0  0  0  0  0  0  0  0  0
   67.0571   43.2909   55.3911 O   0  0  0  0  0  0  0  0  0  0  0  0
   67.6412   42.4601   56.1404 C   0  0  0  0  0  0  0  0  0  0  0  0
   67.3448   41.0722   56.3041 N   0  0  0  0  0  0  0  0  0  0  0  0
   68.2376   40.4753   57.2439 C   0  0  0  0  0  0  0  0  0  0  0  0
   68.3461   39.1762   57.7319 C   0  0  0  0  0  0  0  0  0  0  0  0
   69.3107   38.8502   58.6567 C   0  0  0  0  0  0  0  0  0  0  0  0
   70.1577   39.8540   59.0781 C   0  0  0  0  0  0  0  0  0  0  0  0
   70.0450   41.1457   58.5882 C   0  0  0  0  0  0  0  0  0  0  0  0
   69.0774   41.4854   57.6581 C   0  0  0  0  0  0  0  0  0  0  0  0
   68.7579   42.7462   57.0086 C   0  0  0  0  0  0  0  0  0  0  0  0
   69.2983   43.9311   57.1639 N   0  0  0  0  0  0  0  0  0  0  0  0
   69.1694   46.3727   56.5912 C   0  0  0  0  0  0  0  0  0  0  0  0
   70.2349   46.8385   57.7554 S   0  0  0  0  0  0  0  0  0  0  0  0
   68.6701   47.3828   55.7488 N   0  0  0  0  0  0  0  0  0  0  0  0
   68.6464   47.1750   54.3516 C   0  0  0  0  0  0  0  0  0  0  0  0
   67.8879   46.2184   53.7541 C   0  0  0  0  0  0  0  0  0  0  0  0
   67.9150   46.0342   52.3911 C   0  0  0  0  0  0  0  0  0  0  0  0
   67.1470   45.0782   51.8052 F   0  0  0  0  0  0  0  0  0  0  0  0
   68.7219   46.8323   51.6147 C   0  0  0  0  0  0  0  0  0  0  0  0
   69.4927   47.8000   52.1946 C   0  0  0  0  0  0  0  0  0  0  0  0
   70.2889   48.5746   51.4081 F   0  0  0  0  0  0  0  0  0  0  0  0
   69.4731   47.9929   53.5736 C   0  0  0  0  0  0  0  0  0  0  0  0
  2  3  2  0
  3  4  1  0
  3 11  1  0
  4  5  1  0
  5  6  2  0
  5 10  1  0
  6  7  1  0
  7  8  2  0
  8  9  1  0
  9 10  2  0
 10 11  1  0
 11 12  2  0
 12  1  1  0
  1 13  1  0
 13 14  2  0
 13 15  1  0
 15 16  1  0
 16 17  2  0
 16 23  1  0
 17 18  1  0
 18 19  1  0
 18 20  2  0
 20 21  1  0
 21 22  1  0
 21 23  2  0
M  END
>  <minimizedAffinity>  (1128) 
-9.01193

$$$$
data/reference_output_2/data/smiles/189559.pdb
     RDKit          3D

 25 27  0  0  0  0  0  0  0  0999 V2000
   71.2596   47.2032   58.9375 S   0  0  0  0  0  0  0  0  0  0  0  0
   71.4092   47.3744   60.4341 O   0  0  0  0  0  0  0  0  0  0  0  0
   72.4551   46.3999   58.4560 O   0  0  0  0  0  0  0  0  0  0  0  0
   71.2349   48.7698   58.1932 C   0  0  0  0  0  0  0  0  0  0  0  0
   72.3894   49.3216   57.6786 C   0  0  0  0  0  0  0  0  0  0  0  0
   72.3697   50.5696   57.0905 C   0  0  0  0  0  0  0  0  0  0  0  0
   71.1924   51.2538   57.0224 C   0  0  0  0  0  0  0  0  0  0  0  0
   71.1539   52.5186   56.4297 C   0  0  0  0  0  0  0  0  0  0  0  0
   69.9923   53.2555   56.3335 C   0  0  0  0  0  0  0  0  0  0  0  0
   68.8337   52.7024   56.8491 C   0  0  0  0  0  0  0  0  0  0  0  0
   68.8315   51.4577   57.4405 C   0  0  0  0  0  0  0  0  0  0  0  0
   70.0009   50.7362   57.5274 C   0  0  0  0  0  0  0  0  0  0  0  0
   70.0653   49.4789   58.1113 C   0  0  0  0  0  0  0  0  0  0  0  0
   69.7870   46.3895   58.5571 N   0  0  0  0  0  0  0  0  0  0  0  0
   68.6500   46.8004   56.3973 C   0  0  0  0  0  0  0  0  0  0  0  0
   67.7370   47.3914   57.0254 O   0  0  0  0  0  0  0  0  0  0  0  0
   69.7216   46.2725   57.1524 N   0  0  0  0  0  0  0  0  0  0  0  0
   69.1006   47.5310   52.7498 C   0  0  0  0  0  0  0  0  0  0  0  0
   68.4324   46.4942   52.1456 C   0  0  0  0  0  0  0  0  0  0  0  0
   67.8212   45.5349   52.9236 C   0  0  0  0  0  0  0  0  0  0  0  0
   67.9051   45.6552   54.3041 C   0  0  0  0  0  0  0  0  0  0  0  0
   68.5676   46.6837   54.9317 C   0  0  0  0  0  0  0  0  0  0  0  0
   69.1740   47.6353   54.1243 C   0  0  0  0  0  0  0  0  0  0  0  0
   70.2182   49.3130   51.2173 N   0  0  0  0  0  0  0  0  0  0  0  0
   69.7256   48.5124   51.9120 C   0  0  0  0  0  0  0  0  0  0  0  0
 24 25  3  0
 25 18  1  0
 18 19  2  0
 18 23  1  0
 19 20  1  0
 20 21  2  0
 21 22  1  0
 22 15  1  0
 22 23  2  0
 15 16  2  0
 15 17  1  0
 17 14  1  0
 14  1  1  0
  1  2  2  0
  1  3  2  0
  1  4  1  0
  4  5  2  0
  4 13  1  0
  5  6  1  0
  6  7  2  0
  7  8  1  0
  7 12  1  0
  8  9  2  0
  9 10  1  0
 10 11  2  0
 11 12  1  0
 12 13  2  0
M  END
>  <minimizedAffinity>  (1129) 
-8.51153

$$$$
data/reference_output_2/data/smiles/189976.pdb
     RDKit          3D

 27 30  0  0  0  0  0  0  0  0999 V2000
   70.2608   43.9841   57.3690 C   0  0  0  0  0  0  0  0  0  0  0  0
   70.9075   44.8732   58.1856 C   0  0  0  0  0  0  0  0  0  0  0  0
   70.6053   46.2407   58.1309 C   0  0  0  0  0  0  0  0  0  0  0  0
   69.6431   46.6200   57.2276 C   0  0  0  0  0  0  0  0  0  0  0  0
   68.9915   45.7314   56.4056 C   0  0  0  0  0  0  0  0  0  0  0  0
   69.3116   44.4005   56.4856 C   0  0  0  0  0  0  0  0  0  0  0  0
   69.9382   41.6986   58.2874 C   0  0  0  0  0  0  0  0  0  0  0  0
   68.9946   42.1490   59.0273 O   0  0  0  0  0  0  0  0  0  0  0  0
   70.5903   42.5928   57.4471 N   0  0  0  0  0  0  0  0  0  0  0  0
   72.6929   37.4721   58.6630 C   0  0  0  0  0  0  0  0  0  0  0  0
   71.5195   38.4167   58.5509 C   0  0  0  0  0  0  0  0  0  0  0  0
   71.5604   39.7835   58.4768 C   0  0  0  0  0  0  0  0  0  0  0  0
   70.2527   40.2963   58.3827 C   0  0  0  0  0  0  0  0  0  0  0  0
   69.4748   39.2039   58.4056 N   0  0  0  0  0  0  0  0  0  0  0  0
   68.0382   39.1440   58.3367 C   0  0  0  0  0  0  0  0  0  0  0  0
   70.2241   38.0945   58.5051 N   0  0  0  0  0  0  0  0  0  0  0  0
   68.0476   46.2496   55.5466 O   0  0  0  0  0  0  0  0  0  0  0  0
   68.1408   46.3966   54.1977 C   0  0  0  0  0  0  0  0  0  0  0  0
   67.5077   45.4561   53.3946 C   0  0  0  0  0  0  0  0  0  0  0  0
   67.5330   45.5020   52.0273 C   0  0  0  0  0  0  0  0  0  0  0  0
   68.1991   46.5002   51.3914 C   0  0  0  0  0  0  0  0  0  0  0  0
   68.8461   47.4627   52.1450 C   0  0  0  0  0  0  0  0  0  0  0  0
   69.5675   48.5423   51.8323 N   0  0  0  0  0  0  0  0  0  0  0  0
   69.9665   49.1318   52.9734 C   0  0  0  0  0  0  0  0  0  0  0  0
   70.6658   50.1764   52.9954 O   0  0  0  0  0  0  0  0  0  0  0  0
   69.5118   48.4454   54.0368 N   0  0  0  0  0  0  0  0  0  0  0  0
   68.8127   47.4043   53.5390 C   0  0  0  0  0  0  0  0  0  0  0  0
 10 11  1  0
 11 12  1  0
 11 16  2  0
 12 13  2  0
 13  7  1  0
 13 14  1  0
  7  8  2  0
  7  9  1  0
  9  1  1  0
  1  2  2  0
  1  6  1  0
  2  3  1  0
  3  4  2  0
  4  5  1  0
  5 17  1  0
  5  6  2  0
 17 18  1  0
 18 19  2  0
 18 27  1  0
 19 20  1  0
 20 21  2  0
 21 22  1  0
 22 23  1  0
 22 27  2  0
 23 24  1  0
 24 25  2  0
 24 26  1  0
 26 27  1  0
 14 15  1  0
 14 16  1  0
M  CHG  1  23   1
M  END
>  <minimizedAffinity>  (1130) 
-8.66802

$$$$
data/reference_output_2/data/smiles/190058.pdb
     RDKit          3D

 25 27  0  0  0  0  0  0  0  0999 V2000
   69.5471   42.8848   57.9880 C   0  0  0  0  0  0  0  0  0  0  0  0
   69.0573   43.9185   57.0388 C   0  0  0  0  0  0  0  0  0  0  0  0
   68.1575   43.7455   56.0255 N   0  0  0  0  0  0  0  0  0  0  0  0
   67.9811   44.8786   55.4133 O   0  0  0  0  0  0  0  0  0  0  0  0
   68.7160   45.8256   55.9576 C   0  0  0  0  0  0  0  0  0  0  0  0
   69.3755   45.2207   56.9594 N   0  0  0  0  0  0  0  0  0  0  0  0
   68.7855   47.2697   55.5308 C   0  0  0  0  0  0  0  0  0  0  0  0
   68.9672   47.3703   54.0704 C   0  0  0  0  0  0  0  0  0  0  0  0
   68.2855   46.4956   53.2507 C   0  0  0  0  0  0  0  0  0  0  0  0
   68.4037   46.5277   51.8707 C   0  0  0  0  0  0  0  0  0  0  0  0
   69.2306   47.4674   51.2996 C   0  0  0  0  0  0  0  0  0  0  0  0
   69.9358   48.3673   52.0915 C   0  0  0  0  0  0  0  0  0  0  0  0
   69.7867   48.2985   53.4614 C   0  0  0  0  0  0  0  0  0  0  0  0
   67.6179   41.7104   59.1342 C   0  0  0  0  0  0  0  0  0  0  0  0
   67.5521   40.9596   58.1276 O   0  0  0  0  0  0  0  0  0  0  0  0
   68.6274   42.7075   59.0940 N   0  0  0  0  0  0  0  0  0  0  0  0
   69.4685   41.7638   64.0676 N   0  0  0  0  0  0  0  0  0  0  0  0
   68.7831   42.3731   63.0012 C   0  0  0  0  0  0  0  0  0  0  0  0
   69.2762   43.4223   62.5103 O   0  0  0  0  0  0  0  0  0  0  0  0
   67.5735   41.8264   62.4945 N   0  0  0  0  0  0  0  0  0  0  0  0
   67.0393   40.6315   63.0790 C   0  0  0  0  0  0  0  0  0  0  0  0
   66.1172   39.9891   62.0423 C   0  0  0  0  0  0  0  0  0  0  0  0
   66.8542   40.0632   60.7174 C   0  0  0  0  0  0  0  0  0  0  0  0
   66.6837   41.5111   60.2330 C   0  0  1  0  0  0  0  0  0  0  0  0
   66.8564   42.4505   61.3862 C   0  0  0  0  0  0  0  0  0  0  0  0
 17 18  1  0
 18 19  2  0
 18 20  1  0
 20 21  1  0
 20 25  1  0
 21 22  1  0
 22 23  1  0
 23 24  1  0
 24 14  1  6
 24 25  1  0
 14 15  2  0
 14 16  1  0
 16  1  1  0
  1  2  1  0
  2  3  2  0
  2  6  1  0
  3  4  1  0
  4  5  1  0
  5  7  1  0
  5  6  2  0
  7  8  1  0
  8  9  2  0
  8 13  1  0
  9 10  1  0
 10 11  2  0
 11 12  1  0
 12 13  2  0
M  END
>  <minimizedAffinity>  (1131) 
-8.64110

$$$$
data/reference_output_2/data/smiles/190130.pdb
     RDKit          3D

 29 32  0  0  0  0  0  0  0  0999 V2000
   69.5854   40.6672   58.4402 N   0  0  0  0  0  0  0  0  0  0  0  0
   70.1044   41.8213   59.1741 C   0  0  0  0  0  0  0  0  0  0  0  0
   70.4146   42.9754   58.2553 C   0  0  0  0  0  0  0  0  0  0  0  0
   69.3088   43.2147   57.3017 C   0  0  0  0  0  0  0  0  0  0  0  0
   69.0038   44.3977   56.6359 C   0  0  0  0  0  0  0  0  0  0  0  0
   67.9114   44.0927   55.8899 N   0  0  0  0  0  0  0  0  0  0  0  0
   67.5688   42.8220   56.0792 N   0  0  0  0  0  0  0  0  0  0  0  0
   68.4069   42.2441   56.9462 C   0  0  0  0  0  0  0  0  0  0  0  0
   68.5393   40.9191   57.5293 C   0  0  0  0  0  0  0  0  0  0  0  0
   67.7410   39.9827   57.2416 O   0  0  0  0  0  0  0  0  0  0  0  0
   71.1896   36.7620   58.9722 C   0  0  0  0  0  0  0  0  0  0  0  0
   69.9990   37.1393   59.5569 C   0  0  0  0  0  0  0  0  0  0  0  0
   69.4654   38.4009   59.3947 C   0  0  0  0  0  0  0  0  0  0  0  0
   70.1040   39.3558   58.6317 C   0  0  0  0  0  0  0  0  0  0  0  0
   71.2942   38.9798   58.0467 C   0  0  0  0  0  0  0  0  0  0  0  0
   71.8295   37.7165   58.2086 C   0  0  0  0  0  0  0  0  0  0  0  0
   71.8469   34.9884   60.4714 C   0  0  0  0  0  0  0  0  0  0  0  0
   71.7083   35.4820   59.1512 O   0  0  0  0  0  0  0  0  0  0  0  0
   69.6715   45.6441   56.7081 N   0  0  0  0  0  0  0  0  0  0  0  0
   68.9681   47.0708   56.0481 S   0  0  0  0  0  0  0  0  0  0  0  0
   67.5565   47.1747   56.6040 O   0  0  0  0  0  0  0  0  0  0  0  0
   69.7279   48.2994   56.4628 O   0  0  0  0  0  0  0  0  0  0  0  0
   68.8083   46.9914   54.3143 C   0  0  0  0  0  0  0  0  0  0  0  0
   69.4926   47.8716   53.4728 C   0  0  0  0  0  0  0  0  0  0  0  0
   69.3532   47.7952   52.0853 C   0  0  0  0  0  0  0  0  0  0  0  0
   68.5383   46.8486   51.5131 C   0  0  0  0  0  0  0  0  0  0  0  0
   67.8523   45.9659   52.3461 C   0  0  0  0  0  0  0  0  0  0  0  0
   67.0657   45.0556   51.7623 F   0  0  0  0  0  0  0  0  0  0  0  0
   67.9981   46.0526   53.7154 C   0  0  0  0  0  0  0  0  0  0  0  0
 17 18  1  0
 18 11  1  0
 11 12  2  0
 11 16  1  0
 12 13  1  0
 13 14  2  0
 14  1  1  0
 14 15  1  0
  1  2  1  0
  1  9  1  0
  2  3  1  0
  3  4  1  0
  4  5  1  0
  4  8  2  0
  5 19  1  0
  5  6  2  0
 19 20  1  0
 20 21  2  0
 20 22  2  0
 20 23  1  0
 23 24  2  0
 23 29  1  0
 24 25  1  0
 25 26  2  0
 26 27  1  0
 27 28  1  0
 27 29  2  0
  6  7  1  0
  7  8  1  0
  8  9  1  0
  9 10  2  0
 15 16  2  0
M  END
>  <minimizedAffinity>  (1132) 
-9.57387

$$$$
data/reference_output_2/data/smiles/190156.pdb
     RDKit          3D

 23 25  0  0  0  0  0  0  0  0999 V2000
   70.1982   51.2438   56.1300 C   0  0  0  0  0  0  0  0  0  0  0  0
   71.0366   50.4600   55.2394 N   0  0  0  0  0  0  0  0  0  0  0  0
   70.4271   49.5192   54.3534 C   0  0  0  0  0  0  0  0  0  0  0  0
   69.5812   48.5681   54.7908 N   0  0  0  0  0  0  0  0  0  0  0  0
   69.0034   47.6764   53.9570 C   0  0  0  0  0  0  0  0  0  0  0  0
   68.1346   46.6972   54.3886 C   0  0  0  0  0  0  0  0  0  0  0  0
   67.5531   45.7923   53.5192 C   0  0  0  0  0  0  0  0  0  0  0  0
   67.8329   45.8475   52.1595 C   0  0  0  0  0  0  0  0  0  0  0  0
   68.7037   46.8312   51.7292 C   0  0  0  0  0  0  0  0  0  0  0  0
   69.2796   47.7290   52.6061 C   0  0  0  0  0  0  0  0  0  0  0  0
   70.1544   48.7217   52.2000 C   0  0  0  0  0  0  0  0  0  0  0  0
   70.4095   48.7746   50.9690 O   0  0  0  0  0  0  0  0  0  0  0  0
   70.6813   49.5584   53.0680 O   0  0  0  0  0  0  0  0  0  0  0  0
   72.7318   50.7156   55.3072 S   0  0  0  0  0  0  0  0  0  0  0  0
   73.3706   49.8091   56.3112 O   0  0  0  0  0  0  0  0  0  0  0  0
   73.3396   50.3706   53.9567 O   0  0  0  0  0  0  0  0  0  0  0  0
   73.0775   52.4061   55.6370 C   0  0  0  0  0  0  0  0  0  0  0  0
   73.1622   53.2756   54.5633 C   0  0  0  0  0  0  0  0  0  0  0  0
   73.4339   54.6113   54.8105 C   0  0  0  0  0  0  0  0  0  0  0  0
   73.6187   55.0625   56.1176 C   0  0  0  0  0  0  0  0  0  0  0  0
   73.5340   54.1941   57.1729 C   0  0  0  0  0  0  0  0  0  0  0  0
   73.7686   54.7726   58.8236 Cl  0  0  0  0  0  0  0  0  0  0  0  0
   73.2594   52.8524   56.9190 C   0  0  0  0  0  0  0  0  0  0  0  0
  1  2  1  0
  2  3  1  0
  2 14  1  0
  3  4  2  0
  3 13  1  0
  4  5  1  0
  5  6  2  0
  5 10  1  0
  6  7  1  0
  7  8  2  0
  8  9  1  0
  9 10  2  0
 10 11  1  0
 11 12  2  0
 11 13  1  0
 14 15  2  0
 14 16  2  0
 14 17  1  0
 17 18  2  0
 17 23  1  0
 18 19  1  0
 19 20  2  0
 20 21  1  0
 21 22  1  0
 21 23  2  0
M  END
>  <minimizedAffinity>  (1133) 
-8.52581

$$$$
data/reference_output_2/data/smiles/190274.pdb
     RDKit          3D

 23 25  0  0  0  0  0  0  0  0999 V2000
   68.4183   44.1046   56.4265 N   0  0  0  0  0  0  0  0  0  0  0  0
   67.9315   42.9595   56.1029 C   0  0  0  0  0  0  0  0  0  0  0  0
   68.2200   41.7388   56.8556 C   0  0  0  0  0  0  0  0  0  0  0  0
   68.8296   41.7564   58.0944 C   0  0  0  0  0  0  0  0  0  0  0  0
   69.0974   40.5931   58.7961 C   0  0  0  0  0  0  0  0  0  0  0  0
   69.7062   40.5966   60.0336 C   0  0  0  0  0  0  0  0  0  0  0  0
   69.9712   39.4340   60.7300 C   0  0  0  0  0  0  0  0  0  0  0  0
   69.6330   38.2032   60.2061 C   0  0  0  0  0  0  0  0  0  0  0  0
   69.0246   38.1996   58.9673 C   0  0  0  0  0  0  0  0  0  0  0  0
   68.7590   39.3614   58.2700 C   0  0  0  0  0  0  0  0  0  0  0  0
   68.1652   39.3572   57.0621 N   0  0  0  0  0  0  0  0  0  0  0  0
   67.9009   40.4879   56.3725 C   0  0  0  0  0  0  0  0  0  0  0  0
   67.3386   40.4665   55.2312 O   0  0  0  0  0  0  0  0  0  0  0  0
   69.7442   46.4888   56.9552 O   0  0  0  0  0  0  0  0  0  0  0  0
   68.8741   46.4742   56.0455 C   0  0  0  0  0  0  0  0  0  0  0  0
   68.1591   45.2868   55.7259 N   0  0  0  0  0  0  0  0  0  0  0  0
   68.6014   47.7117   55.3100 C   0  0  0  0  0  0  0  0  0  0  0  0
   68.9728   47.5890   53.8828 C   0  0  0  0  0  0  0  0  0  0  0  0
   69.9101   48.4598   53.3719 C   0  0  0  0  0  0  0  0  0  0  0  0
   70.3009   48.3936   52.0321 C   0  0  0  0  0  0  0  0  0  0  0  0
   69.7590   47.4693   51.2215 N   0  0  0  0  0  0  0  0  0  0  0  0
   68.8289   46.5918   51.6909 C   0  0  0  0  0  0  0  0  0  0  0  0
   68.4369   46.6561   53.0299 C   0  0  0  0  0  0  0  0  0  0  0  0
 14 15  2  0
 15 17  1  0
 15 16  1  0
 17 18  1  0
 18 19  2  0
 18 23  1  0
 19 20  1  0
 20 21  2  0
 21 22  1  0
 22 23  2  0
 16  1  1  0
  1  2  2  0
  2  3  1  0
  3  4  2  0
  3 12  1  0
  4  5  1  0
  5  6  2  0
  5 10  1  0
  6  7  1  0
  7  8  2  0
  8  9  1  0
  9 10  2  0
 10 11  1  0
 11 12  1  0
 12 13  2  0
M  END
>  <minimizedAffinity>  (1134) 
-9.02157

$$$$
data/reference_output_2/data/smiles/190394.pdb
     RDKit          3D

 29 32  0  0  0  0  0  0  0  0999 V2000
   70.4012   40.3910   58.8120 C   0  0  0  0  0  0  0  0  0  0  0  0
   69.1526   40.3921   58.6035 O   0  0  0  0  0  0  0  0  0  0  0  0
   71.1717   41.4628   58.3159 N   0  0  0  0  0  0  0  0  0  0  0  0
   72.5964   41.5915   58.4716 C   0  0  0  0  0  0  0  0  0  0  0  0
   73.1610   42.7357   57.6788 C   0  0  0  0  0  0  0  0  0  0  0  0
   72.4525   44.0454   57.8704 C   0  0  0  0  0  0  0  0  0  0  0  0
   71.0479   43.8210   58.2826 C   0  0  2  0  0  0  0  0  0  0  0  0
   70.5291   42.5656   57.5781 C   0  0  0  0  0  0  0  0  0  0  0  0
   70.1674   45.0007   57.9944 C   0  0  0  0  0  0  0  0  0  0  0  0
   69.7386   45.7347   58.9192 O   0  0  0  0  0  0  0  0  0  0  0  0
   69.8080   45.3051   56.6699 N   0  0  0  0  0  0  0  0  0  0  0  0
   68.9748   46.4011   56.2430 C   0  0  0  0  0  0  0  0  0  0  0  0
   68.7173   46.4379   54.7877 C   0  0  0  0  0  0  0  0  0  0  0  0
   67.9654   45.4208   54.2279 C   0  0  0  0  0  0  0  0  0  0  0  0
   67.7138   45.4488   52.8819 C   0  0  0  0  0  0  0  0  0  0  0  0
   68.2099   46.4826   52.1041 C   0  0  0  0  0  0  0  0  0  0  0  0
   68.9600   47.4939   52.6737 C   0  0  0  0  0  0  0  0  0  0  0  0
   69.2181   47.4676   54.0486 C   0  0  0  0  0  0  0  0  0  0  0  0
   71.2450   39.4505   60.7790 O   0  0  0  0  0  0  0  0  0  0  0  0
   71.0221   39.3209   59.5407 C   0  0  0  0  0  0  0  0  0  0  0  0
   71.4248   38.0602   58.9388 C   0  0  0  0  0  0  0  0  0  0  0  0
   72.0711   37.8821   57.7439 C   0  0  0  0  0  0  0  0  0  0  0  0
   72.2745   36.5530   57.5269 N   0  0  0  0  0  0  0  0  0  0  0  0
   71.7705   35.8632   58.5627 C   0  0  0  0  0  0  0  0  0  0  0  0
   71.7060   34.5235   58.8534 C   0  0  0  0  0  0  0  0  0  0  0  0
   71.1167   34.1120   60.0156 C   0  0  0  0  0  0  0  0  0  0  0  0
   70.5759   34.9973   60.9226 C   0  0  0  0  0  0  0  0  0  0  0  0
   70.6486   36.3570   60.6138 C   0  0  0  0  0  0  0  0  0  0  0  0
   71.2394   36.7796   59.4492 C   0  0  0  0  0  0  0  0  0  0  0  0
 19 20  2  0
 20  1  1  0
 20 21  1  0
  1  2  2  0
  1  3  1  0
  3  4  1  0
  3  8  1  0
  4  5  1  0
  5  6  1  0
  6  7  1  0
  7  9  1  6
  7  8  1  0
  9 10  2  0
  9 11  1  0
 11 12  1  0
 12 13  1  0
 13 14  2  0
 13 18  1  0
 14 15  1  0
 15 16  2  0
 16 17  1  0
 17 18  2  0
 21 22  2  0
 21 29  1  0
 22 23  1  0
 23 24  1  0
 24 25  1  0
 24 29  2  0
 25 26  2  0
 26 27  1  0
 27 28  2  0
 28 29  1  0
M  END
>  <minimizedAffinity>  (1135) 
-8.64655

$$$$
data/reference_output_2/data/smiles/190432.pdb
     RDKit          3D

 27 29  0  0  0  0  0  0  0  0999 V2000
   68.7969   42.5174   57.1454 C   0  0  0  0  0  0  0  0  0  0  0  0
   68.9665   43.7483   56.6391 N   0  0  0  0  0  0  0  0  0  0  0  0
   68.2019   44.2730   55.6433 C   0  0  0  0  0  0  0  0  0  0  0  0
   67.2371   43.4775   55.1722 N   0  0  0  0  0  0  0  0  0  0  0  0
   67.0078   42.2224   55.6359 C   0  0  0  0  0  0  0  0  0  0  0  0
   66.0902   41.4954   55.1724 O   0  0  0  0  0  0  0  0  0  0  0  0
   67.7903   41.7234   56.6347 C   0  0  0  0  0  0  0  0  0  0  0  0
   67.6217   40.4443   57.1684 O   0  0  0  0  0  0  0  0  0  0  0  0
   68.4462   45.6216   55.1451 C   0  0  0  0  0  0  0  0  0  0  0  0
   68.1936   45.9259   53.8202 C   0  0  0  0  0  0  0  0  0  0  0  0
   68.4052   47.1816   53.2934 C   0  0  0  0  0  0  0  0  0  0  0  0
   68.8896   48.2002   54.0967 C   0  0  0  0  0  0  0  0  0  0  0  0
   69.0964   49.4178   53.5926 F   0  0  0  0  0  0  0  0  0  0  0  0
   69.1486   47.9195   55.4210 C   0  0  0  0  0  0  0  0  0  0  0  0
   68.9245   46.6313   55.9338 C   0  0  0  0  0  0  0  0  0  0  0  0
   70.5611   40.9391   58.0280 N   0  0  0  0  0  0  0  0  0  0  0  0
   69.6662   42.0128   58.2289 C   0  0  0  0  0  0  0  0  0  0  0  0
   69.5999   42.5544   59.3420 O   0  0  0  0  0  0  0  0  0  0  0  0
   71.4446   40.3819   59.0180 C   0  0  0  0  0  0  0  0  0  0  0  0
   71.4822   34.6510   59.2078 C   0  0  0  0  0  0  0  0  0  0  0  0
   71.4860   36.1250   59.1354 C   0  0  0  0  0  0  0  0  0  0  0  0
   70.8699   36.8467   60.1235 C   0  0  0  0  0  0  0  0  0  0  0  0
   70.8710   38.2275   60.0577 C   0  0  0  0  0  0  0  0  0  0  0  0
   71.4813   38.9014   59.0157 C   0  0  0  0  0  0  0  0  0  0  0  0
   72.0890   38.1426   58.0420 C   0  0  0  0  0  0  0  0  0  0  0  0
   72.0999   36.7551   58.0878 C   0  0  0  0  0  0  0  0  0  0  0  0
   72.7827   36.0328   56.9872 C   0  0  0  0  0  0  0  0  0  0  0  0
 20 21  1  0
 21 22  2  0
 21 26  1  0
 22 23  1  0
 23 24  2  0
 24 19  1  0
 24 25  1  0
 19 16  1  0
 16 17  1  0
 17 18  2  0
 17  1  1  0
  1  2  1  0
  1  7  2  0
  2  3  2  0
  3  9  1  0
  3  4  1  0
  9 10  2  0
  9 15  1  0
 10 11  1  0
 11 12  2  0
 12 13  1  0
 12 14  1  0
 14 15  2  0
  4  5  1  0
  5  6  2  0
  5  7  1  0
  7  8  1  0
 25 26  2  0
 26 27  1  0
M  END
>  <minimizedAffinity>  (1136) 
-8.99955

$$$$
data/reference_output_2/data/smiles/190438.pdb
     RDKit          3D

 27 29  0  0  0  0  0  0  0  0999 V2000
   71.3098   40.0685   59.1368 N   0  0  0  0  0  0  0  0  0  0  0  0
   72.1923   40.8869   58.3283 C   0  0  0  0  0  0  0  0  0  0  0  0
   71.5171   42.2286   58.0029 C   0  0  0  0  0  0  0  0  0  0  0  0
   70.0218   41.9320   57.9633 C   0  0  0  0  0  0  0  0  0  0  0  0
   69.5158   41.7530   59.3729 C   0  0  0  0  0  0  0  0  0  0  0  0
   70.3853   40.7117   60.0441 C   0  0  0  0  0  0  0  0  0  0  0  0
   69.9372   35.7236   60.9309 C   0  0  0  0  0  0  0  0  0  0  0  0
   70.6895   36.5305   59.8970 C   0  0  0  0  0  0  0  0  0  0  0  0
   71.3921   35.8930   58.8956 C   0  0  0  0  0  0  0  0  0  0  0  0
   72.0654   36.6844   57.9768 C   0  0  0  0  0  0  0  0  0  0  0  0
   72.8211   35.9779   56.8957 C   0  0  0  0  0  0  0  0  0  0  0  0
   72.0360   38.0254   58.0573 N   0  0  0  0  0  0  0  0  0  0  0  0
   71.3470   38.6224   59.0396 C   0  0  0  0  0  0  0  0  0  0  0  0
   70.6941   37.8639   59.9293 N   0  0  0  0  0  0  0  0  0  0  0  0
   69.2730   42.9152   57.1905 C   0  0  0  0  0  0  0  0  0  0  0  0
   68.3541   42.5310   56.4299 O   0  0  0  0  0  0  0  0  0  0  0  0
   69.5059   44.3263   57.2306 N   0  0  0  0  0  0  0  0  0  0  0  0
   68.7454   45.2091   56.4596 N   0  0  0  0  0  0  0  0  0  0  0  0
   69.0739   46.5897   56.4280 C   0  0  0  0  0  0  0  0  0  0  0  0
   70.0644   46.9395   57.1224 O   0  0  0  0  0  0  0  0  0  0  0  0
   68.3127   47.5881   55.6328 C   0  0  0  0  0  0  0  0  0  0  0  0
   68.5346   47.3261   54.1897 C   0  0  0  0  0  0  0  0  0  0  0  0
   69.4455   48.1094   53.5150 C   0  0  0  0  0  0  0  0  0  0  0  0
   69.6859   47.8996   52.1697 C   0  0  0  0  0  0  0  0  0  0  0  0
   69.0131   46.8995   51.4887 C   0  0  0  0  0  0  0  0  0  0  0  0
   68.1078   46.1307   52.1862 C   0  0  0  0  0  0  0  0  0  0  0  0
   67.8598   46.3299   53.5263 C   0  0  0  0  0  0  0  0  0  0  0  0
  7  8  1  0
  8  9  2  0
  8 14  1  0
  9 10  1  0
 10 11  1  0
 10 12  2  0
 12 13  1  0
 13  1  1  0
 13 14  2  0
  1  2  1  0
  1  6  1  0
  2  3  1  0
  3  4  1  0
  4 15  1  0
  4  5  1  0
 15 16  2  0
 15 17  1  0
 17 18  1  0
 18 19  1  0
 19 20  2  0
 19 21  1  0
 21 22  1  0
 22 23  2  0
 22 27  1  0
 23 24  1  0
 24 25  2  0
 25 26  1  0
 26 27  2  0
  5  6  1  0
M  END
>  <minimizedAffinity>  (1137) 
-9.09758

$$$$
data/reference_output_2/data/smiles/190455.pdb
     RDKit          3D

 28 31  0  0  0  0  0  0  0  0999 V2000
   68.1540   41.8559   56.5722 C   0  0  0  0  0  0  0  0  0  0  0  0
   68.8039   40.7773   57.2180 C   0  0  0  0  0  0  0  0  0  0  0  0
   69.9286   40.9353   57.9729 C   0  0  0  0  0  0  0  0  0  0  0  0
   70.4048   42.2205   58.0747 C   0  0  0  0  0  0  0  0  0  0  0  0
   69.7899   43.2845   57.4566 C   0  0  0  0  0  0  0  0  0  0  0  0
   68.6296   43.1366   56.6746 C   0  0  0  0  0  0  0  0  0  0  0  0
   70.5636   39.8308   58.6130 N   0  0  0  0  0  0  0  0  0  0  0  0
   71.9489   39.5535   58.7697 C   0  0  0  0  0  0  0  0  0  0  0  0
   72.8440   40.4269   58.5271 O   0  0  0  0  0  0  0  0  0  0  0  0
   72.1373   38.1527   59.2364 C   0  0  2  0  0  0  0  0  0  0  0  0
   72.1966   37.2178   58.0349 C   0  0  0  0  0  0  0  0  0  0  0  0
   72.3240   35.8151   58.5777 C   0  0  0  0  0  0  0  0  0  0  0  0
   71.4586   35.4734   59.5037 C   0  0  0  0  0  0  0  0  0  0  0  0
   70.4330   36.4374   59.9614 C   0  0  0  0  0  0  0  0  0  0  0  0
   70.8639   37.8642   59.9628 C   0  0  2  0  0  0  0  0  0  0  0  0
   69.8921   38.7487   59.2451 C   0  0  0  0  0  0  0  0  0  0  0  0
   68.6481   38.5070   59.2417 O   0  0  0  0  0  0  0  0  0  0  0  0
   66.9648   40.6441   54.9392 O   0  0  0  0  0  0  0  0  0  0  0  0
   66.9855   41.5434   55.7886 C   0  0  0  0  0  0  0  0  0  0  0  0
   65.7882   42.2641   55.9576 O   0  0  0  0  0  0  0  0  0  0  0  0
   68.0142   44.2807   56.1120 N   0  0  0  0  0  0  0  0  0  0  0  0
   68.6928   45.3876   55.5009 C   0  0  0  0  0  0  0  0  0  0  0  0
   68.3311   45.7033   54.1282 C   0  0  0  0  0  0  0  0  0  0  0  0
   68.9389   46.7546   53.4185 C   0  0  0  0  0  0  0  0  0  0  0  0
   68.6208   47.0381   52.1172 C   0  0  0  0  0  0  0  0  0  0  0  0
   67.6706   46.2785   51.4526 C   0  0  0  0  0  0  0  0  0  0  0  0
   67.1035   45.2904   52.1272 N   0  0  0  0  0  0  0  0  0  0  0  0
   67.4100   44.9969   53.4224 C   0  0  0  0  0  0  0  0  0  0  0  0
 18 19  2  0
 19 20  1  0
 19  1  1  0
  1  2  2  0
  1  6  1  0
  2  3  1  0
  3  7  1  0
  3  4  2  0
  7  8  1  0
  7 16  1  0
  8  9  2  0
  8 10  1  0
 10 11  1  6
 10 15  1  0
 11 12  1  0
 12 13  2  0
 13 14  1  0
 15 14  1  6
 15 16  1  0
 16 17  2  0
  4  5  1  0
  5  6  2  0
  6 21  1  0
 21 22  1  0
 22 23  1  0
 23 24  2  0
 23 28  1  0
 24 25  1  0
 25 26  2  0
 26 27  1  0
 27 28  2  0
M  END
>  <minimizedAffinity>  (1138) 
-8.88252

$$$$
data/reference_output_2/data/smiles/190510.pdb
     RDKit          3D

 26 29  0  0  0  0  0  0  0  0999 V2000
   70.2446   47.5404   57.3040 C   0  0  0  0  0  0  0  0  0  0  0  0
   69.4566   46.5684   56.4857 C   0  0  0  0  0  0  0  0  0  0  0  0
   69.3151   45.2866   56.8226 N   0  0  0  0  0  0  0  0  0  0  0  0
   68.6112   44.3829   56.1056 C   0  0  0  0  0  0  0  0  0  0  0  0
   68.0231   44.8569   54.9703 N   0  0  0  0  0  0  0  0  0  0  0  0
   68.1366   46.1425   54.5875 C   0  0  0  0  0  0  0  0  0  0  0  0
   68.8613   47.0454   55.3362 C   0  0  0  0  0  0  0  0  0  0  0  0
   68.9978   48.4431   54.9401 C   0  0  0  0  0  0  0  0  0  0  0  0
   68.7210   49.4835   55.8128 C   0  0  0  0  0  0  0  0  0  0  0  0
   68.8454   50.8123   55.4535 C   0  0  0  0  0  0  0  0  0  0  0  0
   69.2623   51.1097   54.1742 C   0  0  0  0  0  0  0  0  0  0  0  0
   69.5492   50.1093   53.2740 C   0  0  0  0  0  0  0  0  0  0  0  0
   69.9640   50.1513   51.9951 N   0  0  0  0  0  0  0  0  0  0  0  0
   70.0917   48.8950   51.5811 N   0  0  0  0  0  0  0  0  0  0  0  0
   69.7646   48.0436   52.5722 C   0  0  0  0  0  0  0  0  0  0  0  0
   69.4115   48.8000   53.6736 C   0  0  0  0  0  0  0  0  0  0  0  0
   68.5480   51.9232   56.3901 C   0  0  0  0  0  0  0  0  0  0  0  0
   67.2441   51.7351   56.8541 F   0  0  0  0  0  0  0  0  0  0  0  0
   68.5962   53.1488   55.7696 F   0  0  0  0  0  0  0  0  0  0  0  0
   69.4321   51.8823   57.4554 F   0  0  0  0  0  0  0  0  0  0  0  0
   68.4835   43.0328   56.4950 N   0  0  0  0  0  0  0  0  0  0  0  0
   67.3951   42.1634   56.1191 C   0  0  0  0  0  0  0  0  0  0  0  0
   67.6960   40.8251   56.7725 C   0  0  0  0  0  0  0  0  0  0  0  0
   68.5989   41.2053   57.9241 C   0  0  1  0  0  0  0  0  0  0  0  0
   69.4130   40.1283   58.2361 O   0  0  0  0  0  0  0  0  0  0  0  0
   69.4226   42.3227   57.3279 C   0  0  0  0  0  0  0  0  0  0  0  0
  1  2  1  0
  2  3  2  0
  2  7  1  0
  3  4  1  0
  4 21  1  0
  4  5  2  0
 21 22  1  0
 21 26  1  0
 22 23  1  0
 23 24  1  0
 24 25  1  6
 24 26  1  0
  5  6  1  0
  6  7  2  0
  7  8  1  0
  8  9  2  0
  8 16  1  0
  9 10  1  0
 10 17  1  0
 10 11  2  0
 17 18  1  0
 17 19  1  0
 17 20  1  0
 11 12  1  0
 12 13  1  0
 12 16  2  0
 13 14  1  0
 14 15  2  0
 15 16  1  0
M  END
>  <minimizedAffinity>  (1139) 
-9.18493

$$$$
data/reference_output_2/data/smiles/190527.pdb
     RDKit          3D

 26 28  0  0  0  0  0  0  0  0999 V2000
   70.1272   39.2779   58.8144 C   0  0  0  0  0  0  0  0  0  0  0  0
   70.7322   40.5146   58.8495 C   0  0  0  0  0  0  0  0  0  0  0  0
   70.2260   41.6182   58.1616 C   0  0  0  0  0  0  0  0  0  0  0  0
   69.0908   41.4985   57.4171 C   0  0  0  0  0  0  0  0  0  0  0  0
   68.4717   40.2653   57.3718 C   0  0  0  0  0  0  0  0  0  0  0  0
   68.9787   39.1698   58.0579 C   0  0  0  0  0  0  0  0  0  0  0  0
   67.3305   40.4420   56.5331 N   0  0  0  0  0  0  0  0  0  0  0  0
   67.2315   41.7600   56.0591 C   0  0  0  0  0  0  0  0  0  0  0  0
   66.3883   42.3123   55.3092 O   0  0  0  0  0  0  0  0  0  0  0  0
   68.3667   42.4896   56.6145 C   0  0  0  0  0  0  0  0  0  0  0  0
   68.6485   43.7379   56.4236 N   0  0  0  0  0  0  0  0  0  0  0  0
   69.6412   37.2893   60.2028 C   0  0  0  0  0  0  0  0  0  0  0  0
   70.7100   38.1461   59.5639 C   0  0  0  0  0  0  0  0  0  0  0  0
   71.5055   37.2234   58.6413 C   0  0  0  0  0  0  0  0  0  0  0  0
   71.6488   38.6084   60.6352 C   0  0  0  0  0  0  0  0  0  0  0  0
   67.8563   44.5608   55.6246 N   0  0  0  0  0  0  0  0  0  0  0  0
   68.3395   45.7137   54.9505 C   0  0  0  0  0  0  0  0  0  0  0  0
   68.2589   45.8628   53.5822 C   0  0  0  0  0  0  0  0  0  0  0  0
   68.7394   47.0012   52.9556 C   0  0  0  0  0  0  0  0  0  0  0  0
   69.3196   48.0350   53.6666 C   0  0  0  0  0  0  0  0  0  0  0  0
   69.4026   47.8898   55.0357 C   0  0  0  0  0  0  0  0  0  0  0  0
   68.9203   46.7534   55.6496 C   0  0  0  0  0  0  0  0  0  0  0  0
   69.9219   49.4665   52.8590 S   0  0  0  0  0  0  0  0  0  0  0  0
   69.8507   49.3381   51.1563 N   0  0  0  0  0  0  0  0  0  0  0  0
   69.1850   50.6908   53.2958 O   0  0  0  0  0  0  0  0  0  0  0  0
   71.3811   49.5955   53.2439 O   0  0  0  0  0  0  0  0  0  0  0  0
 12 13  1  0
 13 14  1  0
 13 15  1  0
 13  1  1  0
  1  2  2  0
  1  6  1  0
  2  3  1  0
  3  4  2  0
  4  5  1  0
  4 10  1  0
  5  6  2  0
  5  7  1  0
  7  8  1  0
  8  9  2  0
  8 10  1  0
 10 11  2  0
 11 16  1  0
 16 17  1  0
 17 18  2  0
 17 22  1  0
 18 19  1  0
 19 20  2  0
 20 23  1  0
 20 21  1  0
 23 24  1  0
 23 25  2  0
 23 26  2  0
 21 22  2  0
M  END
>  <minimizedAffinity>  (1140) 
-9.65665

$$$$
data/reference_output_2/data/smiles/190597.pdb
     RDKit          3D

 23 25  0  0  0  0  0  0  0  0999 V2000
   70.0743   46.5731   57.2137 O   0  0  0  0  0  0  0  0  0  0  0  0
   69.0748   46.2638   56.5229 C   0  0  0  0  0  0  0  0  0  0  0  0
   68.7292   44.8870   56.4381 N   0  0  0  0  0  0  0  0  0  0  0  0
   69.3847   43.8373   57.0495 N   0  0  0  0  0  0  0  0  0  0  0  0
   68.9338   42.6370   57.1095 C   0  0  0  0  0  0  0  0  0  0  0  0
   67.6892   42.1461   56.5698 C   0  0  0  0  0  0  0  0  0  0  0  0
   66.8280   42.8272   55.9814 O   0  0  0  0  0  0  0  0  0  0  0  0
   67.6557   40.7401   56.8521 N   0  0  0  0  0  0  0  0  0  0  0  0
   68.8351   40.3368   57.5507 C   0  0  0  0  0  0  0  0  0  0  0  0
   69.2415   39.1112   58.0220 C   0  0  0  0  0  0  0  0  0  0  0  0
   70.4593   38.9704   58.6842 C   0  0  0  0  0  0  0  0  0  0  0  0
   71.2188   40.1193   58.8342 C   0  0  0  0  0  0  0  0  0  0  0  0
   70.7983   41.3603   58.3522 C   0  0  0  0  0  0  0  0  0  0  0  0
   69.5916   41.4687   57.7013 C   0  0  0  0  0  0  0  0  0  0  0  0
   68.2423   47.2410   55.7985 C   0  0  0  0  0  0  0  0  0  0  0  0
   68.8223   47.6355   54.4612 C   0  0  0  0  0  0  0  0  0  0  0  0
   69.7577   48.6558   54.4017 C   0  0  0  0  0  0  0  0  0  0  0  0
   70.3304   49.0510   53.2257 C   0  0  0  0  0  0  0  0  0  0  0  0
   69.9917   48.4351   52.0368 C   0  0  0  0  0  0  0  0  0  0  0  0
   70.5801   48.8445   50.8599 O   0  0  0  0  0  0  0  0  0  0  0  0
   69.0485   47.4104   52.1026 C   0  0  0  0  0  0  0  0  0  0  0  0
   68.6668   46.7524   50.9143 O   0  0  0  0  0  0  0  0  0  0  0  0
   68.4665   47.0115   53.2952 C   0  0  0  0  0  0  0  0  0  0  0  0
  1  2  2  0
  2 15  1  0
  2  3  1  0
 15 16  1  0
 16 17  2  0
 16 23  1  0
 17 18  1  0
 18 19  2  0
 19 20  1  0
 19 21  1  0
 21 22  1  0
 21 23  2  0
  3  4  1  0
  4  5  2  0
  5  6  1  0
  5 14  1  0
  6  7  2  0
  6  8  1  0
  8  9  1  0
  9 10  1  0
  9 14  2  0
 10 11  2  0
 11 12  1  0
 12 13  2  0
 13 14  1  0
M  END
>  <minimizedAffinity>  (1141) 
-8.87856

$$$$
data/reference_output_2/data/smiles/190639.pdb
     RDKit          3D

 27 29  0  0  0  0  0  0  0  0999 V2000
   69.3831   47.1918   56.7692 C   0  0  0  0  0  0  0  0  0  0  0  0
   69.9480   48.3712   57.1970 C   0  0  0  0  0  0  0  0  0  0  0  0
   71.0369   48.3857   58.0581 C   0  0  0  0  0  0  0  0  0  0  0  0
   71.5376   47.1782   58.4742 C   0  0  0  0  0  0  0  0  0  0  0  0
   71.0206   45.9617   58.0843 C   0  0  0  0  0  0  0  0  0  0  0  0
   69.9300   46.0140   57.2204 C   0  0  0  0  0  0  0  0  0  0  0  0
   69.3643   44.8601   56.7907 F   0  0  0  0  0  0  0  0  0  0  0  0
   67.1125   47.5347   56.2956 O   0  0  0  0  0  0  0  0  0  0  0  0
   68.2440   47.1972   55.8676 C   0  0  0  0  0  0  0  0  0  0  0  0
   68.4011   46.8137   54.4727 C   0  0  0  0  0  0  0  0  0  0  0  0
   67.9100   45.7043   53.8200 C   0  0  0  0  0  0  0  0  0  0  0  0
   68.2945   45.7342   52.5087 N   0  0  0  0  0  0  0  0  0  0  0  0
   69.0253   46.8409   52.2984 C   0  0  0  0  0  0  0  0  0  0  0  0
   69.6443   47.3707   51.2339 N   0  0  0  0  0  0  0  0  0  0  0  0
   70.3321   48.5373   51.3091 C   0  0  0  0  0  0  0  0  0  0  0  0
   70.4060   49.1967   52.4790 N   0  0  0  0  0  0  0  0  0  0  0  0
   69.8016   48.7045   53.5703 C   0  0  0  0  0  0  0  0  0  0  0  0
   69.0999   47.5184   53.5033 C   0  0  0  0  0  0  0  0  0  0  0  0
   71.5376   44.7093   58.5066 N   0  0  0  0  0  0  0  0  0  0  0  0
   70.8658   43.7656   59.7664 S   0  0  0  0  0  0  0  0  0  0  0  0
   71.2836   44.2881   61.1109 O   0  0  0  0  0  0  0  0  0  0  0  0
   69.3625   43.7700   59.7396 O   0  0  0  0  0  0  0  0  0  0  0  0
   71.3541   42.0504   59.6405 C   0  0  0  0  0  0  0  0  0  0  0  0
   71.3914   41.7052   58.1549 C   0  0  0  0  0  0  0  0  0  0  0  0
   71.4324   40.3326   57.9723 F   0  0  0  0  0  0  0  0  0  0  0  0
   72.5323   42.2156   57.5805 F   0  0  0  0  0  0  0  0  0  0  0  0
   70.2845   42.2060   57.5201 F   0  0  0  0  0  0  0  0  0  0  0  0
  8  9  2  0
  9  1  1  0
  9 10  1  0
  1  2  2  0
  1  6  1  0
  2  3  1  0
  3  4  2  0
  4  5  1  0
  5 19  1  0
  5  6  2  0
 19 20  1  0
 20 21  2  0
 20 22  2  0
 20 23  1  0
 23 24  1  0
 24 25  1  0
 24 26  1  0
 24 27  1  0
  6  7  1  0
 10 11  2  0
 10 18  1  0
 11 12  1  0
 12 13  1  0
 13 14  1  0
 13 18  2  0
 14 15  2  0
 15 16  1  0
 16 17  2  0
 17 18  1  0
M  END
>  <minimizedAffinity>  (1142) 
-8.72159

$$$$
data/reference_output_2/data/smiles/190789.pdb
     RDKit          3D

 30 33  0  0  0  0  0  0  0  0999 V2000
   69.1426   43.7923   56.9622 C   0  0  0  0  0  0  0  0  0  0  0  0
   70.0129   43.1994   57.8467 C   0  0  0  0  0  0  0  0  0  0  0  0
   69.9801   41.8546   58.1159 N   0  0  0  0  0  0  0  0  0  0  0  0
   69.0847   41.0723   57.5161 C   0  0  0  0  0  0  0  0  0  0  0  0
   68.1808   41.6005   56.6158 C   0  0  0  0  0  0  0  0  0  0  0  0
   67.2733   40.7490   56.0193 O   0  0  0  0  0  0  0  0  0  0  0  0
   68.2294   42.9671   56.3546 C   0  0  0  0  0  0  0  0  0  0  0  0
   67.3785   43.3753   55.5267 O   0  0  0  0  0  0  0  0  0  0  0  0
   69.0538   39.6447   57.8531 C   0  0  0  0  0  0  0  0  0  0  0  0
   68.2271   38.9091   57.2983 O   0  0  0  0  0  0  0  0  0  0  0  0
   69.9551   39.0803   58.8065 N   0  0  0  0  0  0  0  0  0  0  0  0
   70.4899   40.0543   59.7532 C   0  0  0  0  0  0  0  0  0  0  0  0
   70.9387   41.2960   59.0307 C   0  0  0  0  0  0  0  0  0  0  0  0
   70.3268   37.7207   58.8657 C   0  0  0  0  0  0  0  0  0  0  0  0
   71.6635   37.3734   58.2974 C   0  0  0  0  0  0  0  0  0  0  0  0
   71.9533   35.9027   58.5141 C   0  0  0  0  0  0  0  0  0  0  0  0
   71.9573   35.5944   60.0015 C   0  0  0  0  0  0  0  0  0  0  0  0
   70.5157   35.7885   60.4608 C   0  0  0  0  0  0  0  0  0  0  0  0
   70.2479   37.2786   60.3113 C   0  0  0  0  0  0  0  0  0  0  0  0
   70.2669   45.8025   57.0993 O   0  0  0  0  0  0  0  0  0  0  0  0
   69.1978   45.2163   56.7003 C   0  0  0  0  0  0  0  0  0  0  0  0
   68.2620   46.0340   56.0820 N   0  0  0  0  0  0  0  0  0  0  0  0
   68.3929   47.4684   55.8543 C   0  0  0  0  0  0  0  0  0  0  0  0
   68.9978   47.7735   54.5350 C   0  0  0  0  0  0  0  0  0  0  0  0
   68.7044   46.9235   53.4611 C   0  0  0  0  0  0  0  0  0  0  0  0
   69.2253   47.1515   52.1986 C   0  0  0  0  0  0  0  0  0  0  0  0
   70.0499   48.2223   51.9571 C   0  0  0  0  0  0  0  0  0  0  0  0
   70.5655   48.4511   50.7159 F   0  0  0  0  0  0  0  0  0  0  0  0
   70.3471   49.0623   52.9920 C   0  0  0  0  0  0  0  0  0  0  0  0
   69.8233   48.8365   54.2693 C   0  0  0  0  0  0  0  0  0  0  0  0
 20 21  2  0
 21 22  1  0
 21  1  1  0
 22 23  1  0
 23 24  1  0
 24 25  2  0
 24 30  1  0
 25 26  1  0
 26 27  2  0
 27 28  1  0
 27 29  1  0
 29 30  2  0
  1  2  2  0
  1  7  1  0
  2  3  1  0
  3  4  1  0
  3 13  1  0
  4  5  2  0
  4  9  1  0
  5  6  1  0
  5  7  1  0
  7  8  2  0
  9 10  2  0
  9 11  1  0
 11 14  1  0
 11 12  1  0
 14 15  1  0
 14 19  1  0
 15 16  1  0
 16 17  1  0
 17 18  1  0
 18 19  1  0
 12 13  1  0
M  END
>  <minimizedAffinity>  (1143) 
-8.61879

$$$$
data/reference_output_2/data/smiles/190866.pdb
     RDKit          3D

 26 28  0  0  0  0  0  0  0  0999 V2000
   69.6241   38.8740   58.9794 N   0  0  0  0  0  0  0  0  0  0  0  0
   70.2671   40.1511   58.7975 C   0  0  0  0  0  0  0  0  0  0  0  0
   69.2941   41.2817   58.8632 C   0  0  0  0  0  0  0  0  0  0  0  0
   68.0089   41.0654   58.1389 C   0  0  0  0  0  0  0  0  0  0  0  0
   67.6287   39.6283   57.9378 C   0  0  0  0  0  0  0  0  0  0  0  0
   68.1881   38.8402   59.1040 C   0  0  0  0  0  0  0  0  0  0  0  0
   73.0633   35.8986   57.2107 C   0  0  0  0  0  0  0  0  0  0  0  0
   72.0049   36.2004   58.2078 C   0  0  0  0  0  0  0  0  0  0  0  0
   71.7064   35.3117   59.2067 C   0  0  0  0  0  0  0  0  0  0  0  0
   70.7182   35.6022   60.1301 C   0  0  0  0  0  0  0  0  0  0  0  0
   70.3912   34.6413   61.2155 C   0  0  0  0  0  0  0  0  0  0  0  0
   70.0792   36.7613   60.0120 N   0  0  0  0  0  0  0  0  0  0  0  0
   70.3470   37.6624   59.0390 C   0  0  0  0  0  0  0  0  0  0  0  0
   71.3125   37.3530   58.1559 N   0  0  0  0  0  0  0  0  0  0  0  0
   67.9782   41.8020   56.8274 C   0  0  0  0  0  0  0  0  0  0  0  0
   67.9227   41.1870   55.7315 O   0  0  0  0  0  0  0  0  0  0  0  0
   68.0103   43.2216   56.7811 N   0  0  0  0  0  0  0  0  0  0  0  0
   67.9790   43.8316   55.5241 N   0  0  0  0  0  0  0  0  0  0  0  0
   68.3093   45.1952   55.3245 C   0  0  0  0  0  0  0  0  0  0  0  0
   68.6359   45.8499   56.3353 O   0  0  0  0  0  0  0  0  0  0  0  0
   68.2835   45.8534   54.0196 C   0  0  0  0  0  0  0  0  0  0  0  0
   67.5778   45.2909   52.9772 C   0  0  0  0  0  0  0  0  0  0  0  0
   67.5240   45.8735   51.7277 C   0  0  0  0  0  0  0  0  0  0  0  0
   68.1797   47.0576   51.4631 C   0  0  0  0  0  0  0  0  0  0  0  0
   68.8909   47.6364   52.4934 C   0  0  0  0  0  0  0  0  0  0  0  0
   68.9400   47.0362   53.7577 C   0  0  0  0  0  0  0  0  0  0  0  0
  7  8  1  0
  8  9  2  0
  8 14  1  0
  9 10  1  0
 10 11  1  0
 10 12  2  0
 12 13  1  0
 13  1  1  0
 13 14  2  0
  1  2  1  0
  1  6  1  0
  2  3  1  0
  3  4  1  0
  4 15  1  0
  4  5  1  0
 15 16  2  0
 15 17  1  0
 17 18  1  0
 18 19  1  0
 19 20  2  0
 19 21  1  0
 21 22  2  0
 21 26  1  0
 22 23  1  0
 23 24  2  0
 24 25  1  0
 25 26  2  0
  5  6  1  0
M  END
>  <minimizedAffinity>  (1144) 
-8.74513

$$$$
data/reference_output_2/data/smiles/190870.pdb
     RDKit          3D

 23 25  0  0  0  0  0  0  0  0999 V2000
   70.5015   49.8376   53.2955 C   0  0  0  0  0  0  0  0  0  0  0  0
   71.7735   49.7941   53.7139 N   0  0  0  0  0  0  0  0  0  0  0  0
   72.2393   50.6682   54.6456 C   0  0  0  0  0  0  0  0  0  0  0  0
   73.4424   50.5928   55.0099 O   0  0  0  0  0  0  0  0  0  0  0  0
   71.4733   51.6479   55.2260 C   0  0  0  0  0  0  0  0  0  0  0  0
   71.9745   52.5292   56.1739 C   0  0  0  0  0  0  0  0  0  0  0  0
   71.1787   53.5075   56.7425 C   0  0  0  0  0  0  0  0  0  0  0  0
   69.8609   53.5840   56.3387 C   0  0  0  0  0  0  0  0  0  0  0  0
   69.3750   52.7017   55.3947 C   0  0  0  0  0  0  0  0  0  0  0  0
   70.1589   51.7233   54.8222 C   0  0  0  0  0  0  0  0  0  0  0  0
   69.7080   50.8360   53.8835 C   0  0  0  0  0  0  0  0  0  0  0  0
   68.3853   50.8894   53.4577 O   0  0  0  0  0  0  0  0  0  0  0  0
   70.0880   49.1439   51.1158 O   0  0  0  0  0  0  0  0  0  0  0  0
   69.9210   48.9219   52.3362 C   0  0  0  0  0  0  0  0  0  0  0  0
   69.1476   47.7512   52.6945 C   0  0  0  0  0  0  0  0  0  0  0  0
   68.5221   46.9785   51.7230 C   0  0  0  0  0  0  0  0  0  0  0  0
   67.8394   45.8496   52.0707 C   0  0  0  0  0  0  0  0  0  0  0  0
   67.7256   45.4082   53.3684 C   0  0  0  0  0  0  0  0  0  0  0  0
   68.3591   46.1973   54.3211 C   0  0  0  0  0  0  0  0  0  0  0  0
   69.0539   47.3391   53.9965 C   0  0  0  0  0  0  0  0  0  0  0  0
   68.2600   45.7671   55.6966 N   0  0  0  0  0  0  0  0  0  0  0  0
   68.2406   46.6311   56.5957 O   0  0  0  0  0  0  0  0  0  0  0  0
   68.1905   44.4416   55.9786 O   0  0  0  0  0  0  0  0  0  0  0  0
 13 14  2  0
 14 15  1  0
 14  1  1  0
 15 16  2  0
 15 20  1  0
 16 17  1  0
 17 18  2  0
 18 19  1  0
 19 21  1  0
 19 20  2  0
 21 22  2  0
 21 23  1  0
  1  2  1  0
  1 11  2  0
  2  3  1  0
  3  4  2  0
  3  5  1  0
  5  6  2  0
  5 10  1  0
  6  7  1  0
  7  8  2  0
  8  9  1  0
  9 10  2  0
 10 11  1  0
 11 12  1  0
M  CHG  2  21   1  23  -1
M  END
>  <minimizedAffinity>  (1145) 
-9.03989

$$$$
data/reference_output_2/data/smiles/190924.pdb
     RDKit          3D

 22 24  0  0  0  0  0  0  0  0999 V2000
   68.2340   44.0192   56.1630 N   0  0  0  0  0  0  0  0  0  0  0  0
   67.9918   42.6188   56.5382 C   0  0  0  0  0  0  0  0  0  0  0  0
   67.2723   41.9959   55.7226 O   0  0  0  0  0  0  0  0  0  0  0  0
   68.5847   42.1556   57.7554 C   0  0  0  0  0  0  0  0  0  0  0  0
   67.8747   42.3567   58.8256 O   0  0  0  0  0  0  0  0  0  0  0  0
   69.8475   41.5014   58.0179 C   0  0  0  0  0  0  0  0  0  0  0  0
   71.1053   42.1448   57.8778 C   0  0  0  0  0  0  0  0  0  0  0  0
   72.0959   41.2715   58.1030 N   0  0  0  0  0  0  0  0  0  0  0  0
   71.5848   40.0681   58.3918 C   0  0  0  0  0  0  0  0  0  0  0  0
   72.1270   38.8354   58.7255 C   0  0  0  0  0  0  0  0  0  0  0  0
   71.3561   37.7357   59.0140 C   0  0  0  0  0  0  0  0  0  0  0  0
   69.9971   37.8615   58.9704 C   0  0  0  0  0  0  0  0  0  0  0  0
   69.4570   39.0966   58.6360 C   0  0  0  0  0  0  0  0  0  0  0  0
   70.1962   40.2144   58.3396 C   0  0  0  0  0  0  0  0  0  0  0  0
   67.6246   44.4175   54.9514 N   0  0  0  0  0  0  0  0  0  0  0  0
   69.6808   48.9716   52.1503 C   0  0  0  0  0  0  0  0  0  0  0  0
   69.1136   47.7460   52.8287 C   0  0  0  0  0  0  0  0  0  0  0  0
   69.1726   47.6604   54.1992 C   0  0  0  0  0  0  0  0  0  0  0  0
   68.6876   46.5820   54.8910 C   0  0  0  0  0  0  0  0  0  0  0  0
   68.1154   45.5343   54.1817 C   0  0  0  0  0  0  0  0  0  0  0  0
   68.0362   45.5840   52.8040 C   0  0  0  0  0  0  0  0  0  0  0  0
   68.5423   46.7057   52.1275 C   0  0  0  0  0  0  0  0  0  0  0  0
 16 17  1  0
 17 18  2  0
 17 22  1  0
 18 19  1  0
 19 20  2  0
 20 15  1  0
 20 21  1  0
 15  1  1  0
  1  2  1  0
  2  3  2  0
  2  4  1  0
  4  5  2  0
  4  6  1  0
  6  7  2  0
  6 14  1  0
  7  8  1  0
  8  9  1  0
  9 10  1  0
  9 14  2  0
 10 11  2  0
 11 12  1  0
 12 13  2  0
 13 14  1  0
 21 22  2  0
M  END
>  <minimizedAffinity>  (1146) 
-8.51684

$$$$
data/reference_output_2/data/smiles/191033.pdb
     RDKit          3D

 23 24  0  0  0  0  0  0  0  0999 V2000
   71.2884   46.2934   58.7425 S   0  0  0  0  0  0  0  0  0  0  0  0
   72.1207   47.4108   58.1177 O   0  0  0  0  0  0  0  0  0  0  0  0
   71.3536   46.4808   60.2261 O   0  0  0  0  0  0  0  0  0  0  0  0
   71.9316   44.7511   58.2319 C   0  0  0  0  0  0  0  0  0  0  0  0
   73.2573   44.6298   57.8614 C   0  0  0  0  0  0  0  0  0  0  0  0
   73.7921   43.4159   57.4703 C   0  0  0  0  0  0  0  0  0  0  0  0
   73.0023   42.2794   57.4384 C   0  0  0  0  0  0  0  0  0  0  0  0
   71.6907   42.4172   57.8079 C   0  0  0  0  0  0  0  0  0  0  0  0
   71.1309   43.6264   58.2050 C   0  0  0  0  0  0  0  0  0  0  0  0
   69.7509   43.6329   58.5502 N   0  0  0  0  0  0  0  0  0  0  0  0
   68.8664   43.4280   57.7075 O   0  0  0  0  0  0  0  0  0  0  0  0
   69.4315   43.8834   59.8869 O   0  0  0  0  0  0  0  0  0  0  0  0
   69.6749   46.4232   58.1347 N   0  0  0  0  0  0  0  0  0  0  0  0
   67.4968   47.3350   56.6104 O   0  0  0  0  0  0  0  0  0  0  0  0
   68.5140   46.8518   56.0247 C   0  0  0  0  0  0  0  0  0  0  0  0
   69.6332   46.3808   56.7427 N   0  0  0  0  0  0  0  0  0  0  0  0
   68.5190   46.7863   54.5723 C   0  0  0  0  0  0  0  0  0  0  0  0
   67.9096   45.8170   53.8158 C   0  0  0  0  0  0  0  0  0  0  0  0
   67.9548   45.8162   52.4283 C   0  0  0  0  0  0  0  0  0  0  0  0
   68.6192   46.7983   51.7363 C   0  0  0  0  0  0  0  0  0  0  0  0
   69.2361   47.7786   52.4801 C   0  0  0  0  0  0  0  0  0  0  0  0
   70.1070   49.0693   51.6402 Cl  0  0  0  0  0  0  0  0  0  0  0  0
   69.1911   47.7796   53.8539 C   0  0  0  0  0  0  0  0  0  0  0  0
 14 15  2  0
 15 16  1  0
 15 17  1  0
 16 13  1  0
 13  1  1  0
  1  2  2  0
  1  3  2  0
  1  4  1  0
  4  5  2  0
  4  9  1  0
  5  6  1  0
  6  7  2  0
  7  8  1  0
  8  9  2  0
  9 10  1  0
 10 11  2  0
 10 12  1  0
 17 18  2  0
 17 23  1  0
 18 19  1  0
 19 20  2  0
 20 21  1  0
 21 22  1  0
 21 23  2  0
M  CHG  2  10   1  12  -1
M  END
>  <minimizedAffinity>  (1147) 
-8.91149

$$$$
data/reference_output_2/data/smiles/191065.pdb
     RDKit          3D

 30 34  0  0  0  0  0  0  0  0999 V2000
   69.6830   41.7166   60.1515 O   0  0  0  0  0  0  0  0  0  0  0  0
   69.1376   40.7187   59.5760 C   0  0  0  0  0  0  0  0  0  0  0  0
   68.1479   40.7309   58.4634 C   0  0  2  0  0  0  0  0  0  0  0  0
   67.9137   39.2755   58.2141 C   0  0  0  0  0  0  0  0  0  0  0  0
   68.2653   38.6055   59.5254 C   0  0  0  0  0  0  0  0  0  0  0  0
   69.4169   39.3815   59.9394 N   0  0  0  0  0  0  0  0  0  0  0  0
   68.6076   41.4639   57.3321 N   0  0  0  0  0  0  0  0  0  0  0  0
   67.3810   41.9655   56.2580 S   0  0  0  0  0  0  0  0  0  0  0  0
   67.0830   40.9575   55.2030 O   0  0  0  0  0  0  0  0  0  0  0  0
   66.1127   42.1518   57.0593 O   0  0  0  0  0  0  0  0  0  0  0  0
   67.7384   43.5438   55.5449 C   0  0  0  0  0  0  0  0  0  0  0  0
   68.3683   44.5032   56.2361 N   0  0  0  0  0  0  0  0  0  0  0  0
   68.4920   45.5811   55.4207 C   0  0  0  0  0  0  0  0  0  0  0  0
   69.0409   46.8382   55.5741 C   0  0  0  0  0  0  0  0  0  0  0  0
   69.0439   47.7824   54.5743 C   0  0  0  0  0  0  0  0  0  0  0  0
   69.7565   49.3680   54.8180 Cl  0  0  0  0  0  0  0  0  0  0  0  0
   68.4604   47.4163   53.3750 C   0  0  0  0  0  0  0  0  0  0  0  0
   67.9037   46.1834   53.1732 C   0  0  0  0  0  0  0  0  0  0  0  0
   67.9166   45.2437   54.2138 C   0  0  0  0  0  0  0  0  0  0  0  0
   67.4617   43.9871   54.3171 N   0  0  0  0  0  0  0  0  0  0  0  0
   70.5813   38.8194   60.5914 C   0  0  0  0  0  0  0  0  0  0  0  0
   71.1355   37.7901   59.6737 C   0  0  0  0  0  0  0  0  0  0  0  0
   71.7481   37.9557   58.4461 C   0  0  0  0  0  0  0  0  0  0  0  0
   72.1082   36.7018   57.9441 C   0  0  0  0  0  0  0  0  0  0  0  0
   72.7210   36.2375   56.8195 C   0  0  0  0  0  0  0  0  0  0  0  0
   72.9433   34.8867   56.6047 C   0  0  0  0  0  0  0  0  0  0  0  0
   72.5252   34.0189   57.5646 N   0  0  0  0  0  0  0  0  0  0  0  0
   71.9171   34.4685   58.6837 C   0  0  0  0  0  0  0  0  0  0  0  0
   71.6956   35.8016   58.8999 C   0  0  0  0  0  0  0  0  0  0  0  0
   71.1238   36.4730   59.9108 N   0  0  0  0  0  0  0  0  0  0  0  0
  1  2  2  0
  2  3  1  0
  2  6  1  0
  3  7  1  6
  3  4  1  0
  7  8  1  0
  8  9  2  0
  8 10  2  0
  8 11  1  0
 11 12  2  0
 11 20  1  0
 12 13  1  0
 13 14  2  0
 13 19  1  0
 14 15  1  0
 15 16  1  0
 15 17  2  0
 17 18  1  0
 18 19  2  0
 19 20  1  0
  4  5  1  0
  5  6  1  0
  6 21  1  0
 21 22  1  0
 22 23  2  0
 22 30  1  0
 23 24  1  0
 24 25  2  0
 24 29  1  0
 25 26  1  0
 26 27  2  0
 27 28  1  0
 28 29  2  0
 29 30  1  0
M  CHG  1  12   1
M  END
>  <minimizedAffinity>  (1148) 
-8.69415

$$$$
data/reference_output_2/data/smiles/191118.pdb
     RDKit          3D

 25 28  0  0  0  0  0  0  0  0999 V2000
   71.0707   46.4806   58.4637 C   0  0  0  0  0  0  0  0  0  0  0  0
   71.5779   45.0957   58.1828 C   0  0  0  0  0  0  0  0  0  0  0  0
   72.9034   44.7957   57.9855 C   0  0  0  0  0  0  0  0  0  0  0  0
   73.3037   43.5082   57.7222 C   0  0  0  0  0  0  0  0  0  0  0  0
   72.3797   42.4669   57.6462 C   0  0  0  0  0  0  0  0  0  0  0  0
   71.0580   42.7947   57.8468 C   0  0  0  0  0  0  0  0  0  0  0  0
   70.6448   44.0826   58.1130 C   0  0  0  0  0  0  0  0  0  0  0  0
   70.0386   41.7273   57.7622 C   0  0  0  0  0  0  0  0  0  0  0  0
   68.8594   41.8901   57.0808 C   0  0  0  0  0  0  0  0  0  0  0  0
   67.9055   40.9081   56.9851 C   0  0  0  0  0  0  0  0  0  0  0  0
   68.1376   39.7036   57.5953 C   0  0  0  0  0  0  0  0  0  0  0  0
   69.3260   39.4980   58.2986 C   0  0  0  0  0  0  0  0  0  0  0  0
   70.2642   40.5015   58.3793 C   0  0  0  0  0  0  0  0  0  0  0  0
   69.6796   46.5942   58.0824 N   0  0  0  0  0  0  0  0  0  0  0  0
   67.5410   44.1271   54.8269 O   0  0  0  0  0  0  0  0  0  0  0  0
   68.1581   45.1947   55.1414 C   0  0  0  0  0  0  0  0  0  0  0  0
   68.6119   45.3829   56.3843 N   0  0  0  0  0  0  0  0  0  0  0  0
   69.2644   46.5041   56.7249 C   0  0  0  0  0  0  0  0  0  0  0  0
   69.4697   47.4570   55.8018 N   0  0  0  0  0  0  0  0  0  0  0  0
   69.0505   47.3529   54.5357 C   0  0  0  0  0  0  0  0  0  0  0  0
   68.3787   46.1953   54.1930 C   0  0  0  0  0  0  0  0  0  0  0  0
   67.9050   46.0551   52.8053 C   0  0  0  0  0  0  0  0  0  0  0  0
   68.7325   46.7857   51.8009 C   0  0  0  0  0  0  0  0  0  0  0  0
   69.7496   47.6522   52.3375 N   0  0  0  0  0  0  0  0  0  0  0  0
   69.2419   48.3741   53.4855 C   0  0  0  0  0  0  0  0  0  0  0  0
 15 16  2  0
 16 17  1  0
 16 21  1  0
 17 18  1  0
 18 14  1  0
 18 19  2  0
 14  1  1  0
  1  2  1  0
  2  3  2  0
  2  7  1  0
  3  4  1  0
  4  5  2  0
  5  6  1  0
  6  8  1  0
  6  7  2  0
  8  9  2  0
  8 13  1  0
  9 10  1  0
 10 11  2  0
 11 12  1  0
 12 13  2  0
 19 20  1  0
 20 21  2  0
 20 25  1  0
 21 22  1  0
 22 23  1  0
 23 24  1  0
 24 25  1  0
M  CHG  1  24   1
M  END
>  <minimizedAffinity>  (1149) 
-8.98416

$$$$
data/reference_output_2/data/smiles/191138.pdb
     RDKit          3D

 26 28  0  0  0  0  0  0  0  0999 V2000
   67.8315   42.4916   56.4226 C   0  0  0  0  0  0  0  0  0  0  0  0
   66.7613   42.1740   55.9244 O   0  0  0  0  0  0  0  0  0  0  0  0
   68.4107   43.7628   56.2636 N   0  0  0  0  0  0  0  0  0  0  0  0
   73.5490   39.0187   59.4386 C   0  0  0  0  0  0  0  0  0  0  0  0
   72.1266   39.1518   58.9493 C   0  0  1  0  0  0  0  0  0  0  0  0
   71.3608   37.9015   59.3133 C   0  0  0  0  0  0  0  0  0  0  0  0
   69.8662   38.1084   59.2361 C   0  0  0  0  0  0  0  0  0  0  0  0
   69.5160   39.3724   58.5808 C   0  0  0  0  0  0  0  0  0  0  0  0
   68.0926   39.8350   57.5074 S   0  0  0  0  0  0  0  0  0  0  0  0
   68.5775   41.4506   57.2610 C   0  0  0  0  0  0  0  0  0  0  0  0
   69.6937   41.5911   57.9291 C   0  0  0  0  0  0  0  0  0  0  0  0
   70.2056   40.5456   58.6187 C   0  0  0  0  0  0  0  0  0  0  0  0
   71.4706   40.4167   59.4742 C   0  0  0  0  0  0  0  0  0  0  0  0
   67.8287   44.7969   55.5286 N   0  0  0  0  0  0  0  0  0  0  0  0
   68.6537   46.2558   55.8814 S   0  0  0  0  0  0  0  0  0  0  0  0
   67.8199   47.1333   56.8048 O   0  0  0  0  0  0  0  0  0  0  0  0
   69.8935   45.8862   56.6544 O   0  0  0  0  0  0  0  0  0  0  0  0
   69.0425   47.2126   54.4810 C   0  0  0  0  0  0  0  0  0  0  0  0
   69.6315   48.4764   54.5791 C   0  0  0  0  0  0  0  0  0  0  0  0
   69.9356   49.2250   53.4761 C   0  0  0  0  0  0  0  0  0  0  0  0
   69.6642   48.7468   52.2044 C   0  0  0  0  0  0  0  0  0  0  0  0
   69.9578   49.4723   51.1031 F   0  0  0  0  0  0  0  0  0  0  0  0
   69.0852   47.5091   52.0722 C   0  0  0  0  0  0  0  0  0  0  0  0
   68.8282   47.0613   50.8166 F   0  0  0  0  0  0  0  0  0  0  0  0
   68.7855   46.7645   53.2033 C   0  0  0  0  0  0  0  0  0  0  0  0
   68.2154   45.5544   52.9901 F   0  0  0  0  0  0  0  0  0  0  0  0
  5  4  1  1
  5  6  1  0
  5 13  1  0
  6  7  1  0
  7  8  1  0
  8  9  1  0
  8 12  2  0
  9 10  1  0
 10  1  1  0
 10 11  2  0
  1  2  2  0
  1  3  1  0
  3 14  1  0
 14 15  1  0
 15 16  2  0
 15 17  2  0
 15 18  1  0
 18 19  2  0
 18 25  1  0
 19 20  1  0
 20 21  2  0
 21 22  1  0
 21 23  1  0
 23 24  1  0
 23 25  2  0
 25 26  1  0
 11 12  1  0
 12 13  1  0
M  END
>  <minimizedAffinity>  (1150) 
-8.73028

$$$$
data/reference_output_2/data/smiles/191220.pdb
     RDKit          3D

 29 33  0  0  0  0  0  0  0  0999 V2000
   68.4425   43.2090   56.3217 C   0  0  0  0  0  0  0  0  0  0  0  0
   69.5581   43.5942   56.7534 O   0  0  0  0  0  0  0  0  0  0  0  0
   67.7477   44.0524   55.4511 N   0  0  0  0  0  0  0  0  0  0  0  0
   68.2231   45.3242   55.0170 C   0  0  0  0  0  0  0  0  0  0  0  0
   68.5207   46.3561   55.8851 C   0  0  0  0  0  0  0  0  0  0  0  0
   68.9820   47.5814   55.3841 C   0  0  0  0  0  0  0  0  0  0  0  0
   69.1256   47.7224   54.0232 C   0  0  0  0  0  0  0  0  0  0  0  0
   68.8414   46.7265   53.1351 C   0  0  0  0  0  0  0  0  0  0  0  0
   68.3923   45.5405   53.6648 C   0  0  0  0  0  0  0  0  0  0  0  0
   69.1260   47.2709   51.7693 C   0  0  0  0  0  0  0  0  0  0  0  0
   69.5892   48.6477   51.9769 C   0  0  0  0  0  0  0  0  0  0  0  0
   69.9390   49.4825   51.1069 O   0  0  0  0  0  0  0  0  0  0  0  0
   69.5785   48.9020   53.4003 N   0  0  0  0  0  0  0  0  0  0  0  0
   69.9165   50.0457   54.2223 C   0  0  0  0  0  0  0  0  0  0  0  0
   70.3797   49.5546   55.5772 C   0  0  0  0  0  0  0  0  0  0  0  0
   69.3181   48.7149   56.2540 C   0  0  0  0  0  0  0  0  0  0  0  0
   67.3227   41.2049   55.9514 O   0  0  0  0  0  0  0  0  0  0  0  0
   67.9677   41.9037   56.7727 C   0  0  0  0  0  0  0  0  0  0  0  0
   68.1815   41.3769   58.0569 N   0  0  0  0  0  0  0  0  0  0  0  0
   67.7257   40.0877   58.5350 C   0  0  0  0  0  0  0  0  0  0  0  0
   68.8135   39.1249   58.7991 C   0  0  0  0  0  0  0  0  0  0  0  0
   70.0449   39.2696   58.1612 C   0  0  0  0  0  0  0  0  0  0  0  0
   71.0821   38.3954   58.3854 C   0  0  0  0  0  0  0  0  0  0  0  0
   70.9469   37.3354   59.2541 C   0  0  0  0  0  0  0  0  0  0  0  0
   69.7519   37.1788   59.8861 C   0  0  0  0  0  0  0  0  0  0  0  0
   68.6924   38.0659   59.6613 C   0  0  0  0  0  0  0  0  0  0  0  0
   69.9010   36.0366   60.6946 O   0  0  0  0  0  0  0  0  0  0  0  0
   71.0033   35.2792   60.1722 C   0  0  0  0  0  0  0  0  0  0  0  0
   71.8170   36.3127   59.6644 O   0  0  0  0  0  0  0  0  0  0  0  0
 17 18  2  0
 18 19  1  0
 18  1  1  0
 19 20  1  0
 20 21  1  0
 21 22  2  0
 21 26  1  0
 22 23  1  0
 23 24  2  0
 24 25  1  0
 24 29  1  0
 25 26  2  0
 25 27  1  0
 27 28  1  0
 28 29  1  0
  1  2  2  0
  1  3  1  0
  3  4  1  0
  4  5  2  0
  4  9  1  0
  5  6  1  0
  6  7  2  0
  6 16  1  0
  7  8  1  0
  7 13  1  0
  8  9  2  0
  8 10  1  0
 10 11  1  0
 11 12  2  0
 11 13  1  0
 13 14  1  0
 14 15  1  0
 15 16  1  0
M  END
>  <minimizedAffinity>  (1151) 
-8.72936

$$$$
data/reference_output_2/data/smiles/191261.pdb
     RDKit          3D

 20 23  0  0  0  0  0  0  0  0999 V2000
   69.2008   49.3935   57.4962 C   0  0  2  0  0  0  0  0  0  0  0  0
   70.4326   49.6130   56.6464 C   0  0  0  0  0  0  0  0  0  0  0  0
   70.2313   49.0540   55.2711 C   0  0  0  0  0  0  0  0  0  0  0  0
   71.0127   49.6250   54.3904 N   0  0  0  0  0  0  0  0  0  0  0  0
   71.1534   49.4122   52.9994 N   0  0  0  0  0  0  0  0  0  0  0  0
   70.3373   48.5660   52.1859 C   0  0  0  0  0  0  0  0  0  0  0  0
   70.5121   48.6445   50.9511 O   0  0  0  0  0  0  0  0  0  0  0  0
   69.3177   47.6150   52.6007 C   0  0  0  0  0  0  0  0  0  0  0  0
   68.7717   46.8686   51.5791 C   0  0  0  0  0  0  0  0  0  0  0  0
   67.7975   45.9346   51.8798 C   0  0  0  0  0  0  0  0  0  0  0  0
   67.3878   45.7622   53.1828 C   0  0  0  0  0  0  0  0  0  0  0  0
   67.9125   46.4900   54.2219 C   0  0  0  0  0  0  0  0  0  0  0  0
   67.7173   46.5423   55.5634 N   0  0  0  0  0  0  0  0  0  0  0  0
   68.5338   47.4752   56.1168 C   0  0  0  0  0  0  0  0  0  0  0  0
   69.2489   48.0105   55.0825 C   0  0  0  0  0  0  0  0  0  0  0  0
   68.8791   47.4106   53.8850 C   0  0  0  0  0  0  0  0  0  0  0  0
   68.7631   47.9567   57.4917 C   0  0  0  0  0  0  0  0  0  0  0  0
   66.8870   50.0056   58.0185 C   0  0  0  0  0  0  0  0  0  0  0  0
   68.0566   50.2630   57.0955 C   0  0  0  0  0  0  0  0  0  0  0  0
   68.3760   51.7366   57.1800 C   0  0  0  0  0  0  0  0  0  0  0  0
 18 19  1  0
 19 20  1  0
  1 19  1  6
  1  2  1  0
  1 17  1  0
  2  3  1  0
  3  4  2  0
  3 15  1  0
  4  5  1  0
  5  6  1  0
  6  7  2  0
  6  8  1  0
  8  9  1  0
  8 16  2  0
  9 10  2  0
 10 11  1  0
 11 12  2  0
 12 13  1  0
 12 16  1  0
 13 14  1  0
 14 15  2  0
 14 17  1  0
 15 16  1  0
M  END
>  <minimizedAffinity>  (1152) 
-9.13052

$$$$
data/reference_output_2/data/smiles/191343.pdb
     RDKit          3D

 26 28  0  0  0  0  0  0  0  0999 V2000
   70.9776   43.9496   57.9706 O   0  0  0  0  0  0  0  0  0  0  0  0
   69.8655   43.7704   57.4213 C   0  0  0  0  0  0  0  0  0  0  0  0
   69.2106   44.9636   56.9488 N   0  0  0  0  0  0  0  0  0  0  0  0
   69.2849   42.4442   57.2757 C   0  0  0  0  0  0  0  0  0  0  0  0
   68.2574   42.2940   56.3604 C   0  0  0  0  0  0  0  0  0  0  0  0
   67.6598   41.0517   56.1737 C   0  0  0  0  0  0  0  0  0  0  0  0
   66.6570   40.9363   55.2703 F   0  0  0  0  0  0  0  0  0  0  0  0
   68.0758   39.9508   56.8909 C   0  0  0  0  0  0  0  0  0  0  0  0
   69.0965   40.0748   57.8078 C   0  0  0  0  0  0  0  0  0  0  0  0
   69.6755   41.3408   57.9697 C   0  0  0  0  0  0  0  0  0  0  0  0
   69.5437   38.9597   58.5594 N   0  0  0  0  0  0  0  0  0  0  0  0
   68.8887   38.3633   59.5669 C   0  0  0  0  0  0  0  0  0  0  0  0
   69.6499   37.2963   60.0608 C   0  0  0  0  0  0  0  0  0  0  0  0
   70.7850   37.3061   59.2837 C   0  0  0  0  0  0  0  0  0  0  0  0
   70.6623   38.3117   58.4164 N   0  0  0  0  0  0  0  0  0  0  0  0
   69.7401   46.2179   57.0763 N   0  0  0  0  0  0  0  0  0  0  0  0
   68.9395   47.4935   56.3183 S   0  0  0  0  0  0  0  0  0  0  0  0
   69.5936   48.8138   56.7214 O   0  0  0  0  0  0  0  0  0  0  0  0
   67.4971   47.4894   56.7527 O   0  0  0  0  0  0  0  0  0  0  0  0
   68.9763   47.4370   54.5958 C   0  0  0  0  0  0  0  0  0  0  0  0
   69.5512   48.3299   53.7492 C   0  0  0  0  0  0  0  0  0  0  0  0
   69.5208   48.1621   52.3612 C   0  0  0  0  0  0  0  0  0  0  0  0
   68.9041   47.0773   51.7829 C   0  0  0  0  0  0  0  0  0  0  0  0
   68.3173   46.1643   52.6305 C   0  0  0  0  0  0  0  0  0  0  0  0
   68.3497   46.3345   53.9939 C   0  0  0  0  0  0  0  0  0  0  0  0
   67.7429   45.3790   54.7538 F   0  0  0  0  0  0  0  0  0  0  0  0
  1  2  2  0
  2  3  1  0
  2  4  1  0
  3 16  1  0
 16 17  1  0
 17 18  2  0
 17 19  2  0
 17 20  1  0
 20 21  2  0
 20 25  1  0
 21 22  1  0
 22 23  2  0
 23 24  1  0
 24 25  2  0
 25 26  1  0
  4  5  2  0
  4 10  1  0
  5  6  1  0
  6  7  1  0
  6  8  2  0
  8  9  1  0
  9 11  1  0
  9 10  2  0
 11 12  1  0
 11 15  1  0
 12 13  2  0
 13 14  1  0
 14 15  2  0
M  END
>  <minimizedAffinity>  (1153) 
-8.81983

$$$$
data/reference_output_2/data/smiles/191486.pdb
     RDKit          3D

 21 23  0  0  0  0  0  0  0  0999 V2000
   71.8768   50.0897   53.8734 O   0  0  0  0  0  0  0  0  0  0  0  0
   70.6801   50.0241   53.5637 C   0  0  0  0  0  0  0  0  0  0  0  0
   69.7697   51.0131   53.9846 N   0  0  0  0  0  0  0  0  0  0  0  0
   70.1977   48.9084   52.7490 C   0  0  0  0  0  0  0  0  0  0  0  0
   70.4755   48.6347   51.4610 N   0  0  0  0  0  0  0  0  0  0  0  0
   69.8524   47.5379   51.0704 N   0  0  0  0  0  0  0  0  0  0  0  0
   69.1194   47.0214   52.0909 C   0  0  0  0  0  0  0  0  0  0  0  0
   68.3029   45.9139   52.2106 C   0  0  0  0  0  0  0  0  0  0  0  0
   67.6716   45.6315   53.4026 C   0  0  0  0  0  0  0  0  0  0  0  0
   67.8952   46.5019   54.4582 C   0  0  0  0  0  0  0  0  0  0  0  0
   68.7131   47.6047   54.3285 C   0  0  0  0  0  0  0  0  0  0  0  0
   69.3424   47.8894   53.1439 C   0  0  0  0  0  0  0  0  0  0  0  0
   70.0948   52.1379   54.7967 C   0  0  0  0  0  0  0  0  0  0  0  0
   69.9367   52.0152   56.2589 C   0  0  0  0  0  0  0  0  0  0  0  0
   68.9447   51.1354   56.8330 C   0  0  0  0  0  0  0  0  0  0  0  0
   67.6501   51.5219   57.0696 C   0  0  0  0  0  0  0  0  0  0  0  0
   66.7207   50.6628   57.5607 C   0  0  0  0  0  0  0  0  0  0  0  0
   67.0544   49.3576   57.8414 C   0  0  0  0  0  0  0  0  0  0  0  0
   66.1298   48.4950   58.3321 F   0  0  0  0  0  0  0  0  0  0  0  0
   68.3483   48.9310   57.6166 C   0  0  0  0  0  0  0  0  0  0  0  0
   69.2815   49.8089   57.1193 C   0  0  0  0  0  0  0  0  0  0  0  0
  1  2  2  0
  2  3  1  0
  2  4  1  0
  3 13  1  0
 13 14  1  0
 14 15  1  0
 15 16  2  0
 15 21  1  0
 16 17  1  0
 17 18  2  0
 18 19  1  0
 18 20  1  0
 20 21  2  0
  4  5  1  0
  4 12  2  0
  5  6  1  0
  6  7  2  0
  7  8  1  0
  7 12  1  0
  8  9  2  0
  9 10  1  0
 10 11  2  0
 11 12  1  0
M  END
>  <minimizedAffinity>  (1154) 
-9.05312

$$$$
data/reference_output_2/data/smiles/191626.pdb
     RDKit          3D

 28 31  0  0  0  0  0  0  0  0999 V2000
   70.5146   45.5495   58.0160 C   0  0  0  0  0  0  0  0  0  0  0  0
   71.6746   45.9819   58.6187 C   0  0  0  0  0  0  0  0  0  0  0  0
   72.0598   47.3240   58.5151 C   0  0  0  0  0  0  0  0  0  0  0  0
   71.2626   48.1938   57.8066 C   0  0  0  0  0  0  0  0  0  0  0  0
   70.0765   47.7806   57.1834 C   0  0  0  0  0  0  0  0  0  0  0  0
   69.7615   46.4684   57.3205 C   0  0  0  0  0  0  0  0  0  0  0  0
   68.9246   44.1763   56.2920 O   0  0  0  0  0  0  0  0  0  0  0  0
   69.3601   43.4680   57.2683 C   0  0  0  0  0  0  0  0  0  0  0  0
   70.1795   44.1729   58.1596 N   0  0  0  0  0  0  0  0  0  0  0  0
   68.9658   42.0818   57.3284 C   0  0  0  0  0  0  0  0  0  0  0  0
   69.6310   41.2279   58.1995 C   0  0  0  0  0  0  0  0  0  0  0  0
   69.3166   39.8903   58.3186 C   0  0  0  0  0  0  0  0  0  0  0  0
   68.3063   39.3466   57.5576 C   0  0  0  0  0  0  0  0  0  0  0  0
   67.6604   40.1639   56.7157 N   0  0  0  0  0  0  0  0  0  0  0  0
   67.9705   41.4947   56.5948 C   0  0  0  0  0  0  0  0  0  0  0  0
   67.3144   42.2005   55.7779 O   0  0  0  0  0  0  0  0  0  0  0  0
   69.2863   48.7819   56.4257 C   0  0  0  0  0  0  0  0  0  0  0  0
   69.6019   48.6410   54.9889 C   0  0  0  0  0  0  0  0  0  0  0  0
   70.6657   49.3682   54.5313 N   0  0  0  0  0  0  0  0  0  0  0  0
   71.0621   49.3613   53.2767 N   0  0  0  0  0  0  0  0  0  0  0  0
   70.4018   48.6062   52.3882 C   0  0  0  0  0  0  0  0  0  0  0  0
   70.7478   48.5650   51.1599 O   0  0  0  0  0  0  0  0  0  0  0  0
   69.3246   47.8414   52.7459 C   0  0  0  0  0  0  0  0  0  0  0  0
   68.9200   47.8641   54.0843 C   0  0  0  0  0  0  0  0  0  0  0  0
   67.7730   47.0504   54.4950 C   0  0  0  0  0  0  0  0  0  0  0  0
   67.5872   45.7717   53.7377 C   0  0  0  0  0  0  0  0  0  0  0  0
   68.4295   45.6224   52.5068 C   0  0  0  0  0  0  0  0  0  0  0  0
   68.5414   46.9751   51.8346 C   0  0  0  0  0  0  0  0  0  0  0  0
  7  8  2  0
  8  9  1  0
  8 10  1  0
  9  1  1  0
  1  2  2  0
  1  6  1  0
  2  3  1  0
  3  4  2  0
  4  5  1  0
  5 17  1  0
  5  6  2  0
 17 18  1  0
 18 19  2  0
 18 24  1  0
 19 20  1  0
 20 21  1  0
 21 22  2  0
 21 23  1  0
 23 24  2  0
 23 28  1  0
 24 25  1  0
 25 26  1  0
 26 27  1  0
 27 28  1  0
 10 11  2  0
 10 15  1  0
 11 12  1  0
 12 13  2  0
 13 14  1  0
 14 15  1  0
 15 16  2  0
M  END
>  <minimizedAffinity>  (1155) 
-9.34003

$$$$
data/reference_output_2/data/smiles/191652.pdb
     RDKit          3D

 26 29  0  0  0  0  0  0  0  0999 V2000
   70.4747   45.8521   57.9123 C   0  0  0  0  0  0  0  0  0  0  0  0
   71.6085   46.4487   58.4166 C   0  0  0  0  0  0  0  0  0  0  0  0
   71.8860   47.8035   58.2154 C   0  0  0  0  0  0  0  0  0  0  0  0
   71.0177   48.5902   57.4968 C   0  0  0  0  0  0  0  0  0  0  0  0
   69.8920   48.0226   56.9889 C   0  0  0  0  0  0  0  0  0  0  0  0
   69.6220   46.6579   57.1968 C   0  0  0  0  0  0  0  0  0  0  0  0
   71.9162   41.9557   58.0782 C   0  0  0  0  0  0  0  0  0  0  0  0
   70.6287   42.2507   58.8138 C   0  0  2  0  0  0  0  0  0  0  0  0
   69.4730   42.2366   57.9328 N   0  0  0  0  0  0  0  0  0  0  0  0
   69.4841   43.5433   57.3174 C   0  0  0  0  0  0  0  0  0  0  0  0
   68.9193   43.7841   56.2240 O   0  0  0  0  0  0  0  0  0  0  0  0
   70.2185   44.4525   58.1437 N   0  0  0  0  0  0  0  0  0  0  0  0
   70.6363   43.6707   59.2475 C   0  0  0  0  0  0  0  0  0  0  0  0
   70.9541   44.0602   60.3696 O   0  0  0  0  0  0  0  0  0  0  0  0
   68.8331   48.7277   56.2028 C   0  0  0  0  0  0  0  0  0  0  0  0
   69.2375   48.6912   54.8004 C   0  0  0  0  0  0  0  0  0  0  0  0
   70.1289   49.6637   54.4127 N   0  0  0  0  0  0  0  0  0  0  0  0
   70.5770   49.6559   53.1807 N   0  0  0  0  0  0  0  0  0  0  0  0
   70.1885   48.7266   52.2959 C   0  0  0  0  0  0  0  0  0  0  0  0
   70.6262   48.7215   51.1001 O   0  0  0  0  0  0  0  0  0  0  0  0
   69.2973   47.7250   52.6173 C   0  0  0  0  0  0  0  0  0  0  0  0
   68.8806   46.7816   51.7325 C   0  0  0  0  0  0  0  0  0  0  0  0
   67.9753   45.8205   52.1250 C   0  0  0  0  0  0  0  0  0  0  0  0
   67.4916   45.8145   53.4157 C   0  0  0  0  0  0  0  0  0  0  0  0
   67.9066   46.7774   54.3479 C   0  0  0  0  0  0  0  0  0  0  0  0
   68.8084   47.7211   53.9353 C   0  0  0  0  0  0  0  0  0  0  0  0
  8  7  1  6
  8  9  1  0
  8 13  1  0
  9 10  1  0
 10 11  2  0
 10 12  1  0
 12  1  1  0
 12 13  1  0
  1  2  2  0
  1  6  1  0
  2  3  1  0
  3  4  2  0
  4  5  1  0
  5 15  1  0
  5  6  2  0
 15 16  1  0
 16 17  2  0
 16 26  1  0
 17 18  1  0
 18 19  1  0
 19 20  2  0
 19 21  1  0
 21 22  1  0
 21 26  2  0
 22 23  2  0
 23 24  1  0
 24 25  2  0
 25 26  1  0
 13 14  2  0
M  END
>  <minimizedAffinity>  (1156) 
-8.75010

$$$$
data/reference_output_2/data/smiles/191723.pdb
     RDKit          3D

 30 33  0  0  0  0  0  0  0  0999 V2000
   69.9475   50.8797   54.1138 C   0  0  0  0  0  0  0  0  0  0  0  0
   68.7804   51.1544   53.6457 O   0  0  0  0  0  0  0  0  0  0  0  0
   70.3826   51.7238   55.1278 N   0  0  0  0  0  0  0  0  0  0  0  0
   71.5997   51.6216   55.9009 C   0  0  0  0  0  0  0  0  0  0  0  0
   71.1010   51.5769   57.3764 C   0  0  0  0  0  0  0  0  0  0  0  0
   69.6704   51.2713   57.3370 N   0  0  0  0  0  0  0  0  0  0  0  0
   69.1563   50.0111   57.7075 C   0  0  0  0  0  0  0  0  0  0  0  0
   67.9338   49.7220   57.6593 O   0  0  0  0  0  0  0  0  0  0  0  0
   68.8181   52.3606   56.8615 C   0  0  0  0  0  0  0  0  0  0  0  0
   69.5200   52.8508   55.5777 C   0  0  0  0  0  0  0  0  0  0  0  0
   70.0298   48.9291   58.1843 C   0  0  0  0  0  0  0  0  0  0  0  0
   70.9578   49.0965   59.1723 C   0  0  0  0  0  0  0  0  0  0  0  0
   71.7424   48.0442   59.5582 C   0  0  0  0  0  0  0  0  0  0  0  0
   72.6834   48.1911   60.5489 F   0  0  0  0  0  0  0  0  0  0  0  0
   71.6206   46.8037   58.9706 C   0  0  0  0  0  0  0  0  0  0  0  0
   72.3912   45.7378   59.3397 F   0  0  0  0  0  0  0  0  0  0  0  0
   70.6714   46.6625   57.9691 C   0  0  0  0  0  0  0  0  0  0  0  0
   70.5215   45.4543   57.3543 F   0  0  0  0  0  0  0  0  0  0  0  0
   69.8689   47.6998   57.5602 C   0  0  0  0  0  0  0  0  0  0  0  0
   71.9293   49.8040   53.6658 O   0  0  0  0  0  0  0  0  0  0  0  0
   70.6433   49.7609   53.5573 C   0  0  0  0  0  0  0  0  0  0  0  0
   70.1233   48.5937   52.8914 C   0  0  0  0  0  0  0  0  0  0  0  0
   70.2828   48.3120   51.5152 C   0  0  0  0  0  0  0  0  0  0  0  0
   69.5674   47.2434   51.1769 N   0  0  0  0  0  0  0  0  0  0  0  0
   68.9200   46.7780   52.2775 C   0  0  0  0  0  0  0  0  0  0  0  0
   68.1032   45.6950   52.4813 C   0  0  0  0  0  0  0  0  0  0  0  0
   67.6000   45.3993   53.7505 C   0  0  0  0  0  0  0  0  0  0  0  0
   67.9404   46.2133   54.7942 C   0  0  0  0  0  0  0  0  0  0  0  0
   68.7619   47.3005   54.5905 C   0  0  0  0  0  0  0  0  0  0  0  0
   69.2698   47.6213   53.3443 C   0  0  0  0  0  0  0  0  0  0  0  0
 20 21  2  0
 21  1  1  0
 21 22  1  0
  1  2  2  0
  1  3  1  0
  3  4  1  0
  3 10  1  0
  4  5  1  0
  5  6  1  0
  6  7  1  0
  6  9  1  0
  7  8  2  0
  7 11  1  0
 11 12  2  0
 11 19  1  0
 12 13  1  0
 13 14  1  0
 13 15  2  0
 15 16  1  0
 15 17  1  0
 17 18  1  0
 17 19  2  0
  9 10  1  0
 22 23  2  0
 22 30  1  0
 23 24  1  0
 24 25  1  0
 25 26  1  0
 25 30  2  0
 26 27  2  0
 27 28  1  0
 28 29  2  0
 29 30  1  0
M  END
>  <minimizedAffinity>  (1157) 
-8.85852

$$$$
data/reference_output_2/data/smiles/191948.pdb
     RDKit          3D

 26 29  0  0  0  0  0  0  0  0999 V2000
   71.0438   45.7827   58.2061 C   0  0  0  0  0  0  0  0  0  0  0  0
   70.0600   46.3497   57.4123 C   0  0  0  0  0  0  0  0  0  0  0  0
   69.9412   47.7232   57.2661 C   0  0  0  0  0  0  0  0  0  0  0  0
   70.8513   48.5033   57.9478 C   0  0  0  0  0  0  0  0  0  0  0  0
   71.8396   47.9624   58.7439 C   0  0  0  0  0  0  0  0  0  0  0  0
   71.9353   46.5840   58.8734 C   0  0  0  0  0  0  0  0  0  0  0  0
   72.9203   46.0936   59.6641 F   0  0  0  0  0  0  0  0  0  0  0  0
   69.2629   43.8411   59.7007 O   0  0  0  0  0  0  0  0  0  0  0  0
   70.1779   43.4897   58.9183 C   0  0  0  0  0  0  0  0  0  0  0  0
   70.4463   42.1017   58.4692 C   0  0  0  0  0  0  0  0  0  0  0  0
   71.8649   42.1487   58.0000 C   0  0  0  0  0  0  0  0  0  0  0  0
   72.2104   43.5816   57.8375 C   0  0  0  0  0  0  0  0  0  0  0  0
   73.2858   44.0101   57.3529 O   0  0  0  0  0  0  0  0  0  0  0  0
   71.1220   44.3665   58.3239 N   0  0  0  0  0  0  0  0  0  0  0  0
   68.8666   48.2790   56.4009 C   0  0  0  0  0  0  0  0  0  0  0  0
   69.3520   48.3699   55.0145 C   0  0  0  0  0  0  0  0  0  0  0  0
   70.2867   49.2742   54.6732 N   0  0  0  0  0  0  0  0  0  0  0  0
   70.7432   49.3755   53.4171 N   0  0  0  0  0  0  0  0  0  0  0  0
   70.2883   48.5769   52.4346 C   0  0  0  0  0  0  0  0  0  0  0  0
   70.7321   48.6869   51.2526 O   0  0  0  0  0  0  0  0  0  0  0  0
   69.3300   47.6262   52.7090 C   0  0  0  0  0  0  0  0  0  0  0  0
   68.8553   46.8023   51.7098 C   0  0  0  0  0  0  0  0  0  0  0  0
   67.8954   45.8573   52.0036 C   0  0  0  0  0  0  0  0  0  0  0  0
   67.4416   45.7724   53.3058 C   0  0  0  0  0  0  0  0  0  0  0  0
   67.9231   46.5979   54.2843 C   0  0  0  0  0  0  0  0  0  0  0  0
   68.8798   47.5481   54.0150 C   0  0  0  0  0  0  0  0  0  0  0  0
  8  9  2  0
  9 10  1  0
  9 14  1  0
 10 11  1  0
 11 12  1  0
 12 13  2  0
 12 14  1  0
 14  1  1  0
  1  2  2  0
  1  6  1  0
  2  3  1  0
  3 15  1  0
  3  4  2  0
 15 16  1  0
 16 17  2  0
 16 26  1  0
 17 18  1  0
 18 19  1  0
 19 20  2  0
 19 21  1  0
 21 22  1  0
 21 26  2  0
 22 23  2  0
 23 24  1  0
 24 25  2  0
 25 26  1  0
  4  5  1  0
  5  6  2  0
  6  7  1  0
M  END
>  <minimizedAffinity>  (1158) 
-9.04883

$$$$
data/reference_output_2/data/smiles/192068.pdb
     RDKit          3D

 29 31  0  0  0  0  0  0  0  0999 V2000
   68.3868   40.8173   59.9582 N   0  0  0  0  0  0  0  0  0  0  0  0
   67.5494   40.3067   58.9039 C   0  0  0  0  0  0  0  0  0  0  0  0
   67.6428   41.1383   57.6438 C   0  0  0  0  0  0  0  0  0  0  0  0
   68.9089   41.8130   57.5317 N   0  0  0  0  0  0  0  0  0  0  0  0
   69.0877   43.0054   56.7945 C   0  0  0  0  0  0  0  0  0  0  0  0
   70.2099   43.5640   56.7209 O   0  0  0  0  0  0  0  0  0  0  0  0
   68.0202   43.6522   56.0897 N   0  0  0  0  0  0  0  0  0  0  0  0
   70.0503   41.2438   58.2079 C   0  0  0  0  0  0  0  0  0  0  0  0
   69.7618   41.1620   59.7076 C   0  0  0  0  0  0  0  0  0  0  0  0
   66.5186   38.9571   64.1936 C   0  0  0  0  0  0  0  0  0  0  0  0
   66.9184   40.0902   63.3274 C   0  0  0  0  0  0  0  0  0  0  0  0
   66.7341   41.3641   63.8195 C   0  0  0  0  0  0  0  0  0  0  0  0
   67.0984   42.4364   63.0307 C   0  0  0  0  0  0  0  0  0  0  0  0
   67.6375   42.2633   61.7748 C   0  0  0  0  0  0  0  0  0  0  0  0
   67.8347   40.9769   61.2536 C   0  0  0  0  0  0  0  0  0  0  0  0
   67.4578   39.9323   62.0724 C   0  0  0  0  0  0  0  0  0  0  0  0
   67.6462   38.5508   61.5799 C   0  0  0  0  0  0  0  0  0  0  0  0
   68.2096   44.8493   55.3532 C   0  0  0  0  0  0  0  0  0  0  0  0
   68.7970   45.9409   55.9494 C   0  0  0  0  0  0  0  0  0  0  0  0
   68.9976   47.1348   55.2492 C   0  0  0  0  0  0  0  0  0  0  0  0
   68.6078   47.2516   53.9279 C   0  0  0  0  0  0  0  0  0  0  0  0
   68.0206   46.1592   53.3340 C   0  0  0  0  0  0  0  0  0  0  0  0
   67.5222   46.2883   51.6668 Cl  0  0  0  0  0  0  0  0  0  0  0  0
   67.8274   44.9830   54.0350 C   0  0  0  0  0  0  0  0  0  0  0  0
   68.8035   48.4379   53.2198 O   0  0  0  0  0  0  0  0  0  0  0  0
   70.0547   48.6246   52.0919 S   0  0  0  0  0  0  0  0  0  0  0  0
   69.7438   49.9479   51.0201 N   0  0  0  0  0  0  0  0  0  0  0  0
   71.3217   48.9341   52.8435 O   0  0  0  0  0  0  0  0  0  0  0  0
   70.3014   47.3898   51.2892 O   0  0  0  0  0  0  0  0  0  0  0  0
 10 11  1  0
 11 12  2  0
 11 16  1  0
 12 13  1  0
 13 14  2  0
 14 15  1  0
 15  1  1  0
 15 16  2  0
  1  2  1  0
  1  9  1  0
  2  3  1  0
  3  4  1  0
  4  5  1  0
  4  8  1  0
  5  6  2  0
  5  7  1  0
  7 18  1  0
 18 19  2  0
 18 24  1  0
 19 20  1  0
 20 21  2  0
 21 25  1  0
 21 22  1  0
 25 26  1  0
 26 27  1  0
 26 28  2  0
 26 29  2  0
 22 23  1  0
 22 24  2  0
  8  9  1  0
 16 17  1  0
M  END
>  <minimizedAffinity>  (1159) 
-8.65693

$$$$
data/reference_output_2/data/smiles/192078.pdb
     RDKit          3D

 28 30  0  0  0  0  0  0  0  0999 V2000
   72.2260   36.4327   57.8921 C   0  0  0  0  0  0  0  0  0  0  0  0
   71.9241   37.7712   57.9614 C   0  0  0  0  0  0  0  0  0  0  0  0
   71.0914   38.2999   58.9573 C   0  0  0  0  0  0  0  0  0  0  0  0
   70.5355   37.4744   59.9209 C   0  0  0  0  0  0  0  0  0  0  0  0
   70.8569   36.1374   59.8261 C   0  0  0  0  0  0  0  0  0  0  0  0
   71.6852   35.6173   58.8343 C   0  0  0  0  0  0  0  0  0  0  0  0
   71.9264   34.1565   58.8660 C   0  0  0  0  0  0  0  0  0  0  0  0
   73.1804   35.0954   53.1416 C   0  0  0  0  0  0  0  0  0  0  0  0
   73.5761   35.2386   54.5776 C   0  0  0  0  0  0  0  0  0  0  0  0
   74.8442   34.8346   54.9799 C   0  0  0  0  0  0  0  0  0  0  0  0
   75.2495   34.9474   56.2858 C   0  0  0  0  0  0  0  0  0  0  0  0
   74.3762   35.4723   57.2100 C   0  0  0  0  0  0  0  0  0  0  0  0
   73.0933   35.8913   56.8572 C   0  0  0  0  0  0  0  0  0  0  0  0
   72.7437   35.7538   55.5324 C   0  0  0  0  0  0  0  0  0  0  0  0
   69.6525   37.9917   60.9632 C   0  0  0  0  0  0  0  0  0  0  0  0
   68.3571   38.1937   60.8172 C   0  0  0  0  0  0  0  0  0  0  0  0
   67.4813   38.7243   61.9041 C   0  0  0  0  0  0  0  0  0  0  0  0
   68.1733   39.5518   62.8075 N   0  0  0  0  0  0  0  0  0  0  0  0
   69.5680   39.6893   62.6525 C   0  0  0  0  0  0  0  0  0  0  0  0
   70.2042   38.3408   62.2954 C   0  0  0  0  0  0  0  0  0  0  0  0
   67.4453   40.9805   63.3072 S   0  0  0  0  0  0  0  0  0  0  0  0
   66.5236   40.6697   64.4735 O   0  0  0  0  0  0  0  0  0  0  0  0
   68.4846   41.9575   63.8507 O   0  0  0  0  0  0  0  0  0  0  0  0
   66.5130   41.8534   62.1135 C   0  0  0  0  0  0  0  0  0  0  0  0
   67.2367   42.9372   61.4199 C   0  0  0  0  0  0  0  0  0  0  0  0
   66.8862   44.1495   61.5024 O   0  0  0  0  0  0  0  0  0  0  0  0
   68.3911   42.6551   60.6060 N   0  0  0  0  0  0  0  0  0  0  0  0
   69.0255   43.6734   59.9864 O   0  0  0  0  0  0  0  0  0  0  0  0
  8  9  1  0
  9 10  2  0
  9 14  1  0
 10 11  1  0
 11 12  2  0
 12 13  1  0
 13  1  1  0
 13 14  2  0
  1  2  2  0
  1  6  1  0
  2  3  1  0
  3  4  2  0
  4 15  1  0
  4  5  1  0
 15 16  2  0
 15 20  1  0
 16 17  1  0
 17 18  1  0
 18 21  1  0
 18 19  1  0
 21 22  2  0
 21 23  2  0
 21 24  1  0
 24 25  1  0
 25 26  2  0
 25 27  1  0
 27 28  1  0
 19 20  1  0
  5  6  2  0
  6  7  1  0
M  END
>  <minimizedAffinity>  (1160) 
-8.64320

$$$$
data/reference_output_2/data/smiles/192166.pdb
     RDKit          3D

 27 29  0  0  0  0  0  0  0  0999 V2000
   69.7322   48.3245   56.4865 C   0  0  0  0  0  0  0  0  0  0  0  0
   69.6811   49.7043   56.2367 C   0  0  0  0  0  0  0  0  0  0  0  0
   70.0448   50.6014   57.1724 C   0  0  0  0  0  0  0  0  0  0  0  0
   70.4755   50.1378   58.4016 C   0  0  0  0  0  0  0  0  0  0  0  0
   70.5246   48.7847   58.6425 C   0  0  0  0  0  0  0  0  0  0  0  0
   70.1482   47.8418   57.6755 C   0  0  0  0  0  0  0  0  0  0  0  0
   70.2360   46.4663   58.0267 C   0  0  0  0  0  0  0  0  0  0  0  0
   70.8112   46.1182   59.1302 O   0  0  0  0  0  0  0  0  0  0  0  0
   69.7416   45.4128   57.2647 N   0  0  0  0  0  0  0  0  0  0  0  0
   69.8612   44.0580   57.6722 N   0  0  0  0  0  0  0  0  0  0  0  0
   69.0427   43.0197   57.1862 C   0  0  0  0  0  0  0  0  0  0  0  0
   68.1648   43.3422   56.3441 O   0  0  0  0  0  0  0  0  0  0  0  0
   69.1581   41.6274   57.5988 C   0  0  0  0  0  0  0  0  0  0  0  0
   70.2657   41.1145   58.2349 C   0  0  0  0  0  0  0  0  0  0  0  0
   70.3354   39.7737   58.6137 C   0  0  0  0  0  0  0  0  0  0  0  0
   69.2913   38.9083   58.3631 C   0  0  0  0  0  0  0  0  0  0  0  0
   68.1811   39.4221   57.7248 C   0  0  0  0  0  0  0  0  0  0  0  0
   68.1234   40.7495   57.3547 C   0  0  0  0  0  0  0  0  0  0  0  0
   69.3339   47.4573   55.4514 O   0  0  0  0  0  0  0  0  0  0  0  0
   68.4905   47.8896   54.4295 C   0  0  0  0  0  0  0  0  0  0  0  0
   70.6538   49.6052   52.9847 C   0  0  0  0  0  0  0  0  0  0  0  0
   69.9817   48.4041   52.4196 C   0  0  0  0  0  0  0  0  0  0  0  0
   70.1690   47.8375   51.2067 N   0  0  0  0  0  0  0  0  0  0  0  0
   69.3911   46.8134   51.1083 O   0  0  0  0  0  0  0  0  0  0  0  0
   68.6764   46.6516   52.2005 C   0  0  0  0  0  0  0  0  0  0  0  0
   67.6786   45.5762   52.4370 C   0  0  0  0  0  0  0  0  0  0  0  0
   69.0262   47.6642   53.0856 C   0  0  0  0  0  0  0  0  0  0  0  0
 21 22  1  0
 22 23  2  0
 22 27  1  0
 23 24  1  0
 24 25  1  0
 25 26  1  0
 25 27  2  0
 27 20  1  0
 20 19  1  0
 19  1  1  0
  1  2  2  0
  1  6  1  0
  2  3  1  0
  3  4  2  0
  4  5  1  0
  5  6  2  0
  6  7  1  0
  7  8  2  0
  7  9  1  0
  9 10  1  0
 10 11  1  0
 11 12  2  0
 11 13  1  0
 13 14  2  0
 13 18  1  0
 14 15  1  0
 15 16  2  0
 16 17  1  0
 17 18  2  0
M  END
>  <minimizedAffinity>  (1161) 
-8.72337

$$$$
data/reference_output_2/data/smiles/192565.pdb
     RDKit          3D

 33 36  0  0  0  0  0  0  0  0999 V2000
   70.7728   44.4753   59.0044 C   0  0  0  0  0  0  0  0  0  0  0  0
   70.7948   45.7950   58.8637 C   0  0  0  0  0  0  0  0  0  0  0  0
   71.4785   46.5554   59.7329 N   0  0  0  0  0  0  0  0  0  0  0  0
   71.4501   47.8853   59.5645 C   0  0  0  0  0  0  0  0  0  0  0  0
   72.0965   48.5978   60.3872 O   0  0  0  0  0  0  0  0  0  0  0  0
   70.7644   48.5388   58.5590 C   0  0  0  0  0  0  0  0  0  0  0  0
   70.7514   49.8468   58.4110 C   0  0  0  0  0  0  0  0  0  0  0  0
   70.0852   47.7415   57.6992 N   0  0  0  0  0  0  0  0  0  0  0  0
   70.0878   46.4126   57.8293 C   0  0  0  0  0  0  0  0  0  0  0  0
   69.4485   45.7002   57.0151 O   0  0  0  0  0  0  0  0  0  0  0  0
   69.9871   50.4244   57.3129 C   0  0  0  0  0  0  0  0  0  0  0  0
   68.9706   51.3078   57.5933 C   0  0  0  0  0  0  0  0  0  0  0  0
   68.2240   51.8932   56.5877 C   0  0  0  0  0  0  0  0  0  0  0  0
   68.5292   51.5617   55.2652 C   0  0  0  0  0  0  0  0  0  0  0  0
   69.5394   50.6825   54.9586 C   0  0  0  0  0  0  0  0  0  0  0  0
   70.2586   50.1216   55.9989 C   0  0  0  0  0  0  0  0  0  0  0  0
   69.8505   50.3967   53.5783 C   0  0  0  0  0  0  0  0  0  0  0  0
   70.3370   51.2898   52.8514 O   0  0  0  0  0  0  0  0  0  0  0  0
   69.6070   49.0874   53.0099 C   0  0  0  0  0  0  0  0  0  0  0  0
   68.8350   48.1261   53.6353 C   0  0  0  0  0  0  0  0  0  0  0  0
   68.6288   46.8815   53.0421 C   0  0  0  0  0  0  0  0  0  0  0  0
   69.1918   46.5823   51.8108 C   0  0  0  0  0  0  0  0  0  0  0  0
   69.9376   47.5178   51.2104 N   0  0  0  0  0  0  0  0  0  0  0  0
   70.1425   48.7350   51.7853 C   0  0  0  0  0  0  0  0  0  0  0  0
   72.6581   43.0903   59.9205 C   0  0  0  0  0  0  0  0  0  0  0  0
   73.0024   42.5960   61.0973 N   0  0  0  0  0  0  0  0  0  0  0  0
   72.0824   42.9492   62.0098 C   0  0  0  0  0  0  0  0  0  0  0  0
   71.1308   43.6912   61.3796 N   0  0  0  0  0  0  0  0  0  0  0  0
   71.4694   43.7908   60.0829 C   0  0  0  0  0  0  0  0  0  0  0  0
   72.4334   42.5247   57.5181 C   0  0  0  0  0  0  0  0  0  0  0  0
   73.3616   42.9634   58.6323 C   0  0  0  0  0  0  0  0  0  0  0  0
   74.4300   41.9122   58.7644 C   0  0  0  0  0  0  0  0  0  0  0  0
   73.9924   44.2894   58.2358 C   0  0  0  0  0  0  0  0  0  0  0  0
 30 31  1  0
 31 32  1  0
 31 33  1  0
 31 25  1  0
 25 26  1  0
 25 29  2  0
 26 27  1  0
 27 28  2  0
 28 29  1  0
 29  1  1  0
  1  2  2  0
  2  3  1  0
  2  9  1  0
  3  4  1  0
  4  5  2  0
  4  6  1  0
  6  7  2  0
  6  8  1  0
  7 11  1  0
 11 12  2  0
 11 16  1  0
 12 13  1  0
 13 14  2  0
 14 15  1  0
 15 17  1  0
 15 16  2  0
 17 18  2  0
 17 19  1  0
 19 20  2  0
 19 24  1  0
 20 21  1  0
 21 22  2  0
 22 23  1  0
 23 24  2  0
  8  9  1  0
  9 10  2  0
M  CHG  1  28   1
M  END
>  <minimizedAffinity>  (1162) 
-9.87216

$$$$
data/reference_output_2/data/smiles/192653.pdb
     RDKit          3D

 25 27  0  0  0  0  0  0  0  0999 V2000
   73.8909   34.9893   53.6234 C   0  0  0  0  0  0  0  0  0  0  0  0
   73.6552   36.0710   52.9838 O   0  0  0  0  0  0  0  0  0  0  0  0
   74.9786   34.1834   53.2030 N   0  0  0  0  0  0  0  0  0  0  0  0
   75.7633   34.5693   52.1200 N   0  0  0  0  0  0  0  0  0  0  0  0
   76.8165   35.4150   52.2779 C   0  0  0  0  0  0  0  0  0  0  0  0
   77.0723   35.8944   53.6660 C   0  0  0  0  0  0  0  0  0  0  0  0
   77.5726   35.7856   51.2287 N   0  0  0  0  0  0  0  0  0  0  0  0
   77.3444   35.3547   49.9714 C   0  0  0  0  0  0  0  0  0  0  0  0
   78.1321   35.7449   48.9023 C   0  0  0  0  0  0  0  0  0  0  0  0
   77.8696   35.2831   47.6244 C   0  0  0  0  0  0  0  0  0  0  0  0
   76.8086   34.4215   47.4205 C   0  0  0  0  0  0  0  0  0  0  0  0
   76.0346   34.0438   48.4994 C   0  0  0  0  0  0  0  0  0  0  0  0
   76.2917   34.5028   49.7818 C   0  0  0  0  0  0  0  0  0  0  0  0
   75.5286   34.1347   50.8682 C   0  0  0  0  0  0  0  0  0  0  0  0
   74.5676   33.3512   50.6652 O   0  0  0  0  0  0  0  0  0  0  0  0
   73.0214   34.6420   54.7595 C   0  0  0  0  0  0  0  0  0  0  0  0
   73.5263   34.9960   56.0168 O   0  0  0  0  0  0  0  0  0  0  0  0
   71.1848   38.6009   58.4593 C   0  0  0  0  0  0  0  0  0  0  0  0
   71.6201   37.1883   58.3135 C   0  0  0  0  0  0  0  0  0  0  0  0
   71.2983   36.2308   59.2524 C   0  0  0  0  0  0  0  0  0  0  0  0
   71.7062   34.9201   59.1103 C   0  0  0  0  0  0  0  0  0  0  0  0
   72.4488   34.4857   58.0413 C   0  0  0  0  0  0  0  0  0  0  0  0
   72.8808   33.0701   57.9014 C   0  0  0  0  0  0  0  0  0  0  0  0
   72.7827   35.4475   57.0824 C   0  0  0  0  0  0  0  0  0  0  0  0
   72.3687   36.7568   57.2343 C   0  0  0  0  0  0  0  0  0  0  0  0
 18 19  1  0
 19 20  2  0
 19 25  1  0
 20 21  1  0
 21 22  2  0
 22 23  1  0
 22 24  1  0
 24 17  1  0
 24 25  2  0
 17 16  1  0
 16  1  1  0
  1  2  2  0
  1  3  1  0
  3  4  1  0
  4  5  1  0
  4 14  1  0
  5  6  1  0
  5  7  2  0
  7  8  1  0
  8  9  2  0
  8 13  1  0
  9 10  1  0
 10 11  2  0
 11 12  1  0
 12 13  2  0
 13 14  1  0
 14 15  2  0
M  END
>  <minimizedAffinity>  (1163) 
-8.60678

$$$$
data/reference_output_2/data/smiles/192834.pdb
     RDKit          3D

 27 29  0  0  0  0  0  0  0  0999 V2000
   70.9831   42.0045   58.4862 C   0  0  2  0  0  0  0  0  0  0  0  0
   72.5029   42.2265   58.3144 C   0  0  0  0  0  0  0  0  0  0  0  0
   72.9304   43.3415   59.2369 C   0  0  0  0  0  0  0  0  0  0  0  0
   72.0979   44.5663   59.1442 C   0  0  0  0  0  0  0  0  0  0  0  0
   70.9819   44.4745   58.2003 C   0  0  0  0  0  0  0  0  0  0  0  0
   70.4757   45.6582   57.6273 C   0  0  0  0  0  0  0  0  0  0  0  0
   69.4283   45.6434   56.7381 C   0  0  0  0  0  0  0  0  0  0  0  0
   68.8925   44.4115   56.4304 C   0  0  0  0  0  0  0  0  0  0  0  0
   69.3877   43.2491   56.9907 C   0  0  0  0  0  0  0  0  0  0  0  0
   68.8565   42.0273   56.6788 F   0  0  0  0  0  0  0  0  0  0  0  0
   70.4364   43.2535   57.8830 C   0  0  0  0  0  0  0  0  0  0  0  0
   68.7991   47.1263   56.0246 S   0  0  0  0  0  0  0  0  0  0  0  0
   67.4147   47.3217   56.5641 O   0  0  0  0  0  0  0  0  0  0  0  0
   69.6977   48.2819   56.3438 O   0  0  0  0  0  0  0  0  0  0  0  0
   68.6576   46.9561   54.2793 C   0  0  0  0  0  0  0  0  0  0  0  0
   69.3315   47.8256   53.4376 C   0  0  0  0  0  0  0  0  0  0  0  0
   69.2482   47.7270   52.0532 C   0  0  0  0  0  0  0  0  0  0  0  0
   68.4725   46.7393   51.4774 C   0  0  0  0  0  0  0  0  0  0  0  0
   67.7943   45.8642   52.3018 C   0  0  0  0  0  0  0  0  0  0  0  0
   67.0340   44.8940   51.7285 F   0  0  0  0  0  0  0  0  0  0  0  0
   67.8895   45.9774   53.6922 C   0  0  0  0  0  0  0  0  0  0  0  0
   70.6341   41.8051   59.9178 C   0  0  0  0  0  0  0  0  0  0  0  0
   68.4984   43.5296   60.6729 O   0  0  0  0  0  0  0  0  0  0  0  0
   68.2118   42.3455   60.4163 C   0  0  0  0  0  0  0  0  0  0  0  0
   69.2439   41.4630   60.0387 N   0  0  0  0  0  0  0  0  0  0  0  0
   66.7989   41.8758   60.5087 C   0  0  0  0  0  0  0  0  0  0  0  0
   66.0006   42.9251   60.9339 O   0  0  0  0  0  0  0  0  0  0  0  0
 23 24  2  0
 24 26  1  0
 24 25  1  0
 26 27  1  0
 25 22  1  0
  1 22  1  1
  1  2  1  0
  1 11  1  0
  2  3  1  0
  3  4  1  0
  4  5  1  0
  5  6  1  0
  5 11  2  0
  6  7  2  0
  7 12  1  0
  7  8  1  0
 12 13  2  0
 12 14  2  0
 12 15  1  0
 15 16  2  0
 15 21  1  0
 16 17  1  0
 17 18  2  0
 18 19  1  0
 19 20  1  0
 19 21  2  0
  8  9  2  0
  9 10  1  0
  9 11  1  0
M  END
>  <minimizedAffinity>  (1164) 
-8.61600

$$$$
data/reference_output_2/data/smiles/192842.pdb
     RDKit          3D

 20 21  0  0  0  0  0  0  0  0999 V2000
   68.5595   45.8844   55.6326 C   0  0  0  0  0  0  0  0  0  0  0  0
   68.9245   46.4994   56.5997 N   0  0  0  0  0  0  0  0  0  0  0  0
   69.3536   47.7084   52.3793 C   0  0  0  0  0  0  0  0  0  0  0  0
   68.5449   47.0436   51.4958 C   0  0  0  0  0  0  0  0  0  0  0  0
   67.7437   46.0109   51.9483 C   0  0  0  0  0  0  0  0  0  0  0  0
   67.7545   45.6516   53.2702 C   0  0  0  0  0  0  0  0  0  0  0  0
   68.5556   46.2914   54.2106 C   0  0  0  0  0  0  0  0  0  0  0  0
   69.3310   47.3057   53.7166 C   0  0  0  0  0  0  0  0  0  0  0  0
   69.9452   49.4599   50.9688 O   0  0  0  0  0  0  0  0  0  0  0  0
   70.1996   48.7767   51.9765 N   0  0  0  0  0  0  0  0  0  0  0  0
   71.3257   49.0850   52.6927 O   0  0  0  0  0  0  0  0  0  0  0  0
   68.0509   44.5423   55.8915 N   0  0  0  0  0  0  0  0  0  0  0  0
   68.6357   43.7158   56.7896 O   0  0  0  0  0  0  0  0  0  0  0  0
   69.4426   47.6138   57.1522 C   0  0  0  0  0  0  0  0  0  0  0  0
   68.4888   48.7849   57.2670 C   0  0  0  0  0  0  0  0  0  0  0  0
   68.9080   49.9646   56.6955 C   0  0  0  0  0  0  0  0  0  0  0  0
   68.0969   51.1003   56.7533 C   0  0  0  0  0  0  0  0  0  0  0  0
   66.8834   50.9858   57.3955 C   0  0  0  0  0  0  0  0  0  0  0  0
   66.4714   49.8127   57.9618 C   0  0  0  0  0  0  0  0  0  0  0  0
   67.2878   48.6820   57.8991 C   0  0  0  0  0  0  0  0  0  0  0  0
  9 10  2  0
 10 11  1  0
 10  3  1  0
  3  4  2  0
  3  8  1  0
  4  5  1  0
  5  6  2  0
  6  7  1  0
  7  1  1  0
  7  8  2  0
  1  2  2  0
  1 12  1  0
  2 14  1  0
 14 15  1  0
 15 16  2  0
 15 20  1  0
 16 17  1  0
 17 18  2  0
 18 19  1  0
 19 20  2  0
 12 13  1  0
M  CHG  3   2   1  10   1  11  -1
M  END
>  <minimizedAffinity>  (1165) 
-9.06206

$$$$
data/reference_output_2/data/smiles/192927.pdb
     RDKit          3D

 23 25  0  0  0  0  0  0  0  0999 V2000
   69.1242   45.2175   56.6834 C   0  0  0  0  0  0  0  0  0  0  0  0
   70.2219   45.8387   57.2446 N   0  0  0  0  0  0  0  0  0  0  0  0
   71.0825   45.1232   57.9596 C   0  0  0  0  0  0  0  0  0  0  0  0
   70.9320   43.7573   58.1746 C   0  0  0  0  0  0  0  0  0  0  0  0
   69.8436   43.1430   57.6182 C   0  0  0  0  0  0  0  0  0  0  0  0
   68.9986   43.9040   56.9026 N   0  0  0  0  0  0  0  0  0  0  0  0
   69.5867   41.7111   57.7953 C   0  0  0  0  0  0  0  0  0  0  0  0
   70.5622   40.9048   58.3827 C   0  0  0  0  0  0  0  0  0  0  0  0
   70.3840   39.5634   58.5788 C   0  0  0  0  0  0  0  0  0  0  0  0
   69.2171   38.9748   58.1928 C   0  0  0  0  0  0  0  0  0  0  0  0
   68.2433   39.7287   57.6160 C   0  0  0  0  0  0  0  0  0  0  0  0
   68.4345   41.1031   57.4195 C   0  0  0  0  0  0  0  0  0  0  0  0
   68.1952   45.9861   55.9497 N   0  0  0  0  0  0  0  0  0  0  0  0
   69.1313   47.7749   52.8262 C   0  0  0  0  0  0  0  0  0  0  0  0
   68.5981   46.9673   51.8482 C   0  0  0  0  0  0  0  0  0  0  0  0
   67.9333   45.8237   52.2132 C   0  0  0  0  0  0  0  0  0  0  0  0
   67.7924   45.4750   53.5629 C   0  0  0  0  0  0  0  0  0  0  0  0
   68.3108   46.2565   54.5667 C   0  0  0  0  0  0  0  0  0  0  0  0
   68.9823   47.4156   54.1412 C   0  0  0  0  0  0  0  0  0  0  0  0
   69.2687   50.5544   53.2696 N   0  0  0  0  0  0  0  0  0  0  0  0
   69.9996   49.2610   52.4116 S   0  0  0  0  0  0  0  0  0  0  0  0
   69.9312   49.5139   50.9338 O   0  0  0  0  0  0  0  0  0  0  0  0
   71.4353   49.0516   52.7941 O   0  0  0  0  0  0  0  0  0  0  0  0
 20 21  1  0
 21 22  2  0
 21 23  2  0
 21 14  1  0
 14 15  2  0
 14 19  1  0
 15 16  1  0
 16 17  2  0
 17 18  1  0
 18 13  1  0
 18 19  2  0
 13  1  1  0
  1  2  2  0
  1  6  1  0
  2  3  1  0
  3  4  2  0
  4  5  1  0
  5  7  1  0
  5  6  2  0
  7  8  2  0
  7 12  1  0
  8  9  1  0
  9 10  2  0
 10 11  1  0
 11 12  2  0
M  END
>  <minimizedAffinity>  (1166) 
-9.39881

$$$$
data/reference_output_2/data/smiles/193000.pdb
     RDKit          3D

 24 26  0  0  0  0  0  0  0  0999 V2000
   68.1682   43.3150   56.2245 C   0  0  0  0  0  0  0  0  0  0  0  0
   68.9376   43.7015   57.1531 O   0  0  0  0  0  0  0  0  0  0  0  0
   67.8060   44.2837   55.2583 N   0  0  0  0  0  0  0  0  0  0  0  0
   68.2943   45.6031   55.3689 N   0  0  0  0  0  0  0  0  0  0  0  0
   68.4128   46.3651   54.3349 C   0  0  0  0  0  0  0  0  0  0  0  0
   68.0873   46.0478   52.9232 C   0  0  0  0  0  0  0  0  0  0  0  0
   68.9463   46.9712   52.1638 C   0  0  0  0  0  0  0  0  0  0  0  0
   69.3834   46.8269   50.9725 O   0  0  0  0  0  0  0  0  0  0  0  0
   69.2208   48.1115   53.0273 C   0  0  0  0  0  0  0  0  0  0  0  0
   69.7131   49.3918   52.7554 C   0  0  0  0  0  0  0  0  0  0  0  0
   69.8828   50.3012   53.7777 C   0  0  0  0  0  0  0  0  0  0  0  0
   69.5631   49.9320   55.0664 C   0  0  0  0  0  0  0  0  0  0  0  0
   69.0734   48.6608   55.3474 C   0  0  0  0  0  0  0  0  0  0  0  0
   68.9009   47.7436   54.3172 C   0  0  0  0  0  0  0  0  0  0  0  0
   67.7428   41.9183   56.2484 C   0  0  0  0  0  0  0  0  0  0  0  0
   67.6635   41.2927   57.4803 O   0  0  0  0  0  0  0  0  0  0  0  0
   70.1603   38.2296   58.9667 C   0  0  0  0  0  0  0  0  0  0  0  0
   68.7929   38.0786   58.8884 C   0  0  0  0  0  0  0  0  0  0  0  0
   67.9743   39.0749   58.4045 C   0  0  0  0  0  0  0  0  0  0  0  0
   68.4816   40.2883   57.9673 C   0  0  0  0  0  0  0  0  0  0  0  0
   69.8556   40.4319   58.0493 C   0  0  0  0  0  0  0  0  0  0  0  0
   70.6735   39.4361   58.5329 C   0  0  0  0  0  0  0  0  0  0  0  0
   71.8967   36.5275   58.4290 C   0  0  0  0  0  0  0  0  0  0  0  0
   71.0137   37.1436   59.4896 C   0  0  0  0  0  0  0  0  0  0  0  0
 23 24  1  0
 24 17  1  0
 17 18  2  0
 17 22  1  0
 18 19  1  0
 19 20  2  0
 20 16  1  0
 20 21  1  0
 16 15  1  0
 15  1  1  0
  1  2  2  0
  1  3  1  0
  3  4  1  0
  4  5  2  0
  5  6  1  0
  5 14  1  0
  6  7  1  0
  7  8  2  0
  7  9  1  0
  9 10  1  0
  9 14  2  0
 10 11  2  0
 11 12  1  0
 12 13  2  0
 13 14  1  0
 21 22  2  0
M  END
>  <minimizedAffinity>  (1167) 
-8.69540

$$$$
data/reference_output_2/data/smiles/193159.pdb
     RDKit          3D

 31 34  0  0  0  0  0  0  0  0999 V2000
   68.4475   41.0702   57.8831 C   0  0  0  0  0  0  0  0  0  0  0  0
   69.3767   40.1737   58.1432 C   0  0  0  0  0  0  0  0  0  0  0  0
   70.6518   40.5528   58.1387 N   0  0  0  0  0  0  0  0  0  0  0  0
   71.5931   39.6237   58.4074 C   0  0  0  0  0  0  0  0  0  0  0  0
   72.8176   39.9338   58.4143 O   0  0  0  0  0  0  0  0  0  0  0  0
   71.2873   38.3045   58.6851 C   0  0  0  0  0  0  0  0  0  0  0  0
   72.2040   37.3883   58.9487 C   0  0  0  0  0  0  0  0  0  0  0  0
   70.0137   37.9282   58.6892 N   0  0  0  0  0  0  0  0  0  0  0  0
   69.0627   38.8408   58.4238 C   0  0  0  0  0  0  0  0  0  0  0  0
   67.8371   38.5465   58.4125 O   0  0  0  0  0  0  0  0  0  0  0  0
   70.0234   43.1194   59.6659 C   0  0  0  0  0  0  0  0  0  0  0  0
   69.4400   43.3914   58.3208 C   0  0  0  0  0  0  0  0  0  0  0  0
   69.4578   44.4919   57.6242 O   0  0  0  0  0  0  0  0  0  0  0  0
   68.8377   44.3650   56.4701 C   0  0  0  0  0  0  0  0  0  0  0  0
   68.3704   43.0678   56.4008 C   0  0  0  0  0  0  0  0  0  0  0  0
   68.7678   42.4710   57.5890 C   0  0  0  0  0  0  0  0  0  0  0  0
   68.6452   45.3538   55.4301 C   0  0  0  0  0  0  0  0  0  0  0  0
   69.0689   46.6482   55.6067 C   0  0  0  0  0  0  0  0  0  0  0  0
   68.8937   47.6159   54.6157 C   0  0  0  0  0  0  0  0  0  0  0  0
   68.2833   47.2598   53.4439 C   0  0  0  0  0  0  0  0  0  0  0  0
   67.8496   45.9745   53.2407 C   0  0  0  0  0  0  0  0  0  0  0  0
   68.0381   45.0222   54.2508 C   0  0  0  0  0  0  0  0  0  0  0  0
   71.8405   36.0043   59.2367 C   0  0  0  0  0  0  0  0  0  0  0  0
   71.0196   35.5178   60.1724 N   0  0  0  0  0  0  0  0  0  0  0  0
   71.0159   34.1804   60.0322 C   0  0  0  0  0  0  0  0  0  0  0  0
   71.7977   33.8167   59.0518 O   0  0  0  0  0  0  0  0  0  0  0  0
   72.3161   34.9054   58.5454 C   0  0  0  0  0  0  0  0  0  0  0  0
   73.2717   34.9316   57.3975 C   0  0  0  0  0  0  0  0  0  0  0  0
   72.7972   35.8411   56.2974 C   0  0  0  0  0  0  0  0  0  0  0  0
   73.4337   33.5032   56.8655 C   0  0  0  0  0  0  0  0  0  0  0  0
   74.6236   35.4012   57.8455 C   0  0  0  0  0  0  0  0  0  0  0  0
 11 12  1  0
 12 13  1  0
 12 16  2  0
 13 14  1  0
 14 17  1  0
 14 15  2  0
 17 18  2  0
 17 22  1  0
 18 19  1  0
 19 20  2  0
 20 21  1  0
 21 22  2  0
 15 16  1  0
 16  1  1  0
  1  2  2  0
  2  3  1  0
  2  9  1  0
  3  4  1  0
  4  5  2  0
  4  6  1  0
  6  7  2  0
  6  8  1  0
  7 23  1  0
 23 24  1  0
 23 27  2  0
 24 25  2  0
 25 26  1  0
 26 27  1  0
 27 28  1  0
 28 29  1  0
 28 30  1  0
 28 31  1  0
  8  9  1  0
  9 10  2  0
M  END
>  <minimizedAffinity>  (1168) 
-8.67269

$$$$
data/reference_output_2/data/smiles/193169.pdb
     RDKit          3D

 27 30  0  0  0  0  0  0  0  0999 V2000
   71.4886   47.3227   58.9898 C   0  0  0  0  0  0  0  0  0  0  0  0
   71.2529   45.9371   58.9346 C   0  0  0  0  0  0  0  0  0  0  0  0
   70.4032   45.4189   57.9923 C   0  0  0  0  0  0  0  0  0  0  0  0
   69.8102   46.3037   57.1304 C   0  0  0  0  0  0  0  0  0  0  0  0
   69.9923   47.6189   57.1343 N   0  0  0  0  0  0  0  0  0  0  0  0
   70.8447   48.1208   58.0814 C   0  0  0  0  0  0  0  0  0  0  0  0
   71.0145   49.3838   58.0805 O   0  0  0  0  0  0  0  0  0  0  0  0
   74.3547   49.1009   60.9289 C   0  0  0  0  0  0  0  0  0  0  0  0
   73.5264   48.6418   59.8165 N   0  0  0  0  0  0  0  0  0  0  0  0
   72.3903   47.8426   59.9935 C   0  0  0  0  0  0  0  0  0  0  0  0
   72.1386   47.5467   61.2248 O   0  0  0  0  0  0  0  0  0  0  0  0
   70.1606   43.9825   57.9369 C   0  0  0  0  0  0  0  0  0  0  0  0
   71.0182   43.1848   58.4481 O   0  0  0  0  0  0  0  0  0  0  0  0
   69.0357   43.3840   57.3542 N   0  0  0  0  0  0  0  0  0  0  0  0
   68.8303   41.9487   57.3186 C   0  0  0  0  0  0  0  0  0  0  0  0
   67.6158   41.3484   57.9153 C   0  0  0  0  0  0  0  0  0  0  0  0
   67.7585   41.4011   56.4206 C   0  0  0  0  0  0  0  0  0  0  0  0
   69.3896   48.5445   56.2415 C   0  0  0  0  0  0  0  0  0  0  0  0
   69.1892   48.1470   54.8674 C   0  0  0  0  0  0  0  0  0  0  0  0
   69.8990   48.7412   53.8558 C   0  0  0  0  0  0  0  0  0  0  0  0
   69.7410   48.3841   52.5210 C   0  0  0  0  0  0  0  0  0  0  0  0
   68.8378   47.3986   52.2009 C   0  0  0  0  0  0  0  0  0  0  0  0
   68.4343   46.8143   51.0543 N   0  0  0  0  0  0  0  0  0  0  0  0
   67.5020   45.8813   51.3162 C   0  0  0  0  0  0  0  0  0  0  0  0
   67.2821   45.8420   52.6444 N   0  0  0  0  0  0  0  0  0  0  0  0
   68.1057   46.7795   53.2000 C   0  0  0  0  0  0  0  0  0  0  0  0
   68.2908   47.1615   54.5139 C   0  0  0  0  0  0  0  0  0  0  0  0
  8  9  1  0
  9 10  1  0
 10 11  2  0
 10  1  1  0
  1  2  2  0
  1  6  1  0
  2  3  1  0
  3 12  1  0
  3  4  2  0
 12 13  2  0
 12 14  1  0
 14 15  1  0
 15 16  1  0
 15 17  1  0
 16 17  1  0
  4  5  1  0
  5 18  1  0
  5  6  1  0
 18 19  1  0
 19 20  2  0
 19 27  1  0
 20 21  1  0
 21 22  2  0
 22 23  1  0
 22 26  1  0
 23 24  2  0
 24 25  1  0
 25 26  1  0
 26 27  2  0
  6  7  2  0
M  CHG  1  23   1
M  END
>  <minimizedAffinity>  (1169) 
-8.75451

$$$$
data/reference_output_2/data/smiles/193222.pdb
     RDKit          3D

 30 34  0  0  0  0  0  0  0  0999 V2000
   68.1979   46.2358   53.4561 C   0  0  0  0  0  0  0  0  0  0  0  0
   68.1503   44.9726   54.0777 C   0  0  0  0  0  0  0  0  0  0  0  0
   68.3234   44.8159   55.4244 C   0  0  0  0  0  0  0  0  0  0  0  0
   68.5459   45.9313   56.1471 N   0  0  0  0  0  0  0  0  0  0  0  0
   68.6003   47.1654   55.5945 C   0  0  0  0  0  0  0  0  0  0  0  0
   68.4263   47.3502   54.2287 C   0  0  0  0  0  0  0  0  0  0  0  0
   68.5293   48.6629   53.9573 N   0  0  0  0  0  0  0  0  0  0  0  0
   68.7669   49.3752   55.0961 C   0  0  0  0  0  0  0  0  0  0  0  0
   68.9465   50.7200   55.3406 C   0  0  0  0  0  0  0  0  0  0  0  0
   69.1787   51.1941   56.6268 C   0  0  0  0  0  0  0  0  0  0  0  0
   69.3639   52.5820   56.8814 N   0  0  0  0  0  0  0  0  0  0  0  0
   69.2214   50.2540   57.6353 C   0  0  0  0  0  0  0  0  0  0  0  0
   69.0401   48.9114   57.3761 C   0  0  0  0  0  0  0  0  0  0  0  0
   68.8079   48.4332   56.0999 C   0  0  0  0  0  0  0  0  0  0  0  0
   68.2740   43.4943   56.0717 C   0  0  0  0  0  0  0  0  0  0  0  0
   67.2709   42.5906   55.8402 C   0  0  0  0  0  0  0  0  0  0  0  0
   67.2582   41.3416   56.4775 C   0  0  0  0  0  0  0  0  0  0  0  0
   68.2464   40.9668   57.3595 C   0  0  0  0  0  0  0  0  0  0  0  0
   69.2552   41.8954   57.5822 C   0  0  0  0  0  0  0  0  0  0  0  0
   69.2622   43.1153   56.9568 C   0  0  0  0  0  0  0  0  0  0  0  0
   68.2453   39.6469   58.0409 C   0  0  0  0  0  0  0  0  0  0  0  0
   67.3235   39.7088   59.1233 N   0  0  0  0  0  0  0  0  0  0  0  0
   66.8192   38.4512   59.5769 C   0  0  0  0  0  0  0  0  0  0  0  0
   65.4890   38.7386   60.2748 C   0  0  0  0  0  0  0  0  0  0  0  0
   65.3559   40.0856   60.5829 O   0  0  0  0  0  0  0  0  0  0  0  0
   66.5047   40.6176   61.1601 C   0  0  0  0  0  0  0  0  0  0  0  0
   67.6710   40.6193   60.1726 C   0  0  0  0  0  0  0  0  0  0  0  0
   66.9458   45.6654   51.3726 N   0  0  0  0  0  0  0  0  0  0  0  0
   68.0050   46.3395   52.0153 C   0  0  0  0  0  0  0  0  0  0  0  0
   68.7755   47.0333   51.2877 O   0  0  0  0  0  0  0  0  0  0  0  0
 28 29  1  0
 29 30  2  0
 29  1  1  0
  1  2  2  0
  1  6  1  0
  2  3  1  0
  3 15  1  0
  3  4  2  0
 15 16  2  0
 15 20  1  0
 16 17  1  0
 17 18  2  0
 18 21  1  0
 18 19  1  0
 21 22  1  0
 22 23  1  0
 22 27  1  0
 23 24  1  0
 24 25  1  0
 25 26  1  0
 26 27  1  0
 19 20  2  0
  4  5  1  0
  5  6  2  0
  5 14  1  0
  6  7  1  0
  7  8  1  0
  8  9  1  0
  8 14  2  0
  9 10  2  0
 10 11  1  0
 10 12  1  0
 12 13  2  0
 13 14  1  0
M  CHG  1  22   1
M  END
>  <minimizedAffinity>  (1170) 
-8.51311

$$$$
data/reference_output_2/data/smiles/193244.pdb
     RDKit          3D

 31 34  0  0  0  0  0  0  0  0999 V2000
   71.4403   46.7710   58.8600 C   0  0  0  0  0  0  0  0  0  0  0  0
   70.4717   47.5062   58.1518 C   0  0  0  0  0  0  0  0  0  0  0  0
   69.5977   46.9197   57.3014 C   0  0  0  0  0  0  0  0  0  0  0  0
   69.6963   45.5300   57.1500 C   0  0  0  0  0  0  0  0  0  0  0  0
   70.6185   44.7709   57.8125 C   0  0  0  0  0  0  0  0  0  0  0  0
   71.5080   45.4062   58.6851 C   0  0  0  0  0  0  0  0  0  0  0  0
   72.4371   44.6556   59.3555 F   0  0  0  0  0  0  0  0  0  0  0  0
   74.8894   50.5129   55.5081 C   0  0  0  0  0  0  0  0  0  0  0  0
   74.2935   50.7278   56.8579 C   0  0  0  0  0  0  0  0  0  0  0  0
   73.8224   51.8907   57.0627 O   0  0  0  0  0  0  0  0  0  0  0  0
   74.2481   49.7150   57.8527 N   0  0  0  0  0  0  0  0  0  0  0  0
   73.6306   50.1316   59.0970 C   0  0  0  0  0  0  0  0  0  0  0  0
   74.5131   49.7444   60.2877 C   0  0  0  0  0  0  0  0  0  0  0  0
   74.4851   48.2778   60.5675 C   0  0  0  0  0  0  0  0  0  0  0  0
   73.7122   47.6410   59.4939 N   0  0  0  0  0  0  0  0  0  0  0  0
   72.3631   47.3849   59.7796 C   0  0  0  0  0  0  0  0  0  0  0  0
   71.9091   47.7082   60.9133 O   0  0  0  0  0  0  0  0  0  0  0  0
   74.2678   47.2875   58.2230 C   0  0  0  0  0  0  0  0  0  0  0  0
   74.8148   48.4660   57.4634 C   0  0  0  0  0  0  0  0  0  0  0  0
   68.5577   47.6567   56.5550 C   0  0  0  0  0  0  0  0  0  0  0  0
   69.1019   47.9769   55.2138 C   0  0  0  0  0  0  0  0  0  0  0  0
   70.0635   48.9509   55.1152 N   0  0  0  0  0  0  0  0  0  0  0  0
   70.6466   49.2633   53.9860 N   0  0  0  0  0  0  0  0  0  0  0  0
   70.3182   48.6298   52.8582 C   0  0  0  0  0  0  0  0  0  0  0  0
   70.8837   48.9269   51.7495 O   0  0  0  0  0  0  0  0  0  0  0  0
   69.3606   47.6305   52.8387 C   0  0  0  0  0  0  0  0  0  0  0  0
   69.0176   46.9936   51.6630 C   0  0  0  0  0  0  0  0  0  0  0  0
   68.0402   46.0245   51.7285 C   0  0  0  0  0  0  0  0  0  0  0  0
   67.4375   45.7131   52.9196 C   0  0  0  0  0  0  0  0  0  0  0  0
   67.7856   46.3505   54.0811 C   0  0  0  0  0  0  0  0  0  0  0  0
   68.7591   47.3248   54.0674 C   0  0  0  0  0  0  0  0  0  0  0  0
  8  9  1  0
  9 10  2  0
  9 11  1  0
 11 12  1  0
 11 19  1  0
 12 13  1  0
 13 14  1  0
 14 15  1  0
 15 16  1  0
 15 18  1  0
 16 17  2  0
 16  1  1  0
  1  2  2  0
  1  6  1  0
  2  3  1  0
  3 20  1  0
  3  4  2  0
 20 21  1  0
 21 22  2  0
 21 31  1  0
 22 23  1  0
 23 24  1  0
 24 25  2  0
 24 26  1  0
 26 27  1  0
 26 31  2  0
 27 28  2  0
 28 29  1  0
 29 30  2  0
 30 31  1  0
  4  5  1  0
  5  6  2  0
  6  7  1  0
 18 19  1  0
M  END
>  <minimizedAffinity>  (1171) 
-9.19085

$$$$
data/reference_output_2/data/smiles/193421.pdb
     RDKit          3D

 29 32  0  0  0  0  0  0  0  0999 V2000
   70.0285   42.0544   58.4045 C   0  0  0  0  0  0  0  0  0  0  0  0
   69.5357   42.9620   57.5523 C   0  0  0  0  0  0  0  0  0  0  0  0
   68.5523   42.6535   56.6885 N   0  0  0  0  0  0  0  0  0  0  0  0
   68.0548   43.5654   55.8300 C   0  0  0  0  0  0  0  0  0  0  0  0
   67.1291   43.2592   55.0228 O   0  0  0  0  0  0  0  0  0  0  0  0
   68.5317   44.8633   55.7927 C   0  0  0  0  0  0  0  0  0  0  0  0
   68.0693   45.7842   54.9656 C   0  0  0  0  0  0  0  0  0  0  0  0
   69.5157   45.1665   56.6590 N   0  0  0  0  0  0  0  0  0  0  0  0
   70.0161   44.2540   57.5211 C   0  0  0  0  0  0  0  0  0  0  0  0
   70.9330   44.5594   58.3185 O   0  0  0  0  0  0  0  0  0  0  0  0
   68.5770   47.1455   54.9351 C   0  0  0  0  0  0  0  0  0  0  0  0
   68.5339   47.9288   56.0672 C   0  0  0  0  0  0  0  0  0  0  0  0
   69.0132   49.2380   56.0673 C   0  0  0  0  0  0  0  0  0  0  0  0
   69.5434   49.7708   54.9118 C   0  0  0  0  0  0  0  0  0  0  0  0
   69.5867   48.9903   53.7812 C   0  0  0  0  0  0  0  0  0  0  0  0
   70.1203   49.5389   52.6356 C   0  0  0  0  0  0  0  0  0  0  0  0
   70.1920   48.8258   51.4922 N   0  0  0  0  0  0  0  0  0  0  0  0
   69.7372   47.5823   51.4894 C   0  0  0  0  0  0  0  0  0  0  0  0
   69.1949   46.9924   52.6139 C   0  0  0  0  0  0  0  0  0  0  0  0
   69.1058   47.6903   53.7994 C   0  0  0  0  0  0  0  0  0  0  0  0
   70.1016   39.5129   58.7018 C   0  0  0  0  0  0  0  0  0  0  0  0
   69.2058   38.5004   58.5623 N   0  0  0  0  0  0  0  0  0  0  0  0
   68.0657   39.0564   58.1838 C   0  0  0  0  0  0  0  0  0  0  0  0
   68.2308   40.3963   58.0842 N   0  0  0  0  0  0  0  0  0  0  0  0
   69.4946   40.7091   58.4024 C   0  0  0  0  0  0  0  0  0  0  0  0
   71.6962   39.3664   60.5975 C   0  0  0  0  0  0  0  0  0  0  0  0
   71.5157   39.3693   59.1118 C   0  0  0  0  0  0  0  0  0  0  0  0
   72.0676   38.0574   58.5794 C   0  0  0  0  0  0  0  0  0  0  0  0
   72.3925   40.4672   58.5029 C   0  0  0  0  0  0  0  0  0  0  0  0
 26 27  1  0
 27 28  1  0
 27 29  1  0
 27 21  1  0
 21 22  1  0
 21 25  2  0
 22 23  1  0
 23 24  2  0
 24 25  1  0
 25  1  1  0
  1  2  2  0
  2  3  1  0
  2  9  1  0
  3  4  1  0
  4  5  2  0
  4  6  1  0
  6  7  2  0
  6  8  1  0
  7 11  1  0
 11 12  2  0
 11 20  1  0
 12 13  1  0
 13 14  2  0
 14 15  1  0
 15 16  1  0
 15 20  2  0
 16 17  2  0
 17 18  1  0
 18 19  2  0
 19 20  1  0
  8  9  1  0
  9 10  2  0
M  CHG  1  24   1
M  END
>  <minimizedAffinity>  (1172) 
-8.68036

$$$$
data/reference_output_2/data/smiles/193474.pdb
     RDKit          3D

 28 31  0  0  0  0  0  0  0  0999 V2000
   69.2094   48.1841   55.3610 C   0  0  0  0  0  0  0  0  0  0  0  0
   68.8659   49.5102   55.6574 C   0  0  0  0  0  0  0  0  0  0  0  0
   69.1830   50.0991   56.8198 N   0  0  0  0  0  0  0  0  0  0  0  0
   69.8620   49.4141   57.7700 C   0  0  0  0  0  0  0  0  0  0  0  0
   70.2438   48.1035   57.5721 C   0  0  0  0  0  0  0  0  0  0  0  0
   69.9037   47.5282   56.3680 C   0  0  0  0  0  0  0  0  0  0  0  0
   70.9753   47.4014   58.6225 C   0  0  0  0  0  0  0  0  0  0  0  0
   70.8221   46.0505   58.8573 C   0  0  0  0  0  0  0  0  0  0  0  0
   71.5078   45.4244   59.8323 N   0  0  0  0  0  0  0  0  0  0  0  0
   72.3872   46.0652   60.6442 C   0  0  0  0  0  0  0  0  0  0  0  0
   72.5784   47.4127   60.4530 C   0  0  0  0  0  0  0  0  0  0  0  0
   71.8669   48.0667   59.4399 C   0  0  0  0  0  0  0  0  0  0  0  0
   73.5140   48.2447   61.2695 C   0  0  0  0  0  0  0  0  0  0  0  0
   74.0031   47.5430   62.4860 C   0  0  0  0  0  0  0  0  0  0  0  0
   74.2461   46.0675   62.2719 C   0  0  0  0  0  0  0  0  0  0  0  0
   73.1046   45.4141   61.6640 N   0  0  0  0  0  0  0  0  0  0  0  0
   72.6902   44.1007   62.0898 C   0  0  0  0  0  0  0  0  0  0  0  0
   73.4403   43.4737   63.1209 N   0  0  0  0  0  0  0  0  0  0  0  0
   71.6975   43.5577   61.5466 O   0  0  0  0  0  0  0  0  0  0  0  0
   69.3492   47.9603   52.9261 C   0  0  0  0  0  0  0  0  0  0  0  0
   68.9942   47.2945   51.7360 C   0  0  0  0  0  0  0  0  0  0  0  0
   68.1205   46.2404   51.7686 C   0  0  0  0  0  0  0  0  0  0  0  0
   67.5903   45.8314   52.9623 C   0  0  0  0  0  0  0  0  0  0  0  0
   67.9437   46.4873   54.1242 C   0  0  0  0  0  0  0  0  0  0  0  0
   68.8259   47.5568   54.1231 C   0  0  0  0  0  0  0  0  0  0  0  0
   69.7442   50.3301   52.3110 N   0  0  0  0  0  0  0  0  0  0  0  0
   70.2475   49.0695   52.7901 C   0  0  0  0  0  0  0  0  0  0  0  0
   71.4715   49.0563   53.0546 O   0  0  0  0  0  0  0  0  0  0  0  0
 26 27  1  0
 27 28  2  0
 27 20  1  0
 20 21  2  0
 20 25  1  0
 21 22  1  0
 22 23  2  0
 23 24  1  0
 24 25  2  0
 25  1  1  0
  1  2  2  0
  1  6  1  0
  2  3  1  0
  3  4  2  0
  4  5  1  0
  5  7  1  0
  5  6  2  0
  7  8  2  0
  7 12  1  0
  8  9  1  0
  9 10  2  0
 10 11  1  0
 10 16  1  0
 11 12  2  0
 11 13  1  0
 13 14  1  0
 14 15  1  0
 15 16  1  0
 16 17  1  0
 17 18  1  0
 17 19  2  0
M  END
>  <minimizedAffinity>  (1173) 
-8.54112

$$$$
data/reference_output_2/data/smiles/193802.pdb
     RDKit          3D

 28 31  0  0  0  0  0  0  0  0999 V2000
   69.3070   47.9766   56.3480 C   0  0  0  0  0  0  0  0  0  0  0  0
   69.4360   46.7390   56.4182 O   0  0  0  0  0  0  0  0  0  0  0  0
   69.0367   48.6026   55.1309 N   0  0  0  0  0  0  0  0  0  0  0  0
   68.7739   47.7311   54.0073 C   0  0  0  0  0  0  0  0  0  0  0  0
   68.0690   46.6151   54.3700 C   0  0  0  0  0  0  0  0  0  0  0  0
   67.7439   45.6332   53.4274 C   0  0  0  0  0  0  0  0  0  0  0  0
   68.1287   45.7692   52.1067 C   0  0  0  0  0  0  0  0  0  0  0  0
   68.8349   46.8950   51.7482 C   0  0  0  0  0  0  0  0  0  0  0  0
   69.1546   47.8690   52.6920 C   0  0  0  0  0  0  0  0  0  0  0  0
   69.8723   49.0137   52.1292 C   0  0  0  0  0  0  0  0  0  0  0  0
   70.3910   48.8502   51.0301 O   0  0  0  0  0  0  0  0  0  0  0  0
   70.0356   50.3153   52.7254 N   0  0  0  0  0  0  0  0  0  0  0  0
   69.5729   50.7736   54.0115 C   0  0  0  0  0  0  0  0  0  0  0  0
   69.5944   52.1310   54.1515 C   0  0  0  0  0  0  0  0  0  0  0  0
   69.1732   52.7017   55.3435 C   0  0  0  0  0  0  0  0  0  0  0  0
   68.7242   51.9311   56.4083 C   0  0  0  0  0  0  0  0  0  0  0  0
   68.7211   50.6157   56.2230 N   0  0  0  0  0  0  0  0  0  0  0  0
   69.1163   50.0249   55.0990 C   0  0  0  0  0  0  0  0  0  0  0  0
   69.4541   48.7427   57.6069 C   0  0  0  0  0  0  0  0  0  0  0  0
   75.1474   49.6001   56.5770 C   0  0  0  0  0  0  0  0  0  0  0  0
   74.5013   48.6825   57.5513 C   0  0  0  0  0  0  0  0  0  0  0  0
   75.0432   47.5642   57.7335 O   0  0  0  0  0  0  0  0  0  0  0  0
   73.3365   49.0007   58.2643 N   0  0  0  0  0  0  0  0  0  0  0  0
   72.6734   50.3057   58.0828 C   0  0  0  0  0  0  0  0  0  0  0  0
   71.1963   50.1114   58.5269 C   0  0  0  0  0  0  0  0  0  0  0  0
   70.8695   48.8191   57.9220 N   0  0  0  0  0  0  0  0  0  0  0  0
   71.2782   47.8045   58.8723 C   0  0  0  0  0  0  0  0  0  0  0  0
   72.7410   48.0637   59.1952 C   0  0  0  0  0  0  0  0  0  0  0  0
 20 21  1  0
 21 22  2  0
 21 23  1  0
 23 24  1  0
 23 28  1  0
 24 25  1  0
 25 26  1  0
 26 19  1  0
 26 27  1  0
 19  1  1  0
  1  2  2  0
  1  3  1  0
  3  4  1  0
  3 18  1  0
  4  5  2  0
  4  9  1  0
  5  6  1  0
  6  7  2  0
  7  8  1  0
  8  9  2  0
  9 10  1  0
 10 11  2  0
 10 12  1  0
 12 13  1  0
 13 14  1  0
 13 18  2  0
 14 15  2  0
 15 16  1  0
 16 17  2  0
 17 18  1  0
 27 28  1  0
M  CHG  1  26   1
M  END
>  <minimizedAffinity>  (1174) 
-8.66710

$$$$
data/reference_output_2/data/smiles/194024.pdb
     RDKit          3D

 30 33  0  0  0  0  0  0  0  0999 V2000
   69.8393   50.3436   56.5506 N   0  0  2  0  0  0  0  0  0  0  0  0
   71.2145   50.6936   56.1802 C   0  0  0  0  0  0  0  0  0  0  0  0
   71.4180   50.3719   54.7297 C   0  0  0  0  0  0  0  0  0  0  0  0
   70.2127   50.5642   53.8789 C   0  0  2  0  0  0  0  0  0  0  0  0
   69.1225   51.4059   54.4735 C   0  0  1  0  0  0  0  0  0  0  0  0
   67.9332   51.1049   53.7899 F   0  0  0  0  0  0  0  0  0  0  0  0
   68.9546   51.3485   55.9465 C   0  0  0  0  0  0  0  0  0  0  0  0
   69.7044   49.3753   53.2292 N   0  0  0  0  0  0  0  0  0  0  0  0
   69.6087   49.1496   51.9192 C   0  0  0  0  0  0  0  0  0  0  0  0
   69.9270   49.9124   50.9820 O   0  0  0  0  0  0  0  0  0  0  0  0
   69.0899   47.9138   51.7130 N   0  0  0  0  0  0  0  0  0  0  0  0
   68.8404   47.3165   52.9011 C   0  0  0  0  0  0  0  0  0  0  0  0
   68.3231   46.0999   53.2803 C   0  0  0  0  0  0  0  0  0  0  0  0
   68.1888   45.7985   54.6129 C   0  0  0  0  0  0  0  0  0  0  0  0
   68.5857   46.7433   55.5551 C   0  0  0  0  0  0  0  0  0  0  0  0
   69.1066   47.9661   55.1938 C   0  0  0  0  0  0  0  0  0  0  0  0
   69.2301   48.2445   53.8485 C   0  0  0  0  0  0  0  0  0  0  0  0
   69.6806   50.3275   57.9860 C   0  0  0  0  0  0  0  0  0  0  0  0
   70.8787   49.6517   58.6491 C   0  0  0  0  0  0  0  0  0  0  0  0
   71.4512   47.4409   60.2894 O   0  0  0  0  0  0  0  0  0  0  0  0
   71.2880   47.1928   59.0716 C   0  0  0  0  0  0  0  0  0  0  0  0
   70.9862   48.2663   58.1705 N   0  0  0  0  0  0  0  0  0  0  0  0
   71.4196   45.8110   58.6512 C   0  0  0  0  0  0  0  0  0  0  0  0
   72.5493   45.0499   58.8098 C   0  0  0  0  0  0  0  0  0  0  0  0
   72.6043   43.7223   58.3916 C   0  0  0  0  0  0  0  0  0  0  0  0
   71.5213   43.1354   57.8035 C   0  0  0  0  0  0  0  0  0  0  0  0
   71.5755   41.8282   57.3867 F   0  0  0  0  0  0  0  0  0  0  0  0
   70.3834   43.8610   57.6295 C   0  0  0  0  0  0  0  0  0  0  0  0
   69.3037   43.2664   57.0452 F   0  0  0  0  0  0  0  0  0  0  0  0
   70.3435   45.1892   58.0542 C   0  0  0  0  0  0  0  0  0  0  0  0
 20 21  2  0
 21 22  1  0
 21 23  1  0
 22 19  1  0
 19 18  1  0
  1 18  1  1
  1  2  1  0
  1  7  1  0
  2  3  1  0
  3  4  1  0
  4  8  1  1
  4  5  1  0
  8  9  1  0
  8 17  1  0
  9 10  2  0
  9 11  1  0
 11 12  1  0
 12 13  1  0
 12 17  2  0
 13 14  2  0
 14 15  1  0
 15 16  2  0
 16 17  1  0
  5  6  1  6
  5  7  1  0
 23 24  2  0
 23 30  1  0
 24 25  1  0
 25 26  2  0
 26 27  1  0
 26 28  1  0
 28 29  1  0
 28 30  2  0
M  CHG  1   1   1
M  END
>  <minimizedAffinity>  (1175) 
-8.68423

$$$$
data/reference_output_2/data/smiles/194076.pdb
     RDKit          3D

 25 27  0  0  0  0  0  0  0  0999 V2000
   69.7033   45.5548   57.2518 O   0  0  0  0  0  0  0  0  0  0  0  0
   70.1037   46.4184   58.0651 C   0  0  0  0  0  0  0  0  0  0  0  0
   69.6538   47.7606   57.9478 N   0  0  0  0  0  0  0  0  0  0  0  0
   71.0101   46.0368   59.1014 N   0  0  0  0  0  0  0  0  0  0  0  0
   71.4829   44.6517   59.2342 C   0  0  2  0  0  0  0  0  0  0  0  0
   72.2274   44.2185   57.9748 C   0  0  0  0  0  0  0  0  0  0  0  0
   71.7600   42.7664   57.8018 C   0  0  0  0  0  0  0  0  0  0  0  0
   70.3459   42.9060   58.0561 N   0  0  0  0  0  0  0  0  0  0  0  0
   70.2676   43.7946   59.1645 C   0  0  0  0  0  0  0  0  0  0  0  0
   69.3031   43.8546   59.9826 O   0  0  0  0  0  0  0  0  0  0  0  0
   69.2670   42.2855   57.3472 C   0  0  0  0  0  0  0  0  0  0  0  0
   68.4623   43.0530   56.5315 C   0  0  0  0  0  0  0  0  0  0  0  0
   67.3998   42.4987   55.8218 C   0  0  0  0  0  0  0  0  0  0  0  0
   67.1401   41.1672   55.9299 C   0  0  0  0  0  0  0  0  0  0  0  0
   67.9277   40.3741   56.7400 C   0  0  0  0  0  0  0  0  0  0  0  0
   68.9902   40.9582   57.4410 C   0  0  0  0  0  0  0  0  0  0  0  0
   68.7364   48.2089   56.9203 C   0  0  0  0  0  0  0  0  0  0  0  0
   69.4190   48.6476   55.6608 C   0  0  0  0  0  0  0  0  0  0  0  0
   69.0645   47.7861   54.4857 C   0  0  0  0  0  0  0  0  0  0  0  0
   68.0973   46.7961   54.5959 C   0  0  0  0  0  0  0  0  0  0  0  0
   67.7263   45.9741   53.5562 C   0  0  0  0  0  0  0  0  0  0  0  0
   68.3558   46.1495   52.3406 C   0  0  0  0  0  0  0  0  0  0  0  0
   69.3233   47.1177   52.1752 C   0  0  0  0  0  0  0  0  0  0  0  0
   69.9777   47.3191   50.9538 O   0  0  0  0  0  0  0  0  0  0  0  0
   69.6687   47.9297   53.2544 C   0  0  0  0  0  0  0  0  0  0  0  0
  1  2  2  0
  2  3  1  0
  2  4  1  0
  3 17  1  0
 17 18  1  0
 18 19  1  0
 19 20  2  0
 19 25  1  0
 20 21  1  0
 21 22  2  0
 22 23  1  0
 23 24  1  0
 23 25  2  0
  5  4  1  6
  5  6  1  0
  5  9  1  0
  6  7  1  0
  7  8  1  0
  8 11  1  0
  8  9  1  0
 11 12  2  0
 11 16  1  0
 12 13  1  0
 13 14  2  0
 14 15  1  0
 15 16  2  0
  9 10  2  0
M  END
>  <minimizedAffinity>  (1176) 
-8.79004

$$$$
data/reference_output_2/data/smiles/194208.pdb
     RDKit          3D

 32 36  0  0  0  0  0  0  0  0999 V2000
   72.5935   51.2656   56.0881 C   0  0  0  0  0  0  0  0  0  0  0  0
   71.4434   50.8641   55.4000 C   0  0  0  0  0  0  0  0  0  0  0  0
   70.4442   51.7497   55.0893 C   0  0  0  0  0  0  0  0  0  0  0  0
   70.5531   53.0957   55.4578 C   0  0  0  0  0  0  0  0  0  0  0  0
   71.6691   53.4898   56.1273 C   0  0  0  0  0  0  0  0  0  0  0  0
   72.6686   52.5949   56.4367 C   0  0  0  0  0  0  0  0  0  0  0  0
   73.7440   53.0882   57.1063 F   0  0  0  0  0  0  0  0  0  0  0  0
   74.3873   49.9683   55.4654 O   0  0  0  0  0  0  0  0  0  0  0  0
   73.6563   50.3250   56.4188 C   0  0  0  0  0  0  0  0  0  0  0  0
   73.8867   49.8229   57.7034 N   0  0  0  0  0  0  0  0  0  0  0  0
   74.9722   48.8902   57.9269 C   0  0  0  0  0  0  0  0  0  0  0  0
   74.2566   47.5459   58.2062 C   0  0  0  0  0  0  0  0  0  0  0  0
   73.2801   47.7254   59.2559 N   0  0  0  0  0  0  0  0  0  0  0  0
   72.4582   46.6802   59.7082 C   0  0  0  0  0  0  0  0  0  0  0  0
   71.6012   47.0152   60.6233 O   0  0  0  0  0  0  0  0  0  0  0  0
   73.1543   49.0641   59.8756 C   0  0  0  0  0  0  0  0  0  0  0  0
   73.1063   50.1657   58.8729 C   0  0  0  0  0  0  0  0  0  0  0  0
   72.4205   45.2844   59.3061 C   0  0  0  0  0  0  0  0  0  0  0  0
   71.3237   45.0397   58.2192 C   0  0  0  0  0  0  0  0  0  0  0  0
   71.3721   44.3105   59.4991 C   0  0  0  0  0  0  0  0  0  0  0  0
   69.1976   51.4147   54.3478 C   0  0  0  0  0  0  0  0  0  0  0  0
   69.3287   50.2178   53.4997 C   0  0  0  0  0  0  0  0  0  0  0  0
   69.8201   50.3870   52.2330 N   0  0  0  0  0  0  0  0  0  0  0  0
   70.0175   49.3804   51.4023 N   0  0  0  0  0  0  0  0  0  0  0  0
   69.7516   48.1045   51.7304 C   0  0  0  0  0  0  0  0  0  0  0  0
   69.9411   47.1481   50.9404 O   0  0  0  0  0  0  0  0  0  0  0  0
   69.2547   47.8603   52.9879 C   0  0  0  0  0  0  0  0  0  0  0  0
   68.9624   46.5804   53.3519 C   0  0  0  0  0  0  0  0  0  0  0  0
   68.4537   46.3489   54.6079 C   0  0  0  0  0  0  0  0  0  0  0  0
   68.2395   47.3855   55.4847 C   0  0  0  0  0  0  0  0  0  0  0  0
   68.5445   48.6688   55.0891 C   0  0  0  0  0  0  0  0  0  0  0  0
   69.0532   48.9306   53.8479 C   0  0  0  0  0  0  0  0  0  0  0  0
  8  9  2  0
  9  1  1  0
  9 10  1  0
  1  2  2  0
  1  6  1  0
  2  3  1  0
  3 21  1  0
  3  4  2  0
 21 22  1  0
 22 23  2  0
 22 32  1  0
 23 24  1  0
 24 25  1  0
 25 26  2  0
 25 27  1  0
 27 28  1  0
 27 32  2  0
 28 29  2  0
 29 30  1  0
 30 31  2  0
 31 32  1  0
  4  5  1  0
  5  6  2  0
  6  7  1  0
 10 11  1  0
 10 17  1  0
 11 12  1  0
 12 13  1  0
 13 14  1  0
 13 16  1  0
 14 15  2  0
 14 18  1  0
 18 19  1  0
 18 20  1  0
 19 20  1  0
 16 17  1  0
M  END
>  <minimizedAffinity>  (1177) 
-8.85040

$$$$
data/reference_output_2/data/smiles/194243.pdb
     RDKit          3D

 23 24  0  0  0  0  0  0  0  0999 V2000
   69.1537   46.5095   57.2189 N   0  0  0  0  0  0  0  0  0  0  0  0
   68.6213   47.3106   56.3938 C   0  0  0  0  0  0  0  0  0  0  0  0
   68.6332   46.9987   54.9726 C   0  0  0  0  0  0  0  0  0  0  0  0
   67.9215   45.9800   54.3768 C   0  0  0  0  0  0  0  0  0  0  0  0
   67.9026   45.7806   52.9873 C   0  0  0  0  0  0  0  0  0  0  0  0
   68.5945   46.5882   52.1381 C   0  0  0  0  0  0  0  0  0  0  0  0
   69.3179   47.6163   52.7019 C   0  0  0  0  0  0  0  0  0  0  0  0
   69.3261   47.8022   54.0801 C   0  0  0  0  0  0  0  0  0  0  0  0
   70.0566   48.4934   51.8572 N   0  0  0  0  0  0  0  0  0  0  0  0
   70.5290   48.1045   50.7798 O   0  0  0  0  0  0  0  0  0  0  0  0
   70.2553   49.7924   52.2315 O   0  0  0  0  0  0  0  0  0  0  0  0
   68.0232   48.5654   56.9056 C   0  0  0  0  0  0  0  0  0  0  0  0
   68.6138   49.7785   56.5144 C   0  0  0  0  0  0  0  0  0  0  0  0
   68.1014   50.9878   56.9301 C   0  0  0  0  0  0  0  0  0  0  0  0
   66.9922   51.0580   57.7435 C   0  0  0  0  0  0  0  0  0  0  0  0
   66.4368   49.8412   58.1082 C   0  0  0  0  0  0  0  0  0  0  0  0
   66.9671   48.6835   57.6809 N   0  0  0  0  0  0  0  0  0  0  0  0
   69.7891   45.3312   57.1345 N   0  0  0  0  0  0  0  0  0  0  0  0
   70.4869   44.8013   58.2804 C   0  0  0  0  0  0  0  0  0  0  0  0
   72.1028   44.7438   58.2546 S   0  0  0  0  0  0  0  0  0  0  0  0
   69.7838   44.3401   59.4101 N   0  0  0  0  0  0  0  0  0  0  0  0
   69.1988   42.0748   58.7200 C   0  0  0  0  0  0  0  0  0  0  0  0
   69.8072   42.9395   59.7768 C   0  0  0  0  0  0  0  0  0  0  0  0
 22 23  1  0
 23 21  1  0
 21 19  1  0
 19 20  2  0
 19 18  1  0
 18  1  1  0
  1  2  2  0
  2  3  1  0
  2 12  1  0
  3  4  2  0
  3  8  1  0
  4  5  1  0
  5  6  2  0
  6  7  1  0
  7  9  1  0
  7  8  2  0
  9 10  2  0
  9 11  1  0
 12 13  2  0
 12 17  1  0
 13 14  1  0
 14 15  2  0
 15 16  1  0
 16 17  2  0
M  CHG  2   9   1  11  -1
M  END
>  <minimizedAffinity>  (1178) 
-8.89448

$$$$
data/reference_output_2/data/smiles/194288.pdb
     RDKit          3D

 20 21  0  0  0  0  0  0  0  0999 V2000
   68.5899   47.2251   55.0622 C   0  0  0  0  0  0  0  0  0  0  0  0
   67.8079   46.3107   54.3951 C   0  0  0  0  0  0  0  0  0  0  0  0
   67.8522   46.1918   53.0087 C   0  0  0  0  0  0  0  0  0  0  0  0
   67.0421   45.2500   52.3512 O   0  0  0  0  0  0  0  0  0  0  0  0
   68.6904   46.9959   52.2581 C   0  0  0  0  0  0  0  0  0  0  0  0
   68.7254   46.8652   50.8631 O   0  0  0  0  0  0  0  0  0  0  0  0
   69.4770   47.9121   52.9171 C   0  0  0  0  0  0  0  0  0  0  0  0
   69.4161   48.0137   54.2976 C   0  0  0  0  0  0  0  0  0  0  0  0
   70.3466   48.7512   52.1797 N   0  0  0  0  0  0  0  0  0  0  0  0
   70.0555   49.2513   51.0791 O   0  0  0  0  0  0  0  0  0  0  0  0
   71.5818   49.0194   52.7206 O   0  0  0  0  0  0  0  0  0  0  0  0
   67.4006   47.6033   57.0380 O   0  0  0  0  0  0  0  0  0  0  0  0
   68.5183   47.3228   56.5092 C   0  0  0  0  0  0  0  0  0  0  0  0
   69.6774   47.1122   57.3588 C   0  0  0  0  0  0  0  0  0  0  0  0
   70.3119   48.1581   57.9914 C   0  0  0  0  0  0  0  0  0  0  0  0
   71.4259   47.9527   58.8038 C   0  0  0  0  0  0  0  0  0  0  0  0
   71.9380   46.6916   59.0077 C   0  0  0  0  0  0  0  0  0  0  0  0
   71.3058   45.6433   58.3762 C   0  0  0  0  0  0  0  0  0  0  0  0
   70.1932   45.8529   57.5657 C   0  0  0  0  0  0  0  0  0  0  0  0
   69.5671   44.8108   56.9395 F   0  0  0  0  0  0  0  0  0  0  0  0
 12 13  2  0
 13  1  1  0
 13 14  1  0
  1  2  2  0
  1  8  1  0
  2  3  1  0
  3  4  1  0
  3  5  2  0
  5  6  1  0
  5  7  1  0
  7  9  1  0
  7  8  2  0
  9 10  2  0
  9 11  1  0
 14 15  2  0
 14 19  1  0
 15 16  1  0
 16 17  2  0
 17 18  1  0
 18 19  2  0
 19 20  1  0
M  CHG  2   9   1  11  -1
M  END
>  <minimizedAffinity>  (1179) 
-8.80587

$$$$
data/reference_output_2/data/smiles/194303.pdb
     RDKit          3D

 26 28  0  0  0  0  0  0  0  0999 V2000
   68.8959   42.6366   57.1715 C   0  0  0  0  0  0  0  0  0  0  0  0
   69.0044   43.8378   56.6224 N   0  0  0  0  0  0  0  0  0  0  0  0
   68.2300   44.3494   55.6370 C   0  0  0  0  0  0  0  0  0  0  0  0
   67.2634   43.5524   55.1821 N   0  0  0  0  0  0  0  0  0  0  0  0
   67.0742   42.2915   55.6897 C   0  0  0  0  0  0  0  0  0  0  0  0
   66.1366   41.6159   55.1967 O   0  0  0  0  0  0  0  0  0  0  0  0
   67.8882   41.8106   56.6957 C   0  0  0  0  0  0  0  0  0  0  0  0
   67.6899   40.5320   57.2040 O   0  0  0  0  0  0  0  0  0  0  0  0
   68.4797   45.6956   55.1367 C   0  0  0  0  0  0  0  0  0  0  0  0
   68.9274   46.6480   56.0661 C   0  0  0  0  0  0  0  0  0  0  0  0
   69.2016   47.9502   55.7306 C   0  0  0  0  0  0  0  0  0  0  0  0
   69.0387   48.3699   54.4275 C   0  0  0  0  0  0  0  0  0  0  0  0
   68.5993   47.4473   53.5033 C   0  0  0  0  0  0  0  0  0  0  0  0
   68.3199   46.1140   53.8538 C   0  0  0  0  0  0  0  0  0  0  0  0
   67.8949   45.2773   52.8918 F   0  0  0  0  0  0  0  0  0  0  0  0
   69.7697   42.7222   59.3621 O   0  0  0  0  0  0  0  0  0  0  0  0
   69.7823   42.1749   58.2323 C   0  0  0  0  0  0  0  0  0  0  0  0
   70.6662   41.0993   57.9945 N   0  0  0  0  0  0  0  0  0  0  0  0
   71.5972   40.5360   58.9353 C   0  0  0  0  0  0  0  0  0  0  0  0
   71.4789   39.0779   58.9362 C   0  0  0  0  0  0  0  0  0  0  0  0
   72.3257   38.3214   58.1688 C   0  0  0  0  0  0  0  0  0  0  0  0
   72.2221   36.9236   58.1428 C   0  0  0  0  0  0  0  0  0  0  0  0
   71.2459   36.3224   58.9090 C   0  0  0  0  0  0  0  0  0  0  0  0
   71.1085   34.9638   58.9145 F   0  0  0  0  0  0  0  0  0  0  0  0
   70.3876   37.0595   59.6850 C   0  0  0  0  0  0  0  0  0  0  0  0
   70.5242   38.4491   59.6813 C   0  0  0  0  0  0  0  0  0  0  0  0
 16 17  2  0
 17 18  1  0
 17  1  1  0
 18 19  1  0
 19 20  1  0
 20 21  2  0
 20 26  1  0
 21 22  1  0
 22 23  2  0
 23 24  1  0
 23 25  1  0
 25 26  2  0
  1  2  1  0
  1  7  2  0
  2  3  2  0
  3  9  1  0
  3  4  1  0
  9 10  2  0
  9 14  1  0
 10 11  1  0
 11 12  2  0
 12 13  1  0
 13 14  2  0
 14 15  1  0
  4  5  1  0
  5  6  2  0
  5  7  1  0
  7  8  1  0
M  END
>  <minimizedAffinity>  (1180) 
-8.77128

$$$$
data/reference_output_2/data/smiles/194443.pdb
     RDKit          3D

 30 34  0  0  0  0  0  0  0  0999 V2000
   72.2409   41.0834   58.1262 O   0  0  0  0  0  0  0  0  0  0  0  0
   70.9950   40.7805   58.1555 C   0  0  0  0  0  0  0  0  0  0  0  0
   70.7293   39.3991   58.3039 N   0  0  0  0  0  0  0  0  0  0  0  0
   70.0082   41.7892   58.0432 N   0  0  0  0  0  0  0  0  0  0  0  0
   70.3835   43.1605   57.8979 C   0  0  0  0  0  0  0  0  0  0  0  0
   69.5458   43.9812   57.0022 C   0  0  0  0  0  0  0  0  0  0  0  0
   68.1608   43.4760   56.7188 C   0  0  0  0  0  0  0  0  0  0  0  0
   68.0536   41.9735   56.7422 C   0  0  0  0  0  0  0  0  0  0  0  0
   68.6011   41.4833   58.0691 C   0  0  0  0  0  0  0  0  0  0  0  0
   71.7715   38.3956   58.4143 C   0  0  1  0  0  0  0  0  0  0  0  0
   72.1136   37.8407   59.7486 C   0  0  0  0  0  0  0  0  0  0  0  0
   71.3332   36.9700   58.8000 C   0  0  2  0  0  0  0  0  0  0  0  0
   72.0581   35.8533   58.1120 C   0  0  0  0  0  0  0  0  0  0  0  0
   72.7269   36.1058   56.9417 C   0  0  0  0  0  0  0  0  0  0  0  0
   73.4041   35.0854   56.2886 C   0  0  0  0  0  0  0  0  0  0  0  0
   73.4200   33.7918   56.8017 C   0  0  0  0  0  0  0  0  0  0  0  0
   72.7424   33.5477   57.9816 C   0  0  0  0  0  0  0  0  0  0  0  0
   72.0627   34.5770   58.6341 C   0  0  0  0  0  0  0  0  0  0  0  0
   67.8032   43.9099   55.4504 O   0  0  0  0  0  0  0  0  0  0  0  0
   68.1885   45.0893   54.8507 C   0  0  0  0  0  0  0  0  0  0  0  0
   68.1115   45.2049   53.4482 C   0  0  0  0  0  0  0  0  0  0  0  0
   68.4748   46.3434   52.7742 C   0  0  0  0  0  0  0  0  0  0  0  0
   68.9427   47.4561   53.4369 C   0  0  0  0  0  0  0  0  0  0  0  0
   69.0267   47.3650   54.8080 C   0  0  0  0  0  0  0  0  0  0  0  0
   68.6561   46.2029   55.4993 C   0  0  0  0  0  0  0  0  0  0  0  0
   69.3266   48.6631   52.7127 C   0  0  0  0  0  0  0  0  0  0  0  0
   69.4730   48.8100   51.3833 N   0  0  0  0  0  0  0  0  0  0  0  0
   69.8310   50.0570   51.1039 N   0  0  0  0  0  0  0  0  0  0  0  0
   69.9211   50.7282   52.2420 N   0  0  0  0  0  0  0  0  0  0  0  0
   69.6125   49.8777   53.2280 N   0  0  0  0  0  0  0  0  0  0  0  0
  1  2  2  0
  2  3  1  0
  2  4  1  0
 10  3  1  1
 10 11  1  0
 10 12  1  0
 11 12  1  0
 12 13  1  6
 13 14  2  0
 13 18  1  0
 14 15  1  0
 15 16  2  0
 16 17  1  0
 17 18  2  0
  4  5  1  0
  4  9  1  0
  5  6  1  0
  6  7  1  0
  7 19  1  0
  7  8  1  0
 19 20  1  0
 20 21  2  0
 20 25  1  0
 21 22  1  0
 22 23  2  0
 23 26  1  0
 23 24  1  0
 26 27  1  0
 26 30  2  0
 27 28  2  0
 28 29  1  0
 29 30  1  0
 24 25  2  0
  8  9  1  0
M  END
>  <minimizedAffinity>  (1181) 
-9.27756

$$$$
data/reference_output_2/data/smiles/194454.pdb
     RDKit          3D

 30 33  0  0  0  0  0  0  0  0999 V2000
   69.4213   42.1293   57.4046 C   0  0  0  0  0  0  0  0  0  0  0  0
   68.5404   41.6557   58.2699 C   0  0  0  0  0  0  0  0  0  0  0  0
   67.9760   42.5398   59.1129 N   0  0  0  0  0  0  0  0  0  0  0  0
   67.0845   42.0828   60.0092 C   0  0  0  0  0  0  0  0  0  0  0  0
   66.5307   42.8710   60.8175 O   0  0  0  0  0  0  0  0  0  0  0  0
   66.7293   40.7464   60.0968 C   0  0  0  0  0  0  0  0  0  0  0  0
   65.8561   40.2910   60.9785 C   0  0  0  0  0  0  0  0  0  0  0  0
   67.2870   39.8619   59.2605 N   0  0  0  0  0  0  0  0  0  0  0  0
   68.1841   40.3251   58.3579 C   0  0  0  0  0  0  0  0  0  0  0  0
   68.7244   39.5293   57.5611 O   0  0  0  0  0  0  0  0  0  0  0  0
   69.2813   45.7861   56.5899 C   0  0  0  0  0  0  0  0  0  0  0  0
   70.3568   46.2800   57.3104 C   0  0  0  0  0  0  0  0  0  0  0  0
   71.1122   45.3985   58.0498 C   0  0  0  0  0  0  0  0  0  0  0  0
   70.8374   44.0496   58.0965 C   0  0  0  0  0  0  0  0  0  0  0  0
   69.7660   43.5738   57.3757 C   0  0  0  0  0  0  0  0  0  0  0  0
   69.0173   44.4474   56.6427 C   0  0  0  0  0  0  0  0  0  0  0  0
   67.5921   47.4485   56.3846 O   0  0  0  0  0  0  0  0  0  0  0  0
   68.4271   46.7148   55.8163 C   0  0  0  0  0  0  0  0  0  0  0  0
   68.5295   46.8066   54.3633 C   0  0  0  0  0  0  0  0  0  0  0  0
   69.3027   47.7580   53.7361 C   0  0  0  0  0  0  0  0  0  0  0  0
   69.3847   47.7667   52.3393 C   0  0  0  0  0  0  0  0  0  0  0  0
   68.6955   46.8281   51.6181 C   0  0  0  0  0  0  0  0  0  0  0  0
   67.9305   45.8875   52.2553 C   0  0  0  0  0  0  0  0  0  0  0  0
   67.8419   45.8680   53.6087 C   0  0  0  0  0  0  0  0  0  0  0  0
   65.5086   38.8513   61.0338 C   0  0  0  0  0  0  0  0  0  0  0  0
   64.6019   38.2981   60.1729 C   0  0  0  0  0  0  0  0  0  0  0  0
   64.3214   36.9563   60.2829 C   0  0  0  0  0  0  0  0  0  0  0  0
   64.9276   36.1975   61.2208 N   0  0  0  0  0  0  0  0  0  0  0  0
   65.8167   36.7480   62.0621 C   0  0  0  0  0  0  0  0  0  0  0  0
   66.1410   38.1018   61.9968 C   0  0  0  0  0  0  0  0  0  0  0  0
 17 18  2  0
 18 19  1  0
 18 11  1  0
 19 20  2  0
 19 24  1  0
 20 21  1  0
 21 22  2  0
 22 23  1  0
 23 24  2  0
 11 12  2  0
 11 16  1  0
 12 13  1  0
 13 14  2  0
 14 15  1  0
 15  1  1  0
 15 16  2  0
  1  2  2  0
  2  3  1  0
  2  9  1  0
  3  4  1  0
  4  5  2  0
  4  6  1  0
  6  7  2  0
  6  8  1  0
  7 25  1  0
 25 26  2  0
 25 30  1  0
 26 27  1  0
 27 28  2  0
 28 29  1  0
 29 30  2  0
  8  9  1  0
  9 10  2  0
M  END
>  <minimizedAffinity>  (1182) 
-9.18737

$$$$
data/reference_output_2/data/smiles/194536.pdb
     RDKit          3D

 24 26  0  0  0  0  0  0  0  0999 V2000
   72.1926   50.8171   54.7176 S   0  0  0  0  0  0  0  0  0  0  0  0
   73.1881   50.0719   55.5609 O   0  0  0  0  0  0  0  0  0  0  0  0
   72.6918   52.1909   54.4199 O   0  0  0  0  0  0  0  0  0  0  0  0
   70.6363   50.8914   55.5274 C   0  0  0  0  0  0  0  0  0  0  0  0
   69.9712   52.0920   55.6534 C   0  0  0  0  0  0  0  0  0  0  0  0
   68.7466   52.1567   56.2886 C   0  0  0  0  0  0  0  0  0  0  0  0
   68.1359   51.0397   56.8213 C   0  0  0  0  0  0  0  0  0  0  0  0
   66.9087   51.1019   57.4585 C   0  0  0  0  0  0  0  0  0  0  0  0
   66.2980   49.9848   57.9912 C   0  0  0  0  0  0  0  0  0  0  0  0
   66.9581   48.7707   57.8703 C   0  0  0  0  0  0  0  0  0  0  0  0
   68.1841   48.7140   57.2326 C   0  0  0  0  0  0  0  0  0  0  0  0
   68.7979   49.8358   56.6976 C   0  0  0  0  0  0  0  0  0  0  0  0
   70.0268   49.7730   56.0592 C   0  0  0  0  0  0  0  0  0  0  0  0
   72.0383   49.9819   53.1931 N   0  0  0  0  0  0  0  0  0  0  0  0
   70.1437   48.5963   52.4174 C   0  0  0  0  0  0  0  0  0  0  0  0
   70.1457   49.2446   51.3532 O   0  0  0  0  0  0  0  0  0  0  0  0
   71.1083   48.9481   53.3950 N   0  0  0  0  0  0  0  0  0  0  0  0
   66.8479   45.2536   50.8679 N   0  0  0  0  0  0  0  0  0  0  0  0
   67.5609   45.8777   51.9089 C   0  0  0  0  0  0  0  0  0  0  0  0
   67.3411   45.4567   53.2010 C   0  0  0  0  0  0  0  0  0  0  0  0
   68.0502   46.0822   54.2001 C   0  0  0  0  0  0  0  0  0  0  0  0
   68.9450   47.0879   53.9298 C   0  0  0  0  0  0  0  0  0  0  0  0
   69.1818   47.5277   52.6253 C   0  0  0  0  0  0  0  0  0  0  0  0
   68.4692   46.8957   51.6452 C   0  0  0  0  0  0  0  0  0  0  0  0
 18 19  1  0
 19 20  2  0
 19 24  1  0
 20 21  1  0
 21 22  2  0
 22 23  1  0
 23 15  1  0
 23 24  2  0
 15 16  2  0
 15 17  1  0
 17 14  1  0
 14  1  1  0
  1  2  2  0
  1  3  2  0
  1  4  1  0
  4  5  2  0
  4 13  1  0
  5  6  1  0
  6  7  2  0
  7  8  1  0
  7 12  1  0
  8  9  2  0
  9 10  1  0
 10 11  2  0
 11 12  1  0
 12 13  2  0
M  END
>  <minimizedAffinity>  (1183) 
-9.17946

$$$$
data/reference_output_2/data/smiles/194551.pdb
     RDKit          3D

 25 26  0  0  0  0  0  0  0  0999 V2000
   68.9493   43.8179   57.0191 O   0  0  0  0  0  0  0  0  0  0  0  0
   69.7818   44.6904   57.4229 C   0  0  0  0  0  0  0  0  0  0  0  0
   69.5121   46.0275   57.0744 N   0  0  0  0  0  0  0  0  0  0  0  0
   70.9453   44.2517   58.2069 C   0  0  0  0  0  0  0  0  0  0  0  0
   70.7531   42.8423   58.5797 N   0  0  0  0  0  0  0  0  0  0  0  0
   71.6417   41.8434   58.0877 C   0  0  0  0  0  0  0  0  0  0  0  0
   72.5724   42.2543   57.3280 O   0  0  0  0  0  0  0  0  0  0  0  0
   71.5282   40.4362   58.4046 C   0  0  0  0  0  0  0  0  0  0  0  0
   70.2909   39.8250   58.3733 C   0  0  0  0  0  0  0  0  0  0  0  0
   70.1251   38.4746   58.6650 C   0  0  0  0  0  0  0  0  0  0  0  0
   71.2292   37.7235   58.9960 C   0  0  0  0  0  0  0  0  0  0  0  0
   71.0186   36.0194   59.3681 Cl  0  0  0  0  0  0  0  0  0  0  0  0
   72.4692   38.3068   59.0333 C   0  0  0  0  0  0  0  0  0  0  0  0
   72.6047   39.6412   58.7411 C   0  0  0  0  0  0  0  0  0  0  0  0
   68.3920   46.3298   56.3149 N   0  0  0  0  0  0  0  0  0  0  0  0
   68.4417   46.4871   54.9069 C   0  0  0  0  0  0  0  0  0  0  0  0
   69.0132   47.6096   54.3610 C   0  0  0  0  0  0  0  0  0  0  0  0
   69.5216   48.5270   55.2248 F   0  0  0  0  0  0  0  0  0  0  0  0
   69.0939   47.8503   52.9980 C   0  0  0  0  0  0  0  0  0  0  0  0
   69.6670   48.9684   52.4895 F   0  0  0  0  0  0  0  0  0  0  0  0
   68.5639   46.8978   52.1299 C   0  0  0  0  0  0  0  0  0  0  0  0
   67.9856   45.7641   52.6488 C   0  0  0  0  0  0  0  0  0  0  0  0
   67.4673   44.8368   51.8117 F   0  0  0  0  0  0  0  0  0  0  0  0
   67.9274   45.5662   54.0239 C   0  0  0  0  0  0  0  0  0  0  0  0
   67.3577   44.4484   54.5066 F   0  0  0  0  0  0  0  0  0  0  0  0
  1  2  2  0
  2  4  1  0
  2  3  1  0
  4  5  1  0
  5  6  1  0
  6  7  2  0
  6  8  1  0
  8  9  2  0
  8 14  1  0
  9 10  1  0
 10 11  2  0
 11 12  1  0
 11 13  1  0
 13 14  2  0
  3 15  1  0
 15 16  1  0
 16 17  2  0
 16 24  1  0
 17 18  1  0
 17 19  1  0
 19 20  1  0
 19 21  2  0
 21 22  1  0
 22 23  1  0
 22 24  2  0
 24 25  1  0
M  END
>  <minimizedAffinity>  (1184) 
-8.52815

$$$$
data/reference_output_2/data/smiles/194615.pdb
     RDKit          3D

 31 34  0  0  0  0  0  0  0  0999 V2000
   69.7138   39.9698   58.2312 C   0  0  0  0  0  0  0  0  0  0  0  0
   70.2430   41.2318   58.0895 C   0  0  0  0  0  0  0  0  0  0  0  0
   69.6008   42.2091   57.3470 C   0  0  0  0  0  0  0  0  0  0  0  0
   68.4229   41.9624   56.7265 C   0  0  0  0  0  0  0  0  0  0  0  0
   67.8693   40.7001   56.8540 C   0  0  0  0  0  0  0  0  0  0  0  0
   68.5256   39.7333   57.6026 C   0  0  0  0  0  0  0  0  0  0  0  0
   70.2891   37.5586   58.8167 N   0  0  0  0  0  0  0  0  0  0  0  0
   70.3936   38.9470   59.0091 C   0  0  0  0  0  0  0  0  0  0  0  0
   71.1465   39.3510   59.9419 O   0  0  0  0  0  0  0  0  0  0  0  0
   68.9604   36.4997   60.9956 N   0  0  0  0  0  0  0  0  0  0  0  0
   70.2525   35.9758   60.6138 C   0  0  0  0  0  0  0  0  0  0  0  0
   70.7508   34.9550   61.3845 C   0  0  0  0  0  0  0  0  0  0  0  0
   71.9832   34.4469   61.0325 C   0  0  0  0  0  0  0  0  0  0  0  0
   72.6798   34.9333   59.9656 C   0  0  0  0  0  0  0  0  0  0  0  0
   72.1264   35.9836   59.2037 C   0  0  0  0  0  0  0  0  0  0  0  0
   70.9082   36.5174   59.5165 C   0  0  0  0  0  0  0  0  0  0  0  0
   67.6529   42.9220   55.8902 C   0  0  0  0  0  0  0  0  0  0  0  0
   68.1010   44.3127   56.1641 N   0  0  0  0  0  0  0  0  0  0  0  0
   68.0891   45.2490   55.1516 C   0  0  0  0  0  0  0  0  0  0  0  0
   67.6713   44.7926   53.9865 O   0  0  0  0  0  0  0  0  0  0  0  0
   68.4307   46.6354   55.0644 C   0  0  0  0  0  0  0  0  0  0  0  0
   68.9391   47.3316   54.0838 C   0  0  0  0  0  0  0  0  0  0  0  0
   69.2796   46.8253   52.8292 N   0  0  0  0  0  0  0  0  0  0  0  0
   69.8028   47.9389   52.0678 C   0  0  0  0  0  0  0  0  0  0  0  0
   70.2030   47.8254   50.8891 O   0  0  0  0  0  0  0  0  0  0  0  0
   69.7837   49.1494   52.8674 C   0  0  0  0  0  0  0  0  0  0  0  0
   70.1543   50.4230   52.6262 N   0  0  0  0  0  0  0  0  0  0  0  0
   70.0433   51.4023   53.5403 C   0  0  0  0  0  0  0  0  0  0  0  0
   69.5238   51.0689   54.7741 C   0  0  0  0  0  0  0  0  0  0  0  0
   69.1409   49.7708   55.0335 C   0  0  0  0  0  0  0  0  0  0  0  0
   69.2620   48.7801   54.0832 C   0  0  0  0  0  0  0  0  0  0  0  0
 10 11  1  0
 11 12  2  0
 11 16  1  0
 12 13  1  0
 13 14  2  0
 14 15  1  0
 15 16  2  0
 16  7  1  0
  7  8  1  0
  8  9  2  0
  8  1  1  0
  1  2  2  0
  1  6  1  0
  2  3  1  0
  3  4  2  0
  4 17  1  0
  4  5  1  0
 17 18  1  0
 18 19  1  0
 19 20  2  0
 19 21  1  0
 21 22  2  0
 22 23  1  0
 22 31  1  0
 23 24  1  0
 24 25  2  0
 24 26  1  0
 26 27  1  0
 26 31  2  0
 27 28  2  0
 28 29  1  0
 29 30  2  0
 30 31  1  0
  5  6  2  0
M  END
>  <minimizedAffinity>  (1185) 
-8.70179

$$$$
data/reference_output_2/data/smiles/194755.pdb
     RDKit          3D

 28 30  0  0  0  0  0  0  0  0999 V2000
   69.7288   44.5094   59.0812 O   0  0  0  0  0  0  0  0  0  0  0  0
   69.5244   44.2008   57.8924 C   0  0  0  0  0  0  0  0  0  0  0  0
   69.7329   45.1597   56.8838 N   0  0  0  0  0  0  0  0  0  0  0  0
   69.0783   42.8702   57.5527 C   0  0  0  0  0  0  0  0  0  0  0  0
   68.1184   42.7199   56.5401 C   0  0  0  0  0  0  0  0  0  0  0  0
   67.6488   41.4848   56.1646 C   0  0  0  0  0  0  0  0  0  0  0  0
   66.7216   41.3958   55.1808 F   0  0  0  0  0  0  0  0  0  0  0  0
   68.1323   40.3440   56.8023 C   0  0  0  0  0  0  0  0  0  0  0  0
   69.0771   40.4366   57.8057 C   0  0  0  0  0  0  0  0  0  0  0  0
   69.5057   41.7131   58.1313 C   0  0  0  0  0  0  0  0  0  0  0  0
   69.5789   39.2448   58.4677 C   0  0  0  0  0  0  0  0  0  0  0  0
   70.8395   38.7440   58.2382 C   0  0  0  0  0  0  0  0  0  0  0  0
   71.3127   37.6049   58.8743 C   0  0  0  0  0  0  0  0  0  0  0  0
   70.4889   36.9427   59.7739 C   0  0  0  0  0  0  0  0  0  0  0  0
   69.2218   37.4264   60.0188 C   0  0  0  0  0  0  0  0  0  0  0  0
   68.7787   38.5738   59.3630 C   0  0  0  0  0  0  0  0  0  0  0  0
   70.1731   46.4750   57.2098 N   0  0  0  0  0  0  0  0  0  0  0  0
   69.0220   47.6390   56.7098 S   0  0  0  0  0  0  0  0  0  0  0  0
   67.6195   47.1112   56.7891 O   0  0  0  0  0  0  0  0  0  0  0  0
   69.0679   48.8690   57.5847 O   0  0  0  0  0  0  0  0  0  0  0  0
   69.3586   48.0542   55.0358 C   0  0  0  0  0  0  0  0  0  0  0  0
   70.0298   49.1994   54.6792 C   0  0  0  0  0  0  0  0  0  0  0  0
   70.3070   49.5437   53.3599 C   0  0  0  0  0  0  0  0  0  0  0  0
   69.8845   48.6900   52.3636 C   0  0  0  0  0  0  0  0  0  0  0  0
   70.1567   49.0265   51.0465 O   0  0  0  0  0  0  0  0  0  0  0  0
   69.2045   47.5293   52.7096 C   0  0  0  0  0  0  0  0  0  0  0  0
   68.9390   47.2023   54.0169 C   0  0  0  0  0  0  0  0  0  0  0  0
   68.2754   46.0645   54.3144 F   0  0  0  0  0  0  0  0  0  0  0  0
  1  2  2  0
  2  3  1  0
  2  4  1  0
  3 17  1  0
 17 18  1  0
 18 19  2  0
 18 20  2  0
 18 21  1  0
 21 22  2  0
 21 27  1  0
 22 23  1  0
 23 24  2  0
 24 25  1  0
 24 26  1  0
 26 27  2  0
 27 28  1  0
  4  5  2  0
  4 10  1  0
  5  6  1  0
  6  7  1  0
  6  8  2  0
  8  9  1  0
  9 11  1  0
  9 10  2  0
 11 12  2  0
 11 16  1  0
 12 13  1  0
 13 14  2  0
 14 15  1  0
 15 16  2  0
M  END
>  <minimizedAffinity>  (1186) 
-9.10792

$$$$
data/reference_output_2/data/smiles/195000.pdb
     RDKit          3D

 22 23  0  0  0  0  0  0  0  0999 V2000
   70.6724   51.6557   54.2877 N   0  0  0  0  0  0  0  0  0  0  0  0
   69.6358   50.9876   54.4159 C   0  0  0  0  0  0  0  0  0  0  0  0
   68.8695   50.6717   55.6082 C   0  0  0  0  0  0  0  0  0  0  0  0
   69.0115   49.4709   56.2479 C   0  0  0  0  0  0  0  0  0  0  0  0
   68.2690   49.1385   57.3912 C   0  0  0  0  0  0  0  0  0  0  0  0
   67.3568   50.0179   57.9215 C   0  0  0  0  0  0  0  0  0  0  0  0
   67.2013   51.2302   57.2892 C   0  0  0  0  0  0  0  0  0  0  0  0
   67.9400   51.5372   56.1679 C   0  0  0  0  0  0  0  0  0  0  0  0
   71.5873   52.3785   55.0370 C   0  0  0  0  0  0  0  0  0  0  0  0
   72.7574   51.5287   55.5728 C   0  0  0  0  0  0  0  0  0  0  0  0
   74.1274   50.3460   53.7200 N   0  0  0  0  0  0  0  0  0  0  0  0
   73.5146   50.8744   54.5446 C   0  0  0  0  0  0  0  0  0  0  0  0
   69.1310   50.4554   53.1554 N   0  0  0  0  0  0  0  0  0  0  0  0
   69.9209   49.1284   52.4098 S   0  0  0  0  0  0  0  0  0  0  0  0
   70.1264   49.3380   50.9433 O   0  0  0  0  0  0  0  0  0  0  0  0
   71.3102   48.9863   53.0005 O   0  0  0  0  0  0  0  0  0  0  0  0
   69.0449   47.6713   52.7551 C   0  0  0  0  0  0  0  0  0  0  0  0
   68.9185   47.2687   54.0667 C   0  0  0  0  0  0  0  0  0  0  0  0
   68.2352   46.1290   54.4297 C   0  0  0  0  0  0  0  0  0  0  0  0
   67.6401   45.3341   53.4479 C   0  0  0  0  0  0  0  0  0  0  0  0
   67.7768   45.7488   52.1609 C   0  0  0  0  0  0  0  0  0  0  0  0
   68.4586   46.8859   51.8000 C   0  0  0  0  0  0  0  0  0  0  0  0
 11 12  3  0
 12 10  1  0
 10  9  1  0
  9  1  1  0
  1  2  2  0
  2 13  1  0
  2  3  1  0
 13 14  1  0
 14 15  2  0
 14 16  2  0
 14 17  1  0
 17 18  2  0
 17 22  1  0
 18 19  1  0
 19 20  2  0
 20 21  1  0
 21 22  2  0
  3  4  2  0
  3  8  1  0
  4  5  1  0
  5  6  2  0
  6  7  1  0
  7  8  2  0
M  CHG  1   1   1
M  END
>  <minimizedAffinity>  (1187) 
-8.63682

$$$$
data/reference_output_2/data/smiles/195011.pdb
     RDKit          3D

 29 33  0  0  0  0  0  0  0  0999 V2000
   69.4887   39.0879   58.3661 C   0  0  0  0  0  0  0  0  0  0  0  0
   68.1667   39.0843   58.0933 N   0  0  0  0  0  0  0  0  0  0  0  0
   67.7914   40.2841   57.6977 N   0  0  0  0  0  0  0  0  0  0  0  0
   68.8374   41.1179   57.6939 C   0  0  0  0  0  0  0  0  0  0  0  0
   69.0272   42.4581   57.3789 C   0  0  0  0  0  0  0  0  0  0  0  0
   70.2528   43.0817   57.4678 C   0  0  0  0  0  0  0  0  0  0  0  0
   71.2926   42.3358   57.8811 N   0  0  0  0  0  0  0  0  0  0  0  0
   71.1440   41.0186   58.1979 C   0  0  0  0  0  0  0  0  0  0  0  0
   69.9342   40.3639   58.1202 C   0  0  0  0  0  0  0  0  0  0  0  0
   73.3288   35.9766   57.7548 C   0  0  0  0  0  0  0  0  0  0  0  0
   72.1561   36.4711   58.5314 C   0  0  0  0  0  0  0  0  0  0  0  0
   71.3797   37.5285   58.0981 C   0  0  0  0  0  0  0  0  0  0  0  0
   70.2939   37.9782   58.8276 C   0  0  0  0  0  0  0  0  0  0  0  0
   70.0257   37.3149   60.0147 C   0  0  0  0  0  0  0  0  0  0  0  0
   70.8100   36.2592   60.4377 C   0  0  0  0  0  0  0  0  0  0  0  0
   71.8572   35.8566   59.6917 N   0  0  0  0  0  0  0  0  0  0  0  0
   70.4074   44.4584   57.1366 N   0  0  0  0  0  0  0  0  0  0  0  0
   69.3620   45.1936   56.4984 C   0  0  0  0  0  0  0  0  0  0  0  0
   68.3015   44.5225   56.2561 O   0  0  0  0  0  0  0  0  0  0  0  0
   69.4468   46.5461   56.1453 N   0  0  0  0  0  0  0  0  0  0  0  0
   68.3470   47.2360   55.4978 C   0  0  1  0  0  0  0  0  0  0  0  0
   68.5300   48.7243   55.4836 C   0  0  0  0  0  0  0  0  0  0  0  0
   69.6463   49.1885   54.6011 C   0  0  0  0  0  0  0  0  0  0  0  0
   69.7238   48.4387   53.3284 C   0  0  0  0  0  0  0  0  0  0  0  0
   70.3987   48.6984   52.2043 N   0  0  0  0  0  0  0  0  0  0  0  0
   70.1898   47.7662   51.3041 N   0  0  0  0  0  0  0  0  0  0  0  0
   69.3529   46.8625   51.8424 C   0  0  0  0  0  0  0  0  0  0  0  0
   69.0548   47.2758   53.1132 C   0  0  0  0  0  0  0  0  0  0  0  0
   68.1808   46.6426   54.1288 C   0  0  0  0  0  0  0  0  0  0  0  0
 10 11  1  0
 11 12  2  0
 11 16  1  0
 12 13  1  0
 13  1  1  0
 13 14  2  0
  1  2  2  0
  1  9  1  0
  2  3  1  0
  3  4  1  0
  4  5  1  0
  4  9  2  0
  5  6  2  0
  6 17  1  0
  6  7  1  0
 17 18  1  0
 18 19  2  0
 18 20  1  0
 21 20  1  6
 21 22  1  0
 21 29  1  0
 22 23  1  0
 23 24  1  0
 24 25  1  0
 24 28  2  0
 25 26  1  0
 26 27  2  0
 27 28  1  0
 28 29  1  0
  7  8  2  0
  8  9  1  0
 14 15  1  0
 15 16  2  0
M  END
>  <minimizedAffinity>  (1188) 
-9.35204

$$$$
data/reference_output_2/data/smiles/195104.pdb
     RDKit          3D

 27 29  0  0  0  0  0  0  0  0999 V2000
   73.3527   35.5320   56.1364 C   0  0  0  0  0  0  0  0  0  0  0  0
   74.5234   35.1661   56.1125 O   0  0  0  0  0  0  0  0  0  0  0  0
   72.6370   35.5129   54.8649 N   0  0  0  0  0  0  0  0  0  0  0  0
   71.1789   39.2088   58.4779 C   0  0  0  0  0  0  0  0  0  0  0  0
   71.5137   37.7977   58.3844 N   0  0  0  0  0  0  0  0  0  0  0  0
   72.2228   37.2946   57.4038 N   0  0  0  0  0  0  0  0  0  0  0  0
   72.5610   35.9900   57.2617 C   0  0  0  0  0  0  0  0  0  0  0  0
   72.1136   35.1415   58.2406 C   0  0  0  0  0  0  0  0  0  0  0  0
   72.3965   33.7967   58.2064 C   0  0  0  0  0  0  0  0  0  0  0  0
   71.9339   32.9376   59.2150 C   0  0  0  0  0  0  0  0  0  0  0  0
   71.1986   33.4559   60.2331 C   0  0  0  0  0  0  0  0  0  0  0  0
   70.8795   34.7987   60.3268 C   0  0  0  0  0  0  0  0  0  0  0  0
   71.3498   35.6097   59.3205 C   0  0  0  0  0  0  0  0  0  0  0  0
   71.0724   36.9550   59.3522 C   0  0  0  0  0  0  0  0  0  0  0  0
   70.3879   37.4247   60.3048 O   0  0  0  0  0  0  0  0  0  0  0  0
   73.3614   35.0778   53.7525 N   0  0  0  0  0  0  0  0  0  0  0  0
   72.6844   35.0222   52.4592 C   0  0  0  0  0  0  0  0  0  0  0  0
   71.4819   35.3730   52.4192 O   0  0  0  0  0  0  0  0  0  0  0  0
   73.4697   34.5677   51.3437 C   0  0  0  0  0  0  0  0  0  0  0  0
   74.8243   34.0289   51.4729 C   0  0  0  0  0  0  0  0  0  0  0  0
   75.8515   34.4364   50.5155 C   0  0  0  0  0  0  0  0  0  0  0  0
   75.8343   33.9852   49.1948 C   0  0  0  0  0  0  0  0  0  0  0  0
   76.7514   34.4364   48.2813 C   0  0  0  0  0  0  0  0  0  0  0  0
   77.7142   35.3390   48.6205 C   0  0  0  0  0  0  0  0  0  0  0  0
   77.7657   35.8045   49.9059 C   0  0  0  0  0  0  0  0  0  0  0  0
   76.8253   35.3382   50.8386 C   0  0  0  0  0  0  0  0  0  0  0  0
   77.0666   35.9151   52.4929 Cl  0  0  0  0  0  0  0  0  0  0  0  0
  4  5  1  0
  5  6  1  0
  5 14  1  0
  6  7  2  0
  7  1  1  0
  7  8  1  0
  1  2  2  0
  1  3  1  0
  3 16  1  0
 16 17  1  0
 17 18  2  0
 17 19  1  0
 19 20  1  0
 20 21  1  0
 21 22  2  0
 21 26  1  0
 22 23  1  0
 23 24  2  0
 24 25  1  0
 25 26  2  0
 26 27  1  0
  8  9  1  0
  8 13  2  0
  9 10  2  0
 10 11  1  0
 11 12  2  0
 12 13  1  0
 13 14  1  0
 14 15  2  0
M  END
>  <minimizedAffinity>  (1189) 
-8.54634

$$$$
data/reference_output_2/data/smiles/195180.pdb
     RDKit          3D

 30 32  0  0  0  0  0  0  0  0999 V2000
   67.8338   43.7157   56.0696 N   0  0  0  0  0  0  0  0  0  0  0  0
   68.5826   42.7343   56.8003 C   0  0  0  0  0  0  0  0  0  0  0  0
   69.6836   43.1318   57.2301 O   0  0  0  0  0  0  0  0  0  0  0  0
   68.1520   41.4363   57.0326 N   0  0  0  0  0  0  0  0  0  0  0  0
   68.8210   40.4105   57.7375 C   0  0  0  0  0  0  0  0  0  0  0  0
   68.1134   39.2544   58.1110 C   0  0  0  0  0  0  0  0  0  0  0  0
   68.7232   38.2361   58.7956 C   0  0  0  0  0  0  0  0  0  0  0  0
   70.0500   38.2632   59.1646 C   0  0  0  0  0  0  0  0  0  0  0  0
   70.7602   39.3820   58.8102 C   0  0  0  0  0  0  0  0  0  0  0  0
   70.1373   40.4300   58.1079 C   0  0  0  0  0  0  0  0  0  0  0  0
   70.6398   37.2052   59.8625 O   0  0  0  0  0  0  0  0  0  0  0  0
   71.3170   36.1941   59.1921 C   0  0  0  0  0  0  0  0  0  0  0  0
   71.3417   34.8859   59.6376 C   0  0  0  0  0  0  0  0  0  0  0  0
   72.0205   33.8886   58.9599 C   0  0  0  0  0  0  0  0  0  0  0  0
   72.7033   34.1688   57.8039 C   0  0  0  0  0  0  0  0  0  0  0  0
   72.6917   35.4686   57.3427 C   0  0  0  0  0  0  0  0  0  0  0  0
   72.0079   36.4623   58.0287 C   0  0  0  0  0  0  0  0  0  0  0  0
   68.2528   45.6819   54.6226 C   0  0  0  0  0  0  0  0  0  0  0  0
   67.7783   45.0446   53.6261 O   0  0  0  0  0  0  0  0  0  0  0  0
   68.2773   45.0074   55.8467 N   0  0  0  0  0  0  0  0  0  0  0  0
   69.6217   49.6826   53.9126 C   0  0  0  0  0  0  0  0  0  0  0  0
   69.3351   49.2397   55.1853 C   0  0  0  0  0  0  0  0  0  0  0  0
   68.8884   47.9337   55.4172 C   0  0  0  0  0  0  0  0  0  0  0  0
   68.7186   47.0429   54.3805 C   0  0  0  0  0  0  0  0  0  0  0  0
   69.0091   47.4995   53.1107 C   0  0  0  0  0  0  0  0  0  0  0  0
   69.4494   48.7852   52.8808 C   0  0  0  0  0  0  0  0  0  0  0  0
   69.1586   52.4710   54.4352 N   0  0  0  0  0  0  0  0  0  0  0  0
   70.1832   51.3241   53.6258 S   0  0  0  0  0  0  0  0  0  0  0  0
   71.6096   51.4801   54.0641 O   0  0  0  0  0  0  0  0  0  0  0  0
   70.0529   51.5928   52.1498 O   0  0  0  0  0  0  0  0  0  0  0  0
 27 28  1  0
 28 29  2  0
 28 30  2  0
 28 21  1  0
 21 22  2  0
 21 26  1  0
 22 23  1  0
 23 24  2  0
 24 18  1  0
 24 25  1  0
 18 19  2  0
 18 20  1  0
 20  1  1  0
  1  2  1  0
  2  3  2  0
  2  4  1  0
  4  5  1  0
  5  6  2  0
  5 10  1  0
  6  7  1  0
  7  8  2  0
  8 11  1  0
  8  9  1  0
 11 12  1  0
 12 13  2  0
 12 17  1  0
 13 14  1  0
 14 15  2  0
 15 16  1  0
 16 17  2  0
  9 10  2  0
 25 26  2  0
M  END
>  <minimizedAffinity>  (1190) 
-9.79753

$$$$
data/reference_output_2/data/smiles/195191.pdb
     RDKit          3D

 31 33  0  0  0  0  0  0  0  0999 V2000
   68.0417   42.0296   56.6497 C   0  0  0  0  0  0  0  0  0  0  0  0
   67.5673   41.2748   55.7282 O   0  0  0  0  0  0  0  0  0  0  0  0
   68.1302   41.4364   57.9234 N   0  0  0  0  0  0  0  0  0  0  0  0
   68.6227   42.0723   59.1263 C   0  0  0  0  0  0  0  0  0  0  0  0
   69.8295   41.3217   59.6766 C   0  0  0  0  0  0  0  0  0  0  0  0
   69.9728   40.0344   59.0513 N   0  0  0  0  0  0  0  0  0  0  0  0
   68.8578   39.2184   58.6545 C   0  0  0  0  0  0  0  0  0  0  0  0
   67.7033   40.0365   58.1341 C   0  0  0  0  0  0  0  0  0  0  0  0
   67.7184   44.0121   55.1768 N   0  0  0  0  0  0  0  0  0  0  0  0
   68.4121   43.3634   56.2567 C   0  0  0  0  0  0  0  0  0  0  0  0
   69.3213   44.0333   56.7952 O   0  0  0  0  0  0  0  0  0  0  0  0
   68.9187   47.9570   54.1081 C   0  0  0  0  0  0  0  0  0  0  0  0
   68.5323   47.0382   53.1470 C   0  0  0  0  0  0  0  0  0  0  0  0
   68.1468   45.7645   53.5138 C   0  0  0  0  0  0  0  0  0  0  0  0
   68.1200   45.3305   54.8254 C   0  0  0  0  0  0  0  0  0  0  0  0
   68.5074   46.2567   55.7784 C   0  0  0  0  0  0  0  0  0  0  0  0
   68.8957   47.5350   55.4202 C   0  0  0  0  0  0  0  0  0  0  0  0
   69.3343   49.3110   53.7672 C   0  0  0  0  0  0  0  0  0  0  0  0
   69.5865   49.5630   52.5632 O   0  0  0  0  0  0  0  0  0  0  0  0
   69.1981   51.6874   54.4078 C   0  0  0  0  0  0  0  0  0  0  0  0
   69.4687   50.3250   54.6793 O   0  0  0  0  0  0  0  0  0  0  0  0
   71.2974   39.5194   58.8025 C   0  0  0  0  0  0  0  0  0  0  0  0
   72.6490   40.7317   58.7438 S   0  0  0  0  0  0  0  0  0  0  0  0
   71.5253   38.3754   58.6424 N   0  0  0  0  0  0  0  0  0  0  0  0
   71.7975   37.0997   58.4602 C   0  0  0  0  0  0  0  0  0  0  0  0
   71.3303   36.1082   59.3334 C   0  0  0  0  0  0  0  0  0  0  0  0
   71.5975   34.7825   59.1706 C   0  0  0  0  0  0  0  0  0  0  0  0
   72.3588   34.3737   58.1079 C   0  0  0  0  0  0  0  0  0  0  0  0
   72.6779   32.9376   57.8896 C   0  0  0  0  0  0  0  0  0  0  0  0
   72.8437   35.3095   57.2201 C   0  0  0  0  0  0  0  0  0  0  0  0
   72.5736   36.6336   57.3873 C   0  0  0  0  0  0  0  0  0  0  0  0
 20 21  1  0
 21 18  1  0
 18 19  2  0
 18 12  1  0
 12 13  2  0
 12 17  1  0
 13 14  1  0
 14 15  2  0
 15  9  1  0
 15 16  1  0
  9 10  1  0
 10 11  2  0
 10  1  1  0
  1  2  2  0
  1  3  1  0
  3  4  1  0
  3  8  1  0
  4  5  1  0
  5  6  1  0
  6 22  1  0
  6  7  1  0
 22 23  1  0
 22 24  2  3
 24 25  1  0
 25 26  2  0
 25 31  1  0
 26 27  1  0
 27 28  2  0
 28 29  1  0
 28 30  1  0
 30 31  2  0
  7  8  1  0
 16 17  2  0
M  CHG  1  24   1
M  END
>  <minimizedAffinity>  (1191) 
-8.78822

$$$$
data/reference_output_2/data/smiles/195216.pdb
     RDKit          3D

 26 28  0  0  0  0  0  0  0  0999 V2000
   68.7740   41.0642   58.6249 O   0  0  0  0  0  0  0  0  0  0  0  0
   70.4673   35.2661   60.6836 C   0  0  0  0  0  0  0  0  0  0  0  0
   71.0179   36.0578   59.5700 C   0  0  0  0  0  0  0  0  0  0  0  0
   72.0487   35.6251   58.7610 C   0  0  0  0  0  0  0  0  0  0  0  0
   72.4947   36.4433   57.7408 C   0  0  0  0  0  0  0  0  0  0  0  0
   73.4357   36.0327   57.0143 O   0  0  0  0  0  0  0  0  0  0  0  0
   71.9445   37.6179   57.5429 O   0  0  0  0  0  0  0  0  0  0  0  0
   70.9602   38.0736   58.2858 C   0  0  0  0  0  0  0  0  0  0  0  0
   70.3942   39.3269   58.0522 C   0  0  0  0  0  0  0  0  0  0  0  0
   69.3643   39.8399   58.8085 C   0  0  0  0  0  0  0  0  0  0  0  0
   68.8927   39.0288   59.8501 C   0  0  0  0  0  0  0  0  0  0  0  0
   69.4453   37.7951   60.0851 C   0  0  0  0  0  0  0  0  0  0  0  0
   70.4737   37.3021   59.3195 C   0  0  0  0  0  0  0  0  0  0  0  0
   67.5066   41.2305   58.0674 C   0  0  0  0  0  0  0  0  0  0  0  0
   67.6309   41.9362   56.7730 C   0  0  0  0  0  0  0  0  0  0  0  0
   67.5183   41.2783   55.7105 O   0  0  0  0  0  0  0  0  0  0  0  0
   67.8749   43.3417   56.7047 N   0  0  0  0  0  0  0  0  0  0  0  0
   67.9790   43.9346   55.4452 N   0  0  0  0  0  0  0  0  0  0  0  0
   68.1988   45.3143   55.2445 C   0  0  0  0  0  0  0  0  0  0  0  0
   68.3019   46.0262   56.2765 O   0  0  0  0  0  0  0  0  0  0  0  0
   68.3105   45.9475   53.9345 C   0  0  0  0  0  0  0  0  0  0  0  0
   69.0990   47.0491   53.6914 C   0  0  0  0  0  0  0  0  0  0  0  0
   69.1693   47.6153   52.4174 C   0  0  0  0  0  0  0  0  0  0  0  0
   68.4560   47.0971   51.3574 C   0  0  0  0  0  0  0  0  0  0  0  0
   67.6667   45.9928   51.6019 C   0  0  0  0  0  0  0  0  0  0  0  0
   67.6049   45.4434   52.8623 C   0  0  0  0  0  0  0  0  0  0  0  0
  2  3  1  0
  3  4  2  0
  3 13  1  0
  4  5  1  0
  5  6  2  0
  5  7  1  0
  7  8  1  0
  8  9  1  0
  8 13  2  0
  9 10  2  0
 10  1  1  0
 10 11  1  0
  1 14  1  0
 14 15  1  0
 15 16  2  0
 15 17  1  0
 17 18  1  0
 18 19  1  0
 19 20  2  0
 19 21  1  0
 21 22  2  0
 21 26  1  0
 22 23  1  0
 23 24  2  0
 24 25  1  0
 25 26  2  0
 11 12  2  0
 12 13  1  0
M  END
>  <minimizedAffinity>  (1192) 
-9.12349

$$$$
data/reference_output_2/data/smiles/195233.pdb
     RDKit          3D

 22 23  0  0  0  0  0  0  0  0999 V2000
   69.2479   45.9446   56.8330 C   0  0  0  0  0  0  0  0  0  0  0  0
   69.6016   44.5902   56.9138 C   0  0  0  0  0  0  0  0  0  0  0  0
   70.5882   44.1169   57.7401 C   0  0  0  0  0  0  0  0  0  0  0  0
   71.2838   45.0184   58.5491 C   0  0  0  0  0  0  0  0  0  0  0  0
   70.9583   46.3547   58.4909 C   0  0  0  0  0  0  0  0  0  0  0  0
   69.9611   46.7956   57.6471 C   0  0  0  0  0  0  0  0  0  0  0  0
   70.9156   42.7058   57.7867 C   0  0  0  0  0  0  0  0  0  0  0  0
   72.0218   42.2998   57.3731 O   0  0  0  0  0  0  0  0  0  0  0  0
   69.9987   41.8037   58.2923 O   0  0  0  0  0  0  0  0  0  0  0  0
   71.6871   47.2789   59.3343 C   0  0  0  0  0  0  0  0  0  0  0  0
   72.4057   48.1518   58.7998 O   0  0  0  0  0  0  0  0  0  0  0  0
   71.6217   47.2351   60.7150 O   0  0  0  0  0  0  0  0  0  0  0  0
   68.2284   46.3392   55.9338 N   0  0  0  0  0  0  0  0  0  0  0  0
   69.3514   47.7105   52.6594 C   0  0  0  0  0  0  0  0  0  0  0  0
   68.6549   46.8855   51.8022 C   0  0  0  0  0  0  0  0  0  0  0  0
   67.8299   45.8831   52.2907 C   0  0  0  0  0  0  0  0  0  0  0  0
   67.7143   45.7233   53.6559 C   0  0  0  0  0  0  0  0  0  0  0  0
   68.4066   46.5415   54.5561 C   0  0  0  0  0  0  0  0  0  0  0  0
   69.2105   47.5200   54.0257 C   0  0  0  0  0  0  0  0  0  0  0  0
   69.9518   49.3433   51.0658 O   0  0  0  0  0  0  0  0  0  0  0  0
   70.2162   48.7602   52.1422 C   0  0  0  0  0  0  0  0  0  0  0  0
   71.3372   49.1150   52.8427 O   0  0  0  0  0  0  0  0  0  0  0  0
 20 21  2  0
 21 22  1  0
 21 14  1  0
 14 15  2  0
 14 19  1  0
 15 16  1  0
 16 17  2  0
 17 18  1  0
 18 13  1  0
 18 19  2  0
 13  1  1  0
  1  2  2  0
  1  6  1  0
  2  3  1  0
  3  7  1  0
  3  4  2  0
  7  8  2  0
  7  9  1  0
  4  5  1  0
  5 10  1  0
  5  6  2  0
 10 11  2  0
 10 12  1  0
M  END
>  <minimizedAffinity>  (1193) 
-8.64876

$$$$
data/reference_output_2/data/smiles/195255.pdb
     RDKit          3D

 21 23  0  0  0  0  0  0  0  0999 V2000
   68.5094   46.5728   56.3767 N   0  0  0  0  0  0  0  0  0  0  0  0
   69.2739   47.6447   52.9090 C   0  0  0  0  0  0  0  0  0  0  0  0
   69.2356   47.5700   54.2735 C   0  0  0  0  0  0  0  0  0  0  0  0
   68.4854   46.6126   54.9770 C   0  0  0  0  0  0  0  0  0  0  0  0
   67.7741   45.7314   54.1936 C   0  0  0  0  0  0  0  0  0  0  0  0
   67.8153   45.8101   52.8077 C   0  0  0  0  0  0  0  0  0  0  0  0
   68.5566   46.7574   52.1402 C   0  0  0  0  0  0  0  0  0  0  0  0
   68.5464   46.7726   50.7523 O   0  0  0  0  0  0  0  0  0  0  0  0
   71.2183   48.9597   52.6472 O   0  0  0  0  0  0  0  0  0  0  0  0
   70.0758   48.6668   52.2253 C   0  0  0  0  0  0  0  0  0  0  0  0
   69.5955   49.3225   51.1113 O   0  0  0  0  0  0  0  0  0  0  0  0
   69.0438   47.5699   57.2492 C   0  0  0  0  0  0  0  0  0  0  0  0
   68.2310   48.8008   57.3313 C   0  0  0  0  0  0  0  0  0  0  0  0
   67.0049   48.8464   57.9433 C   0  0  0  0  0  0  0  0  0  0  0  0
   66.2901   50.0367   58.0206 C   0  0  0  0  0  0  0  0  0  0  0  0
   66.8276   51.1796   57.4733 C   0  0  0  0  0  0  0  0  0  0  0  0
   68.0646   51.1530   56.8507 C   0  0  0  0  0  0  0  0  0  0  0  0
   68.7475   49.9756   56.7867 C   0  0  0  0  0  0  0  0  0  0  0  0
   69.9502   50.2182   56.1167 O   0  0  0  0  0  0  0  0  0  0  0  0
   69.7497   51.4313   55.4026 C   0  0  0  0  0  0  0  0  0  0  0  0
   68.8467   52.1180   56.2227 O   0  0  0  0  0  0  0  0  0  0  0  0
  9 10  2  0
 10 11  1  0
 10  2  1  0
  2  3  2  0
  2  7  1  0
  3  4  1  0
  4  1  1  0
  4  5  2  0
  1 12  1  0
 12 13  1  0
 13 14  2  0
 13 18  1  0
 14 15  1  0
 15 16  2  0
 16 17  1  0
 17 18  2  0
 17 21  1  0
 18 19  1  0
 19 20  1  0
 20 21  1  0
  5  6  1  0
  6  7  2  0
  7  8  1  0
M  END
>  <minimizedAffinity>  (1194) 
-8.65221

$$$$
data/reference_output_2/data/smiles/195367.pdb
     RDKit          3D

 21 23  0  0  0  0  0  0  0  0999 V2000
   70.3059   49.1351   51.0463 O   0  0  0  0  0  0  0  0  0  0  0  0
   69.9957   48.7664   52.2256 C   0  0  0  0  0  0  0  0  0  0  0  0
   70.4758   49.3492   53.4659 C   0  0  0  0  0  0  0  0  0  0  0  0
   71.2793   50.3152   53.5846 O   0  0  0  0  0  0  0  0  0  0  0  0
   69.8436   48.5924   54.5083 N   0  0  0  0  0  0  0  0  0  0  0  0
   69.0198   47.5996   53.9219 C   0  0  0  0  0  0  0  0  0  0  0  0
   68.1804   46.5985   54.4294 C   0  0  0  0  0  0  0  0  0  0  0  0
   67.4698   45.7455   53.6175 C   0  0  0  0  0  0  0  0  0  0  0  0
   67.5683   45.8572   52.2557 C   0  0  0  0  0  0  0  0  0  0  0  0
   68.3741   46.8192   51.7179 C   0  0  0  0  0  0  0  0  0  0  0  0
   69.0770   47.6635   52.5543 C   0  0  0  0  0  0  0  0  0  0  0  0
   66.8161   44.9542   51.4070 N   0  0  0  0  0  0  0  0  0  0  0  0
   66.6502   43.7739   51.7662 O   0  0  0  0  0  0  0  0  0  0  0  0
   66.2864   45.3624   50.2267 O   0  0  0  0  0  0  0  0  0  0  0  0
   70.0006   48.7967   55.9190 C   0  0  0  0  0  0  0  0  0  0  0  0
   68.8116   49.4045   56.5695 C   0  0  0  0  0  0  0  0  0  0  0  0
   67.9316   48.6953   57.3267 C   0  0  0  0  0  0  0  0  0  0  0  0
   66.8615   49.3298   57.8981 C   0  0  0  0  0  0  0  0  0  0  0  0
   66.6223   50.6715   57.7444 C   0  0  0  0  0  0  0  0  0  0  0  0
   67.5239   51.3708   56.9759 C   0  0  0  0  0  0  0  0  0  0  0  0
   68.6112   50.7524   56.3898 C   0  0  0  0  0  0  0  0  0  0  0  0
  1  2  2  0
  2  3  1  0
  2 11  1  0
  3  4  2  0
  3  5  1  0
  5 15  1  0
  5  6  1  0
 15 16  1  0
 16 17  2  0
 16 21  1  0
 17 18  1  0
 18 19  2  0
 19 20  1  0
 20 21  2  0
  6  7  2  0
  6 11  1  0
  7  8  1  0
  8  9  2  0
  9 12  1  0
  9 10  1  0
 12 13  2  0
 12 14  1  0
 10 11  2  0
M  CHG  2  12   1  14  -1
M  END
>  <minimizedAffinity>  (1195) 
-8.56117

$$$$
data/reference_output_2/data/smiles/195403.pdb
     RDKit          3D

 24 25  0  0  0  0  0  0  0  0999 V2000
   71.5800   47.0830   58.1408 N   0  0  0  0  0  0  0  0  0  0  0  0
   70.5211   46.4234   58.4616 C   0  0  0  0  0  0  0  0  0  0  0  0
   70.5763   45.3071   59.3280 N   0  0  0  0  0  0  0  0  0  0  0  0
   69.7949   44.1438   59.0825 N   0  0  0  0  0  0  0  0  0  0  0  0
   70.1067   43.4402   58.0481 C   0  0  0  0  0  0  0  0  0  0  0  0
   69.3925   42.2227   57.6755 C   0  0  0  0  0  0  0  0  0  0  0  0
   69.6636   41.0011   58.2631 C   0  0  0  0  0  0  0  0  0  0  0  0
   68.9878   39.8524   57.9115 C   0  0  0  0  0  0  0  0  0  0  0  0
   69.2826   38.6564   58.5139 F   0  0  0  0  0  0  0  0  0  0  0  0
   68.0062   39.8831   56.9483 C   0  0  0  0  0  0  0  0  0  0  0  0
   67.7154   41.1053   56.3418 C   0  0  0  0  0  0  0  0  0  0  0  0
   68.4076   42.2409   56.7142 C   0  0  0  0  0  0  0  0  0  0  0  0
   68.0822   43.4162   56.0859 F   0  0  0  0  0  0  0  0  0  0  0  0
   69.2956   46.9003   57.8809 N   0  0  0  0  0  0  0  0  0  0  0  0
   68.8884   46.5258   56.5883 N   0  0  0  0  0  0  0  0  0  0  0  0
   69.1668   47.2501   55.5588 C   0  0  0  0  0  0  0  0  0  0  0  0
   68.7771   46.9205   54.1979 C   0  0  0  0  0  0  0  0  0  0  0  0
   67.9732   45.8500   53.8960 C   0  0  0  0  0  0  0  0  0  0  0  0
   67.6315   45.5814   52.5747 C   0  0  0  0  0  0  0  0  0  0  0  0
   66.8424   44.5392   52.2242 F   0  0  0  0  0  0  0  0  0  0  0  0
   68.0971   46.3888   51.5572 C   0  0  0  0  0  0  0  0  0  0  0  0
   68.8951   47.4542   51.8475 C   0  0  0  0  0  0  0  0  0  0  0  0
   69.2226   47.7028   53.1571 C   0  0  0  0  0  0  0  0  0  0  0  0
   70.0220   48.7751   53.4149 F   0  0  0  0  0  0  0  0  0  0  0  0
  1  2  2  0
  2  3  1  0
  2 14  1  0
  3  4  1  0
  4  5  2  0
  5  6  1  0
  6  7  2  0
  6 12  1  0
  7  8  1  0
  8  9  1  0
  8 10  2  0
 10 11  1  0
 11 12  2  0
 12 13  1  0
 14 15  1  0
 15 16  2  0
 16 17  1  0
 17 18  2  0
 17 23  1  0
 18 19  1  0
 19 20  1  0
 19 21  2  0
 21 22  1  0
 22 23  2  0
 23 24  1  0
M  CHG  1   1   1
M  END
>  <minimizedAffinity>  (1196) 
-8.84857

$$$$
data/reference_output_2/data/smiles/195406.pdb
     RDKit          3D

 20 21  0  0  0  0  0  0  0  0999 V2000
   70.0767   50.4546   54.1757 C   0  0  1  0  0  0  0  0  0  0  0  0
   71.5984   52.1551   54.5488 C   0  0  0  0  0  0  0  0  0  0  0  0
   70.7189   51.5259   53.6808 O   0  0  0  0  0  0  0  0  0  0  0  0
   70.3540   49.2165   53.4591 C   0  0  0  0  0  0  0  0  0  0  0  0
   71.5576   49.1205   53.0066 O   0  0  0  0  0  0  0  0  0  0  0  0
   69.4861   48.1167   53.1973 C   0  0  0  0  0  0  0  0  0  0  0  0
   68.6438   47.5577   54.1140 C   0  0  0  0  0  0  0  0  0  0  0  0
   67.7977   46.4720   53.7989 C   0  0  0  0  0  0  0  0  0  0  0  0
   67.7878   45.9294   52.5414 C   0  0  0  0  0  0  0  0  0  0  0  0
   66.9510   44.8481   52.2101 O   0  0  0  0  0  0  0  0  0  0  0  0
   68.6275   46.4767   51.6017 C   0  0  0  0  0  0  0  0  0  0  0  0
   69.4458   47.5329   51.9238 C   0  0  0  0  0  0  0  0  0  0  0  0
   70.2854   48.0736   50.9676 O   0  0  0  0  0  0  0  0  0  0  0  0
   70.3086   50.2501   55.6708 C   0  0  0  0  0  0  0  0  0  0  0  0
   69.0384   50.2365   56.4406 C   0  0  0  0  0  0  0  0  0  0  0  0
   68.2651   51.3752   56.5824 C   0  0  0  0  0  0  0  0  0  0  0  0
   67.1014   51.2723   57.3107 C   0  0  0  0  0  0  0  0  0  0  0  0
   66.6841   50.1006   57.8951 C   0  0  0  0  0  0  0  0  0  0  0  0
   67.4481   48.9640   57.7584 C   0  0  0  0  0  0  0  0  0  0  0  0
   68.6180   49.0644   57.0271 C   0  0  0  0  0  0  0  0  0  0  0  0
  2  3  1  0
  3  1  1  0
  1 14  1  1
  1  4  1  0
 14 15  1  0
 15 16  2  0
 15 20  1  0
 16 17  1  0
 17 18  2  0
 18 19  1  0
 19 20  2  0
  4  5  2  0
  4  6  1  0
  6  7  2  0
  6 12  1  0
  7  8  1  0
  8  9  2  0
  9 10  1  0
  9 11  1  0
 11 12  2  0
 12 13  1  0
M  END
>  <minimizedAffinity>  (1197) 
-8.60849

$$$$
data/reference_output_2/data/smiles/195413.pdb
     RDKit          3D

 26 29  0  0  0  0  0  0  0  0999 V2000
   71.7584   47.1587   59.1459 C   0  0  0  0  0  0  0  0  0  0  0  0
   71.9959   45.7990   59.0618 C   0  0  0  0  0  0  0  0  0  0  0  0
   71.1922   45.0724   58.2154 C   0  0  0  0  0  0  0  0  0  0  0  0
   70.2017   45.6985   57.4929 C   0  0  0  0  0  0  0  0  0  0  0  0
   69.9888   47.0766   57.6028 C   0  0  0  0  0  0  0  0  0  0  0  0
   70.7766   47.8073   58.4368 C   0  0  0  0  0  0  0  0  0  0  0  0
   72.4250   47.8430   61.2866 O   0  0  0  0  0  0  0  0  0  0  0  0
   72.5953   47.9544   60.0380 C   0  0  0  0  0  0  0  0  0  0  0  0
   73.5841   48.8432   59.5698 N   0  0  0  0  0  0  0  0  0  0  0  0
   74.3668   49.5936   60.5285 C   0  0  0  0  0  0  0  0  0  0  0  0
   75.6973   49.8917   59.8902 C   0  0  0  0  0  0  0  0  0  0  0  0
   75.5993   50.6544   58.6815 N   0  0  0  0  0  0  0  0  0  0  0  0
   74.4053   50.4344   57.9251 C   0  0  0  0  0  0  0  0  0  0  0  0
   73.8415   49.0362   58.1648 C   0  0  0  0  0  0  0  0  0  0  0  0
   68.8942   47.6197   56.7902 C   0  0  0  0  0  0  0  0  0  0  0  0
   68.5482   46.8450   55.6044 C   0  0  0  0  0  0  0  0  0  0  0  0
   68.0570   45.5826   55.6909 N   0  0  0  0  0  0  0  0  0  0  0  0
   67.7379   44.8799   54.6156 N   0  0  0  0  0  0  0  0  0  0  0  0
   67.8855   45.3836   53.3594 C   0  0  0  0  0  0  0  0  0  0  0  0
   67.5735   44.6930   52.3375 O   0  0  0  0  0  0  0  0  0  0  0  0
   68.3753   46.6483   53.2061 C   0  0  0  0  0  0  0  0  0  0  0  0
   68.7028   47.3685   54.3462 C   0  0  0  0  0  0  0  0  0  0  0  0
   69.2145   48.7225   54.1524 C   0  0  0  0  0  0  0  0  0  0  0  0
   70.1913   48.7977   53.0297 C   0  0  0  0  0  0  0  0  0  0  0  0
   70.0093   47.8246   51.9278 C   0  0  0  0  0  0  0  0  0  0  0  0
   68.5783   47.2592   51.8749 C   0  0  0  0  0  0  0  0  0  0  0  0
  7  8  2  0
  8  1  1  0
  8  9  1  0
  1  2  2  0
  1  6  1  0
  2  3  1  0
  3  4  2  0
  4  5  1  0
  5 15  1  0
  5  6  2  0
 15 16  1  0
 16 17  2  0
 16 22  1  0
 17 18  1  0
 18 19  1  0
 19 20  2  0
 19 21  1  0
 21 22  2  0
 21 26  1  0
 22 23  1  0
 23 24  1  0
 24 25  1  0
 25 26  1  0
  9 10  1  0
  9 14  1  0
 10 11  1  0
 11 12  1  0
 12 13  1  0
 13 14  1  0
M  CHG  1  12   1
M  END
>  <minimizedAffinity>  (1198) 
-8.78000

$$$$
data/reference_output_2/data/smiles/195418.pdb
     RDKit          3D

 22 23  0  0  0  0  0  0  0  0999 V2000
   71.1957   49.6710   53.3700 N   0  0  0  0  0  0  0  0  0  0  0  0
   71.9136   51.4822   54.8632 C   0  0  0  0  0  0  0  0  0  0  0  0
   71.5935   52.6018   55.5874 C   0  0  0  0  0  0  0  0  0  0  0  0
   70.3165   53.1314   55.6303 C   0  0  0  0  0  0  0  0  0  0  0  0
   69.3356   52.4789   54.8971 C   0  0  0  0  0  0  0  0  0  0  0  0
   69.6596   51.3560   54.1723 C   0  0  0  0  0  0  0  0  0  0  0  0
   70.9364   50.8423   54.1409 C   0  0  0  0  0  0  0  0  0  0  0  0
   74.6857   52.1005   55.3133 N   0  0  0  0  0  0  0  0  0  0  0  0
   73.5384   50.8961   54.8717 S   0  0  0  0  0  0  0  0  0  0  0  0
   73.7192   49.7380   55.8120 O   0  0  0  0  0  0  0  0  0  0  0  0
   73.8758   50.3763   53.4816 O   0  0  0  0  0  0  0  0  0  0  0  0
   70.0752   48.9062   52.3636 S   0  0  0  0  0  0  0  0  0  0  0  0
   70.8415   48.2971   51.1956 O   0  0  0  0  0  0  0  0  0  0  0  0
   69.1400   49.9060   51.7474 O   0  0  0  0  0  0  0  0  0  0  0  0
   69.1742   47.6180   53.0930 C   0  0  0  0  0  0  0  0  0  0  0  0
   69.1224   47.4836   54.4588 C   0  0  0  0  0  0  0  0  0  0  0  0
   68.3760   46.4278   54.9862 C   0  0  0  0  0  0  0  0  0  0  0  0
   67.7276   45.5709   54.1408 C   0  0  0  0  0  0  0  0  0  0  0  0
   67.7908   45.7210   52.7658 C   0  0  0  0  0  0  0  0  0  0  0  0
   67.1154   44.8217   52.0108 F   0  0  0  0  0  0  0  0  0  0  0  0
   68.5212   46.7562   52.2199 C   0  0  0  0  0  0  0  0  0  0  0  0
   68.5838   46.9045   50.8746 F   0  0  0  0  0  0  0  0  0  0  0  0
  8  9  1  0
  9 10  2  0
  9 11  2  0
  9  2  1  0
  2  3  2  0
  2  7  1  0
  3  4  1  0
  4  5  2  0
  5  6  1  0
  6  7  2  0
  7  1  1  0
  1 12  1  0
 12 13  2  0
 12 14  2  0
 12 15  1  0
 15 16  2  0
 15 21  1  0
 16 17  1  0
 17 18  2  0
 18 19  1  0
 19 20  1  0
 19 21  2  0
 21 22  1  0
M  END
>  <minimizedAffinity>  (1199) 
-8.92584

$$$$
data/reference_output_2/data/smiles/195424.pdb
     RDKit          3D

 21 22  0  0  0  0  0  0  0  0999 V2000
   69.2065   46.7612   56.9204 C   0  0  0  0  0  0  0  0  0  0  0  0
   69.6036   48.1940   57.5589 S   0  0  0  0  0  0  0  0  0  0  0  0
   68.2260   46.5930   55.9610 N   0  0  0  0  0  0  0  0  0  0  0  0
   69.3033   47.7373   52.6125 C   0  0  0  0  0  0  0  0  0  0  0  0
   68.6323   46.8829   51.7572 C   0  0  0  0  0  0  0  0  0  0  0  0
   67.8139   45.9288   52.2935 C   0  0  0  0  0  0  0  0  0  0  0  0
   67.6545   45.8124   53.6814 C   0  0  0  0  0  0  0  0  0  0  0  0
   68.3004   46.6362   54.5515 C   0  0  0  0  0  0  0  0  0  0  0  0
   69.1231   47.5946   53.9676 C   0  0  0  0  0  0  0  0  0  0  0  0
   69.8979   49.3449   51.0222 O   0  0  0  0  0  0  0  0  0  0  0  0
   70.1878   48.7715   52.0931 C   0  0  0  0  0  0  0  0  0  0  0  0
   71.3200   49.0947   52.7886 O   0  0  0  0  0  0  0  0  0  0  0  0
   69.9245   45.6031   57.4054 N   0  0  0  0  0  0  0  0  0  0  0  0
   69.3462   44.3318   57.3470 N   0  0  0  0  0  0  0  0  0  0  0  0
   69.9746   43.2709   57.7273 C   0  0  0  0  0  0  0  0  0  0  0  0
   69.4497   41.9376   57.6973 C   0  0  0  0  0  0  0  0  0  0  0  0
   69.9112   40.8752   58.4427 C   0  0  0  0  0  0  0  0  0  0  0  0
   69.3767   39.6127   58.3913 C   0  0  0  0  0  0  0  0  0  0  0  0
   68.3058   39.3857   57.5379 C   0  0  0  0  0  0  0  0  0  0  0  0
   67.8456   40.4447   56.7929 C   0  0  0  0  0  0  0  0  0  0  0  0
   68.4029   41.6518   56.8826 N   0  0  0  0  0  0  0  0  0  0  0  0
 10 11  2  0
 11 12  1  0
 11  4  1  0
  4  5  2  0
  4  9  1  0
  5  6  1  0
  6  7  2  0
  7  8  1  0
  8  3  1  0
  8  9  2  0
  3  1  1  0
  1  2  2  0
  1 13  1  0
 13 14  1  0
 14 15  2  0
 15 16  1  0
 16 17  2  0
 16 21  1  0
 17 18  1  0
 18 19  2  0
 19 20  1  0
 20 21  2  0
M  END
>  <minimizedAffinity>  (1200) 
-8.63735

$$$$
data/reference_output_2/data/smiles/195597.pdb
     RDKit          3D

 24 27  0  0  0  0  0  0  0  0999 V2000
   69.4056   48.0186   52.4375 C   0  0  0  0  0  0  0  0  0  0  0  0
   68.7623   46.8895   51.9847 C   0  0  0  0  0  0  0  0  0  0  0  0
   68.2140   45.9650   52.8469 C   0  0  0  0  0  0  0  0  0  0  0  0
   68.3004   46.1569   54.2240 C   0  0  0  0  0  0  0  0  0  0  0  0
   67.8762   45.4523   55.2873 N   0  0  0  0  0  0  0  0  0  0  0  0
   68.2316   46.1015   56.3823 N   0  0  0  0  0  0  0  0  0  0  0  0
   68.8821   47.2224   56.0650 C   0  0  0  0  0  0  0  0  0  0  0  0
   68.9402   47.2816   54.6929 C   0  0  0  0  0  0  0  0  0  0  0  0
   69.4815   48.1928   53.7928 C   0  0  0  0  0  0  0  0  0  0  0  0
   69.4145   48.1727   57.0269 C   0  0  0  0  0  0  0  0  0  0  0  0
   68.7371   49.3246   57.3683 C   0  0  0  0  0  0  0  0  0  0  0  0
   69.2538   50.2163   58.2798 C   0  0  0  0  0  0  0  0  0  0  0  0
   70.4929   49.9718   58.8889 C   0  0  0  0  0  0  0  0  0  0  0  0
   71.1961   48.8306   58.5718 C   0  0  0  0  0  0  0  0  0  0  0  0
   70.6430   47.9686   57.6570 C   0  0  0  0  0  0  0  0  0  0  0  0
   72.4584   48.5851   59.1944 N   0  0  0  0  0  0  0  0  0  0  0  0
   72.5979   47.7233   60.3132 C   0  0  0  0  0  0  0  0  0  0  0  0
   71.5627   47.1681   60.7556 O   0  0  0  0  0  0  0  0  0  0  0  0
   73.8974   47.4486   60.9817 C   0  0  0  0  0  0  0  0  0  0  0  0
   74.3821   48.5948   61.9178 C   0  0  0  0  0  0  0  0  0  0  0  0
   75.0668   48.3138   60.6409 C   0  0  0  0  0  0  0  0  0  0  0  0
   69.6996   50.3452   51.5763 N   0  0  0  0  0  0  0  0  0  0  0  0
   69.9700   48.9693   51.5135 C   0  0  0  0  0  0  0  0  0  0  0  0
   70.7500   48.5505   50.5964 O   0  0  0  0  0  0  0  0  0  0  0  0
 22 23  1  0
 23 24  2  0
 23  1  1  0
  1  2  2  0
  1  9  1  0
  2  3  1  0
  3  4  2  0
  4  5  1  0
  4  8  1  0
  5  6  1  0
  6  7  2  0
  7 10  1  0
  7  8  1  0
 10 11  2  0
 10 15  1  0
 11 12  1  0
 12 13  2  0
 13 14  1  0
 14 16  1  0
 14 15  2  0
 16 17  1  0
 17 18  2  0
 17 19  1  0
 19 20  1  0
 19 21  1  0
 20 21  1  0
  8  9  2  0
M  END
>  <minimizedAffinity>  (1201) 
-8.66652

$$$$
data/reference_output_2/data/smiles/195713.pdb
     RDKit          3D

 28 31  0  0  0  0  0  0  0  0999 V2000
   70.6817   45.4782   59.2192 O   0  0  0  0  0  0  0  0  0  0  0  0
   71.4033   46.4958   59.1871 C   0  0  0  0  0  0  0  0  0  0  0  0
   72.4865   46.5709   60.1142 N   0  0  0  0  0  0  0  0  0  0  0  0
   73.3696   47.7377   60.1292 C   0  0  0  0  0  0  0  0  0  0  0  0
   73.5157   48.1341   61.6027 C   0  0  0  0  0  0  0  0  0  0  0  0
   74.2246   47.0513   62.2725 N   0  0  0  0  0  0  0  0  0  0  0  0
   74.0652   45.6941   61.7594 C   0  0  0  0  0  0  0  0  0  0  0  0
   72.7448   45.5210   61.0525 C   0  0  0  0  0  0  0  0  0  0  0  0
   75.0244   47.3701   63.3869 C   0  0  0  0  0  0  0  0  0  0  0  0
   76.3274   47.7574   63.2371 C   0  0  0  0  0  0  0  0  0  0  0  0
   77.1263   48.0686   64.3377 C   0  0  0  0  0  0  0  0  0  0  0  0
   76.5778   47.9798   65.5824 C   0  0  0  0  0  0  0  0  0  0  0  0
   77.3689   48.2883   66.6612 F   0  0  0  0  0  0  0  0  0  0  0  0
   75.2804   47.5944   65.7340 C   0  0  0  0  0  0  0  0  0  0  0  0
   74.4904   47.2855   64.6455 C   0  0  0  0  0  0  0  0  0  0  0  0
   71.1116   47.5522   58.2113 C   0  0  0  0  0  0  0  0  0  0  0  0
   69.6613   47.7119   57.8970 C   0  0  0  0  0  0  0  0  0  0  0  0
   69.2684   47.2336   56.5503 C   0  0  0  0  0  0  0  0  0  0  0  0
   69.4612   47.9058   55.4087 N   0  0  0  0  0  0  0  0  0  0  0  0
   69.0960   47.4511   54.2024 C   0  0  0  0  0  0  0  0  0  0  0  0
   69.2846   48.1258   53.0193 C   0  0  0  0  0  0  0  0  0  0  0  0
   68.8965   47.6283   51.7939 C   0  0  0  0  0  0  0  0  0  0  0  0
   68.2869   46.3945   51.7355 C   0  0  0  0  0  0  0  0  0  0  0  0
   68.0846   45.6918   52.9243 C   0  0  0  0  0  0  0  0  0  0  0  0
   68.4845   46.2170   54.1353 C   0  0  0  0  0  0  0  0  0  0  0  0
   68.2763   45.5064   55.2994 C   0  0  0  0  0  0  0  0  0  0  0  0
   67.7152   44.3628   55.2749 O   0  0  0  0  0  0  0  0  0  0  0  0
   68.6662   46.0142   56.4976 N   0  0  0  0  0  0  0  0  0  0  0  0
  1  2  2  0
  2 16  1  0
  2  3  1  0
 16 17  1  0
 17 18  1  0
 18 19  2  0
 18 28  1  0
 19 20  1  0
 20 21  2  0
 20 25  1  0
 21 22  1  0
 22 23  2  0
 23 24  1  0
 24 25  2  0
 25 26  1  0
 26 27  2  0
 26 28  1  0
  3  4  1  0
  3  8  1  0
  4  5  1  0
  5  6  1  0
  6  9  1  0
  6  7  1  0
  9 10  2  0
  9 15  1  0
 10 11  1  0
 11 12  2  0
 12 13  1  0
 12 14  1  0
 14 15  2  0
  7  8  1  0
M  END
>  <minimizedAffinity>  (1202) 
-8.58148

$$$$
data/reference_output_2/data/smiles/195892.pdb
     RDKit          3D

 21 22  0  0  0  0  0  0  0  0999 V2000
   69.0735   45.8220   56.6185 C   0  0  0  0  0  0  0  0  0  0  0  0
   69.9908   46.3497   57.5038 C   0  0  0  0  0  0  0  0  0  0  0  0
   70.7703   45.5086   58.2638 C   0  0  0  0  0  0  0  0  0  0  0  0
   71.9577   46.1441   59.4115 Cl  0  0  0  0  0  0  0  0  0  0  0  0
   70.6150   44.1821   58.1225 N   0  0  0  0  0  0  0  0  0  0  0  0
   69.7276   43.6252   57.2652 C   0  0  0  0  0  0  0  0  0  0  0  0
   68.9885   44.4829   56.5439 N   0  0  0  0  0  0  0  0  0  0  0  0
   68.2477   46.6739   55.8070 N   0  0  0  0  0  0  0  0  0  0  0  0
   69.9275   48.9101   51.8040 C   0  0  0  0  0  0  0  0  0  0  0  0
   69.1702   47.7965   52.4271 C   0  0  0  0  0  0  0  0  0  0  0  0
   68.5848   46.8201   51.6513 C   0  0  0  0  0  0  0  0  0  0  0  0
   67.8758   45.7761   52.2086 C   0  0  0  0  0  0  0  0  0  0  0  0
   67.7758   45.7469   53.5829 C   0  0  0  0  0  0  0  0  0  0  0  0
   68.3507   46.7105   54.4048 C   0  0  0  0  0  0  0  0  0  0  0  0
   69.0507   47.7373   53.8063 C   0  0  0  0  0  0  0  0  0  0  0  0
   69.7011   48.8018   54.5901 C   0  0  0  0  0  0  0  0  0  0  0  0
   69.5957   42.2138   57.1451 N   0  0  0  0  0  0  0  0  0  0  0  0
   68.3234   41.5777   57.4008 C   0  0  0  0  0  0  0  0  0  0  0  0
   67.5373   41.3941   56.1601 C   0  0  0  0  0  0  0  0  0  0  0  0
   66.7866   42.3047   55.7342 O   0  0  0  0  0  0  0  0  0  0  0  0
   67.6091   40.2203   55.4368 O   0  0  0  0  0  0  0  0  0  0  0  0
  9 10  1  0
 10 11  2  0
 10 15  1  0
 11 12  1  0
 12 13  2  0
 13 14  1  0
 14  8  1  0
 14 15  2  0
  8  1  1  0
  1  2  2  0
  1  7  1  0
  2  3  1  0
  3  4  1  0
  3  5  2  0
  5  6  1  0
  6 17  1  0
  6  7  2  0
 17 18  1  0
 18 19  1  0
 19 20  2  0
 19 21  1  0
 15 16  1  0
M  END
>  <minimizedAffinity>  (1203) 
-8.63786

$$$$
data/reference_output_2/data/smiles/195908.pdb
     RDKit          3D

 29 31  0  0  0  0  0  0  0  0999 V2000
   72.1293   44.2982   60.3970 N   0  0  0  0  0  0  0  0  0  0  0  0
   72.4002   43.5217   59.2014 C   0  0  0  0  0  0  0  0  0  0  0  0
   71.7789   44.2846   58.0521 C   0  0  0  0  0  0  0  0  0  0  0  0
   70.8038   45.2018   58.7201 C   0  0  1  0  0  0  0  0  0  0  0  0
   69.6773   44.4215   59.0717 O   0  0  0  0  0  0  0  0  0  0  0  0
   71.5522   45.5303   59.9841 C   0  0  0  0  0  0  0  0  0  0  0  0
   71.6775   46.6120   60.5830 O   0  0  0  0  0  0  0  0  0  0  0  0
   72.9364   42.9808   64.3566 C   0  0  0  0  0  0  0  0  0  0  0  0
   73.9112   43.6062   63.6110 C   0  0  0  0  0  0  0  0  0  0  0  0
   73.6399   44.0372   62.3073 C   0  0  0  0  0  0  0  0  0  0  0  0
   72.4098   43.8575   61.7257 C   0  0  0  0  0  0  0  0  0  0  0  0
   71.4382   43.2317   62.4766 C   0  0  0  0  0  0  0  0  0  0  0  0
   71.6973   42.8028   63.7651 C   0  0  0  0  0  0  0  0  0  0  0  0
   72.4093   41.3167   67.7678 C   0  0  0  0  0  0  0  0  0  0  0  0
   72.1611   41.7775   66.3972 C   0  0  0  0  0  0  0  0  0  0  0  0
   71.0492   41.5072   65.8357 O   0  0  0  0  0  0  0  0  0  0  0  0
   73.1490   42.5222   65.6869 N   0  0  0  0  0  0  0  0  0  0  0  0
   70.4361   46.3781   57.9424 C   0  0  0  0  0  0  0  0  0  0  0  0
   71.2454   47.3268   57.8396 O   0  0  0  0  0  0  0  0  0  0  0  0
   69.1719   46.4471   57.3062 N   0  0  0  0  0  0  0  0  0  0  0  0
   68.7069   47.5669   56.5112 C   0  0  0  0  0  0  0  0  0  0  0  0
   68.6914   47.2856   55.0506 C   0  0  0  0  0  0  0  0  0  0  0  0
   67.9738   46.2152   54.5745 C   0  0  0  0  0  0  0  0  0  0  0  0
   67.9270   45.8959   53.2379 C   0  0  0  0  0  0  0  0  0  0  0  0
   67.2095   44.8275   52.7775 F   0  0  0  0  0  0  0  0  0  0  0  0
   68.6296   46.6890   52.3597 C   0  0  0  0  0  0  0  0  0  0  0  0
   69.3599   47.7665   52.7823 C   0  0  0  0  0  0  0  0  0  0  0  0
   70.2427   48.7578   51.6371 Cl  0  0  0  0  0  0  0  0  0  0  0  0
   69.3860   48.0633   54.1512 C   0  0  0  0  0  0  0  0  0  0  0  0
 14 15  1  0
 15 16  2  0
 15 17  1  0
 17  8  1  0
  8  9  2  0
  8 13  1  0
  9 10  1  0
 10 11  2  0
 11  1  1  0
 11 12  1  0
  1  2  1  0
  1  6  1  0
  2  3  1  0
  3  4  1  0
  4  5  1  1
  4 18  1  0
  4  6  1  0
 18 19  2  0
 18 20  1  0
 20 21  1  0
 21 22  1  0
 22 23  2  0
 22 29  1  0
 23 24  1  0
 24 25  1  0
 24 26  2  0
 26 27  1  0
 27 28  1  0
 27 29  2  0
  6  7  2  0
 12 13  2  0
M  END
>  <minimizedAffinity>  (1204) 
-9.38532

$$$$
data/reference_output_2/data/smiles/195945.pdb
     RDKit          3D

 29 32  0  0  0  0  0  0  0  0999 V2000
   69.7334   43.4407   57.4664 C   0  0  0  0  0  0  0  0  0  0  0  0
   68.5152   42.8992   56.7859 C   0  0  0  0  0  0  0  0  0  0  0  0
   67.9228   41.6838   57.0626 C   0  0  0  0  0  0  0  0  0  0  0  0
   66.8497   41.6203   56.1971 C   0  0  0  0  0  0  0  0  0  0  0  0
   66.8371   42.7585   55.4607 N   0  0  0  0  0  0  0  0  0  0  0  0
   67.8440   43.5405   55.8097 N   0  0  0  0  0  0  0  0  0  0  0  0
   68.1801   44.8213   55.2742 C   0  0  0  0  0  0  0  0  0  0  0  0
   68.2009   45.0676   53.9548 N   0  0  0  0  0  0  0  0  0  0  0  0
   68.5190   46.2838   53.4221 C   0  0  0  0  0  0  0  0  0  0  0  0
   68.8380   47.3308   54.2537 C   0  0  0  0  0  0  0  0  0  0  0  0
   68.8137   47.0682   55.6057 C   0  0  0  0  0  0  0  0  0  0  0  0
   69.1043   48.0176   56.3818 O   0  0  0  0  0  0  0  0  0  0  0  0
   68.4940   45.8509   56.0808 N   0  0  0  0  0  0  0  0  0  0  0  0
   69.1533   48.5456   53.4317 C   0  0  0  0  0  0  0  0  0  0  0  0
   69.6508   47.8655   52.1440 C   0  0  0  0  0  0  0  0  0  0  0  0
   68.6007   46.7864   52.0274 C   0  0  0  0  0  0  0  0  0  0  0  0
   68.3442   40.6758   58.0613 C   0  0  0  0  0  0  0  0  0  0  0  0
   69.2740   39.9013   57.8074 O   0  0  0  0  0  0  0  0  0  0  0  0
   67.6604   40.6347   59.2838 N   0  0  0  0  0  0  0  0  0  0  0  0
   66.5644   41.5192   59.6314 C   0  0  0  0  0  0  0  0  0  0  0  0
   66.6235   41.9420   61.0846 C   0  0  0  0  0  0  0  0  0  0  0  0
   68.0378   41.7876   61.5490 C   0  0  2  0  0  0  0  0  0  0  0  0
   68.4451   40.3394   61.5473 C   0  0  0  0  0  0  0  0  0  0  0  0
   68.0495   39.6604   60.2787 C   0  0  1  0  0  0  0  0  0  0  0  0
   66.8973   38.7002   60.4444 C   0  0  0  0  0  0  0  0  0  0  0  0
   68.2713   42.4106   62.9067 C   0  0  0  0  0  0  0  0  0  0  0  0
   67.4626   41.7347   63.8243 F   0  0  0  0  0  0  0  0  0  0  0  0
   67.8351   43.7172   62.9069 F   0  0  0  0  0  0  0  0  0  0  0  0
   69.5776   42.3623   63.3011 F   0  0  0  0  0  0  0  0  0  0  0  0
  1  2  1  0
  2  3  2  0
  2  6  1  0
  3 17  1  0
  3  4  1  0
 17 18  2  0
 17 19  1  0
 19 20  1  0
 19 24  1  0
 20 21  1  0
 21 22  1  0
 22 26  1  1
 22 23  1  0
 26 27  1  0
 26 28  1  0
 26 29  1  0
 23 24  1  0
 24 25  1  1
  4  5  2  0
  5  6  1  0
  6  7  1  0
  7  8  2  0
  7 13  1  0
  8  9  1  0
  9 10  2  0
  9 16  1  0
 10 11  1  0
 10 14  1  0
 11 12  2  0
 11 13  1  0
 14 15  1  0
 15 16  1  0
M  END
>  <minimizedAffinity>  (1205) 
-9.02549

$$$$
data/reference_output_2/data/smiles/195952.pdb
     RDKit          3D

 32 35  0  0  0  0  0  0  0  0999 V2000
   72.3140   49.2233   57.7647 C   0  0  0  0  0  0  0  0  0  0  0  0
   71.1569   49.5642   56.9921 N   0  0  0  0  0  0  0  0  0  0  0  0
   69.8651   49.8021   57.5730 C   0  0  0  0  0  0  0  0  0  0  0  0
   69.5242   49.7586   58.7826 O   0  0  0  0  0  0  0  0  0  0  0  0
   68.9553   50.1132   56.5271 N   0  0  0  0  0  0  0  0  0  0  0  0
   69.5655   49.6960   55.2950 C   0  0  2  0  0  0  0  0  0  0  0  0
   69.1785   50.7237   54.2417 C   0  0  0  0  0  0  0  0  0  0  0  0
   69.7841   50.4199   52.9159 C   0  0  0  0  0  0  0  0  0  0  0  0
   69.7594   48.9869   52.5044 C   0  0  0  0  0  0  0  0  0  0  0  0
   69.1815   48.0578   53.4883 C   0  0  0  0  0  0  0  0  0  0  0  0
   68.7276   46.8156   53.0222 C   0  0  0  0  0  0  0  0  0  0  0  0
   68.1822   45.9101   53.8961 C   0  0  0  0  0  0  0  0  0  0  0  0
   68.0844   46.2257   55.2210 C   0  0  0  0  0  0  0  0  0  0  0  0
   68.5376   47.4628   55.6705 C   0  0  0  0  0  0  0  0  0  0  0  0
   69.0886   48.3897   54.8205 C   0  0  0  0  0  0  0  0  0  0  0  0
   71.0018   49.7390   55.5856 C   0  0  0  0  0  0  0  0  0  0  0  0
   71.9949   49.8975   54.8049 O   0  0  0  0  0  0  0  0  0  0  0  0
   72.1183   46.7561   58.2754 N   0  0  0  0  0  0  0  0  0  0  0  0
   72.0403   48.1330   58.7284 C   0  0  0  0  0  0  0  0  0  0  0  0
   71.7403   48.3357   59.9299 O   0  0  0  0  0  0  0  0  0  0  0  0
   71.8556   45.7110   59.1999 C   0  0  0  0  0  0  0  0  0  0  0  0
   70.9688   43.7517   57.8005 N   0  0  0  0  0  0  0  0  0  0  0  0
   70.8025   44.8025   58.7353 C   0  0  0  0  0  0  0  0  0  0  0  0
   69.6068   44.9403   59.1941 O   0  0  0  0  0  0  0  0  0  0  0  0
   68.4333   39.4701   57.9673 C   0  0  0  0  0  0  0  0  0  0  0  0
   68.5940   40.8600   57.4736 C   0  0  0  0  0  0  0  0  0  0  0  0
   67.6557   41.4001   56.6194 C   0  0  0  0  0  0  0  0  0  0  0  0
   67.8006   42.6984   56.1548 C   0  0  0  0  0  0  0  0  0  0  0  0
   68.9089   43.4492   56.5656 C   0  0  0  0  0  0  0  0  0  0  0  0
   69.8498   42.9195   57.4178 C   0  0  0  0  0  0  0  0  0  0  0  0
   69.6841   41.6333   57.8620 C   0  0  0  0  0  0  0  0  0  0  0  0
   70.6756   41.0293   58.7805 C   0  0  0  0  0  0  0  0  0  0  0  0
 25 26  1  0
 26 27  2  0
 26 31  1  0
 27 28  1  0
 28 29  2  0
 29 30  1  0
 30 22  1  0
 30 31  2  0
 22 23  1  0
 23 24  2  0
 23 21  1  0
 21 18  1  0
 18 19  1  0
 19 20  2  0
 19  1  1  0
  1  2  1  0
  2  3  1  0
  2 16  1  0
  3  4  2  0
  3  5  1  0
  5  6  1  0
  6  7  1  6
  6 15  1  0
  6 16  1  0
  7  8  1  0
  8  9  1  0
  9 10  1  0
 10 11  2  0
 10 15  1  0
 11 12  1  0
 12 13  2  0
 13 14  1  0
 14 15  2  0
 16 17  2  0
 31 32  1  0
M  END
>  <minimizedAffinity>  (1206) 
-8.87045

$$$$
data/reference_output_2/data/smiles/196166.pdb
     RDKit          3D

 28 30  0  0  0  0  0  0  0  0999 V2000
   69.1109   47.9193   52.6094 C   0  0  0  0  0  0  0  0  0  0  0  0
   69.1917   47.3953   54.2426 C   0  0  0  0  0  0  0  0  0  0  0  0
   68.6720   46.3609   54.6945 N   0  0  0  0  0  0  0  0  0  0  0  0
   67.9565   45.4527   54.0502 C   0  0  0  0  0  0  0  0  0  0  0  0
   67.7695   45.7058   52.6552 C   0  0  0  0  0  0  0  0  0  0  0  0
   67.0719   44.8891   51.8318 O   0  0  0  0  0  0  0  0  0  0  0  0
   68.3858   46.8394   52.3590 C   0  0  0  0  0  0  0  0  0  0  0  0
   68.1814   47.0749   50.9472 O   0  0  0  0  0  0  0  0  0  0  0  0
   69.9862   49.7967   51.7340 O   0  0  0  0  0  0  0  0  0  0  0  0
   69.8324   48.9968   52.8596 C   0  0  0  0  0  0  0  0  0  0  0  0
   70.5178   49.5833   53.8980 N   0  0  0  0  0  0  0  0  0  0  0  0
   71.2848   50.7988   53.8207 C   0  0  0  0  0  0  0  0  0  0  0  0
   70.6712   51.8109   54.6967 C   0  0  0  0  0  0  0  0  0  0  0  0
   71.5710   52.6076   55.4855 C   0  0  0  0  0  0  0  0  0  0  0  0
   71.1141   53.6015   56.3055 C   0  0  0  0  0  0  0  0  0  0  0  0
   69.7721   53.8741   56.4161 C   0  0  0  0  0  0  0  0  0  0  0  0
   69.3540   54.8904   57.2471 F   0  0  0  0  0  0  0  0  0  0  0  0
   68.9013   53.1397   55.6923 C   0  0  0  0  0  0  0  0  0  0  0  0
   69.3513   52.1158   54.8384 C   0  0  0  0  0  0  0  0  0  0  0  0
   68.4193   51.4231   54.1556 F   0  0  0  0  0  0  0  0  0  0  0  0
   68.7939   46.1247   56.2055 C   0  0  0  0  0  0  0  0  0  0  0  0
   68.8822   47.4639   56.7744 C   0  0  0  0  0  0  0  0  0  0  0  0
   67.8011   48.2767   56.9821 C   0  0  0  0  0  0  0  0  0  0  0  0
   67.9498   49.5508   57.5230 C   0  0  0  0  0  0  0  0  0  0  0  0
   69.1777   50.0528   57.8760 C   0  0  0  0  0  0  0  0  0  0  0  0
   69.2694   51.3032   58.4088 F   0  0  0  0  0  0  0  0  0  0  0  0
   70.2942   49.2437   57.6762 C   0  0  0  0  0  0  0  0  0  0  0  0
   70.1273   48.0065   57.1443 C   0  0  0  0  0  0  0  0  0  0  0  0
  9 10  2  0
 10 11  1  0
 10  1  1  0
 11 12  1  0
 12 13  1  0
 13 14  2  0
 13 19  1  0
 14 15  1  0
 15 16  2  0
 16 17  1  0
 16 18  1  0
 18 19  2  0
 19 20  1  0
  1  2  2  0
  1  7  1  0
  2  3  1  0
  3 21  1  0
  3  4  1  0
 21 22  1  0
 22 23  2  0
 22 28  1  0
 23 24  1  0
 24 25  2  0
 25 26  1  0
 25 27  1  0
 27 28  2  0
  4  5  2  0
  5  6  1  0
  5  7  1  0
  7  8  2  0
M  END
>  <minimizedAffinity>  (1207) 
-8.72822

$$$$
data/reference_output_2/data/smiles/196167.pdb
     RDKit          3D

 20 22  0  0  0  0  0  0  0  0999 V2000
   71.9379   50.0230   53.8664 O   0  0  0  0  0  0  0  0  0  0  0  0
   70.6650   49.9752   53.6654 C   0  0  0  0  0  0  0  0  0  0  0  0
   69.9415   51.0003   54.2888 N   0  0  0  0  0  0  0  0  0  0  0  0
   70.2015   48.8850   52.8484 C   0  0  0  0  0  0  0  0  0  0  0  0
   70.5316   48.6875   51.5263 N   0  0  0  0  0  0  0  0  0  0  0  0
   69.9319   47.6298   51.0519 N   0  0  0  0  0  0  0  0  0  0  0  0
   69.1712   47.0500   51.9925 C   0  0  0  0  0  0  0  0  0  0  0  0
   68.3429   45.9557   52.0405 C   0  0  0  0  0  0  0  0  0  0  0  0
   67.6582   45.5998   53.1829 C   0  0  0  0  0  0  0  0  0  0  0  0
   67.7974   46.3569   54.3180 C   0  0  0  0  0  0  0  0  0  0  0  0
   68.6413   47.4699   54.2633 C   0  0  0  0  0  0  0  0  0  0  0  0
   69.3398   47.8456   53.1341 C   0  0  0  0  0  0  0  0  0  0  0  0
   70.5583   52.0513   55.0833 C   0  0  0  0  0  0  0  0  0  0  0  0
   70.3954   51.8998   56.5534 C   0  0  0  0  0  0  0  0  0  0  0  0
   69.2014   51.1546   56.9628 C   0  0  0  0  0  0  0  0  0  0  0  0
   67.9642   51.7367   57.1089 C   0  0  0  0  0  0  0  0  0  0  0  0
   66.8748   50.9837   57.4950 C   0  0  0  0  0  0  0  0  0  0  0  0
   66.9796   49.6249   57.7474 C   0  0  0  0  0  0  0  0  0  0  0  0
   68.2095   49.0437   57.6023 C   0  0  0  0  0  0  0  0  0  0  0  0
   69.3077   49.8029   57.2139 C   0  0  0  0  0  0  0  0  0  0  0  0
  1  2  2  0
  2  3  1  0
  2  4  1  0
  3 13  1  0
 13 14  1  0
 14 15  1  0
 15 16  2  0
 15 20  1  0
 16 17  1  0
 17 18  2  0
 18 19  1  0
 19 20  2  0
  4  5  1  0
  4 12  2  0
  5  6  1  0
  6  7  2  0
  7  8  1  0
  7 12  1  0
  8  9  2  0
  9 10  1  0
 10 11  2  0
 11 12  1  0
M  END
>  <minimizedAffinity>  (1208) 
-8.60538

$$$$
data/reference_output_2/data/smiles/196248.pdb
     RDKit          3D

 23 25  0  0  0  0  0  0  0  0999 V2000
   70.0614   49.7577   53.3571 S   0  0  0  0  0  0  0  0  0  0  0  0
   69.7657   50.0575   51.8880 O   0  0  0  0  0  0  0  0  0  0  0  0
   71.5866   49.5242   53.2844 O   0  0  0  0  0  0  0  0  0  0  0  0
   72.6227   53.0007   55.8314 C   0  0  0  0  0  0  0  0  0  0  0  0
   71.8795   53.9491   56.5084 C   0  0  0  0  0  0  0  0  0  0  0  0
   70.5039   53.9089   56.4286 C   0  0  0  0  0  0  0  0  0  0  0  0
   69.8684   52.9381   55.6853 C   0  0  0  0  0  0  0  0  0  0  0  0
   68.5641   52.6752   55.4360 C   0  0  0  0  0  0  0  0  0  0  0  0
   68.5324   51.5778   54.6167 C   0  0  0  0  0  0  0  0  0  0  0  0
   69.8005   51.1266   54.3331 N   0  0  0  0  0  0  0  0  0  0  0  0
   70.5860   51.9717   54.9946 C   0  0  0  0  0  0  0  0  0  0  0  0
   71.9507   52.0322   55.0875 C   0  0  0  0  0  0  0  0  0  0  0  0
   74.7467   52.6084   54.7469 C   0  0  0  0  0  0  0  0  0  0  0  0
   74.0166   52.9935   55.8765 O   0  0  0  0  0  0  0  0  0  0  0  0
   69.3924   48.2656   53.9040 C   0  0  0  0  0  0  0  0  0  0  0  0
   69.2358   48.1337   55.3014 C   0  0  0  0  0  0  0  0  0  0  0  0
   68.6288   47.0868   55.9044 C   0  0  0  0  0  0  0  0  0  0  0  0
   68.1221   46.0713   55.1263 C   0  0  0  0  0  0  0  0  0  0  0  0
   68.2710   46.1882   53.7652 C   0  0  0  0  0  0  0  0  0  0  0  0
   68.8949   47.2568   53.1332 C   0  0  0  0  0  0  0  0  0  0  0  0
   69.0817   47.1733   51.7018 C   0  0  0  0  0  0  0  0  0  0  0  0
   68.0556   46.8352   51.0125 O   0  0  0  0  0  0  0  0  0  0  0  0
   70.1954   47.3961   50.9550 O   0  0  0  0  0  0  0  0  0  0  0  0
 13 14  1  0
 14  4  1  0
  4  5  2  0
  4 12  1  0
  5  6  1  0
  6  7  2  0
  7  8  1  0
  7 11  1  0
  8  9  2  0
  9 10  1  0
 10  1  1  0
 10 11  1  0
  1  2  2  0
  1  3  2  0
  1 15  1  0
 15 16  2  0
 15 20  1  0
 16 17  1  0
 17 18  2  0
 18 19  1  0
 19 20  2  0
 20 21  1  0
 21 22  2  0
 21 23  1  0
 11 12  2  0
M  END
>  <minimizedAffinity>  (1209) 
-8.54551

$$$$
data/reference_output_2/data/smiles/196543.pdb
     RDKit          3D

 32 36  0  0  0  0  0  0  0  0999 V2000
   71.9085   47.5620   58.6782 C   0  0  0  0  0  0  0  0  0  0  0  0
   73.0987   48.2434   58.3990 C   0  0  0  0  0  0  0  0  0  0  0  0
   73.1723   49.2297   57.4490 C   0  0  0  0  0  0  0  0  0  0  0  0
   72.0365   49.5771   56.7285 C   0  0  0  0  0  0  0  0  0  0  0  0
   70.8623   48.9175   56.9905 C   0  0  0  0  0  0  0  0  0  0  0  0
   70.7913   47.9138   57.9603 C   0  0  0  0  0  0  0  0  0  0  0  0
   71.7420   46.9249   60.8931 O   0  0  0  0  0  0  0  0  0  0  0  0
   71.9212   46.5193   59.6915 C   0  0  0  0  0  0  0  0  0  0  0  0
   72.1058   45.1475   59.4842 N   0  0  0  0  0  0  0  0  0  0  0  0
   72.3127   44.6024   58.1626 C   0  0  0  0  0  0  0  0  0  0  0  0
   72.5893   43.1098   58.2216 C   0  0  0  0  0  0  0  0  0  0  0  0
   71.6866   42.4250   59.1038 N   0  0  0  0  0  0  0  0  0  0  0  0
   71.1121   43.1144   60.2251 C   0  0  0  0  0  0  0  0  0  0  0  0
   72.0940   44.2325   60.6056 C   0  0  0  0  0  0  0  0  0  0  0  0
   71.3729   41.0664   58.8606 C   0  0  0  0  0  0  0  0  0  0  0  0
   72.3212   40.0521   58.8744 C   0  0  0  0  0  0  0  0  0  0  0  0
   71.9934   38.7313   58.6289 C   0  0  0  0  0  0  0  0  0  0  0  0
   70.6930   38.3659   58.3571 C   0  0  0  0  0  0  0  0  0  0  0  0
   69.7618   39.3920   58.3489 C   0  0  0  0  0  0  0  0  0  0  0  0
   70.1030   40.6640   58.5896 N   0  0  0  0  0  0  0  0  0  0  0  0
   69.6283   49.2591   56.2218 C   0  0  0  0  0  0  0  0  0  0  0  0
   69.8268   48.8703   54.8082 C   0  0  0  0  0  0  0  0  0  0  0  0
   70.7370   49.5435   54.0527 N   0  0  0  0  0  0  0  0  0  0  0  0
   70.9620   49.2719   52.7850 N   0  0  0  0  0  0  0  0  0  0  0  0
   70.2823   48.2929   52.1683 C   0  0  0  0  0  0  0  0  0  0  0  0
   70.5230   48.0564   50.9427 O   0  0  0  0  0  0  0  0  0  0  0  0
   69.3388   47.5533   52.8490 C   0  0  0  0  0  0  0  0  0  0  0  0
   69.1261   47.8627   54.1831 C   0  0  0  0  0  0  0  0  0  0  0  0
   68.1339   47.0765   54.9411 C   0  0  0  0  0  0  0  0  0  0  0  0
   68.0797   45.6654   54.3834 C   0  0  0  0  0  0  0  0  0  0  0  0
   67.6350   45.7490   52.9379 C   0  0  0  0  0  0  0  0  0  0  0  0
   68.6271   46.4984   52.0980 C   0  0  0  0  0  0  0  0  0  0  0  0
  7  8  2  0
  8  1  1  0
  8  9  1  0
  1  2  2  0
  1  6  1  0
  2  3  1  0
  3  4  2  0
  4  5  1  0
  5 21  1  0
  5  6  2  0
 21 22  1  0
 22 23  2  0
 22 28  1  0
 23 24  1  0
 24 25  1  0
 25 26  2  0
 25 27  1  0
 27 28  2  0
 27 32  1  0
 28 29  1  0
 29 30  1  0
 30 31  1  0
 31 32  1  0
  9 10  1  0
  9 14  1  0
 10 11  1  0
 11 12  1  0
 12 15  1  0
 12 13  1  0
 15 16  2  0
 15 20  1  0
 16 17  1  0
 17 18  2  0
 18 19  1  0
 19 20  2  0
 13 14  1  0
M  END
>  <minimizedAffinity>  (1210) 
-9.80801

$$$$
data/reference_output_2/data/smiles/196643.pdb
     RDKit          3D

 32 35  0  0  0  0  0  0  0  0999 V2000
   70.6935   44.5393   58.9247 C   0  0  0  0  0  0  0  0  0  0  0  0
   70.6771   45.8520   58.7708 C   0  0  0  0  0  0  0  0  0  0  0  0
   71.3754   46.6600   59.5925 N   0  0  0  0  0  0  0  0  0  0  0  0
   71.3736   47.9920   59.4551 C   0  0  0  0  0  0  0  0  0  0  0  0
   72.0415   48.7165   60.2472 O   0  0  0  0  0  0  0  0  0  0  0  0
   70.6351   48.6006   58.4377 C   0  0  0  0  0  0  0  0  0  0  0  0
   70.6176   49.9061   58.2843 C   0  0  0  0  0  0  0  0  0  0  0  0
   69.9349   47.8021   57.6131 N   0  0  0  0  0  0  0  0  0  0  0  0
   69.9544   46.4699   57.7734 C   0  0  0  0  0  0  0  0  0  0  0  0
   69.2770   45.7554   56.9685 O   0  0  0  0  0  0  0  0  0  0  0  0
   69.8292   50.4846   57.2042 C   0  0  0  0  0  0  0  0  0  0  0  0
   68.8510   51.4107   57.3972 C   0  0  0  0  0  0  0  0  0  0  0  0
   68.1619   51.8966   56.3090 C   0  0  0  0  0  0  0  0  0  0  0  0
   68.4450   51.4615   55.0383 C   0  0  0  0  0  0  0  0  0  0  0  0
   69.4467   50.5049   54.7884 C   0  0  0  0  0  0  0  0  0  0  0  0
   70.1037   50.0535   55.9065 C   0  0  0  0  0  0  0  0  0  0  0  0
   69.7192   50.1054   53.4263 C   0  0  0  0  0  0  0  0  0  0  0  0
   70.2271   50.9557   52.6532 O   0  0  0  0  0  0  0  0  0  0  0  0
   69.4339   48.7871   52.9238 C   0  0  0  0  0  0  0  0  0  0  0  0
   68.7924   47.7559   53.6346 C   0  0  0  0  0  0  0  0  0  0  0  0
   68.7156   46.6384   52.8637 C   0  0  0  0  0  0  0  0  0  0  0  0
   69.3049   46.9509   51.6697 C   0  0  0  0  0  0  0  0  0  0  0  0
   69.7277   48.2478   51.7336 N   0  0  0  0  0  0  0  0  0  0  0  0
   72.6860   43.2879   59.7669 C   0  0  0  0  0  0  0  0  0  0  0  0
   73.1278   42.7983   60.9375 N   0  0  0  0  0  0  0  0  0  0  0  0
   72.2060   43.0879   61.8901 C   0  0  0  0  0  0  0  0  0  0  0  0
   71.1839   43.7650   61.2920 N   0  0  0  0  0  0  0  0  0  0  0  0
   71.4612   43.8992   59.9829 C   0  0  0  0  0  0  0  0  0  0  0  0
   72.5133   42.6363   57.3879 C   0  0  0  0  0  0  0  0  0  0  0  0
   73.3998   43.1792   58.4864 C   0  0  0  0  0  0  0  0  0  0  0  0
   74.5924   42.2623   58.6397 C   0  0  0  0  0  0  0  0  0  0  0  0
   73.9454   44.5247   58.0348 C   0  0  0  0  0  0  0  0  0  0  0  0
 29 30  1  0
 30 31  1  0
 30 32  1  0
 30 24  1  0
 24 25  1  0
 24 28  2  0
 25 26  1  0
 26 27  2  0
 27 28  1  0
 28  1  1  0
  1  2  2  0
  2  3  1  0
  2  9  1  0
  3  4  1  0
  4  5  2  0
  4  6  1  0
  6  7  2  0
  6  8  1  0
  7 11  1  0
 11 12  2  0
 11 16  1  0
 12 13  1  0
 13 14  2  0
 14 15  1  0
 15 17  1  0
 15 16  2  0
 17 18  2  0
 17 19  1  0
 19 20  2  0
 19 23  1  0
 20 21  1  0
 21 22  2  0
 22 23  1  0
  8  9  1  0
  9 10  2  0
M  CHG  1  27   1
M  END
>  <minimizedAffinity>  (1211) 
-8.98767

$$$$
data/reference_output_2/data/smiles/196671.pdb
     RDKit          3D

 22 23  0  0  0  0  0  0  0  0999 V2000
   67.9723   44.2010   55.1431 N   0  0  0  0  0  0  0  0  0  0  0  0
   68.2275   45.4783   55.0603 C   0  0  0  0  0  0  0  0  0  0  0  0
   68.3657   46.2969   56.2383 N   0  0  0  0  0  0  0  0  0  0  0  0
   68.3890   46.1516   53.7868 C   0  0  0  0  0  0  0  0  0  0  0  0
   67.7357   45.6803   52.6735 C   0  0  0  0  0  0  0  0  0  0  0  0
   67.8953   46.3339   51.4468 C   0  0  0  0  0  0  0  0  0  0  0  0
   68.6961   47.4430   51.3332 C   0  0  0  0  0  0  0  0  0  0  0  0
   69.3432   47.8958   52.4760 C   0  0  0  0  0  0  0  0  0  0  0  0
   69.1957   47.2581   53.7038 C   0  0  0  0  0  0  0  0  0  0  0  0
   70.1796   49.0320   52.4205 N   0  0  0  0  0  0  0  0  0  0  0  0
   69.8180   50.0276   51.7779 O   0  0  0  0  0  0  0  0  0  0  0  0
   71.3857   49.0511   53.0668 O   0  0  0  0  0  0  0  0  0  0  0  0
   67.8411   43.6765   56.4063 O   0  0  0  0  0  0  0  0  0  0  0  0
   67.5144   42.3489   56.6401 C   0  0  0  0  0  0  0  0  0  0  0  0
   66.3603   41.9876   56.2812 O   0  0  0  0  0  0  0  0  0  0  0  0
   71.2548   38.7332   59.1081 C   0  0  0  0  0  0  0  0  0  0  0  0
   70.2890   39.6649   58.4721 C   0  0  0  0  0  0  0  0  0  0  0  0
   69.0403   39.2172   58.0845 C   0  0  0  0  0  0  0  0  0  0  0  0
   68.1394   40.0909   57.4891 C   0  0  0  0  0  0  0  0  0  0  0  0
   68.4456   41.4142   57.2640 C   0  0  0  0  0  0  0  0  0  0  0  0
   69.6939   41.8470   57.6545 C   0  0  0  0  0  0  0  0  0  0  0  0
   70.6050   40.9885   58.2496 C   0  0  0  0  0  0  0  0  0  0  0  0
 16 17  1  0
 17 18  2  0
 17 22  1  0
 18 19  1  0
 19 20  2  0
 20 14  1  0
 20 21  1  0
 14 15  2  0
 14 13  1  0
 13  1  1  0
  1  2  2  0
  2  3  1  0
  2  4  1  0
  4  5  2  0
  4  9  1  0
  5  6  1  0
  6  7  2  0
  7  8  1  0
  8 10  1  0
  8  9  2  0
 10 11  2  0
 10 12  1  0
 21 22  2  0
M  CHG  3   1   1  10   1  12  -1
M  END
>  <minimizedAffinity>  (1212) 
-8.78520

$$$$
data/reference_output_2/data/smiles/196736.pdb
     RDKit          3D

 26 28  0  0  0  0  0  0  0  0999 V2000
   73.0145   44.2236   58.0456 C   0  0  0  0  0  0  0  0  0  0  0  0
   71.9348   43.2096   58.1585 C   0  0  0  0  0  0  0  0  0  0  0  0
   70.5924   43.5695   58.2071 C   0  0  0  0  0  0  0  0  0  0  0  0
   69.7034   42.5843   58.3109 N   0  0  0  0  0  0  0  0  0  0  0  0
   68.3461   42.8101   58.3528 O   0  0  0  0  0  0  0  0  0  0  0  0
   70.0396   41.2604   58.3712 C   0  0  0  0  0  0  0  0  0  0  0  0
   69.0482   40.2753   58.4810 C   0  0  0  0  0  0  0  0  0  0  0  0
   69.4744   38.9580   58.5355 C   0  0  0  0  0  0  0  0  0  0  0  0
   68.5263   37.9787   58.6421 F   0  0  0  0  0  0  0  0  0  0  0  0
   70.7993   38.5854   58.4885 C   0  0  0  0  0  0  0  0  0  0  0  0
   71.1707   37.2652   58.5460 F   0  0  0  0  0  0  0  0  0  0  0  0
   71.7434   39.5821   58.3805 C   0  0  0  0  0  0  0  0  0  0  0  0
   71.3651   40.9144   58.3224 C   0  0  0  0  0  0  0  0  0  0  0  0
   72.2615   41.9075   58.2175 N   0  0  0  0  0  0  0  0  0  0  0  0
   73.6043   41.5301   58.1694 O   0  0  0  0  0  0  0  0  0  0  0  0
   70.2618   44.9790   58.1240 C   0  0  0  0  0  0  0  0  0  0  0  0
   70.4276   45.7084   59.1734 O   0  0  0  0  0  0  0  0  0  0  0  0
   69.7690   45.6492   56.9954 N   0  0  0  0  0  0  0  0  0  0  0  0
   69.4864   47.0584   56.9251 C   0  0  0  0  0  0  0  0  0  0  0  0
   68.4328   47.4169   55.9655 C   0  0  0  0  0  0  0  0  0  0  0  0
   68.5683   47.1926   54.5357 C   0  0  0  0  0  0  0  0  0  0  0  0
   69.3082   48.0381   53.7149 C   0  0  0  0  0  0  0  0  0  0  0  0
   69.3512   47.8102   52.3738 C   0  0  0  0  0  0  0  0  0  0  0  0
   68.6975   46.7740   51.7480 C   0  0  0  0  0  0  0  0  0  0  0  0
   67.9613   45.9304   52.5493 C   0  0  0  0  0  0  0  0  0  0  0  0
   67.9030   46.1380   53.8960 C   0  0  0  0  0  0  0  0  0  0  0  0
  1  2  1  0
  2  3  2  0
  2 14  1  0
  3 16  1  0
  3  4  1  0
 16 17  2  0
 16 18  1  0
 18 19  1  0
 19 20  1  0
 20 21  1  0
 21 22  2  0
 21 26  1  0
 22 23  1  0
 23 24  2  0
 24 25  1  0
 25 26  2  0
  4  5  1  0
  4  6  2  0
  6  7  1  0
  6 13  1  0
  7  8  2  0
  8  9  1  0
  8 10  1  0
 10 11  1  0
 10 12  2  0
 12 13  1  0
 13 14  2  0
 14 15  1  0
M  CHG  4   4   1   5  -1  14   1  15  -1
M  END
>  <minimizedAffinity>  (1213) 
-8.68211

$$$$
data/reference_output_2/data/smiles/196885.pdb
     RDKit          3D

 26 29  0  0  0  0  0  0  0  0999 V2000
   68.9879   42.7474   57.1267 C   0  0  0  0  0  0  0  0  0  0  0  0
   68.3328   42.5849   58.3997 N   0  0  0  0  0  0  0  0  0  0  0  0
   67.4364   41.4855   58.4753 C   0  0  0  0  0  0  0  0  0  0  0  0
   68.1052   40.1470   58.2383 C   0  0  0  0  0  0  0  0  0  0  0  0
   69.3656   40.0933   58.9333 N   0  0  0  0  0  0  0  0  0  0  0  0
   69.9390   41.1820   59.6562 C   0  0  0  0  0  0  0  0  0  0  0  0
   69.3207   42.5129   59.4272 C   0  0  0  0  0  0  0  0  0  0  0  0
   70.1001   38.8561   58.8937 C   0  0  0  0  0  0  0  0  0  0  0  0
   71.1509   38.6504   58.0242 C   0  0  0  0  0  0  0  0  0  0  0  0
   71.8542   37.4414   57.9902 C   0  0  0  0  0  0  0  0  0  0  0  0
   71.5063   36.4116   58.8408 C   0  0  0  0  0  0  0  0  0  0  0  0
   72.3773   34.8846   58.8138 Cl  0  0  0  0  0  0  0  0  0  0  0  0
   70.4593   36.6001   59.7163 C   0  0  0  0  0  0  0  0  0  0  0  0
   69.7844   37.8027   59.7262 C   0  0  0  0  0  0  0  0  0  0  0  0
   68.0871   43.1828   56.0325 C   0  0  0  0  0  0  0  0  0  0  0  0
   68.0163   44.5586   55.9096 O   0  0  0  0  0  0  0  0  0  0  0  0
   70.0810   49.8719   51.6649 O   0  0  0  0  0  0  0  0  0  0  0  0
   69.6266   48.8468   52.2532 C   0  0  0  0  0  0  0  0  0  0  0  0
   68.9183   47.8751   51.6455 N   0  0  0  0  0  0  0  0  0  0  0  0
   68.6061   46.9534   52.5736 C   0  0  0  0  0  0  0  0  0  0  0  0
   67.9038   45.7677   52.5096 C   0  0  0  0  0  0  0  0  0  0  0  0
   67.7384   45.0193   53.6344 C   0  0  0  0  0  0  0  0  0  0  0  0
   68.2596   45.4060   54.8822 C   0  0  0  0  0  0  0  0  0  0  0  0
   68.9501   46.5826   54.9165 C   0  0  0  0  0  0  0  0  0  0  0  0
   69.1304   47.3654   53.7693 C   0  0  0  0  0  0  0  0  0  0  0  0
   69.7528   48.5302   53.5489 N   0  0  0  0  0  0  0  0  0  0  0  0
 17 18  2  0
 18 19  1  0
 18 26  1  0
 19 20  1  0
 20 21  2  0
 20 25  1  0
 21 22  1  0
 22 23  2  0
 23 16  1  0
 23 24  1  0
 16 15  1  0
 15  1  1  0
  1  2  1  0
  2  3  1  0
  2  7  1  0
  3  4  1  0
  4  5  1  0
  5  8  1  0
  5  6  1  0
  8  9  2  0
  8 14  1  0
  9 10  1  0
 10 11  2  0
 11 12  1  0
 11 13  1  0
 13 14  2  0
  6  7  1  0
 24 25  2  0
 25 26  1  0
M  CHG  2   2   1  19   1
M  END
>  <minimizedAffinity>  (1214) 
-8.51244

$$$$
data/reference_output_2/data/smiles/196911.pdb
     RDKit          3D

 24 27  0  0  0  0  0  0  0  0999 V2000
   70.1269   44.4243   59.5260 O   0  0  0  0  0  0  0  0  0  0  0  0
   70.2721   44.1261   58.0664 S   0  0  0  0  0  0  0  0  0  0  0  0
   71.7380   43.9077   57.7320 O   0  0  0  0  0  0  0  0  0  0  0  0
   69.6981   45.4106   57.0767 N   0  0  0  0  0  0  0  0  0  0  0  0
   68.6605   45.1909   56.1380 C   0  0  0  0  0  0  0  0  0  0  0  0
   68.0969   44.0613   55.9414 N   0  0  0  0  0  0  0  0  0  0  0  0
   68.4036   42.8695   56.6120 C   0  0  0  0  0  0  0  0  0  0  0  0
   67.6637   41.7453   56.2310 C   0  0  0  0  0  0  0  0  0  0  0  0
   66.6731   41.8489   55.2331 O   0  0  0  0  0  0  0  0  0  0  0  0
   67.9042   40.5294   56.8330 C   0  0  0  0  0  0  0  0  0  0  0  0
   68.8712   40.4310   57.8063 C   0  0  0  0  0  0  0  0  0  0  0  0
   69.1522   38.8662   58.5539 Cl  0  0  0  0  0  0  0  0  0  0  0  0
   69.5946   41.5539   58.1717 C   0  0  0  0  0  0  0  0  0  0  0  0
   69.3519   42.7266   57.5797 C   0  0  0  0  0  0  0  0  0  0  0  0
   68.1963   46.2841   55.3347 N   0  0  0  0  0  0  0  0  0  0  0  0
   68.1447   46.2761   53.9325 C   0  0  0  0  0  0  0  0  0  0  0  0
   67.4156   45.3660   53.2205 C   0  0  0  0  0  0  0  0  0  0  0  0
   67.3855   45.4068   51.8139 C   0  0  0  0  0  0  0  0  0  0  0  0
   68.1033   46.3806   51.1354 C   0  0  0  0  0  0  0  0  0  0  0  0
   68.8385   47.3006   51.8508 C   0  0  0  0  0  0  0  0  0  0  0  0
   69.6021   48.3216   51.4262 N   0  0  0  0  0  0  0  0  0  0  0  0
   70.1298   48.9503   52.4916 C   0  0  0  0  0  0  0  0  0  0  0  0
   69.6799   48.2987   53.6205 C   0  0  0  0  0  0  0  0  0  0  0  0
   68.8520   47.2391   53.2324 C   0  0  0  0  0  0  0  0  0  0  0  0
  1  2  2  0
  2  3  2  0
  2  4  1  0
  2 14  1  0
  4  5  1  0
  5 15  1  0
  5  6  2  0
 15 16  1  0
 16 17  2  0
 16 24  1  0
 17 18  1  0
 18 19  2  0
 19 20  1  0
 20 21  1  0
 20 24  2  0
 21 22  1  0
 22 23  2  0
 23 24  1  0
  6  7  1  0
  7  8  1  0
  7 14  2  0
  8  9  1  0
  8 10  2  0
 10 11  1  0
 11 12  1  0
 11 13  2  0
 13 14  1  0
M  CHG  1   6   1
M  END
>  <minimizedAffinity>  (1215) 
-9.46059

$$$$
data/reference_output_2/data/smiles/196918.pdb
     RDKit          3D

 24 27  0  0  0  0  0  0  0  0999 V2000
   69.3972   48.3936   53.0544 C   0  0  0  0  0  0  0  0  0  0  0  0
   69.6985   48.0697   51.7282 C   0  0  0  0  0  0  0  0  0  0  0  0
   70.0356   49.2314   51.1428 N   0  0  0  0  0  0  0  0  0  0  0  0
   69.9579   50.2062   52.0094 N   0  0  0  0  0  0  0  0  0  0  0  0
   69.5616   49.7185   53.2114 C   0  0  0  0  0  0  0  0  0  0  0  0
   69.1982   46.9426   57.6734 N   0  0  0  0  0  0  0  0  0  0  0  0
   68.9090   46.7030   56.2915 C   0  0  0  0  0  0  0  0  0  0  0  0
   69.2765   47.6212   55.3323 C   0  0  0  0  0  0  0  0  0  0  0  0
   68.9982   47.3911   54.0047 C   0  0  0  0  0  0  0  0  0  0  0  0
   68.3513   46.2373   53.6528 C   0  0  0  0  0  0  0  0  0  0  0  0
   67.9926   45.3328   54.6229 C   0  0  0  0  0  0  0  0  0  0  0  0
   68.2746   45.5795   55.9136 N   0  0  0  0  0  0  0  0  0  0  0  0
   69.3619   50.5327   54.3983 C   0  0  2  0  0  0  0  0  0  0  0  0
   68.3319   51.6238   54.2130 C   0  0  0  0  0  0  0  0  0  0  0  0
   68.6219   52.4788   55.4295 C   0  0  0  0  0  0  0  0  0  0  0  0
   70.0899   52.4917   55.5074 N   0  0  0  0  0  0  0  0  0  0  0  0
   70.8612   53.4298   56.2420 C   0  0  0  0  0  0  0  0  0  0  0  0
   70.1843   54.3262   56.8699 O   0  0  0  0  0  0  0  0  0  0  0  0
   70.5966   51.3990   54.7075 C   0  0  0  0  0  0  0  0  0  0  0  0
   72.3269   53.4532   56.3370 C   0  0  0  0  0  0  0  0  0  0  0  0
   72.8884   53.4400   57.7131 C   0  0  0  0  0  0  0  0  0  0  0  0
   73.7084   54.6724   57.8397 C   0  0  0  0  0  0  0  0  0  0  0  0
   74.2227   54.8963   56.4361 C   0  0  0  0  0  0  0  0  0  0  0  0
   72.9986   54.5651   55.5872 C   0  0  0  0  0  0  0  0  0  0  0  0
  6  7  1  0
  7  8  2  0
  7 12  1  0
  8  9  1  0
  9  1  1  0
  9 10  2  0
  1  2  2  0
  1  5  1  0
  2  3  1  0
  3  4  1  0
  4  5  2  0
 13  5  1  6
 13 14  1  0
 13 19  1  0
 14 15  1  0
 15 16  1  0
 16 17  1  0
 16 19  1  0
 17 18  2  0
 17 20  1  0
 20 21  1  0
 20 24  1  0
 21 22  1  0
 22 23  1  0
 23 24  1  0
 10 11  1  0
 11 12  2  0
M  END
>  <minimizedAffinity>  (1216) 
-9.24863

$$$$
data/reference_output_2/data/smiles/196960.pdb
     RDKit          3D

 21 23  0  0  0  0  0  0  0  0999 V2000
   69.9519   49.2849   52.7482 S   0  0  0  0  0  0  0  0  0  0  0  0
   69.7871   49.8731   51.3778 O   0  0  0  0  0  0  0  0  0  0  0  0
   71.4015   49.0143   53.0328 O   0  0  0  0  0  0  0  0  0  0  0  0
   69.3689   50.4370   53.9125 N   0  0  0  0  0  0  0  0  0  0  0  0
   68.7819   51.6313   53.6073 C   0  0  0  0  0  0  0  0  0  0  0  0
   68.4488   52.2996   54.7549 C   0  0  0  0  0  0  0  0  0  0  0  0
   68.8372   51.5027   55.8255 C   0  0  0  0  0  0  0  0  0  0  0  0
   68.7553   51.6548   57.1939 C   0  0  0  0  0  0  0  0  0  0  0  0
   69.2272   50.6861   58.0530 C   0  0  0  0  0  0  0  0  0  0  0  0
   69.7842   49.5561   57.4930 C   0  0  0  0  0  0  0  0  0  0  0  0
   69.8660   49.4049   56.1211 C   0  0  0  0  0  0  0  0  0  0  0  0
   69.3913   50.3809   55.2456 C   0  0  0  0  0  0  0  0  0  0  0  0
   68.2782   45.8647   54.0863 C   0  0  0  0  0  0  0  0  0  0  0  0
   67.7140   45.3503   52.9348 C   0  0  0  0  0  0  0  0  0  0  0  0
   67.8413   46.0350   51.7479 C   0  0  0  0  0  0  0  0  0  0  0  0
   68.5327   47.2248   51.7377 C   0  0  0  0  0  0  0  0  0  0  0  0
   69.1109   47.7597   52.8945 C   0  0  0  0  0  0  0  0  0  0  0  0
   68.9718   47.0654   54.0529 C   0  0  0  0  0  0  0  0  0  0  0  0
   68.4926   45.6171   56.3604 O   0  0  0  0  0  0  0  0  0  0  0  0
   68.1219   45.1228   55.2864 N   0  0  0  0  0  0  0  0  0  0  0  0
   67.5713   43.8704   55.2995 O   0  0  0  0  0  0  0  0  0  0  0  0
 19 20  2  0
 20 21  1  0
 20 13  1  0
 13 14  2  0
 13 18  1  0
 14 15  1  0
 15 16  2  0
 16 17  1  0
 17  1  1  0
 17 18  2  0
  1  2  2  0
  1  3  2  0
  1  4  1  0
  4  5  1  0
  4 12  1  0
  5  6  2  0
  6  7  1  0
  7  8  1  0
  7 12  2  0
  8  9  2  0
  9 10  1  0
 10 11  2  0
 11 12  1  0
M  CHG  2  20   1  21  -1
M  END
>  <minimizedAffinity>  (1217) 
-8.50552

$$$$
data/reference_output_2/data/smiles/196980.pdb
     RDKit          3D

 27 30  0  0  0  0  0  0  0  0999 V2000
   70.0324   45.2811   57.8719 C   0  0  0  0  0  0  0  0  0  0  0  0
   69.9425   46.1288   58.8024 O   0  0  0  0  0  0  0  0  0  0  0  0
   69.5056   45.6227   56.6271 N   0  0  0  0  0  0  0  0  0  0  0  0
   70.7023   43.9967   58.2353 C   0  0  0  0  0  0  0  0  0  0  0  0
   66.7813   42.0568   55.9582 C   0  0  0  0  0  0  0  0  0  0  0  0
   68.0037   41.8828   56.7533 N   0  0  0  0  0  0  0  0  0  0  0  0
   68.7330   42.9366   57.1288 N   0  0  0  0  0  0  0  0  0  0  0  0
   69.8567   42.8307   57.8545 C   0  0  0  0  0  0  0  0  0  0  0  0
   70.2628   41.5638   58.2228 C   0  0  0  0  0  0  0  0  0  0  0  0
   71.3765   41.3337   58.9729 C   0  0  0  0  0  0  0  0  0  0  0  0
   71.8068   40.0746   59.3758 C   0  0  0  0  0  0  0  0  0  0  0  0
   71.0760   38.9775   59.0020 C   0  0  0  0  0  0  0  0  0  0  0  0
   69.9504   39.1722   58.2473 C   0  0  0  0  0  0  0  0  0  0  0  0
   69.5356   40.4261   57.8559 C   0  0  0  0  0  0  0  0  0  0  0  0
   68.3916   40.6465   57.1061 C   0  0  0  0  0  0  0  0  0  0  0  0
   67.6946   39.6692   56.7451 O   0  0  0  0  0  0  0  0  0  0  0  0
   68.8921   46.9408   56.4379 C   0  0  0  0  0  0  0  0  0  0  0  0
   69.1737   47.5615   55.1630 C   0  0  0  0  0  0  0  0  0  0  0  0
   69.9246   48.7497   55.1215 C   0  0  0  0  0  0  0  0  0  0  0  0
   70.1923   49.3682   53.9230 C   0  0  0  0  0  0  0  0  0  0  0  0
   69.7405   48.8506   52.7288 C   0  0  0  0  0  0  0  0  0  0  0  0
   68.9964   47.6731   52.7570 C   0  0  0  0  0  0  0  0  0  0  0  0
   68.5282   47.1006   51.6056 C   0  0  0  0  0  0  0  0  0  0  0  0
   67.8046   45.9326   51.6178 C   0  0  0  0  0  0  0  0  0  0  0  0
   67.5282   45.3025   52.8089 C   0  0  0  0  0  0  0  0  0  0  0  0
   67.9916   45.8674   53.9696 C   0  0  0  0  0  0  0  0  0  0  0  0
   68.7243   47.0477   53.9664 C   0  0  0  0  0  0  0  0  0  0  0  0
  5  6  1  0
  6  7  1  0
  6 15  1  0
  7  8  2  0
  8  4  1  0
  8  9  1  0
  4  1  1  0
  1  2  2  0
  1  3  1  0
  3 17  1  0
 17 18  1  0
 18 19  2  0
 18 27  1  0
 19 20  1  0
 20 21  2  0
 21 22  1  0
 22 23  1  0
 22 27  2  0
 23 24  2  0
 24 25  1  0
 25 26  2  0
 26 27  1  0
  9 10  1  0
  9 14  2  0
 10 11  2  0
 11 12  1  0
 12 13  2  0
 13 14  1  0
 14 15  1  0
 15 16  2  0
M  END
>  <minimizedAffinity>  (1218) 
-9.20416

$$$$
data/reference_output_2/data/smiles/196999.pdb
     RDKit          3D

 28 30  0  0  0  0  0  0  0  0999 V2000
   75.2272   34.7234   55.1614 N   0  0  0  0  0  0  0  0  0  0  0  0
   73.9648   34.9123   54.7894 C   0  0  0  0  0  0  0  0  0  0  0  0
   73.0259   35.3978   55.6851 C   0  0  0  0  0  0  0  0  0  0  0  0
   73.3128   35.7065   56.9632 N   0  0  0  0  0  0  0  0  0  0  0  0
   74.6015   35.5105   57.3412 C   0  0  0  0  0  0  0  0  0  0  0  0
   74.9174   35.7818   58.5235 O   0  0  0  0  0  0  0  0  0  0  0  0
   75.5406   35.0284   56.4573 C   0  0  0  0  0  0  0  0  0  0  0  0
   76.7396   34.8338   56.7724 O   0  0  0  0  0  0  0  0  0  0  0  0
   72.3440   36.2307   57.8578 C   0  0  0  0  0  0  0  0  0  0  0  0
   71.8980   37.5280   57.7832 C   0  0  0  0  0  0  0  0  0  0  0  0
   70.9454   38.0240   58.6802 C   0  0  0  0  0  0  0  0  0  0  0  0
   70.4598   39.4350   58.6072 C   0  0  0  0  0  0  0  0  0  0  0  0
   70.4587   37.1755   59.6499 C   0  0  0  0  0  0  0  0  0  0  0  0
   70.8759   35.8596   59.7658 C   0  0  0  0  0  0  0  0  0  0  0  0
   70.3016   35.0063   60.8376 C   0  0  0  0  0  0  0  0  0  0  0  0
   71.8090   35.4315   58.8600 C   0  0  0  0  0  0  0  0  0  0  0  0
   76.2192   34.2741   54.2372 C   0  0  0  0  0  0  0  0  0  0  0  0
   77.0880   34.7079   51.9385 N   0  0  0  0  0  0  0  0  0  0  0  0
   76.6626   35.1904   53.1957 C   0  0  0  0  0  0  0  0  0  0  0  0
   76.6660   36.4267   53.3908 O   0  0  0  0  0  0  0  0  0  0  0  0
   77.4909   35.5840   50.8885 C   0  0  0  0  0  0  0  0  0  0  0  0
   76.4681   33.6519   45.5385 C   0  0  0  0  0  0  0  0  0  0  0  0
   76.6968   34.1474   46.9321 C   0  0  0  0  0  0  0  0  0  0  0  0
   75.9879   33.6688   48.0053 C   0  0  0  0  0  0  0  0  0  0  0  0
   76.2239   34.1275   49.2842 C   0  0  0  0  0  0  0  0  0  0  0  0
   77.1740   35.0793   49.5476 C   0  0  0  0  0  0  0  0  0  0  0  0
   77.8886   35.5578   48.4363 C   0  0  0  0  0  0  0  0  0  0  0  0
   77.6566   35.1044   47.1604 C   0  0  0  0  0  0  0  0  0  0  0  0
 22 23  1  0
 23 24  2  0
 23 28  1  0
 24 25  1  0
 25 26  2  0
 26 21  1  0
 26 27  1  0
 21 18  1  0
 18 19  1  0
 19 20  2  0
 19 17  1  0
 17  1  1  0
  1  2  1  0
  1  7  1  0
  2  3  2  0
  3  4  1  0
  4  9  1  0
  4  5  1  0
  9 10  2  0
  9 16  1  0
 10 11  1  0
 11 12  1  0
 11 13  2  0
 13 14  1  0
 14 15  1  0
 14 16  2  0
  5  6  2  0
  5  7  1  0
  7  8  2  0
 27 28  2  0
M  END
>  <minimizedAffinity>  (1219) 
-8.58733

$$$$
data/reference_output_2/data/smiles/197191.pdb
     RDKit          3D

 19 21  0  0  0  0  0  0  0  0999 V2000
   66.7877   45.3194   51.1393 N   0  0  0  0  0  0  0  0  0  0  0  0
   67.7094   46.1475   51.8471 C   0  0  0  0  0  0  0  0  0  0  0  0
   67.7284   46.0991   53.2184 C   0  0  0  0  0  0  0  0  0  0  0  0
   68.6092   46.8889   53.9021 C   0  0  0  0  0  0  0  0  0  0  0  0
   69.4507   47.7119   53.2110 C   0  0  0  0  0  0  0  0  0  0  0  0
   70.4069   48.5883   53.5711 N   0  0  0  0  0  0  0  0  0  0  0  0
   70.9333   49.1348   52.4619 N   0  0  0  0  0  0  0  0  0  0  0  0
   70.3422   48.6360   51.3876 N   0  0  0  0  0  0  0  0  0  0  0  0
   69.4098   47.7398   51.8407 C   0  0  0  0  0  0  0  0  0  0  0  0
   68.5552   46.9723   51.1782 N   0  0  0  0  0  0  0  0  0  0  0  0
   68.6610   46.8743   55.2582 O   0  0  0  0  0  0  0  0  0  0  0  0
   69.3061   47.8016   56.0857 C   0  0  0  0  0  0  0  0  0  0  0  0
   68.4345   48.8378   56.6454 C   0  0  0  0  0  0  0  0  0  0  0  0
   67.3798   48.5759   57.4898 C   0  0  0  0  0  0  0  0  0  0  0  0
   66.6024   49.6134   58.0001 C   0  0  0  0  0  0  0  0  0  0  0  0
   66.8774   50.9221   57.6652 C   0  0  0  0  0  0  0  0  0  0  0  0
   67.9350   51.1967   56.8166 C   0  0  0  0  0  0  0  0  0  0  0  0
   68.6978   50.1468   56.3197 C   0  0  0  0  0  0  0  0  0  0  0  0
   69.7283   50.5142   55.4834 F   0  0  0  0  0  0  0  0  0  0  0  0
  1  2  1  0
  2  3  2  0
  2 10  1  0
  3  4  1  0
  4 11  1  0
  4  5  2  0
 11 12  1  0
 12 13  1  0
 13 14  2  0
 13 18  1  0
 14 15  1  0
 15 16  2  0
 16 17  1  0
 17 18  2  0
 18 19  1  0
  5  6  1  0
  5  9  1  0
  6  7  2  0
  7  8  1  0
  8  9  1  0
  9 10  2  0
M  END
>  <minimizedAffinity>  (1220) 
-8.69930

$$$$
data/reference_output_2/data/smiles/197199.pdb
     RDKit          3D

 24 25  0  0  0  0  0  0  0  0999 V2000
   72.7526   51.3872   54.9656 C   0  0  2  0  0  0  0  0  0  0  0  0
   70.8775   50.2314   53.7520 C   0  0  0  0  0  0  0  0  0  0  0  0
   70.5624   51.3252   53.2483 O   0  0  0  0  0  0  0  0  0  0  0  0
   71.9879   50.2142   54.6342 N   0  0  0  0  0  0  0  0  0  0  0  0
   67.7100   45.5369   52.4957 C   0  0  0  0  0  0  0  0  0  0  0  0
   68.5296   46.7476   52.8152 C   0  0  0  0  0  0  0  0  0  0  0  0
   68.4891   47.3419   54.0592 C   0  0  0  0  0  0  0  0  0  0  0  0
   69.2495   48.4570   54.3386 C   0  0  0  0  0  0  0  0  0  0  0  0
   70.0902   49.0462   53.4069 C   0  0  0  0  0  0  0  0  0  0  0  0
   70.1268   48.4490   52.1660 C   0  0  0  0  0  0  0  0  0  0  0  0
   69.3605   47.3236   51.8799 C   0  0  0  0  0  0  0  0  0  0  0  0
   74.1947   51.0301   54.9460 C   0  0  0  0  0  0  0  0  0  0  0  0
   75.0111   51.7171   55.6023 O   0  0  0  0  0  0  0  0  0  0  0  0
   74.6910   49.9535   54.2218 O   0  0  0  0  0  0  0  0  0  0  0  0
   72.4039   52.0119   56.2905 C   0  0  0  0  0  0  0  0  0  0  0  0
   70.9717   51.9002   56.6560 C   0  0  0  0  0  0  0  0  0  0  0  0
   70.5100   50.7927   57.3826 C   0  0  0  0  0  0  0  0  0  0  0  0
   69.1800   50.6669   57.7098 C   0  0  0  0  0  0  0  0  0  0  0  0
   68.7051   49.6101   58.4094 F   0  0  0  0  0  0  0  0  0  0  0  0
   68.3176   51.6687   57.2992 C   0  0  0  0  0  0  0  0  0  0  0  0
   66.9945   51.5919   57.5960 F   0  0  0  0  0  0  0  0  0  0  0  0
   68.7759   52.7623   56.5811 C   0  0  0  0  0  0  0  0  0  0  0  0
   70.1087   52.8946   56.2499 C   0  0  0  0  0  0  0  0  0  0  0  0
   70.5438   53.9985   55.5552 F   0  0  0  0  0  0  0  0  0  0  0  0
  5  6  1  0
  6  7  2  0
  6 11  1  0
  7  8  1  0
  8  9  2  0
  9  2  1  0
  9 10  1  0
  2  3  2  0
  2  4  1  0
  4  1  1  0
  1 15  1  1
  1 12  1  0
 15 16  1  0
 16 17  2  0
 16 23  1  0
 17 18  1  0
 18 19  1  0
 18 20  2  0
 20 21  1  0
 20 22  1  0
 22 23  2  0
 23 24  1  0
 12 13  2  0
 12 14  1  0
 10 11  2  0
M  END
>  <minimizedAffinity>  (1221) 
-8.54041

$$$$
data/reference_output_2/data/smiles/197441.pdb
     RDKit          3D

 25 28  0  0  0  0  0  0  0  0999 V2000
   68.4582   43.0440   56.4849 C   0  0  0  0  0  0  0  0  0  0  0  0
   69.3891   42.6347   57.4124 C   0  0  0  0  0  0  0  0  0  0  0  0
   69.3310   41.3629   57.9886 C   0  0  0  0  0  0  0  0  0  0  0  0
   68.3297   40.4747   57.6396 C   0  0  0  0  0  0  0  0  0  0  0  0
   67.3983   40.8850   56.7108 C   0  0  0  0  0  0  0  0  0  0  0  0
   67.4643   42.1557   56.1413 C   0  0  0  0  0  0  0  0  0  0  0  0
   66.5551   42.5441   55.2393 F   0  0  0  0  0  0  0  0  0  0  0  0
   68.4285   46.9600   53.4290 C   0  0  0  0  0  0  0  0  0  0  0  0
   68.6754   48.3046   53.5945 C   0  0  0  0  0  0  0  0  0  0  0  0
   69.0196   48.8033   54.8415 C   0  0  0  0  0  0  0  0  0  0  0  0
   69.1048   47.9318   55.8927 C   0  0  0  0  0  0  0  0  0  0  0  0
   68.8532   46.5799   55.7102 C   0  0  0  0  0  0  0  0  0  0  0  0
   68.8622   45.5138   56.5516 N   0  0  0  0  0  0  0  0  0  0  0  0
   68.5457   44.3828   55.8983 C   0  0  0  0  0  0  0  0  0  0  0  0
   68.3318   44.7440   54.6207 N   0  0  0  0  0  0  0  0  0  0  0  0
   68.5092   46.0683   54.4749 C   0  0  0  0  0  0  0  0  0  0  0  0
   67.0476   45.5228   51.8958 N   0  0  0  0  0  0  0  0  0  0  0  0
   68.0716   46.4873   52.1027 C   0  0  0  0  0  0  0  0  0  0  0  0
   68.6681   46.9283   51.0915 O   0  0  0  0  0  0  0  0  0  0  0  0
   68.2472   39.1107   58.2428 C   0  0  2  0  0  0  0  0  0  0  0  0
   67.2149   39.0218   59.3134 C   0  0  0  0  0  0  0  0  0  0  0  0
   67.8385   38.7385   60.6551 C   0  0  0  0  0  0  0  0  0  0  0  0
   68.6181   37.4456   60.5390 C   0  0  0  0  0  0  0  0  0  0  0  0
   69.6226   37.5157   59.5044 N   0  0  0  0  0  0  0  0  0  0  0  0
   69.6105   38.7722   58.8014 C   0  0  0  0  0  0  0  0  0  0  0  0
 17 18  1  0
 18 19  2  0
 18  8  1  0
  8  9  2  0
  8 16  1  0
  9 10  1  0
 10 11  2  0
 11 12  1  0
 12 13  1  0
 12 16  2  0
 13 14  1  0
 14  1  1  0
 14 15  2  0
  1  2  2  0
  1  6  1  0
  2  3  1  0
  3  4  2  0
 20  4  1  1
  4  5  1  0
 20 21  1  0
 20 25  1  0
 21 22  1  0
 22 23  1  0
 23 24  1  0
 24 25  1  0
  5  6  2  0
  6  7  1  0
 15 16  1  0
M  CHG  2  15   1  24   1
M  END
>  <minimizedAffinity>  (1222) 
-8.60917

$$$$
data/reference_output_2/data/smiles/197537.pdb
     RDKit          3D

 26 30  0  0  0  0  0  0  0  0999 V2000
   71.9210   47.4801   59.5410 C   0  0  0  0  0  0  0  0  0  0  0  0
   70.8658   47.4383   58.5942 N   0  0  0  0  0  0  0  0  0  0  0  0
   70.2099   48.5582   58.2225 C   0  0  0  0  0  0  0  0  0  0  0  0
   70.5262   49.7776   58.7134 C   0  0  0  0  0  0  0  0  0  0  0  0
   69.8157   50.9215   58.2941 C   0  0  0  0  0  0  0  0  0  0  0  0
   68.7890   50.8470   57.3840 C   0  0  0  0  0  0  0  0  0  0  0  0
   68.1201   51.9726   56.9979 F   0  0  0  0  0  0  0  0  0  0  0  0
   68.4632   49.6116   56.8817 C   0  0  0  0  0  0  0  0  0  0  0  0
   69.1650   48.5013   57.2984 C   0  0  0  0  0  0  0  0  0  0  0  0
   68.8143   47.2820   56.7735 C   0  0  0  0  0  0  0  0  0  0  0  0
   69.4736   46.1410   57.1452 C   0  0  0  0  0  0  0  0  0  0  0  0
   69.3117   44.8772   56.7731 N   0  0  0  0  0  0  0  0  0  0  0  0
   70.2013   44.0997   57.4079 C   0  0  0  0  0  0  0  0  0  0  0  0
   70.4523   42.7313   57.3764 C   0  0  0  0  0  0  0  0  0  0  0  0
   71.4480   42.1741   58.1409 C   0  0  0  0  0  0  0  0  0  0  0  0
   72.1827   43.0126   58.9351 C   0  0  0  0  0  0  0  0  0  0  0  0
   71.9585   44.3767   58.9904 C   0  0  0  0  0  0  0  0  0  0  0  0
   70.9673   44.9427   58.2306 C   0  0  0  0  0  0  0  0  0  0  0  0
   70.5208   46.2214   58.0735 C   0  0  0  0  0  0  0  0  0  0  0  0
   67.7768   47.2009   55.8521 O   0  0  0  0  0  0  0  0  0  0  0  0
   68.1063   47.0345   54.5009 C   0  0  0  0  0  0  0  0  0  0  0  0
   67.5958   45.9905   53.7652 C   0  0  0  0  0  0  0  0  0  0  0  0
   67.9007   45.8004   52.4384 C   0  0  0  0  0  0  0  0  0  0  0  0
   68.7551   46.6919   51.8117 C   0  0  0  0  0  0  0  0  0  0  0  0
   69.2874   47.7510   52.5126 C   0  0  0  0  0  0  0  0  0  0  0  0
   68.9576   47.9063   53.8407 C   0  0  0  0  0  0  0  0  0  0  0  0
  1  2  1  0
  2  3  2  0
  2 19  1  0
  3  4  1  0
  3  9  1  0
  4  5  2  0
  5  6  1  0
  6  7  1  0
  6  8  2  0
  8  9  1  0
  9 10  2  0
 10 20  1  0
 10 11  1  0
 20 21  1  0
 21 22  2  0
 21 26  1  0
 22 23  1  0
 23 24  2  0
 24 25  1  0
 25 26  2  0
 11 12  1  0
 11 19  2  0
 12 13  1  0
 13 14  1  0
 13 18  2  0
 14 15  2  0
 15 16  1  0
 16 17  2  0
 17 18  1  0
 18 19  1  0
M  CHG  1   2   1
M  END
>  <minimizedAffinity>  (1223) 
-8.85771

$$$$
data/reference_output_2/data/smiles/197602.pdb
     RDKit          3D

 27 30  0  0  0  0  0  0  0  0999 V2000
   70.8649   46.0006   58.2717 C   0  0  0  0  0  0  0  0  0  0  0  0
   71.9114   46.6536   58.8836 C   0  0  0  0  0  0  0  0  0  0  0  0
   72.1202   47.9923   58.6538 C   0  0  0  0  0  0  0  0  0  0  0  0
   71.2971   48.7129   57.8132 C   0  0  0  0  0  0  0  0  0  0  0  0
   70.2311   48.0664   57.1837 C   0  0  0  0  0  0  0  0  0  0  0  0
   70.0522   46.7303   57.4356 C   0  0  0  0  0  0  0  0  0  0  0  0
   71.4138   43.7468   57.9626 O   0  0  0  0  0  0  0  0  0  0  0  0
   70.6403   44.5908   58.5083 C   0  0  0  0  0  0  0  0  0  0  0  0
   69.6069   44.0596   59.3146 N   0  0  0  0  0  0  0  0  0  0  0  0
   69.4608   42.6552   59.4911 C   0  0  1  0  0  0  0  0  0  0  0  0
   68.6974   42.2569   60.7088 C   0  0  0  0  0  0  0  0  0  0  0  0
   67.9331   40.9900   60.3814 C   0  0  0  0  0  0  0  0  0  0  0  0
   66.7923   41.4044   59.4570 C   0  0  0  0  0  0  0  0  0  0  0  0
   67.3742   42.1070   58.3320 N   0  0  0  0  0  0  0  0  0  0  0  0
   68.8108   41.9793   58.2903 C   0  0  0  0  0  0  0  0  0  0  0  0
   69.3735   48.8652   56.2764 C   0  0  0  0  0  0  0  0  0  0  0  0
   69.7049   48.7288   54.8774 C   0  0  0  0  0  0  0  0  0  0  0  0
   70.7298   49.4084   54.3487 N   0  0  0  0  0  0  0  0  0  0  0  0
   71.0533   49.2766   53.0525 N   0  0  0  0  0  0  0  0  0  0  0  0
   70.3697   48.4649   52.2259 C   0  0  0  0  0  0  0  0  0  0  0  0
   70.6756   48.3505   51.0263 O   0  0  0  0  0  0  0  0  0  0  0  0
   69.2895   47.7301   52.7145 C   0  0  0  0  0  0  0  0  0  0  0  0
   68.9892   47.8942   54.0584 C   0  0  0  0  0  0  0  0  0  0  0  0
   67.8574   47.1506   54.5873 C   0  0  0  0  0  0  0  0  0  0  0  0
   67.8773   45.7490   54.0972 C   0  0  0  0  0  0  0  0  0  0  0  0
   68.0180   45.5947   52.6231 C   0  0  0  0  0  0  0  0  0  0  0  0
   68.4833   46.8225   51.8967 C   0  0  0  0  0  0  0  0  0  0  0  0
  7  8  2  0
  8  9  1  0
  8  1  1  0
 10  9  1  6
 10 11  1  0
 10 15  1  0
 11 12  1  0
 12 13  1  0
 13 14  1  0
 14 15  1  0
  1  2  2  0
  1  6  1  0
  2  3  1  0
  3  4  2  0
  4  5  1  0
  5 16  1  0
  5  6  2  0
 16 17  1  0
 17 18  2  0
 17 23  1  0
 18 19  1  0
 19 20  1  0
 20 21  2  0
 20 22  1  0
 22 23  2  0
 22 27  1  0
 23 24  1  0
 24 25  1  0
 25 26  1  0
 26 27  1  0
M  CHG  1  14   1
M  END
>  <minimizedAffinity>  (1224) 
-8.90051

$$$$
data/reference_output_2/data/smiles/197687.pdb
     RDKit          3D

 20 22  0  0  0  0  0  0  0  0999 V2000
   69.9665   48.5075   54.8531 C   0  0  0  0  0  0  0  0  0  0  0  0
   70.8618   49.3626   54.2857 N   0  0  0  0  0  0  0  0  0  0  0  0
   71.0295   49.4000   52.9825 N   0  0  0  0  0  0  0  0  0  0  0  0
   70.3294   48.6015   52.1616 C   0  0  0  0  0  0  0  0  0  0  0  0
   70.5321   48.6815   50.9218 O   0  0  0  0  0  0  0  0  0  0  0  0
   69.4110   47.7133   52.6530 C   0  0  0  0  0  0  0  0  0  0  0  0
   68.6864   46.8736   51.8496 C   0  0  0  0  0  0  0  0  0  0  0  0
   67.7664   45.9692   52.3937 C   0  0  0  0  0  0  0  0  0  0  0  0
   67.5856   45.9211   53.7493 C   0  0  0  0  0  0  0  0  0  0  0  0
   68.3324   46.7822   54.5446 C   0  0  0  0  0  0  0  0  0  0  0  0
   69.2448   47.6852   54.0422 C   0  0  0  0  0  0  0  0  0  0  0  0
   69.8137   48.5679   56.2976 C   0  0  0  0  0  0  0  0  0  0  0  0
   68.4941   50.6544   56.6844 C   0  0  0  0  0  0  0  0  0  0  0  0
   67.4171   51.3264   57.1725 C   0  0  0  0  0  0  0  0  0  0  0  0
   66.3917   50.6368   57.8221 C   0  0  0  0  0  0  0  0  0  0  0  0
   66.4926   49.2761   57.9553 C   0  0  0  0  0  0  0  0  0  0  0  0
   67.6065   48.6141   57.4467 C   0  0  0  0  0  0  0  0  0  0  0  0
   68.6285   49.2643   56.8041 C   0  0  0  0  0  0  0  0  0  0  0  0
   69.1831   52.3640   55.0965 C   0  0  0  0  0  0  0  0  0  0  0  0
   69.5335   51.3377   56.0301 O   0  0  0  0  0  0  0  0  0  0  0  0
 19 20  1  0
 20 13  1  0
 13 14  2  0
 13 18  1  0
 14 15  1  0
 15 16  2  0
 16 17  1  0
 17 18  2  0
 18 12  1  0
 12  1  1  0
  1  2  2  0
  1 11  1  0
  2  3  1  0
  3  4  1  0
  4  5  2  0
  4  6  1  0
  6  7  1  0
  6 11  2  0
  7  8  2  0
  8  9  1  0
  9 10  2  0
 10 11  1  0
M  END
>  <minimizedAffinity>  (1225) 
-8.81990

$$$$
data/reference_output_2/data/smiles/197724.pdb
     RDKit          3D

 20 21  0  0  0  0  0  0  0  0999 V2000
   69.1473   46.5965   57.3314 N   0  0  0  0  0  0  0  0  0  0  0  0
   68.6957   47.4141   56.4558 C   0  0  0  0  0  0  0  0  0  0  0  0
   68.7416   47.1370   55.0140 C   0  0  0  0  0  0  0  0  0  0  0  0
   69.3972   47.9393   54.1119 C   0  0  0  0  0  0  0  0  0  0  0  0
   69.3497   47.7984   52.7484 C   0  0  0  0  0  0  0  0  0  0  0  0
   68.5928   46.7748   52.2180 C   0  0  0  0  0  0  0  0  0  0  0  0
   67.9290   45.9571   53.1069 C   0  0  0  0  0  0  0  0  0  0  0  0
   67.1873   44.9496   52.5815 F   0  0  0  0  0  0  0  0  0  0  0  0
   67.9785   46.1038   54.4723 C   0  0  0  0  0  0  0  0  0  0  0  0
   68.0870   48.6567   56.9472 C   0  0  0  0  0  0  0  0  0  0  0  0
   66.9747   48.7749   57.7021 C   0  0  0  0  0  0  0  0  0  0  0  0
   66.4089   50.0233   58.0201 C   0  0  0  0  0  0  0  0  0  0  0  0
   67.0078   51.1602   57.5496 C   0  0  0  0  0  0  0  0  0  0  0  0
   68.1504   51.0957   56.7744 C   0  0  0  0  0  0  0  0  0  0  0  0
   68.6958   52.2516   56.3415 F   0  0  0  0  0  0  0  0  0  0  0  0
   68.6704   49.8573   56.4853 C   0  0  0  0  0  0  0  0  0  0  0  0
   69.7293   45.3940   57.2426 N   0  0  0  0  0  0  0  0  0  0  0  0
   69.7264   44.2057   59.3978 N   0  0  0  0  0  0  0  0  0  0  0  0
   70.4629   44.8070   58.3365 C   0  0  0  0  0  0  0  0  0  0  0  0
   72.0704   44.8372   58.3461 S   0  0  0  0  0  0  0  0  0  0  0  0
 18 19  1  0
 19 20  2  0
 19 17  1  0
 17  1  1  0
  1  2  2  0
  2  3  1  0
  2 10  1  0
  3  4  2  0
  3  9  1  0
  4  5  1  0
  5  6  2  0
  6  7  1  0
  7  8  1  0
  7  9  2  0
 10 11  2  0
 10 16  1  0
 11 12  1  0
 12 13  2  0
 13 14  1  0
 14 15  1  0
 14 16  2  0
M  END
>  <minimizedAffinity>  (1226) 
-8.58036

$$$$
data/reference_output_2/data/smiles/198081.pdb
     RDKit          3D

 27 29  0  0  0  0  0  0  0  0999 V2000
   70.5722   51.4235   57.4652 C   0  0  1  0  0  0  0  0  0  0  0  0
   69.1066   51.7075   57.3482 C   0  0  0  0  0  0  0  0  0  0  0  0
   68.2612   50.4549   57.4069 C   0  0  0  0  0  0  0  0  0  0  0  0
   69.0237   49.2744   56.8445 C   0  0  1  0  0  0  0  0  0  0  0  0
   70.1464   48.9413   57.7391 C   0  0  0  0  0  0  0  0  0  0  0  0
   70.7940   50.1751   58.3119 C   0  0  0  0  0  0  0  0  0  0  0  0
   73.6396   51.4970   55.5036 C   0  0  2  0  0  0  0  0  0  0  0  0
   73.5615   53.0216   55.3789 C   0  0  0  0  0  0  0  0  0  0  0  0
   72.1341   53.4916   55.5692 C   0  0  0  0  0  0  0  0  0  0  0  0
   71.1951   52.3248   55.3029 C   0  0  0  0  0  0  0  0  0  0  0  0
   71.2954   51.2717   56.2588 N   0  0  1  0  0  0  0  0  0  0  0  0
   72.6865   51.0203   56.5744 C   0  0  0  0  0  0  0  0  0  0  0  0
   74.9498   51.2188   55.9844 O   0  0  0  0  0  0  0  0  0  0  0  0
   76.8481   49.7718   56.2737 N   0  0  0  0  0  0  0  0  0  0  0  0
   75.6974   50.1507   55.5532 C   0  0  0  0  0  0  0  0  0  0  0  0
   75.3654   49.5176   54.5325 O   0  0  0  0  0  0  0  0  0  0  0  0
   68.1426   48.1989   56.3514 C   0  0  2  0  0  0  0  0  0  0  0  0
   67.4131   47.7272   57.5870 N   0  0  0  0  0  0  0  0  0  0  0  0
   68.7463   46.9933   55.7391 C   0  0  0  0  0  0  0  0  0  0  0  0
   68.6345   46.8507   54.2839 C   0  0  0  0  0  0  0  0  0  0  0  0
   67.8170   45.8783   53.6878 C   0  0  0  0  0  0  0  0  0  0  0  0
   67.7009   45.7932   52.3186 C   0  0  0  0  0  0  0  0  0  0  0  0
   66.9114   44.8537   51.7230 F   0  0  0  0  0  0  0  0  0  0  0  0
   68.3731   46.6487   51.4719 C   0  0  0  0  0  0  0  0  0  0  0  0
   69.1785   47.6076   52.0475 C   0  0  0  0  0  0  0  0  0  0  0  0
   69.2950   47.6921   53.4144 C   0  0  0  0  0  0  0  0  0  0  0  0
   70.0943   48.6449   53.9995 F   0  0  0  0  0  0  0  0  0  0  0  0
 14 15  1  0
 15 16  2  0
 15 13  1  0
  7 13  1  1
  7  8  1  0
  7 12  1  0
  8  9  1  0
  9 10  1  0
 11 10  1  6
 11  1  1  0
 11 12  1  0
  1  2  1  6
  1  6  1  0
  2  3  1  0
  4  3  1  1
  4 17  1  0
  4  5  1  0
 17 18  1  1
 17 19  1  0
 19 20  1  0
 20 21  2  0
 20 26  1  0
 21 22  1  0
 22 23  1  0
 22 24  2  0
 24 25  1  0
 25 26  2  0
 26 27  1  0
  5  6  1  0
M  CHG  2  11   1  18   1
M  END
>  <minimizedAffinity>  (1227) 
-8.62738

$$$$
data/reference_output_2/data/smiles/198103.pdb
     RDKit          3D

 23 26  0  0  0  0  0  0  0  0999 V2000
   69.3314   49.3706   57.4872 N   0  0  2  0  0  0  0  0  0  0  0  0
   70.4878   49.5999   56.6448 C   0  0  0  0  0  0  0  0  0  0  0  0
   70.3416   49.0376   55.2861 C   0  0  0  0  0  0  0  0  0  0  0  0
   71.1535   49.5339   54.4285 N   0  0  0  0  0  0  0  0  0  0  0  0
   71.3115   49.2510   53.0454 N   0  0  0  0  0  0  0  0  0  0  0  0
   70.3577   48.6194   52.1844 C   0  0  0  0  0  0  0  0  0  0  0  0
   70.3852   48.8688   50.9707 O   0  0  0  0  0  0  0  0  0  0  0  0
   69.3345   47.6865   52.6323 C   0  0  0  0  0  0  0  0  0  0  0  0
   68.7484   46.9751   51.6073 C   0  0  0  0  0  0  0  0  0  0  0  0
   67.7634   46.0517   51.9063 C   0  0  0  0  0  0  0  0  0  0  0  0
   67.1632   45.3298   50.9101 F   0  0  0  0  0  0  0  0  0  0  0  0
   67.3471   45.8183   53.2166 C   0  0  0  0  0  0  0  0  0  0  0  0
   67.9300   46.5276   54.2549 C   0  0  0  0  0  0  0  0  0  0  0  0
   67.7973   46.5815   55.5889 N   0  0  0  0  0  0  0  0  0  0  0  0
   68.6416   47.4879   56.1373 C   0  0  0  0  0  0  0  0  0  0  0  0
   69.3325   48.0179   55.0738 C   0  0  0  0  0  0  0  0  0  0  0  0
   68.8981   47.4298   53.9121 C   0  0  0  0  0  0  0  0  0  0  0  0
   68.9521   47.9847   57.4764 C   0  0  0  0  0  0  0  0  0  0  0  0
   68.2702   50.2898   57.1586 C   0  0  0  0  0  0  0  0  0  0  0  0
   68.5882   51.7294   57.3570 C   0  0  0  0  0  0  0  0  0  0  0  0
   68.3152   52.1192   54.9872 C   0  0  0  0  0  0  0  0  0  0  0  0
   68.7801   52.5655   56.2540 N   0  0  0  0  0  0  0  0  0  0  0  0
   69.9303   53.4146   56.2492 C   0  0  0  0  0  0  0  0  0  0  0  0
 21 22  1  0
 22 23  1  0
 22 20  1  0
 20 19  1  0
  1 19  1  6
  1  2  1  0
  1 18  1  0
  2  3  1  0
  3  4  2  0
  3 16  1  0
  4  5  1  0
  5  6  1  0
  6  7  2  0
  6  8  1  0
  8  9  1  0
  8 17  2  0
  9 10  2  0
 10 11  1  0
 10 12  1  0
 12 13  2  0
 13 14  1  0
 13 17  1  0
 14 15  1  0
 15 16  2  0
 15 18  1  0
 16 17  1  0
M  CHG  2   1   1  22   1
M  END
>  <minimizedAffinity>  (1228) 
-8.79434

$$$$
data/reference_output_2/data/smiles/198156.pdb
     RDKit          3D

 25 28  0  0  0  0  0  0  0  0999 V2000
   69.3558   47.7407   55.8877 C   0  0  0  0  0  0  0  0  0  0  0  0
   71.9345   47.2125   59.6540 N   0  0  2  0  0  0  0  0  0  0  0  0
   72.6503   45.9405   59.6302 C   0  0  0  0  0  0  0  0  0  0  0  0
   71.6190   44.8710   59.4196 C   0  0  0  0  0  0  0  0  0  0  0  0
   70.6846   45.2963   58.3560 C   0  0  0  0  0  0  0  0  0  0  0  0
   69.6563   44.6604   57.7237 N   0  0  0  0  0  0  0  0  0  0  0  0
   69.1108   45.4562   56.8387 N   0  0  0  0  0  0  0  0  0  0  0  0
   69.7346   46.6761   56.8159 C   0  0  0  0  0  0  0  0  0  0  0  0
   70.7144   46.5486   57.7766 C   0  0  0  0  0  0  0  0  0  0  0  0
   71.7079   47.5744   58.2369 C   0  0  0  0  0  0  0  0  0  0  0  0
   72.6791   48.2456   60.3318 C   0  0  0  0  0  0  0  0  0  0  0  0
   73.0767   48.0305   62.7097 O   0  0  0  0  0  0  0  0  0  0  0  0
   73.5397   47.7241   61.4523 C   0  0  0  0  0  0  0  0  0  0  0  0
   68.9656   47.3401   54.5417 C   0  0  0  0  0  0  0  0  0  0  0  0
   68.0371   46.3265   54.3658 C   0  0  0  0  0  0  0  0  0  0  0  0
   67.7075   45.9524   53.0898 C   0  0  0  0  0  0  0  0  0  0  0  0
   68.2499   46.5300   51.9651 C   0  0  0  0  0  0  0  0  0  0  0  0
   69.1715   47.5361   52.1401 C   0  0  0  0  0  0  0  0  0  0  0  0
   69.5055   47.9151   53.4287 C   0  0  0  0  0  0  0  0  0  0  0  0
   68.4986   48.7628   56.5027 C   0  0  0  0  0  0  0  0  0  0  0  0
   68.7282   50.1175   56.2740 C   0  0  0  0  0  0  0  0  0  0  0  0
   67.9466   51.0808   56.8550 C   0  0  0  0  0  0  0  0  0  0  0  0
   66.9105   50.7305   57.6825 C   0  0  0  0  0  0  0  0  0  0  0  0
   66.6572   49.4133   57.9294 C   0  0  0  0  0  0  0  0  0  0  0  0
   67.4518   48.4402   57.3380 C   0  0  0  0  0  0  0  0  0  0  0  0
 12 13  1  0
 13 11  1  0
  2 11  1  6
  2  3  1  0
  2 10  1  0
  3  4  1  0
  4  5  1  0
  5  6  1  0
  5  9  2  0
  6  7  1  0
  7  8  2  0
  8  1  1  0
  8  9  1  0
  1 14  1  0
  1 20  1  0
 14 15  2  0
 14 19  1  0
 15 16  1  0
 16 17  2  0
 17 18  1  0
 18 19  2  0
 20 21  2  0
 20 25  1  0
 21 22  1  0
 22 23  2  0
 23 24  1  0
 24 25  2  0
  9 10  1  0
M  CHG  1   2   1
M  END
>  <minimizedAffinity>  (1229) 
-8.86663

$$$$
data/reference_output_2/data/smiles/198258.pdb
     RDKit          3D

 26 28  0  0  0  0  0  0  0  0999 V2000
   68.5607   41.9108   57.0338 C   0  0  0  0  0  0  0  0  0  0  0  0
   69.0089   43.1779   56.6582 C   0  0  0  0  0  0  0  0  0  0  0  0
   68.0933   43.8292   55.8506 C   0  0  0  0  0  0  0  0  0  0  0  0
   67.1303   42.9787   55.7316 O   0  0  0  0  0  0  0  0  0  0  0  0
   67.4061   41.8359   56.4295 N   0  0  0  0  0  0  0  0  0  0  0  0
   68.3590   45.1807   55.3752 C   0  0  0  0  0  0  0  0  0  0  0  0
   68.9014   46.2341   56.0683 C   0  0  0  0  0  0  0  0  0  0  0  0
   69.1426   47.4755   55.3996 C   0  0  0  0  0  0  0  0  0  0  0  0
   68.8518   47.6661   54.0837 C   0  0  0  0  0  0  0  0  0  0  0  0
   68.2886   46.5829   53.3379 C   0  0  0  0  0  0  0  0  0  0  0  0
   68.0731   45.4142   54.0068 C   0  0  0  0  0  0  0  0  0  0  0  0
   69.0045   48.8472   53.2702 N   0  0  0  0  0  0  0  0  0  0  0  0
   70.2254   48.9991   52.4926 C   0  0  0  0  0  0  0  0  0  0  0  0
   71.2678   49.3648   53.1946 N   0  0  0  0  0  0  0  0  0  0  0  0
   70.3560   48.7752   51.1241 N   0  0  0  0  0  0  0  0  0  0  0  0
   69.3903   39.7507   57.9713 N   0  0  0  0  0  0  0  0  0  0  0  0
   69.3620   41.1592   58.0704 C   0  0  0  0  0  0  0  0  0  0  0  0
   70.0139   41.6762   58.9584 O   0  0  0  0  0  0  0  0  0  0  0  0
   71.2044   36.2982   59.3241 C   0  0  0  0  0  0  0  0  0  0  0  0
   70.0827   36.7640   59.9357 C   0  0  0  0  0  0  0  0  0  0  0  0
   69.5839   38.0064   59.5817 C   0  0  0  0  0  0  0  0  0  0  0  0
   70.2136   38.7786   58.6019 C   0  0  0  0  0  0  0  0  0  0  0  0
   71.3557   38.2873   58.0163 C   0  0  0  0  0  0  0  0  0  0  0  0
   71.8840   37.0178   58.3678 C   0  0  0  0  0  0  0  0  0  0  0  0
   71.8442   33.7153   59.5904 N   0  0  0  0  0  0  0  0  0  0  0  0
   71.5688   34.8242   59.4782 C   0  0  0  0  0  0  0  0  0  0  0  0
 25 26  3  0
 26 19  1  0
 19 20  2  0
 19 24  1  0
 20 21  1  0
 21 22  2  0
 22 16  1  0
 22 23  1  0
 16 17  1  0
 17 18  2  0
 17  1  1  0
  1  2  1  0
  1  5  2  0
  2  3  2  0
  3  6  1  0
  3  4  1  0
  6  7  2  0
  6 11  1  0
  7  8  1  0
  8  9  2  0
  9 12  1  0
  9 10  1  0
 12 13  1  0
 13 14  2  0
 13 15  1  0
 10 11  2  0
  4  5  1  0
 23 24  2  0
M  CHG  1  14   1
M  END
>  <minimizedAffinity>  (1230) 
-8.93767

$$$$
data/reference_output_2/data/smiles/198425.pdb
     RDKit          3D

 24 26  0  0  0  0  0  0  0  0999 V2000
   67.6063   41.3006   55.4931 O   0  0  0  0  0  0  0  0  0  0  0  0
   67.5805   41.9024   56.5978 C   0  0  0  0  0  0  0  0  0  0  0  0
   67.7384   43.3109   56.5486 N   0  0  0  0  0  0  0  0  0  0  0  0
   67.3964   41.1412   57.8289 C   0  0  0  0  0  0  0  0  0  0  0  0
   67.7962   39.8179   57.8791 C   0  0  0  0  0  0  0  0  0  0  0  0
   67.6543   39.0346   59.0066 C   0  0  0  0  0  0  0  0  0  0  0  0
   67.0938   39.5573   60.1532 C   0  0  0  0  0  0  0  0  0  0  0  0
   66.9574   38.7660   61.2730 C   0  0  0  0  0  0  0  0  0  0  0  0
   66.3950   39.3060   62.4107 C   0  0  0  0  0  0  0  0  0  0  0  0
   65.9787   40.6403   62.3959 C   0  0  0  0  0  0  0  0  0  0  0  0
   66.1292   41.4058   61.2601 C   0  0  0  0  0  0  0  0  0  0  0  0
   66.6909   40.8760   60.1165 C   0  0  0  0  0  0  0  0  0  0  0  0
   66.8392   41.6613   58.9692 C   0  0  0  0  0  0  0  0  0  0  0  0
   67.9146   44.0019   55.3373 N   0  0  0  0  0  0  0  0  0  0  0  0
   68.3049   45.3653   55.2907 C   0  0  0  0  0  0  0  0  0  0  0  0
   68.4892   45.9419   56.3865 O   0  0  0  0  0  0  0  0  0  0  0  0
   68.4910   46.0943   54.0245 C   0  0  0  0  0  0  0  0  0  0  0  0
   67.8786   45.8858   52.8209 C   0  0  0  0  0  0  0  0  0  0  0  0
   68.3547   46.7981   51.9147 C   0  0  0  0  0  0  0  0  0  0  0  0
   69.2741   47.5594   52.6231 C   0  0  0  0  0  0  0  0  0  0  0  0
   69.3093   47.1001   53.8485 O   0  0  0  0  0  0  0  0  0  0  0  0
   70.0327   48.6427   52.0892 N   0  0  0  0  0  0  0  0  0  0  0  0
   69.6039   49.2933   51.1202 O   0  0  0  0  0  0  0  0  0  0  0  0
   71.2458   48.9941   52.6221 O   0  0  0  0  0  0  0  0  0  0  0  0
  1  2  2  0
  2  3  1  0
  2  4  1  0
  3 14  1  0
 14 15  1  0
 15 16  2  0
 15 17  1  0
 17 18  2  0
 17 21  1  0
 18 19  1  0
 19 20  2  0
 20 22  1  0
 20 21  1  0
 22 23  2  0
 22 24  1  0
  4  5  2  0
  4 13  1  0
  5  6  1  0
  6  7  2  0
  7  8  1  0
  7 12  1  0
  8  9  2  0
  9 10  1  0
 10 11  2  0
 11 12  1  0
 12 13  2  0
M  CHG  2  22   1  24  -1
M  END
>  <minimizedAffinity>  (1231) 
-8.69950

$$$$
data/reference_output_2/data/smiles/198637.pdb
     RDKit          3D

 25 27  0  0  0  0  0  0  0  0999 V2000
   70.9208   46.7401   58.4355 C   0  0  0  0  0  0  0  0  0  0  0  0
   70.9968   45.3671   58.5788 C   0  0  0  0  0  0  0  0  0  0  0  0
   70.2201   44.5264   57.7889 C   0  0  0  0  0  0  0  0  0  0  0  0
   69.4026   45.0862   56.8933 N   0  0  0  0  0  0  0  0  0  0  0  0
   69.2584   46.4031   56.6800 C   0  0  0  0  0  0  0  0  0  0  0  0
   70.0586   47.2274   57.4949 C   0  0  0  0  0  0  0  0  0  0  0  0
   71.7452   47.5659   59.2912 C   0  0  0  0  0  0  0  0  0  0  0  0
   71.7309   47.1987   60.5635 N   0  0  0  0  0  0  0  0  0  0  0  0
   72.4658   47.8670   61.4820 O   0  0  0  0  0  0  0  0  0  0  0  0
   74.4962   49.9765   58.8030 C   0  0  1  0  0  0  0  0  0  0  0  0
   73.3352   50.8782   58.5585 C   0  0  0  0  0  0  0  0  0  0  0  0
   72.1081   50.0575   58.7660 C   0  0  0  0  0  0  0  0  0  0  0  0
   72.5335   48.6679   58.8861 N   0  0  0  0  0  0  0  0  0  0  0  0
   73.9280   48.6070   58.5239 C   0  0  0  0  0  0  0  0  0  0  0  0
   76.8816   50.1549   58.7410 C   0  0  0  0  0  0  0  0  0  0  0  0
   75.6527   50.2914   58.0119 N   0  0  0  0  0  0  0  0  0  0  0  0
   75.7074   49.6189   56.7501 C   0  0  0  0  0  0  0  0  0  0  0  0
   68.4225   46.9782   55.7641 O   0  0  0  0  0  0  0  0  0  0  0  0
   68.5109   46.9725   54.4036 C   0  0  0  0  0  0  0  0  0  0  0  0
   69.2372   47.8309   53.6174 C   0  0  0  0  0  0  0  0  0  0  0  0
   69.2428   47.7177   52.2459 C   0  0  0  0  0  0  0  0  0  0  0  0
   68.5273   46.7491   51.6005 C   0  0  0  0  0  0  0  0  0  0  0  0
   67.7801   45.8626   52.3552 C   0  0  0  0  0  0  0  0  0  0  0  0
   67.0794   44.9118   51.6922 F   0  0  0  0  0  0  0  0  0  0  0  0
   67.7807   45.9821   53.7206 C   0  0  0  0  0  0  0  0  0  0  0  0
 15 16  1  0
 16 17  1  0
 10 16  1  6
 10 11  1  0
 10 14  1  0
 11 12  1  0
 12 13  1  0
 13  7  1  0
 13 14  1  0
  7  8  2  0
  7  1  1  0
  8  9  1  0
  1  2  2  0
  1  6  1  0
  2  3  1  0
  3  4  2  0
  4  5  1  0
  5 18  1  0
  5  6  2  0
 18 19  1  0
 19 20  2  0
 19 25  1  0
 20 21  1  0
 21 22  2  0
 22 23  1  0
 23 24  1  0
 23 25  2  0
M  CHG  2   8   1  16   1
M  END
>  <minimizedAffinity>  (1232) 
-8.63581

$$$$
data/reference_output_2/data/smiles/198737.pdb
     RDKit          3D

 25 27  0  0  0  0  0  0  0  0999 V2000
   70.6178   46.2127   59.2420 O   0  0  0  0  0  0  0  0  0  0  0  0
   70.5831   45.4446   58.2443 C   0  0  0  0  0  0  0  0  0  0  0  0
   69.6468   45.7686   57.2373 N   0  0  0  0  0  0  0  0  0  0  0  0
   71.4816   44.2798   58.1588 C   0  0  0  0  0  0  0  0  0  0  0  0
   72.8318   44.4899   57.9101 C   0  0  0  0  0  0  0  0  0  0  0  0
   73.7174   43.4368   57.8217 C   0  0  0  0  0  0  0  0  0  0  0  0
   73.2474   42.1502   57.9837 C   0  0  0  0  0  0  0  0  0  0  0  0
   71.8984   41.8863   58.2360 C   0  0  0  0  0  0  0  0  0  0  0  0
   71.0749   42.9939   58.3103 C   0  0  0  0  0  0  0  0  0  0  0  0
   71.4367   40.5366   58.4014 C   0  0  0  0  0  0  0  0  0  0  0  0
   72.3200   39.5123   58.6003 C   0  0  0  0  0  0  0  0  0  0  0  0
   71.8951   38.1936   58.7648 C   0  0  0  0  0  0  0  0  0  0  0  0
   70.5411   37.9203   58.7249 C   0  0  0  0  0  0  0  0  0  0  0  0
   69.6440   38.9299   58.5273 C   0  0  0  0  0  0  0  0  0  0  0  0
   70.0994   40.2417   58.3652 C   0  0  0  0  0  0  0  0  0  0  0  0
   68.7919   46.8681   57.3096 N   0  0  0  0  0  0  0  0  0  0  0  0
   69.1965   48.0510   56.1042 S   0  0  0  0  0  0  0  0  0  0  0  0
   70.5918   48.5394   56.2802 O   0  0  0  0  0  0  0  0  0  0  0  0
   68.2843   49.2400   56.3686 O   0  0  0  0  0  0  0  0  0  0  0  0
   68.9115   47.4766   54.4927 C   0  0  0  0  0  0  0  0  0  0  0  0
   69.5110   48.0871   53.4185 C   0  0  0  0  0  0  0  0  0  0  0  0
   69.3010   47.6502   52.1276 C   0  0  0  0  0  0  0  0  0  0  0  0
   68.4590   46.5628   51.9252 C   0  0  0  0  0  0  0  0  0  0  0  0
   67.8579   45.9497   53.0055 C   0  0  0  0  0  0  0  0  0  0  0  0
   68.0675   46.3856   54.2902 C   0  0  0  0  0  0  0  0  0  0  0  0
  1  2  2  0
  2  3  1  0
  2  4  1  0
  3 16  1  0
 16 17  1  0
 17 18  2  0
 17 19  2  0
 17 20  1  0
 20 21  2  0
 20 25  1  0
 21 22  1  0
 22 23  2  0
 23 24  1  0
 24 25  2  0
  4  5  2  0
  4  9  1  0
  5  6  1  0
  6  7  2  0
  7  8  1  0
  8 10  1  0
  8  9  2  0
 10 11  2  0
 10 15  1  0
 11 12  1  0
 12 13  2  0
 13 14  1  0
 14 15  2  0
M  END
>  <minimizedAffinity>  (1233) 
-8.54189

$$$$
data/reference_output_2/data/smiles/198812.pdb
     RDKit          3D

 26 29  0  0  0  0  0  0  0  0999 V2000
   68.8589   44.7441   56.3767 N   0  0  0  0  0  0  0  0  0  0  0  0
   69.9262   44.2596   57.0840 C   0  0  0  0  0  0  0  0  0  0  0  0
   69.7303   42.9290   57.3772 C   0  0  0  0  0  0  0  0  0  0  0  0
   68.4994   42.6317   56.8153 C   0  0  0  0  0  0  0  0  0  0  0  0
   68.0310   43.7522   56.2344 N   0  0  0  0  0  0  0  0  0  0  0  0
   70.5697   42.0560   58.0998 N   0  0  0  0  0  0  0  0  0  0  0  0
   71.9195   41.7988   57.9408 C   0  0  0  0  0  0  0  0  0  0  0  0
   72.5872   42.3795   57.0679 O   0  0  0  0  0  0  0  0  0  0  0  0
   72.6462   40.8256   58.7995 C   0  0  0  0  0  0  0  0  0  0  0  0
   73.8090   41.0735   59.4341 N   0  0  0  0  0  0  0  0  0  0  0  0
   74.2446   39.9728   60.0123 N   0  0  0  0  0  0  0  0  0  0  0  0
   73.4189   38.9481   59.8036 C   0  0  0  0  0  0  0  0  0  0  0  0
   72.3724   39.5036   59.0153 C   0  0  0  0  0  0  0  0  0  0  0  0
   71.3053   38.5570   58.6382 C   0  0  0  0  0  0  0  0  0  0  0  0
   71.9629   37.3957   57.9104 C   0  0  0  0  0  0  0  0  0  0  0  0
   73.2301   36.9350   58.5981 C   0  0  0  0  0  0  0  0  0  0  0  0
   73.3034   37.4871   60.0530 C   0  0  0  0  0  0  0  0  0  0  0  0
   68.7860   46.1375   55.8924 C   0  0  0  0  0  0  0  0  0  0  0  0
   68.9476   47.3764   52.3303 C   0  0  0  0  0  0  0  0  0  0  0  0
   68.1701   46.5024   51.6260 C   0  0  0  0  0  0  0  0  0  0  0  0
   67.5523   45.4530   52.3569 C   0  0  0  0  0  0  0  0  0  0  0  0
   67.7541   45.3598   53.7109 C   0  0  0  0  0  0  0  0  0  0  0  0
   68.5218   46.2183   54.4312 C   0  0  0  0  0  0  0  0  0  0  0  0
   69.1315   47.2523   53.7065 C   0  0  0  0  0  0  0  0  0  0  0  0
   70.2170   49.4130   51.2851 N   0  0  0  0  0  0  0  0  0  0  0  0
   69.6227   48.4782   51.7612 C   0  0  0  0  0  0  0  0  0  0  0  0
 25 26  3  0
 26 19  1  0
 19 20  2  0
 19 24  1  0
 20 21  1  0
 21 22  2  0
 22 23  1  0
 23 18  1  0
 23 24  2  0
 18  1  1  0
  1  2  1  0
  1  5  1  0
  2  3  2  0
  3  6  1  0
  3  4  1  0
  6  7  1  0
  7  8  2  0
  7  9  1  0
  9 10  2  0
  9 13  1  0
 10 11  1  0
 11 12  1  0
 12 13  2  0
 12 17  1  0
 13 14  1  0
 14 15  1  0
 15 16  1  0
 16 17  1  0
  4  5  2  0
M  END
>  <minimizedAffinity>  (1234) 
-8.77885

$$$$
data/reference_output_2/data/smiles/198827.pdb
     RDKit          3D

 23 26  0  0  0  0  0  0  0  0999 V2000
   71.4533   48.8745   58.9034 C   0  0  0  0  0  0  0  0  0  0  0  0
   70.8135   47.5893   58.5386 C   0  0  0  0  0  0  0  0  0  0  0  0
   70.8162   46.5239   59.3508 N   0  0  0  0  0  0  0  0  0  0  0  0
   70.1932   45.5015   58.8156 N   0  0  0  0  0  0  0  0  0  0  0  0
   69.7537   45.8984   57.5945 C   0  0  0  0  0  0  0  0  0  0  0  0
   70.1362   47.2044   57.4111 C   0  0  0  0  0  0  0  0  0  0  0  0
   69.8330   47.9908   56.1901 C   0  0  1  0  0  0  0  0  0  0  0  0
   69.0770   47.1890   55.1951 C   0  0  0  0  0  0  0  0  0  0  0  0
   68.7135   45.8797   55.4213 C   0  0  0  0  0  0  0  0  0  0  0  0
   68.0157   45.1942   54.4719 N   0  0  0  0  0  0  0  0  0  0  0  0
   67.6717   45.7657   53.3124 C   0  0  0  0  0  0  0  0  0  0  0  0
   67.0300   45.1036   52.4644 O   0  0  0  0  0  0  0  0  0  0  0  0
   68.0114   47.0411   53.0621 N   0  0  0  0  0  0  0  0  0  0  0  0
   68.7041   47.7375   53.9929 C   0  0  0  0  0  0  0  0  0  0  0  0
   69.0021   48.9355   53.7139 O   0  0  0  0  0  0  0  0  0  0  0  0
   69.0415   45.2507   56.5872 O   0  0  0  0  0  0  0  0  0  0  0  0
   68.9988   49.1581   56.5818 C   0  0  0  0  0  0  0  0  0  0  0  0
   69.2423   50.4446   56.1787 C   0  0  0  0  0  0  0  0  0  0  0  0
   68.3984   51.4600   56.6073 C   0  0  0  0  0  0  0  0  0  0  0  0
   67.3151   51.2256   57.4285 C   0  0  0  0  0  0  0  0  0  0  0  0
   67.0699   49.9489   57.8305 C   0  0  0  0  0  0  0  0  0  0  0  0
   65.9981   49.6910   58.6479 F   0  0  0  0  0  0  0  0  0  0  0  0
   67.9033   48.9352   57.4093 C   0  0  0  0  0  0  0  0  0  0  0  0
  1  2  1  0
  2  3  2  0
  2  6  1  0
  3  4  1  0
  4  5  1  0
  5  6  2  0
  5 16  1  0
  6  7  1  0
  7 17  1  1
  7  8  1  0
 17 18  2  0
 17 23  1  0
 18 19  1  0
 19 20  2  0
 20 21  1  0
 21 22  1  0
 21 23  2  0
  8  9  2  0
  8 14  1  0
  9 10  1  0
  9 16  1  0
 10 11  1  0
 11 12  2  0
 11 13  1  0
 13 14  1  0
 14 15  2  0
M  END
>  <minimizedAffinity>  (1235) 
-8.59709

$$$$
data/reference_output_2/data/smiles/198908.pdb
     RDKit          3D

 32 35  0  0  0  0  0  0  0  0999 V2000
   70.5476   44.1557   58.8615 C   0  0  0  0  0  0  0  0  0  0  0  0
   70.5888   45.4447   58.5397 C   0  0  0  0  0  0  0  0  0  0  0  0
   71.2841   46.2624   59.3505 N   0  0  0  0  0  0  0  0  0  0  0  0
   71.3239   47.5672   59.0200 C   0  0  0  0  0  0  0  0  0  0  0  0
   71.9652   48.3591   59.7574 O   0  0  0  0  0  0  0  0  0  0  0  0
   70.7012   48.0920   57.9189 C   0  0  0  0  0  0  0  0  0  0  0  0
   70.7329   49.3673   57.5861 C   0  0  0  0  0  0  0  0  0  0  0  0
   70.0073   47.2670   57.1135 N   0  0  0  0  0  0  0  0  0  0  0  0
   69.9510   45.9566   57.4198 C   0  0  0  0  0  0  0  0  0  0  0  0
   69.2987   45.1604   56.6672 O   0  0  0  0  0  0  0  0  0  0  0  0
   70.0374   49.8708   56.3818 C   0  0  0  0  0  0  0  0  0  0  0  0
   69.2616   50.9840   56.4001 C   0  0  0  0  0  0  0  0  0  0  0  0
   68.6541   51.3714   55.2169 C   0  0  0  0  0  0  0  0  0  0  0  0
   68.7992   50.6858   54.0331 C   0  0  0  0  0  0  0  0  0  0  0  0
   69.6016   49.5432   54.0407 C   0  0  0  0  0  0  0  0  0  0  0  0
   70.2164   49.1428   55.2176 C   0  0  0  0  0  0  0  0  0  0  0  0
   69.7473   48.8208   52.7851 C   0  0  0  0  0  0  0  0  0  0  0  0
   70.5908   49.2062   51.9436 O   0  0  0  0  0  0  0  0  0  0  0  0
   68.9332   47.6471   52.4688 C   0  0  0  0  0  0  0  0  0  0  0  0
   68.4362   46.7107   53.3697 C   0  0  0  0  0  0  0  0  0  0  0  0
   67.7260   45.7731   52.6600 C   0  0  0  0  0  0  0  0  0  0  0  0
   67.8146   46.1708   51.3447 C   0  0  0  0  0  0  0  0  0  0  0  0
   68.5236   47.2580   51.2957 O   0  0  0  0  0  0  0  0  0  0  0  0
   72.4597   43.0896   60.0734 C   0  0  0  0  0  0  0  0  0  0  0  0
   72.7894   42.7921   61.3411 N   0  0  0  0  0  0  0  0  0  0  0  0
   71.7644   43.2089   62.1338 C   0  0  0  0  0  0  0  0  0  0  0  0
   70.8181   43.7595   61.3174 N   0  0  0  0  0  0  0  0  0  0  0  0
   71.2377   43.6910   60.0468 C   0  0  0  0  0  0  0  0  0  0  0  0
   74.0290   44.0742   58.5089 C   0  0  0  0  0  0  0  0  0  0  0  0
   73.2864   42.8130   58.8925 C   0  0  0  0  0  0  0  0  0  0  0  0
   74.3523   41.7954   59.2801 C   0  0  0  0  0  0  0  0  0  0  0  0
   72.4803   42.2930   57.7262 C   0  0  0  0  0  0  0  0  0  0  0  0
 29 30  1  0
 30 31  1  0
 30 32  1  0
 30 24  1  0
 24 25  1  0
 24 28  2  0
 25 26  1  0
 26 27  2  0
 27 28  1  0
 28  1  1  0
  1  2  2  0
  2  3  1  0
  2  9  1  0
  3  4  1  0
  4  5  2  0
  4  6  1  0
  6  7  2  0
  6  8  1  0
  7 11  1  0
 11 12  2  0
 11 16  1  0
 12 13  1  0
 13 14  2  0
 14 15  1  0
 15 17  1  0
 15 16  2  0
 17 18  2  0
 17 19  1  0
 19 20  2  0
 19 23  1  0
 20 21  1  0
 21 22  2  0
 22 23  1  0
  8  9  1  0
  9 10  2  0
M  CHG  1  27   1
M  END
>  <minimizedAffinity>  (1236) 
-9.17610

$$$$
data/reference_output_2/data/smiles/199031.pdb
     RDKit          3D

 28 31  0  0  0  0  0  0  0  0999 V2000
   67.2184   43.0092   56.6540 O   0  0  0  0  0  0  0  0  0  0  0  0
   68.4967   42.9930   56.9075 C   0  0  0  0  0  0  0  0  0  0  0  0
   68.9843   41.7945   57.4132 N   0  0  0  0  0  0  0  0  0  0  0  0
   70.3574   41.6210   57.8078 C   0  0  0  0  0  0  0  0  0  0  0  0
   70.4291   40.5991   58.9761 C   0  0  0  0  0  0  0  0  0  0  0  0
   69.9232   39.3709   58.4749 N   0  0  0  0  0  0  0  0  0  0  0  0
   68.7625   39.3622   57.6093 C   0  0  0  0  0  0  0  0  0  0  0  0
   68.0337   40.6736   57.5382 C   0  0  0  0  0  0  0  0  0  0  0  0
   70.4898   38.1006   58.7790 C   0  0  0  0  0  0  0  0  0  0  0  0
   71.5390   37.5687   58.0616 C   0  0  0  0  0  0  0  0  0  0  0  0
   72.0844   36.3366   58.3535 C   0  0  0  0  0  0  0  0  0  0  0  0
   71.5748   35.5946   59.3987 C   0  0  0  0  0  0  0  0  0  0  0  0
   72.0793   34.3706   59.7288 F   0  0  0  0  0  0  0  0  0  0  0  0
   70.5350   36.1037   60.1219 C   0  0  0  0  0  0  0  0  0  0  0  0
   69.9944   37.3585   59.8089 C   0  0  0  0  0  0  0  0  0  0  0  0
   69.1614   44.2494   56.6069 C   0  0  0  0  0  0  0  0  0  0  0  0
   68.4337   45.3327   56.1852 O   0  0  0  0  0  0  0  0  0  0  0  0
   68.3464   45.8672   54.9383 C   0  0  0  0  0  0  0  0  0  0  0  0
   67.7231   45.1718   53.9275 C   0  0  0  0  0  0  0  0  0  0  0  0
   67.6196   45.6987   52.6375 C   0  0  0  0  0  0  0  0  0  0  0  0
   67.0553   45.0809   51.7056 O   0  0  0  0  0  0  0  0  0  0  0  0
   68.1234   46.8734   52.3926 O   0  0  0  0  0  0  0  0  0  0  0  0
   68.7146   47.5506   53.3196 C   0  0  0  0  0  0  0  0  0  0  0  0
   69.2341   48.7921   53.0103 C   0  0  0  0  0  0  0  0  0  0  0  0
   69.8773   49.5814   53.9274 C   0  0  0  0  0  0  0  0  0  0  0  0
   70.0060   49.1042   55.2179 C   0  0  0  0  0  0  0  0  0  0  0  0
   69.5094   47.8758   55.5851 C   0  0  0  0  0  0  0  0  0  0  0  0
   68.8655   47.1053   54.6324 C   0  0  0  0  0  0  0  0  0  0  0  0
  1  2  2  0
  2 16  1  0
  2  3  1  0
 16 17  1  0
 17 18  1  0
 18 19  2  0
 18 28  1  0
 19 20  1  0
 20 21  2  0
 20 22  1  0
 22 23  1  0
 23 24  1  0
 23 28  2  0
 24 25  2  0
 25 26  1  0
 26 27  2  0
 27 28  1  0
  3  4  1  0
  3  8  1  0
  4  5  1  0
  5  6  1  0
  6  9  1  0
  6  7  1  0
  9 10  2  0
  9 15  1  0
 10 11  1  0
 11 12  2  0
 12 13  1  0
 12 14  1  0
 14 15  2  0
  7  8  1  0
M  END
>  <minimizedAffinity>  (1237) 
-8.56079

$$$$
data/reference_output_2/data/smiles/199085.pdb
     RDKit          3D

 29 32  0  0  0  0  0  0  0  0999 V2000
   70.7182   45.7078   58.1471 C   0  0  0  0  0  0  0  0  0  0  0  0
   71.4910   46.2972   59.1429 C   0  0  0  0  0  0  0  0  0  0  0  0
   71.5403   47.6718   59.1463 C   0  0  0  0  0  0  0  0  0  0  0  0
   70.8529   48.3942   58.2053 C   0  0  0  0  0  0  0  0  0  0  0  0
   70.0759   47.7993   57.2031 C   0  0  0  0  0  0  0  0  0  0  0  0
   70.0302   46.4387   57.2028 C   0  0  0  0  0  0  0  0  0  0  0  0
   72.5063   41.5085   59.0811 C   0  0  1  0  0  0  0  0  0  0  0  0
   73.9296   41.7752   58.6728 C   0  0  0  0  0  0  0  0  0  0  0  0
   74.2225   43.1605   58.2430 C   0  0  0  0  0  0  0  0  0  0  0  0
   73.1092   43.9473   57.6519 C   0  0  0  0  0  0  0  0  0  0  0  0
   71.8059   43.4413   57.9102 N   0  0  0  0  0  0  0  0  0  0  0  0
   70.6682   44.2476   58.1476 C   0  0  0  0  0  0  0  0  0  0  0  0
   69.5385   43.7449   58.3738 O   0  0  0  0  0  0  0  0  0  0  0  0
   71.6300   42.0087   57.9283 C   0  0  0  0  0  0  0  0  0  0  0  0
   72.6843   39.3818   60.4150 N   0  0  0  0  0  0  0  0  0  0  0  0
   72.2848   40.0622   59.2413 C   0  0  0  0  0  0  0  0  0  0  0  0
   71.7325   39.4027   58.3330 O   0  0  0  0  0  0  0  0  0  0  0  0
   69.4281   48.7219   56.2772 C   0  0  0  0  0  0  0  0  0  0  0  0
   69.7370   48.6046   54.8676 C   0  0  0  0  0  0  0  0  0  0  0  0
   70.7765   49.2441   54.2814 N   0  0  0  0  0  0  0  0  0  0  0  0
   71.0379   49.1107   52.9921 N   0  0  0  0  0  0  0  0  0  0  0  0
   70.3024   48.3410   52.1775 C   0  0  0  0  0  0  0  0  0  0  0  0
   70.5504   48.2085   50.9405 O   0  0  0  0  0  0  0  0  0  0  0  0
   69.2311   47.6613   52.7018 C   0  0  0  0  0  0  0  0  0  0  0  0
   68.9720   47.8105   54.0480 C   0  0  0  0  0  0  0  0  0  0  0  0
   67.8071   47.0947   54.6068 C   0  0  0  0  0  0  0  0  0  0  0  0
   67.8460   45.6760   54.0904 C   0  0  0  0  0  0  0  0  0  0  0  0
   68.0399   45.5427   52.6196 C   0  0  0  0  0  0  0  0  0  0  0  0
   68.3377   46.8032   51.8894 C   0  0  0  0  0  0  0  0  0  0  0  0
 15 16  1  0
 16 17  2  0
  7 16  1  6
  7  8  1  0
  7 14  1  0
  8  9  1  0
  9 10  1  0
 10 11  1  0
 11 12  1  0
 11 14  1  0
 12 13  2  0
 12  1  1  0
  1  2  2  0
  1  6  1  0
  2  3  1  0
  3  4  2  0
  4  5  1  0
  5 18  1  0
  5  6  2  0
 18 19  1  0
 19 20  2  0
 19 25  1  0
 20 21  1  0
 21 22  1  0
 22 23  2  0
 22 24  1  0
 24 25  2  0
 24 29  1  0
 25 26  1  0
 26 27  1  0
 27 28  1  0
 28 29  1  0
M  END
>  <minimizedAffinity>  (1238) 
-9.24381

$$$$
data/reference_output_2/data/smiles/199156.pdb
     RDKit          3D

 27 29  0  0  0  0  0  0  0  0999 V2000
   70.0980   44.1074   57.6394 C   0  0  0  0  0  0  0  0  0  0  0  0
   69.2215   44.5595   56.6768 N   0  0  0  0  0  0  0  0  0  0  0  0
   69.2432   45.8684   56.5543 C   0  0  0  0  0  0  0  0  0  0  0  0
   70.1697   46.3169   57.4706 C   0  0  0  0  0  0  0  0  0  0  0  0
   70.5092   47.6776   57.6758 N   0  0  0  0  0  0  0  0  0  0  0  0
   70.7089   45.2002   58.1486 C   0  0  0  0  0  0  0  0  0  0  0  0
   70.4957   39.8931   58.3744 C   0  0  0  0  0  0  0  0  0  0  0  0
   71.6146   40.6833   58.2997 C   0  0  0  0  0  0  0  0  0  0  0  0
   71.4935   42.0676   58.0894 C   0  0  0  0  0  0  0  0  0  0  0  0
   70.3043   42.7006   57.9466 C   0  0  0  0  0  0  0  0  0  0  0  0
   69.1677   41.8595   58.0303 C   0  0  0  0  0  0  0  0  0  0  0  0
   69.2719   40.5102   58.2353 C   0  0  0  0  0  0  0  0  0  0  0  0
   71.7407   37.7762   58.3062 C   0  0  0  0  0  0  0  0  0  0  0  0
   70.5742   38.5094   58.5817 O   0  0  0  0  0  0  0  0  0  0  0  0
   71.7608   45.3872   59.1423 C   0  0  0  0  0  0  0  0  0  0  0  0
   73.1236   45.1154   58.9489 N   0  0  0  0  0  0  0  0  0  0  0  0
   71.4691   45.8452   60.3044 O   0  0  0  0  0  0  0  0  0  0  0  0
   68.4337   46.7475   55.7058 C   0  0  0  0  0  0  0  0  0  0  0  0
   67.4941   47.4112   56.2699 O   0  0  0  0  0  0  0  0  0  0  0  0
   68.5955   46.9351   54.2847 C   0  0  0  0  0  0  0  0  0  0  0  0
   69.3201   48.0587   53.8331 C   0  0  0  0  0  0  0  0  0  0  0  0
   69.7829   48.9354   54.7500 F   0  0  0  0  0  0  0  0  0  0  0  0
   69.5205   48.2096   52.4852 C   0  0  0  0  0  0  0  0  0  0  0  0
   69.0368   47.3001   51.5691 C   0  0  0  0  0  0  0  0  0  0  0  0
   68.3239   46.1908   51.9999 C   0  0  0  0  0  0  0  0  0  0  0  0
   68.1145   46.0273   53.3767 C   0  0  0  0  0  0  0  0  0  0  0  0
   67.4722   44.9183   53.7454 F   0  0  0  0  0  0  0  0  0  0  0  0
 13 14  1  0
 14  7  1  0
  7  8  2  0
  7 12  1  0
  8  9  1  0
  9 10  2  0
 10  1  1  0
 10 11  1  0
  1  2  1  0
  1  6  2  0
  2  3  1  0
  3 18  1  0
  3  4  2  0
 18 19  2  0
 18 20  1  0
 20 21  2  0
 20 26  1  0
 21 22  1  0
 21 23  1  0
 23 24  2  0
 24 25  1  0
 25 26  2  0
 26 27  1  0
  4  5  1  0
  4  6  1  0
  6 15  1  0
 15 16  1  0
 15 17  2  0
 11 12  2  0
M  END
>  <minimizedAffinity>  (1239) 
-8.68569

$$$$
data/reference_output_2/data/smiles/199426.pdb
     RDKit          3D

 25 29  0  0  0  0  0  0  0  0999 V2000
   70.1422   46.3288   57.7700 C   0  0  0  0  0  0  0  0  0  0  0  0
   69.6914   45.1476   57.3236 N   0  0  0  0  0  0  0  0  0  0  0  0
   70.0555   43.9777   57.8616 C   0  0  0  0  0  0  0  0  0  0  0  0
   70.9087   43.9953   58.8941 N   0  0  0  0  0  0  0  0  0  0  0  0
   71.4068   45.1339   59.4008 C   0  0  0  0  0  0  0  0  0  0  0  0
   71.0220   46.3225   58.8340 C   0  0  0  0  0  0  0  0  0  0  0  0
   71.7053   47.3950   59.5632 C   0  0  0  0  0  0  0  0  0  0  0  0
   71.9574   46.8073   60.8618 N   0  0  0  0  0  0  0  0  0  0  0  0
   72.3606   45.4367   60.5292 C   0  0  0  0  0  0  0  0  0  0  0  0
   69.5284   42.7313   57.3275 C   0  0  0  0  0  0  0  0  0  0  0  0
   69.1043   41.7457   58.3847 C   0  0  0  0  0  0  0  0  0  0  0  0
   68.3253   40.7332   57.5722 C   0  0  0  0  0  0  0  0  0  0  0  0
   67.8561   41.4501   56.3182 C   0  0  0  0  0  0  0  0  0  0  0  0
   68.2500   42.9171   56.5391 C   0  0  0  0  0  0  0  0  0  0  0  0
   70.5945   48.7256   57.1756 C   0  0  0  0  0  0  0  0  0  0  0  0
   69.7404   47.5711   57.1779 N   0  0  0  0  0  0  0  0  0  0  0  0
   68.4461   47.6339   56.5709 C   0  0  0  0  0  0  0  0  0  0  0  0
   68.3918   47.0335   55.1966 C   0  0  0  0  0  0  0  0  0  0  0  0
   67.7085   45.9138   54.8462 N   0  0  0  0  0  0  0  0  0  0  0  0
   67.8774   45.6895   53.5593 N   0  0  0  0  0  0  0  0  0  0  0  0
   68.6651   46.6413   53.0319 C   0  0  0  0  0  0  0  0  0  0  0  0
   68.9966   47.4962   54.0574 C   0  0  0  0  0  0  0  0  0  0  0  0
   69.8863   48.5569   53.4922 C   0  0  0  0  0  0  0  0  0  0  0  0
   69.5023   48.5797   52.0314 C   0  0  0  0  0  0  0  0  0  0  0  0
   69.3007   47.1009   51.7470 C   0  0  0  0  0  0  0  0  0  0  0  0
 15 16  1  0
 16 17  1  0
 16  1  1  0
 17 18  1  0
 18 19  2  0
 18 22  1  0
 19 20  1  0
 20 21  1  0
 21 22  2  0
 21 25  1  0
 22 23  1  0
 23 24  1  0
 24 25  1  0
  1  2  2  0
  1  6  1  0
  2  3  1  0
  3 10  1  0
  3  4  2  0
 10 11  1  0
 10 14  1  0
 11 12  1  0
 12 13  1  0
 13 14  1  0
  4  5  1  0
  5  6  2  0
  5  9  1  0
  6  7  1  0
  7  8  1  0
  8  9  1  0
M  CHG  1   8   1
M  END
>  <minimizedAffinity>  (1240) 
-8.51872

$$$$
data/reference_output_2/data/smiles/199618.pdb
     RDKit          3D

 25 27  0  0  0  0  0  0  0  0999 V2000
   69.9534   46.9901   57.9530 C   0  0  0  0  0  0  0  0  0  0  0  0
   70.9863   45.8945   57.8242 C   0  0  0  0  0  0  0  0  0  0  0  0
   69.6533   44.3947   59.1700 O   0  0  0  0  0  0  0  0  0  0  0  0
   70.3230   44.5895   58.1348 C   0  0  0  0  0  0  0  0  0  0  0  0
   70.4172   43.4745   57.2546 N   0  0  0  0  0  0  0  0  0  0  0  0
   69.8224   42.2351   57.4886 C   0  0  0  0  0  0  0  0  0  0  0  0
   70.4126   41.2649   58.2561 C   0  0  0  0  0  0  0  0  0  0  0  0
   69.8331   40.0279   58.4975 C   0  0  0  0  0  0  0  0  0  0  0  0
   68.5971   39.7386   57.9441 C   0  0  0  0  0  0  0  0  0  0  0  0
   68.0442   38.5246   58.1891 F   0  0  0  0  0  0  0  0  0  0  0  0
   67.9824   40.6986   57.1666 C   0  0  0  0  0  0  0  0  0  0  0  0
   68.5859   41.9353   56.9388 C   0  0  0  0  0  0  0  0  0  0  0  0
   67.7414   43.1169   55.9349 Cl  0  0  0  0  0  0  0  0  0  0  0  0
   68.9844   46.8046   56.9010 N   0  0  0  0  0  0  0  0  0  0  0  0
   69.1927   47.4772   55.6363 C   0  0  0  0  0  0  0  0  0  0  0  0
   69.8022   48.6015   55.6218 N   0  0  0  0  0  0  0  0  0  0  0  0
   69.9113   49.1725   54.0001 S   0  0  0  0  0  0  0  0  0  0  0  0
   69.1714   50.4446   53.7824 O   0  0  0  0  0  0  0  0  0  0  0  0
   71.3265   49.2278   53.5359 O   0  0  0  0  0  0  0  0  0  0  0  0
   69.0761   47.7945   53.2824 C   0  0  0  0  0  0  0  0  0  0  0  0
   68.7502   47.4913   51.9662 C   0  0  0  0  0  0  0  0  0  0  0  0
   68.0820   46.3305   51.6549 C   0  0  0  0  0  0  0  0  0  0  0  0
   67.7641   45.5057   52.7121 C   0  0  0  0  0  0  0  0  0  0  0  0
   68.0850   45.8034   54.0115 C   0  0  0  0  0  0  0  0  0  0  0  0
   68.7684   46.9889   54.3465 C   0  0  0  0  0  0  0  0  0  0  0  0
  3  4  2  0
  4  2  1  0
  4  5  1  0
  2  1  1  0
  1 14  1  0
 14 15  1  0
 15 16  2  0
 15 25  1  0
 16 17  1  0
 17 18  2  0
 17 19  2  0
 17 20  1  0
 20 21  1  0
 20 25  2  0
 21 22  2  0
 22 23  1  0
 23 24  2  0
 24 25  1  0
  5  6  1  0
  6  7  2  0
  6 12  1  0
  7  8  1  0
  8  9  2  0
  9 10  1  0
  9 11  1  0
 11 12  2  0
 12 13  1  0
M  CHG  1  16   1
M  END
>  <minimizedAffinity>  (1241) 
-8.61528

$$$$
data/reference_output_2/data/smiles/199651.pdb
     RDKit          3D

 30 33  0  0  0  0  0  0  0  0999 V2000
   69.2879   42.0747   57.3569 C   0  0  0  0  0  0  0  0  0  0  0  0
   68.4039   41.5674   58.2149 C   0  0  0  0  0  0  0  0  0  0  0  0
   67.7773   42.3819   59.0827 N   0  0  0  0  0  0  0  0  0  0  0  0
   66.8811   41.8690   59.9522 C   0  0  0  0  0  0  0  0  0  0  0  0
   66.2953   42.6420   60.7654 O   0  0  0  0  0  0  0  0  0  0  0  0
   66.5647   40.5266   60.0025 C   0  0  0  0  0  0  0  0  0  0  0  0
   65.6790   40.0264   60.8642 C   0  0  0  0  0  0  0  0  0  0  0  0
   67.1961   39.7184   59.1307 N   0  0  0  0  0  0  0  0  0  0  0  0
   68.0919   40.2240   58.2606 C   0  0  0  0  0  0  0  0  0  0  0  0
   68.6881   39.4543   57.4360 O   0  0  0  0  0  0  0  0  0  0  0  0
   69.2087   45.7352   56.5093 C   0  0  0  0  0  0  0  0  0  0  0  0
   70.2962   46.1934   57.2439 C   0  0  0  0  0  0  0  0  0  0  0  0
   71.0360   45.3161   58.0006 C   0  0  0  0  0  0  0  0  0  0  0  0
   70.6868   43.9622   58.0240 C   0  0  0  0  0  0  0  0  0  0  0  0
   69.6186   43.4866   57.3058 C   0  0  0  0  0  0  0  0  0  0  0  0
   68.8879   44.3773   56.5546 C   0  0  0  0  0  0  0  0  0  0  0  0
   67.5924   47.4215   56.2714 O   0  0  0  0  0  0  0  0  0  0  0  0
   68.4134   46.6352   55.6885 C   0  0  0  0  0  0  0  0  0  0  0  0
   68.4915   46.7001   54.2547 C   0  0  0  0  0  0  0  0  0  0  0  0
   69.2670   47.6902   53.6519 C   0  0  0  0  0  0  0  0  0  0  0  0
   69.3474   47.7802   52.2872 C   0  0  0  0  0  0  0  0  0  0  0  0
   68.6533   46.8847   51.4798 C   0  0  0  0  0  0  0  0  0  0  0  0
   67.8995   45.9252   52.0834 C   0  0  0  0  0  0  0  0  0  0  0  0
   67.8095   45.8202   53.4490 C   0  0  0  0  0  0  0  0  0  0  0  0
   65.3494   38.6253   60.9152 C   0  0  0  0  0  0  0  0  0  0  0  0
   65.9907   37.8131   61.8170 C   0  0  0  0  0  0  0  0  0  0  0  0
   65.6802   36.4437   61.8805 C   0  0  0  0  0  0  0  0  0  0  0  0
   64.7398   35.9354   61.0375 C   0  0  0  0  0  0  0  0  0  0  0  0
   64.1154   36.7315   60.1574 N   0  0  0  0  0  0  0  0  0  0  0  0
   64.4130   38.0589   60.0942 C   0  0  0  0  0  0  0  0  0  0  0  0
 17 18  2  0
 18 19  1  0
 18 11  1  0
 19 20  2  0
 19 24  1  0
 20 21  1  0
 21 22  2  0
 22 23  1  0
 23 24  2  0
 11 12  2  0
 11 16  1  0
 12 13  1  0
 13 14  2  0
 14 15  1  0
 15  1  1  0
 15 16  2  0
  1  2  2  0
  2  3  1  0
  2  9  1  0
  3  4  1  0
  4  5  2  0
  4  6  1  0
  6  7  2  0
  6  8  1  0
  7 25  1  0
 25 26  2  0
 25 30  1  0
 26 27  1  0
 27 28  2  0
 28 29  1  0
 29 30  2  0
  8  9  1  0
  9 10  2  0
M  END
>  <minimizedAffinity>  (1242) 
-9.18630

$$$$
data/reference_output_2/data/smiles/199801.pdb
     RDKit          3D

 25 27  0  0  0  0  0  0  0  0999 V2000
   69.6377   46.7016   56.5834 C   0  0  0  0  0  0  0  0  0  0  0  0
   68.7099   46.1928   55.5741 C   0  0  0  0  0  0  0  0  0  0  0  0
   68.0650   45.1220   55.8900 O   0  0  0  0  0  0  0  0  0  0  0  0
   68.4752   46.7581   54.3300 N   0  0  0  0  0  0  0  0  0  0  0  0
   67.8183   46.0006   53.2609 C   0  0  0  0  0  0  0  0  0  0  0  0
   68.3136   46.3712   51.9166 C   0  0  0  0  0  0  0  0  0  0  0  0
   69.5627   47.2206   51.8817 C   0  0  0  0  0  0  0  0  0  0  0  0
   69.4646   48.3713   52.8153 C   0  0  0  0  0  0  0  0  0  0  0  0
   69.8843   49.6376   52.4837 C   0  0  0  0  0  0  0  0  0  0  0  0
   69.7293   50.6512   53.4176 C   0  0  0  0  0  0  0  0  0  0  0  0
   69.1647   50.3653   54.6399 C   0  0  0  0  0  0  0  0  0  0  0  0
   68.7454   49.1013   54.9736 C   0  0  0  0  0  0  0  0  0  0  0  0
   68.8980   48.0790   54.0423 C   0  0  0  0  0  0  0  0  0  0  0  0
   69.5602   46.1461   57.8666 O   0  0  0  0  0  0  0  0  0  0  0  0
   70.9750   46.5289   59.5934 O   0  0  0  0  0  0  0  0  0  0  0  0
   70.7014   45.8135   58.6165 C   0  0  0  0  0  0  0  0  0  0  0  0
   71.4933   44.6664   58.2161 C   0  0  0  0  0  0  0  0  0  0  0  0
   72.8802   44.8605   58.0936 C   0  0  0  0  0  0  0  0  0  0  0  0
   73.7037   43.8290   57.7451 C   0  0  0  0  0  0  0  0  0  0  0  0
   73.2110   42.5664   57.5020 C   0  0  0  0  0  0  0  0  0  0  0  0
   71.8771   42.3762   57.6189 C   0  0  0  0  0  0  0  0  0  0  0  0
   71.0162   43.4201   57.9744 C   0  0  0  0  0  0  0  0  0  0  0  0
   69.6714   43.0780   58.0747 N   0  0  0  0  0  0  0  0  0  0  0  0
   68.9802   43.2451   59.0602 O   0  0  0  0  0  0  0  0  0  0  0  0
   69.0130   42.5472   56.9608 O   0  0  0  0  0  0  0  0  0  0  0  0
 15 16  2  0
 16 14  1  0
 16 17  1  0
 14  1  1  0
  1  2  1  0
  2  3  2  0
  2  4  1  0
  4  5  1  0
  4 13  1  0
  5  6  1  0
  6  7  1  0
  7  8  1  0
  8  9  2  0
  8 13  1  0
  9 10  1  0
 10 11  2  0
 11 12  1  0
 12 13  2  0
 17 18  2  0
 17 22  1  0
 18 19  1  0
 19 20  2  0
 20 21  1  0
 21 22  2  0
 22 23  1  0
 23 24  2  0
 23 25  1  0
M  CHG  2  23   1  25  -1
M  END
>  <minimizedAffinity>  (1243) 
-8.60475

$$$$
data/reference_output_2/data/smiles/199900.pdb
     RDKit          3D

 30 33  0  0  0  0  0  0  0  0999 V2000
   68.3911   46.0158   54.1036 C   0  0  0  0  0  0  0  0  0  0  0  0
   67.9104   45.5562   52.8901 C   0  0  0  0  0  0  0  0  0  0  0  0
   68.0615   46.3328   51.7518 C   0  0  0  0  0  0  0  0  0  0  0  0
   68.6795   47.5551   51.7996 C   0  0  0  0  0  0  0  0  0  0  0  0
   69.1592   48.0200   52.9979 C   0  0  0  0  0  0  0  0  0  0  0  0
   69.0037   47.2429   54.1137 C   0  0  0  0  0  0  0  0  0  0  0  0
   67.8264   43.8767   55.3832 N   0  0  0  0  0  0  0  0  0  0  0  0
   68.2501   45.2174   55.3316 C   0  0  0  0  0  0  0  0  0  0  0  0
   68.5322   45.7849   56.4146 O   0  0  0  0  0  0  0  0  0  0  0  0
   67.4657   41.1668   55.4460 O   0  0  0  0  0  0  0  0  0  0  0  0
   67.5101   41.7318   56.5897 C   0  0  0  0  0  0  0  0  0  0  0  0
   67.6963   43.1294   56.5599 N   0  0  0  0  0  0  0  0  0  0  0  0
   67.3753   40.9592   57.8172 C   0  0  0  0  0  0  0  0  0  0  0  0
   66.6570   41.3613   58.9132 C   0  0  0  0  0  0  0  0  0  0  0  0
   66.5488   40.6075   60.0628 C   0  0  0  0  0  0  0  0  0  0  0  0
   67.1831   39.3801   60.1495 C   0  0  0  0  0  0  0  0  0  0  0  0
   67.9091   38.9587   59.0605 C   0  0  0  0  0  0  0  0  0  0  0  0
   68.0014   39.7343   57.9197 C   0  0  0  0  0  0  0  0  0  0  0  0
   69.9673   49.5970   53.0978 S   0  0  0  0  0  0  0  0  0  0  0  0
   71.4476   49.3257   53.3212 O   0  0  0  0  0  0  0  0  0  0  0  0
   69.8597   50.3066   51.7929 O   0  0  0  0  0  0  0  0  0  0  0  0
   69.4144   50.5130   54.4275 N   0  0  0  0  0  0  0  0  0  0  0  0
   68.5914   51.6994   54.3331 C   0  0  0  0  0  0  0  0  0  0  0  0
   68.9393   52.5228   55.5522 C   0  0  0  0  0  0  0  0  0  0  0  0
   69.3502   51.4816   56.5259 C   0  0  0  0  0  0  0  0  0  0  0  0
   69.5035   51.4635   57.9100 C   0  0  0  0  0  0  0  0  0  0  0  0
   69.9122   50.3496   58.6114 C   0  0  0  0  0  0  0  0  0  0  0  0
   70.1834   49.1960   57.9141 C   0  0  0  0  0  0  0  0  0  0  0  0
   70.0334   49.2011   56.5223 C   0  0  0  0  0  0  0  0  0  0  0  0
   69.6206   50.3310   55.8307 C   0  0  0  0  0  0  0  0  0  0  0  0
 10 11  2  0
 11 12  1  0
 11 13  1  0
 12  7  1  0
  7  8  1  0
  8  9  2  0
  8  1  1  0
  1  2  2  0
  1  6  1  0
  2  3  1  0
  3  4  2  0
  4  5  1  0
  5 19  1  0
  5  6  2  0
 19 20  2  0
 19 21  2  0
 19 22  1  0
 22 23  1  0
 22 30  1  0
 23 24  1  0
 24 25  1  0
 25 26  1  0
 25 30  2  0
 26 27  2  0
 27 28  1  0
 28 29  2  0
 29 30  1  0
 13 14  2  0
 13 18  1  0
 14 15  1  0
 15 16  2  0
 16 17  1  0
 17 18  2  0
M  END
>  <minimizedAffinity>  (1244) 
-10.20553

$$$$
data/reference_output_2/data/smiles/200016.pdb
     RDKit          3D

 31 34  0  0  0  0  0  0  0  0999 V2000
   69.3076   44.3944   57.0326 N   0  0  0  0  0  0  0  0  0  0  0  0
   70.3738   43.6866   57.6589 C   0  0  0  0  0  0  0  0  0  0  0  0
   71.3881   44.3464   57.9909 O   0  0  0  0  0  0  0  0  0  0  0  0
   68.6392   46.4364   55.8627 C   0  0  0  0  0  0  0  0  0  0  0  0
   67.8100   45.7595   55.2055 O   0  0  0  0  0  0  0  0  0  0  0  0
   69.4351   45.7672   56.8195 N   0  0  0  0  0  0  0  0  0  0  0  0
   68.3699   51.1674   57.3659 C   0  0  0  0  0  0  0  0  0  0  0  0
   68.6266   50.1432   56.3139 C   0  0  0  0  0  0  0  0  0  0  0  0
   68.5096   48.8053   56.6063 C   0  0  0  0  0  0  0  0  0  0  0  0
   68.7491   47.8763   55.6159 C   0  0  0  0  0  0  0  0  0  0  0  0
   69.0987   48.3378   54.3641 C   0  0  0  0  0  0  0  0  0  0  0  0
   69.3509   47.4483   53.3253 C   0  0  0  0  0  0  0  0  0  0  0  0
   69.6957   47.9212   52.0857 C   0  0  0  0  0  0  0  0  0  0  0  0
   69.8125   49.2615   51.7930 C   0  0  0  0  0  0  0  0  0  0  0  0
   69.5666   50.1537   52.8093 C   0  0  0  0  0  0  0  0  0  0  0  0
   69.2166   49.6875   54.0674 C   0  0  0  0  0  0  0  0  0  0  0  0
   68.9678   50.5487   55.0839 N   0  0  0  0  0  0  0  0  0  0  0  0
   70.2011   42.2339   57.8690 C   0  0  0  0  0  0  0  0  0  0  0  0
   71.2332   41.6822   58.8342 C   0  0  0  0  0  0  0  0  0  0  0  0
   71.0710   40.2908   59.0783 N   0  0  0  0  0  0  0  0  0  0  0  0
   69.7204   39.8494   58.8218 C   0  0  0  0  0  0  0  0  0  0  0  0
   69.6114   38.3442   59.0235 C   0  0  0  0  0  0  0  0  0  0  0  0
   70.8919   37.8206   59.4188 N   0  0  0  0  0  0  0  0  0  0  0  0
   71.5306   38.4131   60.5737 C   0  0  0  0  0  0  0  0  0  0  0  0
   71.5197   39.9451   60.3970 C   0  0  0  0  0  0  0  0  0  0  0  0
   71.5227   36.7939   58.7115 C   0  0  0  0  0  0  0  0  0  0  0  0
   72.2301   36.9769   57.5254 C   0  0  0  0  0  0  0  0  0  0  0  0
   72.8301   35.9488   56.8311 C   0  0  0  0  0  0  0  0  0  0  0  0
   72.7397   34.6582   57.3165 C   0  0  0  0  0  0  0  0  0  0  0  0
   72.0493   34.4262   58.4875 C   0  0  0  0  0  0  0  0  0  0  0  0
   71.4558   35.4929   59.1618 C   0  0  0  0  0  0  0  0  0  0  0  0
  7  8  1  0
  8  9  2  0
  8 17  1  0
  9 10  1  0
 10  4  1  0
 10 11  2  0
  4  5  2  0
  4  6  1  0
  6  1  1  0
  1  2  1  0
  2  3  2  0
  2 18  1  0
 18 19  1  0
 19 20  1  0
 20 21  1  0
 20 25  1  0
 21 22  1  0
 22 23  1  0
 23 26  1  0
 23 24  1  0
 26 27  2  0
 26 31  1  0
 27 28  1  0
 28 29  2  0
 29 30  1  0
 30 31  2  0
 24 25  1  0
 11 12  1  0
 11 16  1  0
 12 13  2  0
 13 14  1  0
 14 15  2  0
 15 16  1  0
 16 17  2  0
M  CHG  1  20   1
M  END
>  <minimizedAffinity>  (1245) 
-9.10276

$$$$
data/reference_output_2/data/smiles/200037.pdb
     RDKit          3D

 31 34  0  0  0  0  0  0  0  0999 V2000
   70.7636   44.1212   58.5107 C   0  0  0  0  0  0  0  0  0  0  0  0
   69.6372   43.2180   58.1383 C   0  0  0  0  0  0  0  0  0  0  0  0
   70.0677   41.8788   57.6115 C   0  0  0  0  0  0  0  0  0  0  0  0
   71.2489   41.4258   58.2230 N   0  0  0  0  0  0  0  0  0  0  0  0
   72.3787   42.2516   58.0357 C   0  0  0  0  0  0  0  0  0  0  0  0
   72.1028   43.7255   58.0502 C   0  0  0  0  0  0  0  0  0  0  0  0
   71.1263   46.4418   58.4117 O   0  0  0  0  0  0  0  0  0  0  0  0
   70.4456   45.4875   57.9586 C   0  0  0  0  0  0  0  0  0  0  0  0
   69.4557   45.6987   57.0001 N   0  0  0  0  0  0  0  0  0  0  0  0
   69.1815   47.0178   56.4936 C   0  0  0  0  0  0  0  0  0  0  0  0
   68.8957   46.9258   55.0492 C   0  0  0  0  0  0  0  0  0  0  0  0
   69.2505   47.8290   54.0983 C   0  0  0  0  0  0  0  0  0  0  0  0
   68.9501   47.6563   52.7560 C   0  0  0  0  0  0  0  0  0  0  0  0
   68.2614   46.5164   52.3659 C   0  0  0  0  0  0  0  0  0  0  0  0
   67.9513   46.3094   51.0769 F   0  0  0  0  0  0  0  0  0  0  0  0
   67.8824   45.5718   53.3057 C   0  0  0  0  0  0  0  0  0  0  0  0
   68.2034   45.7866   54.6344 C   0  0  0  0  0  0  0  0  0  0  0  0
   71.1431   40.5247   59.6313 S   0  0  0  0  0  0  0  0  0  0  0  0
   69.9115   40.8497   60.4249 O   0  0  0  0  0  0  0  0  0  0  0  0
   72.3232   40.8865   60.5259 O   0  0  0  0  0  0  0  0  0  0  0  0
   71.2161   38.7937   59.4107 C   0  0  0  0  0  0  0  0  0  0  0  0
   70.6976   37.9052   60.3265 C   0  0  0  0  0  0  0  0  0  0  0  0
   70.7919   36.5481   60.0952 C   0  0  0  0  0  0  0  0  0  0  0  0
   71.3960   36.0947   58.9643 C   0  0  0  0  0  0  0  0  0  0  0  0
   71.9278   36.9712   58.0230 C   0  0  0  0  0  0  0  0  0  0  0  0
   71.8251   38.3190   58.2696 C   0  0  0  0  0  0  0  0  0  0  0  0
   72.5774   36.6874   56.8165 O   0  0  0  0  0  0  0  0  0  0  0  0
   73.0889   35.4202   56.4560 C   0  0  0  0  0  0  0  0  0  0  0  0
   73.5706   34.6792   57.6688 C   0  0  0  0  0  0  0  0  0  0  0  0
   72.4795   33.8735   58.3322 C   0  0  0  0  0  0  0  0  0  0  0  0
   71.4385   34.7003   58.8267 O   0  0  0  0  0  0  0  0  0  0  0  0
  7  8  2  0
  8  9  1  0
  8  1  1  0
  9 10  1  0
 10 11  1  0
 11 12  2  0
 11 17  1  0
 12 13  1  0
 13 14  2  0
 14 15  1  0
 14 16  1  0
 16 17  2  0
  1  2  1  0
  1  6  1  0
  2  3  1  0
  3  4  1  0
  4 18  1  0
  4  5  1  0
 18 19  2  0
 18 20  2  0
 18 21  1  0
 21 22  2  0
 21 26  1  0
 22 23  1  0
 23 24  2  0
 24 25  1  0
 24 31  1  0
 25 26  2  0
 25 27  1  0
 27 28  1  0
 28 29  1  0
 29 30  1  0
 30 31  1  0
  5  6  1  0
M  END
>  <minimizedAffinity>  (1246) 
-9.07685

$$$$
data/reference_output_2/data/smiles/200156.pdb
     RDKit          3D

 25 27  0  0  0  0  0  0  0  0999 V2000
   69.6832   45.9428   57.4301 N   0  0  0  0  0  0  0  0  0  0  0  0
   69.7292   47.3371   57.3280 C   0  0  0  0  0  0  0  0  0  0  0  0
   70.6139   47.9883   57.8878 O   0  0  0  0  0  0  0  0  0  0  0  0
   70.6226   45.1424   58.1875 C   0  0  0  0  0  0  0  0  0  0  0  0
   70.5063   42.6685   57.5844 N   0  0  0  0  0  0  0  0  0  0  0  0
   70.0995   43.7742   58.3984 C   0  0  0  0  0  0  0  0  0  0  0  0
   69.2593   43.5028   59.3105 O   0  0  0  0  0  0  0  0  0  0  0  0
   71.1221   38.0085   59.1713 C   0  0  0  0  0  0  0  0  0  0  0  0
   70.2755   39.0826   58.5870 C   0  0  0  0  0  0  0  0  0  0  0  0
   68.9689   38.8068   58.2766 C   0  0  0  0  0  0  0  0  0  0  0  0
   68.2013   39.8201   57.7417 C   0  0  0  0  0  0  0  0  0  0  0  0
   68.7085   41.0700   57.5198 N   0  0  0  0  0  0  0  0  0  0  0  0
   69.9740   41.3752   57.8100 C   0  0  0  0  0  0  0  0  0  0  0  0
   70.7602   40.3542   58.3529 C   0  0  0  0  0  0  0  0  0  0  0  0
   68.6932   48.0566   56.5196 C   0  0  0  0  0  0  0  0  0  0  0  0
   69.1535   48.2768   55.1450 C   0  0  0  0  0  0  0  0  0  0  0  0
   69.9970   49.3693   54.8628 C   0  0  0  0  0  0  0  0  0  0  0  0
   70.4155   49.6578   53.5919 C   0  0  0  0  0  0  0  0  0  0  0  0
   69.9974   48.8537   52.5570 C   0  0  0  0  0  0  0  0  0  0  0  0
   69.1606   47.7576   52.7869 C   0  0  0  0  0  0  0  0  0  0  0  0
   68.7772   46.9714   51.7303 C   0  0  0  0  0  0  0  0  0  0  0  0
   67.9715   45.8845   51.9270 C   0  0  0  0  0  0  0  0  0  0  0  0
   67.5559   45.5957   53.2066 C   0  0  0  0  0  0  0  0  0  0  0  0
   67.9485   46.3946   54.2603 C   0  0  0  0  0  0  0  0  0  0  0  0
   68.7567   47.4980   54.1060 C   0  0  0  0  0  0  0  0  0  0  0  0
  8  9  1  0
  9 10  2  0
  9 14  1  0
 10 11  1  0
 11 12  2  0
 12 13  1  0
 13  5  1  0
 13 14  2  0
  5  6  1  0
  6  7  2  0
  6  4  1  0
  4  1  1  0
  1  2  1  0
  2  3  2  0
  2 15  1  0
 15 16  1  0
 16 17  2  0
 16 25  1  0
 17 18  1  0
 18 19  2  0
 19 20  1  0
 20 21  1  0
 20 25  2  0
 21 22  2  0
 22 23  1  0
 23 24  2  0
 24 25  1  0
M  END
>  <minimizedAffinity>  (1247) 
-8.66804

$$$$
data/reference_output_2/data/smiles/200280.pdb
     RDKit          3D

 25 27  0  0  0  0  0  0  0  0999 V2000
   68.8354   48.2867   56.3353 C   0  0  0  0  0  0  0  0  0  0  0  0
   68.0420   49.1432   56.8669 O   0  0  0  0  0  0  0  0  0  0  0  0
   69.5204   48.5997   55.0943 C   0  0  0  0  0  0  0  0  0  0  0  0
   70.5422   49.4998   54.8910 C   0  0  0  0  0  0  0  0  0  0  0  0
   70.8742   49.4590   53.5702 N   0  0  0  0  0  0  0  0  0  0  0  0
   70.0870   48.5636   52.9666 C   0  0  0  0  0  0  0  0  0  0  0  0
   70.0071   48.1389   51.6486 C   0  0  0  0  0  0  0  0  0  0  0  0
   69.0872   47.1831   51.2812 C   0  0  0  0  0  0  0  0  0  0  0  0
   68.2109   46.6008   52.1760 C   0  0  0  0  0  0  0  0  0  0  0  0
   68.2959   47.0324   53.5017 C   0  0  0  0  0  0  0  0  0  0  0  0
   69.2168   47.9874   53.8611 C   0  0  0  0  0  0  0  0  0  0  0  0
   67.2617   45.6151   51.7817 N   0  0  0  0  0  0  0  0  0  0  0  0
   66.9990   44.6881   52.5400 O   0  0  0  0  0  0  0  0  0  0  0  0
   66.6358   45.6849   50.5629 O   0  0  0  0  0  0  0  0  0  0  0  0
   69.7130   46.9042   58.2474 N   0  0  0  0  0  0  0  0  0  0  0  0
   69.0469   47.0008   56.9775 C   0  0  0  0  0  0  0  0  0  0  0  0
   68.6740   45.9194   56.4830 O   0  0  0  0  0  0  0  0  0  0  0  0
   69.9453   45.7015   58.9146 N   0  0  0  0  0  0  0  0  0  0  0  0
   74.4671   42.3734   57.7483 C   0  0  0  0  0  0  0  0  0  0  0  0
   73.3001   43.2660   58.0573 C   0  0  0  0  0  0  0  0  0  0  0  0
   73.4454   44.6146   58.2322 C   0  0  0  0  0  0  0  0  0  0  0  0
   72.3505   45.4044   58.5143 C   0  0  0  0  0  0  0  0  0  0  0  0
   71.0626   44.8721   58.6326 C   0  0  0  0  0  0  0  0  0  0  0  0
   70.9646   43.5139   58.4491 C   0  0  0  0  0  0  0  0  0  0  0  0
   72.0512   42.7209   58.1679 C   0  0  0  0  0  0  0  0  0  0  0  0
 19 20  1  0
 20 21  2  0
 20 25  1  0
 21 22  1  0
 22 23  2  0
 23 18  1  0
 23 24  1  0
 18 15  1  0
 15 16  1  0
 16 17  2  0
 16  1  1  0
  1  2  2  0
  1  3  1  0
  3  4  2  0
  3 11  1  0
  4  5  1  0
  5  6  1  0
  6  7  1  0
  6 11  2  0
  7  8  2  0
  8  9  1  0
  9 12  1  0
  9 10  2  0
 12 13  2  0
 12 14  1  0
 10 11  1  0
 24 25  2  0
M  CHG  2  12   1  14  -1
M  END
>  <minimizedAffinity>  (1248) 
-8.63512

$$$$
data/reference_output_2/data/smiles/200477.pdb
     RDKit          3D

 30 33  0  0  0  0  0  0  0  0999 V2000
   71.9411   46.5359   59.3540 C   0  0  0  0  0  0  0  0  0  0  0  0
   71.0794   47.2135   58.5281 C   0  0  0  0  0  0  0  0  0  0  0  0
   70.1641   46.5815   57.6837 C   0  0  0  0  0  0  0  0  0  0  0  0
   70.1485   45.2240   57.7020 C   0  0  0  0  0  0  0  0  0  0  0  0
   71.0157   44.5031   58.5355 C   0  0  0  0  0  0  0  0  0  0  0  0
   71.9023   45.1727   59.3526 C   0  0  0  0  0  0  0  0  0  0  0  0
   72.7617   44.4889   60.1773 F   0  0  0  0  0  0  0  0  0  0  0  0
   75.8014   49.4058   60.0214 C   0  0  2  0  0  0  0  0  0  0  0  0
   76.1427   49.1608   58.6148 C   0  0  0  0  0  0  0  0  0  0  0  0
   75.2495   48.2472   57.8539 C   0  0  0  0  0  0  0  0  0  0  0  0
   74.7163   47.0799   58.6127 C   0  0  0  0  0  0  0  0  0  0  0  0
   74.1865   47.5635   59.8538 N   0  0  0  0  0  0  0  0  0  0  0  0
   72.8564   47.2956   60.1987 C   0  0  0  0  0  0  0  0  0  0  0  0
   72.4139   47.7316   61.2978 O   0  0  0  0  0  0  0  0  0  0  0  0
   75.0458   48.3153   60.7161 C   0  0  0  0  0  0  0  0  0  0  0  0
   74.8959   51.6161   59.0926 N   0  0  0  0  0  0  0  0  0  0  0  0
   75.0085   50.6562   60.1352 C   0  0  0  0  0  0  0  0  0  0  0  0
   74.3994   50.8914   61.2012 O   0  0  0  0  0  0  0  0  0  0  0  0
   69.3128   47.4640   56.8506 C   0  0  0  0  0  0  0  0  0  0  0  0
   68.7733   46.7601   55.6688 C   0  0  0  0  0  0  0  0  0  0  0  0
   68.1449   45.5513   55.7660 N   0  0  0  0  0  0  0  0  0  0  0  0
   67.6720   44.8897   54.7340 N   0  0  0  0  0  0  0  0  0  0  0  0
   67.7906   45.3962   53.4781 C   0  0  0  0  0  0  0  0  0  0  0  0
   67.3238   44.7273   52.5203 O   0  0  0  0  0  0  0  0  0  0  0  0
   68.4066   46.6035   53.2863 C   0  0  0  0  0  0  0  0  0  0  0  0
   68.8907   47.2683   54.4079 C   0  0  0  0  0  0  0  0  0  0  0  0
   69.4915   48.5248   54.1841 N   0  0  0  0  0  0  0  0  0  0  0  0
   70.1953   48.8558   52.9730 C   0  0  0  0  0  0  0  0  0  0  0  0
   70.0062   47.7807   51.9486 C   0  0  0  0  0  0  0  0  0  0  0  0
   68.5914   47.2179   51.9369 C   0  0  0  0  0  0  0  0  0  0  0  0
 16 17  1  0
 17 18  2  0
  8 17  1  6
  8  9  1  0
  8 15  1  0
  9 10  1  0
 10 11  1  0
 11 12  1  0
 12 13  1  0
 12 15  1  0
 13 14  2  0
 13  1  1  0
  1  2  2  0
  1  6  1  0
  2  3  1  0
  3 19  1  0
  3  4  2  0
 19 20  1  0
 20 21  2  0
 20 26  1  0
 21 22  1  0
 22 23  1  0
 23 24  2  0
 23 25  1  0
 25 26  2  0
 25 30  1  0
 26 27  1  0
 27 28  1  0
 28 29  1  0
 29 30  1  0
  4  5  1  0
  5  6  2  0
  6  7  1  0
M  END
>  <minimizedAffinity>  (1249) 
-9.08567

$$$$
data/reference_output_2/data/smiles/200614.pdb
     RDKit          3D

 23 24  0  0  0  0  0  0  0  0999 V2000
   72.7511   50.8133   55.2790 C   0  0  0  0  0  0  0  0  0  0  0  0
   72.7858   49.7090   55.8824 O   0  0  0  0  0  0  0  0  0  0  0  0
   71.9533   50.8378   54.0883 N   0  0  0  0  0  0  0  0  0  0  0  0
   71.2708   49.6963   53.6494 N   0  0  0  0  0  0  0  0  0  0  0  0
   70.0548   49.4359   53.9514 C   0  0  0  0  0  0  0  0  0  0  0  0
   69.3330   48.2630   53.5086 C   0  0  0  0  0  0  0  0  0  0  0  0
   68.6803   47.4584   54.4069 C   0  0  0  0  0  0  0  0  0  0  0  0
   68.6956   47.7656   55.8616 C   0  0  0  0  0  0  0  0  0  0  0  0
   67.9850   46.3308   53.9921 C   0  0  0  0  0  0  0  0  0  0  0  0
   67.9281   45.9854   52.6628 C   0  0  0  0  0  0  0  0  0  0  0  0
   67.2213   44.8497   52.2859 O   0  0  0  0  0  0  0  0  0  0  0  0
   68.5800   46.7893   51.7570 C   0  0  0  0  0  0  0  0  0  0  0  0
   69.2824   47.9281   52.1772 C   0  0  0  0  0  0  0  0  0  0  0  0
   69.9126   48.6841   51.1988 O   0  0  0  0  0  0  0  0  0  0  0  0
   73.4822   52.0124   55.7615 C   0  0  0  0  0  0  0  0  0  0  0  0
   72.6280   52.6897   56.7134 N   0  0  0  0  0  0  0  0  0  0  0  0
   67.1631   51.1142   57.3900 C   0  0  0  0  0  0  0  0  0  0  0  0
   68.5938   51.5272   57.2157 C   0  0  0  0  0  0  0  0  0  0  0  0
   68.9568   52.4199   56.2356 C   0  0  0  0  0  0  0  0  0  0  0  0
   70.2795   52.7825   56.0980 C   0  0  0  0  0  0  0  0  0  0  0  0
   71.2885   52.2838   56.9135 C   0  0  0  0  0  0  0  0  0  0  0  0
   70.9069   51.3932   57.8863 C   0  0  0  0  0  0  0  0  0  0  0  0
   69.5660   51.0188   58.0351 C   0  0  0  0  0  0  0  0  0  0  0  0
 17 18  1  0
 18 19  2  0
 18 23  1  0
 19 20  1  0
 20 21  2  0
 21 16  1  0
 21 22  1  0
 16 15  1  0
 15  1  1  0
  1  2  2  0
  1  3  1  0
  3  4  1  0
  4  5  2  0
  5  6  1  0
  6  7  2  0
  6 13  1  0
  7  8  1  0
  7  9  1  0
  9 10  2  0
 10 11  1  0
 10 12  1  0
 12 13  2  0
 13 14  1  0
 22 23  2  0
M  END
>  <minimizedAffinity>  (1250) 
-8.83886

$$$$
data/reference_output_2/data/smiles/200652.pdb
     RDKit          3D

 26 29  0  0  0  0  0  0  0  0999 V2000
   70.1008   47.3974   57.0416 C   0  0  0  0  0  0  0  0  0  0  0  0
   69.3093   46.4129   56.2448 C   0  0  0  0  0  0  0  0  0  0  0  0
   69.0602   45.1785   56.7349 N   0  0  0  0  0  0  0  0  0  0  0  0
   68.3527   44.2326   56.0748 C   0  0  0  0  0  0  0  0  0  0  0  0
   67.8745   44.5608   54.8535 N   0  0  0  0  0  0  0  0  0  0  0  0
   68.1058   45.7803   54.3409 C   0  0  0  0  0  0  0  0  0  0  0  0
   68.8217   46.7405   55.0076 C   0  0  0  0  0  0  0  0  0  0  0  0
   69.0369   48.0292   54.4066 C   0  0  0  0  0  0  0  0  0  0  0  0
   68.8037   49.2270   55.0708 C   0  0  0  0  0  0  0  0  0  0  0  0
   69.0017   50.4676   54.5163 C   0  0  0  0  0  0  0  0  0  0  0  0
   69.4661   50.5211   53.2033 C   0  0  0  0  0  0  0  0  0  0  0  0
   69.7154   49.3664   52.4945 C   0  0  0  0  0  0  0  0  0  0  0  0
   70.1583   49.2011   51.2407 N   0  0  0  0  0  0  0  0  0  0  0  0
   70.2326   47.8810   51.0273 N   0  0  0  0  0  0  0  0  0  0  0  0
   69.8396   47.2135   52.1349 C   0  0  0  0  0  0  0  0  0  0  0  0
   69.5019   48.1454   53.0914 C   0  0  0  0  0  0  0  0  0  0  0  0
   68.7413   51.7317   55.2569 C   0  0  0  0  0  0  0  0  0  0  0  0
   68.7791   52.8273   54.4184 F   0  0  0  0  0  0  0  0  0  0  0  0
   67.5058   51.6368   55.8992 F   0  0  0  0  0  0  0  0  0  0  0  0
   69.6844   51.8575   56.2577 F   0  0  0  0  0  0  0  0  0  0  0  0
   68.1217   42.9504   56.6379 N   0  0  0  0  0  0  0  0  0  0  0  0
   67.2770   41.9171   56.1089 C   0  0  0  0  0  0  0  0  0  0  0  0
   67.9395   40.6358   56.5704 C   0  0  0  0  0  0  0  0  0  0  0  0
   69.1130   41.0365   57.4266 C   0  0  2  0  0  0  0  0  0  0  0  0
   69.2220   40.1803   58.4920 O   0  0  0  0  0  0  0  0  0  0  0  0
   68.7006   42.4506   57.8526 C   0  0  0  0  0  0  0  0  0  0  0  0
  1  2  1  0
  2  3  2  0
  2  7  1  0
  3  4  1  0
  4 21  1  0
  4  5  2  0
 21 22  1  0
 21 26  1  0
 22 23  1  0
 23 24  1  0
 24 25  1  1
 24 26  1  0
  5  6  1  0
  6  7  2  0
  7  8  1  0
  8  9  2  0
  8 16  1  0
  9 10  1  0
 10 17  1  0
 10 11  2  0
 17 18  1  0
 17 19  1  0
 17 20  1  0
 11 12  1  0
 12 13  1  0
 12 16  2  0
 13 14  1  0
 14 15  2  0
 15 16  1  0
M  END
>  <minimizedAffinity>  (1251) 
-9.08092

$$$$
data/reference_output_2/data/smiles/200974.pdb
     RDKit          3D

 23 24  0  0  0  0  0  0  0  0999 V2000
   67.2483   42.6068   56.2852 N   0  0  0  0  0  0  0  0  0  0  0  0
   67.9727   43.5335   55.7626 C   0  0  0  0  0  0  0  0  0  0  0  0
   67.8374   39.9698   55.8710 O   0  0  0  0  0  0  0  0  0  0  0  0
   68.0357   40.3762   57.0422 C   0  0  0  0  0  0  0  0  0  0  0  0
   67.7356   41.7437   57.2795 N   0  0  0  0  0  0  0  0  0  0  0  0
   68.5391   39.4497   58.0313 C   0  0  0  0  0  0  0  0  0  0  0  0
   69.8720   39.1378   58.1680 C   0  0  0  0  0  0  0  0  0  0  0  0
   70.2465   38.2431   59.1428 C   0  0  0  0  0  0  0  0  0  0  0  0
   69.3536   37.6356   59.9986 C   0  0  0  0  0  0  0  0  0  0  0  0
   69.7847   36.7497   60.9539 F   0  0  0  0  0  0  0  0  0  0  0  0
   68.0220   37.9467   59.8632 C   0  0  0  0  0  0  0  0  0  0  0  0
   67.6527   38.8368   58.8928 C   0  0  0  0  0  0  0  0  0  0  0  0
   67.3836   44.3541   54.7636 N   0  0  0  0  0  0  0  0  0  0  0  0
   67.9988   45.5260   54.2770 C   0  0  0  0  0  0  0  0  0  0  0  0
   68.5540   46.4535   55.1262 C   0  0  0  0  0  0  0  0  0  0  0  0
   69.1547   47.5990   54.6539 C   0  0  0  0  0  0  0  0  0  0  0  0
   69.2131   47.8455   53.2808 C   0  0  0  0  0  0  0  0  0  0  0  0
   68.6622   46.9264   52.4129 C   0  0  0  0  0  0  0  0  0  0  0  0
   68.7063   47.1481   51.0321 O   0  0  0  0  0  0  0  0  0  0  0  0
   68.0677   45.7902   52.9265 C   0  0  0  0  0  0  0  0  0  0  0  0
   69.8444   49.0496   52.7565 C   0  0  0  0  0  0  0  0  0  0  0  0
   70.8733   48.9929   52.0387 O   0  0  0  0  0  0  0  0  0  0  0  0
   69.3145   50.2930   53.0460 O   0  0  0  0  0  0  0  0  0  0  0  0
  3  4  2  0
  4  5  1  0
  4  6  1  0
  5  1  1  0
  1  2  2  0
  2 13  1  0
 13 14  1  0
 14 15  2  0
 14 20  1  0
 15 16  1  0
 16 17  2  0
 17 21  1  0
 17 18  1  0
 21 22  2  0
 21 23  1  0
 18 19  1  0
 18 20  2  0
  6  7  2  0
  6 12  1  0
  7  8  1  0
  8  9  2  0
  9 10  1  0
  9 11  1  0
 11 12  2  0
M  END
>  <minimizedAffinity>  (1252) 
-8.50497

$$$$
data/reference_output_2/data/smiles/201012.pdb
     RDKit          3D

 28 31  0  0  0  0  0  0  0  0999 V2000
   70.4722   44.3851   57.7837 C   0  0  0  0  0  0  0  0  0  0  0  0
   71.6220   44.4257   58.5740 C   0  0  0  0  0  0  0  0  0  0  0  0
   72.1734   45.6024   59.0077 C   0  0  0  0  0  0  0  0  0  0  0  0
   71.5952   46.8003   58.6685 C   0  0  0  0  0  0  0  0  0  0  0  0
   71.9014   48.1005   58.9410 N   0  0  0  0  0  0  0  0  0  0  0  0
   71.0103   48.8642   58.3673 N   0  0  0  0  0  0  0  0  0  0  0  0
   70.0955   48.1582   57.7049 C   0  0  0  0  0  0  0  0  0  0  0  0
   70.4736   46.8263   57.8997 C   0  0  0  0  0  0  0  0  0  0  0  0
   69.9335   45.6020   57.4723 C   0  0  0  0  0  0  0  0  0  0  0  0
   68.9925   42.3887   58.0266 C   0  0  0  0  0  0  0  0  0  0  0  0
   68.4702   42.7592   59.0867 O   0  0  0  0  0  0  0  0  0  0  0  0
   69.9615   43.1524   57.3755 N   0  0  0  0  0  0  0  0  0  0  0  0
   68.5390   41.0809   57.4714 C   0  0  0  0  0  0  0  0  0  0  0  0
   67.6207   40.3258   55.3210 N   0  0  0  0  0  0  0  0  0  0  0  0
   67.4810   41.2378   56.4265 C   0  0  0  0  0  0  0  0  0  0  0  0
   68.6987   48.6184   56.7772 S   0  0  0  0  0  0  0  0  0  0  0  0
   68.2561   49.9836   57.2778 O   0  0  0  0  0  0  0  0  0  0  0  0
   67.5235   47.7186   57.0664 O   0  0  0  0  0  0  0  0  0  0  0  0
   69.0633   48.7354   55.1089 C   0  0  0  0  0  0  0  0  0  0  0  0
   69.7341   49.8509   54.6139 C   0  0  0  0  0  0  0  0  0  0  0  0
   70.0793   49.9496   53.2834 C   0  0  0  0  0  0  0  0  0  0  0  0
   69.7659   48.9386   52.4092 C   0  0  0  0  0  0  0  0  0  0  0  0
   69.1010   47.8213   52.8696 C   0  0  0  0  0  0  0  0  0  0  0  0
   68.7805   46.8170   51.9729 C   0  0  0  0  0  0  0  0  0  0  0  0
   68.1047   45.7176   52.4525 C   0  0  0  0  0  0  0  0  0  0  0  0
   67.7453   45.5920   53.7749 C   0  0  0  0  0  0  0  0  0  0  0  0
   68.0829   46.6161   54.6386 C   0  0  0  0  0  0  0  0  0  0  0  0
   68.7594   47.7392   54.2177 C   0  0  0  0  0  0  0  0  0  0  0  0
 14 15  1  0
 15 13  1  0
 13 10  1  0
 10 11  2  0
 10 12  1  0
 12  1  1  0
  1  2  2  0
  1  9  1  0
  2  3  1  0
  3  4  2  0
  4  5  1  0
  4  8  1  0
  5  6  1  0
  6  7  2  0
  7 16  1  0
  7  8  1  0
 16 17  2  0
 16 18  2  0
 16 19  1  0
 19 20  2  0
 19 28  1  0
 20 21  1  0
 21 22  2  0
 22 23  1  0
 23 24  1  0
 23 28  2  0
 24 25  2  0
 25 26  1  0
 26 27  2  0
 27 28  1  0
  8  9  2  0
M  CHG  1  14   1
M  END
>  <minimizedAffinity>  (1253) 
-9.26831

$$$$
data/reference_output_2/data/smiles/201215.pdb
     RDKit          3D

 31 34  0  0  0  0  0  0  0  0999 V2000
   70.9138   41.7768   58.1127 N   0  0  0  0  0  0  0  0  0  0  0  0
   69.5351   41.6480   57.6999 C   0  0  0  0  0  0  0  0  0  0  0  0
   69.1128   43.0493   57.3269 C   0  0  0  0  0  0  0  0  0  0  0  0
   70.0382   43.9168   58.1595 C   0  0  1  0  0  0  0  0  0  0  0  0
   69.6595   43.8474   59.5060 O   0  0  0  0  0  0  0  0  0  0  0  0
   71.2934   43.1419   58.0363 C   0  0  0  0  0  0  0  0  0  0  0  0
   72.4864   43.5163   57.8929 O   0  0  0  0  0  0  0  0  0  0  0  0
   75.4314   37.7183   60.5062 C   0  0  0  0  0  0  0  0  0  0  0  0
   74.2234   37.4408   59.7814 N   0  0  0  0  0  0  0  0  0  0  0  0
   73.8249   36.1001   59.4907 C   0  0  0  0  0  0  0  0  0  0  0  0
   74.5930   35.1345   59.4363 O   0  0  0  0  0  0  0  0  0  0  0  0
   72.3756   35.9244   59.2476 C   0  0  0  0  0  0  0  0  0  0  0  0
   71.8482   36.9117   58.2519 C   0  0  0  0  0  0  0  0  0  0  0  0
   72.2349   38.2840   58.6284 C   0  0  0  0  0  0  0  0  0  0  0  0
   71.4317   39.3765   58.2371 C   0  0  0  0  0  0  0  0  0  0  0  0
   71.7547   40.6781   58.5260 C   0  0  0  0  0  0  0  0  0  0  0  0
   72.9201   40.8944   59.2295 C   0  0  0  0  0  0  0  0  0  0  0  0
   73.7149   39.8347   59.6190 C   0  0  0  0  0  0  0  0  0  0  0  0
   73.3888   38.5244   59.3288 C   0  0  0  0  0  0  0  0  0  0  0  0
   70.1326   45.2901   57.6652 C   0  0  0  0  0  0  0  0  0  0  0  0
   71.1471   45.9694   57.9524 O   0  0  0  0  0  0  0  0  0  0  0  0
   69.1227   45.8579   56.8860 N   0  0  0  0  0  0  0  0  0  0  0  0
   69.1077   47.2035   56.3495 C   0  0  0  0  0  0  0  0  0  0  0  0
   68.9183   47.1115   54.8795 C   0  0  0  0  0  0  0  0  0  0  0  0
   68.1550   46.0584   54.3785 C   0  0  0  0  0  0  0  0  0  0  0  0
   67.9251   45.8856   53.0229 C   0  0  0  0  0  0  0  0  0  0  0  0
   67.1796   44.8512   52.5743 F   0  0  0  0  0  0  0  0  0  0  0  0
   68.4612   46.7717   52.1376 C   0  0  0  0  0  0  0  0  0  0  0  0
   69.2163   47.8183   52.5913 C   0  0  0  0  0  0  0  0  0  0  0  0
   69.9005   48.9547   51.4344 Cl  0  0  0  0  0  0  0  0  0  0  0  0
   69.4347   47.9735   53.9567 C   0  0  0  0  0  0  0  0  0  0  0  0
  8  9  1  0
  9 10  1  0
  9 19  1  0
 10 11  2  0
 10 12  1  0
 12 13  1  0
 13 14  1  0
 14 15  1  0
 14 19  2  0
 15 16  2  0
 16  1  1  0
 16 17  1  0
  1  2  1  0
  1  6  1  0
  2  3  1  0
  3  4  1  0
  4  5  1  1
  4 20  1  0
  4  6  1  0
 20 21  2  0
 20 22  1  0
 22 23  1  0
 23 24  1  0
 24 25  2  0
 24 31  1  0
 25 26  1  0
 26 27  1  0
 26 28  2  0
 28 29  1  0
 29 30  1  0
 29 31  2  0
  6  7  2  0
 17 18  2  0
 18 19  1  0
M  END
>  <minimizedAffinity>  (1254) 
-9.09654

$$$$
data/reference_output_2/data/smiles/201250.pdb
     RDKit          3D

 24 25  0  0  0  0  0  0  0  0999 V2000
   67.8808   42.8025   56.1927 C   0  0  0  0  0  0  0  0  0  0  0  0
   66.6664   42.6162   55.4811 N   0  0  0  0  0  0  0  0  0  0  0  0
   68.4127   43.9639   56.0922 N   0  0  0  0  0  0  0  0  0  0  0  0
   69.6214   39.6180   58.5251 C   0  0  0  0  0  0  0  0  0  0  0  0
   70.2385   40.8575   58.4124 C   0  0  0  0  0  0  0  0  0  0  0  0
   69.6772   41.8732   57.6650 C   0  0  0  0  0  0  0  0  0  0  0  0
   68.4831   41.7188   56.9929 C   0  0  0  0  0  0  0  0  0  0  0  0
   67.8700   40.4903   57.1043 C   0  0  0  0  0  0  0  0  0  0  0  0
   68.4280   39.4629   57.8539 C   0  0  0  0  0  0  0  0  0  0  0  0
   70.2106   38.5842   59.2964 N   0  0  0  0  0  0  0  0  0  0  0  0
   73.0072   37.8897   59.6474 C   0  0  0  0  0  0  0  0  0  0  0  0
   71.4938   37.5841   58.7925 S   0  0  0  0  0  0  0  0  0  0  0  0
   71.1105   36.1386   59.0138 O   0  0  0  0  0  0  0  0  0  0  0  0
   71.7542   37.7295   57.3251 O   0  0  0  0  0  0  0  0  0  0  0  0
   67.8101   44.9396   55.3325 O   0  0  0  0  0  0  0  0  0  0  0  0
   68.2380   46.2425   55.3797 C   0  0  0  0  0  0  0  0  0  0  0  0
   68.1782   46.8295   56.4885 O   0  0  0  0  0  0  0  0  0  0  0  0
   68.7540   46.9873   54.2310 C   0  0  0  0  0  0  0  0  0  0  0  0
   69.5212   48.1198   54.4046 C   0  0  0  0  0  0  0  0  0  0  0  0
   70.0239   48.8438   53.3339 C   0  0  0  0  0  0  0  0  0  0  0  0
   69.7711   48.4541   52.0359 C   0  0  0  0  0  0  0  0  0  0  0  0
   68.9935   47.3047   51.8494 C   0  0  0  0  0  0  0  0  0  0  0  0
   68.5090   46.6080   52.9336 C   0  0  0  0  0  0  0  0  0  0  0  0
   67.5453   45.1829   52.6546 Cl  0  0  0  0  0  0  0  0  0  0  0  0
 11 12  1  0
 12 13  2  0
 12 14  2  0
 12 10  1  0
 10  4  1  0
  4  5  2  0
  4  9  1  0
  5  6  1  0
  6  7  2  0
  7  1  1  0
  7  8  1  0
  1  2  1  0
  1  3  2  0
  3 15  1  0
 15 16  1  0
 16 17  2  0
 16 18  1  0
 18 19  2  0
 18 23  1  0
 19 20  1  0
 20 21  2  0
 21 22  1  0
 22 23  2  0
 23 24  1  0
  8  9  2  0
M  CHG  1   3   1
M  END
>  <minimizedAffinity>  (1255) 
-8.54589

$$$$
