data/reference_output_2/data/smiles/151199.pdb
     RDKit          3D

 21 23  0  0  0  0  0  0  0  0999 V2000
   70.3615   49.1131   53.9750 C   0  0  0  0  0  0  0  0  0  0  0  0
   71.5236   49.4453   53.3376 N   0  0  0  0  0  0  0  0  0  0  0  0
   72.0901   50.4733   53.9435 N   0  0  0  0  0  0  0  0  0  0  0  0
   71.3393   50.8505   54.9807 C   0  0  0  0  0  0  0  0  0  0  0  0
   70.2668   50.0149   55.0103 C   0  0  0  0  0  0  0  0  0  0  0  0
   66.9362   44.9112   52.4910 O   0  0  0  0  0  0  0  0  0  0  0  0
   67.7746   45.9429   52.8348 C   0  0  0  0  0  0  0  0  0  0  0  0
   68.1195   46.1266   54.1473 C   0  0  0  0  0  0  0  0  0  0  0  0
   68.9597   47.1633   54.4897 C   0  0  0  0  0  0  0  0  0  0  0  0
   69.4850   48.0404   53.5878 C   0  0  0  0  0  0  0  0  0  0  0  0
   69.1434   47.8644   52.2530 C   0  0  0  0  0  0  0  0  0  0  0  0
   69.6447   48.7239   51.2839 O   0  0  0  0  0  0  0  0  0  0  0  0
   68.2981   46.8281   51.8868 C   0  0  0  0  0  0  0  0  0  0  0  0
   67.9253   46.6090   50.5636 O   0  0  0  0  0  0  0  0  0  0  0  0
   69.1572   50.0465   55.9848 C   0  0  0  0  0  0  0  0  0  0  0  0
   68.3388   51.1397   56.1038 C   0  0  0  0  0  0  0  0  0  0  0  0
   67.3209   51.1436   57.0108 C   0  0  0  0  0  0  0  0  0  0  0  0
   67.0898   50.0549   57.8252 C   0  0  0  0  0  0  0  0  0  0  0  0
   66.0883   50.0259   58.7371 F   0  0  0  0  0  0  0  0  0  0  0  0
   67.9261   48.9584   57.6917 C   0  0  0  0  0  0  0  0  0  0  0  0
   68.9457   48.9536   56.7833 C   0  0  0  0  0  0  0  0  0  0  0  0
  6  7  1  0
  7  8  2  0
  7 13  1  0
  8  9  1  0
  9 10  2  0
 10  1  1  0
 10 11  1  0
  1  2  2  0
  1  5  1  0
  2  3  1  0
  3  4  1  0
  4  5  2  0
  5 15  1  0
 15 16  2  0
 15 21  1  0
 16 17  1  0
 17 18  2  0
 18 19  1  0
 18 20  1  0
 20 21  2  0
 11 12  1  0
 11 13  2  0
 13 14  1  0
M  END
>  <minimizedAffinity>  (1) 
-9.33572

$$$$
data/reference_output_2/data/smiles/173280.pdb
     RDKit          3D

 22 24  0  0  0  0  0  0  0  0999 V2000
   68.9465   45.3481   56.3556 C   0  0  0  0  0  0  0  0  0  0  0  0
   69.8982   46.0472   57.0077 N   0  0  0  0  0  0  0  0  0  0  0  0
   70.7250   45.4180   57.8477 C   0  0  0  0  0  0  0  0  0  0  0  0
   70.6445   44.0378   58.0843 C   0  0  0  0  0  0  0  0  0  0  0  0
   69.6735   43.3314   57.4171 C   0  0  0  0  0  0  0  0  0  0  0  0
   68.8742   44.0351   56.5840 N   0  0  0  0  0  0  0  0  0  0  0  0
   69.4429   41.9122   57.5815 C   0  0  0  0  0  0  0  0  0  0  0  0
   68.2935   41.3036   57.1256 C   0  0  0  0  0  0  0  0  0  0  0  0
   68.0754   39.9375   57.3398 C   0  0  0  0  0  0  0  0  0  0  0  0
   69.0085   39.1821   58.0112 C   0  0  0  0  0  0  0  0  0  0  0  0
   70.1150   39.7875   58.4440 N   0  0  0  0  0  0  0  0  0  0  0  0
   70.3506   41.1271   58.2439 C   0  0  0  0  0  0  0  0  0  0  0  0
   68.0142   45.9957   55.5195 N   0  0  0  0  0  0  0  0  0  0  0  0
   69.2928   47.6134   52.4299 C   0  0  0  0  0  0  0  0  0  0  0  0
   68.6140   46.9223   51.4482 C   0  0  0  0  0  0  0  0  0  0  0  0
   67.7464   45.9053   51.8246 C   0  0  0  0  0  0  0  0  0  0  0  0
   67.5730   45.5990   53.1620 C   0  0  0  0  0  0  0  0  0  0  0  0
   68.2418   46.2778   54.1610 C   0  0  0  0  0  0  0  0  0  0  0  0
   69.0991   47.2831   53.7716 C   0  0  0  0  0  0  0  0  0  0  0  0
   69.9711   49.3593   51.0260 O   0  0  0  0  0  0  0  0  0  0  0  0
   70.1919   48.7037   52.0738 C   0  0  0  0  0  0  0  0  0  0  0  0
   71.2848   49.0613   52.8379 O   0  0  0  0  0  0  0  0  0  0  0  0
 20 21  2  0
 21 22  1  0
 21 14  1  0
 14 15  2  0
 14 19  1  0
 15 16  1  0
 16 17  2  0
 17 18  1  0
 18 13  1  0
 18 19  2  0
 13  1  1  0
  1  2  2  0
  1  6  1  0
  2  3  1  0
  3  4  2  0
  4  5  1  0
  5  7  1  0
  5  6  2  0
  7  8  2  0
  7 12  1  0
  8  9  1  0
  9 10  2  0
 10 11  1  0
 11 12  2  0
M  END
>  <minimizedAffinity>  (2) 
-9.32116

$$$$
data/reference_output_2/data/smiles/186476.pdb
     RDKit          3D

 21 23  0  0  0  0  0  0  0  0999 V2000
   71.6061   49.3479   53.2646 O   0  0  0  0  0  0  0  0  0  0  0  0
   70.4634   49.2749   53.8494 C   0  0  0  0  0  0  0  0  0  0  0  0
   70.1648   50.2855   54.7808 N   0  0  0  0  0  0  0  0  0  0  0  0
   70.8479   51.5947   54.7559 C   0  0  0  0  0  0  0  0  0  0  0  0
   69.9715   52.7417   55.0717 C   0  0  0  0  0  0  0  0  0  0  0  0
   68.5261   52.4418   55.3462 C   0  0  0  0  0  0  0  0  0  0  0  0
   68.3268   51.1866   56.0884 C   0  0  0  0  0  0  0  0  0  0  0  0
   67.3642   51.0721   57.0536 C   0  0  0  0  0  0  0  0  0  0  0  0
   67.2480   49.8555   57.7229 C   0  0  0  0  0  0  0  0  0  0  0  0
   66.3144   49.6745   58.6894 F   0  0  0  0  0  0  0  0  0  0  0  0
   68.0986   48.7882   57.4062 C   0  0  0  0  0  0  0  0  0  0  0  0
   69.0616   48.9062   56.4400 C   0  0  0  0  0  0  0  0  0  0  0  0
   69.1599   50.1451   55.7773 C   0  0  0  0  0  0  0  0  0  0  0  0
   69.6215   48.1913   53.4967 C   0  0  0  0  0  0  0  0  0  0  0  0
   68.9880   47.3869   54.4057 C   0  0  0  0  0  0  0  0  0  0  0  0
   68.1085   46.3735   54.0024 C   0  0  0  0  0  0  0  0  0  0  0  0
   67.8466   46.1468   52.6858 C   0  0  0  0  0  0  0  0  0  0  0  0
   66.9679   45.1290   52.3551 O   0  0  0  0  0  0  0  0  0  0  0  0
   68.4694   46.9435   51.7498 C   0  0  0  0  0  0  0  0  0  0  0  0
   69.3319   47.9359   52.1556 C   0  0  0  0  0  0  0  0  0  0  0  0
   69.9397   48.7157   51.1978 O   0  0  0  0  0  0  0  0  0  0  0  0
  1  2  2  0
  2 14  1  0
  2  3  1  0
 14 15  2  0
 14 20  1  0
 15 16  1  0
 16 17  2  0
 17 18  1  0
 17 19  1  0
 19 20  2  0
 20 21  1  0
  3  4  1  0
  3 13  1  0
  4  5  1  0
  5  6  1  0
  6  7  1  0
  7  8  2  0
  7 13  1  0
  8  9  1  0
  9 10  1  0
  9 11  2  0
 11 12  1  0
 12 13  2  0
M  END
>  <minimizedAffinity>  (3) 
-9.25267

$$$$
data/reference_output_2/data/smiles/134855.pdb
     RDKit          3D

 21 23  0  0  0  0  0  0  0  0999 V2000
   69.4782   48.2877   54.0100 C   0  0  0  0  0  0  0  0  0  0  0  0
   69.2878   48.0887   55.4068 C   0  0  0  0  0  0  0  0  0  0  0  0
   68.4285   47.1276   55.8234 C   0  0  0  0  0  0  0  0  0  0  0  0
   68.2500   46.9420   57.0882 O   0  0  0  0  0  0  0  0  0  0  0  0
   67.7772   46.3875   54.9670 O   0  0  0  0  0  0  0  0  0  0  0  0
   67.8848   46.4918   53.6767 C   0  0  0  0  0  0  0  0  0  0  0  0
   67.1944   45.6989   52.8383 N   0  0  0  0  0  0  0  0  0  0  0  0
   67.3329   45.8247   51.5118 C   0  0  0  0  0  0  0  0  0  0  0  0
   66.6660   45.0596   50.7257 O   0  0  0  0  0  0  0  0  0  0  0  0
   68.1621   46.7421   51.0192 N   0  0  0  0  0  0  0  0  0  0  0  0
   68.8864   47.5735   51.8090 C   0  0  0  0  0  0  0  0  0  0  0  0
   69.6516   48.4100   51.3191 O   0  0  0  0  0  0  0  0  0  0  0  0
   68.7631   47.4718   53.1722 C   0  0  0  0  0  0  0  0  0  0  0  0
   70.3419   49.3685   53.5928 C   0  0  0  0  0  0  0  0  0  0  0  0
   69.8477   50.7533   53.6755 C   0  0  0  0  0  0  0  0  0  0  0  0
   68.8168   51.2782   54.5395 C   0  0  0  0  0  0  0  0  0  0  0  0
   68.9901   51.6373   55.9574 C   0  0  0  0  0  0  0  0  0  0  0  0
   69.3390   53.1647   56.0865 C   0  0  0  0  0  0  0  0  0  0  0  0
   70.1043   52.0556   56.7618 C   0  0  0  0  0  0  0  0  0  0  0  0
   67.8446   50.3449   57.7818 C   0  0  0  0  0  0  0  0  0  0  0  0
   67.6516   51.4419   56.7889 C   0  0  0  0  0  0  0  0  0  0  0  0
 20 21  1  0
 21 17  1  0
 17 16  1  0
 17 18  1  0
 17 19  1  0
 16 15  1  0
 15 14  1  0
 14  1  1  0
  1  2  2  0
  1 13  1  0
  2  3  1  0
  3  4  2  0
  3  5  1  0
  5  6  1  0
  6  7  1  0
  6 13  2  0
  7  8  1  0
  8  9  2  0
  8 10  1  0
 10 11  1  0
 11 12  2  0
 11 13  1  0
 18 19  1  0
M  END
>  <minimizedAffinity>  (4) 
-9.23488

$$$$
data/reference_output_2/data/smiles/183057.pdb
     RDKit          3D

 20 22  0  0  0  0  0  0  0  0999 V2000
   66.6037   44.9692   50.7868 O   0  0  0  0  0  0  0  0  0  0  0  0
   67.3037   45.7395   51.5355 C   0  0  0  0  0  0  0  0  0  0  0  0
   68.2070   46.5630   51.0120 N   0  0  0  0  0  0  0  0  0  0  0  0
   68.9535   47.3810   51.7773 C   0  0  0  0  0  0  0  0  0  0  0  0
   69.7961   48.1335   51.2691 O   0  0  0  0  0  0  0  0  0  0  0  0
   68.7706   47.3638   53.1392 C   0  0  0  0  0  0  0  0  0  0  0  0
   69.5078   48.1724   53.9528 C   0  0  0  0  0  0  0  0  0  0  0  0
   69.2690   48.0746   55.3525 C   0  0  0  0  0  0  0  0  0  0  0  0
   68.3264   47.1957   55.7698 C   0  0  0  0  0  0  0  0  0  0  0  0
   68.1006   47.0950   56.9925 O   0  0  0  0  0  0  0  0  0  0  0  0
   67.6478   46.4516   54.9486 O   0  0  0  0  0  0  0  0  0  0  0  0
   67.8044   46.4722   53.6542 C   0  0  0  0  0  0  0  0  0  0  0  0
   67.0754   45.6654   52.8564 N   0  0  0  0  0  0  0  0  0  0  0  0
   70.4194   49.2462   53.5237 C   0  0  0  0  0  0  0  0  0  0  0  0
   69.5600   50.4676   53.2524 C   0  0  0  0  0  0  0  0  0  0  0  0
   69.7224   51.4819   54.3319 C   0  0  0  0  0  0  0  0  0  0  0  0
   68.3736   51.9270   54.8955 C   0  0  0  0  0  0  0  0  0  0  0  0
   68.5860   52.0789   56.4018 C   0  0  0  0  0  0  0  0  0  0  0  0
   69.0923   50.9384   57.2009 C   0  0  0  0  0  0  0  0  0  0  0  0
   67.6692   51.2969   57.3210 C   0  0  0  0  0  0  0  0  0  0  0  0
  1  2  2  0
  2  3  1  0
  2 13  1  0
  3  4  1  0
  4  5  2  0
  4  6  1  0
  6  7  1  0
  6 12  2  0
  7 14  1  0
  7  8  2  0
 14 15  1  0
 15 16  1  0
 16 17  1  0
 17 18  1  0
 18 19  1  0
 18 20  1  0
 19 20  1  0
  8  9  1  0
  9 10  2  0
  9 11  1  0
 11 12  1  0
 12 13  1  0
M  END
>  <minimizedAffinity>  (5) 
-9.22372

$$$$
data/reference_output_2/data/smiles/177626.pdb
     RDKit          3D

 21 23  0  0  0  0  0  0  0  0999 V2000
   69.0985   45.7797   56.4563 N   0  0  0  0  0  0  0  0  0  0  0  0
   68.7349   46.7495   55.8186 C   0  0  0  0  0  0  0  0  0  0  0  0
   68.2924   47.9295   56.5644 C   0  0  0  0  0  0  0  0  0  0  0  0
   68.9474   49.1061   56.4810 C   0  0  0  0  0  0  0  0  0  0  0  0
   68.4782   50.2636   57.1386 C   0  0  0  0  0  0  0  0  0  0  0  0
   67.3270   50.1410   57.8684 C   0  0  0  0  0  0  0  0  0  0  0  0
   66.6734   48.9352   57.9458 C   0  0  0  0  0  0  0  0  0  0  0  0
   67.1509   47.8544   57.3044 N   0  0  0  0  0  0  0  0  0  0  0  0
   68.6929   46.7373   54.3407 C   0  0  0  0  0  0  0  0  0  0  0  0
   67.8479   45.8344   53.6820 C   0  0  0  0  0  0  0  0  0  0  0  0
   67.7198   45.8346   52.2996 C   0  0  0  0  0  0  0  0  0  0  0  0
   68.4450   46.7514   51.5562 C   0  0  0  0  0  0  0  0  0  0  0  0
   69.2594   47.6178   52.2271 C   0  0  0  0  0  0  0  0  0  0  0  0
   69.3468   47.5735   53.5481 N   0  0  0  0  0  0  0  0  0  0  0  0
   69.4760   44.7718   57.1387 N   0  0  0  0  0  0  0  0  0  0  0  0
   67.8085   40.9315   56.6106 C   0  0  0  0  0  0  0  0  0  0  0  0
   68.9333   41.0936   57.3730 C   0  0  0  0  0  0  0  0  0  0  0  0
   69.4630   42.3799   57.5292 C   0  0  0  0  0  0  0  0  0  0  0  0
   68.8598   43.4679   56.9219 C   0  0  0  0  0  0  0  0  0  0  0  0
   67.7754   43.2781   56.1918 N   0  0  0  0  0  0  0  0  0  0  0  0
   67.2231   42.0429   56.0120 C   0  0  0  0  0  0  0  0  0  0  0  0
 16 17  2  0
 16 21  1  0
 17 18  1  0
 18 19  2  0
 19 15  1  0
 19 20  1  0
 15  1  1  0
  1  2  2  3
  2  3  1  0
  2  9  1  0
  3  4  2  0
  3  8  1  0
  4  5  1  0
  5  6  2  0
  6  7  1  0
  7  8  2  0
  9 10  2  0
  9 14  1  0
 10 11  1  0
 11 12  2  0
 12 13  1  0
 13 14  2  0
 20 21  2  0
M  END
>  <minimizedAffinity>  (6) 
-9.20437

$$$$
data/200k_reference_output/data/smiles/8651.pdb
     RDKit          3D

 22 24  0  0  0  0  0  0  0  0999 V2000
   69.2530   47.6595   56.7905 C   0  0  0  0  0  0  0  0  0  0  0  0
   68.8221   46.9140   55.5856 C   0  0  0  0  0  0  0  0  0  0  0  0
   68.1067   45.7584   55.7248 N   0  0  0  0  0  0  0  0  0  0  0  0
   67.6571   45.0928   54.6855 N   0  0  0  0  0  0  0  0  0  0  0  0
   67.8596   45.4871   53.4214 C   0  0  0  0  0  0  0  0  0  0  0  0
   67.4154   44.8290   52.4465 O   0  0  0  0  0  0  0  0  0  0  0  0
   68.5803   46.6511   53.2298 C   0  0  0  0  0  0  0  0  0  0  0  0
   68.8398   47.1079   51.9484 C   0  0  0  0  0  0  0  0  0  0  0  0
   69.5720   48.2603   51.7730 C   0  0  0  0  0  0  0  0  0  0  0  0
   70.0641   48.9856   52.8293 C   0  0  0  0  0  0  0  0  0  0  0  0
   69.8068   48.5330   54.1052 C   0  0  0  0  0  0  0  0  0  0  0  0
   69.0658   47.3692   54.3300 C   0  0  0  0  0  0  0  0  0  0  0  0
   68.0922   51.2130   57.2944 C   0  0  0  0  0  0  0  0  0  0  0  0
   66.8284   50.9688   57.8044 C   0  0  0  0  0  0  0  0  0  0  0  0
   66.3411   49.7003   57.9860 C   0  0  0  0  0  0  0  0  0  0  0  0
   67.1065   48.6013   57.6588 C   0  0  0  0  0  0  0  0  0  0  0  0
   68.3576   48.7872   57.1538 C   0  0  0  0  0  0  0  0  0  0  0  0
   68.8269   50.0948   56.9812 C   0  0  0  0  0  0  0  0  0  0  0  0
   68.5945   52.4941   57.1075 O   0  0  0  0  0  0  0  0  0  0  0  0
   68.8683   52.4216   54.6008 C   0  0  0  0  0  0  0  0  0  0  0  0
   69.2491   52.8967   55.9537 C   0  0  0  0  0  0  0  0  0  0  0  0
   70.2065   53.7030   56.0714 O   0  0  0  0  0  0  0  0  0  0  0  0
 20 21  1  0
 21 22  2  0
 21 19  1  0
 19 13  1  0
 13 14  2  0
 13 18  1  0
 14 15  1  0
 15 16  2  0
 16 17  1  0
 17  1  1  0
 17 18  2  0
  1  2  1  0
  2  3  2  0
  2 12  1  0
  3  4  1  0
  4  5  1  0
  5  6  2  0
  5  7  1  0
  7  8  1  0
  7 12  2  0
  8  9  2  0
  9 10  1  0
 10 11  2  0
 11 12  1  0
M  END
>  <minimizedAffinity>  (7) 
-9.13288

$$$$
data/200k_reference_output/data/smiles/42202.pdb
     RDKit          3D

 19 21  0  0  0  0  0  0  0  0999 V2000
   66.8438   45.5336   51.0114 N   0  0  0  0  0  0  0  0  0  0  0  0
   67.7642   46.2903   51.8049 C   0  0  0  0  0  0  0  0  0  0  0  0
   67.7531   46.1705   53.1647 C   0  0  0  0  0  0  0  0  0  0  0  0
   68.6184   46.8789   53.9649 C   0  0  0  0  0  0  0  0  0  0  0  0
   69.5105   47.7318   53.2476 C   0  0  0  0  0  0  0  0  0  0  0  0
   70.4689   48.5496   53.7070 N   0  0  0  0  0  0  0  0  0  0  0  0
   71.0043   49.1136   52.6397 N   0  0  0  0  0  0  0  0  0  0  0  0
   70.4399   48.6990   51.5347 N   0  0  0  0  0  0  0  0  0  0  0  0
   69.4751   47.8096   51.8891 C   0  0  0  0  0  0  0  0  0  0  0  0
   68.6220   47.1085   51.1577 N   0  0  0  0  0  0  0  0  0  0  0  0
   68.7129   46.8534   55.3082 O   0  0  0  0  0  0  0  0  0  0  0  0
   69.2997   47.6404   56.2439 C   0  0  0  0  0  0  0  0  0  0  0  0
   68.5909   48.8525   56.6787 C   0  0  0  0  0  0  0  0  0  0  0  0
   67.4647   48.7377   57.4972 C   0  0  0  0  0  0  0  0  0  0  0  0
   66.7711   49.8652   57.8780 C   0  0  0  0  0  0  0  0  0  0  0  0
   67.1462   51.1298   57.4774 C   0  0  0  0  0  0  0  0  0  0  0  0
   68.2745   51.2189   56.6603 C   0  0  0  0  0  0  0  0  0  0  0  0
   68.7842   52.7878   56.1320 Cl  0  0  0  0  0  0  0  0  0  0  0  0
   68.9808   50.0947   56.2696 C   0  0  0  0  0  0  0  0  0  0  0  0
  1  2  1  0
  2  3  2  0
  2 10  1  0
  3  4  1  0
  4 11  1  0
  4  5  2  0
 11 12  1  0
 12 13  1  0
 13 14  2  0
 13 19  1  0
 14 15  1  0
 15 16  2  0
 16 17  1  0
 17 18  1  0
 17 19  2  0
  5  6  1  0
  5  9  1  0
  6  7  2  0
  7  8  1  0
  8  9  1  0
  9 10  2  0
M  END
>  <minimizedAffinity>  (8) 
-9.12835

$$$$
data/reference_output_2/data/smiles/120713.pdb
     RDKit          3D

 22 24  0  0  0  0  0  0  0  0999 V2000
   66.6788   44.9460   50.8406 O   0  0  0  0  0  0  0  0  0  0  0  0
   67.3304   45.7195   51.5628 C   0  0  0  0  0  0  0  0  0  0  0  0
   68.1905   46.5893   51.0203 N   0  0  0  0  0  0  0  0  0  0  0  0
   68.8918   47.4300   51.8400 C   0  0  0  0  0  0  0  0  0  0  0  0
   69.6672   48.1960   51.2951 O   0  0  0  0  0  0  0  0  0  0  0  0
   68.7447   47.4130   53.1891 C   0  0  0  0  0  0  0  0  0  0  0  0
   69.4736   48.2750   53.9757 C   0  0  0  0  0  0  0  0  0  0  0  0
   69.1951   48.0997   55.3522 C   0  0  0  0  0  0  0  0  0  0  0  0
   68.3137   47.1943   55.8397 C   0  0  0  0  0  0  0  0  0  0  0  0
   68.1179   47.0962   57.0859 O   0  0  0  0  0  0  0  0  0  0  0  0
   67.6554   46.4104   55.0037 O   0  0  0  0  0  0  0  0  0  0  0  0
   67.8504   46.5005   53.7168 C   0  0  0  0  0  0  0  0  0  0  0  0
   67.1640   45.6778   52.9025 N   0  0  0  0  0  0  0  0  0  0  0  0
   70.3508   49.3528   53.5282 C   0  0  0  0  0  0  0  0  0  0  0  0
   69.7495   50.7022   53.3829 C   0  0  0  0  0  0  0  0  0  0  0  0
   70.0604   51.7582   54.3682 C   0  0  0  0  0  0  0  0  0  0  0  0
   69.4521   51.4598   55.7211 C   0  0  0  0  0  0  0  0  0  0  0  0
   68.0924   51.4954   55.9286 C   0  0  0  0  0  0  0  0  0  0  0  0
   67.5113   51.2309   57.1492 C   0  0  0  0  0  0  0  0  0  0  0  0
   68.3035   50.9166   58.2169 C   0  0  0  0  0  0  0  0  0  0  0  0
   69.6848   50.8712   58.0402 C   0  0  0  0  0  0  0  0  0  0  0  0
   70.2548   51.1434   56.7938 C   0  0  0  0  0  0  0  0  0  0  0  0
  1  2  2  0
  2  3  1  0
  2 13  1  0
  3  4  1  0
  4  5  2  0
  4  6  1  0
  6  7  1  0
  6 12  2  0
  7 14  1  0
  7  8  2  0
 14 15  1  0
 15 16  1  0
 16 17  1  0
 17 18  2  0
 17 22  1  0
 18 19  1  0
 19 20  2  0
 20 21  1  0
 21 22  2  0
  8  9  1  0
  9 10  2  0
  9 11  1  0
 11 12  1  0
 12 13  1  0
M  END
>  <minimizedAffinity>  (9) 
-9.08958

$$$$
data/200k_reference_output/data/smiles/55774.pdb
     RDKit          3D

 21 22  0  0  0  0  0  0  0  0999 V2000
   68.9148   46.9342   54.8506 C   0  0  0  0  0  0  0  0  0  0  0  0
   68.0754   46.0080   54.2823 C   0  0  0  0  0  0  0  0  0  0  0  0
   67.8587   46.0048   52.9377 C   0  0  0  0  0  0  0  0  0  0  0  0
   67.0072   45.0556   52.3671 O   0  0  0  0  0  0  0  0  0  0  0  0
   68.4544   46.9148   52.0790 C   0  0  0  0  0  0  0  0  0  0  0  0
   68.2011   46.8704   50.7001 O   0  0  0  0  0  0  0  0  0  0  0  0
   69.2838   47.8274   52.6737 C   0  0  0  0  0  0  0  0  0  0  0  0
   69.5236   47.8522   54.0417 C   0  0  0  0  0  0  0  0  0  0  0  0
   69.9283   48.7894   51.8509 N   0  0  0  0  0  0  0  0  0  0  0  0
   70.6257   48.4179   50.8925 O   0  0  0  0  0  0  0  0  0  0  0  0
   69.7977   50.1261   52.0856 O   0  0  0  0  0  0  0  0  0  0  0  0
   69.1479   46.9350   56.3207 C   0  0  0  0  0  0  0  0  0  0  0  0
   68.9451   45.8324   56.8719 O   0  0  0  0  0  0  0  0  0  0  0  0
   69.5766   48.1206   57.0808 C   0  0  0  0  0  0  0  0  0  0  0  0
   69.9478   50.8869   56.0008 C   0  0  0  0  0  0  0  0  0  0  0  0
   68.7628   50.4425   56.7323 C   0  0  0  0  0  0  0  0  0  0  0  0
   67.7645   51.4175   56.9182 C   0  0  0  0  0  0  0  0  0  0  0  0
   66.5665   51.1079   57.5514 C   0  0  0  0  0  0  0  0  0  0  0  0
   66.3729   49.8378   57.9915 C   0  0  0  0  0  0  0  0  0  0  0  0
   67.3422   48.8684   57.8148 C   0  0  0  0  0  0  0  0  0  0  0  0
   68.5527   49.1736   57.1801 C   0  0  0  0  0  0  0  0  0  0  0  0
 15 16  1  0
 16 17  2  0
 16 21  1  0
 17 18  1  0
 18 19  2  0
 19 20  1  0
 20 21  2  0
 21 14  1  0
 14 12  1  0
 12 13  2  0
 12  1  1  0
  1  2  2  0
  1  8  1  0
  2  3  1  0
  3  4  1  0
  3  5  2  0
  5  6  1  0
  5  7  1  0
  7  9  1  0
  7  8  2  0
  9 10  2  0
  9 11  1  0
M  CHG  2   9   1  11  -1
M  END
>  <minimizedAffinity>  (10) 
-9.07842

$$$$
data/reference_output_2/data/smiles/192842.pdb
     RDKit          3D

 20 21  0  0  0  0  0  0  0  0999 V2000
   68.5595   45.8844   55.6326 C   0  0  0  0  0  0  0  0  0  0  0  0
   68.9245   46.4994   56.5997 N   0  0  0  0  0  0  0  0  0  0  0  0
   69.3536   47.7084   52.3793 C   0  0  0  0  0  0  0  0  0  0  0  0
   68.5449   47.0436   51.4958 C   0  0  0  0  0  0  0  0  0  0  0  0
   67.7437   46.0109   51.9483 C   0  0  0  0  0  0  0  0  0  0  0  0
   67.7545   45.6516   53.2702 C   0  0  0  0  0  0  0  0  0  0  0  0
   68.5556   46.2914   54.2106 C   0  0  0  0  0  0  0  0  0  0  0  0
   69.3310   47.3057   53.7166 C   0  0  0  0  0  0  0  0  0  0  0  0
   69.9452   49.4599   50.9688 O   0  0  0  0  0  0  0  0  0  0  0  0
   70.1996   48.7767   51.9765 N   0  0  0  0  0  0  0  0  0  0  0  0
   71.3257   49.0850   52.6927 O   0  0  0  0  0  0  0  0  0  0  0  0
   68.0509   44.5423   55.8915 N   0  0  0  0  0  0  0  0  0  0  0  0
   68.6357   43.7158   56.7896 O   0  0  0  0  0  0  0  0  0  0  0  0
   69.4426   47.6138   57.1522 C   0  0  0  0  0  0  0  0  0  0  0  0
   68.4888   48.7849   57.2670 C   0  0  0  0  0  0  0  0  0  0  0  0
   68.9080   49.9646   56.6955 C   0  0  0  0  0  0  0  0  0  0  0  0
   68.0969   51.1003   56.7533 C   0  0  0  0  0  0  0  0  0  0  0  0
   66.8834   50.9858   57.3955 C   0  0  0  0  0  0  0  0  0  0  0  0
   66.4714   49.8127   57.9618 C   0  0  0  0  0  0  0  0  0  0  0  0
   67.2878   48.6820   57.8991 C   0  0  0  0  0  0  0  0  0  0  0  0
  9 10  2  0
 10 11  1  0
 10  3  1  0
  3  4  2  0
  3  8  1  0
  4  5  1  0
  5  6  2  0
  6  7  1  0
  7  1  1  0
  7  8  2  0
  1  2  2  0
  1 12  1  0
  2 14  1  0
 14 15  1  0
 15 16  2  0
 15 20  1  0
 16 17  1  0
 17 18  2  0
 18 19  1  0
 19 20  2  0
 12 13  1  0
M  CHG  3   2   1  10   1  11  -1
M  END
>  <minimizedAffinity>  (11) 
-9.06206

$$$$
data/reference_output_2/data/smiles/184115.pdb
     RDKit          3D

 22 24  0  0  0  0  0  0  0  0999 V2000
   67.4938   47.6152   57.0743 N   0  0  0  0  0  0  0  0  0  0  0  0
   67.9026   48.9636   56.9293 C   0  0  0  0  0  0  0  0  0  0  0  0
   68.8540   49.2796   55.9261 C   0  0  0  0  0  0  0  0  0  0  0  0
   69.1873   50.6110   55.8630 C   0  0  0  0  0  0  0  0  0  0  0  0
   70.0919   51.0519   54.9426 C   0  0  0  0  0  0  0  0  0  0  0  0
   70.4434   52.3825   54.8568 C   0  0  0  0  0  0  0  0  0  0  0  0
   69.8654   53.2791   55.7231 C   0  0  0  0  0  0  0  0  0  0  0  0
   68.9474   52.9035   56.6737 C   0  0  0  0  0  0  0  0  0  0  0  0
   68.6196   51.5600   56.7297 C   0  0  0  0  0  0  0  0  0  0  0  0
   67.7472   51.1936   57.6311 O   0  0  0  0  0  0  0  0  0  0  0  0
   67.3873   49.9418   57.7435 C   0  0  0  0  0  0  0  0  0  0  0  0
   66.5448   49.6495   58.6286 O   0  0  0  0  0  0  0  0  0  0  0  0
   69.3687   48.2891   55.1095 N   0  0  0  0  0  0  0  0  0  0  0  0
   68.9552   47.5730   53.9965 C   0  0  0  0  0  0  0  0  0  0  0  0
   68.0526   46.5239   54.2719 C   0  0  0  0  0  0  0  0  0  0  0  0
   67.5574   45.7302   53.2897 C   0  0  0  0  0  0  0  0  0  0  0  0
   67.9198   45.9222   51.9840 C   0  0  0  0  0  0  0  0  0  0  0  0
   68.7909   46.9249   51.6652 C   0  0  0  0  0  0  0  0  0  0  0  0
   69.2929   47.7347   52.6849 C   0  0  0  0  0  0  0  0  0  0  0  0
   70.1957   48.7813   52.2825 C   0  0  0  0  0  0  0  0  0  0  0  0
   71.2901   48.9449   52.8179 O   0  0  0  0  0  0  0  0  0  0  0  0
   69.8520   49.6458   51.2662 O   0  0  0  0  0  0  0  0  0  0  0  0
  1  2  1  0
  2  3  2  0
  2 11  1  0
  3 13  1  0
  3  4  1  0
 13 14  1  0
 14 15  2  0
 14 19  1  0
 15 16  1  0
 16 17  2  0
 17 18  1  0
 18 19  2  0
 19 20  1  0
 20 21  2  0
 20 22  1  0
  4  5  2  0
  4  9  1  0
  5  6  1  0
  6  7  2  0
  7  8  1  0
  8  9  2  0
  9 10  1  0
 10 11  1  0
 11 12  2  0
M  END
>  <minimizedAffinity>  (12) 
-9.06181

$$$$
data/reference_output_2/data/smiles/139790.pdb
     RDKit          3D

 21 23  0  0  0  0  0  0  0  0999 V2000
   70.2449   49.9231   54.9261 N   0  0  0  0  0  0  0  0  0  0  0  0
   70.3735   49.1050   53.9198 C   0  0  0  0  0  0  0  0  0  0  0  0
   71.5748   49.3765   53.3038 N   0  0  0  0  0  0  0  0  0  0  0  0
   72.1860   50.3604   53.9295 N   0  0  0  0  0  0  0  0  0  0  0  0
   71.3858   50.7215   54.9425 C   0  0  0  0  0  0  0  0  0  0  0  0
   71.6062   51.6292   55.7817 O   0  0  0  0  0  0  0  0  0  0  0  0
   69.4534   48.0463   53.4470 C   0  0  0  0  0  0  0  0  0  0  0  0
   68.7130   47.2585   54.2765 C   0  0  0  0  0  0  0  0  0  0  0  0
   67.8565   46.2697   53.7769 C   0  0  0  0  0  0  0  0  0  0  0  0
   67.7708   46.1005   52.4166 C   0  0  0  0  0  0  0  0  0  0  0  0
   66.9250   45.1227   51.8677 O   0  0  0  0  0  0  0  0  0  0  0  0
   68.5122   46.8881   51.5574 C   0  0  0  0  0  0  0  0  0  0  0  0
   69.3334   47.8385   52.0820 C   0  0  0  0  0  0  0  0  0  0  0  0
   70.0945   48.6474   51.2164 O   0  0  0  0  0  0  0  0  0  0  0  0
   68.4322   52.0468   54.6072 C   0  0  0  0  0  0  0  0  0  0  0  0
   68.2974   51.1255   55.7700 C   0  0  0  0  0  0  0  0  0  0  0  0
   67.2933   51.3430   56.6802 C   0  0  0  0  0  0  0  0  0  0  0  0
   67.1567   50.5002   57.7592 C   0  0  0  0  0  0  0  0  0  0  0  0
   68.0387   49.4513   57.8986 C   0  0  0  0  0  0  0  0  0  0  0  0
   69.0377   49.2524   56.9748 C   0  0  0  0  0  0  0  0  0  0  0  0
   69.2125   50.0711   55.8799 C   0  0  0  0  0  0  0  0  0  0  0  0
 15 16  1  0
 16 17  2  0
 16 21  1  0
 17 18  1  0
 18 19  2  0
 19 20  1  0
 20 21  2  0
 21  1  1  0
  1  2  1  0
  1  5  1  0
  2  7  1  0
  2  3  2  0
  7  8  2  0
  7 13  1  0
  8  9  1  0
  9 10  2  0
 10 11  1  0
 10 12  1  0
 12 13  2  0
 13 14  1  0
  3  4  1  0
  4  5  1  0
  5  6  2  0
M  END
>  <minimizedAffinity>  (13) 
-9.05348

$$$$
data/reference_output_2/data/smiles/191486.pdb
     RDKit          3D

 21 23  0  0  0  0  0  0  0  0999 V2000
   71.8768   50.0897   53.8734 O   0  0  0  0  0  0  0  0  0  0  0  0
   70.6801   50.0241   53.5637 C   0  0  0  0  0  0  0  0  0  0  0  0
   69.7697   51.0131   53.9846 N   0  0  0  0  0  0  0  0  0  0  0  0
   70.1977   48.9084   52.7490 C   0  0  0  0  0  0  0  0  0  0  0  0
   70.4755   48.6347   51.4610 N   0  0  0  0  0  0  0  0  0  0  0  0
   69.8524   47.5379   51.0704 N   0  0  0  0  0  0  0  0  0  0  0  0
   69.1194   47.0214   52.0909 C   0  0  0  0  0  0  0  0  0  0  0  0
   68.3029   45.9139   52.2106 C   0  0  0  0  0  0  0  0  0  0  0  0
   67.6716   45.6315   53.4026 C   0  0  0  0  0  0  0  0  0  0  0  0
   67.8952   46.5019   54.4582 C   0  0  0  0  0  0  0  0  0  0  0  0
   68.7131   47.6047   54.3285 C   0  0  0  0  0  0  0  0  0  0  0  0
   69.3424   47.8894   53.1439 C   0  0  0  0  0  0  0  0  0  0  0  0
   70.0948   52.1379   54.7967 C   0  0  0  0  0  0  0  0  0  0  0  0
   69.9367   52.0152   56.2589 C   0  0  0  0  0  0  0  0  0  0  0  0
   68.9447   51.1354   56.8330 C   0  0  0  0  0  0  0  0  0  0  0  0
   67.6501   51.5219   57.0696 C   0  0  0  0  0  0  0  0  0  0  0  0
   66.7207   50.6628   57.5607 C   0  0  0  0  0  0  0  0  0  0  0  0
   67.0544   49.3576   57.8414 C   0  0  0  0  0  0  0  0  0  0  0  0
   66.1298   48.4950   58.3321 F   0  0  0  0  0  0  0  0  0  0  0  0
   68.3483   48.9310   57.6166 C   0  0  0  0  0  0  0  0  0  0  0  0
   69.2815   49.8089   57.1193 C   0  0  0  0  0  0  0  0  0  0  0  0
  1  2  2  0
  2  3  1  0
  2  4  1  0
  3 13  1  0
 13 14  1  0
 14 15  1  0
 15 16  2  0
 15 21  1  0
 16 17  1  0
 17 18  2  0
 18 19  1  0
 18 20  1  0
 20 21  2  0
  4  5  1  0
  4 12  2  0
  5  6  1  0
  6  7  2  0
  7  8  1  0
  7 12  1  0
  8  9  2  0
  9 10  1  0
 10 11  2  0
 11 12  1  0
M  END
>  <minimizedAffinity>  (14) 
-9.05312

$$$$
data/reference_output_2/data/smiles/131523.pdb
     RDKit          3D

 21 22  0  0  0  0  0  0  0  0999 V2000
   67.8897   44.0446   55.3465 N   0  0  0  0  0  0  0  0  0  0  0  0
   68.1848   45.4168   55.1731 C   0  0  0  0  0  0  0  0  0  0  0  0
   68.3082   46.1357   56.1981 O   0  0  0  0  0  0  0  0  0  0  0  0
   68.3516   46.0320   53.8668 C   0  0  0  0  0  0  0  0  0  0  0  0
   67.6056   45.5505   52.7835 C   0  0  0  0  0  0  0  0  0  0  0  0
   67.7298   46.1008   51.5291 C   0  0  0  0  0  0  0  0  0  0  0  0
   68.5846   47.1470   51.2624 C   0  0  0  0  0  0  0  0  0  0  0  0
   69.3207   47.6251   52.3222 C   0  0  0  0  0  0  0  0  0  0  0  0
   69.2022   47.0776   53.5877 C   0  0  0  0  0  0  0  0  0  0  0  0
   70.2129   48.7033   52.0894 N   0  0  0  0  0  0  0  0  0  0  0  0
   70.0391   49.4023   51.0738 O   0  0  0  0  0  0  0  0  0  0  0  0
   71.2457   49.0254   52.9040 O   0  0  0  0  0  0  0  0  0  0  0  0
   67.7343   43.4471   56.5464 O   0  0  0  0  0  0  0  0  0  0  0  0
   67.3980   42.1235   56.5025 C   0  0  0  0  0  0  0  0  0  0  0  0
   71.2860   38.8079   59.2158 C   0  0  0  0  0  0  0  0  0  0  0  0
   70.3027   39.6868   58.5168 C   0  0  0  0  0  0  0  0  0  0  0  0
   70.5632   41.0149   58.2570 C   0  0  0  0  0  0  0  0  0  0  0  0
   69.6280   41.7941   57.6078 C   0  0  0  0  0  0  0  0  0  0  0  0
   68.4071   41.3048   57.1891 C   0  0  0  0  0  0  0  0  0  0  0  0
   68.1551   39.9607   57.4569 C   0  0  0  0  0  0  0  0  0  0  0  0
   69.0889   39.1798   58.1059 C   0  0  0  0  0  0  0  0  0  0  0  0
 15 16  1  0
 16 17  2  0
 16 21  1  0
 17 18  1  0
 18 19  2  0
 19 14  1  0
 19 20  1  0
 14 13  1  0
 13  1  1  0
  1  2  1  0
  2  3  2  0
  2  4  1  0
  4  5  2  0
  4  9  1  0
  5  6  1  0
  6  7  2  0
  7  8  1  0
  8 10  1  0
  8  9  2  0
 10 11  2  0
 10 12  1  0
 20 21  2  0
M  CHG  2  10   1  12  -1
M  END
>  <minimizedAffinity>  (15) 
-9.05141

$$$$
data/reference_output_2/data/smiles/92841.pdb
     RDKit          3D

 22 25  0  0  0  0  0  0  0  0999 V2000
   70.1144   49.3857   53.4484 C   0  0  0  0  0  0  0  0  0  0  0  0
   70.1251   49.9036   52.1931 N   0  0  0  0  0  0  0  0  0  0  0  0
   69.5244   49.0783   51.3684 N   0  0  0  0  0  0  0  0  0  0  0  0
   69.0878   47.9848   52.0136 C   0  0  0  0  0  0  0  0  0  0  0  0
   68.4135   46.8498   51.5705 C   0  0  0  0  0  0  0  0  0  0  0  0
   68.0899   45.8538   52.4652 C   0  0  0  0  0  0  0  0  0  0  0  0
   68.4547   46.0270   53.7816 C   0  0  0  0  0  0  0  0  0  0  0  0
   69.1295   47.1672   54.2171 C   0  0  0  0  0  0  0  0  0  0  0  0
   69.4573   48.1712   53.3284 C   0  0  0  0  0  0  0  0  0  0  0  0
   68.1262   44.9864   54.7498 C   0  0  0  0  0  0  0  0  0  0  0  0
   67.2712   43.9522   54.5594 N   0  0  0  0  0  0  0  0  0  0  0  0
   67.2397   43.2261   55.6608 N   0  0  0  0  0  0  0  0  0  0  0  0
   68.0706   43.8069   56.5284 N   0  0  0  0  0  0  0  0  0  0  0  0
   68.6144   44.8707   55.9973 N   0  0  0  0  0  0  0  0  0  0  0  0
   70.6667   50.0101   54.6743 C   0  0  0  0  0  0  0  0  0  0  0  0
   69.8257   51.0836   55.2625 C   0  0  0  0  0  0  0  0  0  0  0  0
   66.7995   49.8126   58.0027 C   0  0  0  0  0  0  0  0  0  0  0  0
   67.8010   48.9512   57.6293 C   0  0  0  0  0  0  0  0  0  0  0  0
   68.7767   49.3614   56.7471 C   0  0  0  0  0  0  0  0  0  0  0  0
   68.7888   50.6496   56.2042 C   0  0  0  0  0  0  0  0  0  0  0  0
   67.7783   51.4984   56.5879 C   0  0  0  0  0  0  0  0  0  0  0  0
   66.7967   51.0704   57.4817 C   0  0  0  0  0  0  0  0  0  0  0  0
 17 18  2  0
 17 22  1  0
 18 19  1  0
 19 20  2  0
 20 16  1  0
 20 21  1  0
 16 15  1  0
 15  1  1  0
  1  2  2  0
  1  9  1  0
  2  3  1  0
  3  4  1  0
  4  5  1  0
  4  9  2  0
  5  6  2  0
  6  7  1  0
  7 10  1  0
  7  8  2  0
 10 11  2  0
 10 14  1  0
 11 12  1  0
 12 13  2  0
 13 14  1  0
  8  9  1  0
 21 22  2  0
M  END
>  <minimizedAffinity>  (16) 
-9.04517

$$$$
data/200k_reference_output/data/smiles/72261.pdb
     RDKit          3D

 21 23  0  0  0  0  0  0  0  0999 V2000
   68.1548   46.9109   56.0484 O   0  0  0  0  0  0  0  0  0  0  0  0
   68.2917   46.8318   54.6783 C   0  0  0  0  0  0  0  0  0  0  0  0
   67.6938   45.7968   53.9504 C   0  0  0  0  0  0  0  0  0  0  0  0
   67.8285   45.7152   52.5940 C   0  0  0  0  0  0  0  0  0  0  0  0
   68.5495   46.6335   51.8742 C   0  0  0  0  0  0  0  0  0  0  0  0
   69.1485   47.6594   52.5603 C   0  0  0  0  0  0  0  0  0  0  0  0
   69.8856   48.5634   51.8144 C   0  0  0  0  0  0  0  0  0  0  0  0
   70.4849   49.5531   52.4819 N   0  0  0  0  0  0  0  0  0  0  0  0
   70.3964   49.6906   53.8057 C   0  0  0  0  0  0  0  0  0  0  0  0
   69.6693   48.7986   54.5447 C   0  0  0  0  0  0  0  0  0  0  0  0
   69.0158   47.7465   53.9314 C   0  0  0  0  0  0  0  0  0  0  0  0
   70.9052   46.4204   58.5127 C   0  0  0  0  0  0  0  0  0  0  0  0
   71.0178   45.0459   58.4599 C   0  0  0  0  0  0  0  0  0  0  0  0
   70.1789   44.3463   57.6089 C   0  0  0  0  0  0  0  0  0  0  0  0
   69.2713   44.9737   56.8486 N   0  0  0  0  0  0  0  0  0  0  0  0
   69.1146   46.3328   56.8584 C   0  0  0  0  0  0  0  0  0  0  0  0
   69.9580   47.0083   57.7100 C   0  0  0  0  0  0  0  0  0  0  0  0
   72.7245   48.0650   58.8066 N   0  0  0  0  0  0  0  0  0  0  0  0
   71.7762   47.2018   59.4003 C   0  0  0  0  0  0  0  0  0  0  0  0
   71.6969   47.1215   60.6823 N   0  0  0  0  0  0  0  0  0  0  0  0
   72.5530   47.8914   61.4290 O   0  0  0  0  0  0  0  0  0  0  0  0
 18 19  1  0
 19 20  2  0
 19 12  1  0
 20 21  1  0
 12 13  2  0
 12 17  1  0
 13 14  1  0
 14 15  2  0
 15 16  1  0
 16  1  1  0
 16 17  2  0
  1  2  1  0
  2  3  2  0
  2 11  1  0
  3  4  1  0
  4  5  2  0
  5  6  1  0
  6  7  1  0
  6 11  2  0
  7  8  2  0
  8  9  1  0
  9 10  2  0
 10 11  1  0
M  CHG  1  20   1
M  END
>  <minimizedAffinity>  (17) 
-9.02136

$$$$
data/200k_reference_output/data/smiles/45467.pdb
     RDKit          3D

 21 22  0  0  0  0  0  0  0  0999 V2000
   68.2135   46.5516   55.9424 O   0  0  0  0  0  0  0  0  0  0  0  0
   68.3538   46.6928   54.5649 C   0  0  0  0  0  0  0  0  0  0  0  0
   67.6144   45.9324   53.6818 C   0  0  0  0  0  0  0  0  0  0  0  0
   67.7239   46.0420   52.3110 C   0  0  0  0  0  0  0  0  0  0  0  0
   66.9595   45.2555   51.4045 N   0  0  0  0  0  0  0  0  0  0  0  0
   68.6294   46.9708   51.7917 C   0  0  0  0  0  0  0  0  0  0  0  0
   69.3732   47.7358   52.6563 C   0  0  0  0  0  0  0  0  0  0  0  0
   69.2541   47.6168   54.0239 C   0  0  0  0  0  0  0  0  0  0  0  0
   70.3041   48.6907   52.1093 N   0  0  0  0  0  0  0  0  0  0  0  0
   70.0852   49.2099   51.0135 O   0  0  0  0  0  0  0  0  0  0  0  0
   71.4388   49.0311   52.7972 O   0  0  0  0  0  0  0  0  0  0  0  0
   71.5469   46.1861   58.5312 C   0  0  0  0  0  0  0  0  0  0  0  0
   71.0256   47.4139   58.1803 C   0  0  0  0  0  0  0  0  0  0  0  0
   69.9401   47.5380   57.3361 C   0  0  0  0  0  0  0  0  0  0  0  0
   69.3154   46.4333   56.7975 C   0  0  0  0  0  0  0  0  0  0  0  0
   69.8335   45.2048   57.1476 C   0  0  0  0  0  0  0  0  0  0  0  0
   70.9200   45.0789   57.9910 C   0  0  0  0  0  0  0  0  0  0  0  0
   73.8883   46.5092   61.6054 C   0  0  0  0  0  0  0  0  0  0  0  0
   72.7351   46.6244   60.6916 C   0  0  0  0  0  0  0  0  0  0  0  0
   71.7190   47.2686   61.0725 O   0  0  0  0  0  0  0  0  0  0  0  0
   72.6658   46.0659   59.4007 N   0  0  0  0  0  0  0  0  0  0  0  0
 18 19  1  0
 19 20  2  0
 19 21  1  0
 21 12  1  0
 12 13  2  0
 12 17  1  0
 13 14  1  0
 14 15  2  0
 15  1  1  0
 15 16  1  0
  1  2  1  0
  2  3  2  0
  2  8  1  0
  3  4  1  0
  4  5  1  0
  4  6  2  0
  6  7  1  0
  7  9  1  0
  7  8  2  0
  9 10  2  0
  9 11  1  0
 16 17  2  0
M  CHG  2   9   1  11  -1
M  END
>  <minimizedAffinity>  (18) 
-8.99193

$$$$
data/200k_reference_output/data/smiles/59084.pdb
     RDKit          3D

 20 22  0  0  0  0  0  0  0  0999 V2000
   70.1251   49.1802   52.6302 S   0  0  0  0  0  0  0  0  0  0  0  0
   70.3059   48.9136   51.1726 O   0  0  0  0  0  0  0  0  0  0  0  0
   71.4771   49.2691   53.2490 O   0  0  0  0  0  0  0  0  0  0  0  0
   69.2580   47.8322   53.3395 C   0  0  0  0  0  0  0  0  0  0  0  0
   69.3331   47.5935   54.7114 C   0  0  0  0  0  0  0  0  0  0  0  0
   68.6227   46.5108   55.2126 C   0  0  0  0  0  0  0  0  0  0  0  0
   67.8792   45.7182   54.3588 C   0  0  0  0  0  0  0  0  0  0  0  0
   67.8110   45.9610   53.0039 C   0  0  0  0  0  0  0  0  0  0  0  0
   67.1961   45.3912   51.9492 N   0  0  0  0  0  0  0  0  0  0  0  0
   67.4903   46.0598   50.8591 O   0  0  0  0  0  0  0  0  0  0  0  0
   68.2774   47.0443   51.1772 N   0  0  0  0  0  0  0  0  0  0  0  0
   68.5122   47.0339   52.4973 C   0  0  0  0  0  0  0  0  0  0  0  0
   69.3011   50.6628   52.8804 N   0  0  0  0  0  0  0  0  0  0  0  0
   67.2322   51.0472   57.3737 C   0  0  0  0  0  0  0  0  0  0  0  0
   68.2132   51.4861   56.3357 C   0  0  0  0  0  0  0  0  0  0  0  0
   69.0637   52.5328   56.6080 C   0  0  0  0  0  0  0  0  0  0  0  0
   69.9806   52.9685   55.6858 C   0  0  0  0  0  0  0  0  0  0  0  0
   70.0584   52.3595   54.4692 C   0  0  0  0  0  0  0  0  0  0  0  0
   69.2312   51.3053   54.1411 C   0  0  0  0  0  0  0  0  0  0  0  0
   68.3083   50.8877   55.1074 C   0  0  0  0  0  0  0  0  0  0  0  0
 14 15  1  0
 15 16  2  0
 15 20  1  0
 16 17  1  0
 17 18  2  0
 18 19  1  0
 19 13  1  0
 19 20  2  0
 13  1  1  0
  1  2  2  0
  1  3  2  0
  1  4  1  0
  4  5  2  0
  4 12  1  0
  5  6  1  0
  6  7  2  0
  7  8  1  0
  8  9  2  0
  8 12  1  0
  9 10  1  0
 10 11  1  0
 11 12  2  0
M  END
>  <minimizedAffinity>  (19) 
-8.98592

$$$$
data/reference_output_2/data/smiles/166148.pdb
     RDKit          3D

 20 22  0  0  0  0  0  0  0  0999 V2000
   70.3309   49.1713   54.0190 C   0  0  0  0  0  0  0  0  0  0  0  0
   71.5077   49.4504   53.3901 N   0  0  0  0  0  0  0  0  0  0  0  0
   72.0945   50.4803   53.9501 N   0  0  0  0  0  0  0  0  0  0  0  0
   71.2929   50.8944   54.9716 C   0  0  0  0  0  0  0  0  0  0  0  0
   70.1845   50.0907   55.0345 C   0  0  0  0  0  0  0  0  0  0  0  0
   66.9583   44.8951   52.5584 O   0  0  0  0  0  0  0  0  0  0  0  0
   67.7944   45.9563   52.9223 C   0  0  0  0  0  0  0  0  0  0  0  0
   68.1515   46.1771   54.2406 C   0  0  0  0  0  0  0  0  0  0  0  0
   68.9808   47.2308   54.5886 C   0  0  0  0  0  0  0  0  0  0  0  0
   69.4684   48.0856   53.6167 C   0  0  0  0  0  0  0  0  0  0  0  0
   69.1012   47.8497   52.3106 C   0  0  0  0  0  0  0  0  0  0  0  0
   69.5672   48.6826   51.2988 O   0  0  0  0  0  0  0  0  0  0  0  0
   68.2789   46.8067   51.9530 C   0  0  0  0  0  0  0  0  0  0  0  0
   67.9409   46.6178   50.5982 O   0  0  0  0  0  0  0  0  0  0  0  0
   69.0715   50.1703   55.9659 C   0  0  0  0  0  0  0  0  0  0  0  0
   68.7475   49.1199   56.8162 C   0  0  0  0  0  0  0  0  0  0  0  0
   67.7042   49.1599   57.7092 C   0  0  0  0  0  0  0  0  0  0  0  0
   66.9218   50.2931   57.7827 C   0  0  0  0  0  0  0  0  0  0  0  0
   67.2361   51.3415   56.9414 C   0  0  0  0  0  0  0  0  0  0  0  0
   68.2836   51.2967   56.0487 C   0  0  0  0  0  0  0  0  0  0  0  0
  6  7  1  0
  7  8  2  0
  7 13  1  0
  8  9  1  0
  9 10  2  0
 10  1  1  0
 10 11  1  0
  1  2  2  0
  1  5  1  0
  2  3  1  0
  3  4  1  0
  4  5  2  0
  5 15  1  0
 15 16  2  0
 15 20  1  0
 16 17  1  0
 17 18  2  0
 18 19  1  0
 19 20  2  0
 11 12  1  0
 11 13  2  0
 13 14  1  0
M  END
>  <minimizedAffinity>  (20) 
-8.97859

$$$$
data/reference_output_2/data/smiles/96331.pdb
     RDKit          3D

 22 23  0  0  0  0  0  0  0  0999 V2000
   67.8509   43.9011   55.2867 N   0  0  0  0  0  0  0  0  0  0  0  0
   68.1851   45.2611   55.1090 C   0  0  0  0  0  0  0  0  0  0  0  0
   68.3924   45.9367   56.1439 O   0  0  0  0  0  0  0  0  0  0  0  0
   68.3014   45.9125   53.8088 C   0  0  0  0  0  0  0  0  0  0  0  0
   67.5588   45.4650   52.7293 C   0  0  0  0  0  0  0  0  0  0  0  0
   67.6408   46.0541   51.4840 C   0  0  0  0  0  0  0  0  0  0  0  0
   68.4838   47.1269   51.2788 C   0  0  0  0  0  0  0  0  0  0  0  0
   69.2359   47.6010   52.3183 C   0  0  0  0  0  0  0  0  0  0  0  0
   69.1331   46.9855   53.5711 C   0  0  0  0  0  0  0  0  0  0  0  0
   70.1003   48.7024   52.1058 N   0  0  0  0  0  0  0  0  0  0  0  0
   69.9339   49.5148   51.1750 O   0  0  0  0  0  0  0  0  0  0  0  0
   71.1585   48.8838   52.9545 O   0  0  0  0  0  0  0  0  0  0  0  0
   67.5280   41.8964   56.6419 C   0  0  0  0  0  0  0  0  0  0  0  0
   67.4397   41.2664   55.5319 O   0  0  0  0  0  0  0  0  0  0  0  0
   67.7464   43.2959   56.5654 N   0  0  0  0  0  0  0  0  0  0  0  0
   65.7533   41.5402   61.2220 C   0  0  0  0  0  0  0  0  0  0  0  0
   66.5378   40.9455   60.1143 C   0  0  0  0  0  0  0  0  0  0  0  0
   67.1396   39.7206   60.2014 C   0  0  0  0  0  0  0  0  0  0  0  0
   67.8653   39.1863   59.1569 C   0  0  0  0  0  0  0  0  0  0  0  0
   67.9927   39.9114   57.9763 C   0  0  0  0  0  0  0  0  0  0  0  0
   67.4007   41.1400   57.8615 C   0  0  0  0  0  0  0  0  0  0  0  0
   66.6844   41.6498   58.9139 C   0  0  0  0  0  0  0  0  0  0  0  0
 16 17  1  0
 17 18  2  0
 17 22  1  0
 18 19  1  0
 19 20  2  0
 20 21  1  0
 21 13  1  0
 21 22  2  0
 13 14  2  0
 13 15  1  0
 15  1  1  0
  1  2  1  0
  2  3  2  0
  2  4  1  0
  4  5  2  0
  4  9  1  0
  5  6  1  0
  6  7  2  0
  7  8  1  0
  8 10  1  0
  8  9  2  0
 10 11  2  0
 10 12  1  0
M  CHG  2  10   1  12  -1
M  END
>  <minimizedAffinity>  (21) 
-8.97105

$$$$
data/reference_output_2/data/smiles/105069.pdb
     RDKit          3D

 19 21  0  0  0  0  0  0  0  0999 V2000
   66.7534   45.3565   50.9717 N   0  0  0  0  0  0  0  0  0  0  0  0
   67.6557   46.1270   51.7354 C   0  0  0  0  0  0  0  0  0  0  0  0
   67.7166   46.0331   53.1106 C   0  0  0  0  0  0  0  0  0  0  0  0
   68.6011   46.7915   53.8345 C   0  0  0  0  0  0  0  0  0  0  0  0
   69.4360   47.6541   53.1603 C   0  0  0  0  0  0  0  0  0  0  0  0
   70.3943   48.5149   53.5516 N   0  0  0  0  0  0  0  0  0  0  0  0
   70.8849   49.0992   52.4511 N   0  0  0  0  0  0  0  0  0  0  0  0
   70.2918   48.6562   51.3782 N   0  0  0  0  0  0  0  0  0  0  0  0
   69.3745   47.7445   51.7924 C   0  0  0  0  0  0  0  0  0  0  0  0
   68.4980   46.9913   51.1104 N   0  0  0  0  0  0  0  0  0  0  0  0
   68.6454   46.6306   55.5836 S   0  0  0  0  0  0  0  0  0  0  0  0
   69.4337   47.9749   56.4586 C   0  0  0  0  0  0  0  0  0  0  0  0
   68.5372   49.0735   56.8235 C   0  0  0  0  0  0  0  0  0  0  0  0
   67.4492   48.8255   57.6403 C   0  0  0  0  0  0  0  0  0  0  0  0
   66.5545   49.8137   58.0150 C   0  0  0  0  0  0  0  0  0  0  0  0
   66.7977   51.0826   57.5302 C   0  0  0  0  0  0  0  0  0  0  0  0
   67.8860   51.3357   56.7122 C   0  0  0  0  0  0  0  0  0  0  0  0
   68.7696   50.3306   56.3487 C   0  0  0  0  0  0  0  0  0  0  0  0
   69.8378   50.6355   55.5392 F   0  0  0  0  0  0  0  0  0  0  0  0
  1  2  1  0
  2  3  2  0
  2 10  1  0
  3  4  1  0
  4 11  1  0
  4  5  2  0
 11 12  1  0
 12 13  1  0
 13 14  2  0
 13 18  1  0
 14 15  1  0
 15 16  2  0
 16 17  1  0
 17 18  2  0
 18 19  1  0
  5  6  1  0
  5  9  1  0
  6  7  2  0
  7  8  1  0
  8  9  1  0
  9 10  2  0
M  END
>  <minimizedAffinity>  (22) 
-8.95303

$$$$
data/reference_output_2/data/smiles/133313.pdb
     RDKit          3D

 20 22  0  0  0  0  0  0  0  0999 V2000
   66.6746   44.9041   50.8185 O   0  0  0  0  0  0  0  0  0  0  0  0
   67.3184   45.6974   51.5859 C   0  0  0  0  0  0  0  0  0  0  0  0
   68.1826   46.5652   51.0407 N   0  0  0  0  0  0  0  0  0  0  0  0
   68.8780   47.4177   51.8204 C   0  0  0  0  0  0  0  0  0  0  0  0
   69.6935   48.2353   51.3428 O   0  0  0  0  0  0  0  0  0  0  0  0
   68.6969   47.3924   53.1779 C   0  0  0  0  0  0  0  0  0  0  0  0
   69.4367   48.2857   53.9373 C   0  0  0  0  0  0  0  0  0  0  0  0
   69.1914   48.1843   55.3230 C   0  0  0  0  0  0  0  0  0  0  0  0
   68.2950   47.2735   55.8312 C   0  0  0  0  0  0  0  0  0  0  0  0
   68.1063   47.2197   57.0943 O   0  0  0  0  0  0  0  0  0  0  0  0
   67.6298   46.4595   55.0517 O   0  0  0  0  0  0  0  0  0  0  0  0
   67.7975   46.4878   53.7652 C   0  0  0  0  0  0  0  0  0  0  0  0
   67.1449   45.6739   52.9179 N   0  0  0  0  0  0  0  0  0  0  0  0
   70.3332   49.3028   53.5184 C   0  0  0  0  0  0  0  0  0  0  0  0
   69.5292   50.5661   53.2439 C   0  0  0  0  0  0  0  0  0  0  0  0
   69.6714   51.5290   54.3773 C   0  0  0  0  0  0  0  0  0  0  0  0
   68.6959   52.1114   55.1465 C   0  0  0  0  0  0  0  0  0  0  0  0
   69.0745   52.9449   56.1032 C   0  0  0  0  0  0  0  0  0  0  0  0
   70.4041   53.1988   56.2974 C   0  0  0  0  0  0  0  0  0  0  0  0
   71.1559   52.1546   54.9991 S   0  0  0  0  0  0  0  0  0  0  0  0
  1  2  2  0
  2  3  1  0
  2 13  1  0
  3  4  1  0
  4  5  2  0
  4  6  1  0
  6  7  1  0
  6 12  2  0
  7 14  1  0
  7  8  2  0
 14 15  1  0
 15 16  1  0
 16 17  2  0
 16 20  1  0
 17 18  1  0
 18 19  2  0
 19 20  1  0
  8  9  1  0
  9 10  2  0
  9 11  1  0
 11 12  1  0
 12 13  1  0
M  END
>  <minimizedAffinity>  (23) 
-8.93706

$$$$
data/reference_output_2/data/smiles/152902.pdb
     RDKit          3D

 22 24  0  0  0  0  0  0  0  0999 V2000
   71.4377   50.5292   54.5506 C   0  0  0  0  0  0  0  0  0  0  0  0
   72.5333   50.9829   54.2257 O   0  0  0  0  0  0  0  0  0  0  0  0
   70.3892   51.1330   55.3562 C   0  0  0  0  0  0  0  0  0  0  0  0
   70.2849   52.5348   55.3885 C   0  0  0  0  0  0  0  0  0  0  0  0
   69.3077   53.1335   56.1375 C   0  0  0  0  0  0  0  0  0  0  0  0
   68.4027   52.4065   56.8777 C   0  0  0  0  0  0  0  0  0  0  0  0
   68.4916   51.0296   56.8564 C   0  0  0  0  0  0  0  0  0  0  0  0
   67.5689   50.3419   57.6084 C   0  0  0  0  0  0  0  0  0  0  0  0
   67.6196   48.9645   57.6173 C   0  0  0  0  0  0  0  0  0  0  0  0
   68.5967   48.3482   56.8682 C   0  0  0  0  0  0  0  0  0  0  0  0
   69.5304   49.0465   56.1079 C   0  0  0  0  0  0  0  0  0  0  0  0
   69.4922   50.4215   56.0882 C   0  0  0  0  0  0  0  0  0  0  0  0
   71.2364   49.2220   54.0269 O   0  0  0  0  0  0  0  0  0  0  0  0
   71.2071   48.9638   52.6813 N   0  0  0  0  0  0  0  0  0  0  0  0
   69.7744   49.6710   51.0512 N   0  0  0  0  0  0  0  0  0  0  0  0
   70.0004   48.7792   51.9307 C   0  0  0  0  0  0  0  0  0  0  0  0
   69.1183   47.6488   52.1771 C   0  0  0  0  0  0  0  0  0  0  0  0
   68.8891   47.1222   53.4170 C   0  0  0  0  0  0  0  0  0  0  0  0
   68.0303   46.0310   53.6117 C   0  0  0  0  0  0  0  0  0  0  0  0
   67.3937   45.4652   52.5315 C   0  0  0  0  0  0  0  0  0  0  0  0
   67.6414   46.0143   51.2919 C   0  0  0  0  0  0  0  0  0  0  0  0
   68.4687   47.0604   51.1302 N   0  0  0  0  0  0  0  0  0  0  0  0
 15 16  2  0
 16 14  1  0
 16 17  1  0
 14 13  1  0
 13  1  1  0
  1  2  2  0
  1  3  1  0
  3  4  2  0
  3 12  1  0
  4  5  1  0
  5  6  2  0
  6  7  1  0
  7  8  1  0
  7 12  2  0
  8  9  2  0
  9 10  1  0
 10 11  2  0
 11 12  1  0
 17 18  2  0
 17 22  1  0
 18 19  1  0
 19 20  2  0
 20 21  1  0
 21 22  2  0
M  CHG  1  15   1
M  END
>  <minimizedAffinity>  (24) 
-8.93622

$$$$
data/200k_reference_output/data/smiles/33218.pdb
     RDKit          3D

 20 21  0  0  0  0  0  0  0  0999 V2000
   68.9659   47.0018   54.9115 C   0  0  0  0  0  0  0  0  0  0  0  0
   68.1367   46.0572   54.3308 C   0  0  0  0  0  0  0  0  0  0  0  0
   67.8880   46.0473   52.9620 C   0  0  0  0  0  0  0  0  0  0  0  0
   67.0531   45.0824   52.4271 O   0  0  0  0  0  0  0  0  0  0  0  0
   68.4840   47.0040   52.1628 C   0  0  0  0  0  0  0  0  0  0  0  0
   68.2173   46.9685   50.8022 O   0  0  0  0  0  0  0  0  0  0  0  0
   69.3214   47.9670   52.7136 C   0  0  0  0  0  0  0  0  0  0  0  0
   69.5279   47.9271   54.0639 C   0  0  0  0  0  0  0  0  0  0  0  0
   69.9053   48.9273   51.8406 N   0  0  0  0  0  0  0  0  0  0  0  0
   69.7051   50.1486   51.9720 O   0  0  0  0  0  0  0  0  0  0  0  0
   70.7154   48.4403   50.8229 O   0  0  0  0  0  0  0  0  0  0  0  0
   69.0000   45.9455   57.0118 O   0  0  0  0  0  0  0  0  0  0  0  0
   69.2161   46.9981   56.3468 C   0  0  0  0  0  0  0  0  0  0  0  0
   69.7184   48.2199   57.0175 C   0  0  0  0  0  0  0  0  0  0  0  0
   68.6412   49.2241   57.1894 C   0  0  0  0  0  0  0  0  0  0  0  0
   68.8182   50.5054   56.7282 C   0  0  0  0  0  0  0  0  0  0  0  0
   67.7915   51.4148   56.9061 C   0  0  0  0  0  0  0  0  0  0  0  0
   66.6089   51.0809   57.5252 C   0  0  0  0  0  0  0  0  0  0  0  0
   66.4229   49.7919   57.9934 C   0  0  0  0  0  0  0  0  0  0  0  0
   67.4578   48.8986   57.8069 C   0  0  0  0  0  0  0  0  0  0  0  0
 12 13  2  0
 13 14  1  0
 13  1  1  0
 14 15  1  0
 15 16  2  0
 15 20  1  0
 16 17  1  0
 17 18  2  0
 18 19  1  0
 19 20  2  0
  1  2  2  0
  1  8  1  0
  2  3  1  0
  3  4  1  0
  3  5  2  0
  5  6  1  0
  5  7  1  0
  7  9  1  0
  7  8  2  0
  9 10  2  0
  9 11  1  0
M  CHG  2   9   1  11  -1
M  END
>  <minimizedAffinity>  (25) 
-8.92138

$$$$
data/reference_output_2/data/smiles/179656.pdb
     RDKit          3D

 24 27  0  0  0  0  0  0  0  0999 V2000
   69.8891   47.2392   51.0058 O   0  0  0  0  0  0  0  0  0  0  0  0
   69.7833   48.3185   51.6089 C   0  0  0  0  0  0  0  0  0  0  0  0
   70.0238   49.5625   51.0784 N   0  0  0  0  0  0  0  0  0  0  0  0
   69.8118   50.4862   52.0316 N   0  0  0  0  0  0  0  0  0  0  0  0
   69.4473   49.8583   53.1395 C   0  0  0  0  0  0  0  0  0  0  0  0
   69.4296   48.5210   52.8680 N   0  0  0  0  0  0  0  0  0  0  0  0
   69.0628   47.4930   53.7911 C   0  0  0  0  0  0  0  0  0  0  0  0
   68.5523   46.4066   53.1196 C   0  0  0  0  0  0  0  0  0  0  0  0
   68.1575   45.3146   53.8932 C   0  0  0  0  0  0  0  0  0  0  0  0
   68.2434   45.2555   55.2526 C   0  0  0  0  0  0  0  0  0  0  0  0
   68.7693   46.3918   55.8806 C   0  0  0  0  0  0  0  0  0  0  0  0
   69.1803   47.5093   55.1800 C   0  0  0  0  0  0  0  0  0  0  0  0
   69.6565   48.5582   56.1198 C   0  0  0  0  0  0  0  0  0  0  0  0
   70.1451   49.7689   55.4637 C   0  0  0  0  0  0  0  0  0  0  0  0
   69.1645   50.4434   54.5015 C   0  0  0  0  0  0  0  0  0  0  0  0
   67.8773   44.2289   56.0587 O   0  0  0  0  0  0  0  0  0  0  0  0
   67.6710   42.9010   55.8708 C   0  0  0  0  0  0  0  0  0  0  0  0
   68.3769   41.9451   56.7548 C   0  0  0  0  0  0  0  0  0  0  0  0
   69.5662   42.1910   57.3882 C   0  0  0  0  0  0  0  0  0  0  0  0
   70.2168   41.2862   58.1991 C   0  0  0  0  0  0  0  0  0  0  0  0
   69.6338   40.0506   58.3858 C   0  0  0  0  0  0  0  0  0  0  0  0
   68.4358   39.7609   57.7675 C   0  0  0  0  0  0  0  0  0  0  0  0
   67.8981   38.5280   57.9828 F   0  0  0  0  0  0  0  0  0  0  0  0
   67.8060   40.6830   56.9618 C   0  0  0  0  0  0  0  0  0  0  0  0
  1  2  2  0
  2  3  1  0
  2  6  1  0
  3  4  1  0
  4  5  2  0
  5  6  1  0
  5 15  1  0
  6  7  1  0
  7  8  2  0
  7 12  1  0
  8  9  1  0
  9 10  2  0
 10 16  1  0
 10 11  1  0
 16 17  1  0
 17 18  1  0
 18 19  2  0
 18 24  1  0
 19 20  1  0
 20 21  2  0
 21 22  1  0
 22 23  1  0
 22 24  2  0
 11 12  2  0
 12 13  1  0
 13 14  1  0
 14 15  1  0
M  END
>  <minimizedAffinity>  (26) 
-9.83943

$$$$
data/200k_reference_output/data/smiles/40584.pdb
     RDKit          3D

 26 28  0  0  0  0  0  0  0  0999 V2000
   70.7395   45.0745   58.0292 C   0  0  0  0  0  0  0  0  0  0  0  0
   71.3673   46.1986   58.4857 C   0  0  0  0  0  0  0  0  0  0  0  0
   70.9204   47.4774   58.1906 C   0  0  0  0  0  0  0  0  0  0  0  0
   69.8170   47.5727   57.4168 N   0  0  0  0  0  0  0  0  0  0  0  0
   69.1724   46.4777   56.9500 C   0  0  0  0  0  0  0  0  0  0  0  0
   69.6425   45.2555   57.2630 N   0  0  0  0  0  0  0  0  0  0  0  0
   72.0067   41.0270   58.7326 C   0  0  0  0  0  0  0  0  0  0  0  0
   70.9208   41.5597   59.3868 C   0  0  0  0  0  0  0  0  0  0  0  0
   70.5320   42.8741   59.1526 C   0  0  0  0  0  0  0  0  0  0  0  0
   71.1939   43.7020   58.2717 C   0  0  0  0  0  0  0  0  0  0  0  0
   72.2814   43.1695   57.6181 C   0  0  0  0  0  0  0  0  0  0  0  0
   72.6782   41.8470   57.8514 C   0  0  0  0  0  0  0  0  0  0  0  0
   72.0347   37.1526   58.6933 C   0  0  0  0  0  0  0  0  0  0  0  0
   71.6490   38.5711   58.5081 C   0  0  0  0  0  0  0  0  0  0  0  0
   70.5608   38.8245   57.9284 O   0  0  0  0  0  0  0  0  0  0  0  0
   72.4199   39.6656   58.9355 N   0  0  0  0  0  0  0  0  0  0  0  0
   68.0503   46.6853   56.1070 N   0  0  0  0  0  0  0  0  0  0  0  0
   68.2734   46.7503   54.7014 C   0  0  0  0  0  0  0  0  0  0  0  0
   67.7202   45.8041   53.8442 C   0  0  0  0  0  0  0  0  0  0  0  0
   67.9660   45.8375   52.4871 C   0  0  0  0  0  0  0  0  0  0  0  0
   68.7680   46.8066   51.9262 C   0  0  0  0  0  0  0  0  0  0  0  0
   69.3292   47.7548   52.7461 C   0  0  0  0  0  0  0  0  0  0  0  0
   69.0731   47.7113   54.1194 C   0  0  0  0  0  0  0  0  0  0  0  0
   70.2038   48.8100   52.2288 C   0  0  0  0  0  0  0  0  0  0  0  0
   69.8281   49.5716   51.1055 N   0  0  0  0  0  0  0  0  0  0  0  0
   71.3155   49.0346   52.8068 O   0  0  0  0  0  0  0  0  0  0  0  0
 13 14  1  0
 14 15  2  0
 14 16  1  0
 16  7  1  0
  7  8  2  0
  7 12  1  0
  8  9  1  0
  9 10  2  0
 10  1  1  0
 10 11  1  0
  1  2  2  0
  1  6  1  0
  2  3  1  0
  3  4  2  0
  4  5  1  0
  5 17  1  0
  5  6  2  0
 17 18  1  0
 18 19  2  0
 18 23  1  0
 19 20  1  0
 20 21  2  0
 21 22  1  0
 22 24  1  0
 22 23  2  0
 24 25  1  0
 24 26  2  0
 11 12  2  0
M  END
>  <minimizedAffinity>  (27) 
-9.52137

$$$$
data/200k_reference_output/data/smiles/38006.pdb
     RDKit          3D

 26 29  0  0  0  0  0  0  0  0999 V2000
   69.3204   47.6319   56.0891 N   0  0  0  0  0  0  0  0  0  0  0  0
   69.7510   48.6484   55.2948 C   0  0  0  0  0  0  0  0  0  0  0  0
   69.5028   48.5402   53.9321 C   0  0  0  0  0  0  0  0  0  0  0  0
   68.8529   47.4732   53.3427 C   0  0  0  0  0  0  0  0  0  0  0  0
   68.6153   47.3817   51.9891 C   0  0  0  0  0  0  0  0  0  0  0  0
   67.9649   46.3055   51.4221 C   0  0  0  0  0  0  0  0  0  0  0  0
   67.5420   45.2872   52.2576 C   0  0  0  0  0  0  0  0  0  0  0  0
   67.7829   45.3828   53.6228 C   0  0  0  0  0  0  0  0  0  0  0  0
   68.4382   46.4679   54.1866 C   0  0  0  0  0  0  0  0  0  0  0  0
   68.6741   46.5571   55.5373 C   0  0  0  0  0  0  0  0  0  0  0  0
   68.2685   45.6048   56.2524 O   0  0  0  0  0  0  0  0  0  0  0  0
   70.0691   49.7458   53.3257 C   0  0  0  0  0  0  0  0  0  0  0  0
   70.0608   50.0491   52.1046 O   0  0  0  0  0  0  0  0  0  0  0  0
   70.6562   50.5572   54.3689 C   0  0  0  0  0  0  0  0  0  0  0  0
   71.3220   51.7666   54.3865 C   0  0  0  0  0  0  0  0  0  0  0  0
   71.8131   52.3613   55.5138 C   0  0  0  0  0  0  0  0  0  0  0  0
   71.6131   51.6751   56.7186 C   0  0  0  0  0  0  0  0  0  0  0  0
   70.9509   50.4586   56.7524 C   0  0  0  0  0  0  0  0  0  0  0  0
   70.4729   49.9033   55.5836 C   0  0  0  0  0  0  0  0  0  0  0  0
   69.4809   47.6685   57.5045 C   0  0  0  0  0  0  0  0  0  0  0  0
   70.4966   46.7223   58.0687 C   0  0  2  0  0  0  0  0  0  0  0  0
   69.9315   45.7499   58.8882 O   0  0  0  0  0  0  0  0  0  0  0  0
   71.4133   47.5525   58.9727 C   0  0  0  0  0  0  0  0  0  0  0  0
   73.0334   48.0628   61.8801 N   0  0  0  0  0  0  0  0  0  0  0  0
   72.2544   47.4329   61.1392 N   0  0  0  0  0  0  0  0  0  0  0  0
   71.4429   46.9886   60.3145 N   0  0  0  0  0  0  0  0  0  0  0  0
 24 25  2  0
 25 26  2  0
 26 23  1  0
 23 21  1  0
 21 22  1  1
 21 20  1  0
 20  1  1  0
  1  2  1  0
  1 10  1  0
  2  3  2  0
  2 19  1  0
  3  4  1  0
  3 12  1  0
  4  5  1  0
  4  9  2  0
  5  6  2  0
  6  7  1  0
  7  8  2  0
  8  9  1  0
  9 10  1  0
 10 11  2  0
 12 13  2  0
 12 14  1  0
 14 15  1  0
 14 19  2  0
 15 16  2  0
 16 17  1  0
 17 18  2  0
 18 19  1  0
M  CHG  2  24  -1  25   1
M  END
>  <minimizedAffinity>  (28) 
-9.41378

$$$$
data/200k_reference_output/data/smiles/424.pdb
     RDKit          3D

 22 24  0  0  0  0  0  0  0  0999 V2000
   69.9704   49.2916   52.8724 S   0  0  0  0  0  0  0  0  0  0  0  0
   69.8312   50.0219   51.5461 O   0  0  0  0  0  0  0  0  0  0  0  0
   71.4555   48.9530   52.9503 O   0  0  0  0  0  0  0  0  0  0  0  0
   71.1384   52.0360   54.8960 C   0  0  0  0  0  0  0  0  0  0  0  0
   69.8960   51.8098   54.0861 C   0  0  2  0  0  0  0  0  0  0  0  0
   68.6677   52.3849   54.7487 C   0  0  0  0  0  0  0  0  0  0  0  0
   68.3832   51.3761   55.8016 C   0  0  0  0  0  0  0  0  0  0  0  0
   67.6978   51.4599   57.0053 C   0  0  0  0  0  0  0  0  0  0  0  0
   67.6119   50.3108   57.7553 C   0  0  0  0  0  0  0  0  0  0  0  0
   68.1752   49.1162   57.3475 C   0  0  0  0  0  0  0  0  0  0  0  0
   68.8522   49.0480   56.1507 C   0  0  0  0  0  0  0  0  0  0  0  0
   68.9535   50.1898   55.3763 C   0  0  0  0  0  0  0  0  0  0  0  0
   69.5918   50.3809   54.1200 N   0  0  0  0  0  0  0  0  0  0  0  0
   69.1146   47.8054   52.8807 C   0  0  0  0  0  0  0  0  0  0  0  0
   68.5576   47.3062   51.7331 C   0  0  0  0  0  0  0  0  0  0  0  0
   67.8634   46.1055   51.7285 C   0  0  0  0  0  0  0  0  0  0  0  0
   67.7518   45.4320   52.9139 C   0  0  0  0  0  0  0  0  0  0  0  0
   68.2954   45.8952   54.0922 C   0  0  0  0  0  0  0  0  0  0  0  0
   68.9723   47.0880   54.0443 C   0  0  0  0  0  0  0  0  0  0  0  0
   68.1381   45.1385   55.2838 N   0  0  0  0  0  0  0  0  0  0  0  0
   68.4994   45.6121   56.3778 O   0  0  0  0  0  0  0  0  0  0  0  0
   67.5957   43.8837   55.2848 O   0  0  0  0  0  0  0  0  0  0  0  0
  5  4  1  1
  5  6  1  0
  5 13  1  0
  6  7  1  0
  7  8  2  0
  7 12  1  0
  8  9  1  0
  9 10  2  0
 10 11  1  0
 11 12  2  0
 12 13  1  0
 13  1  1  0
  1  2  2  0
  1  3  2  0
  1 14  1  0
 14 15  2  0
 14 19  1  0
 15 16  1  0
 16 17  2  0
 17 18  1  0
 18 20  1  0
 18 19  2  0
 20 21  2  0
 20 22  1  0
M  CHG  2  20   1  22  -1
M  END
>  <minimizedAffinity>  (29) 
-9.41344

$$$$
data/reference_output_2/data/smiles/192927.pdb
     RDKit          3D

 23 25  0  0  0  0  0  0  0  0999 V2000
   69.1242   45.2175   56.6834 C   0  0  0  0  0  0  0  0  0  0  0  0
   70.2219   45.8387   57.2446 N   0  0  0  0  0  0  0  0  0  0  0  0
   71.0825   45.1232   57.9596 C   0  0  0  0  0  0  0  0  0  0  0  0
   70.9320   43.7573   58.1746 C   0  0  0  0  0  0  0  0  0  0  0  0
   69.8436   43.1430   57.6182 C   0  0  0  0  0  0  0  0  0  0  0  0
   68.9986   43.9040   56.9026 N   0  0  0  0  0  0  0  0  0  0  0  0
   69.5867   41.7111   57.7953 C   0  0  0  0  0  0  0  0  0  0  0  0
   70.5622   40.9048   58.3827 C   0  0  0  0  0  0  0  0  0  0  0  0
   70.3840   39.5634   58.5788 C   0  0  0  0  0  0  0  0  0  0  0  0
   69.2171   38.9748   58.1928 C   0  0  0  0  0  0  0  0  0  0  0  0
   68.2433   39.7287   57.6160 C   0  0  0  0  0  0  0  0  0  0  0  0
   68.4345   41.1031   57.4195 C   0  0  0  0  0  0  0  0  0  0  0  0
   68.1952   45.9861   55.9497 N   0  0  0  0  0  0  0  0  0  0  0  0
   69.1313   47.7749   52.8262 C   0  0  0  0  0  0  0  0  0  0  0  0
   68.5981   46.9673   51.8482 C   0  0  0  0  0  0  0  0  0  0  0  0
   67.9333   45.8237   52.2132 C   0  0  0  0  0  0  0  0  0  0  0  0
   67.7924   45.4750   53.5629 C   0  0  0  0  0  0  0  0  0  0  0  0
   68.3108   46.2565   54.5667 C   0  0  0  0  0  0  0  0  0  0  0  0
   68.9823   47.4156   54.1412 C   0  0  0  0  0  0  0  0  0  0  0  0
   69.2687   50.5544   53.2696 N   0  0  0  0  0  0  0  0  0  0  0  0
   69.9996   49.2610   52.4116 S   0  0  0  0  0  0  0  0  0  0  0  0
   69.9312   49.5139   50.9338 O   0  0  0  0  0  0  0  0  0  0  0  0
   71.4353   49.0516   52.7941 O   0  0  0  0  0  0  0  0  0  0  0  0
 20 21  1  0
 21 22  2  0
 21 23  2  0
 21 14  1  0
 14 15  2  0
 14 19  1  0
 15 16  1  0
 16 17  2  0
 17 18  1  0
 18 13  1  0
 18 19  2  0
 13  1  1  0
  1  2  2  0
  1  6  1  0
  2  3  1  0
  3  4  2  0
  4  5  1  0
  5  7  1  0
  5  6  2  0
  7  8  2  0
  7 12  1  0
  8  9  1  0
  9 10  2  0
 10 11  1  0
 11 12  2  0
M  END
>  <minimizedAffinity>  (30) 
-9.39881

$$$$
data/200k_reference_output/data/smiles/31962.pdb
     RDKit          3D

 24 28  0  0  0  0  0  0  0  0999 V2000
   70.5500   48.1104   50.8764 O   0  0  0  0  0  0  0  0  0  0  0  0
   70.2274   48.3686   52.0671 C   0  0  0  0  0  0  0  0  0  0  0  0
   70.7866   49.3959   52.7114 N   0  0  0  0  0  0  0  0  0  0  0  0
   70.4031   49.6296   53.9930 C   0  0  0  0  0  0  0  0  0  0  0  0
   70.8588   50.6313   54.8218 C   0  0  0  0  0  0  0  0  0  0  0  0
   70.1799   50.4518   56.0033 C   0  0  0  0  0  0  0  0  0  0  0  0
   70.2469   51.1740   57.1811 C   0  0  0  0  0  0  0  0  0  0  0  0
   69.4843   50.8396   58.2624 C   0  0  0  0  0  0  0  0  0  0  0  0
   68.6465   49.7561   58.1351 C   0  0  0  0  0  0  0  0  0  0  0  0
   68.5568   49.0042   56.9528 C   0  0  0  0  0  0  0  0  0  0  0  0
   69.3228   49.3478   55.8801 C   0  0  0  0  0  0  0  0  0  0  0  0
   69.4813   48.8540   54.6210 N   0  0  0  0  0  0  0  0  0  0  0  0
   68.9029   47.8127   53.9941 C   0  0  0  0  0  0  0  0  0  0  0  0
   67.9648   46.9918   54.5703 C   0  0  0  0  0  0  0  0  0  0  0  0
   67.3800   45.9132   53.8890 C   0  0  0  0  0  0  0  0  0  0  0  0
   67.7661   45.6743   52.5919 C   0  0  0  0  0  0  0  0  0  0  0  0
   68.7079   46.5011   52.0154 C   0  0  0  0  0  0  0  0  0  0  0  0
   69.2847   47.5630   52.6859 C   0  0  0  0  0  0  0  0  0  0  0  0
   71.8744   51.6926   54.5163 C   0  0  0  0  0  0  0  0  0  0  0  0
   73.2524   51.2234   54.7577 C   0  0  0  0  0  0  0  0  0  0  0  0
   74.1202   51.5653   55.7458 N   0  0  0  0  0  0  0  0  0  0  0  0
   75.2321   50.8870   55.5486 N   0  0  0  0  0  0  0  0  0  0  0  0
   75.1165   50.1214   54.4714 N   0  0  0  0  0  0  0  0  0  0  0  0
   73.9073   50.3268   53.9899 N   0  0  0  0  0  0  0  0  0  0  0  0
  1  2  2  0
  2  3  1  0
  2 18  1  0
  3  4  1  0
  4  5  2  0
  4 12  1  0
  5 19  1  0
  5  6  1  0
 19 20  1  0
 20 21  2  0
 20 24  1  0
 21 22  1  0
 22 23  2  0
 23 24  1  0
  6  7  2  0
  6 11  1  0
  7  8  1  0
  8  9  2  0
  9 10  1  0
 10 11  2  0
 11 12  1  0
 12 13  1  0
 13 14  1  0
 13 18  2  0
 14 15  2  0
 15 16  1  0
 16 17  2  0
 17 18  1  0
M  END
>  <minimizedAffinity>  (31) 
-9.34018

$$$$
data/reference_output_2/data/smiles/132901.pdb
     RDKit          3D

 23 24  0  0  0  0  0  0  0  0999 V2000
   69.5614   47.8318   54.8085 C   0  0  0  0  0  0  0  0  0  0  0  0
   69.1441   47.6282   52.3042 C   0  0  0  0  0  0  0  0  0  0  0  0
   68.3980   47.0539   51.3073 N   0  0  0  0  0  0  0  0  0  0  0  0
   67.4737   46.1213   51.5362 C   0  0  0  0  0  0  0  0  0  0  0  0
   66.7904   45.6004   50.5963 O   0  0  0  0  0  0  0  0  0  0  0  0
   67.2860   45.7462   52.8106 N   0  0  0  0  0  0  0  0  0  0  0  0
   67.9712   46.2598   53.8284 C   0  0  0  0  0  0  0  0  0  0  0  0
   67.7599   45.8732   55.0215 O   0  0  0  0  0  0  0  0  0  0  0  0
   68.9408   47.2414   53.5926 C   0  0  0  0  0  0  0  0  0  0  0  0
   69.8802   49.4224   51.0051 O   0  0  0  0  0  0  0  0  0  0  0  0
   70.1628   48.5819   51.9299 C   0  0  0  0  0  0  0  0  0  0  0  0
   71.4202   48.7032   52.4407 O   0  0  0  0  0  0  0  0  0  0  0  0
   69.2933   49.3065   54.9622 C   0  0  0  0  0  0  0  0  0  0  0  0
   68.4504   49.7063   56.0631 C   0  0  0  0  0  0  0  0  0  0  0  0
   67.8628   48.6640   56.8046 C   0  0  0  0  0  0  0  0  0  0  0  0
   67.0033   48.9401   57.8350 C   0  0  0  0  0  0  0  0  0  0  0  0
   66.7163   50.2387   58.1421 C   0  0  0  0  0  0  0  0  0  0  0  0
   67.2853   51.2462   57.4254 C   0  0  0  0  0  0  0  0  0  0  0  0
   68.1725   51.0170   56.3607 C   0  0  0  0  0  0  0  0  0  0  0  0
   68.8146   52.1093   55.6449 C   0  0  0  0  0  0  0  0  0  0  0  0
   68.6572   53.2608   56.4471 F   0  0  0  0  0  0  0  0  0  0  0  0
   68.3237   52.4584   54.4350 F   0  0  0  0  0  0  0  0  0  0  0  0
   70.2104   51.9532   55.6032 F   0  0  0  0  0  0  0  0  0  0  0  0
 10 11  2  0
 11 12  1  0
 11  2  1  0
  2  3  1  0
  2  9  2  0
  3  4  1  0
  4  5  2  0
  4  6  1  0
  6  7  1  0
  7  8  2  0
  7  9  1  0
  9  1  1  0
  1 13  1  0
 13 14  1  0
 14 15  2  0
 14 19  1  0
 15 16  1  0
 16 17  2  0
 17 18  1  0
 18 19  2  0
 19 20  1  0
 20 21  1  0
 20 22  1  0
 20 23  1  0
M  END
>  <minimizedAffinity>  (32) 
-9.33331

$$$$
data/200k_reference_output/data/smiles/86908.pdb
     RDKit          3D

 24 25  0  0  0  0  0  0  0  0999 V2000
   73.8625   50.6581   53.6679 O   0  0  0  0  0  0  0  0  0  0  0  0
   73.1066   50.6132   54.6458 C   0  0  0  0  0  0  0  0  0  0  0  0
   73.9536   50.3782   56.0961 N   0  0  0  0  0  0  0  0  0  0  0  0
   75.1837   50.0129   55.4682 C   0  0  0  0  0  0  0  0  0  0  0  0
   75.4138   49.3706   54.5436 O   0  0  0  0  0  0  0  0  0  0  0  0
   76.2944   50.6687   56.2813 N   0  0  0  0  0  0  0  0  0  0  0  0
   71.7358   50.7568   54.4004 C   0  0  0  0  0  0  0  0  0  0  0  0
   71.7391   49.4961   53.3336 O   0  0  0  0  0  0  0  0  0  0  0  0
   70.4662   49.2550   52.9896 C   0  0  0  0  0  0  0  0  0  0  0  0
   69.9008   50.2427   52.2304 O   0  0  0  0  0  0  0  0  0  0  0  0
   69.5311   48.1832   53.2274 C   0  0  0  0  0  0  0  0  0  0  0  0
   68.8649   47.9444   54.3527 C   0  0  0  0  0  0  0  0  0  0  0  0
   67.9722   46.8320   54.5811 C   0  0  0  0  0  0  0  0  0  0  0  0
   67.8976   46.0364   53.4871 C   0  0  0  0  0  0  0  0  0  0  0  0
   68.5280   46.1719   52.3143 C   0  0  0  0  0  0  0  0  0  0  0  0
   69.3344   47.2033   52.1525 C   0  0  0  0  0  0  0  0  0  0  0  0
   70.1030   47.4816   51.0018 O   0  0  0  0  0  0  0  0  0  0  0  0
   77.5851   50.8501   55.9208 C   0  0  0  0  0  0  0  0  0  0  0  0
   78.6019   50.2720   56.8725 C   0  0  0  0  0  0  0  0  0  0  0  0
   79.4593   49.3392   56.4007 C   0  0  0  0  0  0  0  0  0  0  0  0
   80.3165   48.6563   57.2875 C   0  0  0  0  0  0  0  0  0  0  0  0
   80.2968   48.9207   58.5924 C   0  0  0  0  0  0  0  0  0  0  0  0
   79.3875   49.9256   59.1762 C   0  0  0  0  0  0  0  0  0  0  0  0
   78.6348   50.4922   58.2053 C   0  0  0  0  0  0  0  0  0  0  0  0
  1  2  2  0
  2  7  1  0
  2  3  1  0
  7  8  1  0
  8  9  1  0
  9 10  2  0
  9 11  1  0
 11 12  2  0
 11 16  1  0
 12 13  1  0
 13 14  2  0
 14 15  1  0
 15 16  2  0
 16 17  1  0
  3  4  1  0
  4  5  2  0
  4  6  1  0
  6 18  1  0
 18 19  1  0
 19 20  2  0
 19 24  1  0
 20 21  1  0
 21 22  2  0
 22 23  1  0
 23 24  2  0
M  END
>  <minimizedAffinity>  (33) 
-9.31822

$$$$
data/reference_output_2/data/smiles/138614.pdb
     RDKit          3D

 24 26  0  0  0  0  0  0  0  0999 V2000
   67.4454   42.1971   55.6963 O   0  0  0  0  0  0  0  0  0  0  0  0
   68.1744   42.8396   56.4603 C   0  0  0  0  0  0  0  0  0  0  0  0
   68.3449   44.2297   56.0981 N   0  0  0  0  0  0  0  0  0  0  0  0
   68.8102   42.3056   57.6085 C   0  0  0  0  0  0  0  0  0  0  0  0
   69.1975   43.2378   58.4624 O   0  0  0  0  0  0  0  0  0  0  0  0
   69.0810   40.9548   57.9841 C   0  0  0  0  0  0  0  0  0  0  0  0
   68.0334   39.9817   57.9762 C   0  0  0  0  0  0  0  0  0  0  0  0
   68.5521   38.7797   58.2382 N   0  0  0  0  0  0  0  0  0  0  0  0
   69.8603   38.8617   58.4239 C   0  0  0  0  0  0  0  0  0  0  0  0
   70.8142   37.9510   58.7251 C   0  0  0  0  0  0  0  0  0  0  0  0
   72.1478   38.3424   58.8907 C   0  0  0  0  0  0  0  0  0  0  0  0
   72.4842   39.6592   58.7471 C   0  0  0  0  0  0  0  0  0  0  0  0
   71.5072   40.5987   58.4376 C   0  0  0  0  0  0  0  0  0  0  0  0
   70.1883   40.2128   58.2686 C   0  0  0  0  0  0  0  0  0  0  0  0
   67.7013   44.7149   54.9764 N   0  0  0  0  0  0  0  0  0  0  0  0
   68.2469   45.7904   54.1804 C   0  0  0  0  0  0  0  0  0  0  0  0
   68.7965   46.8908   54.8081 C   0  0  0  0  0  0  0  0  0  0  0  0
   69.3335   47.9709   54.0933 C   0  0  0  0  0  0  0  0  0  0  0  0
   69.3251   47.9601   52.7169 C   0  0  0  0  0  0  0  0  0  0  0  0
   68.7790   46.8667   52.0895 C   0  0  0  0  0  0  0  0  0  0  0  0
   68.2440   45.7893   52.8070 C   0  0  0  0  0  0  0  0  0  0  0  0
   69.8679   49.0467   51.9593 N   0  0  0  0  0  0  0  0  0  0  0  0
   70.4976   48.7738   50.9240 O   0  0  0  0  0  0  0  0  0  0  0  0
   69.7342   50.3632   52.3045 O   0  0  0  0  0  0  0  0  0  0  0  0
  1  2  2  0
  2  3  1  0
  2  4  1  0
  3 15  1  0
 15 16  1  0
 16 17  2  0
 16 21  1  0
 17 18  1  0
 18 19  2  0
 19 22  1  0
 19 20  1  0
 22 23  2  0
 22 24  1  0
 20 21  2  0
  4  5  2  0
  4  6  1  0
  6  7  2  0
  6 14  1  0
  7  8  1  0
  8  9  1  0
  9 10  1  0
  9 14  2  0
 10 11  2  0
 11 12  1  0
 12 13  2  0
 13 14  1  0
M  CHG  2  22   1  24  -1
M  END
>  <minimizedAffinity>  (34) 
-9.30997

$$$$
data/reference_output_2/data/smiles/162004.pdb
     RDKit          3D

 24 26  0  0  0  0  0  0  0  0999 V2000
   72.2553   51.0525   54.8790 C   0  0  2  0  0  0  0  0  0  0  0  0
   70.2863   50.8186   53.0089 O   0  0  0  0  0  0  0  0  0  0  0  0
   70.5392   49.7051   53.5961 C   0  0  0  0  0  0  0  0  0  0  0  0
   71.5468   49.7917   54.5635 N   0  0  0  0  0  0  0  0  0  0  0  0
   69.7835   48.5372   53.2046 C   0  0  0  0  0  0  0  0  0  0  0  0
   68.9659   47.9439   54.1481 C   0  0  0  0  0  0  0  0  0  0  0  0
   68.2084   46.8295   53.8759 C   0  0  0  0  0  0  0  0  0  0  0  0
   68.2255   46.2379   52.6318 C   0  0  0  0  0  0  0  0  0  0  0  0
   69.0350   46.8167   51.6779 C   0  0  0  0  0  0  0  0  0  0  0  0
   69.8019   47.9520   51.9702 C   0  0  0  0  0  0  0  0  0  0  0  0
   70.5947   48.4787   50.9558 O   0  0  0  0  0  0  0  0  0  0  0  0
   73.6859   50.9319   54.6003 C   0  0  0  0  0  0  0  0  0  0  0  0
   74.1063   50.2282   53.6153 O   0  0  0  0  0  0  0  0  0  0  0  0
   74.6933   51.5379   55.3294 O   0  0  0  0  0  0  0  0  0  0  0  0
   71.8693   51.3365   56.3003 C   0  0  0  0  0  0  0  0  0  0  0  0
   70.4786   51.7055   56.5351 C   0  0  0  0  0  0  0  0  0  0  0  0
   69.9575   52.9874   56.3884 C   0  0  0  0  0  0  0  0  0  0  0  0
   68.6567   52.9752   56.7141 N   0  0  0  0  0  0  0  0  0  0  0  0
   68.2945   51.7103   57.0743 C   0  0  0  0  0  0  0  0  0  0  0  0
   67.0825   51.1919   57.4718 C   0  0  0  0  0  0  0  0  0  0  0  0
   66.9595   49.8592   57.7719 C   0  0  0  0  0  0  0  0  0  0  0  0
   68.0987   49.0884   57.6536 C   0  0  0  0  0  0  0  0  0  0  0  0
   69.3080   49.6011   57.2591 C   0  0  0  0  0  0  0  0  0  0  0  0
   69.4460   50.9314   56.9561 C   0  0  0  0  0  0  0  0  0  0  0  0
  2  3  2  0
  3  4  1  0
  3  5  1  0
  4  1  1  0
  1 15  1  1
  1 12  1  0
 15 16  1  0
 16 17  2  0
 16 24  1  0
 17 18  1  0
 18 19  1  0
 19 20  1  0
 19 24  2  0
 20 21  2  0
 21 22  1  0
 22 23  2  0
 23 24  1  0
 12 13  2  0
 12 14  1  0
  5  6  2  0
  5 10  1  0
  6  7  1  0
  7  8  2  0
  8  9  1  0
  9 10  2  0
 10 11  1  0
M  END
>  <minimizedAffinity>  (35) 
-9.28267

$$$$
data/reference_output_2/data/smiles/127738.pdb
     RDKit          3D

 25 27  0  0  0  0  0  0  0  0999 V2000
   68.6934   47.7069   56.6442 C   0  0  0  0  0  0  0  0  0  0  0  0
   67.4307   47.5507   56.7972 O   0  0  0  0  0  0  0  0  0  0  0  0
   69.1307   48.0394   55.3097 C   0  0  0  0  0  0  0  0  0  0  0  0
   69.9841   49.1334   55.1029 C   0  0  0  0  0  0  0  0  0  0  0  0
   70.4467   49.5191   53.8765 C   0  0  0  0  0  0  0  0  0  0  0  0
   71.2106   50.5057   53.7280 O   0  0  0  0  0  0  0  0  0  0  0  0
   70.0875   48.8396   52.7788 N   0  0  0  0  0  0  0  0  0  0  0  0
   69.2745   47.7847   52.9124 C   0  0  0  0  0  0  0  0  0  0  0  0
   68.9258   47.1091   51.7668 C   0  0  0  0  0  0  0  0  0  0  0  0
   68.0904   46.0142   51.8430 C   0  0  0  0  0  0  0  0  0  0  0  0
   67.6160   45.6139   53.0776 C   0  0  0  0  0  0  0  0  0  0  0  0
   67.9660   46.2922   54.2256 C   0  0  0  0  0  0  0  0  0  0  0  0
   68.7865   47.3691   54.1617 C   0  0  0  0  0  0  0  0  0  0  0  0
   69.4229   47.5326   57.7790 O   0  0  0  0  0  0  0  0  0  0  0  0
   70.4813   46.6071   57.8026 C   0  0  0  0  0  0  0  0  0  0  0  0
   69.7696   44.7346   59.1645 O   0  0  0  0  0  0  0  0  0  0  0  0
   69.9764   45.2118   58.0186 C   0  0  0  0  0  0  0  0  0  0  0  0
   69.6988   44.3348   56.9328 N   0  0  0  0  0  0  0  0  0  0  0  0
   69.2223   43.0144   57.1180 C   0  0  0  0  0  0  0  0  0  0  0  0
   69.7831   42.0909   57.9449 C   0  0  0  0  0  0  0  0  0  0  0  0
   69.2603   40.8175   58.0751 C   0  0  0  0  0  0  0  0  0  0  0  0
   68.1304   40.4387   57.3535 C   0  0  0  0  0  0  0  0  0  0  0  0
   67.5657   41.3689   56.5213 C   0  0  0  0  0  0  0  0  0  0  0  0
   68.0974   42.6217   56.4072 C   0  0  0  0  0  0  0  0  0  0  0  0
   67.4914   43.5089   55.5598 F   0  0  0  0  0  0  0  0  0  0  0  0
 16 17  2  0
 17 15  1  0
 17 18  1  0
 15 14  1  0
 14  1  1  0
  1  2  2  0
  1  3  1  0
  3  4  2  0
  3 13  1  0
  4  5  1  0
  5  6  2  0
  5  7  1  0
  7  8  1  0
  8  9  1  0
  8 13  2  0
  9 10  2  0
 10 11  1  0
 11 12  2  0
 12 13  1  0
 18 19  1  0
 19 20  2  0
 19 24  1  0
 20 21  1  0
 21 22  2  0
 22 23  1  0
 23 24  2  0
 24 25  1  0
M  END
>  <minimizedAffinity>  (36) 
-9.27482

$$$$
data/reference_output_2/data/smiles/168102.pdb
     RDKit          3D

 24 26  0  0  0  0  0  0  0  0999 V2000
   69.9916   39.5278   58.8538 C   0  0  0  0  0  0  0  0  0  0  0  0
   70.5536   40.7875   58.8470 C   0  0  0  0  0  0  0  0  0  0  0  0
   70.0232   41.8122   58.0752 C   0  0  0  0  0  0  0  0  0  0  0  0
   68.9115   41.6170   57.2808 C   0  0  0  0  0  0  0  0  0  0  0  0
   68.3464   40.3593   57.2849 C   0  0  0  0  0  0  0  0  0  0  0  0
   68.8794   39.3366   58.0586 C   0  0  0  0  0  0  0  0  0  0  0  0
   67.2330   40.4205   56.4003 N   0  0  0  0  0  0  0  0  0  0  0  0
   67.0983   41.7143   55.8403 C   0  0  0  0  0  0  0  0  0  0  0  0
   66.2504   42.1584   55.0280 O   0  0  0  0  0  0  0  0  0  0  0  0
   68.1770   42.5189   56.3946 C   0  0  0  0  0  0  0  0  0  0  0  0
   68.4051   43.7685   56.1329 N   0  0  0  0  0  0  0  0  0  0  0  0
   71.3694   37.4631   58.8498 C   0  0  0  0  0  0  0  0  0  0  0  0
   70.5634   38.4227   59.6878 C   0  0  0  0  0  0  0  0  0  0  0  0
   67.6096   44.5035   55.2572 N   0  0  0  0  0  0  0  0  0  0  0  0
   68.1539   45.6508   54.6342 C   0  0  0  0  0  0  0  0  0  0  0  0
   68.7333   46.6451   55.3933 C   0  0  0  0  0  0  0  0  0  0  0  0
   69.2787   47.7833   54.8431 C   0  0  0  0  0  0  0  0  0  0  0  0
   69.2556   47.9585   53.4770 C   0  0  0  0  0  0  0  0  0  0  0  0
   68.6861   46.9898   52.6925 C   0  0  0  0  0  0  0  0  0  0  0  0
   68.1412   45.8484   53.2697 C   0  0  0  0  0  0  0  0  0  0  0  0
   69.9612   49.4208   52.8306 S   0  0  0  0  0  0  0  0  0  0  0  0
   69.8615   49.4768   51.1057 N   0  0  0  0  0  0  0  0  0  0  0  0
   71.4251   49.5132   53.1917 O   0  0  0  0  0  0  0  0  0  0  0  0
   69.3073   50.6401   53.4412 O   0  0  0  0  0  0  0  0  0  0  0  0
 12 13  1  0
 13  1  1  0
  1  2  2  0
  1  6  1  0
  2  3  1  0
  3  4  2  0
  4  5  1  0
  4 10  1  0
  5  6  2  0
  5  7  1  0
  7  8  1  0
  8  9  2  0
  8 10  1  0
 10 11  2  0
 11 14  1  0
 14 15  1  0
 15 16  2  0
 15 20  1  0
 16 17  1  0
 17 18  2  0
 18 21  1  0
 18 19  1  0
 21 22  1  0
 21 23  2  0
 21 24  2  0
 19 20  2  0
M  END
>  <minimizedAffinity>  (37) 
-9.26663

$$$$
data/200k_reference_output/data/smiles/52994.pdb
     RDKit          3D

 22 23  0  0  0  0  0  0  0  0999 V2000
   68.5100   46.1536   56.3005 N   0  0  0  0  0  0  0  0  0  0  0  0
   68.2400   45.4346   55.1236 C   0  0  0  0  0  0  0  0  0  0  0  0
   67.8718   44.2133   55.1880 N   0  0  0  0  0  0  0  0  0  0  0  0
   68.3719   46.0537   53.8185 C   0  0  0  0  0  0  0  0  0  0  0  0
   67.6210   45.5618   52.7751 C   0  0  0  0  0  0  0  0  0  0  0  0
   67.6908   46.0970   51.5084 C   0  0  0  0  0  0  0  0  0  0  0  0
   68.5407   47.1566   51.2838 C   0  0  0  0  0  0  0  0  0  0  0  0
   69.3161   47.6843   52.3035 C   0  0  0  0  0  0  0  0  0  0  0  0
   69.2115   47.1128   53.5638 C   0  0  0  0  0  0  0  0  0  0  0  0
   70.1785   48.7700   52.0476 N   0  0  0  0  0  0  0  0  0  0  0  0
   69.9802   49.4943   51.0679 O   0  0  0  0  0  0  0  0  0  0  0  0
   71.2284   49.0245   52.8753 O   0  0  0  0  0  0  0  0  0  0  0  0
   67.7411   43.6081   56.4068 O   0  0  0  0  0  0  0  0  0  0  0  0
   67.6828   42.2499   56.6100 C   0  0  0  0  0  0  0  0  0  0  0  0
   66.6679   41.6438   56.1817 O   0  0  0  0  0  0  0  0  0  0  0  0
   68.7285   41.4916   57.2890 C   0  0  0  0  0  0  0  0  0  0  0  0
   69.9552   42.0640   57.5468 C   0  0  0  0  0  0  0  0  0  0  0  0
   70.9687   41.3587   58.1930 C   0  0  0  0  0  0  0  0  0  0  0  0
   70.7548   40.0555   58.5921 C   0  0  0  0  0  0  0  0  0  0  0  0
   69.5441   39.4710   58.3446 C   0  0  0  0  0  0  0  0  0  0  0  0
   69.2854   38.1855   58.7187 F   0  0  0  0  0  0  0  0  0  0  0  0
   68.5392   40.1890   57.6960 C   0  0  0  0  0  0  0  0  0  0  0  0
  1  2  1  0
  2  3  2  0
  2  4  1  0
  3 13  1  0
 13 14  1  0
 14 15  2  0
 14 16  1  0
 16 17  2  0
 16 22  1  0
 17 18  1  0
 18 19  2  0
 19 20  1  0
 20 21  1  0
 20 22  2  0
  4  5  2  0
  4  9  1  0
  5  6  1  0
  6  7  2  0
  7  8  1  0
  8 10  1  0
  8  9  2  0
 10 11  2  0
 10 12  1  0
M  CHG  3   3   1  10   1  12  -1
M  END
>  <minimizedAffinity>  (38) 
-9.25515

$$$$
data/reference_output_2/data/smiles/145384.pdb
     RDKit          3D

 24 26  0  0  0  0  0  0  0  0999 V2000
   70.7247   46.5680   59.3211 O   0  0  0  0  0  0  0  0  0  0  0  0
   70.8318   45.8188   58.3130 C   0  0  0  0  0  0  0  0  0  0  0  0
   69.8339   46.0318   57.2999 N   0  0  0  0  0  0  0  0  0  0  0  0
   71.8842   44.8213   58.1946 C   0  0  0  0  0  0  0  0  0  0  0  0
   71.6787   43.5257   57.7942 C   0  0  0  0  0  0  0  0  0  0  0  0
   72.7384   42.6130   57.7006 C   0  0  0  0  0  0  0  0  0  0  0  0
   74.0302   42.9770   58.0070 C   0  0  0  0  0  0  0  0  0  0  0  0
   75.0494   42.0950   57.9167 N   0  0  0  0  0  0  0  0  0  0  0  0
   76.3206   42.4271   58.2100 C   0  0  0  0  0  0  0  0  0  0  0  0
   76.5726   43.7376   58.6218 C   0  0  0  0  0  0  0  0  0  0  0  0
   75.5441   44.6426   58.7179 C   0  0  0  0  0  0  0  0  0  0  0  0
   74.2497   44.2821   58.4116 C   0  0  0  0  0  0  0  0  0  0  0  0
   73.1988   45.1720   58.5006 C   0  0  0  0  0  0  0  0  0  0  0  0
   68.8464   46.9629   57.4037 N   0  0  0  0  0  0  0  0  0  0  0  0
   68.2378   47.4566   56.4181 C   0  0  0  0  0  0  0  0  0  0  0  0
   68.4167   47.1828   55.0002 C   0  0  0  0  0  0  0  0  0  0  0  0
   67.8230   46.1920   54.2910 C   0  0  0  0  0  0  0  0  0  0  0  0
   68.0647   46.0158   52.9243 C   0  0  0  0  0  0  0  0  0  0  0  0
   68.9111   46.8362   52.2414 C   0  0  0  0  0  0  0  0  0  0  0  0
   69.5304   47.8600   52.9484 C   0  0  0  0  0  0  0  0  0  0  0  0
   69.2798   48.0117   54.2807 C   0  0  0  0  0  0  0  0  0  0  0  0
   70.4158   48.7230   52.2474 N   0  0  0  0  0  0  0  0  0  0  0  0
   71.5239   49.0023   52.7360 O   0  0  0  0  0  0  0  0  0  0  0  0
   70.0750   49.2536   51.0435 O   0  0  0  0  0  0  0  0  0  0  0  0
  1  2  2  0
  2  3  1  0
  2  4  1  0
  3 14  1  0
 14 15  2  0
 15 16  1  0
 16 17  2  0
 16 21  1  0
 17 18  1  0
 18 19  2  0
 19 20  1  0
 20 22  1  0
 20 21  2  0
 22 23  2  0
 22 24  1  0
  4  5  2  0
  4 13  1  0
  5  6  1  0
  6  7  2  0
  7  8  1  0
  7 12  1  0
  8  9  2  0
  9 10  1  0
 10 11  2  0
 11 12  1  0
 12 13  2  0
M  CHG  2  22   1  24  -1
M  END
>  <minimizedAffinity>  (39) 
-9.25479

$$$$
data/reference_output_2/data/smiles/196918.pdb
     RDKit          3D

 24 27  0  0  0  0  0  0  0  0999 V2000
   69.3972   48.3936   53.0544 C   0  0  0  0  0  0  0  0  0  0  0  0
   69.6985   48.0697   51.7282 C   0  0  0  0  0  0  0  0  0  0  0  0
   70.0356   49.2314   51.1428 N   0  0  0  0  0  0  0  0  0  0  0  0
   69.9579   50.2062   52.0094 N   0  0  0  0  0  0  0  0  0  0  0  0
   69.5616   49.7185   53.2114 C   0  0  0  0  0  0  0  0  0  0  0  0
   69.1982   46.9426   57.6734 N   0  0  0  0  0  0  0  0  0  0  0  0
   68.9090   46.7030   56.2915 C   0  0  0  0  0  0  0  0  0  0  0  0
   69.2765   47.6212   55.3323 C   0  0  0  0  0  0  0  0  0  0  0  0
   68.9982   47.3911   54.0047 C   0  0  0  0  0  0  0  0  0  0  0  0
   68.3513   46.2373   53.6528 C   0  0  0  0  0  0  0  0  0  0  0  0
   67.9926   45.3328   54.6229 C   0  0  0  0  0  0  0  0  0  0  0  0
   68.2746   45.5795   55.9136 N   0  0  0  0  0  0  0  0  0  0  0  0
   69.3619   50.5327   54.3983 C   0  0  2  0  0  0  0  0  0  0  0  0
   68.3319   51.6238   54.2130 C   0  0  0  0  0  0  0  0  0  0  0  0
   68.6219   52.4788   55.4295 C   0  0  0  0  0  0  0  0  0  0  0  0
   70.0899   52.4917   55.5074 N   0  0  0  0  0  0  0  0  0  0  0  0
   70.8612   53.4298   56.2420 C   0  0  0  0  0  0  0  0  0  0  0  0
   70.1843   54.3262   56.8699 O   0  0  0  0  0  0  0  0  0  0  0  0
   70.5966   51.3990   54.7075 C   0  0  0  0  0  0  0  0  0  0  0  0
   72.3269   53.4532   56.3370 C   0  0  0  0  0  0  0  0  0  0  0  0
   72.8884   53.4400   57.7131 C   0  0  0  0  0  0  0  0  0  0  0  0
   73.7084   54.6724   57.8397 C   0  0  0  0  0  0  0  0  0  0  0  0
   74.2227   54.8963   56.4361 C   0  0  0  0  0  0  0  0  0  0  0  0
   72.9986   54.5651   55.5872 C   0  0  0  0  0  0  0  0  0  0  0  0
  6  7  1  0
  7  8  2  0
  7 12  1  0
  8  9  1  0
  9  1  1  0
  9 10  2  0
  1  2  2  0
  1  5  1  0
  2  3  1  0
  3  4  1  0
  4  5  2  0
 13  5  1  6
 13 14  1  0
 13 19  1  0
 14 15  1  0
 15 16  1  0
 16 17  1  0
 16 19  1  0
 17 18  2  0
 17 20  1  0
 20 21  1  0
 20 24  1  0
 21 22  1  0
 22 23  1  0
 23 24  1  0
 10 11  1  0
 11 12  2  0
M  END
>  <minimizedAffinity>  (40) 
-9.24863

$$$$
data/reference_output_2/data/smiles/92633.pdb
     RDKit          3D

 25 27  0  0  0  0  0  0  0  0999 V2000
   68.0793   45.2013   54.9146 C   0  0  0  0  0  0  0  0  0  0  0  0
   67.6384   44.8926   53.6420 C   0  0  0  0  0  0  0  0  0  0  0  0
   67.6725   45.6234   52.4730 C   0  0  0  0  0  0  0  0  0  0  0  0
   66.9995   45.1257   51.3660 O   0  0  0  0  0  0  0  0  0  0  0  0
   68.3355   46.8414   52.2981 C   0  0  0  0  0  0  0  0  0  0  0  0
   68.4293   47.1842   51.0903 O   0  0  0  0  0  0  0  0  0  0  0  0
   68.8841   47.6898   53.2370 C   0  0  0  0  0  0  0  0  0  0  0  0
   69.4569   48.8087   52.6696 C   0  0  0  0  0  0  0  0  0  0  0  0
   69.4408   48.9836   51.2875 O   0  0  0  0  0  0  0  0  0  0  0  0
   70.0608   49.7798   53.4608 C   0  0  0  0  0  0  0  0  0  0  0  0
   70.6401   50.9084   52.8967 O   0  0  0  0  0  0  0  0  0  0  0  0
   70.0863   49.6211   54.8341 C   0  0  0  0  0  0  0  0  0  0  0  0
   70.6698   50.5572   55.6262 F   0  0  0  0  0  0  0  0  0  0  0  0
   69.5022   48.4855   55.3990 C   0  0  0  0  0  0  0  0  0  0  0  0
   68.9081   47.5295   54.6121 C   0  0  0  0  0  0  0  0  0  0  0  0
   68.3862   46.4793   55.3532 C   0  0  0  0  0  0  0  0  0  0  0  0
   69.1360   44.2069   56.7022 O   0  0  0  0  0  0  0  0  0  0  0  0
   68.2256   44.0958   55.8529 C   0  0  0  0  0  0  0  0  0  0  0  0
   67.4383   42.9365   55.8760 N   0  0  0  0  0  0  0  0  0  0  0  0
   67.5062   41.8326   56.7313 C   0  0  0  0  0  0  0  0  0  0  0  0
   68.1782   40.6670   56.4914 C   0  0  0  0  0  0  0  0  0  0  0  0
   68.1784   39.6184   57.4239 C   0  0  0  0  0  0  0  0  0  0  0  0
   67.5099   39.7042   58.6192 C   0  0  0  0  0  0  0  0  0  0  0  0
   66.8321   40.8692   58.8693 C   0  0  0  0  0  0  0  0  0  0  0  0
   66.8326   41.8870   57.9625 C   0  0  0  0  0  0  0  0  0  0  0  0
 17 18  2  0
 18 19  1  0
 18  1  1  0
 19 20  1  0
 20 21  2  0
 20 25  1  0
 21 22  1  0
 22 23  2  0
 23 24  1  0
 24 25  2  0
  1  2  1  0
  1 16  2  0
  2  3  2  0
  3  4  1  0
  3  5  1  0
  5  6  2  0
  5  7  1  0
  7  8  1  0
  7 15  2  0
  8  9  1  0
  8 10  2  0
 10 11  1  0
 10 12  1  0
 12 13  1  0
 12 14  2  0
 14 15  1  0
 15 16  1  0
M  END
>  <minimizedAffinity>  (41) 
-9.24558

$$$$
data/reference_output_2/data/smiles/185183.pdb
     RDKit          3D

 23 25  0  0  0  0  0  0  0  0999 V2000
   71.8466   49.8140   54.3947 O   0  0  0  0  0  0  0  0  0  0  0  0
   70.8160   49.9926   53.4968 C   0  0  0  0  0  0  0  0  0  0  0  0
   70.3438   51.1438   53.3515 O   0  0  0  0  0  0  0  0  0  0  0  0
   70.2710   48.8853   52.7213 C   0  0  0  0  0  0  0  0  0  0  0  0
   70.5175   48.6057   51.4204 N   0  0  0  0  0  0  0  0  0  0  0  0
   69.8553   47.5291   51.0477 N   0  0  0  0  0  0  0  0  0  0  0  0
   69.1355   47.0375   52.0829 C   0  0  0  0  0  0  0  0  0  0  0  0
   68.2914   45.9518   52.2162 C   0  0  0  0  0  0  0  0  0  0  0  0
   67.6862   45.7024   53.4292 C   0  0  0  0  0  0  0  0  0  0  0  0
   67.9420   46.5527   54.4926 C   0  0  0  0  0  0  0  0  0  0  0  0
   68.7898   47.6301   54.3317 C   0  0  0  0  0  0  0  0  0  0  0  0
   69.4010   47.8961   53.1319 C   0  0  0  0  0  0  0  0  0  0  0  0
   71.7752   50.4708   55.6417 C   0  0  0  0  0  0  0  0  0  0  0  0
   71.4727   48.7032   57.1927 O   0  0  0  0  0  0  0  0  0  0  0  0
   70.9657   49.6951   56.6130 C   0  0  0  0  0  0  0  0  0  0  0  0
   69.5962   50.0668   56.9026 C   0  0  0  0  0  0  0  0  0  0  0  0
   69.1419   51.3589   56.7385 C   0  0  0  0  0  0  0  0  0  0  0  0
   67.8381   51.7240   57.0116 C   0  0  0  0  0  0  0  0  0  0  0  0
   66.9522   50.7684   57.4643 C   0  0  0  0  0  0  0  0  0  0  0  0
   65.6765   51.1480   57.7264 F   0  0  0  0  0  0  0  0  0  0  0  0
   67.3774   49.4565   57.6402 C   0  0  0  0  0  0  0  0  0  0  0  0
   66.4682   48.5575   58.0868 F   0  0  0  0  0  0  0  0  0  0  0  0
   68.6868   49.1382   57.3556 C   0  0  0  0  0  0  0  0  0  0  0  0
 14 15  2  0
 15 13  1  0
 15 16  1  0
 13  1  1  0
  1  2  1  0
  2  3  2  0
  2  4  1  0
  4  5  1  0
  4 12  2  0
  5  6  1  0
  6  7  2  0
  7  8  1  0
  7 12  1  0
  8  9  2  0
  9 10  1  0
 10 11  2  0
 11 12  1  0
 16 17  2  0
 16 23  1  0
 17 18  1  0
 18 19  2  0
 19 20  1  0
 19 21  1  0
 21 22  1  0
 21 23  2  0
M  END
>  <minimizedAffinity>  (42) 
-9.24275

$$$$
data/200k_reference_output/data/smiles/48740.pdb
     RDKit          3D

 23 24  0  0  0  0  0  0  0  0999 V2000
   69.9087   49.1845   52.4756 S   0  0  0  0  0  0  0  0  0  0  0  0
   70.0192   49.4894   51.0034 O   0  0  0  0  0  0  0  0  0  0  0  0
   69.0807   50.3078   53.0733 O   0  0  0  0  0  0  0  0  0  0  0  0
   69.0770   47.7033   52.7791 C   0  0  0  0  0  0  0  0  0  0  0  0
   68.4866   47.0396   51.7264 C   0  0  0  0  0  0  0  0  0  0  0  0
   67.8305   45.8589   52.0029 C   0  0  0  0  0  0  0  0  0  0  0  0
   67.7546   45.3395   53.2904 C   0  0  0  0  0  0  0  0  0  0  0  0
   68.3462   46.0025   54.3551 C   0  0  0  0  0  0  0  0  0  0  0  0
   69.0003   47.1804   54.0721 C   0  0  0  0  0  0  0  0  0  0  0  0
   68.2810   45.4876   55.6776 N   0  0  0  0  0  0  0  0  0  0  0  0
   68.0402   44.2981   55.9326 O   0  0  0  0  0  0  0  0  0  0  0  0
   68.4895   46.3285   56.7339 O   0  0  0  0  0  0  0  0  0  0  0  0
   71.4641   49.2819   53.1551 N   0  0  0  0  0  0  0  0  0  0  0  0
   72.9290   50.8875   54.3558 C   0  0  0  0  0  0  0  0  0  0  0  0
   73.9435   50.3695   53.8198 O   0  0  0  0  0  0  0  0  0  0  0  0
   71.6592   50.3371   54.0217 N   0  0  0  0  0  0  0  0  0  0  0  0
   73.7108   53.3649   53.3473 C   0  0  0  0  0  0  0  0  0  0  0  0
   73.4884   53.2336   54.7977 C   0  0  0  0  0  0  0  0  0  0  0  0
   73.6675   54.3256   55.6283 C   0  0  0  0  0  0  0  0  0  0  0  0
   73.4485   54.1602   56.9797 C   0  0  0  0  0  0  0  0  0  0  0  0
   73.0573   52.9310   57.4927 C   0  0  0  0  0  0  0  0  0  0  0  0
   72.8864   51.8550   56.6290 C   0  0  0  0  0  0  0  0  0  0  0  0
   73.1015   52.0027   55.2749 C   0  0  0  0  0  0  0  0  0  0  0  0
 17 18  1  0
 18 19  2  0
 18 23  1  0
 19 20  1  0
 20 21  2  0
 21 22  1  0
 22 23  2  0
 23 14  1  0
 14 15  2  0
 14 16  1  0
 16 13  1  0
 13  1  1  0
  1  2  2  0
  1  3  2  0
  1  4  1  0
  4  5  2  0
  4  9  1  0
  5  6  1  0
  6  7  2  0
  7  8  1  0
  8 10  1  0
  8  9  2  0
 10 11  2  0
 10 12  1  0
M  CHG  2  10   1  12  -1
M  END
>  <minimizedAffinity>  (43) 
-9.23468

$$$$
data/reference_output_2/data/smiles/134293.pdb
     RDKit          3D

 26 29  0  0  0  0  0  0  0  0999 V2000
   71.0623   45.7142   59.7592 O   0  0  0  0  0  0  0  0  0  0  0  0
   70.8933   46.0047   58.5564 C   0  0  0  0  0  0  0  0  0  0  0  0
   70.6927   44.9254   57.6099 N   0  0  0  0  0  0  0  0  0  0  0  0
   70.6820   43.5653   58.0081 C   0  0  2  0  0  0  0  0  0  0  0  0
   71.9602   42.8266   57.6963 C   0  0  0  0  0  0  0  0  0  0  0  0
   71.9434   41.5072   58.4152 C   0  0  0  0  0  0  0  0  0  0  0  0
   70.5828   40.9950   58.7426 C   0  0  0  0  0  0  0  0  0  0  0  0
   69.5274   41.4392   57.7990 C   0  0  0  0  0  0  0  0  0  0  0  0
   68.5473   40.5951   57.3184 C   0  0  0  0  0  0  0  0  0  0  0  0
   67.6213   41.1209   56.4484 C   0  0  0  0  0  0  0  0  0  0  0  0
   67.6599   42.4357   56.0636 C   0  0  0  0  0  0  0  0  0  0  0  0
   68.6450   43.2666   56.5516 C   0  0  0  0  0  0  0  0  0  0  0  0
   69.5707   42.7740   57.4120 C   0  0  0  0  0  0  0  0  0  0  0  0
   70.8852   47.3471   58.0474 C   0  0  0  0  0  0  0  0  0  0  0  0
   69.7159   47.9818   57.4607 C   0  0  0  0  0  0  0  0  0  0  0  0
   69.5172   47.9158   56.0336 N   0  0  0  0  0  0  0  0  0  0  0  0
   70.1287   48.7683   55.2024 C   0  0  0  0  0  0  0  0  0  0  0  0
   69.9757   48.6694   53.8951 N   0  0  0  0  0  0  0  0  0  0  0  0
   69.2099   47.7245   53.3246 C   0  0  0  0  0  0  0  0  0  0  0  0
   69.0446   47.6121   51.9675 C   0  0  0  0  0  0  0  0  0  0  0  0
   68.2434   46.6162   51.4477 C   0  0  0  0  0  0  0  0  0  0  0  0
   67.5944   45.7157   52.2862 C   0  0  0  0  0  0  0  0  0  0  0  0
   67.7554   45.8234   53.6430 C   0  0  0  0  0  0  0  0  0  0  0  0
   68.5644   46.8292   54.1477 C   0  0  0  0  0  0  0  0  0  0  0  0
   68.7406   46.9554   55.5194 C   0  0  0  0  0  0  0  0  0  0  0  0
   68.1144   46.1040   56.2517 O   0  0  0  0  0  0  0  0  0  0  0  0
  1  2  2  0
  2 14  1  0
  2  3  1  0
 14 15  1  0
 15 16  1  0
 16 17  1  0
 16 25  1  0
 17 18  2  0
 18 19  1  0
 19 20  2  0
 19 24  1  0
 20 21  1  0
 21 22  2  0
 22 23  1  0
 23 24  2  0
 24 25  1  0
 25 26  2  0
  4  3  1  6
  4  5  1  0
  4 13  1  0
  5  6  1  0
  6  7  1  0
  7  8  1  0
  8  9  2  0
  8 13  1  0
  9 10  1  0
 10 11  2  0
 11 12  1  0
 12 13  2  0
M  END
>  <minimizedAffinity>  (44) 
-9.20262

$$$$
data/200k_reference_output/data/smiles/61419.pdb
     RDKit          3D

 24 26  0  0  0  0  0  0  0  0999 V2000
   68.8553   43.3876   56.6152 C   0  0  0  0  0  0  0  0  0  0  0  0
   69.9945   43.9635   57.0400 N   0  0  0  0  0  0  0  0  0  0  0  0
   70.9702   43.2466   57.6599 C   0  0  0  0  0  0  0  0  0  0  0  0
   72.1410   43.8359   58.0973 C   0  0  0  0  0  0  0  0  0  0  0  0
   73.1353   43.1113   58.7283 C   0  0  0  0  0  0  0  0  0  0  0  0
   72.9350   41.7580   58.9182 C   0  0  0  0  0  0  0  0  0  0  0  0
   71.7517   41.1627   58.4758 C   0  0  0  0  0  0  0  0  0  0  0  0
   70.7622   41.8956   57.8462 C   0  0  0  0  0  0  0  0  0  0  0  0
   69.6093   41.3226   57.4133 N   0  0  0  0  0  0  0  0  0  0  0  0
   68.6522   42.0477   56.8015 C   0  0  0  0  0  0  0  0  0  0  0  0
   67.4177   41.4328   56.3385 C   0  0  0  0  0  0  0  0  0  0  0  0
   66.2947   41.8164   56.7701 O   0  0  0  0  0  0  0  0  0  0  0  0
   67.4804   40.4100   55.4059 O   0  0  0  0  0  0  0  0  0  0  0  0
   67.8716   44.1541   55.9811 O   0  0  0  0  0  0  0  0  0  0  0  0
   68.8267   47.6196   53.7825 C   0  0  0  0  0  0  0  0  0  0  0  0
   69.0669   47.5433   55.1396 C   0  0  0  0  0  0  0  0  0  0  0  0
   68.7585   46.4121   55.8706 C   0  0  0  0  0  0  0  0  0  0  0  0
   68.1925   45.3029   55.2764 C   0  0  0  0  0  0  0  0  0  0  0  0
   67.9532   45.3810   53.9202 C   0  0  0  0  0  0  0  0  0  0  0  0
   68.2608   46.5099   53.1893 C   0  0  0  0  0  0  0  0  0  0  0  0
   69.1555   48.8344   52.9837 C   0  0  0  0  0  0  0  0  0  0  0  0
   71.4859   49.0285   52.7502 O   0  0  0  0  0  0  0  0  0  0  0  0
   70.4152   48.6509   52.2486 C   0  0  0  0  0  0  0  0  0  0  0  0
   70.4071   48.0635   51.0096 O   0  0  0  0  0  0  0  0  0  0  0  0
 22 23  2  0
 23 24  1  0
 23 21  1  0
 21 15  1  0
 15 16  2  0
 15 20  1  0
 16 17  1  0
 17 18  2  0
 18 14  1  0
 18 19  1  0
 14  1  1  0
  1  2  2  0
  1 10  1  0
  2  3  1  0
  3  4  2  0
  3  8  1  0
  4  5  1  0
  5  6  2  0
  6  7  1  0
  7  8  2  0
  8  9  1  0
  9 10  2  0
 10 11  1  0
 11 12  2  0
 11 13  1  0
 19 20  2  0
M  END
>  <minimizedAffinity>  (45) 
-9.19590

$$$$
data/reference_output_2/data/smiles/109483.pdb
     RDKit          3D

 22 23  0  0  0  0  0  0  0  0999 V2000
   70.1535   49.2987   55.8056 N   0  0  0  0  0  0  0  0  0  0  0  0
   68.3029   48.6133   57.2606 C   0  0  0  0  0  0  0  0  0  0  0  0
   67.1834   49.0155   57.9292 C   0  0  0  0  0  0  0  0  0  0  0  0
   66.6679   50.2980   57.9267 C   0  0  0  0  0  0  0  0  0  0  0  0
   67.3085   51.2491   57.2120 C   0  0  0  0  0  0  0  0  0  0  0  0
   68.4676   50.8954   56.5043 C   0  0  0  0  0  0  0  0  0  0  0  0
   68.9690   49.6194   56.5137 C   0  0  0  0  0  0  0  0  0  0  0  0
   70.4750   45.4730   57.8017 C   0  0  0  0  0  0  0  0  0  0  0  0
   70.0200   46.9189   57.9216 C   0  0  0  0  0  0  0  0  0  0  0  0
   70.6907   47.7150   58.6133 O   0  0  0  0  0  0  0  0  0  0  0  0
   68.8469   47.3199   57.2445 N   0  0  0  0  0  0  0  0  0  0  0  0
   70.2325   49.5419   54.1031 S   0  0  0  0  0  0  0  0  0  0  0  0
   71.6798   49.5688   53.6403 O   0  0  0  0  0  0  0  0  0  0  0  0
   69.5376   50.8016   53.7433 O   0  0  0  0  0  0  0  0  0  0  0  0
   69.3925   48.1969   53.3442 C   0  0  0  0  0  0  0  0  0  0  0  0
   68.6134   47.3407   54.1077 C   0  0  0  0  0  0  0  0  0  0  0  0
   67.9399   46.2678   53.5395 C   0  0  0  0  0  0  0  0  0  0  0  0
   68.0197   46.0137   52.1891 C   0  0  0  0  0  0  0  0  0  0  0  0
   68.7908   46.8587   51.4192 C   0  0  0  0  0  0  0  0  0  0  0  0
   69.4643   47.9323   51.9931 C   0  0  0  0  0  0  0  0  0  0  0  0
   70.2570   48.8028   51.1918 N   0  0  0  0  0  0  0  0  0  0  0  0
   69.6879   49.9612   50.7271 O   0  0  0  0  0  0  0  0  0  0  0  0
  8  9  1  0
  9 10  2  0
  9 11  1  0
 11  2  1  0
  2  3  2  0
  2  7  1  0
  3  4  1  0
  4  5  2  0
  5  6  1  0
  6  7  2  0
  7  1  1  0
  1 12  1  0
 12 13  2  0
 12 14  2  0
 12 15  1  0
 15 16  2  0
 15 20  1  0
 16 17  1  0
 17 18  2  0
 18 19  1  0
 19 20  2  0
 20 21  1  0
 21 22  1  0
M  END
>  <minimizedAffinity>  (46) 
-9.18917

$$$$
data/reference_output_2/data/smiles/159783.pdb
     RDKit          3D

 23 24  0  0  0  0  0  0  0  0999 V2000
   69.3039   47.8681   53.3384 C   0  0  0  0  0  0  0  0  0  0  0  0
   69.2696   47.6202   54.6999 C   0  0  0  0  0  0  0  0  0  0  0  0
   69.8988   48.5203   55.5200 F   0  0  0  0  0  0  0  0  0  0  0  0
   68.6237   46.5051   55.2073 C   0  0  0  0  0  0  0  0  0  0  0  0
   68.6341   46.3289   56.5684 F   0  0  0  0  0  0  0  0  0  0  0  0
   67.9885   45.5945   54.3922 C   0  0  0  0  0  0  0  0  0  0  0  0
   68.0294   45.8532   53.0200 C   0  0  0  0  0  0  0  0  0  0  0  0
   67.4049   44.9567   52.2214 F   0  0  0  0  0  0  0  0  0  0  0  0
   68.6714   46.9622   52.5172 C   0  0  0  0  0  0  0  0  0  0  0  0
   68.7033   47.2018   51.1875 F   0  0  0  0  0  0  0  0  0  0  0  0
   69.3567   50.7211   53.3289 N   0  0  0  0  0  0  0  0  0  0  0  0
   70.1246   49.2807   52.7082 S   0  0  0  0  0  0  0  0  0  0  0  0
   71.5693   49.3094   53.1004 O   0  0  0  0  0  0  0  0  0  0  0  0
   70.0503   49.3579   51.2186 O   0  0  0  0  0  0  0  0  0  0  0  0
   67.3321   44.4559   54.9369 N   0  0  0  0  0  0  0  0  0  0  0  0
   68.1340   43.6137   55.7457 N   0  0  0  0  0  0  0  0  0  0  0  0
   67.6927   42.4887   56.1829 C   0  0  0  0  0  0  0  0  0  0  0  0
   68.4605   41.5831   57.0118 C   0  0  0  0  0  0  0  0  0  0  0  0
   67.9804   40.3225   57.2963 C   0  0  0  0  0  0  0  0  0  0  0  0
   68.6887   39.4273   58.0873 C   0  0  0  0  0  0  0  0  0  0  0  0
   69.9063   39.7987   58.6082 C   0  0  0  0  0  0  0  0  0  0  0  0
   70.4143   41.0530   58.3426 C   0  0  0  0  0  0  0  0  0  0  0  0
   69.6861   41.9101   57.5563 C   0  0  0  0  0  0  0  0  0  0  0  0
 11 12  1  0
 12 13  2  0
 12 14  2  0
 12  1  1  0
  1  2  2  0
  1  9  1  0
  2  3  1  0
  2  4  1  0
  4  5  1  0
  4  6  2  0
  6 15  1  0
  6  7  1  0
 15 16  1  0
 16 17  2  0
 17 18  1  0
 18 19  2  0
 18 23  1  0
 19 20  1  0
 20 21  2  0
 21 22  1  0
 22 23  2  0
  7  8  1  0
  7  9  2  0
  9 10  1  0
M  END
>  <minimizedAffinity>  (47) 
-9.18803

$$$$
data/reference_output_2/data/smiles/194536.pdb
     RDKit          3D

 24 26  0  0  0  0  0  0  0  0999 V2000
   72.1926   50.8171   54.7176 S   0  0  0  0  0  0  0  0  0  0  0  0
   73.1881   50.0719   55.5609 O   0  0  0  0  0  0  0  0  0  0  0  0
   72.6918   52.1909   54.4199 O   0  0  0  0  0  0  0  0  0  0  0  0
   70.6363   50.8914   55.5274 C   0  0  0  0  0  0  0  0  0  0  0  0
   69.9712   52.0920   55.6534 C   0  0  0  0  0  0  0  0  0  0  0  0
   68.7466   52.1567   56.2886 C   0  0  0  0  0  0  0  0  0  0  0  0
   68.1359   51.0397   56.8213 C   0  0  0  0  0  0  0  0  0  0  0  0
   66.9087   51.1019   57.4585 C   0  0  0  0  0  0  0  0  0  0  0  0
   66.2980   49.9848   57.9912 C   0  0  0  0  0  0  0  0  0  0  0  0
   66.9581   48.7707   57.8703 C   0  0  0  0  0  0  0  0  0  0  0  0
   68.1841   48.7140   57.2326 C   0  0  0  0  0  0  0  0  0  0  0  0
   68.7979   49.8358   56.6976 C   0  0  0  0  0  0  0  0  0  0  0  0
   70.0268   49.7730   56.0592 C   0  0  0  0  0  0  0  0  0  0  0  0
   72.0383   49.9819   53.1931 N   0  0  0  0  0  0  0  0  0  0  0  0
   70.1437   48.5963   52.4174 C   0  0  0  0  0  0  0  0  0  0  0  0
   70.1457   49.2446   51.3532 O   0  0  0  0  0  0  0  0  0  0  0  0
   71.1083   48.9481   53.3950 N   0  0  0  0  0  0  0  0  0  0  0  0
   66.8479   45.2536   50.8679 N   0  0  0  0  0  0  0  0  0  0  0  0
   67.5609   45.8777   51.9089 C   0  0  0  0  0  0  0  0  0  0  0  0
   67.3411   45.4567   53.2010 C   0  0  0  0  0  0  0  0  0  0  0  0
   68.0502   46.0822   54.2001 C   0  0  0  0  0  0  0  0  0  0  0  0
   68.9450   47.0879   53.9298 C   0  0  0  0  0  0  0  0  0  0  0  0
   69.1818   47.5277   52.6253 C   0  0  0  0  0  0  0  0  0  0  0  0
   68.4692   46.8957   51.6452 C   0  0  0  0  0  0  0  0  0  0  0  0
 18 19  1  0
 19 20  2  0
 19 24  1  0
 20 21  1  0
 21 22  2  0
 22 23  1  0
 23 15  1  0
 23 24  2  0
 15 16  2  0
 15 17  1  0
 17 14  1  0
 14  1  1  0
  1  2  2  0
  1  3  2  0
  1  4  1  0
  4  5  2  0
  4 13  1  0
  5  6  1  0
  6  7  2  0
  7  8  1  0
  7 12  1  0
  8  9  2  0
  9 10  1  0
 10 11  2  0
 11 12  1  0
 12 13  2  0
M  END
>  <minimizedAffinity>  (48) 
-9.17946

$$$$
data/reference_output_2/data/smiles/88507.pdb
     RDKit          3D

 25 27  0  0  0  0  0  0  0  0999 V2000
   68.5980   47.7676   56.6561 C   0  0  0  0  0  0  0  0  0  0  0  0
   67.3508   47.6355   56.9560 O   0  0  0  0  0  0  0  0  0  0  0  0
   68.9770   48.0128   55.2991 C   0  0  0  0  0  0  0  0  0  0  0  0
   69.7707   49.1454   55.0467 C   0  0  0  0  0  0  0  0  0  0  0  0
   70.1890   49.4711   53.7772 C   0  0  0  0  0  0  0  0  0  0  0  0
   70.8986   50.4821   53.5382 O   0  0  0  0  0  0  0  0  0  0  0  0
   69.8463   48.7062   52.7307 N   0  0  0  0  0  0  0  0  0  0  0  0
   69.0812   47.5997   52.9139 C   0  0  0  0  0  0  0  0  0  0  0  0
   68.7593   46.8492   51.8050 C   0  0  0  0  0  0  0  0  0  0  0  0
   67.9854   45.7212   51.9508 C   0  0  0  0  0  0  0  0  0  0  0  0
   67.5654   45.3915   53.2128 C   0  0  0  0  0  0  0  0  0  0  0  0
   67.8942   46.1496   54.3122 C   0  0  0  0  0  0  0  0  0  0  0  0
   68.6600   47.2760   54.2060 C   0  0  0  0  0  0  0  0  0  0  0  0
   69.3746   47.6330   57.8029 O   0  0  0  0  0  0  0  0  0  0  0  0
   70.4933   46.7465   57.7893 C   0  0  0  0  0  0  0  0  0  0  0  0
   69.9877   44.9933   59.1991 O   0  0  0  0  0  0  0  0  0  0  0  0
   70.0510   45.3802   58.0145 C   0  0  0  0  0  0  0  0  0  0  0  0
   69.7070   44.5188   56.9708 N   0  0  0  0  0  0  0  0  0  0  0  0
   69.2670   43.1746   57.1035 C   0  0  0  0  0  0  0  0  0  0  0  0
   69.8615   42.2168   57.8738 C   0  0  0  0  0  0  0  0  0  0  0  0
   69.3471   40.9225   57.9331 C   0  0  0  0  0  0  0  0  0  0  0  0
   68.2371   40.5571   57.2328 C   0  0  0  0  0  0  0  0  0  0  0  0
   67.7809   39.2775   57.3310 F   0  0  0  0  0  0  0  0  0  0  0  0
   67.6189   41.5005   56.4508 C   0  0  0  0  0  0  0  0  0  0  0  0
   68.1304   42.7757   56.3948 C   0  0  0  0  0  0  0  0  0  0  0  0
 16 17  2  0
 17 15  1  0
 17 18  1  0
 15 14  1  0
 14  1  1  0
  1  2  2  0
  1  3  1  0
  3  4  2  0
  3 13  1  0
  4  5  1  0
  5  6  2  0
  5  7  1  0
  7  8  1  0
  8  9  1  0
  8 13  2  0
  9 10  2  0
 10 11  1  0
 11 12  2  0
 12 13  1  0
 18 19  1  0
 19 20  2  0
 19 25  1  0
 20 21  1  0
 21 22  2  0
 22 23  1  0
 22 24  1  0
 24 25  2  0
M  END
>  <minimizedAffinity>  (49) 
-9.17440

$$$$
data/200k_reference_output/data/smiles/35541.pdb
     RDKit          3D

 21 23  0  0  0  0  0  0  0  0999 V2000
   70.2072   49.0671   51.0247 O   0  0  0  0  0  0  0  0  0  0  0  0
   70.1010   49.2021   52.5377 S   0  0  0  0  0  0  0  0  0  0  0  0
   71.5274   49.1852   53.0262 O   0  0  0  0  0  0  0  0  0  0  0  0
   69.2398   47.8481   53.2142 C   0  0  0  0  0  0  0  0  0  0  0  0
   69.3030   47.6022   54.5687 C   0  0  0  0  0  0  0  0  0  0  0  0
   68.6186   46.5230   55.1412 C   0  0  0  0  0  0  0  0  0  0  0  0
   67.8734   45.6924   54.3660 C   0  0  0  0  0  0  0  0  0  0  0  0
   67.7947   45.9175   53.0136 C   0  0  0  0  0  0  0  0  0  0  0  0
   67.1721   45.3172   51.9822 N   0  0  0  0  0  0  0  0  0  0  0  0
   67.4351   45.9465   50.8961 O   0  0  0  0  0  0  0  0  0  0  0  0
   68.2153   46.9568   51.1356 N   0  0  0  0  0  0  0  0  0  0  0  0
   68.4785   46.9939   52.4505 C   0  0  0  0  0  0  0  0  0  0  0  0
   69.4051   50.7069   52.8889 N   0  0  0  0  0  0  0  0  0  0  0  0
   69.3520   51.3094   54.1673 C   0  0  0  0  0  0  0  0  0  0  0  0
   68.2411   51.1639   54.9702 C   0  0  0  0  0  0  0  0  0  0  0  0
   68.1345   51.7263   56.2159 C   0  0  0  0  0  0  0  0  0  0  0  0
   67.0222   51.5435   56.9437 F   0  0  0  0  0  0  0  0  0  0  0  0
   69.1546   52.4764   56.7299 C   0  0  0  0  0  0  0  0  0  0  0  0
   70.2889   52.6453   55.9504 C   0  0  0  0  0  0  0  0  0  0  0  0
   70.3769   52.0653   54.6879 C   0  0  0  0  0  0  0  0  0  0  0  0
   71.4886   52.2441   53.9525 F   0  0  0  0  0  0  0  0  0  0  0  0
  1  2  2  0
  2  3  2  0
  2 13  1  0
  2  4  1  0
 13 14  1  0
 14 15  2  0
 14 20  1  0
 15 16  1  0
 16 17  1  0
 16 18  2  0
 18 19  1  0
 19 20  2  0
 20 21  1  0
  4  5  2  0
  4 12  1  0
  5  6  1  0
  6  7  2  0
  7  8  1  0
  8  9  2  0
  8 12  1  0
  9 10  1  0
 10 11  1  0
 11 12  2  0
M  END
>  <minimizedAffinity>  (50) 
-9.15944

$$$$
data/200k_reference_output/data/smiles/49822.pdb
     RDKit          3D

 27 30  0  0  0  0  0  0  0  0999 V2000
   69.9601   47.8314   57.2519 C   0  0  0  0  0  0  0  0  0  0  0  0
   70.6918   48.5385   58.1858 C   0  0  0  0  0  0  0  0  0  0  0  0
   71.5383   47.8992   59.0529 C   0  0  0  0  0  0  0  0  0  0  0  0
   71.6813   46.5287   59.0142 C   0  0  0  0  0  0  0  0  0  0  0  0
   70.9503   45.7977   58.0766 C   0  0  0  0  0  0  0  0  0  0  0  0
   70.1060   46.4674   57.2165 C   0  0  0  0  0  0  0  0  0  0  0  0
   69.0664   48.5499   56.2956 C   0  0  0  0  0  0  0  0  0  0  0  0
   70.6976   48.6290   51.1682 O   0  0  0  0  0  0  0  0  0  0  0  0
   70.3188   48.6002   52.3646 C   0  0  0  0  0  0  0  0  0  0  0  0
   70.8766   49.4134   53.2603 N   0  0  0  0  0  0  0  0  0  0  0  0
   70.4579   49.3588   54.5038 N   0  0  0  0  0  0  0  0  0  0  0  0
   69.4719   48.4970   54.9065 C   0  0  0  0  0  0  0  0  0  0  0  0
   68.8698   47.6359   54.0036 C   0  0  0  0  0  0  0  0  0  0  0  0
   69.2965   47.6860   52.7144 C   0  0  0  0  0  0  0  0  0  0  0  0
   68.7346   46.8316   51.6466 C   0  0  0  0  0  0  0  0  0  0  0  0
   67.6476   45.9742   52.1600 C   0  0  0  0  0  0  0  0  0  0  0  0
   67.9387   45.4545   53.5664 C   0  0  0  0  0  0  0  0  0  0  0  0
   67.8335   46.7059   54.4607 C   0  0  0  0  0  0  0  0  0  0  0  0
   71.1004   44.3762   58.0086 N   0  0  0  0  0  0  0  0  0  0  0  0
   70.0015   43.2372   58.6063 S   0  0  0  0  0  0  0  0  0  0  0  0
   69.2445   43.8515   59.7531 O   0  0  0  0  0  0  0  0  0  0  0  0
   70.7649   42.0417   59.1148 O   0  0  0  0  0  0  0  0  0  0  0  0
   68.8453   42.6582   57.4320 C   0  0  0  0  0  0  0  0  0  0  0  0
   68.5329   41.3436   57.1549 C   0  0  0  0  0  0  0  0  0  0  0  0
   67.5745   41.3146   56.1649 C   0  0  0  0  0  0  0  0  0  0  0  0
   67.3358   42.6415   55.8712 C   0  0  0  0  0  0  0  0  0  0  0  0
   68.0997   43.3968   56.6354 O   0  0  0  0  0  0  0  0  0  0  0  0
  8  9  2  0
  9 10  1  0
  9 14  1  0
 10 11  1  0
 11 12  2  0
 12  7  1  0
 12 13  1  0
  7  1  1  0
  1  2  2  0
  1  6  1  0
  2  3  1  0
  3  4  2  0
  4  5  1  0
  5 19  1  0
  5  6  2  0
 19 20  1  0
 20 21  2  0
 20 22  2  0
 20 23  1  0
 23 24  2  0
 23 27  1  0
 24 25  1  0
 25 26  2  0
 26 27  1  0
 13 14  2  0
 13 18  1  0
 14 15  1  0
 15 16  1  0
 16 17  1  0
 17 18  1  0
M  END
>  <minimizedAffinity>  (51) 
-9.97055

$$$$
data/reference_output_2/data/smiles/88310.pdb
     RDKit          3D

 26 29  0  0  0  0  0  0  0  0999 V2000
   70.3146   45.2220   57.7827 C   0  0  0  0  0  0  0  0  0  0  0  0
   71.4161   45.6644   58.5016 C   0  0  0  0  0  0  0  0  0  0  0  0
   71.7664   47.0004   58.4880 C   0  0  0  0  0  0  0  0  0  0  0  0
   71.0312   47.9443   57.7592 C   0  0  0  0  0  0  0  0  0  0  0  0
   69.9397   47.5226   57.0424 C   0  0  0  0  0  0  0  0  0  0  0  0
   69.6236   46.1816   57.0818 C   0  0  0  0  0  0  0  0  0  0  0  0
   68.2679   44.0473   56.3034 O   0  0  0  0  0  0  0  0  0  0  0  0
   68.9313   43.2728   57.0554 C   0  0  0  0  0  0  0  0  0  0  0  0
   69.9627   43.8462   57.8035 N   0  0  0  0  0  0  0  0  0  0  0  0
   68.6016   41.8432   57.1090 C   0  0  0  0  0  0  0  0  0  0  0  0
   67.9262   40.9598   56.3946 C   0  0  0  0  0  0  0  0  0  0  0  0
   67.8815   39.7264   56.8208 N   0  0  0  0  0  0  0  0  0  0  0  0
   68.3687   39.2336   57.7893 C   0  0  0  0  0  0  0  0  0  0  0  0
   69.2205   40.7816   58.5174 S   0  0  0  0  0  0  0  0  0  0  0  0
   69.0928   48.4563   56.2153 C   0  0  0  0  0  0  0  0  0  0  0  0
   69.5045   48.4060   54.7905 C   0  0  0  0  0  0  0  0  0  0  0  0
   70.5340   49.1975   54.3491 N   0  0  0  0  0  0  0  0  0  0  0  0
   70.9308   49.2088   53.0943 N   0  0  0  0  0  0  0  0  0  0  0  0
   70.3666   48.4528   52.1402 C   0  0  0  0  0  0  0  0  0  0  0  0
   70.7737   48.4926   50.9530 O   0  0  0  0  0  0  0  0  0  0  0  0
   69.3103   47.6249   52.5336 C   0  0  0  0  0  0  0  0  0  0  0  0
   68.9005   47.6196   53.8557 C   0  0  0  0  0  0  0  0  0  0  0  0
   67.7914   46.7311   54.2810 C   0  0  0  0  0  0  0  0  0  0  0  0
   67.8308   45.5019   53.3679 C   0  0  0  0  0  0  0  0  0  0  0  0
   67.5345   46.0387   51.9656 C   0  0  0  0  0  0  0  0  0  0  0  0
   68.7087   46.8135   51.4680 C   0  0  0  0  0  0  0  0  0  0  0  0
  7  8  2  0
  8  9  1  0
  8 10  1  0
  9  1  1  0
  1  2  2  0
  1  6  1  0
  2  3  1  0
  3  4  2  0
  4  5  1  0
  5 15  1  0
  5  6  2  0
 15 16  1  0
 16 17  2  0
 16 22  1  0
 17 18  1  0
 18 19  1  0
 19 20  2  0
 19 21  1  0
 21 22  2  0
 21 26  1  0
 22 23  1  0
 23 24  1  0
 24 25  1  0
 25 26  1  0
 10 11  2  0
 10 14  1  0
 11 12  1  0
 12 13  2  0
 13 14  1  0
M  END
>  <minimizedAffinity>  (52) 
-9.87731

$$$$
data/200k_reference_output/data/smiles/6430.pdb
     RDKit          3D

 28 30  0  0  0  0  0  0  0  0999 V2000
   68.2993   43.4720   56.2355 C   0  0  0  0  0  0  0  0  0  0  0  0
   69.1940   43.7661   57.0297 O   0  0  0  0  0  0  0  0  0  0  0  0
   67.8611   44.4060   55.2826 N   0  0  0  0  0  0  0  0  0  0  0  0
   68.3805   45.7126   55.1509 C   0  0  0  0  0  0  0  0  0  0  0  0
   68.7270   46.5697   56.1331 C   0  0  0  0  0  0  0  0  0  0  0  0
   69.2324   47.8436   55.8916 C   0  0  0  0  0  0  0  0  0  0  0  0
   69.4153   48.3185   54.5986 C   0  0  0  0  0  0  0  0  0  0  0  0
   69.0700   47.4658   53.5816 C   0  0  0  0  0  0  0  0  0  0  0  0
   68.5712   46.2087   53.8505 C   0  0  0  0  0  0  0  0  0  0  0  0
   69.2600   47.9605   52.2234 C   0  0  0  0  0  0  0  0  0  0  0  0
   68.9575   47.2144   51.2662 O   0  0  0  0  0  0  0  0  0  0  0  0
   69.7857   49.2859   51.9374 C   0  0  0  0  0  0  0  0  0  0  0  0
   69.9579   49.7337   50.7763 O   0  0  0  0  0  0  0  0  0  0  0  0
   70.1300   50.1371   53.0247 N   0  0  0  0  0  0  0  0  0  0  0  0
   69.9450   49.6555   54.3447 C   0  0  0  0  0  0  0  0  0  0  0  0
   70.2344   50.3672   55.3357 O   0  0  0  0  0  0  0  0  0  0  0  0
   67.6358   42.1286   56.2326 C   0  0  0  0  0  0  0  0  0  0  0  0
   67.5371   41.5471   57.6120 C   0  0  0  0  0  0  0  0  0  0  0  0
   67.9954   39.2786   56.9145 O   0  0  0  0  0  0  0  0  0  0  0  0
   68.2563   40.2251   57.7027 C   0  0  0  0  0  0  0  0  0  0  0  0
   69.2525   40.0065   58.6825 N   0  0  0  0  0  0  0  0  0  0  0  0
   69.9653   38.7872   58.8206 C   0  0  0  0  0  0  0  0  0  0  0  0
   71.0872   38.5587   58.0506 C   0  0  0  0  0  0  0  0  0  0  0  0
   71.8144   37.3883   58.1492 C   0  0  0  0  0  0  0  0  0  0  0  0
   71.4455   36.3964   59.0267 C   0  0  0  0  0  0  0  0  0  0  0  0
   72.1389   35.2304   59.1503 F   0  0  0  0  0  0  0  0  0  0  0  0
   70.3271   36.6100   59.8047 C   0  0  0  0  0  0  0  0  0  0  0  0
   69.6019   37.7880   59.6985 C   0  0  0  0  0  0  0  0  0  0  0  0
 19 20  2  0
 20 18  1  0
 20 21  1  0
 18 17  1  0
 17  1  1  0
  1  2  2  0
  1  3  1  0
  3  4  1  0
  4  5  2  0
  4  9  1  0
  5  6  1  0
  6  7  2  0
  7  8  1  0
  7 15  1  0
  8  9  2  0
  8 10  1  0
 10 11  2  0
 10 12  1  0
 12 13  2  0
 12 14  1  0
 14 15  1  0
 15 16  2  0
 21 22  1  0
 22 23  2  0
 22 28  1  0
 23 24  1  0
 24 25  2  0
 25 26  1  0
 25 27  1  0
 27 28  2  0
M  END
>  <minimizedAffinity>  (53) 
-9.76403

$$$$
data/reference_output_2/data/smiles/187396.pdb
     RDKit          3D

 26 28  0  0  0  0  0  0  0  0999 V2000
   73.2100   48.9622   57.6048 O   0  0  0  0  0  0  0  0  0  0  0  0
   72.7305   49.8697   56.8810 C   0  0  0  0  0  0  0  0  0  0  0  0
   73.6312   50.7984   56.3121 N   0  0  0  0  0  0  0  0  0  0  0  0
   75.0152   50.7702   56.5054 N   0  0  0  0  0  0  0  0  0  0  0  0
   75.8588   50.1032   55.5783 C   0  0  0  0  0  0  0  0  0  0  0  0
   75.2576   49.5571   54.5965 O   0  0  0  0  0  0  0  0  0  0  0  0
   77.3039   50.0365   55.7186 C   0  0  0  0  0  0  0  0  0  0  0  0
   77.9808   49.0121   55.1217 C   0  0  0  0  0  0  0  0  0  0  0  0
   79.3355   48.9088   55.2277 C   0  0  0  0  0  0  0  0  0  0  0  0
   80.0473   49.8518   55.9466 C   0  0  0  0  0  0  0  0  0  0  0  0
   81.4038   49.7271   56.0374 F   0  0  0  0  0  0  0  0  0  0  0  0
   79.4011   50.8926   56.5583 C   0  0  0  0  0  0  0  0  0  0  0  0
   78.0141   50.9721   56.4329 C   0  0  0  0  0  0  0  0  0  0  0  0
   71.2608   49.8996   56.6766 C   0  0  0  0  0  0  0  0  0  0  0  0
   70.8786   50.4692   55.3520 C   0  0  0  0  0  0  0  0  0  0  0  0
   70.2833   49.4906   54.4281 C   0  0  0  0  0  0  0  0  0  0  0  0
   69.4571   48.5042   54.7812 N   0  0  0  0  0  0  0  0  0  0  0  0
   68.9284   47.6242   53.9106 C   0  0  0  0  0  0  0  0  0  0  0  0
   68.0760   46.6079   54.2774 C   0  0  0  0  0  0  0  0  0  0  0  0
   67.5433   45.7135   53.3680 C   0  0  0  0  0  0  0  0  0  0  0  0
   67.8607   45.8188   52.0339 C   0  0  0  0  0  0  0  0  0  0  0  0
   68.7223   46.8417   51.6493 C   0  0  0  0  0  0  0  0  0  0  0  0
   69.2463   47.7269   52.5640 C   0  0  0  0  0  0  0  0  0  0  0  0
   70.0969   48.7418   52.2021 C   0  0  0  0  0  0  0  0  0  0  0  0
   70.4006   48.8574   50.9877 O   0  0  0  0  0  0  0  0  0  0  0  0
   70.5955   49.5953   53.1229 N   0  0  0  0  0  0  0  0  0  0  0  0
  1  2  2  0
  2 14  1  0
  2  3  1  0
 14 15  1  0
 15 16  1  0
 16 17  2  0
 16 26  1  0
 17 18  1  0
 18 19  2  0
 18 23  1  0
 19 20  1  0
 20 21  2  0
 21 22  1  0
 22 23  2  0
 23 24  1  0
 24 25  2  0
 24 26  1  0
  3  4  1  0
  4  5  1  0
  5  6  2  0
  5  7  1  0
  7  8  2  0
  7 13  1  0
  8  9  1  0
  9 10  2  0
 10 11  1  0
 10 12  1  0
 12 13  2  0
M  END
>  <minimizedAffinity>  (54) 
-9.65806

$$$$
data/reference_output_2/data/smiles/190527.pdb
     RDKit          3D

 26 28  0  0  0  0  0  0  0  0999 V2000
   70.1272   39.2779   58.8144 C   0  0  0  0  0  0  0  0  0  0  0  0
   70.7322   40.5146   58.8495 C   0  0  0  0  0  0  0  0  0  0  0  0
   70.2260   41.6182   58.1616 C   0  0  0  0  0  0  0  0  0  0  0  0
   69.0908   41.4985   57.4171 C   0  0  0  0  0  0  0  0  0  0  0  0
   68.4717   40.2653   57.3718 C   0  0  0  0  0  0  0  0  0  0  0  0
   68.9787   39.1698   58.0579 C   0  0  0  0  0  0  0  0  0  0  0  0
   67.3305   40.4420   56.5331 N   0  0  0  0  0  0  0  0  0  0  0  0
   67.2315   41.7600   56.0591 C   0  0  0  0  0  0  0  0  0  0  0  0
   66.3883   42.3123   55.3092 O   0  0  0  0  0  0  0  0  0  0  0  0
   68.3667   42.4896   56.6145 C   0  0  0  0  0  0  0  0  0  0  0  0
   68.6485   43.7379   56.4236 N   0  0  0  0  0  0  0  0  0  0  0  0
   69.6412   37.2893   60.2028 C   0  0  0  0  0  0  0  0  0  0  0  0
   70.7100   38.1461   59.5639 C   0  0  0  0  0  0  0  0  0  0  0  0
   71.5055   37.2234   58.6413 C   0  0  0  0  0  0  0  0  0  0  0  0
   71.6488   38.6084   60.6352 C   0  0  0  0  0  0  0  0  0  0  0  0
   67.8563   44.5608   55.6246 N   0  0  0  0  0  0  0  0  0  0  0  0
   68.3395   45.7137   54.9505 C   0  0  0  0  0  0  0  0  0  0  0  0
   68.2589   45.8628   53.5822 C   0  0  0  0  0  0  0  0  0  0  0  0
   68.7394   47.0012   52.9556 C   0  0  0  0  0  0  0  0  0  0  0  0
   69.3196   48.0350   53.6666 C   0  0  0  0  0  0  0  0  0  0  0  0
   69.4026   47.8898   55.0357 C   0  0  0  0  0  0  0  0  0  0  0  0
   68.9203   46.7534   55.6496 C   0  0  0  0  0  0  0  0  0  0  0  0
   69.9219   49.4665   52.8590 S   0  0  0  0  0  0  0  0  0  0  0  0
   69.8507   49.3381   51.1563 N   0  0  0  0  0  0  0  0  0  0  0  0
   69.1850   50.6908   53.2958 O   0  0  0  0  0  0  0  0  0  0  0  0
   71.3811   49.5955   53.2439 O   0  0  0  0  0  0  0  0  0  0  0  0
 12 13  1  0
 13 14  1  0
 13 15  1  0
 13  1  1  0
  1  2  2  0
  1  6  1  0
  2  3  1  0
  3  4  2  0
  4  5  1  0
  4 10  1  0
  5  6  2  0
  5  7  1  0
  7  8  1  0
  8  9  2  0
  8 10  1  0
 10 11  2  0
 11 16  1  0
 16 17  1  0
 17 18  2  0
 17 22  1  0
 18 19  1  0
 19 20  2  0
 20 23  1  0
 20 21  1  0
 23 24  1  0
 23 25  2  0
 23 26  2  0
 21 22  2  0
M  END
>  <minimizedAffinity>  (55) 
-9.65665

$$$$
data/200k_reference_output/data/smiles/87025.pdb
     RDKit          3D

 28 31  0  0  0  0  0  0  0  0999 V2000
   68.7157   43.4608   56.8515 C   0  0  0  0  0  0  0  0  0  0  0  0
   69.5361   44.2304   57.5875 N   0  0  0  0  0  0  0  0  0  0  0  0
   70.3152   43.7191   58.5554 C   0  0  0  0  0  0  0  0  0  0  0  0
   70.2825   42.3906   58.8077 N   0  0  0  0  0  0  0  0  0  0  0  0
   69.4914   41.5605   58.1174 C   0  0  0  0  0  0  0  0  0  0  0  0
   68.6973   42.1107   57.1245 C   0  0  0  0  0  0  0  0  0  0  0  0
   67.8007   41.2680   56.3212 C   0  0  0  0  0  0  0  0  0  0  0  0
   67.0765   41.7526   55.4205 O   0  0  0  0  0  0  0  0  0  0  0  0
   67.8144   39.8753   56.6405 N   0  0  0  0  0  0  0  0  0  0  0  0
   68.2563   39.4199   57.9190 C   0  0  0  0  0  0  0  0  0  0  0  0
   69.4910   40.1269   58.4283 C   0  0  0  0  0  0  0  0  0  0  0  0
   71.2101   44.5788   59.3517 C   0  0  0  0  0  0  0  0  0  0  0  0
   71.3755   45.9080   59.0284 C   0  0  0  0  0  0  0  0  0  0  0  0
   72.2239   46.7235   59.7833 C   0  0  0  0  0  0  0  0  0  0  0  0
   72.9136   46.2204   60.8649 C   0  0  0  0  0  0  0  0  0  0  0  0
   72.7325   44.8867   61.1697 C   0  0  0  0  0  0  0  0  0  0  0  0
   71.8847   44.0653   60.4193 C   0  0  0  0  0  0  0  0  0  0  0  0
   67.8777   43.9545   55.8240 N   0  0  0  0  0  0  0  0  0  0  0  0
   68.7597   47.5453   53.7031 C   0  0  0  0  0  0  0  0  0  0  0  0
   68.2249   46.4439   53.0663 C   0  0  0  0  0  0  0  0  0  0  0  0
   67.9426   45.2843   53.7608 C   0  0  0  0  0  0  0  0  0  0  0  0
   68.1747   45.1611   55.1133 C   0  0  0  0  0  0  0  0  0  0  0  0
   68.7096   46.2638   55.7460 C   0  0  0  0  0  0  0  0  0  0  0  0
   68.9930   47.4246   55.0570 C   0  0  0  0  0  0  0  0  0  0  0  0
   69.0604   48.7893   52.9486 C   0  0  0  0  0  0  0  0  0  0  0  0
   71.4116   49.0303   52.7901 O   0  0  0  0  0  0  0  0  0  0  0  0
   70.3504   48.6432   52.2434 C   0  0  0  0  0  0  0  0  0  0  0  0
   70.4649   48.0892   50.9798 O   0  0  0  0  0  0  0  0  0  0  0  0
 26 27  2  0
 27 28  1  0
 27 25  1  0
 25 19  1  0
 19 20  2  0
 19 24  1  0
 20 21  1  0
 21 22  2  0
 22 18  1  0
 22 23  1  0
 18  1  1  0
  1  2  2  0
  1  6  1  0
  2  3  1  0
  3 12  1  0
  3  4  2  0
 12 13  2  0
 12 17  1  0
 13 14  1  0
 14 15  2  0
 15 16  1  0
 16 17  2  0
  4  5  1  0
  5  6  2  0
  5 11  1  0
  6  7  1  0
  7  8  2  0
  7  9  1  0
  9 10  1  0
 10 11  1  0
 23 24  2  0
M  END
>  <minimizedAffinity>  (56) 
-9.65360

$$$$
data/200k_reference_output/data/smiles/28437.pdb
     RDKit          3D

 27 30  0  0  0  0  0  0  0  0999 V2000
   70.4588   45.6639   58.2674 C   0  0  0  0  0  0  0  0  0  0  0  0
   71.4999   46.2987   58.9183 C   0  0  0  0  0  0  0  0  0  0  0  0
   71.6963   47.6627   58.7239 C   0  0  0  0  0  0  0  0  0  0  0  0
   70.8706   48.3788   57.8964 C   0  0  0  0  0  0  0  0  0  0  0  0
   69.8426   47.7287   57.2591 C   0  0  0  0  0  0  0  0  0  0  0  0
   69.6768   46.4079   57.4674 N   0  0  0  0  0  0  0  0  0  0  0  0
   69.0335   44.1420   56.4786 O   0  0  0  0  0  0  0  0  0  0  0  0
   69.4669   43.5138   57.4874 C   0  0  0  0  0  0  0  0  0  0  0  0
   70.1992   44.2603   58.4227 N   0  0  0  0  0  0  0  0  0  0  0  0
   69.1828   42.0901   57.6111 C   0  0  0  0  0  0  0  0  0  0  0  0
   69.9181   41.2518   58.4163 C   0  0  0  0  0  0  0  0  0  0  0  0
   69.6189   39.8911   58.5119 C   0  0  0  0  0  0  0  0  0  0  0  0
   68.5762   39.3397   57.8013 C   0  0  0  0  0  0  0  0  0  0  0  0
   67.8445   40.1852   56.9972 C   0  0  0  0  0  0  0  0  0  0  0  0
   68.1406   41.5296   56.9032 C   0  0  0  0  0  0  0  0  0  0  0  0
   68.9442   48.5203   56.3488 C   0  0  0  0  0  0  0  0  0  0  0  0
   69.3856   48.5104   54.9549 C   0  0  0  0  0  0  0  0  0  0  0  0
   70.3473   49.3831   54.5887 N   0  0  0  0  0  0  0  0  0  0  0  0
   70.8018   49.4441   53.3541 N   0  0  0  0  0  0  0  0  0  0  0  0
   70.3063   48.6226   52.4186 C   0  0  0  0  0  0  0  0  0  0  0  0
   70.7373   48.6784   51.2389 O   0  0  0  0  0  0  0  0  0  0  0  0
   69.3017   47.6913   52.7413 C   0  0  0  0  0  0  0  0  0  0  0  0
   68.8288   47.6309   54.0338 C   0  0  0  0  0  0  0  0  0  0  0  0
   67.7698   46.6644   54.4333 C   0  0  0  0  0  0  0  0  0  0  0  0
   67.9299   45.4486   53.5060 C   0  0  0  0  0  0  0  0  0  0  0  0
   67.6209   45.9994   52.1055 C   0  0  0  0  0  0  0  0  0  0  0  0
   68.7946   46.8071   51.6622 C   0  0  0  0  0  0  0  0  0  0  0  0
  7  8  2  0
  8  9  1  0
  8 10  1  0
  9  1  1  0
  1  2  2  0
  1  6  1  0
  2  3  1  0
  3  4  2  0
  4  5  1  0
  5 16  1  0
  5  6  2  0
 16 17  1  0
 17 18  2  0
 17 23  1  0
 18 19  1  0
 19 20  1  0
 20 21  2  0
 20 22  1  0
 22 23  2  0
 22 27  1  0
 23 24  1  0
 24 25  1  0
 25 26  1  0
 26 27  1  0
 10 11  2  0
 10 15  1  0
 11 12  1  0
 12 13  2  0
 13 14  1  0
 14 15  2  0
M  END
>  <minimizedAffinity>  (57) 
-9.61291

$$$$
data/200k_reference_output/data/smiles/40521.pdb
     RDKit          3D

 24 26  0  0  0  0  0  0  0  0999 V2000
   69.6636   51.2306   54.3878 C   0  0  0  0  0  0  0  0  0  0  0  0
   68.4862   51.0475   55.1187 C   0  0  0  0  0  0  0  0  0  0  0  0
   68.3941   51.4081   56.4198 C   0  0  0  0  0  0  0  0  0  0  0  0
   66.9119   51.1721   57.3196 Cl  0  0  0  0  0  0  0  0  0  0  0  0
   69.4892   51.9665   57.0303 C   0  0  0  0  0  0  0  0  0  0  0  0
   70.6328   52.1411   56.3072 C   0  0  0  0  0  0  0  0  0  0  0  0
   70.7706   51.7809   54.9543 C   0  0  0  0  0  0  0  0  0  0  0  0
   69.6944   50.8031   53.0347 N   0  0  0  0  0  0  0  0  0  0  0  0
   70.1114   49.1580   51.0163 O   0  0  0  0  0  0  0  0  0  0  0  0
   70.1675   49.2574   52.5192 S   0  0  0  0  0  0  0  0  0  0  0  0
   71.6363   49.0528   52.8667 O   0  0  0  0  0  0  0  0  0  0  0  0
   69.2648   47.9541   53.1808 C   0  0  0  0  0  0  0  0  0  0  0  0
   69.1135   47.6926   54.5122 C   0  0  0  0  0  0  0  0  0  0  0  0
   68.3812   46.6326   54.9949 C   0  0  0  0  0  0  0  0  0  0  0  0
   67.7791   45.8065   54.0892 C   0  0  0  0  0  0  0  0  0  0  0  0
   67.8919   46.0135   52.7334 C   0  0  0  0  0  0  0  0  0  0  0  0
   67.2804   45.1725   51.8366 F   0  0  0  0  0  0  0  0  0  0  0  0
   68.6379   47.0913   52.2979 C   0  0  0  0  0  0  0  0  0  0  0  0
   72.0670   52.0796   54.3720 C   0  0  0  0  0  0  0  0  0  0  0  0
   73.1979   51.3031   54.6468 N   0  0  0  0  0  0  0  0  0  0  0  0
   73.7572   51.0875   55.8687 C   0  0  0  0  0  0  0  0  0  0  0  0
   74.8259   50.2359   55.7272 C   0  0  0  0  0  0  0  0  0  0  0  0
   74.8968   49.9500   54.4164 N   0  0  0  0  0  0  0  0  0  0  0  0
   73.9275   50.5881   53.7922 N   0  0  0  0  0  0  0  0  0  0  0  0
  9 10  2  0
 10 11  2  0
 10  8  1  0
 10 12  1  0
  8  1  1  0
  1  2  2  0
  1  7  1  0
  2  3  1  0
  3  4  1  0
  3  5  2  0
  5  6  1  0
  6  7  2  0
  7 19  1  0
 19 20  1  0
 20 21  1  0
 20 24  1  0
 21 22  2  0
 22 23  1  0
 23 24  2  0
 12 13  2  0
 12 18  1  0
 13 14  1  0
 14 15  2  0
 15 16  1  0
 16 17  1  0
 16 18  2  0
M  END
>  <minimizedAffinity>  (58) 
-9.59811

$$$$
data/200k_reference_output/data/smiles/44794.pdb
     RDKit          3D

 28 31  0  0  0  0  0  0  0  0999 V2000
   71.5328   46.9451   58.9201 C   0  0  0  0  0  0  0  0  0  0  0  0
   70.7639   47.8456   58.1634 C   0  0  0  0  0  0  0  0  0  0  0  0
   69.8956   47.3682   57.2269 C   0  0  0  0  0  0  0  0  0  0  0  0
   69.8017   45.9751   57.0546 C   0  0  0  0  0  0  0  0  0  0  0  0
   70.5302   45.0756   57.7716 C   0  0  0  0  0  0  0  0  0  0  0  0
   71.4037   45.5912   58.7128 C   0  0  0  0  0  0  0  0  0  0  0  0
   72.1542   44.7203   59.4529 F   0  0  0  0  0  0  0  0  0  0  0  0
   75.9068   50.7532   58.3274 O   0  0  0  0  0  0  0  0  0  0  0  0
   75.6268   49.5877   58.5494 C   0  0  0  0  0  0  0  0  0  0  0  0
   75.9285   48.9622   59.8611 C   0  0  0  0  0  0  0  0  0  0  0  0
   74.6670   48.3879   60.4519 C   0  0  0  0  0  0  0  0  0  0  0  0
   73.7606   47.8458   59.4852 N   0  0  0  0  0  0  0  0  0  0  0  0
   72.4532   47.5016   59.9047 C   0  0  0  0  0  0  0  0  0  0  0  0
   72.0559   47.6581   61.0944 O   0  0  0  0  0  0  0  0  0  0  0  0
   74.1406   47.6471   58.1180 C   0  0  0  0  0  0  0  0  0  0  0  0
   74.9731   48.7391   57.5270 C   0  0  0  0  0  0  0  0  0  0  0  0
   69.0655   48.2720   56.3752 C   0  0  0  0  0  0  0  0  0  0  0  0
   69.4430   48.2864   54.9666 C   0  0  0  0  0  0  0  0  0  0  0  0
   70.3910   49.1908   54.5663 N   0  0  0  0  0  0  0  0  0  0  0  0
   70.7862   49.3424   53.3372 N   0  0  0  0  0  0  0  0  0  0  0  0
   70.2772   48.6002   52.3398 C   0  0  0  0  0  0  0  0  0  0  0  0
   70.6386   48.7230   51.1363 O   0  0  0  0  0  0  0  0  0  0  0  0
   69.3071   47.6467   52.6262 C   0  0  0  0  0  0  0  0  0  0  0  0
   68.7624   46.8537   51.6642 C   0  0  0  0  0  0  0  0  0  0  0  0
   67.8133   45.9014   51.9580 C   0  0  0  0  0  0  0  0  0  0  0  0
   67.4436   45.7930   53.2813 C   0  0  0  0  0  0  0  0  0  0  0  0
   67.9891   46.5910   54.2573 C   0  0  0  0  0  0  0  0  0  0  0  0
   68.9218   47.5253   53.9490 C   0  0  0  0  0  0  0  0  0  0  0  0
  8  9  2  0
  9 10  1  0
  9 16  1  0
 10 11  1  0
 11 12  1  0
 12 13  1  0
 12 15  1  0
 13 14  2  0
 13  1  1  0
  1  2  2  0
  1  6  1  0
  2  3  1  0
  3 17  1  0
  3  4  2  0
 17 18  1  0
 18 19  2  0
 18 28  1  0
 19 20  1  0
 20 21  1  0
 21 22  2  0
 21 23  1  0
 23 24  1  0
 23 28  2  0
 24 25  2  0
 25 26  1  0
 26 27  2  0
 27 28  1  0
  4  5  1  0
  5  6  2  0
  6  7  1  0
 15 16  1  0
M  END
>  <minimizedAffinity>  (59) 
-9.59150

$$$$
data/200k_reference_output/data/smiles/19972.pdb
     RDKit          3D

 26 28  0  0  0  0  0  0  0  0999 V2000
   71.0961   41.8254   58.6171 C   0  0  0  0  0  0  0  0  0  0  0  0
   69.8532   41.4252   57.9156 C   0  0  0  0  0  0  0  0  0  0  0  0
   69.0193   42.2971   57.2500 C   0  0  0  0  0  0  0  0  0  0  0  0
   67.9984   41.4756   56.7569 C   0  0  0  0  0  0  0  0  0  0  0  0
   68.2744   40.2168   57.1425 N   0  0  0  0  0  0  0  0  0  0  0  0
   69.3831   40.1652   57.8384 N   0  0  0  0  0  0  0  0  0  0  0  0
   69.9326   38.9699   58.3816 C   0  0  0  0  0  0  0  0  0  0  0  0
   69.3308   38.2331   59.3828 C   0  0  0  0  0  0  0  0  0  0  0  0
   69.8997   37.0774   59.8824 C   0  0  0  0  0  0  0  0  0  0  0  0
   71.1082   36.6111   59.3885 C   0  0  0  0  0  0  0  0  0  0  0  0
   71.8280   35.1438   60.0220 Cl  0  0  0  0  0  0  0  0  0  0  0  0
   71.7264   37.3334   58.3874 C   0  0  0  0  0  0  0  0  0  0  0  0
   71.1448   38.4980   57.8906 C   0  0  0  0  0  0  0  0  0  0  0  0
   69.1258   43.7462   57.0663 C   0  0  0  0  0  0  0  0  0  0  0  0
   69.8329   44.3901   57.8755 O   0  0  0  0  0  0  0  0  0  0  0  0
   68.4743   44.4545   56.0259 N   0  0  0  0  0  0  0  0  0  0  0  0
   68.5364   45.8636   55.7996 C   0  0  0  0  0  0  0  0  0  0  0  0
   68.5823   46.2689   54.3782 C   0  0  0  0  0  0  0  0  0  0  0  0
   67.8225   45.5579   53.4696 C   0  0  0  0  0  0  0  0  0  0  0  0
   67.8343   45.9195   52.1280 C   0  0  0  0  0  0  0  0  0  0  0  0
   68.5866   46.9696   51.6735 C   0  0  0  0  0  0  0  0  0  0  0  0
   69.3595   47.6997   52.5738 C   0  0  0  0  0  0  0  0  0  0  0  0
   69.3298   47.3199   53.9034 C   0  0  0  0  0  0  0  0  0  0  0  0
   70.1601   48.8219   52.1250 C   0  0  0  0  0  0  0  0  0  0  0  0
   69.7445   49.6325   51.0447 N   0  0  0  0  0  0  0  0  0  0  0  0
   71.2387   49.0814   52.6984 O   0  0  0  0  0  0  0  0  0  0  0  0
  1  2  1  0
  2  3  2  0
  2  6  1  0
  3 14  1  0
  3  4  1  0
 14 15  2  0
 14 16  1  0
 16 17  1  0
 17 18  1  0
 18 19  2  0
 18 23  1  0
 19 20  1  0
 20 21  2  0
 21 22  1  0
 22 24  1  0
 22 23  2  0
 24 25  1  0
 24 26  2  0
  4  5  2  0
  5  6  1  0
  6  7  1  0
  7  8  2  0
  7 13  1  0
  8  9  1  0
  9 10  2  0
 10 11  1  0
 10 12  1  0
 12 13  2  0
M  END
>  <minimizedAffinity>  (60) 
-9.57674

$$$$
data/reference_output_2/data/smiles/152415.pdb
     RDKit          3D

 27 30  0  0  0  0  0  0  0  0999 V2000
   71.2418   47.3795   58.5587 C   0  0  0  0  0  0  0  0  0  0  0  0
   71.1152   45.9712   58.5555 C   0  0  0  0  0  0  0  0  0  0  0  0
   70.3034   45.3037   57.6797 C   0  0  0  0  0  0  0  0  0  0  0  0
   69.5883   46.0899   56.7665 C   0  0  0  0  0  0  0  0  0  0  0  0
   69.6671   47.4267   56.7219 N   0  0  0  0  0  0  0  0  0  0  0  0
   70.4992   48.0400   57.6256 C   0  0  0  0  0  0  0  0  0  0  0  0
   70.5302   49.2832   57.5301 O   0  0  0  0  0  0  0  0  0  0  0  0
   74.0839   49.3512   60.2626 C   0  0  0  0  0  0  0  0  0  0  0  0
   73.2483   48.7504   59.2097 N   0  0  0  0  0  0  0  0  0  0  0  0
   72.1088   47.9956   59.5072 C   0  0  0  0  0  0  0  0  0  0  0  0
   71.8512   47.8677   60.7503 O   0  0  0  0  0  0  0  0  0  0  0  0
   70.1370   43.8598   57.6637 C   0  0  0  0  0  0  0  0  0  0  0  0
   71.0547   43.0610   57.9696 O   0  0  0  0  0  0  0  0  0  0  0  0
   68.8931   43.3040   57.2873 N   0  0  0  0  0  0  0  0  0  0  0  0
   68.6685   41.8578   57.2536 C   0  0  0  0  0  0  0  0  0  0  0  0
   67.5385   41.4843   56.2531 C   0  0  0  0  0  0  0  0  0  0  0  0
   67.4251   41.2617   57.7366 C   0  0  0  0  0  0  0  0  0  0  0  0
   68.9109   48.2474   55.7727 C   0  0  0  0  0  0  0  0  0  0  0  0
   68.7197   47.5751   54.4603 C   0  0  0  0  0  0  0  0  0  0  0  0
   67.8320   46.5023   54.3787 C   0  0  0  0  0  0  0  0  0  0  0  0
   67.7137   45.8556   53.1708 C   0  0  0  0  0  0  0  0  0  0  0  0
   68.4317   46.2325   52.0654 C   0  0  0  0  0  0  0  0  0  0  0  0
   69.3046   47.2931   52.1485 C   0  0  0  0  0  0  0  0  0  0  0  0
   70.1104   47.8914   51.2402 N   0  0  0  0  0  0  0  0  0  0  0  0
   70.7484   48.8985   51.7919 N   0  0  0  0  0  0  0  0  0  0  0  0
   70.3555   48.9661   53.0920 C   0  0  0  0  0  0  0  0  0  0  0  0
   69.4401   47.9577   53.3512 C   0  0  0  0  0  0  0  0  0  0  0  0
  8  9  1  0
  9 10  1  0
 10 11  2  0
 10  1  1  0
  1  2  2  0
  1  6  1  0
  2  3  1  0
  3 12  1  0
  3  4  2  0
 12 13  2  0
 12 14  1  0
 14 15  1  0
 15 16  1  0
 15 17  1  0
 16 17  1  0
  4  5  1  0
  5 18  1  0
  5  6  1  0
 18 19  1  0
 19 20  2  0
 19 27  1  0
 20 21  1  0
 21 22  2  0
 22 23  1  0
 23 24  1  0
 23 27  2  0
 24 25  1  0
 25 26  2  0
 26 27  1  0
  6  7  2  0
M  END
>  <minimizedAffinity>  (61) 
-9.56952

$$$$
data/200k_reference_output/data/smiles/8254.pdb
     RDKit          3D

 27 30  0  0  0  0  0  0  0  0999 V2000
   73.8281   49.6276   56.8887 C   0  0  0  0  0  0  0  0  0  0  0  0
   73.1012   48.8279   57.7349 C   0  0  0  0  0  0  0  0  0  0  0  0
   71.7074   48.6894   57.6258 C   0  0  0  0  0  0  0  0  0  0  0  0
   71.0076   49.3529   56.6605 C   0  0  0  0  0  0  0  0  0  0  0  0
   71.7901   50.1626   55.8134 C   0  0  0  0  0  0  0  0  0  0  0  0
   73.1160   50.2720   55.9438 N   0  0  0  0  0  0  0  0  0  0  0  0
   75.5119   49.4882   54.7302 O   0  0  0  0  0  0  0  0  0  0  0  0
   76.1016   49.7428   55.8387 C   0  0  0  0  0  0  0  0  0  0  0  0
   75.2369   49.8149   56.9543 N   0  0  0  0  0  0  0  0  0  0  0  0
   77.5344   49.9257   55.8598 C   0  0  0  0  0  0  0  0  0  0  0  0
   78.4011   48.9852   55.3549 C   0  0  0  0  0  0  0  0  0  0  0  0
   79.7677   49.1306   55.3589 C   0  0  0  0  0  0  0  0  0  0  0  0
   80.2726   50.2529   55.8851 N   0  0  0  0  0  0  0  0  0  0  0  0
   79.4810   51.2166   56.3975 C   0  0  0  0  0  0  0  0  0  0  0  0
   78.0829   51.0653   56.3925 C   0  0  0  0  0  0  0  0  0  0  0  0
   69.5476   49.3113   56.4135 C   0  0  0  0  0  0  0  0  0  0  0  0
   69.0459   48.0355   55.8864 C   0  0  0  0  0  0  0  0  0  0  0  0
   68.7787   46.9945   56.7404 N   0  0  0  0  0  0  0  0  0  0  0  0
   68.3952   45.8195   56.3259 N   0  0  0  0  0  0  0  0  0  0  0  0
   68.2331   45.5456   55.0269 C   0  0  0  0  0  0  0  0  0  0  0  0
   67.8603   44.3999   54.6385 O   0  0  0  0  0  0  0  0  0  0  0  0
   68.4892   46.5711   54.1010 C   0  0  0  0  0  0  0  0  0  0  0  0
   68.8972   47.8209   54.5501 C   0  0  0  0  0  0  0  0  0  0  0  0
   69.0809   48.8394   53.5081 C   0  0  0  0  0  0  0  0  0  0  0  0
   69.8770   48.1358   52.3984 C   0  0  0  0  0  0  0  0  0  0  0  0
   69.0185   47.0970   51.7549 C   0  0  0  0  0  0  0  0  0  0  0  0
   68.2837   46.2160   52.6870 C   0  0  0  0  0  0  0  0  0  0  0  0
  7  8  2  0
  8  9  1  0
  8 10  1  0
  9  1  1  0
  1  2  2  0
  1  6  1  0
  2  3  1  0
  3  4  2  0
  4 16  1  0
  4  5  1  0
 16 17  1  0
 17 18  2  0
 17 23  1  0
 18 19  1  0
 19 20  1  0
 20 21  2  0
 20 22  1  0
 22 23  2  0
 22 27  1  0
 23 24  1  0
 24 25  1  0
 25 26  1  0
 26 27  1  0
  5  6  2  0
 10 11  2  0
 10 15  1  0
 11 12  1  0
 12 13  2  0
 13 14  1  0
 14 15  2  0
M  END
>  <minimizedAffinity>  (62) 
-9.50334

$$$$
data/200k_reference_output/data/smiles/86806.pdb
     RDKit          3D

 27 29  0  0  0  0  0  0  0  0999 V2000
   68.4080   46.0363   54.0823 C   0  0  0  0  0  0  0  0  0  0  0  0
   67.9082   45.6526   52.8785 C   0  0  0  0  0  0  0  0  0  0  0  0
   68.0747   46.4356   51.7391 C   0  0  0  0  0  0  0  0  0  0  0  0
   68.7535   47.6220   51.8115 C   0  0  0  0  0  0  0  0  0  0  0  0
   69.2698   48.0386   53.0080 C   0  0  0  0  0  0  0  0  0  0  0  0
   69.0889   47.2357   54.1314 C   0  0  0  0  0  0  0  0  0  0  0  0
   67.7929   43.9093   55.3146 N   0  0  0  0  0  0  0  0  0  0  0  0
   68.2588   45.2495   55.3003 C   0  0  0  0  0  0  0  0  0  0  0  0
   68.5523   45.7569   56.4203 O   0  0  0  0  0  0  0  0  0  0  0  0
   67.4567   41.2241   55.4433 O   0  0  0  0  0  0  0  0  0  0  0  0
   67.4979   41.8007   56.5723 C   0  0  0  0  0  0  0  0  0  0  0  0
   67.6735   43.2065   56.5379 N   0  0  0  0  0  0  0  0  0  0  0  0
   67.3690   41.0294   57.8119 C   0  0  0  0  0  0  0  0  0  0  0  0
   66.6579   41.4598   58.9070 C   0  0  0  0  0  0  0  0  0  0  0  0
   66.5373   40.7440   60.0594 C   0  0  0  0  0  0  0  0  0  0  0  0
   67.1415   39.5279   60.1715 C   0  0  0  0  0  0  0  0  0  0  0  0
   67.8736   39.0553   59.0818 C   0  0  0  0  0  0  0  0  0  0  0  0
   67.9855   39.7939   57.9212 C   0  0  0  0  0  0  0  0  0  0  0  0
   70.1549   49.5489   53.1817 S   0  0  0  0  0  0  0  0  0  0  0  0
   71.6138   49.2184   53.0457 O   0  0  0  0  0  0  0  0  0  0  0  0
   69.7835   50.4578   52.0523 O   0  0  0  0  0  0  0  0  0  0  0  0
   69.9093   50.2881   54.6897 N   0  0  0  0  0  0  0  0  0  0  0  0
   71.0078   51.1397   55.0977 C   0  0  0  0  0  0  0  0  0  0  0  0
   70.6502   51.9825   56.3001 C   0  0  0  0  0  0  0  0  0  0  0  0
   69.4704   52.8904   56.0261 C   0  0  0  0  0  0  0  0  0  0  0  0
   68.9222   52.4611   54.6584 C   0  0  0  0  0  0  0  0  0  0  0  0
   68.6614   50.9840   54.7502 C   0  0  0  0  0  0  0  0  0  0  0  0
 10 11  2  0
 11 12  1  0
 11 13  1  0
 12  7  1  0
  7  8  1  0
  8  9  2  0
  8  1  1  0
  1  2  2  0
  1  6  1  0
  2  3  1  0
  3  4  2  0
  4  5  1  0
  5 19  1  0
  5  6  2  0
 19 20  2  0
 19 21  2  0
 19 22  1  0
 22 23  1  0
 22 27  1  0
 23 24  1  0
 24 25  1  0
 25 26  1  0
 26 27  1  0
 13 14  2  0
 13 18  1  0
 14 15  1  0
 15 16  2  0
 16 17  1  0
 17 18  2  0
M  END
>  <minimizedAffinity>  (63) 
-9.47724

$$$$
data/reference_output_2/data/smiles/139040.pdb
     RDKit          3D

 27 30  0  0  0  0  0  0  0  0999 V2000
   69.5777   50.6875   56.6992 N   0  0  2  0  0  0  0  0  0  0  0  0
   68.2737   51.2951   56.6424 C   0  0  0  0  0  0  0  0  0  0  0  0
   67.2782   50.7305   57.5788 C   0  0  0  0  0  0  0  0  0  0  0  0
   67.4221   49.2937   57.9122 C   0  0  0  0  0  0  0  0  0  0  0  0
   68.4492   48.5324   57.1498 C   0  0  2  0  0  0  0  0  0  0  0  0
   69.4307   49.3153   56.3609 C   0  0  0  0  0  0  0  0  0  0  0  0
   70.3104   50.9846   57.8767 C   0  0  0  0  0  0  0  0  0  0  0  0
   73.7956   50.3110   56.5764 C   0  0  0  0  0  0  0  0  0  0  0  0
   74.3444   49.6066   57.6192 C   0  0  0  0  0  0  0  0  0  0  0  0
   73.5821   49.3548   58.7389 C   0  0  0  0  0  0  0  0  0  0  0  0
   72.2871   49.8253   58.7694 C   0  0  0  0  0  0  0  0  0  0  0  0
   71.7157   50.5425   57.7191 C   0  0  0  0  0  0  0  0  0  0  0  0
   72.4883   50.7817   56.6167 C   0  0  0  0  0  0  0  0  0  0  0  0
   73.7895   50.4095   53.7220 N   0  0  0  0  0  0  0  0  0  0  0  0
   74.7454   50.6418   55.1432 S   0  0  0  0  0  0  0  0  0  0  0  0
   75.9475   49.7414   55.1109 O   0  0  0  0  0  0  0  0  0  0  0  0
   75.2052   52.0638   55.2195 O   0  0  0  0  0  0  0  0  0  0  0  0
   67.8456   47.5357   56.2689 N   0  0  0  0  0  0  0  0  0  0  0  0
   68.2624   47.3395   54.9293 C   0  0  0  0  0  0  0  0  0  0  0  0
   67.7680   46.2355   54.2452 C   0  0  0  0  0  0  0  0  0  0  0  0
   68.1397   46.0126   52.9490 C   0  0  0  0  0  0  0  0  0  0  0  0
   69.0004   46.8810   52.3267 C   0  0  0  0  0  0  0  0  0  0  0  0
   69.5222   46.9008   51.0780 N   0  0  0  0  0  0  0  0  0  0  0  0
   70.3194   47.9546   50.9273 N   0  0  0  0  0  0  0  0  0  0  0  0
   70.3232   48.6362   52.0928 C   0  0  0  0  0  0  0  0  0  0  0  0
   69.5028   47.9796   52.9791 C   0  0  0  0  0  0  0  0  0  0  0  0
   69.1217   48.1996   54.2926 C   0  0  0  0  0  0  0  0  0  0  0  0
 14 15  1  0
 15 16  2  0
 15 17  2  0
 15  8  1  0
  8  9  2  0
  8 13  1  0
  9 10  1  0
 10 11  2  0
 11 12  1  0
 12  7  1  0
 12 13  2  0
  1  7  1  1
  1  2  1  0
  1  6  1  0
  2  3  1  0
  3  4  1  0
  4  5  1  0
  5 18  1  6
  5  6  1  0
 18 19  1  0
 19 20  2  0
 19 27  1  0
 20 21  1  0
 21 22  2  0
 22 23  1  0
 22 26  1  0
 23 24  1  0
 24 25  2  0
 25 26  1  0
 26 27  2  0
M  CHG  1   1   1
M  END
>  <minimizedAffinity>  (64) 
-9.44312

$$$$
data/reference_output_2/data/smiles/135619.pdb
     RDKit          3D

 27 29  0  0  0  0  0  0  0  0999 V2000
   70.3824   49.6004   54.0605 C   0  0  0  0  0  0  0  0  0  0  0  0
   69.9100   49.0331   55.2423 C   0  0  0  0  0  0  0  0  0  0  0  0
   69.1463   47.9253   55.3213 N   0  0  0  0  0  0  0  0  0  0  0  0
   68.8087   47.3193   54.1507 C   0  0  0  0  0  0  0  0  0  0  0  0
   68.0192   46.2096   54.1188 C   0  0  0  0  0  0  0  0  0  0  0  0
   67.6281   45.5555   52.9377 C   0  0  0  0  0  0  0  0  0  0  0  0
   68.0748   46.0763   51.7421 C   0  0  0  0  0  0  0  0  0  0  0  0
   68.8697   47.1968   51.7411 C   0  0  0  0  0  0  0  0  0  0  0  0
   69.2294   47.8085   52.9292 C   0  0  0  0  0  0  0  0  0  0  0  0
   70.0244   48.9631   52.9074 C   0  0  0  0  0  0  0  0  0  0  0  0
   70.3853   49.3792   51.8005 O   0  0  0  0  0  0  0  0  0  0  0  0
   71.1971   50.7933   54.1663 C   0  0  0  0  0  0  0  0  0  0  0  0
   70.9926   51.7766   53.3755 O   0  0  0  0  0  0  0  0  0  0  0  0
   72.2748   50.9490   55.1523 C   0  0  0  0  0  0  0  0  0  0  0  0
   73.5083   51.2607   54.3449 C   0  0  0  0  0  0  0  0  0  0  0  0
   73.9181   50.3227   53.6105 O   0  0  0  0  0  0  0  0  0  0  0  0
   73.7798   53.4796   53.6860 O   0  0  0  0  0  0  0  0  0  0  0  0
   74.2016   52.5256   54.3839 C   0  0  0  0  0  0  0  0  0  0  0  0
   75.3172   52.6704   55.1873 O   0  0  0  0  0  0  0  0  0  0  0  0
   68.7124   47.3590   56.5583 C   0  0  0  0  0  0  0  0  0  0  0  0
   69.7709   46.7225   57.3710 C   0  0  0  0  0  0  0  0  0  0  0  0
   70.6013   47.4516   58.2040 C   0  0  0  0  0  0  0  0  0  0  0  0
   71.5866   46.8272   58.9826 C   0  0  0  0  0  0  0  0  0  0  0  0
   71.7112   45.4581   58.8979 C   0  0  0  0  0  0  0  0  0  0  0  0
   70.8965   44.7355   58.0789 C   0  0  0  0  0  0  0  0  0  0  0  0
   69.9298   45.3639   57.3178 C   0  0  0  0  0  0  0  0  0  0  0  0
   69.1883   44.5385   56.4930 F   0  0  0  0  0  0  0  0  0  0  0  0
 17 18  2  0
 18 19  1  0
 18 15  1  0
 15 16  2  0
 15 14  1  0
 14 12  1  0
 12 13  2  0
 12  1  1  0
  1  2  2  0
  1 10  1  0
  2  3  1  0
  3 20  1  0
  3  4  1  0
 20 21  1  0
 21 22  2  0
 21 26  1  0
 22 23  1  0
 23 24  2  0
 24 25  1  0
 25 26  2  0
 26 27  1  0
  4  5  1  0
  4  9  2  0
  5  6  2  0
  6  7  1  0
  7  8  2  0
  8  9  1  0
  9 10  1  0
 10 11  2  0
M  END
>  <minimizedAffinity>  (65) 
-9.43302

$$$$
data/reference_output_2/data/smiles/89075.pdb
     RDKit          3D

 25 28  0  0  0  0  0  0  0  0999 V2000
   69.3255   46.3064   57.0133 C   0  0  0  0  0  0  0  0  0  0  0  0
   69.9679   45.1470   57.2870 N   0  0  0  0  0  0  0  0  0  0  0  0
   71.0251   45.0505   58.1055 C   0  0  0  0  0  0  0  0  0  0  0  0
   71.4723   46.1746   58.6885 N   0  0  0  0  0  0  0  0  0  0  0  0
   70.8699   47.3594   58.4528 C   0  0  0  0  0  0  0  0  0  0  0  0
   71.1045   48.6090   58.8919 N   0  0  0  0  0  0  0  0  0  0  0  0
   70.2103   49.4754   58.3574 C   0  0  0  0  0  0  0  0  0  0  0  0
   70.0155   50.8417   58.4786 C   0  0  0  0  0  0  0  0  0  0  0  0
   68.9971   51.4735   57.7967 C   0  0  0  0  0  0  0  0  0  0  0  0
   68.1622   50.7342   56.9852 C   0  0  0  0  0  0  0  0  0  0  0  0
   68.3171   49.3722   56.8331 C   0  0  0  0  0  0  0  0  0  0  0  0
   69.3466   48.7735   57.5301 C   0  0  0  0  0  0  0  0  0  0  0  0
   69.7785   47.4646   57.6080 C   0  0  0  0  0  0  0  0  0  0  0  0
   68.2069   46.3045   56.1255 N   0  0  0  0  0  0  0  0  0  0  0  0
   69.1575   47.8431   52.9179 C   0  0  0  0  0  0  0  0  0  0  0  0
   68.6350   46.9359   52.0224 C   0  0  0  0  0  0  0  0  0  0  0  0
   67.9682   45.8157   52.4833 C   0  0  0  0  0  0  0  0  0  0  0  0
   67.8058   45.5713   53.8238 C   0  0  0  0  0  0  0  0  0  0  0  0
   68.3163   46.4593   54.7355 C   0  0  0  0  0  0  0  0  0  0  0  0
   68.9782   47.5694   54.2536 C   0  0  0  0  0  0  0  0  0  0  0  0
   70.0055   49.2692   52.4240 S   0  0  0  0  0  0  0  0  0  0  0  0
   71.4477   49.1291   52.8484 O   0  0  0  0  0  0  0  0  0  0  0  0
   69.9816   49.4682   50.9303 O   0  0  0  0  0  0  0  0  0  0  0  0
   70.3336   51.3596   53.9901 C   0  0  0  0  0  0  0  0  0  0  0  0
   69.3610   50.6966   53.1423 N   0  0  0  0  0  0  0  0  0  0  0  0
 24 25  1  0
 25 21  1  0
 21 22  2  0
 21 23  2  0
 21 15  1  0
 15 16  2  0
 15 20  1  0
 16 17  1  0
 17 18  2  0
 18 19  1  0
 19 14  1  0
 19 20  2  0
 14  1  1  0
  1  2  2  0
  1 13  1  0
  2  3  1  0
  3  4  2  0
  4  5  1  0
  5  6  1  0
  5 13  2  0
  6  7  1  0
  7  8  1  0
  7 12  2  0
  8  9  2  0
  9 10  1  0
 10 11  2  0
 11 12  1  0
 12 13  1  0
M  END
>  <minimizedAffinity>  (66) 
-9.42732

$$$$
data/reference_output_2/data/smiles/160782.pdb
     RDKit          3D

 26 28  0  0  0  0  0  0  0  0999 V2000
   70.0591   41.7023   58.5636 C   0  0  0  0  0  0  0  0  0  0  0  0
   70.4919   40.6312   59.2964 C   0  0  0  0  0  0  0  0  0  0  0  0
   69.9309   39.3797   59.1214 C   0  0  0  0  0  0  0  0  0  0  0  0
   68.9214   39.1864   58.2031 C   0  0  0  0  0  0  0  0  0  0  0  0
   68.4902   40.2672   57.4692 C   0  0  0  0  0  0  0  0  0  0  0  0
   69.0460   41.5150   57.6401 C   0  0  0  0  0  0  0  0  0  0  0  0
   68.3734   42.4452   56.7264 C   0  0  0  0  0  0  0  0  0  0  0  0
   68.6056   43.7074   56.5811 N   0  0  0  0  0  0  0  0  0  0  0  0
   67.3817   41.6594   56.0049 C   0  0  0  0  0  0  0  0  0  0  0  0
   66.6051   42.1473   55.1209 O   0  0  0  0  0  0  0  0  0  0  0  0
   67.4605   40.3319   56.4638 N   0  0  0  0  0  0  0  0  0  0  0  0
   72.2657   44.7707   58.4528 C   0  0  0  0  0  0  0  0  0  0  0  0
   71.7719   43.3623   58.2385 C   0  0  0  0  0  0  0  0  0  0  0  0
   72.6601   42.4285   57.5175 C   0  0  0  0  0  0  0  0  0  0  0  0
   70.6100   43.0503   58.7339 C   0  0  0  0  0  0  0  0  0  0  0  0
   67.8342   44.4006   55.6451 N   0  0  0  0  0  0  0  0  0  0  0  0
   68.3158   45.5702   54.9913 C   0  0  0  0  0  0  0  0  0  0  0  0
   68.9445   46.5831   55.7103 C   0  0  0  0  0  0  0  0  0  0  0  0
   69.4182   47.7284   55.0877 C   0  0  0  0  0  0  0  0  0  0  0  0
   69.2930   47.9201   53.7287 C   0  0  0  0  0  0  0  0  0  0  0  0
   68.6696   46.9158   53.0197 C   0  0  0  0  0  0  0  0  0  0  0  0
   68.1978   45.7776   53.6347 C   0  0  0  0  0  0  0  0  0  0  0  0
   69.9010   49.3630   52.9312 S   0  0  0  0  0  0  0  0  0  0  0  0
   69.9070   49.2197   51.2164 N   0  0  0  0  0  0  0  0  0  0  0  0
   69.0832   50.5578   53.3034 O   0  0  0  0  0  0  0  0  0  0  0  0
   71.3225   49.6448   53.3409 O   0  0  0  0  0  0  0  0  0  0  0  0
 12 13  1  0
 13 14  1  0
 13 15  2  0
 15  1  1  0
  1  2  2  0
  1  6  1  0
  2  3  1  0
  3  4  2  0
  4  5  1  0
  5  6  2  0
  5 11  1  0
  6  7  1  0
  7  8  2  0
  7  9  1  0
  8 16  1  0
 16 17  1  0
 17 18  2  0
 17 22  1  0
 18 19  1  0
 19 20  2  0
 20 23  1  0
 20 21  1  0
 23 24  1  0
 23 25  2  0
 23 26  2  0
 21 22  2  0
  9 10  2  0
  9 11  1  0
M  END
>  <minimizedAffinity>  (67) 
-9.41836

$$$$
data/200k_reference_output/data/smiles/39280.pdb
     RDKit          3D

 27 29  0  0  0  0  0  0  0  0999 V2000
   71.4300   51.4390   54.5439 C   0  0  0  0  0  0  0  0  0  0  0  0
   71.0584   52.5285   55.3302 C   0  0  0  0  0  0  0  0  0  0  0  0
   69.7456   52.9347   55.4450 C   0  0  0  0  0  0  0  0  0  0  0  0
   68.7281   52.2817   54.7839 C   0  0  0  0  0  0  0  0  0  0  0  0
   69.0765   51.2038   54.0020 C   0  0  0  0  0  0  0  0  0  0  0  0
   70.4139   50.8044   53.8965 C   0  0  0  0  0  0  0  0  0  0  0  0
   73.4989   50.1491   55.3036 N   0  0  0  0  0  0  0  0  0  0  0  0
   72.8373   51.1118   54.5048 C   0  0  0  0  0  0  0  0  0  0  0  0
   73.6220   51.7214   53.6838 O   0  0  0  0  0  0  0  0  0  0  0  0
   75.2903   50.6371   57.2636 O   0  0  0  0  0  0  0  0  0  0  0  0
   75.8073   50.2116   56.1774 C   0  0  0  0  0  0  0  0  0  0  0  0
   74.8981   49.9483   55.1391 N   0  0  0  0  0  0  0  0  0  0  0  0
   77.2392   50.0326   56.0850 C   0  0  0  0  0  0  0  0  0  0  0  0
   78.0699   50.7620   56.9039 C   0  0  0  0  0  0  0  0  0  0  0  0
   79.4492   50.6229   56.8504 C   0  0  0  0  0  0  0  0  0  0  0  0
   79.9910   49.7584   55.9823 N   0  0  0  0  0  0  0  0  0  0  0  0
   79.1894   49.0390   55.1753 C   0  0  0  0  0  0  0  0  0  0  0  0
   77.8078   49.1589   55.2090 C   0  0  0  0  0  0  0  0  0  0  0  0
   70.6888   49.7323   53.1076 O   0  0  0  0  0  0  0  0  0  0  0  0
   69.7937   49.1300   52.2254 C   0  0  0  0  0  0  0  0  0  0  0  0
   69.1889   47.9184   52.8165 C   0  0  0  0  0  0  0  0  0  0  0  0
   68.6681   46.9777   51.9569 C   0  0  0  0  0  0  0  0  0  0  0  0
   68.0935   45.8321   52.4620 C   0  0  0  0  0  0  0  0  0  0  0  0
   68.0626   45.6695   53.8339 C   0  0  0  0  0  0  0  0  0  0  0  0
   67.4781   44.5101   54.2770 F   0  0  0  0  0  0  0  0  0  0  0  0
   68.5794   46.6020   54.7104 C   0  0  0  0  0  0  0  0  0  0  0  0
   69.1463   47.7329   54.1967 C   0  0  0  0  0  0  0  0  0  0  0  0
 10 11  2  0
 11 12  1  0
 11 13  1  0
 12  7  1  0
  7  8  1  0
  8  9  2  0
  8  1  1  0
  1  2  2  0
  1  6  1  0
  2  3  1  0
  3  4  2  0
  4  5  1  0
  5  6  2  0
  6 19  1  0
 19 20  1  0
 20 21  1  0
 21 22  2  0
 21 27  1  0
 22 23  1  0
 23 24  2  0
 24 25  1  0
 24 26  1  0
 26 27  2  0
 13 14  2  0
 13 18  1  0
 14 15  1  0
 15 16  2  0
 16 17  1  0
 17 18  2  0
M  END
>  <minimizedAffinity>  (68) 
-9.36784

$$$$
data/200k_reference_output/data/smiles/22722.pdb
     RDKit          3D

 26 27  0  0  0  0  0  0  0  0999 V2000
   68.9640   50.2434   57.1283 C   0  0  0  0  0  0  0  0  0  0  0  0
   68.5521   51.7545   57.2162 C   0  0  0  0  0  0  0  0  0  0  0  0
   68.5352   52.1890   56.0423 C   0  0  0  0  0  0  0  0  0  0  0  0
   68.6008   52.3755   54.6933 C   0  0  0  0  0  0  0  0  0  0  0  0
   69.0462   50.7386   54.4434 C   0  0  0  0  0  0  0  0  0  0  0  0
   69.0620   50.3573   55.5145 C   0  0  0  0  0  0  0  0  0  0  0  0
   69.7007   48.0229   57.5621 C   0  0  0  0  0  0  0  0  0  0  0  0
   69.3426   49.0869   57.3624 C   0  0  0  0  0  0  0  0  0  0  0  0
   70.4833   45.6248   57.9698 C   0  0  0  0  0  0  0  0  0  0  0  0
   70.1065   46.7949   57.7813 C   0  0  0  0  0  0  0  0  0  0  0  0
   70.1922   43.3791   57.8529 C   0  0  0  0  0  0  0  0  0  0  0  0
   70.8462   44.4481   58.1463 C   0  0  0  0  0  0  0  0  0  0  0  0
   71.4820   41.4711   57.8234 O   0  0  0  0  0  0  0  0  0  0  0  0
   70.2464   41.9712   57.8438 C   0  0  0  0  0  0  0  0  0  0  0  0
   69.1624   41.1294   57.8656 N   0  0  0  0  0  0  0  0  0  0  0  0
   69.0888   39.7924   57.8361 O   0  0  0  0  0  0  0  0  0  0  0  0
   69.3072   50.5449   53.1118 N   0  0  0  0  0  0  0  0  0  0  0  0
   70.0585   49.1032   52.4623 S   0  0  0  0  0  0  0  0  0  0  0  0
   71.4596   49.0947   52.9937 O   0  0  0  0  0  0  0  0  0  0  0  0
   70.1634   49.2529   50.9577 O   0  0  0  0  0  0  0  0  0  0  0  0
   69.1447   47.6866   52.7941 C   0  0  0  0  0  0  0  0  0  0  0  0
   68.9248   47.2085   54.0217 C   0  0  0  0  0  0  0  0  0  0  0  0
   68.2616   46.1686   54.5303 C   0  0  0  0  0  0  0  0  0  0  0  0
   67.6096   45.3544   53.4405 C   0  0  0  0  0  0  0  0  0  0  0  0
   67.8277   45.8335   52.2253 C   0  0  0  0  0  0  0  0  0  0  0  0
   68.4975   46.8640   51.7397 C   0  0  0  0  0  0  0  0  0  0  0  0
 13 14  2  0
 14 11  1  0
 14 15  1  0
 11 12  2  0
 12  9  1  0
  9 10  3  0
 10  7  1  0
  7  8  3  0
  8  1  1  0
  1  2  2  0
  1  6  1  0
  2  3  1  0
  3  4  2  0
  4  5  1  0
  5 17  1  0
  5  6  2  0
 17 18  1  0
 18 19  2  0
 18 20  2  0
 18 21  1  0
 21 22  2  0
 21 26  1  0
 22 23  1  0
 23 24  2  0
 24 25  1  0
 25 26  2  0
 15 16  1  0
M  END
>  <minimizedAffinity>  (69) 
-9.35950

$$$$
data/reference_output_2/data/smiles/137055.pdb
     RDKit          3D

 27 30  0  0  0  0  0  0  0  0999 V2000
   73.7829   50.0828   56.5895 C   0  0  0  0  0  0  0  0  0  0  0  0
   73.0650   49.2948   57.4642 C   0  0  0  0  0  0  0  0  0  0  0  0
   71.6979   49.1510   57.3773 C   0  0  0  0  0  0  0  0  0  0  0  0
   70.9930   49.7989   56.4016 C   0  0  0  0  0  0  0  0  0  0  0  0
   71.7397   50.5933   55.5232 C   0  0  0  0  0  0  0  0  0  0  0  0
   73.0504   50.6995   55.6471 N   0  0  0  0  0  0  0  0  0  0  0  0
   75.5994   49.3896   54.6316 O   0  0  0  0  0  0  0  0  0  0  0  0
   76.1027   49.8419   55.6953 C   0  0  0  0  0  0  0  0  0  0  0  0
   75.2011   50.2049   56.7102 N   0  0  0  0  0  0  0  0  0  0  0  0
   77.5544   49.9512   55.7843 C   0  0  0  0  0  0  0  0  0  0  0  0
   78.4142   48.9923   55.2906 C   0  0  0  0  0  0  0  0  0  0  0  0
   79.7984   49.1453   55.3996 C   0  0  0  0  0  0  0  0  0  0  0  0
   80.3600   50.2507   55.9997 C   0  0  0  0  0  0  0  0  0  0  0  0
   79.5051   51.2126   56.4948 C   0  0  0  0  0  0  0  0  0  0  0  0
   78.1328   51.0517   56.3821 C   0  0  0  0  0  0  0  0  0  0  0  0
   69.5432   49.7714   56.1758 C   0  0  0  0  0  0  0  0  0  0  0  0
   69.0653   48.4569   55.7085 C   0  0  0  0  0  0  0  0  0  0  0  0
   68.8021   47.5033   56.6785 N   0  0  0  0  0  0  0  0  0  0  0  0
   68.4139   46.2989   56.3557 N   0  0  0  0  0  0  0  0  0  0  0  0
   68.2614   45.9539   55.0800 C   0  0  0  0  0  0  0  0  0  0  0  0
   67.8865   44.7872   54.7921 O   0  0  0  0  0  0  0  0  0  0  0  0
   68.5032   46.8500   54.0721 C   0  0  0  0  0  0  0  0  0  0  0  0
   68.9153   48.1317   54.4126 C   0  0  0  0  0  0  0  0  0  0  0  0
   69.1249   49.0712   53.3074 C   0  0  0  0  0  0  0  0  0  0  0  0
   69.9366   48.4505   52.1833 C   0  0  0  0  0  0  0  0  0  0  0  0
   69.6322   47.0053   51.9541 C   0  0  0  0  0  0  0  0  0  0  0  0
   68.3601   46.5315   52.6282 C   0  0  0  0  0  0  0  0  0  0  0  0
  7  8  2  0
  8  9  1  0
  8 10  1  0
  9  1  1  0
  1  2  2  0
  1  6  1  0
  2  3  1  0
  3  4  2  0
  4 16  1  0
  4  5  1  0
 16 17  1  0
 17 18  2  0
 17 23  1  0
 18 19  1  0
 19 20  1  0
 20 21  2  0
 20 22  1  0
 22 23  2  0
 22 27  1  0
 23 24  1  0
 24 25  1  0
 25 26  1  0
 26 27  1  0
  5  6  2  0
 10 11  2  0
 10 15  1  0
 11 12  1  0
 12 13  2  0
 13 14  1  0
 14 15  2  0
M  END
>  <minimizedAffinity>  (70) 
-9.34898

$$$$
data/200k_reference_output/data/smiles/34509.pdb
     RDKit          3D

 26 28  0  0  0  0  0  0  0  0999 V2000
   73.2172   49.5234   57.9314 O   0  0  0  0  0  0  0  0  0  0  0  0
   72.6989   49.8891   56.8509 C   0  0  0  0  0  0  0  0  0  0  0  0
   73.5557   49.9457   55.7164 N   0  0  0  0  0  0  0  0  0  0  0  0
   74.9255   49.5959   55.8521 N   0  0  0  0  0  0  0  0  0  0  0  0
   75.9371   50.5531   55.6424 C   0  0  0  0  0  0  0  0  0  0  0  0
   75.5712   51.7154   55.3332 O   0  0  0  0  0  0  0  0  0  0  0  0
   77.3593   50.2560   55.7650 C   0  0  0  0  0  0  0  0  0  0  0  0
   77.8705   49.1058   55.1755 C   0  0  0  0  0  0  0  0  0  0  0  0
   79.2107   48.7517   55.2439 C   0  0  0  0  0  0  0  0  0  0  0  0
   80.0680   49.5787   55.9279 C   0  0  0  0  0  0  0  0  0  0  0  0
   81.7522   49.1598   56.0319 Cl  0  0  0  0  0  0  0  0  0  0  0  0
   79.6126   50.7276   56.5289 C   0  0  0  0  0  0  0  0  0  0  0  0
   78.2521   51.0584   56.4413 C   0  0  0  0  0  0  0  0  0  0  0  0
   71.2952   50.2577   56.6657 C   0  0  0  0  0  0  0  0  0  0  0  0
   70.9541   50.7714   55.3021 C   0  0  0  0  0  0  0  0  0  0  0  0
   70.4044   49.7623   54.3921 C   0  0  0  0  0  0  0  0  0  0  0  0
   69.6221   48.7798   54.8703 N   0  0  0  0  0  0  0  0  0  0  0  0
   69.0826   47.8257   54.1141 C   0  0  0  0  0  0  0  0  0  0  0  0
   68.2812   46.8233   54.6262 C   0  0  0  0  0  0  0  0  0  0  0  0
   67.7467   45.8605   53.8118 C   0  0  0  0  0  0  0  0  0  0  0  0
   67.9919   45.8620   52.4577 C   0  0  0  0  0  0  0  0  0  0  0  0
   68.7881   46.8536   51.9355 C   0  0  0  0  0  0  0  0  0  0  0  0
   69.3300   47.8259   52.7484 C   0  0  0  0  0  0  0  0  0  0  0  0
   70.1299   48.8267   52.2417 C   0  0  0  0  0  0  0  0  0  0  0  0
   70.3871   48.8740   50.9994 O   0  0  0  0  0  0  0  0  0  0  0  0
   70.6417   49.7592   53.0593 N   0  0  0  0  0  0  0  0  0  0  0  0
  1  2  2  0
  2 14  1  0
  2  3  1  0
 14 15  1  0
 15 16  1  0
 16 17  2  0
 16 26  1  0
 17 18  1  0
 18 19  2  0
 18 23  1  0
 19 20  1  0
 20 21  2  0
 21 22  1  0
 22 23  2  0
 23 24  1  0
 24 25  2  0
 24 26  1  0
  3  4  1  0
  4  5  1  0
  5  6  2  0
  5  7  1  0
  7  8  2  0
  7 13  1  0
  8  9  1  0
  9 10  2  0
 10 11  1  0
 10 12  1  0
 12 13  2  0
M  END
>  <minimizedAffinity>  (71) 
-9.34833

$$$$
data/200k_reference_output/data/smiles/18963.pdb
     RDKit          3D

 27 30  0  0  0  0  0  0  0  0999 V2000
   71.1120   46.2671   58.2600 C   0  0  0  0  0  0  0  0  0  0  0  0
   70.1169   46.7620   57.4376 C   0  0  0  0  0  0  0  0  0  0  0  0
   69.7769   48.1170   57.3431 C   0  0  0  0  0  0  0  0  0  0  0  0
   70.4657   49.0181   58.1074 C   0  0  0  0  0  0  0  0  0  0  0  0
   71.4600   48.5622   58.9361 C   0  0  0  0  0  0  0  0  0  0  0  0
   71.7886   47.2162   59.0230 C   0  0  0  0  0  0  0  0  0  0  0  0
   72.7664   46.8368   59.8790 F   0  0  0  0  0  0  0  0  0  0  0  0
   73.6127   44.9385   57.6408 O   0  0  0  0  0  0  0  0  0  0  0  0
   72.6821   44.3150   58.1243 C   0  0  0  0  0  0  0  0  0  0  0  0
   72.7340   42.8731   58.5597 C   0  0  0  0  0  0  0  0  0  0  0  0
   71.7347   42.1407   57.6724 C   0  0  0  0  0  0  0  0  0  0  0  0
   70.3326   42.6079   57.9771 C   0  0  0  0  0  0  0  0  0  0  0  0
   70.3712   43.9366   58.6918 C   0  0  0  0  0  0  0  0  0  0  0  0
   69.5622   44.2542   59.5946 O   0  0  0  0  0  0  0  0  0  0  0  0
   71.3782   44.9013   58.3407 N   0  0  0  0  0  0  0  0  0  0  0  0
   68.6822   48.4853   56.3757 C   0  0  0  0  0  0  0  0  0  0  0  0
   69.1623   48.5569   54.9767 C   0  0  0  0  0  0  0  0  0  0  0  0
   70.0466   49.5230   54.5950 N   0  0  0  0  0  0  0  0  0  0  0  0
   70.5289   49.5828   53.3665 N   0  0  0  0  0  0  0  0  0  0  0  0
   70.1896   48.7105   52.4128 C   0  0  0  0  0  0  0  0  0  0  0  0
   70.6659   48.7978   51.2638 O   0  0  0  0  0  0  0  0  0  0  0  0
   69.2993   47.6950   52.6979 C   0  0  0  0  0  0  0  0  0  0  0  0
   68.9132   46.7816   51.7356 C   0  0  0  0  0  0  0  0  0  0  0  0
   68.0119   45.7932   52.0537 C   0  0  0  0  0  0  0  0  0  0  0  0
   67.4929   45.7122   53.3257 C   0  0  0  0  0  0  0  0  0  0  0  0
   67.9012   46.6432   54.2657 C   0  0  0  0  0  0  0  0  0  0  0  0
   68.8043   47.6557   54.0066 C   0  0  0  0  0  0  0  0  0  0  0  0
  8  9  2  0
  9 10  1  0
  9 15  1  0
 10 11  1  0
 11 12  1  0
 12 13  1  0
 13 14  2  0
 13 15  1  0
 15  1  1  0
  1  2  2  0
  1  6  1  0
  2  3  1  0
  3 16  1  0
  3  4  2  0
 16 17  1  0
 17 18  2  0
 17 27  1  0
 18 19  1  0
 19 20  1  0
 20 21  2  0
 20 22  1  0
 22 23  1  0
 22 27  2  0
 23 24  2  0
 24 25  1  0
 25 26  2  0
 26 27  1  0
  4  5  1  0
  5  6  2  0
  6  7  1  0
M  END
>  <minimizedAffinity>  (72) 
-9.34719

$$$$
data/200k_reference_output/data/smiles/65931.pdb
     RDKit          3D

 26 28  0  0  0  0  0  0  0  0999 V2000
   68.4581   51.0014   56.3191 C   0  0  0  0  0  0  0  0  0  0  0  0
   67.4723   51.0634   57.2861 C   0  0  0  0  0  0  0  0  0  0  0  0
   67.0140   49.8985   57.8378 C   0  0  0  0  0  0  0  0  0  0  0  0
   67.5224   48.6870   57.4406 C   0  0  0  0  0  0  0  0  0  0  0  0
   68.5124   48.6272   56.4702 C   0  0  0  0  0  0  0  0  0  0  0  0
   68.9245   49.7998   55.9622 N   0  0  0  0  0  0  0  0  0  0  0  0
   71.4050   51.8208   55.3479 N   0  0  0  0  0  0  0  0  0  0  0  0
   71.8074   53.1082   55.7959 C   0  0  0  0  0  0  0  0  0  0  0  0
   70.6394   53.9967   56.1710 C   0  0  0  0  0  0  0  0  0  0  0  0
   69.4625   53.2388   56.6855 C   0  0  0  0  0  0  0  0  0  0  0  0
   69.0072   52.2204   55.6735 C   0  0  1  0  0  0  0  0  0  0  0  0
   70.1144   51.7612   54.7539 C   0  0  0  0  0  0  0  0  0  0  0  0
   72.6106   50.8990   54.6031 S   0  0  0  0  0  0  0  0  0  0  0  0
   71.9715   49.9113   53.6371 O   0  0  0  0  0  0  0  0  0  0  0  0
   73.5655   51.7110   53.7850 O   0  0  0  0  0  0  0  0  0  0  0  0
   74.9188   50.4121   55.8051 C   0  0  0  0  0  0  0  0  0  0  0  0
   73.5549   49.9527   55.6937 N   0  0  0  0  0  0  0  0  0  0  0  0
   72.9743   49.9349   57.0214 C   0  0  0  0  0  0  0  0  0  0  0  0
   69.0580   47.3156   56.0473 C   0  0  0  0  0  0  0  0  0  0  0  0
   68.8438   47.0747   54.5968 C   0  0  0  0  0  0  0  0  0  0  0  0
   69.2849   47.9965   53.6708 C   0  0  0  0  0  0  0  0  0  0  0  0
   69.1139   47.8274   52.3113 C   0  0  0  0  0  0  0  0  0  0  0  0
   68.4718   46.6802   51.8915 C   0  0  0  0  0  0  0  0  0  0  0  0
   68.0291   45.7558   52.8173 C   0  0  0  0  0  0  0  0  0  0  0  0
   68.2023   45.9293   54.1743 C   0  0  0  0  0  0  0  0  0  0  0  0
   67.7511   44.9925   55.0610 F   0  0  0  0  0  0  0  0  0  0  0  0
 16 17  1  0
 17 18  1  0
 17 13  1  0
 13 14  2  0
 13 15  2  0
 13  7  1  0
  7  8  1  0
  7 12  1  0
  8  9  1  0
  9 10  1  0
 10 11  1  0
 11  1  1  1
 11 12  1  0
  1  2  2  0
  1  6  1  0
  2  3  1  0
  3  4  2  0
  4  5  1  0
  5 19  1  0
  5  6  2  0
 19 20  1  0
 20 21  2  0
 20 25  1  0
 21 22  1  0
 22 23  2  0
 23 24  1  0
 24 25  2  0
 25 26  1  0
M  END
>  <minimizedAffinity>  (73) 
-9.33762

$$$$
data/200k_reference_output/data/smiles/31781.pdb
     RDKit          3D

 23 24  0  0  0  0  0  0  0  0999 V2000
   71.1947   49.6566   53.3698 N   0  0  0  0  0  0  0  0  0  0  0  0
   71.9034   51.4385   54.8611 C   0  0  0  0  0  0  0  0  0  0  0  0
   71.5540   52.5373   55.5957 C   0  0  0  0  0  0  0  0  0  0  0  0
   70.2693   53.0391   55.6623 C   0  0  0  0  0  0  0  0  0  0  0  0
   69.9677   54.1195   56.3953 F   0  0  0  0  0  0  0  0  0  0  0  0
   69.2614   52.4169   54.9557 C   0  0  0  0  0  0  0  0  0  0  0  0
   69.5991   51.3076   54.2100 C   0  0  0  0  0  0  0  0  0  0  0  0
   70.9043   50.8058   54.1488 C   0  0  0  0  0  0  0  0  0  0  0  0
   74.5835   52.1486   55.2929 N   0  0  0  0  0  0  0  0  0  0  0  0
   73.5641   50.8627   54.8296 S   0  0  0  0  0  0  0  0  0  0  0  0
   73.7556   49.7276   55.8153 O   0  0  0  0  0  0  0  0  0  0  0  0
   73.8808   50.3317   53.4645 O   0  0  0  0  0  0  0  0  0  0  0  0
   70.0913   48.9281   52.2959 S   0  0  0  0  0  0  0  0  0  0  0  0
   69.1454   49.9571   51.7292 O   0  0  0  0  0  0  0  0  0  0  0  0
   70.8787   48.4135   51.0963 O   0  0  0  0  0  0  0  0  0  0  0  0
   69.1833   47.6358   53.0233 C   0  0  0  0  0  0  0  0  0  0  0  0
   69.1446   47.5298   54.3911 C   0  0  0  0  0  0  0  0  0  0  0  0
   68.4142   46.5020   55.0016 C   0  0  0  0  0  0  0  0  0  0  0  0
   67.7394   45.6029   54.2253 C   0  0  0  0  0  0  0  0  0  0  0  0
   67.7622   45.6865   52.8487 C   0  0  0  0  0  0  0  0  0  0  0  0
   67.0791   44.7743   52.1162 F   0  0  0  0  0  0  0  0  0  0  0  0
   68.4924   46.7145   52.2757 C   0  0  0  0  0  0  0  0  0  0  0  0
   68.5022   46.7805   50.9221 F   0  0  0  0  0  0  0  0  0  0  0  0
  9 10  1  0
 10 11  2  0
 10 12  2  0
 10  2  1  0
  2  3  2  0
  2  8  1  0
  3  4  1  0
  4  5  1  0
  4  6  2  0
  6  7  1  0
  7  8  2  0
  8  1  1  0
  1 13  1  0
 13 14  2  0
 13 15  2  0
 13 16  1  0
 16 17  2  0
 16 22  1  0
 17 18  1  0
 18 19  2  0
 19 20  1  0
 20 21  1  0
 20 22  2  0
 22 23  1  0
M  END
>  <minimizedAffinity>  (74) 
-9.33028

$$$$
data/200k_reference_output/data/smiles/58074.pdb
     RDKit          3D

 28 31  0  0  0  0  0  0  0  0999 V2000
   73.9525   51.3440   55.6285 C   0  0  0  0  0  0  0  0  0  0  0  0
   72.7315   50.7187   55.7060 C   0  0  0  0  0  0  0  0  0  0  0  0
   71.5766   51.1781   55.0968 C   0  0  0  0  0  0  0  0  0  0  0  0
   71.6980   52.3405   54.3736 C   0  0  0  0  0  0  0  0  0  0  0  0
   72.9178   53.0118   54.2646 C   0  0  0  0  0  0  0  0  0  0  0  0
   74.0391   52.5055   54.8958 C   0  0  0  0  0  0  0  0  0  0  0  0
   75.2371   53.1290   54.8126 F   0  0  0  0  0  0  0  0  0  0  0  0
   75.6769   49.4863   54.5342 O   0  0  0  0  0  0  0  0  0  0  0  0
   75.9870   49.8946   55.6807 C   0  0  0  0  0  0  0  0  0  0  0  0
   75.1181   50.8490   56.2654 N   0  0  0  0  0  0  0  0  0  0  0  0
   77.2052   49.3740   56.3405 C   0  0  2  0  0  0  0  0  0  0  0  0
   76.8785   49.0652   57.7750 C   0  0  0  0  0  0  0  0  0  0  0  0
   77.0919   50.2609   58.6794 C   0  0  0  0  0  0  0  0  0  0  0  0
   78.4848   50.8216   58.5633 C   0  0  0  0  0  0  0  0  0  0  0  0
   79.1532   50.1785   57.4463 N   0  0  0  0  0  0  0  0  0  0  0  0
   78.3390   50.3930   56.2657 C   0  0  0  0  0  0  0  0  0  0  0  0
   70.2896   50.4511   55.2483 C   0  0  0  0  0  0  0  0  0  0  0  0
   70.1068   49.4775   54.1218 C   0  0  0  0  0  0  0  0  0  0  0  0
   70.6688   49.7725   52.9053 N   0  0  0  0  0  0  0  0  0  0  0  0
   70.5179   48.9548   51.8902 N   0  0  0  0  0  0  0  0  0  0  0  0
   69.8289   47.8161   51.9687 C   0  0  0  0  0  0  0  0  0  0  0  0
   69.7265   47.0882   50.9621 O   0  0  0  0  0  0  0  0  0  0  0  0
   69.2265   47.4414   53.1686 C   0  0  0  0  0  0  0  0  0  0  0  0
   69.3909   48.3114   54.2392 C   0  0  0  0  0  0  0  0  0  0  0  0
   68.7858   47.9800   55.5806 C   0  0  0  0  0  0  0  0  0  0  0  0
   68.7570   46.4631   55.6754 C   0  0  0  0  0  0  0  0  0  0  0  0
   67.8020   46.0194   54.5672 C   0  0  0  0  0  0  0  0  0  0  0  0
   68.4633   46.1717   53.2303 C   0  0  0  0  0  0  0  0  0  0  0  0
  8  9  2  0
  9 10  1  0
 11  9  1  1
 10  1  1  0
  1  2  2  0
  1  6  1  0
  2  3  1  0
  3 17  1  0
  3  4  2  0
 17 18  1  0
 18 19  2  0
 18 24  1  0
 19 20  1  0
 20 21  1  0
 21 22  2  0
 21 23  1  0
 23 24  2  0
 23 28  1  0
 24 25  1  0
 25 26  1  0
 26 27  1  0
 27 28  1  0
  4  5  1  0
  5  6  2  0
  6  7  1  0
 11 12  1  0
 11 16  1  0
 12 13  1  0
 13 14  1  0
 14 15  1  0
 15 16  1  0
M  CHG  1  15   1
M  END
>  <minimizedAffinity>  (75) 
-9.31467

$$$$
data/200k_reference_output/data/smiles/28243.pdb
     RDKit          3D

 29 31  0  0  0  0  0  0  0  0999 V2000
   68.2550   45.8242   53.9643 C   0  0  0  0  0  0  0  0  0  0  0  0
   67.6522   45.3054   52.8239 C   0  0  0  0  0  0  0  0  0  0  0  0
   67.6959   45.9416   51.6125 C   0  0  0  0  0  0  0  0  0  0  0  0
   68.3694   47.1483   51.5317 C   0  0  0  0  0  0  0  0  0  0  0  0
   68.9856   47.7128   52.6193 C   0  0  0  0  0  0  0  0  0  0  0  0
   68.9084   47.0222   53.8248 C   0  0  0  0  0  0  0  0  0  0  0  0
   67.7405   43.7675   55.3507 N   0  0  0  0  0  0  0  0  0  0  0  0
   68.1831   45.1096   55.2387 C   0  0  0  0  0  0  0  0  0  0  0  0
   68.5241   45.6885   56.3116 O   0  0  0  0  0  0  0  0  0  0  0  0
   67.4297   41.0841   55.5494 O   0  0  0  0  0  0  0  0  0  0  0  0
   67.5219   41.7230   56.6241 C   0  0  0  0  0  0  0  0  0  0  0  0
   67.6842   43.1087   56.5926 N   0  0  0  0  0  0  0  0  0  0  0  0
   67.4556   40.9810   57.8771 C   0  0  0  0  0  0  0  0  0  0  0  0
   68.1082   39.7441   57.9716 C   0  0  0  0  0  0  0  0  0  0  0  0
   68.0396   39.0597   59.1465 C   0  0  0  0  0  0  0  0  0  0  0  0
   67.3619   39.5518   60.2023 N   0  0  0  0  0  0  0  0  0  0  0  0
   66.7314   40.7328   60.1298 C   0  0  0  0  0  0  0  0  0  0  0  0
   66.7781   41.4527   58.9606 C   0  0  0  0  0  0  0  0  0  0  0  0
   69.8548   49.2345   52.5503 S   0  0  0  0  0  0  0  0  0  0  0  0
   71.1559   49.0777   53.3047 O   0  0  0  0  0  0  0  0  0  0  0  0
   70.1560   49.5931   51.1040 O   0  0  0  0  0  0  0  0  0  0  0  0
   68.9323   50.4622   53.2962 N   0  0  0  0  0  0  0  0  0  0  0  0
   68.9184   50.6500   54.6900 C   0  0  0  0  0  0  0  0  0  0  0  0
   69.0943   49.6470   55.6129 C   0  0  0  0  0  0  0  0  0  0  0  0
   69.0842   49.8771   56.9942 C   0  0  0  0  0  0  0  0  0  0  0  0
   68.8931   51.1520   57.4627 C   0  0  0  0  0  0  0  0  0  0  0  0
   68.7148   52.1814   56.5695 C   0  0  0  0  0  0  0  0  0  0  0  0
   68.7291   51.9235   55.2406 C   0  0  0  0  0  0  0  0  0  0  0  0
   68.5525   52.9429   54.3661 F   0  0  0  0  0  0  0  0  0  0  0  0
 10 11  2  0
 11 12  1  0
 11 13  1  0
 12  7  1  0
  7  8  1  0
  8  9  2  0
  8  1  1  0
  1  2  2  0
  1  6  1  0
  2  3  1  0
  3  4  2  0
  4  5  1  0
  5 19  1  0
  5  6  2  0
 19 20  2  0
 19 21  2  0
 19 22  1  0
 22 23  1  0
 23 24  2  0
 23 28  1  0
 24 25  1  0
 25 26  2  0
 26 27  1  0
 27 28  2  0
 28 29  1  0
 13 14  2  0
 13 18  1  0
 14 15  1  0
 15 16  2  0
 16 17  1  0
 17 18  2  0
M  END
>  <minimizedAffinity>  (76) 
-10.34503

$$$$
data/reference_output_2/data/smiles/199900.pdb
     RDKit          3D

 30 33  0  0  0  0  0  0  0  0999 V2000
   68.3911   46.0158   54.1036 C   0  0  0  0  0  0  0  0  0  0  0  0
   67.9104   45.5562   52.8901 C   0  0  0  0  0  0  0  0  0  0  0  0
   68.0615   46.3328   51.7518 C   0  0  0  0  0  0  0  0  0  0  0  0
   68.6795   47.5551   51.7996 C   0  0  0  0  0  0  0  0  0  0  0  0
   69.1592   48.0200   52.9979 C   0  0  0  0  0  0  0  0  0  0  0  0
   69.0037   47.2429   54.1137 C   0  0  0  0  0  0  0  0  0  0  0  0
   67.8264   43.8767   55.3832 N   0  0  0  0  0  0  0  0  0  0  0  0
   68.2501   45.2174   55.3316 C   0  0  0  0  0  0  0  0  0  0  0  0
   68.5322   45.7849   56.4146 O   0  0  0  0  0  0  0  0  0  0  0  0
   67.4657   41.1668   55.4460 O   0  0  0  0  0  0  0  0  0  0  0  0
   67.5101   41.7318   56.5897 C   0  0  0  0  0  0  0  0  0  0  0  0
   67.6963   43.1294   56.5599 N   0  0  0  0  0  0  0  0  0  0  0  0
   67.3753   40.9592   57.8172 C   0  0  0  0  0  0  0  0  0  0  0  0
   66.6570   41.3613   58.9132 C   0  0  0  0  0  0  0  0  0  0  0  0
   66.5488   40.6075   60.0628 C   0  0  0  0  0  0  0  0  0  0  0  0
   67.1831   39.3801   60.1495 C   0  0  0  0  0  0  0  0  0  0  0  0
   67.9091   38.9587   59.0605 C   0  0  0  0  0  0  0  0  0  0  0  0
   68.0014   39.7343   57.9197 C   0  0  0  0  0  0  0  0  0  0  0  0
   69.9673   49.5970   53.0978 S   0  0  0  0  0  0  0  0  0  0  0  0
   71.4476   49.3257   53.3212 O   0  0  0  0  0  0  0  0  0  0  0  0
   69.8597   50.3066   51.7929 O   0  0  0  0  0  0  0  0  0  0  0  0
   69.4144   50.5130   54.4275 N   0  0  0  0  0  0  0  0  0  0  0  0
   68.5914   51.6994   54.3331 C   0  0  0  0  0  0  0  0  0  0  0  0
   68.9393   52.5228   55.5522 C   0  0  0  0  0  0  0  0  0  0  0  0
   69.3502   51.4816   56.5259 C   0  0  0  0  0  0  0  0  0  0  0  0
   69.5035   51.4635   57.9100 C   0  0  0  0  0  0  0  0  0  0  0  0
   69.9122   50.3496   58.6114 C   0  0  0  0  0  0  0  0  0  0  0  0
   70.1834   49.1960   57.9141 C   0  0  0  0  0  0  0  0  0  0  0  0
   70.0334   49.2011   56.5223 C   0  0  0  0  0  0  0  0  0  0  0  0
   69.6206   50.3310   55.8307 C   0  0  0  0  0  0  0  0  0  0  0  0
 10 11  2  0
 11 12  1  0
 11 13  1  0
 12  7  1  0
  7  8  1  0
  8  9  2  0
  8  1  1  0
  1  2  2  0
  1  6  1  0
  2  3  1  0
  3  4  2  0
  4  5  1  0
  5 19  1  0
  5  6  2  0
 19 20  2  0
 19 21  2  0
 19 22  1  0
 22 23  1  0
 22 30  1  0
 23 24  1  0
 24 25  1  0
 25 26  1  0
 25 30  2  0
 26 27  2  0
 27 28  1  0
 28 29  2  0
 29 30  1  0
 13 14  2  0
 13 18  1  0
 14 15  1  0
 15 16  2  0
 16 17  1  0
 17 18  2  0
M  END
>  <minimizedAffinity>  (77) 
-10.20553

$$$$
data/reference_output_2/data/smiles/154657.pdb
     RDKit          3D

 30 32  0  0  0  0  0  0  0  0999 V2000
   69.3084   47.7183   52.9978 C   0  0  0  0  0  0  0  0  0  0  0  0
   68.6129   47.3373   51.8615 C   0  0  0  0  0  0  0  0  0  0  0  0
   67.8034   46.2247   51.8752 C   0  0  0  0  0  0  0  0  0  0  0  0
   67.6680   45.4606   53.0304 C   0  0  0  0  0  0  0  0  0  0  0  0
   68.3459   45.8115   54.1788 C   0  0  0  0  0  0  0  0  0  0  0  0
   69.1451   46.9265   54.1329 C   0  0  0  0  0  0  0  0  0  0  0  0
   70.3077   49.1403   53.0149 S   0  0  0  0  0  0  0  0  0  0  0  0
   69.5957   50.1887   52.1986 O   0  0  0  0  0  0  0  0  0  0  0  0
   71.6408   48.7992   52.3763 O   0  0  0  0  0  0  0  0  0  0  0  0
   70.5902   49.6529   54.6137 N   0  0  0  0  0  0  0  0  0  0  0  0
   66.9988   49.6773   58.0455 C   0  0  0  0  0  0  0  0  0  0  0  0
   67.8941   50.3818   57.0976 C   0  0  0  0  0  0  0  0  0  0  0  0
   67.8243   51.7458   56.9735 C   0  0  0  0  0  0  0  0  0  0  0  0
   68.6627   52.3893   56.0880 C   0  0  0  0  0  0  0  0  0  0  0  0
   69.5595   51.6762   55.3346 C   0  0  0  0  0  0  0  0  0  0  0  0
   69.6517   50.2889   55.4395 C   0  0  0  0  0  0  0  0  0  0  0  0
   68.8168   49.6796   56.3186 C   0  0  0  0  0  0  0  0  0  0  0  0
   68.2200   45.0217   55.4114 C   0  0  0  0  0  0  0  0  0  0  0  0
   68.5569   45.5381   56.5228 O   0  0  0  0  0  0  0  0  0  0  0  0
   67.7405   43.6929   55.4643 N   0  0  0  0  0  0  0  0  0  0  0  0
   67.6340   42.9675   56.6619 N   0  0  0  0  0  0  0  0  0  0  0  0
   67.5758   41.5628   56.7085 C   0  0  0  0  0  0  0  0  0  0  0  0
   67.6288   41.0159   55.5491 O   0  0  0  0  0  0  0  0  0  0  0  0
   67.4671   40.7330   57.8966 C   0  0  0  0  0  0  0  0  0  0  0  0
   68.1060   39.4811   57.9069 C   0  0  0  0  0  0  0  0  0  0  0  0
   68.0393   38.6536   58.9981 C   0  0  0  0  0  0  0  0  0  0  0  0
   67.3316   39.0351   60.1314 C   0  0  0  0  0  0  0  0  0  0  0  0
   66.6942   40.2491   60.1587 C   0  0  0  0  0  0  0  0  0  0  0  0
   66.7860   41.0694   59.0197 C   0  0  0  0  0  0  0  0  0  0  0  0
   66.1231   42.2849   59.1049 O   0  0  0  0  0  0  0  0  0  0  0  0
 11 12  1  0
 12 13  2  0
 12 17  1  0
 13 14  1  0
 14 15  2  0
 15 16  1  0
 16 10  1  0
 16 17  2  0
 10  7  1  0
  7  8  2  0
  7  9  2  0
  7  1  1  0
  1  2  2  0
  1  6  1  0
  2  3  1  0
  3  4  2  0
  4  5  1  0
  5 18  1  0
  5  6  2  0
 18 19  2  0
 18 20  1  0
 20 21  1  0
 21 22  1  0
 22 23  2  0
 22 24  1  0
 24 25  2  0
 24 29  1  0
 25 26  1  0
 26 27  2  0
 27 28  1  0
 28 29  2  0
 29 30  1  0
M  END
>  <minimizedAffinity>  (78) 
-9.99527

$$$$
data/200k_reference_output/data/smiles/39583.pdb
     RDKit          3D

 33 37  0  0  0  0  0  0  0  0999 V2000
   71.5234   47.0190   58.8403 C   0  0  0  0  0  0  0  0  0  0  0  0
   70.7181   47.7930   58.0649 C   0  0  0  0  0  0  0  0  0  0  0  0
   69.7933   47.2540   57.1449 C   0  0  0  0  0  0  0  0  0  0  0  0
   69.7566   45.8953   57.0837 C   0  0  0  0  0  0  0  0  0  0  0  0
   70.5781   45.0842   57.8745 C   0  0  0  0  0  0  0  0  0  0  0  0
   71.4654   45.6452   58.7559 C   0  0  0  0  0  0  0  0  0  0  0  0
   72.2823   44.8682   59.5429 F   0  0  0  0  0  0  0  0  0  0  0  0
   72.0250   47.8144   60.9573 O   0  0  0  0  0  0  0  0  0  0  0  0
   72.4692   47.5748   59.7861 C   0  0  0  0  0  0  0  0  0  0  0  0
   73.8457   47.8545   59.4610 N   0  0  0  0  0  0  0  0  0  0  0  0
   74.5975   48.3690   60.5677 C   0  0  0  0  0  0  0  0  0  0  0  0
   75.3890   49.5979   60.2873 C   0  0  0  0  0  0  0  0  0  0  0  0
   74.6409   50.5482   59.3432 C   0  0  0  0  0  0  0  0  0  0  0  0
   74.4392   49.9867   58.0627 N   0  0  0  0  0  0  0  0  0  0  0  0
   73.6343   50.4914   57.0522 C   0  0  0  0  0  0  0  0  0  0  0  0
   73.5796   49.8254   55.9163 O   0  0  0  0  0  0  0  0  0  0  0  0
   75.1218   48.7274   57.6315 C   0  0  0  0  0  0  0  0  0  0  0  0
   74.2522   47.5931   58.1055 C   0  0  0  0  0  0  0  0  0  0  0  0
   72.8149   51.6895   57.0602 C   0  0  0  0  0  0  0  0  0  0  0  0
   71.9902   52.2252   58.1416 C   0  0  0  0  0  0  0  0  0  0  0  0
   71.2584   51.5290   57.0776 C   0  0  0  0  0  0  0  0  0  0  0  0
   68.9466   48.1857   56.3369 C   0  0  0  0  0  0  0  0  0  0  0  0
   69.3154   48.2768   54.9307 C   0  0  0  0  0  0  0  0  0  0  0  0
   70.2733   49.1890   54.5766 N   0  0  0  0  0  0  0  0  0  0  0  0
   70.7272   49.3216   53.3559 N   0  0  0  0  0  0  0  0  0  0  0  0
   70.2759   48.5594   52.3427 C   0  0  0  0  0  0  0  0  0  0  0  0
   70.7201   48.6962   51.1777 O   0  0  0  0  0  0  0  0  0  0  0  0
   69.3031   47.6025   52.5837 C   0  0  0  0  0  0  0  0  0  0  0  0
   68.8038   46.8174   51.5743 C   0  0  0  0  0  0  0  0  0  0  0  0
   67.8286   45.8974   51.8458 C   0  0  0  0  0  0  0  0  0  0  0  0
   67.3771   45.7968   53.1603 C   0  0  0  0  0  0  0  0  0  0  0  0
   67.8797   46.5855   54.1742 C   0  0  0  0  0  0  0  0  0  0  0  0
   68.8493   47.4960   53.8996 C   0  0  0  0  0  0  0  0  0  0  0  0
  8  9  2  0
  9  1  1  0
  9 10  1  0
  1  2  2  0
  1  6  1  0
  2  3  1  0
  3 22  1  0
  3  4  2  0
 22 23  1  0
 23 24  2  0
 23 33  1  0
 24 25  1  0
 25 26  1  0
 26 27  2  0
 26 28  1  0
 28 29  1  0
 28 33  2  0
 29 30  2  0
 30 31  1  0
 31 32  2  0
 32 33  1  0
  4  5  1  0
  5  6  2  0
  6  7  1  0
 10 11  1  0
 10 18  1  0
 11 12  1  0
 12 13  1  0
 13 14  1  0
 14 15  1  0
 14 17  1  0
 15 16  2  0
 15 19  1  0
 19 20  1  0
 19 21  1  0
 20 21  1  0
 17 18  1  0
M  END
>  <minimizedAffinity>  (79) 
-9.91872

$$$$
data/reference_output_2/data/smiles/175669.pdb
     RDKit          3D

 33 37  0  0  0  0  0  0  0  0999 V2000
   71.8767   46.5623   59.2455 C   0  0  0  0  0  0  0  0  0  0  0  0
   70.9350   47.1853   58.4712 C   0  0  0  0  0  0  0  0  0  0  0  0
   70.1301   46.5013   57.5465 C   0  0  0  0  0  0  0  0  0  0  0  0
   70.3158   45.1597   57.4363 C   0  0  0  0  0  0  0  0  0  0  0  0
   71.2589   44.5195   58.2083 C   0  0  0  0  0  0  0  0  0  0  0  0
   72.0516   45.2059   59.1216 C   0  0  0  0  0  0  0  0  0  0  0  0
   72.9627   44.5108   59.8508 F   0  0  0  0  0  0  0  0  0  0  0  0
   72.2036   47.5992   61.3058 O   0  0  0  0  0  0  0  0  0  0  0  0
   72.6778   47.3212   60.1808 C   0  0  0  0  0  0  0  0  0  0  0  0
   73.9904   47.7723   59.8799 N   0  0  0  0  0  0  0  0  0  0  0  0
   74.7691   48.5231   60.8123 C   0  0  0  0  0  0  0  0  0  0  0  0
   75.7493   49.4879   60.1811 C   0  0  0  0  0  0  0  0  0  0  0  0
   76.3418   48.8912   58.9775 N   0  0  0  0  0  0  0  0  0  0  0  0
   76.0324   47.5150   58.6645 C   0  0  0  0  0  0  0  0  0  0  0  0
   74.5214   47.4437   58.5802 C   0  0  0  0  0  0  0  0  0  0  0  0
   77.1941   49.6557   58.1606 C   0  0  0  0  0  0  0  0  0  0  0  0
   78.3433   50.3044   58.5352 C   0  0  0  0  0  0  0  0  0  0  0  0
   79.1053   51.0368   57.6510 C   0  0  0  0  0  0  0  0  0  0  0  0
   78.7263   51.1406   56.3393 C   0  0  0  0  0  0  0  0  0  0  0  0
   77.5720   50.4891   55.9629 C   0  0  0  0  0  0  0  0  0  0  0  0
   76.8473   49.7825   56.8402 N   0  0  0  0  0  0  0  0  0  0  0  0
   69.1413   47.3114   56.7839 C   0  0  0  0  0  0  0  0  0  0  0  0
   68.6559   46.6460   55.5547 C   0  0  0  0  0  0  0  0  0  0  0  0
   68.0464   45.4353   55.6147 N   0  0  0  0  0  0  0  0  0  0  0  0
   67.5695   44.7752   54.5936 N   0  0  0  0  0  0  0  0  0  0  0  0
   67.6791   45.3188   53.3715 C   0  0  0  0  0  0  0  0  0  0  0  0
   67.2233   44.6994   52.3511 O   0  0  0  0  0  0  0  0  0  0  0  0
   68.2850   46.5452   53.2186 C   0  0  0  0  0  0  0  0  0  0  0  0
   68.7818   47.2250   54.3109 C   0  0  0  0  0  0  0  0  0  0  0  0
   69.4447   48.5409   54.1239 C   0  0  0  0  0  0  0  0  0  0  0  0
   70.1796   48.6931   52.8385 C   0  0  0  0  0  0  0  0  0  0  0  0
   69.8555   47.6646   51.7951 C   0  0  0  0  0  0  0  0  0  0  0  0
   68.4243   47.1836   51.8881 C   0  0  0  0  0  0  0  0  0  0  0  0
  8  9  2  0
  9  1  1  0
  9 10  1  0
  1  2  2  0
  1  6  1  0
  2  3  1  0
  3 22  1  0
  3  4  2  0
 22 23  1  0
 23 24  2  0
 23 29  1  0
 24 25  1  0
 25 26  1  0
 26 27  2  0
 26 28  1  0
 28 29  2  0
 28 33  1  0
 29 30  1  0
 30 31  1  0
 31 32  1  0
 32 33  1  0
  4  5  1  0
  5  6  2  0
  6  7  1  0
 10 11  1  0
 10 15  1  0
 11 12  1  0
 12 13  1  0
 13 16  1  0
 13 14  1  0
 16 17  2  0
 16 21  1  0
 17 18  1  0
 18 19  2  0
 19 20  1  0
 20 21  2  0
 14 15  1  0
M  END
>  <minimizedAffinity>  (80) 
-9.81302

$$$$
data/200k_reference_output/data/smiles/64370.pdb
     RDKit          3D

 29 31  0  0  0  0  0  0  0  0999 V2000
   68.3401   46.0378   53.9838 C   0  0  0  0  0  0  0  0  0  0  0  0
   69.0399   47.2315   54.0310 C   0  0  0  0  0  0  0  0  0  0  0  0
   69.2226   48.0352   52.9280 C   0  0  0  0  0  0  0  0  0  0  0  0
   68.6908   47.6394   51.7246 C   0  0  0  0  0  0  0  0  0  0  0  0
   67.9931   46.4710   51.6287 C   0  0  0  0  0  0  0  0  0  0  0  0
   67.8301   45.6833   52.7721 C   0  0  0  0  0  0  0  0  0  0  0  0
   67.1186   44.5352   52.5752 F   0  0  0  0  0  0  0  0  0  0  0  0
   67.7773   43.8905   55.2587 N   0  0  0  0  0  0  0  0  0  0  0  0
   68.1731   45.2294   55.1602 C   0  0  0  0  0  0  0  0  0  0  0  0
   68.4132   45.7854   56.3018 O   0  0  0  0  0  0  0  0  0  0  0  0
   67.4481   41.1700   55.5224 O   0  0  0  0  0  0  0  0  0  0  0  0
   67.4858   41.8169   56.6034 C   0  0  0  0  0  0  0  0  0  0  0  0
   67.6529   43.2118   56.4928 N   0  0  0  0  0  0  0  0  0  0  0  0
   67.3567   41.1078   57.8683 C   0  0  0  0  0  0  0  0  0  0  0  0
   67.9768   39.9084   58.1208 C   0  0  0  0  0  0  0  0  0  0  0  0
   67.8203   39.2760   59.3398 C   0  0  0  0  0  0  0  0  0  0  0  0
   67.0494   39.8176   60.3267 C   0  0  0  0  0  0  0  0  0  0  0  0
   66.4116   41.0275   60.0987 C   0  0  0  0  0  0  0  0  0  0  0  0
   65.4163   41.7387   61.3564 Cl  0  0  0  0  0  0  0  0  0  0  0  0
   66.5805   41.6428   58.8760 C   0  0  0  0  0  0  0  0  0  0  0  0
   70.1188   49.5303   53.0648 S   0  0  0  0  0  0  0  0  0  0  0  0
   71.5808   49.1801   53.0410 O   0  0  0  0  0  0  0  0  0  0  0  0
   69.8625   50.4461   51.8971 O   0  0  0  0  0  0  0  0  0  0  0  0
   69.7936   50.3743   54.5052 N   0  0  0  0  0  0  0  0  0  0  0  0
   70.9478   50.7124   55.2748 C   0  0  0  0  0  0  0  0  0  0  0  0
   71.2642   52.1763   55.0161 C   0  0  0  0  0  0  0  0  0  0  0  0
   70.2869   53.0185   55.4891 O   0  0  0  0  0  0  0  0  0  0  0  0
   69.0268   52.4723   55.4475 C   0  0  0  0  0  0  0  0  0  0  0  0
   68.8505   51.4452   54.3552 C   0  0  0  0  0  0  0  0  0  0  0  0
 11 12  2  0
 12 13  1  0
 12 14  1  0
 13  8  1  0
  8  9  1  0
  9 10  2  0
  9  1  1  0
  1  2  2  0
  1  6  1  0
  2  3  1  0
  3 21  1  0
  3  4  2  0
 21 22  2  0
 21 23  2  0
 21 24  1  0
 24 25  1  0
 24 29  1  0
 25 26  1  0
 26 27  1  0
 27 28  1  0
 28 29  1  0
  4  5  1  0
  5  6  2  0
  6  7  1  0
 14 15  2  0
 14 20  1  0
 15 16  1  0
 16 17  2  0
 17 18  1  0
 18 19  1  0
 18 20  2  0
M  END
>  <minimizedAffinity>  (81) 
-9.81105

$$$$
data/reference_output_2/data/smiles/112256.pdb
     RDKit          3D

 31 34  0  0  0  0  0  0  0  0999 V2000
   71.3634   46.7828   58.8788 C   0  0  0  0  0  0  0  0  0  0  0  0
   70.4345   47.4713   58.1374 C   0  0  0  0  0  0  0  0  0  0  0  0
   69.5899   46.8609   57.1963 C   0  0  0  0  0  0  0  0  0  0  0  0
   69.7199   45.5124   57.0291 C   0  0  0  0  0  0  0  0  0  0  0  0
   70.6578   44.7869   57.7702 C   0  0  0  0  0  0  0  0  0  0  0  0
   71.4668   45.4195   58.6809 C   0  0  0  0  0  0  0  0  0  0  0  0
   72.3918   44.7506   59.4213 F   0  0  0  0  0  0  0  0  0  0  0  0
   71.8547   47.4520   61.0424 O   0  0  0  0  0  0  0  0  0  0  0  0
   72.2234   47.4768   59.8484 C   0  0  0  0  0  0  0  0  0  0  0  0
   73.4132   48.1497   59.4946 N   0  0  0  0  0  0  0  0  0  0  0  0
   74.0979   48.7525   60.5794 C   0  0  0  0  0  0  0  0  0  0  0  0
   75.1561   49.7152   60.2878 C   0  0  0  0  0  0  0  0  0  0  0  0
   75.3197   50.1438   58.8662 C   0  0  0  0  0  0  0  0  0  0  0  0
   75.8565   49.1714   57.9943 N   0  0  1  0  0  0  0  0  0  0  0  0
   75.1956   47.9279   57.9184 C   0  0  0  0  0  0  0  0  0  0  0  0
   73.7290   48.1108   58.0855 C   0  0  0  0  0  0  0  0  0  0  0  0
   76.4040   49.7085   56.8050 C   0  0  0  0  0  0  0  0  0  0  0  0
   75.4347   50.1937   55.7840 C   0  0  0  0  0  0  0  0  0  0  0  0
   75.4269   49.4197   54.6262 O   0  0  0  0  0  0  0  0  0  0  0  0
   68.6199   47.7322   56.4906 C   0  0  0  0  0  0  0  0  0  0  0  0
   69.1497   48.0358   55.1371 C   0  0  0  0  0  0  0  0  0  0  0  0
   70.1026   48.9968   55.0003 N   0  0  0  0  0  0  0  0  0  0  0  0
   70.6412   49.2700   53.8317 N   0  0  0  0  0  0  0  0  0  0  0  0
   70.2828   48.6198   52.7098 C   0  0  0  0  0  0  0  0  0  0  0  0
   70.8374   48.9305   51.6299 O   0  0  0  0  0  0  0  0  0  0  0  0
   69.3224   47.6304   52.7568 C   0  0  0  0  0  0  0  0  0  0  0  0
   68.9149   46.9480   51.6330 C   0  0  0  0  0  0  0  0  0  0  0  0
   67.9450   45.9770   51.7007 C   0  0  0  0  0  0  0  0  0  0  0  0
   67.3744   45.6879   52.9177 C   0  0  0  0  0  0  0  0  0  0  0  0
   67.7953   46.3821   54.0408 C   0  0  0  0  0  0  0  0  0  0  0  0
   68.7689   47.3638   54.0135 C   0  0  0  0  0  0  0  0  0  0  0  0
  8  9  2  0
  9  1  1  0
  9 10  1  0
  1  2  2  0
  1  6  1  0
  2  3  1  0
  3 20  1  0
  3  4  2  0
 20 21  1  0
 21 22  2  0
 21 31  1  0
 22 23  1  0
 23 24  1  0
 24 25  2  0
 24 26  1  0
 26 27  1  0
 26 31  2  0
 27 28  2  0
 28 29  1  0
 29 30  2  0
 30 31  1  0
  4  5  1  0
  5  6  2  0
  6  7  1  0
 10 11  1  0
 10 16  1  0
 11 12  1  0
 12 13  1  0
 13 14  1  0
 14 17  1  6
 14 15  1  0
 17 18  1  0
 18 19  1  0
 15 16  1  0
M  CHG  1  14   1
M  END
>  <minimizedAffinity>  (82) 
-9.74793

$$$$
data/200k_reference_output/data/smiles/67490.pdb
     RDKit          3D

 29 32  0  0  0  0  0  0  0  0999 V2000
   68.4267   45.9368   54.2274 C   0  0  0  0  0  0  0  0  0  0  0  0
   67.7347   45.3068   53.2148 C   0  0  0  0  0  0  0  0  0  0  0  0
   67.7149   45.8791   51.9455 C   0  0  0  0  0  0  0  0  0  0  0  0
   68.3762   47.0691   51.6855 C   0  0  0  0  0  0  0  0  0  0  0  0
   69.0714   47.7038   52.6977 C   0  0  0  0  0  0  0  0  0  0  0  0
   69.0704   47.1156   53.9290 C   0  0  0  0  0  0  0  0  0  0  0  0
   68.4111   46.2153   56.5466 O   0  0  0  0  0  0  0  0  0  0  0  0
   68.5060   45.4206   55.5800 C   0  0  0  0  0  0  0  0  0  0  0  0
   68.6878   44.0582   55.9039 N   0  0  0  0  0  0  0  0  0  0  0  0
   68.7652   43.5569   57.2051 N   0  0  0  0  0  0  0  0  0  0  0  0
   68.3372   42.3749   57.4431 C   0  0  0  0  0  0  0  0  0  0  0  0
   67.7527   41.4862   56.4047 C   0  0  0  0  0  0  0  0  0  0  0  0
   68.0844   40.1294   56.9849 C   0  0  0  0  0  0  0  0  0  0  0  0
   68.1554   40.2937   58.4374 C   0  0  0  0  0  0  0  0  0  0  0  0
   68.1045   39.4256   59.5331 C   0  0  0  0  0  0  0  0  0  0  0  0
   68.2034   39.8796   60.8285 C   0  0  0  0  0  0  0  0  0  0  0  0
   68.3596   41.2357   61.0800 C   0  0  0  0  0  0  0  0  0  0  0  0
   68.4107   42.0924   60.0167 C   0  0  0  0  0  0  0  0  0  0  0  0
   68.5660   43.4537   60.2405 O   0  0  0  0  0  0  0  0  0  0  0  0
   68.3104   41.6308   58.7212 C   0  0  0  0  0  0  0  0  0  0  0  0
   69.9373   49.2051   52.4584 S   0  0  0  0  0  0  0  0  0  0  0  0
   71.3936   49.0595   52.7906 O   0  0  0  0  0  0  0  0  0  0  0  0
   69.8310   49.5312   50.9779 O   0  0  0  0  0  0  0  0  0  0  0  0
   69.2000   50.4935   53.3083 N   0  0  0  0  0  0  0  0  0  0  0  0
   70.1429   51.0662   54.2192 C   0  0  0  0  0  0  0  0  0  0  0  0
   70.1340   50.2542   55.5106 C   0  0  0  0  0  0  0  0  0  0  0  0
   68.7151   50.4993   55.9980 C   0  0  0  0  0  0  0  0  0  0  0  0
   68.4318   51.9283   55.6612 C   0  0  0  0  0  0  0  0  0  0  0  0
   69.5343   52.3811   54.7223 C   0  0  0  0  0  0  0  0  0  0  0  0
  7  8  2  0
  8  9  1  0
  8  1  1  0
  9 10  1  0
 10 11  2  0
 11 12  1  0
 11 20  1  0
 12 13  1  0
 13 14  1  0
 14 15  1  0
 14 20  2  0
 15 16  2  0
 16 17  1  0
 17 18  2  0
 18 19  1  0
 18 20  1  0
  1  2  2  0
  1  6  1  0
  2  3  1  0
  3  4  2  0
  4  5  1  0
  5 21  1  0
  5  6  2  0
 21 22  2  0
 21 23  2  0
 21 24  1  0
 24 25  1  0
 25 26  1  0
 25 29  1  0
 26 27  1  0
 27 28  1  0
 28 29  1  0
M  END
>  <minimizedAffinity>  (83) 
-9.71686

$$$$
data/reference_output_2/data/smiles/165880.pdb
     RDKit          3D

 28 31  0  0  0  0  0  0  0  0999 V2000
   69.8201   39.8417   58.1399 N   0  0  0  0  0  0  0  0  0  0  0  0
   70.9345   40.7862   58.1674 C   0  0  0  0  0  0  0  0  0  0  0  0
   70.4548   42.1958   58.2701 C   0  0  0  0  0  0  0  0  0  0  0  0
   69.3488   42.5860   57.3836 C   0  0  0  0  0  0  0  0  0  0  0  0
   68.9104   43.7972   56.8668 C   0  0  0  0  0  0  0  0  0  0  0  0
   67.7695   43.4658   56.1689 N   0  0  0  0  0  0  0  0  0  0  0  0
   67.5111   42.2032   56.2286 N   0  0  0  0  0  0  0  0  0  0  0  0
   68.4641   41.6169   56.9703 C   0  0  0  0  0  0  0  0  0  0  0  0
   68.7015   40.2200   57.3562 C   0  0  0  0  0  0  0  0  0  0  0  0
   67.9122   39.3307   56.9948 O   0  0  0  0  0  0  0  0  0  0  0  0
   70.4166   34.9566   61.0561 C   0  0  0  0  0  0  0  0  0  0  0  0
   70.2448   36.2369   60.3048 C   0  0  0  0  0  0  0  0  0  0  0  0
   69.2199   37.1141   60.5811 C   0  0  0  0  0  0  0  0  0  0  0  0
   69.0613   38.2971   59.8877 C   0  0  0  0  0  0  0  0  0  0  0  0
   69.9352   38.6501   58.8777 C   0  0  0  0  0  0  0  0  0  0  0  0
   70.9640   37.7632   58.6035 C   0  0  0  0  0  0  0  0  0  0  0  0
   71.1223   36.5810   59.2974 C   0  0  0  0  0  0  0  0  0  0  0  0
   69.3980   45.0847   57.0276 N   0  0  0  0  0  0  0  0  0  0  0  0
   69.0229   46.5638   56.3415 S   0  0  0  0  0  0  0  0  0  0  0  0
   67.8012   47.2114   56.9753 O   0  0  0  0  0  0  0  0  0  0  0  0
   70.1359   47.5877   56.5824 O   0  0  0  0  0  0  0  0  0  0  0  0
   68.7242   46.5426   54.6170 C   0  0  0  0  0  0  0  0  0  0  0  0
   67.9222   45.5742   54.0479 C   0  0  0  0  0  0  0  0  0  0  0  0
   67.6440   45.5926   52.7182 C   0  0  0  0  0  0  0  0  0  0  0  0
   68.1345   46.5660   51.8577 C   0  0  0  0  0  0  0  0  0  0  0  0
   67.8424   46.5645   50.5331 F   0  0  0  0  0  0  0  0  0  0  0  0
   68.9344   47.5334   52.4240 C   0  0  0  0  0  0  0  0  0  0  0  0
   69.2063   47.5044   53.7568 C   0  0  0  0  0  0  0  0  0  0  0  0
 11 12  1  0
 12 13  2  0
 12 17  1  0
 13 14  1  0
 14 15  2  0
 15  1  1  0
 15 16  1  0
  1  2  1  0
  1  9  1  0
  2  3  1  0
  3  4  1  0
  4  5  1  0
  4  8  2  0
  5 18  1  0
  5  6  2  0
 18 19  1  0
 19 20  2  0
 19 21  2  0
 19 22  1  0
 22 23  2  0
 22 28  1  0
 23 24  1  0
 24 25  2  0
 25 26  1  0
 25 27  1  0
 27 28  2  0
  6  7  1  0
  7  8  1  0
  8  9  1  0
  9 10  2  0
 16 17  2  0
M  END
>  <minimizedAffinity>  (84) 
-9.67729

$$$$
data/200k_reference_output/data/smiles/84868.pdb
     RDKit          3D

 33 36  0  0  0  0  0  0  0  0999 V2000
   72.5196   41.5797   58.7863 C   0  0  0  0  0  0  0  0  0  0  0  0
   72.1478   42.2445   57.6369 C   0  0  0  0  0  0  0  0  0  0  0  0
   72.0158   43.6130   57.5769 C   0  0  0  0  0  0  0  0  0  0  0  0
   72.2589   44.4037   58.7093 C   0  0  0  0  0  0  0  0  0  0  0  0
   72.6277   43.7355   59.8489 C   0  0  0  0  0  0  0  0  0  0  0  0
   72.7613   42.3453   59.9049 C   0  0  0  0  0  0  0  0  0  0  0  0
   72.9006   44.5493   61.0215 C   0  0  0  0  0  0  0  0  0  0  0  0
   73.2402   43.9248   62.0766 O   0  0  0  0  0  0  0  0  0  0  0  0
   72.7946   45.9542   60.9923 N   0  0  0  0  0  0  0  0  0  0  0  0
   73.0576   46.6749   62.1133 O   0  0  0  0  0  0  0  0  0  0  0  0
   72.4170   46.6225   59.8071 C   0  0  0  0  0  0  0  0  0  0  0  0
   72.3638   47.9076   59.7835 O   0  0  0  0  0  0  0  0  0  0  0  0
   72.0814   45.8673   58.5897 C   0  0  2  0  0  0  0  0  0  0  0  0
   70.4268   39.8154   58.4034 O   0  0  0  0  0  0  0  0  0  0  0  0
   71.5482   39.2881   58.6003 C   0  0  0  0  0  0  0  0  0  0  0  0
   72.6433   40.1562   58.8001 N   0  0  0  0  0  0  0  0  0  0  0  0
   71.6355   37.8253   58.6084 C   0  0  0  0  0  0  0  0  0  0  0  0
   71.0012   37.0793   59.5835 C   0  0  0  0  0  0  0  0  0  0  0  0
   71.0696   35.6951   59.6123 C   0  0  0  0  0  0  0  0  0  0  0  0
   71.7813   35.0012   58.6576 C   0  0  0  0  0  0  0  0  0  0  0  0
   72.4204   35.7303   57.6783 C   0  0  0  0  0  0  0  0  0  0  0  0
   72.3438   37.1184   57.6611 C   0  0  0  0  0  0  0  0  0  0  0  0
   70.6679   46.2009   58.2267 C   0  0  0  0  0  0  0  0  0  0  0  0
   69.7324   45.7325   58.9350 O   0  0  0  0  0  0  0  0  0  0  0  0
   70.3403   47.0140   57.1262 N   0  0  0  0  0  0  0  0  0  0  0  0
   69.0067   47.3612   56.7482 C   0  0  0  0  0  0  0  0  0  0  0  0
   68.8489   47.2083   55.2867 C   0  0  0  0  0  0  0  0  0  0  0  0
   68.2129   46.0670   54.7782 C   0  0  0  0  0  0  0  0  0  0  0  0
   68.0164   45.8523   53.4375 C   0  0  0  0  0  0  0  0  0  0  0  0
   68.4523   46.7832   52.5239 C   0  0  0  0  0  0  0  0  0  0  0  0
   68.2816   46.6166   51.1850 F   0  0  0  0  0  0  0  0  0  0  0  0
   69.0850   47.9233   52.9972 C   0  0  0  0  0  0  0  0  0  0  0  0
   69.2721   48.1179   54.3474 C   0  0  0  0  0  0  0  0  0  0  0  0
 14 15  2  0
 15 16  1  0
 15 17  1  0
 16  1  1  0
  1  2  2  0
  1  6  1  0
  2  3  1  0
  3  4  2  0
  4  5  1  0
  4 13  1  0
  5  6  2  0
  5  7  1  0
  7  8  2  0
  7  9  1  0
  9 10  1  0
  9 11  1  0
 11 12  2  0
 11 13  1  0
 13 23  1  1
 23 24  2  0
 23 25  1  0
 25 26  1  0
 26 27  1  0
 27 28  2  0
 27 33  1  0
 28 29  1  0
 29 30  2  0
 30 31  1  0
 30 32  1  0
 32 33  2  0
 17 18  2  0
 17 22  1  0
 18 19  1  0
 19 20  2  0
 20 21  1  0
 21 22  2  0
M  END
>  <minimizedAffinity>  (85) 
-9.61048

$$$$
data/200k_reference_output/data/smiles/82058.pdb
     RDKit          3D

 29 32  0  0  0  0  0  0  0  0999 V2000
   68.7715   41.3303   57.4576 C   0  0  0  0  0  0  0  0  0  0  0  0
   68.3271   40.0114   57.6361 C   0  0  0  0  0  0  0  0  0  0  0  0
   69.1581   39.0280   58.1163 C   0  0  0  0  0  0  0  0  0  0  0  0
   70.4617   39.3228   58.4376 C   0  0  0  0  0  0  0  0  0  0  0  0
   70.9507   40.6281   58.2769 C   0  0  0  0  0  0  0  0  0  0  0  0
   72.2582   40.9167   58.5944 C   0  0  0  0  0  0  0  0  0  0  0  0
   73.0089   40.0316   59.0270 O   0  0  0  0  0  0  0  0  0  0  0  0
   72.7099   42.2011   58.4235 C   0  0  0  0  0  0  0  0  0  0  0  0
   74.0305   42.5239   58.7398 C   0  0  0  0  0  0  0  0  0  0  0  0
   74.4525   43.8116   58.5615 C   0  0  0  0  0  0  0  0  0  0  0  0
   73.5466   44.7586   58.0702 C   0  0  0  0  0  0  0  0  0  0  0  0
   72.2463   44.4302   57.7609 C   0  0  0  0  0  0  0  0  0  0  0  0
   71.8101   43.1271   57.9385 C   0  0  0  0  0  0  0  0  0  0  0  0
   70.5335   42.8589   57.6230 N   0  0  0  0  0  0  0  0  0  0  0  0
   70.0842   41.5956   57.7896 C   0  0  0  0  0  0  0  0  0  0  0  0
   68.3576   43.1829   55.8567 N   0  0  0  0  0  0  0  0  0  0  0  0
   67.8924   42.3444   56.9172 C   0  0  0  0  0  0  0  0  0  0  0  0
   66.7103   42.5541   57.3225 O   0  0  0  0  0  0  0  0  0  0  0  0
   67.5509   44.1851   55.3170 N   0  0  0  0  0  0  0  0  0  0  0  0
   69.2376   47.7028   53.5698 C   0  0  0  0  0  0  0  0  0  0  0  0
   68.6409   46.7312   52.7797 C   0  0  0  0  0  0  0  0  0  0  0  0
   68.0872   45.5764   53.3401 C   0  0  0  0  0  0  0  0  0  0  0  0
   68.1047   45.3423   54.6897 C   0  0  0  0  0  0  0  0  0  0  0  0
   68.7100   46.3294   55.4800 C   0  0  0  0  0  0  0  0  0  0  0  0
   69.2533   47.4652   54.9283 C   0  0  0  0  0  0  0  0  0  0  0  0
   70.0584   49.0871   51.1749 N   0  0  0  0  0  0  0  0  0  0  0  0
   69.9460   49.1489   52.8785 S   0  0  0  0  0  0  0  0  0  0  0  0
   69.1613   50.3729   53.2812 O   0  0  0  0  0  0  0  0  0  0  0  0
   71.3470   49.3579   53.4271 O   0  0  0  0  0  0  0  0  0  0  0  0
 26 27  1  0
 27 28  2  0
 27 29  2  0
 27 20  1  0
 20 21  2  0
 20 25  1  0
 21 22  1  0
 22 23  2  0
 23 19  1  0
 23 24  1  0
 19 16  1  0
 16 17  1  0
 17 18  2  0
 17  1  1  0
  1  2  2  0
  1 15  1  0
  2  3  1  0
  3  4  2  0
  4  5  1  0
  5  6  1  0
  5 15  2  0
  6  7  2  0
  6  8  1  0
  8  9  1  0
  8 13  2  0
  9 10  2  0
 10 11  1  0
 11 12  2  0
 12 13  1  0
 13 14  1  0
 14 15  1  0
 24 25  2  0
M  END
>  <minimizedAffinity>  (86) 
-9.56847

$$$$
data/200k_reference_output/data/smiles/27234.pdb
     RDKit          3D

 25 26  0  0  0  0  0  0  0  0999 V2000
   69.9759   49.3580   52.7080 S   0  0  0  0  0  0  0  0  0  0  0  0
   69.9219   49.3846   51.2082 O   0  0  0  0  0  0  0  0  0  0  0  0
   71.4195   49.4081   53.1328 O   0  0  0  0  0  0  0  0  0  0  0  0
   69.2305   47.8754   53.3032 C   0  0  0  0  0  0  0  0  0  0  0  0
   69.2999   47.6308   54.6579 C   0  0  0  0  0  0  0  0  0  0  0  0
   69.9167   48.5031   55.5047 F   0  0  0  0  0  0  0  0  0  0  0  0
   68.7366   46.4847   55.1787 C   0  0  0  0  0  0  0  0  0  0  0  0
   68.7823   46.2048   56.5045 F   0  0  0  0  0  0  0  0  0  0  0  0
   68.1016   45.5794   54.3323 C   0  0  0  0  0  0  0  0  0  0  0  0
   67.5586   44.4612   54.8820 F   0  0  0  0  0  0  0  0  0  0  0  0
   68.0320   45.8239   52.9798 C   0  0  0  0  0  0  0  0  0  0  0  0
   67.4067   44.9187   52.2003 F   0  0  0  0  0  0  0  0  0  0  0  0
   68.5984   46.9725   52.4754 C   0  0  0  0  0  0  0  0  0  0  0  0
   68.5378   47.2168   51.1385 F   0  0  0  0  0  0  0  0  0  0  0  0
   69.1101   50.7306   53.2863 N   0  0  0  0  0  0  0  0  0  0  0  0
   71.5737   52.9398   55.0439 C   0  0  0  0  0  0  0  0  0  0  0  0
   70.8463   53.3902   56.1156 C   0  0  0  0  0  0  0  0  0  0  0  0
   69.5476   52.9428   56.2240 C   0  0  0  0  0  0  0  0  0  0  0  0
   68.9887   52.0824   55.3104 C   0  0  0  0  0  0  0  0  0  0  0  0
   69.7271   51.6174   54.2112 C   0  0  0  0  0  0  0  0  0  0  0  0
   71.0215   52.0753   54.1190 C   0  0  0  0  0  0  0  0  0  0  0  0
   73.7882   52.8248   53.2858 N   0  0  0  0  0  0  0  0  0  0  0  0
   73.2277   53.4498   54.8176 S   0  0  0  0  0  0  0  0  0  0  0  0
   74.1414   52.8936   55.8705 O   0  0  0  0  0  0  0  0  0  0  0  0
   73.3400   54.9451   54.7282 O   0  0  0  0  0  0  0  0  0  0  0  0
 22 23  1  0
 23 24  2  0
 23 25  2  0
 23 16  1  0
 16 17  2  0
 16 21  1  0
 17 18  1  0
 18 19  2  0
 19 20  1  0
 20 15  1  0
 20 21  2  0
 15  1  1  0
  1  2  2  0
  1  3  2  0
  1  4  1  0
  4  5  2  0
  4 13  1  0
  5  6  1  0
  5  7  1  0
  7  8  1  0
  7  9  2  0
  9 10  1  0
  9 11  1  0
 11 12  1  0
 11 13  2  0
 13 14  1  0
M  END
>  <minimizedAffinity>  (87) 
-9.56258

$$$$
data/200k_reference_output/data/smiles/38899.pdb
     RDKit          3D

 31 33  0  0  0  0  0  0  0  0999 V2000
   69.7487   47.3050   57.3900 C   0  0  0  0  0  0  0  0  0  0  0  0
   68.5539   47.2317   57.7989 O   0  0  0  0  0  0  0  0  0  0  0  0
   69.9924   47.9479   56.1713 N   0  0  0  0  0  0  0  0  0  0  0  0
   68.9759   48.5413   55.3312 C   0  0  1  0  0  0  0  0  0  0  0  0
   69.2874   49.9291   54.9592 C   0  0  0  0  0  0  0  0  0  0  0  0
   68.7530   50.7943   55.7035 O   0  0  0  0  0  0  0  0  0  0  0  0
   70.0760   50.4928   53.9198 N   0  0  0  0  0  0  0  0  0  0  0  0
   70.5469   51.8570   54.1528 C   0  0  0  0  0  0  0  0  0  0  0  0
   70.4401   49.8877   52.7198 N   0  0  0  0  0  0  0  0  0  0  0  0
   70.0960   48.7131   52.2690 C   0  0  0  0  0  0  0  0  0  0  0  0
   69.2450   47.7249   52.8894 C   0  0  0  0  0  0  0  0  0  0  0  0
   68.8972   46.7275   51.9670 C   0  0  0  0  0  0  0  0  0  0  0  0
   68.0965   45.6917   52.3415 C   0  0  0  0  0  0  0  0  0  0  0  0
   67.6125   45.5969   53.6254 C   0  0  0  0  0  0  0  0  0  0  0  0
   67.9647   46.5867   54.5212 C   0  0  0  0  0  0  0  0  0  0  0  0
   68.7719   47.6475   54.1750 C   0  0  0  0  0  0  0  0  0  0  0  0
   72.0721   47.5756   58.2215 C   0  0  0  0  0  0  0  0  0  0  0  0
   70.8333   46.7165   58.2055 C   0  0  2  0  0  0  0  0  0  0  0  0
   71.0972   45.3415   57.8618 N   0  0  0  0  0  0  0  0  0  0  0  0
   70.5409   44.2350   58.5637 C   0  0  0  0  0  0  0  0  0  0  0  0
   69.7881   44.4295   59.5258 O   0  0  0  0  0  0  0  0  0  0  0  0
   70.8464   42.8321   58.1654 C   0  0  2  0  0  0  0  0  0  0  0  0
   71.9106   42.8376   57.2713 O   0  0  0  0  0  0  0  0  0  0  0  0
   69.6865   42.1435   57.5954 C   0  0  0  0  0  0  0  0  0  0  0  0
   69.3821   40.8249   57.8355 C   0  0  0  0  0  0  0  0  0  0  0  0
   68.2868   40.2065   57.2852 C   0  0  0  0  0  0  0  0  0  0  0  0
   67.9824   38.9055   57.5197 F   0  0  0  0  0  0  0  0  0  0  0  0
   67.4604   40.9522   56.4551 C   0  0  0  0  0  0  0  0  0  0  0  0
   67.7286   42.2788   56.1880 C   0  0  0  0  0  0  0  0  0  0  0  0
   66.9341   43.0280   55.3784 F   0  0  0  0  0  0  0  0  0  0  0  0
   68.8450   42.8634   56.7641 C   0  0  0  0  0  0  0  0  0  0  0  0
 18 17  1  6
 18 19  1  0
 18  1  1  0
 19 20  1  0
 20 21  2  0
 20 22  1  0
 22 23  1  6
 22 24  1  0
 24 25  2  0
 24 31  1  0
 25 26  1  0
 26 27  1  0
 26 28  2  0
 28 29  1  0
 29 30  1  0
 29 31  2  0
  1  2  2  0
  1  3  1  0
  4  3  1  6
  4  5  1  0
  4 16  1  0
  5  6  2  0
  5  7  1  0
  7  8  1  0
  7  9  1  0
  9 10  2  0
 10 11  1  0
 11 12  1  0
 11 16  2  0
 12 13  2  0
 13 14  1  0
 14 15  2  0
 15 16  1  0
M  END
>  <minimizedAffinity>  (88) 
-9.54227

$$$$
data/200k_reference_output/data/smiles/50452.pdb
     RDKit          3D

 28 29  0  0  0  0  0  0  0  0999 V2000
   70.6365   44.2877   58.3470 C   0  0  0  0  0  0  0  0  0  0  0  0
   71.4214   45.4763   59.1317 S   0  0  0  0  0  0  0  0  0  0  0  0
   70.5569   41.8334   58.7741 C   0  0  0  0  0  0  0  0  0  0  0  0
   69.4461   42.0164   59.3431 O   0  0  0  0  0  0  0  0  0  0  0  0
   71.1889   42.9780   58.2540 N   0  0  0  0  0  0  0  0  0  0  0  0
   72.0255   37.8022   58.5561 C   0  0  0  0  0  0  0  0  0  0  0  0
   72.8584   38.8372   58.9209 C   0  0  0  0  0  0  0  0  0  0  0  0
   72.3866   40.1509   58.9938 C   0  0  0  0  0  0  0  0  0  0  0  0
   71.0769   40.4730   58.7070 C   0  0  0  0  0  0  0  0  0  0  0  0
   70.2533   39.4211   58.3428 C   0  0  0  0  0  0  0  0  0  0  0  0
   70.7147   38.1234   58.2695 C   0  0  0  0  0  0  0  0  0  0  0  0
   72.7121   35.9523   57.0479 C   0  0  0  0  0  0  0  0  0  0  0  0
   72.5074   36.3975   58.4732 C   0  0  0  0  0  0  0  0  0  0  0  0
   73.8068   36.3194   59.2700 C   0  0  0  0  0  0  0  0  0  0  0  0
   71.5248   35.4752   59.1212 C   0  0  0  0  0  0  0  0  0  0  0  0
   69.3797   44.5515   57.7448 N   0  0  0  0  0  0  0  0  0  0  0  0
   69.3042   44.8380   56.3548 N   0  0  0  0  0  0  0  0  0  0  0  0
   68.6979   46.0211   55.8805 C   0  0  0  0  0  0  0  0  0  0  0  0
   68.2075   46.8487   56.7072 O   0  0  0  0  0  0  0  0  0  0  0  0
   68.6159   46.3211   54.4726 C   0  0  0  0  0  0  0  0  0  0  0  0
   67.7914   45.6644   53.5944 C   0  0  0  0  0  0  0  0  0  0  0  0
   67.7599   46.0039   52.2366 C   0  0  0  0  0  0  0  0  0  0  0  0
   68.5696   47.0141   51.7754 C   0  0  0  0  0  0  0  0  0  0  0  0
   69.4206   47.7059   52.6287 C   0  0  0  0  0  0  0  0  0  0  0  0
   69.4078   47.3305   53.9428 C   0  0  0  0  0  0  0  0  0  0  0  0
   70.2433   48.7434   52.1189 N   0  0  0  0  0  0  0  0  0  0  0  0
   69.9442   49.2690   51.0373 O   0  0  0  0  0  0  0  0  0  0  0  0
   71.3379   49.1556   52.7995 O   0  0  0  0  0  0  0  0  0  0  0  0
 12 13  1  0
 13 14  1  0
 13 15  1  0
 13  6  1  0
  6  7  2  0
  6 11  1  0
  7  8  1  0
  8  9  2  0
  9  3  1  0
  9 10  1  0
  3  4  2  0
  3  5  1  0
  5  1  1  0
  1  2  2  0
  1 16  1  0
 16 17  1  0
 17 18  1  0
 18 19  2  0
 18 20  1  0
 20 21  2  0
 20 25  1  0
 21 22  1  0
 22 23  2  0
 23 24  1  0
 24 26  1  0
 24 25  2  0
 26 27  2  0
 26 28  1  0
 10 11  2  0
M  CHG  2  26   1  28  -1
M  END
>  <minimizedAffinity>  (89) 
-9.52301

$$$$
data/reference_output_2/data/smiles/99446.pdb
     RDKit          3D

 33 36  0  0  0  0  0  0  0  0999 V2000
   70.7333   44.3702   58.9829 C   0  0  0  0  0  0  0  0  0  0  0  0
   70.7399   45.6870   58.8174 C   0  0  0  0  0  0  0  0  0  0  0  0
   71.4167   46.4170   59.7057 N   0  0  0  0  0  0  0  0  0  0  0  0
   71.4400   47.7539   59.5621 C   0  0  0  0  0  0  0  0  0  0  0  0
   72.0708   48.4614   60.3867 O   0  0  0  0  0  0  0  0  0  0  0  0
   70.7718   48.3819   58.5039 C   0  0  0  0  0  0  0  0  0  0  0  0
   70.7781   49.6766   58.3392 C   0  0  0  0  0  0  0  0  0  0  0  0
   70.0913   47.6485   57.6088 N   0  0  0  0  0  0  0  0  0  0  0  0
   70.0831   46.3128   57.7755 C   0  0  0  0  0  0  0  0  0  0  0  0
   69.4586   45.5923   56.9606 O   0  0  0  0  0  0  0  0  0  0  0  0
   70.0669   50.3009   57.2192 C   0  0  0  0  0  0  0  0  0  0  0  0
   69.1303   51.2521   57.5908 C   0  0  0  0  0  0  0  0  0  0  0  0
   68.4128   51.8916   56.6019 C   0  0  0  0  0  0  0  0  0  0  0  0
   68.6585   51.5580   55.2834 C   0  0  0  0  0  0  0  0  0  0  0  0
   69.5917   50.6105   54.9212 C   0  0  0  0  0  0  0  0  0  0  0  0
   70.2957   49.9846   55.9148 C   0  0  0  0  0  0  0  0  0  0  0  0
   69.8097   50.2944   53.4704 C   0  0  0  0  0  0  0  0  0  0  0  0
   69.3455   48.9029   53.2257 C   0  0  0  0  0  0  0  0  0  0  0  0
   68.6489   48.2255   54.2053 C   0  0  0  0  0  0  0  0  0  0  0  0
   68.2300   46.9412   53.9548 C   0  0  0  0  0  0  0  0  0  0  0  0
   68.4948   46.3257   52.7486 C   0  0  0  0  0  0  0  0  0  0  0  0
   68.0554   45.0607   52.5676 F   0  0  0  0  0  0  0  0  0  0  0  0
   69.1963   47.0316   51.7874 C   0  0  0  0  0  0  0  0  0  0  0  0
   69.6303   48.3225   52.0062 C   0  0  0  0  0  0  0  0  0  0  0  0
   72.6214   43.0662   59.9788 C   0  0  0  0  0  0  0  0  0  0  0  0
   72.9095   42.5716   61.1893 N   0  0  0  0  0  0  0  0  0  0  0  0
   71.9146   42.8709   62.0561 C   0  0  0  0  0  0  0  0  0  0  0  0
   71.0063   43.5643   61.3413 N   0  0  0  0  0  0  0  0  0  0  0  0
   71.4175   43.6950   60.0707 C   0  0  0  0  0  0  0  0  0  0  0  0
   72.6579   42.5136   57.5703 C   0  0  0  0  0  0  0  0  0  0  0  0
   73.4580   42.9467   58.7777 C   0  0  0  0  0  0  0  0  0  0  0  0
   74.1609   44.2650   58.5414 C   0  0  0  0  0  0  0  0  0  0  0  0
   74.5016   41.8788   59.0142 C   0  0  0  0  0  0  0  0  0  0  0  0
 30 31  1  0
 31 32  1  0
 31 33  1  0
 31 25  1  0
 25 26  1  0
 25 29  2  0
 26 27  1  0
 27 28  2  0
 28 29  1  0
 29  1  1  0
  1  2  2  0
  2  3  1  0
  2  9  1  0
  3  4  1  0
  4  5  2  0
  4  6  1  0
  6  7  2  0
  6  8  1  0
  7 11  1  0
 11 12  2  0
 11 16  1  0
 12 13  1  0
 13 14  2  0
 14 15  1  0
 15 17  1  0
 15 16  2  0
 17 18  1  0
 18 19  2  0
 18 24  1  0
 19 20  1  0
 20 21  2  0
 21 22  1  0
 21 23  1  0
 23 24  2  0
  8  9  1  0
  9 10  2  0
M  CHG  1  28   1
M  END
>  <minimizedAffinity>  (90) 
-9.51901

$$$$
data/reference_output_2/data/smiles/164194.pdb
     RDKit          3D

 31 34  0  0  0  0  0  0  0  0999 V2000
   71.9715   47.6451   58.7723 C   0  0  0  0  0  0  0  0  0  0  0  0
   73.0263   48.5153   58.6132 C   0  0  0  0  0  0  0  0  0  0  0  0
   72.9907   49.5386   57.6691 C   0  0  0  0  0  0  0  0  0  0  0  0
   71.8682   49.7042   56.8521 C   0  0  0  0  0  0  0  0  0  0  0  0
   70.8155   48.8571   56.9903 C   0  0  0  0  0  0  0  0  0  0  0  0
   70.8754   47.8231   57.9594 C   0  0  0  0  0  0  0  0  0  0  0  0
   70.8050   42.8640   58.9514 N   0  0  0  0  0  0  0  0  0  0  0  0
   71.7695   43.2814   58.0337 C   0  0  0  0  0  0  0  0  0  0  0  0
   72.2787   44.7012   58.1882 C   0  0  0  0  0  0  0  0  0  0  0  0
   72.0853   45.2144   59.4986 N   0  0  0  0  0  0  0  0  0  0  0  0
   71.9511   46.5712   59.7638 C   0  0  0  0  0  0  0  0  0  0  0  0
   71.7907   46.9596   60.9749 O   0  0  0  0  0  0  0  0  0  0  0  0
   72.0023   44.2584   60.5971 C   0  0  0  0  0  0  0  0  0  0  0  0
   70.8403   43.3250   60.2908 C   0  0  0  0  0  0  0  0  0  0  0  0
   69.2452   42.5254   58.4102 S   0  0  0  0  0  0  0  0  0  0  0  0
   68.8465   43.5343   57.3295 O   0  0  0  0  0  0  0  0  0  0  0  0
   68.2173   42.7511   59.5104 O   0  0  0  0  0  0  0  0  0  0  0  0
   67.8847   40.8632   56.7262 C   0  0  0  0  0  0  0  0  0  0  0  0
   68.9690   40.9325   57.7493 C   0  0  0  0  0  0  0  0  0  0  0  0
   69.5686   48.9570   56.1786 C   0  0  0  0  0  0  0  0  0  0  0  0
   69.8038   48.6665   54.7595 C   0  0  0  0  0  0  0  0  0  0  0  0
   70.7395   49.4222   54.1140 N   0  0  0  0  0  0  0  0  0  0  0  0
   70.9954   49.2892   52.8409 N   0  0  0  0  0  0  0  0  0  0  0  0
   70.3162   48.3677   52.1053 C   0  0  0  0  0  0  0  0  0  0  0  0
   70.5552   48.2369   50.8874 O   0  0  0  0  0  0  0  0  0  0  0  0
   69.3495   47.5571   52.6831 C   0  0  0  0  0  0  0  0  0  0  0  0
   68.6652   46.6040   51.9638 C   0  0  0  0  0  0  0  0  0  0  0  0
   67.7253   45.7878   52.5492 C   0  0  0  0  0  0  0  0  0  0  0  0
   67.4882   45.9649   53.9171 C   0  0  0  0  0  0  0  0  0  0  0  0
   68.1743   46.9088   54.5970 C   0  0  0  0  0  0  0  0  0  0  0  0
   69.1122   47.7333   54.0360 C   0  0  0  0  0  0  0  0  0  0  0  0
 18 19  1  0
 19 15  1  0
 15 16  2  0
 15 17  2  0
 15  7  1  0
  7  8  1  0
  7 14  1  0
  8  9  1  0
  9 10  1  0
 10 11  1  0
 10 13  1  0
 11 12  2  0
 11  1  1  0
  1  2  2  0
  1  6  1  0
  2  3  1  0
  3  4  2  0
  4  5  1  0
  5 20  1  0
  5  6  2  0
 20 21  1  0
 21 22  2  0
 21 31  1  0
 22 23  1  0
 23 24  1  0
 24 25  2  0
 24 26  1  0
 26 27  1  0
 26 31  2  0
 27 28  2  0
 28 29  1  0
 29 30  2  0
 30 31  1  0
 13 14  1  0
M  END
>  <minimizedAffinity>  (91) 
-9.46958

$$$$
data/reference_output_2/data/smiles/138087.pdb
     RDKit          3D

 28 30  0  0  0  0  0  0  0  0999 V2000
   68.6477   46.5103   54.1899 C   0  0  0  0  0  0  0  0  0  0  0  0
   68.4113   46.1682   52.8732 C   0  0  0  0  0  0  0  0  0  0  0  0
   68.7754   46.9743   51.8117 C   0  0  0  0  0  0  0  0  0  0  0  0
   69.3978   48.1681   52.0402 C   0  0  0  0  0  0  0  0  0  0  0  0
   69.6566   48.5534   53.3410 C   0  0  0  0  0  0  0  0  0  0  0  0
   69.2782   47.7205   54.3999 C   0  0  0  0  0  0  0  0  0  0  0  0
   70.4483   50.0733   53.6046 S   0  0  0  0  0  0  0  0  0  0  0  0
   71.9272   49.8824   53.6290 O   0  0  0  0  0  0  0  0  0  0  0  0
   70.1157   50.9819   52.4555 O   0  0  0  0  0  0  0  0  0  0  0  0
   69.9575   50.8353   55.0671 N   0  0  0  0  0  0  0  0  0  0  0  0
   69.3792   52.1247   54.8600 C   0  0  0  0  0  0  0  0  0  0  0  0
   68.9671   52.6788   56.2059 C   0  0  0  0  0  0  0  0  0  0  0  0
   69.0929   51.7009   57.2681 N   0  0  0  0  0  0  0  0  0  0  0  0
   68.1230   50.6509   57.1408 C   0  0  0  0  0  0  0  0  0  0  0  0
   70.4552   51.2108   57.3789 C   0  0  0  0  0  0  0  0  0  0  0  0
   71.0471   50.9298   56.0189 C   0  0  0  0  0  0  0  0  0  0  0  0
   68.2521   45.6384   55.2905 C   0  0  0  0  0  0  0  0  0  0  0  0
   68.3066   46.0965   56.4585 O   0  0  0  0  0  0  0  0  0  0  0  0
   67.8226   44.3469   55.1541 O   0  0  0  0  0  0  0  0  0  0  0  0
   68.7807   41.1843   57.7826 C   0  0  0  0  0  0  0  0  0  0  0  0
   69.5573   42.3224   57.7282 C   0  0  0  0  0  0  0  0  0  0  0  0
   69.2413   43.3565   56.8666 C   0  0  0  0  0  0  0  0  0  0  0  0
   68.1497   43.3135   56.0249 C   0  0  0  0  0  0  0  0  0  0  0  0
   67.3734   42.1708   56.0813 C   0  0  0  0  0  0  0  0  0  0  0  0
   67.6889   41.1386   56.9423 C   0  0  0  0  0  0  0  0  0  0  0  0
   70.4662   39.4791   58.4296 C   0  0  0  0  0  0  0  0  0  0  0  0
   69.0958   40.0534   58.7004 C   0  0  0  0  0  0  0  0  0  0  0  0
   68.0836   38.9463   58.4996 C   0  0  0  0  0  0  0  0  0  0  0  0
 26 27  1  0
 27 28  1  0
 27 20  1  0
 20 21  2  0
 20 25  1  0
 21 22  1  0
 22 23  2  0
 23 19  1  0
 23 24  1  0
 19 17  1  0
 17 18  2  0
 17  1  1  0
  1  2  2  0
  1  6  1  0
  2  3  1  0
  3  4  2  0
  4  5  1  0
  5  7  1  0
  5  6  2  0
  7  8  2  0
  7  9  2  0
  7 10  1  0
 10 11  1  0
 10 16  1  0
 11 12  1  0
 12 13  1  0
 13 14  1  0
 13 15  1  0
 15 16  1  0
 24 25  2  0
M  CHG  1  13   1
M  END
>  <minimizedAffinity>  (92) 
-9.44772

$$$$
data/reference_output_2/data/smiles/149850.pdb
     RDKit          3D

 33 36  0  0  0  0  0  0  0  0999 V2000
   70.7074   44.4832   58.9087 C   0  0  0  0  0  0  0  0  0  0  0  0
   70.7339   45.8149   58.7938 C   0  0  0  0  0  0  0  0  0  0  0  0
   71.4360   46.5286   59.6945 N   0  0  0  0  0  0  0  0  0  0  0  0
   71.4593   47.8660   59.5757 C   0  0  0  0  0  0  0  0  0  0  0  0
   72.1210   48.5236   60.4248 O   0  0  0  0  0  0  0  0  0  0  0  0
   70.7655   48.4860   58.5376 C   0  0  0  0  0  0  0  0  0  0  0  0
   70.7893   49.8045   58.4216 C   0  0  0  0  0  0  0  0  0  0  0  0
   70.0645   47.7898   57.6368 N   0  0  0  0  0  0  0  0  0  0  0  0
   70.0449   46.4426   57.7606 C   0  0  0  0  0  0  0  0  0  0  0  0
   69.3970   45.7591   56.9338 O   0  0  0  0  0  0  0  0  0  0  0  0
   70.0868   50.5135   57.3604 C   0  0  0  0  0  0  0  0  0  0  0  0
   69.2759   51.6072   57.5641 C   0  0  0  0  0  0  0  0  0  0  0  0
   68.6374   52.2342   56.5046 C   0  0  0  0  0  0  0  0  0  0  0  0
   68.8005   51.7789   55.2248 C   0  0  0  0  0  0  0  0  0  0  0  0
   69.6201   50.6690   54.9877 C   0  0  0  0  0  0  0  0  0  0  0  0
   70.2301   50.0773   56.0440 C   0  0  0  0  0  0  0  0  0  0  0  0
   69.7503   50.2149   53.6148 C   0  0  0  0  0  0  0  0  0  0  0  0
   70.1960   50.9925   52.7231 O   0  0  0  0  0  0  0  0  0  0  0  0
   69.3899   48.8812   53.1940 C   0  0  0  0  0  0  0  0  0  0  0  0
   69.7589   48.3535   51.9759 C   0  0  0  0  0  0  0  0  0  0  0  0
   69.4004   47.0534   51.6146 C   0  0  0  0  0  0  0  0  0  0  0  0
   68.6687   46.2678   52.4709 C   0  0  0  0  0  0  0  0  0  0  0  0
   68.2959   46.7841   53.6871 C   0  0  0  0  0  0  0  0  0  0  0  0
   68.6592   48.0772   54.0326 C   0  0  0  0  0  0  0  0  0  0  0  0
   72.6135   43.1199   59.8905 C   0  0  0  0  0  0  0  0  0  0  0  0
   72.8980   42.5919   61.1021 N   0  0  0  0  0  0  0  0  0  0  0  0
   71.8878   42.9023   61.9322 C   0  0  0  0  0  0  0  0  0  0  0  0
   70.9714   43.6300   61.2276 N   0  0  0  0  0  0  0  0  0  0  0  0
   71.4067   43.7716   59.9646 C   0  0  0  0  0  0  0  0  0  0  0  0
   74.5825   41.9981   58.9338 C   0  0  0  0  0  0  0  0  0  0  0  0
   73.4753   42.9990   58.7074 C   0  0  0  0  0  0  0  0  0  0  0  0
   72.7104   42.5609   57.4776 C   0  0  0  0  0  0  0  0  0  0  0  0
   74.1476   44.3489   58.4831 C   0  0  0  0  0  0  0  0  0  0  0  0
 30 31  1  0
 31 32  1  0
 31 33  1  0
 31 25  1  0
 25 26  1  0
 25 29  2  0
 26 27  1  0
 27 28  2  0
 28 29  1  0
 29  1  1  0
  1  2  2  0
  2  3  1  0
  2  9  1  0
  3  4  1  0
  4  5  2  0
  4  6  1  0
  6  7  2  0
  6  8  1  0
  7 11  1  0
 11 12  2  0
 11 16  1  0
 12 13  1  0
 13 14  2  0
 14 15  1  0
 15 17  1  0
 15 16  2  0
 17 18  2  0
 17 19  1  0
 19 20  2  0
 19 24  1  0
 20 21  1  0
 21 22  2  0
 22 23  1  0
 23 24  2  0
  8  9  1  0
  9 10  2  0
M  CHG  1  28   1
M  END
>  <minimizedAffinity>  (93) 
-9.40767

$$$$
data/reference_output_2/data/smiles/95479.pdb
     RDKit          3D

 32 36  0  0  0  0  0  0  0  0999 V2000
   71.5154   47.4353   58.6972 C   0  0  0  0  0  0  0  0  0  0  0  0
   70.5172   48.0154   57.9470 C   0  0  0  0  0  0  0  0  0  0  0  0
   69.6526   47.3091   57.1512 C   0  0  0  0  0  0  0  0  0  0  0  0
   69.7999   45.9353   57.1073 C   0  0  0  0  0  0  0  0  0  0  0  0
   70.8016   45.3061   57.8559 C   0  0  0  0  0  0  0  0  0  0  0  0
   70.9290   43.9600   57.8066 F   0  0  0  0  0  0  0  0  0  0  0  0
   71.6462   46.0671   58.6418 C   0  0  0  0  0  0  0  0  0  0  0  0
   72.6304   45.4754   59.3787 F   0  0  0  0  0  0  0  0  0  0  0  0
   72.3376   47.9901   60.7706 O   0  0  0  0  0  0  0  0  0  0  0  0
   72.3954   48.2813   59.5238 C   0  0  0  0  0  0  0  0  0  0  0  0
   73.2152   49.3002   59.0323 N   0  0  0  0  0  0  0  0  0  0  0  0
   73.2929   49.6102   57.6414 C   0  0  0  0  0  0  0  0  0  0  0  0
   74.7044   49.2615   57.1752 C   0  0  0  0  0  0  0  0  0  0  0  0
   75.5922   49.2421   58.3751 N   0  0  0  0  0  0  0  0  0  0  0  0
   75.2764   50.4304   59.0877 C   0  0  0  0  0  0  0  0  0  0  0  0
   74.0227   50.0818   59.9339 C   0  0  0  0  0  0  0  0  0  0  0  0
   76.9293   49.0124   57.9745 C   0  0  0  0  0  0  0  0  0  0  0  0
   77.3915   49.4695   56.6525 C   0  0  0  0  0  0  0  0  0  0  0  0
   78.6386   49.2006   55.9659 C   0  0  0  0  0  0  0  0  0  0  0  0
   78.4755   50.5703   56.6325 C   0  0  0  0  0  0  0  0  0  0  0  0
   68.5788   48.0010   56.4003 C   0  0  0  0  0  0  0  0  0  0  0  0
   69.0573   48.2168   55.0120 C   0  0  0  0  0  0  0  0  0  0  0  0
   69.9458   49.2250   54.7584 N   0  0  0  0  0  0  0  0  0  0  0  0
   70.4346   49.4551   53.5678 N   0  0  0  0  0  0  0  0  0  0  0  0
   70.0854   48.7028   52.5234 C   0  0  0  0  0  0  0  0  0  0  0  0
   70.5400   48.8990   51.3602 O   0  0  0  0  0  0  0  0  0  0  0  0
   69.2058   47.6770   52.6837 C   0  0  0  0  0  0  0  0  0  0  0  0
   68.8220   46.8832   51.6110 C   0  0  0  0  0  0  0  0  0  0  0  0
   67.9219   45.8504   51.7909 C   0  0  0  0  0  0  0  0  0  0  0  0
   67.4152   45.6257   53.0534 C   0  0  0  0  0  0  0  0  0  0  0  0
   67.7849   46.4055   54.1414 C   0  0  0  0  0  0  0  0  0  0  0  0
   68.6789   47.4291   53.9610 C   0  0  0  0  0  0  0  0  0  0  0  0
  9 10  2  0
 10  1  1  0
 10 11  1  0
  1  2  2  0
  1  7  1  0
  2  3  1  0
  3 21  1  0
  3  4  2  0
 21 22  1  0
 22 23  2  0
 22 32  1  0
 23 24  1  0
 24 25  1  0
 25 26  2  0
 25 27  1  0
 27 28  1  0
 27 32  2  0
 28 29  2  0
 29 30  1  0
 30 31  2  0
 31 32  1  0
  4  5  1  0
  5  6  1  0
  5  7  2  0
  7  8  1  0
 11 12  1  0
 11 16  1  0
 12 13  1  0
 13 14  1  0
 14 17  1  0
 14 15  1  0
 17 18  1  0
 18 19  1  0
 18 20  1  0
 19 20  1  0
 15 16  1  0
M  CHG  1  14   1
M  END
>  <minimizedAffinity>  (94) 
-9.39559

$$$$
data/200k_reference_output/data/smiles/66482.pdb
     RDKit          3D

 27 28  0  0  0  0  0  0  0  0999 V2000
   69.9391   49.2270   52.5999 S   0  0  0  0  0  0  0  0  0  0  0  0
   71.4266   49.2255   52.9409 O   0  0  0  0  0  0  0  0  0  0  0  0
   69.8490   49.2406   51.0846 O   0  0  0  0  0  0  0  0  0  0  0  0
   69.1817   47.7756   53.1951 C   0  0  0  0  0  0  0  0  0  0  0  0
   68.5360   46.8639   52.3873 C   0  0  0  0  0  0  0  0  0  0  0  0
   68.4916   47.1241   51.0481 F   0  0  0  0  0  0  0  0  0  0  0  0
   67.9448   45.7218   52.8842 C   0  0  0  0  0  0  0  0  0  0  0  0
   67.3055   44.8231   52.0839 F   0  0  0  0  0  0  0  0  0  0  0  0
   67.9742   45.4358   54.2336 C   0  0  0  0  0  0  0  0  0  0  0  0
   67.3907   44.3082   54.7257 F   0  0  0  0  0  0  0  0  0  0  0  0
   68.6171   46.3373   55.0559 C   0  0  0  0  0  0  0  0  0  0  0  0
   68.6498   46.0607   56.3844 F   0  0  0  0  0  0  0  0  0  0  0  0
   69.2086   47.4796   54.5612 C   0  0  0  0  0  0  0  0  0  0  0  0
   69.8402   48.3668   55.3574 F   0  0  0  0  0  0  0  0  0  0  0  0
   69.2669   50.6761   53.1942 N   0  0  0  0  0  0  0  0  0  0  0  0
   71.1699   53.2896   55.9588 C   0  0  0  0  0  0  0  0  0  0  0  0
   69.7957   53.2227   55.9050 C   0  0  0  0  0  0  0  0  0  0  0  0
   69.1668   52.3661   54.9901 C   0  0  0  0  0  0  0  0  0  0  0  0
   69.8652   51.5644   54.1172 C   0  0  0  0  0  0  0  0  0  0  0  0
   71.2665   51.6564   54.1974 C   0  0  0  0  0  0  0  0  0  0  0  0
   71.8852   52.4956   55.0935 C   0  0  0  0  0  0  0  0  0  0  0  0
   73.3223   52.5707   55.1571 N   0  0  0  0  0  0  0  0  0  0  0  0
   74.1223   51.4087   55.3099 C   0  0  0  0  0  0  0  0  0  0  0  0
   75.5423   51.4370   55.3782 N   0  0  0  0  0  0  0  0  0  0  0  0
   73.5509   50.2979   55.3903 O   0  0  0  0  0  0  0  0  0  0  0  0
   72.3723   53.5914   58.0708 C   0  0  0  0  0  0  0  0  0  0  0  0
   71.8557   54.1135   56.8380 O   0  0  0  0  0  0  0  0  0  0  0  0
 26 27  1  0
 27 16  1  0
 16 17  2  0
 16 21  1  0
 17 18  1  0
 18 19  2  0
 19 15  1  0
 19 20  1  0
 15  1  1  0
  1  2  2  0
  1  3  2  0
  1  4  1  0
  4  5  2  0
  4 13  1  0
  5  6  1  0
  5  7  1  0
  7  8  1  0
  7  9  2  0
  9 10  1  0
  9 11  1  0
 11 12  1  0
 11 13  2  0
 13 14  1  0
 20 21  2  0
 21 22  1  0
 22 23  1  0
 23 24  1  0
 23 25  2  0
M  END
>  <minimizedAffinity>  (95) 
-9.38784

$$$$
data/200k_reference_output/data/smiles/52135.pdb
     RDKit          3D

 31 35  0  0  0  0  0  0  0  0999 V2000
   71.1028   50.0781   56.2396 C   0  0  0  0  0  0  0  0  0  0  0  0
   70.8953   50.2063   54.9121 C   0  0  0  0  0  0  0  0  0  0  0  0
   70.1141   49.3321   54.1728 C   0  0  0  0  0  0  0  0  0  0  0  0
   69.5425   48.2961   54.8618 C   0  0  0  0  0  0  0  0  0  0  0  0
   69.7252   48.1346   56.2321 C   0  0  0  0  0  0  0  0  0  0  0  0
   70.5160   49.0465   56.9570 C   0  0  0  0  0  0  0  0  0  0  0  0
   69.2590   46.9985   56.8547 C   0  0  0  0  0  0  0  0  0  0  0  0
   69.3976   46.7887   58.0974 O   0  0  0  0  0  0  0  0  0  0  0  0
   68.6085   46.0126   56.1493 N   0  0  0  0  0  0  0  0  0  0  0  0
   68.4099   46.1280   54.8487 C   0  0  0  0  0  0  0  0  0  0  0  0
   67.7787   45.1278   54.1209 C   0  0  0  0  0  0  0  0  0  0  0  0
   67.3755   43.9747   54.7557 F   0  0  0  0  0  0  0  0  0  0  0  0
   67.5711   45.2033   52.7752 C   0  0  0  0  0  0  0  0  0  0  0  0
   68.0284   46.3471   52.1371 C   0  0  0  0  0  0  0  0  0  0  0  0
   67.8219   46.4697   50.8097 F   0  0  0  0  0  0  0  0  0  0  0  0
   68.6724   47.3783   52.8317 C   0  0  0  0  0  0  0  0  0  0  0  0
   68.8720   47.2783   54.1716 C   0  0  0  0  0  0  0  0  0  0  0  0
   72.1689   50.9536   56.8967 C   0  0  0  0  0  0  0  0  0  0  0  0
   73.1985   51.4014   55.8786 C   0  0  2  0  0  0  0  0  0  0  0  0
   74.4463   50.8658   56.3409 N   0  0  0  0  0  0  0  0  0  0  0  0
   75.4047   50.0454   55.7752 C   0  0  0  0  0  0  0  0  0  0  0  0
   75.2781   49.5740   54.6064 O   0  0  0  0  0  0  0  0  0  0  0  0
   76.6346   49.6972   56.5798 C   0  0  1  0  0  0  0  0  0  0  0  0
   77.2947   50.8121   57.1632 N   0  0  0  0  0  0  0  0  0  0  0  0
   77.2929   50.5930   58.5700 C   0  0  2  0  0  0  0  0  0  0  0  0
   78.1847   49.4333   58.9049 C   0  0  0  0  0  0  0  0  0  0  0  0
   77.5222   48.2117   58.2950 C   0  0  0  0  0  0  0  0  0  0  0  0
   76.2202   48.7860   57.7405 C   0  0  1  0  0  0  0  0  0  0  0  0
   75.9270   49.8907   58.7655 C   0  0  0  0  0  0  0  0  0  0  0  0
   73.4999   54.0775   55.9149 N   0  0  0  0  0  0  0  0  0  0  0  0
   73.3552   52.8592   55.9070 C   0  0  0  0  0  0  0  0  0  0  0  0
 30 31  3  0
 19 31  1  1
 19 18  1  0
 19 20  1  0
 18  1  1  0
  1  2  2  0
  1  6  1  0
  2  3  1  0
  3  4  2  0
  4  5  1  0
  4 17  1  0
  5  6  2  0
  5  7  1  0
  7  8  2  0
  7  9  1  0
  9 10  1  0
 10 11  1  0
 10 17  2  0
 11 12  1  0
 11 13  2  0
 13 14  1  0
 14 15  1  0
 14 16  2  0
 16 17  1  0
 20 21  1  0
 21 22  2  0
 23 21  1  1
 23 24  1  0
 23 28  1  0
 24 25  1  0
 25 26  1  6
 25 29  1  0
 26 27  1  0
 28 27  1  1
 28 29  1  0
M  CHG  1  24   1
M  END
>  <minimizedAffinity>  (96) 
-9.35492

$$$$
data/200k_reference_output/data/smiles/16642.pdb
     RDKit          3D

 25 26  0  0  0  0  0  0  0  0999 V2000
   69.9993   49.0852   52.4735 S   0  0  0  0  0  0  0  0  0  0  0  0
   70.6467   48.6806   51.1763 O   0  0  0  0  0  0  0  0  0  0  0  0
   68.8937   50.0792   52.1752 O   0  0  0  0  0  0  0  0  0  0  0  0
   69.2624   47.7013   53.2616 C   0  0  0  0  0  0  0  0  0  0  0  0
   69.2879   47.4542   54.5949 C   0  0  0  0  0  0  0  0  0  0  0  0
   69.9430   48.2846   55.4121 F   0  0  0  0  0  0  0  0  0  0  0  0
   68.6294   46.3143   55.0635 C   0  0  0  0  0  0  0  0  0  0  0  0
   68.6618   46.0796   56.3952 F   0  0  0  0  0  0  0  0  0  0  0  0
   67.9704   45.4562   54.2116 C   0  0  0  0  0  0  0  0  0  0  0  0
   67.3458   44.3668   54.6821 F   0  0  0  0  0  0  0  0  0  0  0  0
   67.9435   45.7020   52.8592 C   0  0  0  0  0  0  0  0  0  0  0  0
   67.3009   44.8705   51.9982 F   0  0  0  0  0  0  0  0  0  0  0  0
   68.5922   46.8257   52.4068 C   0  0  0  0  0  0  0  0  0  0  0  0
   68.5459   47.0416   51.0511 F   0  0  0  0  0  0  0  0  0  0  0  0
   71.1315   49.7563   53.5689 N   0  0  0  0  0  0  0  0  0  0  0  0
   71.7863   51.5465   55.0759 C   0  0  0  0  0  0  0  0  0  0  0  0
   71.5305   52.6732   55.8084 C   0  0  0  0  0  0  0  0  0  0  0  0
   70.2726   53.2527   55.7941 C   0  0  0  0  0  0  0  0  0  0  0  0
   69.2953   52.6664   55.0291 C   0  0  0  0  0  0  0  0  0  0  0  0
   69.5808   51.5229   54.2945 C   0  0  0  0  0  0  0  0  0  0  0  0
   70.8195   50.9248   54.2877 C   0  0  0  0  0  0  0  0  0  0  0  0
   73.9340   50.3616   53.5617 N   0  0  0  0  0  0  0  0  0  0  0  0
   73.3755   50.8339   55.1096 S   0  0  0  0  0  0  0  0  0  0  0  0
   73.4301   49.6474   56.0242 O   0  0  0  0  0  0  0  0  0  0  0  0
   74.3483   51.8505   55.6765 O   0  0  0  0  0  0  0  0  0  0  0  0
 22 23  1  0
 23 24  2  0
 23 25  2  0
 23 16  1  0
 16 17  2  0
 16 21  1  0
 17 18  1  0
 18 19  2  0
 19 20  1  0
 20 21  2  0
 21 15  1  0
 15  1  1  0
  1  2  2  0
  1  3  2  0
  1  4  1  0
  4  5  2  0
  4 13  1  0
  5  6  1  0
  5  7  1  0
  7  8  1  0
  7  9  2  0
  9 10  1  0
  9 11  1  0
 11 12  1  0
 11 13  2  0
 13 14  1  0
M  END
>  <minimizedAffinity>  (97) 
-9.31579

$$$$
data/reference_output_2/data/smiles/152204.pdb
     RDKit          3D

 31 33  0  0  0  0  0  0  0  0999 V2000
   67.7730   45.4588   52.5951 C   0  0  0  0  0  0  0  0  0  0  0  0
   68.5461   46.7039   52.9252 C   0  0  0  0  0  0  0  0  0  0  0  0
   68.9961   47.5456   51.9353 C   0  0  0  0  0  0  0  0  0  0  0  0
   69.7160   48.6993   52.2669 C   0  0  0  0  0  0  0  0  0  0  0  0
   69.9714   48.9880   53.5889 C   0  0  0  0  0  0  0  0  0  0  0  0
   69.5157   48.1385   54.5475 C   0  0  0  0  0  0  0  0  0  0  0  0
   68.8114   47.0103   54.2312 C   0  0  0  0  0  0  0  0  0  0  0  0
   70.8388   50.4191   54.0725 S   0  0  0  0  0  0  0  0  0  0  0  0
   72.3095   50.0798   53.9340 O   0  0  0  0  0  0  0  0  0  0  0  0
   70.5976   51.5198   53.0650 O   0  0  0  0  0  0  0  0  0  0  0  0
   70.5292   50.9610   55.6486 N   0  0  0  0  0  0  0  0  0  0  0  0
   69.3567   50.7708   56.4136 C   0  0  0  0  0  0  0  0  0  0  0  0
   68.2551   51.5770   56.2427 C   0  0  0  0  0  0  0  0  0  0  0  0
   67.0850   51.3952   56.9761 C   0  0  0  0  0  0  0  0  0  0  0  0
   66.9977   50.3861   57.9078 C   0  0  0  0  0  0  0  0  0  0  0  0
   68.0936   49.5793   58.0809 C   0  0  0  0  0  0  0  0  0  0  0  0
   69.2519   49.7555   57.3581 C   0  0  0  0  0  0  0  0  0  0  0  0
   70.3097   48.9148   57.5856 F   0  0  0  0  0  0  0  0  0  0  0  0
   68.3233   46.0980   55.2903 C   0  0  0  0  0  0  0  0  0  0  0  0
   67.6979   46.6250   56.2350 O   0  0  0  0  0  0  0  0  0  0  0  0
   68.5170   44.7019   55.2976 N   0  0  0  0  0  0  0  0  0  0  0  0
   68.0433   43.8623   56.3177 N   0  0  0  0  0  0  0  0  0  0  0  0
   68.9137   43.0266   57.0645 C   0  0  0  0  0  0  0  0  0  0  0  0
   70.1455   43.1103   56.7242 O   0  0  0  0  0  0  0  0  0  0  0  0
   68.5051   42.1413   58.1238 C   0  0  0  0  0  0  0  0  0  0  0  0
   67.9449   40.9039   57.9374 C   0  0  0  0  0  0  0  0  0  0  0  0
   67.5524   40.0862   58.9939 C   0  0  0  0  0  0  0  0  0  0  0  0
   67.7289   40.5248   60.2957 C   0  0  0  0  0  0  0  0  0  0  0  0
   68.2899   41.7648   60.5142 C   0  0  0  0  0  0  0  0  0  0  0  0
   68.6678   42.5504   59.4332 C   0  0  0  0  0  0  0  0  0  0  0  0
   69.2309   43.7950   59.7267 O   0  0  0  0  0  0  0  0  0  0  0  0
  1  2  1  0
  2  3  2  0
  2  7  1  0
  3  4  1  0
  4  5  2  0
  5  8  1  0
  5  6  1  0
  8  9  2  0
  8 10  2  0
  8 11  1  0
 11 12  1  0
 12 13  2  0
 12 17  1  0
 13 14  1  0
 14 15  2  0
 15 16  1  0
 16 17  2  0
 17 18  1  0
  6  7  2  0
  7 19  1  0
 19 20  2  0
 19 21  1  0
 21 22  1  0
 22 23  1  0
 23 24  2  0
 23 25  1  0
 25 26  2  0
 25 30  1  0
 26 27  1  0
 27 28  2  0
 28 29  1  0
 29 30  2  0
 30 31  1  0
M  END
>  <minimizedAffinity>  (98) 
-9.31542

$$$$
data/200k_reference_output/data/smiles/19174.pdb
     RDKit          3D

 28 30  0  0  0  0  0  0  0  0999 V2000
   68.3448   45.9243   54.0441 C   0  0  0  0  0  0  0  0  0  0  0  0
   67.8071   45.5292   52.8395 C   0  0  0  0  0  0  0  0  0  0  0  0
   67.9650   46.3041   51.6961 C   0  0  0  0  0  0  0  0  0  0  0  0
   68.6805   47.4974   51.7860 C   0  0  0  0  0  0  0  0  0  0  0  0
   69.2267   47.9116   52.9801 C   0  0  0  0  0  0  0  0  0  0  0  0
   69.0435   47.1174   54.0693 C   0  0  0  0  0  0  0  0  0  0  0  0
   67.7392   43.8056   55.3241 N   0  0  0  0  0  0  0  0  0  0  0  0
   68.2015   45.1430   55.2636 C   0  0  0  0  0  0  0  0  0  0  0  0
   68.5062   45.6670   56.3732 O   0  0  0  0  0  0  0  0  0  0  0  0
   67.5026   41.6848   56.5877 C   0  0  0  0  0  0  0  0  0  0  0  0
   67.5102   41.0934   55.4773 O   0  0  0  0  0  0  0  0  0  0  0  0
   67.6207   43.0965   56.5315 N   0  0  0  0  0  0  0  0  0  0  0  0
   67.1881   38.4556   61.3229 C   0  0  0  0  0  0  0  0  0  0  0  0
   67.2448   39.3230   60.1149 C   0  0  0  0  0  0  0  0  0  0  0  0
   67.9552   38.8957   59.0038 C   0  0  0  0  0  0  0  0  0  0  0  0
   68.0071   39.6975   57.8891 C   0  0  0  0  0  0  0  0  0  0  0  0
   67.3785   40.9236   57.8205 C   0  0  0  0  0  0  0  0  0  0  0  0
   66.6763   41.3524   58.9096 C   0  0  0  0  0  0  0  0  0  0  0  0
   66.6288   40.5432   60.0258 C   0  0  0  0  0  0  0  0  0  0  0  0
   70.1073   49.3833   53.0849 S   0  0  0  0  0  0  0  0  0  0  0  0
   69.7465   50.3482   51.9663 O   0  0  0  0  0  0  0  0  0  0  0  0
   71.6064   49.1516   52.9671 O   0  0  0  0  0  0  0  0  0  0  0  0
   69.8598   50.2372   54.5612 N   0  0  0  0  0  0  0  0  0  0  0  0
   68.7736   51.1413   54.5406 C   0  0  0  0  0  0  0  0  0  0  0  0
   69.0870   52.5683   54.8095 C   0  0  0  0  0  0  0  0  0  0  0  0
   70.1917   52.7966   55.5925 O   0  0  0  0  0  0  0  0  0  0  0  0
   71.2830   52.2075   54.9570 C   0  0  0  0  0  0  0  0  0  0  0  0
   71.1135   50.7299   55.0021 C   0  0  0  0  0  0  0  0  0  0  0  0
 13 14  1  0
 14 15  2  0
 14 19  1  0
 15 16  1  0
 16 17  2  0
 17 10  1  0
 17 18  1  0
 10 11  2  0
 10 12  1  0
 12  7  1  0
  7  8  1  0
  8  9  2  0
  8  1  1  0
  1  2  2  0
  1  6  1  0
  2  3  1  0
  3  4  2  0
  4  5  1  0
  5 20  1  0
  5  6  2  0
 20 21  2  0
 20 22  2  0
 20 23  1  0
 23 24  1  0
 23 28  1  0
 24 25  1  0
 25 26  1  0
 26 27  1  0
 27 28  1  0
 18 19  2  0
M  END
>  <minimizedAffinity>  (99) 
-9.30948

$$$$
data/200k_reference_output/data/smiles/62349.pdb
     RDKit          3D

 28 30  0  0  0  0  0  0  0  0999 V2000
   69.8692   51.0038   53.9250 N   0  0  0  0  0  0  0  0  0  0  0  0
   68.5649   51.1978   54.4651 C   0  0  0  0  0  0  0  0  0  0  0  0
   68.6435   52.6530   54.9255 C   0  0  0  0  0  0  0  0  0  0  0  0
   70.0670   52.7437   55.4489 C   0  0  0  0  0  0  0  0  0  0  0  0
   70.8275   51.5952   54.7686 C   0  0  2  0  0  0  0  0  0  0  0  0
   70.1944   49.6002   53.1072 S   0  0  0  0  0  0  0  0  0  0  0  0
   71.6912   49.3311   53.1762 O   0  0  0  0  0  0  0  0  0  0  0  0
   69.9162   49.8406   51.6192 O   0  0  0  0  0  0  0  0  0  0  0  0
   67.3526   45.3333   52.0648 C   0  0  0  0  0  0  0  0  0  0  0  0
   68.0556   46.2188   53.0129 C   0  0  0  0  0  0  0  0  0  0  0  0
   68.0509   45.9121   54.3560 C   0  0  0  0  0  0  0  0  0  0  0  0
   68.6817   46.6890   55.2989 C   0  0  0  0  0  0  0  0  0  0  0  0
   69.3538   47.8295   54.8908 C   0  0  0  0  0  0  0  0  0  0  0  0
   70.0209   48.6329   55.9409 C   0  0  0  0  0  0  0  0  0  0  0  0
   69.3685   48.1550   53.5292 C   0  0  0  0  0  0  0  0  0  0  0  0
   68.7270   47.3588   52.6006 C   0  0  0  0  0  0  0  0  0  0  0  0
   72.0148   52.2173   54.1187 C   0  0  0  0  0  0  0  0  0  0  0  0
   73.1610   51.3514   54.2738 N   0  0  0  0  0  0  0  0  0  0  0  0
   73.9979   51.2716   55.4121 C   0  0  0  0  0  0  0  0  0  0  0  0
   73.7432   52.0063   56.3894 O   0  0  0  0  0  0  0  0  0  0  0  0
   75.1391   50.3773   55.4977 C   0  0  0  0  0  0  0  0  0  0  0  0
   75.3451   49.5052   54.6274 O   0  0  0  0  0  0  0  0  0  0  0  0
   76.0322   50.4781   56.5644 N   0  0  0  0  0  0  0  0  0  0  0  0
   77.1898   49.6829   56.7933 C   0  0  0  0  0  0  0  0  0  0  0  0
   77.6323   49.9014   58.2254 C   0  0  0  0  0  0  0  0  0  0  0  0
   78.8861   50.7544   58.1747 C   0  0  0  0  0  0  0  0  0  0  0  0
   79.1123   51.0902   56.7195 C   0  0  0  0  0  0  0  0  0  0  0  0
   78.4007   49.9830   56.0156 C   0  0  0  0  0  0  0  0  0  0  0  0
  9 10  1  0
 10 11  2  0
 10 16  1  0
 11 12  1  0
 12 13  2  0
 13 14  1  0
 13 15  1  0
 15  6  1  0
 15 16  2  0
  6  7  2  0
  6  8  2  0
  6  1  1  0
  1  2  1  0
  1  5  1  0
  2  3  1  0
  3  4  1  0
  4  5  1  0
  5 17  1  6
 17 18  1  0
 18 19  1  0
 19 20  2  0
 19 21  1  0
 21 22  2  0
 21 23  1  0
 23 24  1  0
 24 25  1  0
 24 28  1  0
 25 26  1  0
 26 27  1  0
 27 28  1  0
M  END
>  <minimizedAffinity>  (100) 
-9.24318

$$$$
