data/reference_output_2/data/smiles/151199.pdb
     RDKit          3D

 21 23  0  0  0  0  0  0  0  0999 V2000
   70.3615   49.1131   53.9750 C   0  0  0  0  0  0  0  0  0  0  0  0
   71.5236   49.4453   53.3376 N   0  0  0  0  0  0  0  0  0  0  0  0
   72.0901   50.4733   53.9435 N   0  0  0  0  0  0  0  0  0  0  0  0
   71.3393   50.8505   54.9807 C   0  0  0  0  0  0  0  0  0  0  0  0
   70.2668   50.0149   55.0103 C   0  0  0  0  0  0  0  0  0  0  0  0
   66.9362   44.9112   52.4910 O   0  0  0  0  0  0  0  0  0  0  0  0
   67.7746   45.9429   52.8348 C   0  0  0  0  0  0  0  0  0  0  0  0
   68.1195   46.1266   54.1473 C   0  0  0  0  0  0  0  0  0  0  0  0
   68.9597   47.1633   54.4897 C   0  0  0  0  0  0  0  0  0  0  0  0
   69.4850   48.0404   53.5878 C   0  0  0  0  0  0  0  0  0  0  0  0
   69.1434   47.8644   52.2530 C   0  0  0  0  0  0  0  0  0  0  0  0
   69.6447   48.7239   51.2839 O   0  0  0  0  0  0  0  0  0  0  0  0
   68.2981   46.8281   51.8868 C   0  0  0  0  0  0  0  0  0  0  0  0
   67.9253   46.6090   50.5636 O   0  0  0  0  0  0  0  0  0  0  0  0
   69.1572   50.0465   55.9848 C   0  0  0  0  0  0  0  0  0  0  0  0
   68.3388   51.1397   56.1038 C   0  0  0  0  0  0  0  0  0  0  0  0
   67.3209   51.1436   57.0108 C   0  0  0  0  0  0  0  0  0  0  0  0
   67.0898   50.0549   57.8252 C   0  0  0  0  0  0  0  0  0  0  0  0
   66.0883   50.0259   58.7371 F   0  0  0  0  0  0  0  0  0  0  0  0
   67.9261   48.9584   57.6917 C   0  0  0  0  0  0  0  0  0  0  0  0
   68.9457   48.9536   56.7833 C   0  0  0  0  0  0  0  0  0  0  0  0
  6  7  1  0
  7  8  2  0
  7 13  1  0
  8  9  1  0
  9 10  2  0
 10  1  1  0
 10 11  1  0
  1  2  2  0
  1  5  1  0
  2  3  1  0
  3  4  1  0
  4  5  2  0
  5 15  1  0
 15 16  2  0
 15 21  1  0
 16 17  1  0
 17 18  2  0
 18 19  1  0
 18 20  1  0
 20 21  2  0
 11 12  1  0
 11 13  2  0
 13 14  1  0
M  END
>  <minimizedAffinity>  (1) 
-9.33572

$$$$
data/reference_output_2/data/smiles/173280.pdb
     RDKit          3D

 22 24  0  0  0  0  0  0  0  0999 V2000
   68.9465   45.3481   56.3556 C   0  0  0  0  0  0  0  0  0  0  0  0
   69.8982   46.0472   57.0077 N   0  0  0  0  0  0  0  0  0  0  0  0
   70.7250   45.4180   57.8477 C   0  0  0  0  0  0  0  0  0  0  0  0
   70.6445   44.0378   58.0843 C   0  0  0  0  0  0  0  0  0  0  0  0
   69.6735   43.3314   57.4171 C   0  0  0  0  0  0  0  0  0  0  0  0
   68.8742   44.0351   56.5840 N   0  0  0  0  0  0  0  0  0  0  0  0
   69.4429   41.9122   57.5815 C   0  0  0  0  0  0  0  0  0  0  0  0
   68.2935   41.3036   57.1256 C   0  0  0  0  0  0  0  0  0  0  0  0
   68.0754   39.9375   57.3398 C   0  0  0  0  0  0  0  0  0  0  0  0
   69.0085   39.1821   58.0112 C   0  0  0  0  0  0  0  0  0  0  0  0
   70.1150   39.7875   58.4440 N   0  0  0  0  0  0  0  0  0  0  0  0
   70.3506   41.1271   58.2439 C   0  0  0  0  0  0  0  0  0  0  0  0
   68.0142   45.9957   55.5195 N   0  0  0  0  0  0  0  0  0  0  0  0
   69.2928   47.6134   52.4299 C   0  0  0  0  0  0  0  0  0  0  0  0
   68.6140   46.9223   51.4482 C   0  0  0  0  0  0  0  0  0  0  0  0
   67.7464   45.9053   51.8246 C   0  0  0  0  0  0  0  0  0  0  0  0
   67.5730   45.5990   53.1620 C   0  0  0  0  0  0  0  0  0  0  0  0
   68.2418   46.2778   54.1610 C   0  0  0  0  0  0  0  0  0  0  0  0
   69.0991   47.2831   53.7716 C   0  0  0  0  0  0  0  0  0  0  0  0
   69.9711   49.3593   51.0260 O   0  0  0  0  0  0  0  0  0  0  0  0
   70.1919   48.7037   52.0738 C   0  0  0  0  0  0  0  0  0  0  0  0
   71.2848   49.0613   52.8379 O   0  0  0  0  0  0  0  0  0  0  0  0
 20 21  2  0
 21 22  1  0
 21 14  1  0
 14 15  2  0
 14 19  1  0
 15 16  1  0
 16 17  2  0
 17 18  1  0
 18 13  1  0
 18 19  2  0
 13  1  1  0
  1  2  2  0
  1  6  1  0
  2  3  1  0
  3  4  2  0
  4  5  1  0
  5  7  1  0
  5  6  2  0
  7  8  2  0
  7 12  1  0
  8  9  1  0
  9 10  2  0
 10 11  1  0
 11 12  2  0
M  END
>  <minimizedAffinity>  (2) 
-9.32116

$$$$
data/reference_output_2/data/smiles/186476.pdb
     RDKit          3D

 21 23  0  0  0  0  0  0  0  0999 V2000
   71.6061   49.3479   53.2646 O   0  0  0  0  0  0  0  0  0  0  0  0
   70.4634   49.2749   53.8494 C   0  0  0  0  0  0  0  0  0  0  0  0
   70.1648   50.2855   54.7808 N   0  0  0  0  0  0  0  0  0  0  0  0
   70.8479   51.5947   54.7559 C   0  0  0  0  0  0  0  0  0  0  0  0
   69.9715   52.7417   55.0717 C   0  0  0  0  0  0  0  0  0  0  0  0
   68.5261   52.4418   55.3462 C   0  0  0  0  0  0  0  0  0  0  0  0
   68.3268   51.1866   56.0884 C   0  0  0  0  0  0  0  0  0  0  0  0
   67.3642   51.0721   57.0536 C   0  0  0  0  0  0  0  0  0  0  0  0
   67.2480   49.8555   57.7229 C   0  0  0  0  0  0  0  0  0  0  0  0
   66.3144   49.6745   58.6894 F   0  0  0  0  0  0  0  0  0  0  0  0
   68.0986   48.7882   57.4062 C   0  0  0  0  0  0  0  0  0  0  0  0
   69.0616   48.9062   56.4400 C   0  0  0  0  0  0  0  0  0  0  0  0
   69.1599   50.1451   55.7773 C   0  0  0  0  0  0  0  0  0  0  0  0
   69.6215   48.1913   53.4967 C   0  0  0  0  0  0  0  0  0  0  0  0
   68.9880   47.3869   54.4057 C   0  0  0  0  0  0  0  0  0  0  0  0
   68.1085   46.3735   54.0024 C   0  0  0  0  0  0  0  0  0  0  0  0
   67.8466   46.1468   52.6858 C   0  0  0  0  0  0  0  0  0  0  0  0
   66.9679   45.1290   52.3551 O   0  0  0  0  0  0  0  0  0  0  0  0
   68.4694   46.9435   51.7498 C   0  0  0  0  0  0  0  0  0  0  0  0
   69.3319   47.9359   52.1556 C   0  0  0  0  0  0  0  0  0  0  0  0
   69.9397   48.7157   51.1978 O   0  0  0  0  0  0  0  0  0  0  0  0
  1  2  2  0
  2 14  1  0
  2  3  1  0
 14 15  2  0
 14 20  1  0
 15 16  1  0
 16 17  2  0
 17 18  1  0
 17 19  1  0
 19 20  2  0
 20 21  1  0
  3  4  1  0
  3 13  1  0
  4  5  1  0
  5  6  1  0
  6  7  1  0
  7  8  2  0
  7 13  1  0
  8  9  1  0
  9 10  1  0
  9 11  2  0
 11 12  1  0
 12 13  2  0
M  END
>  <minimizedAffinity>  (3) 
-9.25267

$$$$
data/reference_output_2/data/smiles/134855.pdb
     RDKit          3D

 21 23  0  0  0  0  0  0  0  0999 V2000
   69.4782   48.2877   54.0100 C   0  0  0  0  0  0  0  0  0  0  0  0
   69.2878   48.0887   55.4068 C   0  0  0  0  0  0  0  0  0  0  0  0
   68.4285   47.1276   55.8234 C   0  0  0  0  0  0  0  0  0  0  0  0
   68.2500   46.9420   57.0882 O   0  0  0  0  0  0  0  0  0  0  0  0
   67.7772   46.3875   54.9670 O   0  0  0  0  0  0  0  0  0  0  0  0
   67.8848   46.4918   53.6767 C   0  0  0  0  0  0  0  0  0  0  0  0
   67.1944   45.6989   52.8383 N   0  0  0  0  0  0  0  0  0  0  0  0
   67.3329   45.8247   51.5118 C   0  0  0  0  0  0  0  0  0  0  0  0
   66.6660   45.0596   50.7257 O   0  0  0  0  0  0  0  0  0  0  0  0
   68.1621   46.7421   51.0192 N   0  0  0  0  0  0  0  0  0  0  0  0
   68.8864   47.5735   51.8090 C   0  0  0  0  0  0  0  0  0  0  0  0
   69.6516   48.4100   51.3191 O   0  0  0  0  0  0  0  0  0  0  0  0
   68.7631   47.4718   53.1722 C   0  0  0  0  0  0  0  0  0  0  0  0
   70.3419   49.3685   53.5928 C   0  0  0  0  0  0  0  0  0  0  0  0
   69.8477   50.7533   53.6755 C   0  0  0  0  0  0  0  0  0  0  0  0
   68.8168   51.2782   54.5395 C   0  0  0  0  0  0  0  0  0  0  0  0
   68.9901   51.6373   55.9574 C   0  0  0  0  0  0  0  0  0  0  0  0
   69.3390   53.1647   56.0865 C   0  0  0  0  0  0  0  0  0  0  0  0
   70.1043   52.0556   56.7618 C   0  0  0  0  0  0  0  0  0  0  0  0
   67.8446   50.3449   57.7818 C   0  0  0  0  0  0  0  0  0  0  0  0
   67.6516   51.4419   56.7889 C   0  0  0  0  0  0  0  0  0  0  0  0
 20 21  1  0
 21 17  1  0
 17 16  1  0
 17 18  1  0
 17 19  1  0
 16 15  1  0
 15 14  1  0
 14  1  1  0
  1  2  2  0
  1 13  1  0
  2  3  1  0
  3  4  2  0
  3  5  1  0
  5  6  1  0
  6  7  1  0
  6 13  2  0
  7  8  1  0
  8  9  2  0
  8 10  1  0
 10 11  1  0
 11 12  2  0
 11 13  1  0
 18 19  1  0
M  END
>  <minimizedAffinity>  (4) 
-9.23488

$$$$
data/reference_output_2/data/smiles/183057.pdb
     RDKit          3D

 20 22  0  0  0  0  0  0  0  0999 V2000
   66.6037   44.9692   50.7868 O   0  0  0  0  0  0  0  0  0  0  0  0
   67.3037   45.7395   51.5355 C   0  0  0  0  0  0  0  0  0  0  0  0
   68.2070   46.5630   51.0120 N   0  0  0  0  0  0  0  0  0  0  0  0
   68.9535   47.3810   51.7773 C   0  0  0  0  0  0  0  0  0  0  0  0
   69.7961   48.1335   51.2691 O   0  0  0  0  0  0  0  0  0  0  0  0
   68.7706   47.3638   53.1392 C   0  0  0  0  0  0  0  0  0  0  0  0
   69.5078   48.1724   53.9528 C   0  0  0  0  0  0  0  0  0  0  0  0
   69.2690   48.0746   55.3525 C   0  0  0  0  0  0  0  0  0  0  0  0
   68.3264   47.1957   55.7698 C   0  0  0  0  0  0  0  0  0  0  0  0
   68.1006   47.0950   56.9925 O   0  0  0  0  0  0  0  0  0  0  0  0
   67.6478   46.4516   54.9486 O   0  0  0  0  0  0  0  0  0  0  0  0
   67.8044   46.4722   53.6542 C   0  0  0  0  0  0  0  0  0  0  0  0
   67.0754   45.6654   52.8564 N   0  0  0  0  0  0  0  0  0  0  0  0
   70.4194   49.2462   53.5237 C   0  0  0  0  0  0  0  0  0  0  0  0
   69.5600   50.4676   53.2524 C   0  0  0  0  0  0  0  0  0  0  0  0
   69.7224   51.4819   54.3319 C   0  0  0  0  0  0  0  0  0  0  0  0
   68.3736   51.9270   54.8955 C   0  0  0  0  0  0  0  0  0  0  0  0
   68.5860   52.0789   56.4018 C   0  0  0  0  0  0  0  0  0  0  0  0
   69.0923   50.9384   57.2009 C   0  0  0  0  0  0  0  0  0  0  0  0
   67.6692   51.2969   57.3210 C   0  0  0  0  0  0  0  0  0  0  0  0
  1  2  2  0
  2  3  1  0
  2 13  1  0
  3  4  1  0
  4  5  2  0
  4  6  1  0
  6  7  1  0
  6 12  2  0
  7 14  1  0
  7  8  2  0
 14 15  1  0
 15 16  1  0
 16 17  1  0
 17 18  1  0
 18 19  1  0
 18 20  1  0
 19 20  1  0
  8  9  1  0
  9 10  2  0
  9 11  1  0
 11 12  1  0
 12 13  1  0
M  END
>  <minimizedAffinity>  (5) 
-9.22372

$$$$
data/reference_output_2/data/smiles/177626.pdb
     RDKit          3D

 21 23  0  0  0  0  0  0  0  0999 V2000
   69.0985   45.7797   56.4563 N   0  0  0  0  0  0  0  0  0  0  0  0
   68.7349   46.7495   55.8186 C   0  0  0  0  0  0  0  0  0  0  0  0
   68.2924   47.9295   56.5644 C   0  0  0  0  0  0  0  0  0  0  0  0
   68.9474   49.1061   56.4810 C   0  0  0  0  0  0  0  0  0  0  0  0
   68.4782   50.2636   57.1386 C   0  0  0  0  0  0  0  0  0  0  0  0
   67.3270   50.1410   57.8684 C   0  0  0  0  0  0  0  0  0  0  0  0
   66.6734   48.9352   57.9458 C   0  0  0  0  0  0  0  0  0  0  0  0
   67.1509   47.8544   57.3044 N   0  0  0  0  0  0  0  0  0  0  0  0
   68.6929   46.7373   54.3407 C   0  0  0  0  0  0  0  0  0  0  0  0
   67.8479   45.8344   53.6820 C   0  0  0  0  0  0  0  0  0  0  0  0
   67.7198   45.8346   52.2996 C   0  0  0  0  0  0  0  0  0  0  0  0
   68.4450   46.7514   51.5562 C   0  0  0  0  0  0  0  0  0  0  0  0
   69.2594   47.6178   52.2271 C   0  0  0  0  0  0  0  0  0  0  0  0
   69.3468   47.5735   53.5481 N   0  0  0  0  0  0  0  0  0  0  0  0
   69.4760   44.7718   57.1387 N   0  0  0  0  0  0  0  0  0  0  0  0
   67.8085   40.9315   56.6106 C   0  0  0  0  0  0  0  0  0  0  0  0
   68.9333   41.0936   57.3730 C   0  0  0  0  0  0  0  0  0  0  0  0
   69.4630   42.3799   57.5292 C   0  0  0  0  0  0  0  0  0  0  0  0
   68.8598   43.4679   56.9219 C   0  0  0  0  0  0  0  0  0  0  0  0
   67.7754   43.2781   56.1918 N   0  0  0  0  0  0  0  0  0  0  0  0
   67.2231   42.0429   56.0120 C   0  0  0  0  0  0  0  0  0  0  0  0
 16 17  2  0
 16 21  1  0
 17 18  1  0
 18 19  2  0
 19 15  1  0
 19 20  1  0
 15  1  1  0
  1  2  2  3
  2  3  1  0
  2  9  1  0
  3  4  2  0
  3  8  1  0
  4  5  1  0
  5  6  2  0
  6  7  1  0
  7  8  2  0
  9 10  2  0
  9 14  1  0
 10 11  1  0
 11 12  2  0
 12 13  1  0
 13 14  2  0
 20 21  2  0
M  END
>  <minimizedAffinity>  (6) 
-9.20437

$$$$
data/200k_reference_output/data/smiles/8651.pdb
     RDKit          3D

 22 24  0  0  0  0  0  0  0  0999 V2000
   69.2530   47.6595   56.7905 C   0  0  0  0  0  0  0  0  0  0  0  0
   68.8221   46.9140   55.5856 C   0  0  0  0  0  0  0  0  0  0  0  0
   68.1067   45.7584   55.7248 N   0  0  0  0  0  0  0  0  0  0  0  0
   67.6571   45.0928   54.6855 N   0  0  0  0  0  0  0  0  0  0  0  0
   67.8596   45.4871   53.4214 C   0  0  0  0  0  0  0  0  0  0  0  0
   67.4154   44.8290   52.4465 O   0  0  0  0  0  0  0  0  0  0  0  0
   68.5803   46.6511   53.2298 C   0  0  0  0  0  0  0  0  0  0  0  0
   68.8398   47.1079   51.9484 C   0  0  0  0  0  0  0  0  0  0  0  0
   69.5720   48.2603   51.7730 C   0  0  0  0  0  0  0  0  0  0  0  0
   70.0641   48.9856   52.8293 C   0  0  0  0  0  0  0  0  0  0  0  0
   69.8068   48.5330   54.1052 C   0  0  0  0  0  0  0  0  0  0  0  0
   69.0658   47.3692   54.3300 C   0  0  0  0  0  0  0  0  0  0  0  0
   68.0922   51.2130   57.2944 C   0  0  0  0  0  0  0  0  0  0  0  0
   66.8284   50.9688   57.8044 C   0  0  0  0  0  0  0  0  0  0  0  0
   66.3411   49.7003   57.9860 C   0  0  0  0  0  0  0  0  0  0  0  0
   67.1065   48.6013   57.6588 C   0  0  0  0  0  0  0  0  0  0  0  0
   68.3576   48.7872   57.1538 C   0  0  0  0  0  0  0  0  0  0  0  0
   68.8269   50.0948   56.9812 C   0  0  0  0  0  0  0  0  0  0  0  0
   68.5945   52.4941   57.1075 O   0  0  0  0  0  0  0  0  0  0  0  0
   68.8683   52.4216   54.6008 C   0  0  0  0  0  0  0  0  0  0  0  0
   69.2491   52.8967   55.9537 C   0  0  0  0  0  0  0  0  0  0  0  0
   70.2065   53.7030   56.0714 O   0  0  0  0  0  0  0  0  0  0  0  0
 20 21  1  0
 21 22  2  0
 21 19  1  0
 19 13  1  0
 13 14  2  0
 13 18  1  0
 14 15  1  0
 15 16  2  0
 16 17  1  0
 17  1  1  0
 17 18  2  0
  1  2  1  0
  2  3  2  0
  2 12  1  0
  3  4  1  0
  4  5  1  0
  5  6  2  0
  5  7  1  0
  7  8  1  0
  7 12  2  0
  8  9  2  0
  9 10  1  0
 10 11  2  0
 11 12  1  0
M  END
>  <minimizedAffinity>  (7) 
-9.13288

$$$$
data/reference_output_2/data/smiles/191261.pdb
     RDKit          3D

 20 23  0  0  0  0  0  0  0  0999 V2000
   69.2008   49.3935   57.4962 C   0  0  2  0  0  0  0  0  0  0  0  0
   70.4326   49.6130   56.6464 C   0  0  0  0  0  0  0  0  0  0  0  0
   70.2313   49.0540   55.2711 C   0  0  0  0  0  0  0  0  0  0  0  0
   71.0127   49.6250   54.3904 N   0  0  0  0  0  0  0  0  0  0  0  0
   71.1534   49.4122   52.9994 N   0  0  0  0  0  0  0  0  0  0  0  0
   70.3373   48.5660   52.1859 C   0  0  0  0  0  0  0  0  0  0  0  0
   70.5121   48.6445   50.9511 O   0  0  0  0  0  0  0  0  0  0  0  0
   69.3177   47.6150   52.6007 C   0  0  0  0  0  0  0  0  0  0  0  0
   68.7717   46.8686   51.5791 C   0  0  0  0  0  0  0  0  0  0  0  0
   67.7975   45.9346   51.8798 C   0  0  0  0  0  0  0  0  0  0  0  0
   67.3878   45.7622   53.1828 C   0  0  0  0  0  0  0  0  0  0  0  0
   67.9125   46.4900   54.2219 C   0  0  0  0  0  0  0  0  0  0  0  0
   67.7173   46.5423   55.5634 N   0  0  0  0  0  0  0  0  0  0  0  0
   68.5338   47.4752   56.1168 C   0  0  0  0  0  0  0  0  0  0  0  0
   69.2489   48.0105   55.0825 C   0  0  0  0  0  0  0  0  0  0  0  0
   68.8791   47.4106   53.8850 C   0  0  0  0  0  0  0  0  0  0  0  0
   68.7631   47.9567   57.4917 C   0  0  0  0  0  0  0  0  0  0  0  0
   66.8870   50.0056   58.0185 C   0  0  0  0  0  0  0  0  0  0  0  0
   68.0566   50.2630   57.0955 C   0  0  0  0  0  0  0  0  0  0  0  0
   68.3760   51.7366   57.1800 C   0  0  0  0  0  0  0  0  0  0  0  0
 18 19  1  0
 19 20  1  0
  1 19  1  6
  1  2  1  0
  1 17  1  0
  2  3  1  0
  3  4  2  0
  3 15  1  0
  4  5  1  0
  5  6  1  0
  6  7  2  0
  6  8  1  0
  8  9  1  0
  8 16  2  0
  9 10  2  0
 10 11  1  0
 11 12  2  0
 12 13  1  0
 12 16  1  0
 13 14  1  0
 14 15  2  0
 14 17  1  0
 15 16  1  0
M  END
>  <minimizedAffinity>  (8) 
-9.13052

$$$$
data/200k_reference_output/data/smiles/42202.pdb
     RDKit          3D

 19 21  0  0  0  0  0  0  0  0999 V2000
   66.8438   45.5336   51.0114 N   0  0  0  0  0  0  0  0  0  0  0  0
   67.7642   46.2903   51.8049 C   0  0  0  0  0  0  0  0  0  0  0  0
   67.7531   46.1705   53.1647 C   0  0  0  0  0  0  0  0  0  0  0  0
   68.6184   46.8789   53.9649 C   0  0  0  0  0  0  0  0  0  0  0  0
   69.5105   47.7318   53.2476 C   0  0  0  0  0  0  0  0  0  0  0  0
   70.4689   48.5496   53.7070 N   0  0  0  0  0  0  0  0  0  0  0  0
   71.0043   49.1136   52.6397 N   0  0  0  0  0  0  0  0  0  0  0  0
   70.4399   48.6990   51.5347 N   0  0  0  0  0  0  0  0  0  0  0  0
   69.4751   47.8096   51.8891 C   0  0  0  0  0  0  0  0  0  0  0  0
   68.6220   47.1085   51.1577 N   0  0  0  0  0  0  0  0  0  0  0  0
   68.7129   46.8534   55.3082 O   0  0  0  0  0  0  0  0  0  0  0  0
   69.2997   47.6404   56.2439 C   0  0  0  0  0  0  0  0  0  0  0  0
   68.5909   48.8525   56.6787 C   0  0  0  0  0  0  0  0  0  0  0  0
   67.4647   48.7377   57.4972 C   0  0  0  0  0  0  0  0  0  0  0  0
   66.7711   49.8652   57.8780 C   0  0  0  0  0  0  0  0  0  0  0  0
   67.1462   51.1298   57.4774 C   0  0  0  0  0  0  0  0  0  0  0  0
   68.2745   51.2189   56.6603 C   0  0  0  0  0  0  0  0  0  0  0  0
   68.7842   52.7878   56.1320 Cl  0  0  0  0  0  0  0  0  0  0  0  0
   68.9808   50.0947   56.2696 C   0  0  0  0  0  0  0  0  0  0  0  0
  1  2  1  0
  2  3  2  0
  2 10  1  0
  3  4  1  0
  4 11  1  0
  4  5  2  0
 11 12  1  0
 12 13  1  0
 13 14  2  0
 13 19  1  0
 14 15  1  0
 15 16  2  0
 16 17  1  0
 17 18  1  0
 17 19  2  0
  5  6  1  0
  5  9  1  0
  6  7  2  0
  7  8  1  0
  8  9  1  0
  9 10  2  0
M  END
>  <minimizedAffinity>  (9) 
-9.12835

$$$$
data/reference_output_2/data/smiles/120713.pdb
     RDKit          3D

 22 24  0  0  0  0  0  0  0  0999 V2000
   66.6788   44.9460   50.8406 O   0  0  0  0  0  0  0  0  0  0  0  0
   67.3304   45.7195   51.5628 C   0  0  0  0  0  0  0  0  0  0  0  0
   68.1905   46.5893   51.0203 N   0  0  0  0  0  0  0  0  0  0  0  0
   68.8918   47.4300   51.8400 C   0  0  0  0  0  0  0  0  0  0  0  0
   69.6672   48.1960   51.2951 O   0  0  0  0  0  0  0  0  0  0  0  0
   68.7447   47.4130   53.1891 C   0  0  0  0  0  0  0  0  0  0  0  0
   69.4736   48.2750   53.9757 C   0  0  0  0  0  0  0  0  0  0  0  0
   69.1951   48.0997   55.3522 C   0  0  0  0  0  0  0  0  0  0  0  0
   68.3137   47.1943   55.8397 C   0  0  0  0  0  0  0  0  0  0  0  0
   68.1179   47.0962   57.0859 O   0  0  0  0  0  0  0  0  0  0  0  0
   67.6554   46.4104   55.0037 O   0  0  0  0  0  0  0  0  0  0  0  0
   67.8504   46.5005   53.7168 C   0  0  0  0  0  0  0  0  0  0  0  0
   67.1640   45.6778   52.9025 N   0  0  0  0  0  0  0  0  0  0  0  0
   70.3508   49.3528   53.5282 C   0  0  0  0  0  0  0  0  0  0  0  0
   69.7495   50.7022   53.3829 C   0  0  0  0  0  0  0  0  0  0  0  0
   70.0604   51.7582   54.3682 C   0  0  0  0  0  0  0  0  0  0  0  0
   69.4521   51.4598   55.7211 C   0  0  0  0  0  0  0  0  0  0  0  0
   68.0924   51.4954   55.9286 C   0  0  0  0  0  0  0  0  0  0  0  0
   67.5113   51.2309   57.1492 C   0  0  0  0  0  0  0  0  0  0  0  0
   68.3035   50.9166   58.2169 C   0  0  0  0  0  0  0  0  0  0  0  0
   69.6848   50.8712   58.0402 C   0  0  0  0  0  0  0  0  0  0  0  0
   70.2548   51.1434   56.7938 C   0  0  0  0  0  0  0  0  0  0  0  0
  1  2  2  0
  2  3  1  0
  2 13  1  0
  3  4  1  0
  4  5  2  0
  4  6  1  0
  6  7  1  0
  6 12  2  0
  7 14  1  0
  7  8  2  0
 14 15  1  0
 15 16  1  0
 16 17  1  0
 17 18  2  0
 17 22  1  0
 18 19  1  0
 19 20  2  0
 20 21  1  0
 21 22  2  0
  8  9  1  0
  9 10  2  0
  9 11  1  0
 11 12  1  0
 12 13  1  0
M  END
>  <minimizedAffinity>  (10) 
-9.08958

$$$$
data/200k_reference_output/data/smiles/55774.pdb
     RDKit          3D

 21 22  0  0  0  0  0  0  0  0999 V2000
   68.9148   46.9342   54.8506 C   0  0  0  0  0  0  0  0  0  0  0  0
   68.0754   46.0080   54.2823 C   0  0  0  0  0  0  0  0  0  0  0  0
   67.8587   46.0048   52.9377 C   0  0  0  0  0  0  0  0  0  0  0  0
   67.0072   45.0556   52.3671 O   0  0  0  0  0  0  0  0  0  0  0  0
   68.4544   46.9148   52.0790 C   0  0  0  0  0  0  0  0  0  0  0  0
   68.2011   46.8704   50.7001 O   0  0  0  0  0  0  0  0  0  0  0  0
   69.2838   47.8274   52.6737 C   0  0  0  0  0  0  0  0  0  0  0  0
   69.5236   47.8522   54.0417 C   0  0  0  0  0  0  0  0  0  0  0  0
   69.9283   48.7894   51.8509 N   0  0  0  0  0  0  0  0  0  0  0  0
   70.6257   48.4179   50.8925 O   0  0  0  0  0  0  0  0  0  0  0  0
   69.7977   50.1261   52.0856 O   0  0  0  0  0  0  0  0  0  0  0  0
   69.1479   46.9350   56.3207 C   0  0  0  0  0  0  0  0  0  0  0  0
   68.9451   45.8324   56.8719 O   0  0  0  0  0  0  0  0  0  0  0  0
   69.5766   48.1206   57.0808 C   0  0  0  0  0  0  0  0  0  0  0  0
   69.9478   50.8869   56.0008 C   0  0  0  0  0  0  0  0  0  0  0  0
   68.7628   50.4425   56.7323 C   0  0  0  0  0  0  0  0  0  0  0  0
   67.7645   51.4175   56.9182 C   0  0  0  0  0  0  0  0  0  0  0  0
   66.5665   51.1079   57.5514 C   0  0  0  0  0  0  0  0  0  0  0  0
   66.3729   49.8378   57.9915 C   0  0  0  0  0  0  0  0  0  0  0  0
   67.3422   48.8684   57.8148 C   0  0  0  0  0  0  0  0  0  0  0  0
   68.5527   49.1736   57.1801 C   0  0  0  0  0  0  0  0  0  0  0  0
 15 16  1  0
 16 17  2  0
 16 21  1  0
 17 18  1  0
 18 19  2  0
 19 20  1  0
 20 21  2  0
 21 14  1  0
 14 12  1  0
 12 13  2  0
 12  1  1  0
  1  2  2  0
  1  8  1  0
  2  3  1  0
  3  4  1  0
  3  5  2  0
  5  6  1  0
  5  7  1  0
  7  9  1  0
  7  8  2  0
  9 10  2  0
  9 11  1  0
M  CHG  2   9   1  11  -1
M  END
>  <minimizedAffinity>  (11) 
-9.07842

$$$$
data/reference_output_2/data/smiles/192842.pdb
     RDKit          3D

 20 21  0  0  0  0  0  0  0  0999 V2000
   68.5595   45.8844   55.6326 C   0  0  0  0  0  0  0  0  0  0  0  0
   68.9245   46.4994   56.5997 N   0  0  0  0  0  0  0  0  0  0  0  0
   69.3536   47.7084   52.3793 C   0  0  0  0  0  0  0  0  0  0  0  0
   68.5449   47.0436   51.4958 C   0  0  0  0  0  0  0  0  0  0  0  0
   67.7437   46.0109   51.9483 C   0  0  0  0  0  0  0  0  0  0  0  0
   67.7545   45.6516   53.2702 C   0  0  0  0  0  0  0  0  0  0  0  0
   68.5556   46.2914   54.2106 C   0  0  0  0  0  0  0  0  0  0  0  0
   69.3310   47.3057   53.7166 C   0  0  0  0  0  0  0  0  0  0  0  0
   69.9452   49.4599   50.9688 O   0  0  0  0  0  0  0  0  0  0  0  0
   70.1996   48.7767   51.9765 N   0  0  0  0  0  0  0  0  0  0  0  0
   71.3257   49.0850   52.6927 O   0  0  0  0  0  0  0  0  0  0  0  0
   68.0509   44.5423   55.8915 N   0  0  0  0  0  0  0  0  0  0  0  0
   68.6357   43.7158   56.7896 O   0  0  0  0  0  0  0  0  0  0  0  0
   69.4426   47.6138   57.1522 C   0  0  0  0  0  0  0  0  0  0  0  0
   68.4888   48.7849   57.2670 C   0  0  0  0  0  0  0  0  0  0  0  0
   68.9080   49.9646   56.6955 C   0  0  0  0  0  0  0  0  0  0  0  0
   68.0969   51.1003   56.7533 C   0  0  0  0  0  0  0  0  0  0  0  0
   66.8834   50.9858   57.3955 C   0  0  0  0  0  0  0  0  0  0  0  0
   66.4714   49.8127   57.9618 C   0  0  0  0  0  0  0  0  0  0  0  0
   67.2878   48.6820   57.8991 C   0  0  0  0  0  0  0  0  0  0  0  0
  9 10  2  0
 10 11  1  0
 10  3  1  0
  3  4  2  0
  3  8  1  0
  4  5  1  0
  5  6  2  0
  6  7  1  0
  7  1  1  0
  7  8  2  0
  1  2  2  0
  1 12  1  0
  2 14  1  0
 14 15  1  0
 15 16  2  0
 15 20  1  0
 16 17  1  0
 17 18  2  0
 18 19  1  0
 19 20  2  0
 12 13  1  0
M  CHG  3   2   1  10   1  11  -1
M  END
>  <minimizedAffinity>  (12) 
-9.06206

$$$$
data/reference_output_2/data/smiles/184115.pdb
     RDKit          3D

 22 24  0  0  0  0  0  0  0  0999 V2000
   67.4938   47.6152   57.0743 N   0  0  0  0  0  0  0  0  0  0  0  0
   67.9026   48.9636   56.9293 C   0  0  0  0  0  0  0  0  0  0  0  0
   68.8540   49.2796   55.9261 C   0  0  0  0  0  0  0  0  0  0  0  0
   69.1873   50.6110   55.8630 C   0  0  0  0  0  0  0  0  0  0  0  0
   70.0919   51.0519   54.9426 C   0  0  0  0  0  0  0  0  0  0  0  0
   70.4434   52.3825   54.8568 C   0  0  0  0  0  0  0  0  0  0  0  0
   69.8654   53.2791   55.7231 C   0  0  0  0  0  0  0  0  0  0  0  0
   68.9474   52.9035   56.6737 C   0  0  0  0  0  0  0  0  0  0  0  0
   68.6196   51.5600   56.7297 C   0  0  0  0  0  0  0  0  0  0  0  0
   67.7472   51.1936   57.6311 O   0  0  0  0  0  0  0  0  0  0  0  0
   67.3873   49.9418   57.7435 C   0  0  0  0  0  0  0  0  0  0  0  0
   66.5448   49.6495   58.6286 O   0  0  0  0  0  0  0  0  0  0  0  0
   69.3687   48.2891   55.1095 N   0  0  0  0  0  0  0  0  0  0  0  0
   68.9552   47.5730   53.9965 C   0  0  0  0  0  0  0  0  0  0  0  0
   68.0526   46.5239   54.2719 C   0  0  0  0  0  0  0  0  0  0  0  0
   67.5574   45.7302   53.2897 C   0  0  0  0  0  0  0  0  0  0  0  0
   67.9198   45.9222   51.9840 C   0  0  0  0  0  0  0  0  0  0  0  0
   68.7909   46.9249   51.6652 C   0  0  0  0  0  0  0  0  0  0  0  0
   69.2929   47.7347   52.6849 C   0  0  0  0  0  0  0  0  0  0  0  0
   70.1957   48.7813   52.2825 C   0  0  0  0  0  0  0  0  0  0  0  0
   71.2901   48.9449   52.8179 O   0  0  0  0  0  0  0  0  0  0  0  0
   69.8520   49.6458   51.2662 O   0  0  0  0  0  0  0  0  0  0  0  0
  1  2  1  0
  2  3  2  0
  2 11  1  0
  3 13  1  0
  3  4  1  0
 13 14  1  0
 14 15  2  0
 14 19  1  0
 15 16  1  0
 16 17  2  0
 17 18  1  0
 18 19  2  0
 19 20  1  0
 20 21  2  0
 20 22  1  0
  4  5  2  0
  4  9  1  0
  5  6  1  0
  6  7  2  0
  7  8  1  0
  8  9  2  0
  9 10  1  0
 10 11  1  0
 11 12  2  0
M  END
>  <minimizedAffinity>  (13) 
-9.06181

$$$$
data/reference_output_2/data/smiles/139790.pdb
     RDKit          3D

 21 23  0  0  0  0  0  0  0  0999 V2000
   70.2449   49.9231   54.9261 N   0  0  0  0  0  0  0  0  0  0  0  0
   70.3735   49.1050   53.9198 C   0  0  0  0  0  0  0  0  0  0  0  0
   71.5748   49.3765   53.3038 N   0  0  0  0  0  0  0  0  0  0  0  0
   72.1860   50.3604   53.9295 N   0  0  0  0  0  0  0  0  0  0  0  0
   71.3858   50.7215   54.9425 C   0  0  0  0  0  0  0  0  0  0  0  0
   71.6062   51.6292   55.7817 O   0  0  0  0  0  0  0  0  0  0  0  0
   69.4534   48.0463   53.4470 C   0  0  0  0  0  0  0  0  0  0  0  0
   68.7130   47.2585   54.2765 C   0  0  0  0  0  0  0  0  0  0  0  0
   67.8565   46.2697   53.7769 C   0  0  0  0  0  0  0  0  0  0  0  0
   67.7708   46.1005   52.4166 C   0  0  0  0  0  0  0  0  0  0  0  0
   66.9250   45.1227   51.8677 O   0  0  0  0  0  0  0  0  0  0  0  0
   68.5122   46.8881   51.5574 C   0  0  0  0  0  0  0  0  0  0  0  0
   69.3334   47.8385   52.0820 C   0  0  0  0  0  0  0  0  0  0  0  0
   70.0945   48.6474   51.2164 O   0  0  0  0  0  0  0  0  0  0  0  0
   68.4322   52.0468   54.6072 C   0  0  0  0  0  0  0  0  0  0  0  0
   68.2974   51.1255   55.7700 C   0  0  0  0  0  0  0  0  0  0  0  0
   67.2933   51.3430   56.6802 C   0  0  0  0  0  0  0  0  0  0  0  0
   67.1567   50.5002   57.7592 C   0  0  0  0  0  0  0  0  0  0  0  0
   68.0387   49.4513   57.8986 C   0  0  0  0  0  0  0  0  0  0  0  0
   69.0377   49.2524   56.9748 C   0  0  0  0  0  0  0  0  0  0  0  0
   69.2125   50.0711   55.8799 C   0  0  0  0  0  0  0  0  0  0  0  0
 15 16  1  0
 16 17  2  0
 16 21  1  0
 17 18  1  0
 18 19  2  0
 19 20  1  0
 20 21  2  0
 21  1  1  0
  1  2  1  0
  1  5  1  0
  2  7  1  0
  2  3  2  0
  7  8  2  0
  7 13  1  0
  8  9  1  0
  9 10  2  0
 10 11  1  0
 10 12  1  0
 12 13  2  0
 13 14  1  0
  3  4  1  0
  4  5  1  0
  5  6  2  0
M  END
>  <minimizedAffinity>  (14) 
-9.05348

$$$$
data/reference_output_2/data/smiles/191486.pdb
     RDKit          3D

 21 23  0  0  0  0  0  0  0  0999 V2000
   71.8768   50.0897   53.8734 O   0  0  0  0  0  0  0  0  0  0  0  0
   70.6801   50.0241   53.5637 C   0  0  0  0  0  0  0  0  0  0  0  0
   69.7697   51.0131   53.9846 N   0  0  0  0  0  0  0  0  0  0  0  0
   70.1977   48.9084   52.7490 C   0  0  0  0  0  0  0  0  0  0  0  0
   70.4755   48.6347   51.4610 N   0  0  0  0  0  0  0  0  0  0  0  0
   69.8524   47.5379   51.0704 N   0  0  0  0  0  0  0  0  0  0  0  0
   69.1194   47.0214   52.0909 C   0  0  0  0  0  0  0  0  0  0  0  0
   68.3029   45.9139   52.2106 C   0  0  0  0  0  0  0  0  0  0  0  0
   67.6716   45.6315   53.4026 C   0  0  0  0  0  0  0  0  0  0  0  0
   67.8952   46.5019   54.4582 C   0  0  0  0  0  0  0  0  0  0  0  0
   68.7131   47.6047   54.3285 C   0  0  0  0  0  0  0  0  0  0  0  0
   69.3424   47.8894   53.1439 C   0  0  0  0  0  0  0  0  0  0  0  0
   70.0948   52.1379   54.7967 C   0  0  0  0  0  0  0  0  0  0  0  0
   69.9367   52.0152   56.2589 C   0  0  0  0  0  0  0  0  0  0  0  0
   68.9447   51.1354   56.8330 C   0  0  0  0  0  0  0  0  0  0  0  0
   67.6501   51.5219   57.0696 C   0  0  0  0  0  0  0  0  0  0  0  0
   66.7207   50.6628   57.5607 C   0  0  0  0  0  0  0  0  0  0  0  0
   67.0544   49.3576   57.8414 C   0  0  0  0  0  0  0  0  0  0  0  0
   66.1298   48.4950   58.3321 F   0  0  0  0  0  0  0  0  0  0  0  0
   68.3483   48.9310   57.6166 C   0  0  0  0  0  0  0  0  0  0  0  0
   69.2815   49.8089   57.1193 C   0  0  0  0  0  0  0  0  0  0  0  0
  1  2  2  0
  2  3  1  0
  2  4  1  0
  3 13  1  0
 13 14  1  0
 14 15  1  0
 15 16  2  0
 15 21  1  0
 16 17  1  0
 17 18  2  0
 18 19  1  0
 18 20  1  0
 20 21  2  0
  4  5  1  0
  4 12  2  0
  5  6  1  0
  6  7  2  0
  7  8  1  0
  7 12  1  0
  8  9  2  0
  9 10  1  0
 10 11  2  0
 11 12  1  0
M  END
>  <minimizedAffinity>  (15) 
-9.05312

$$$$
data/reference_output_2/data/smiles/131523.pdb
     RDKit          3D

 21 22  0  0  0  0  0  0  0  0999 V2000
   67.8897   44.0446   55.3465 N   0  0  0  0  0  0  0  0  0  0  0  0
   68.1848   45.4168   55.1731 C   0  0  0  0  0  0  0  0  0  0  0  0
   68.3082   46.1357   56.1981 O   0  0  0  0  0  0  0  0  0  0  0  0
   68.3516   46.0320   53.8668 C   0  0  0  0  0  0  0  0  0  0  0  0
   67.6056   45.5505   52.7835 C   0  0  0  0  0  0  0  0  0  0  0  0
   67.7298   46.1008   51.5291 C   0  0  0  0  0  0  0  0  0  0  0  0
   68.5846   47.1470   51.2624 C   0  0  0  0  0  0  0  0  0  0  0  0
   69.3207   47.6251   52.3222 C   0  0  0  0  0  0  0  0  0  0  0  0
   69.2022   47.0776   53.5877 C   0  0  0  0  0  0  0  0  0  0  0  0
   70.2129   48.7033   52.0894 N   0  0  0  0  0  0  0  0  0  0  0  0
   70.0391   49.4023   51.0738 O   0  0  0  0  0  0  0  0  0  0  0  0
   71.2457   49.0254   52.9040 O   0  0  0  0  0  0  0  0  0  0  0  0
   67.7343   43.4471   56.5464 O   0  0  0  0  0  0  0  0  0  0  0  0
   67.3980   42.1235   56.5025 C   0  0  0  0  0  0  0  0  0  0  0  0
   71.2860   38.8079   59.2158 C   0  0  0  0  0  0  0  0  0  0  0  0
   70.3027   39.6868   58.5168 C   0  0  0  0  0  0  0  0  0  0  0  0
   70.5632   41.0149   58.2570 C   0  0  0  0  0  0  0  0  0  0  0  0
   69.6280   41.7941   57.6078 C   0  0  0  0  0  0  0  0  0  0  0  0
   68.4071   41.3048   57.1891 C   0  0  0  0  0  0  0  0  0  0  0  0
   68.1551   39.9607   57.4569 C   0  0  0  0  0  0  0  0  0  0  0  0
   69.0889   39.1798   58.1059 C   0  0  0  0  0  0  0  0  0  0  0  0
 15 16  1  0
 16 17  2  0
 16 21  1  0
 17 18  1  0
 18 19  2  0
 19 14  1  0
 19 20  1  0
 14 13  1  0
 13  1  1  0
  1  2  1  0
  2  3  2  0
  2  4  1  0
  4  5  2  0
  4  9  1  0
  5  6  1  0
  6  7  2  0
  7  8  1  0
  8 10  1  0
  8  9  2  0
 10 11  2  0
 10 12  1  0
 20 21  2  0
M  CHG  2  10   1  12  -1
M  END
>  <minimizedAffinity>  (16) 
-9.05141

$$$$
data/reference_output_2/data/smiles/92841.pdb
     RDKit          3D

 22 25  0  0  0  0  0  0  0  0999 V2000
   70.1144   49.3857   53.4484 C   0  0  0  0  0  0  0  0  0  0  0  0
   70.1251   49.9036   52.1931 N   0  0  0  0  0  0  0  0  0  0  0  0
   69.5244   49.0783   51.3684 N   0  0  0  0  0  0  0  0  0  0  0  0
   69.0878   47.9848   52.0136 C   0  0  0  0  0  0  0  0  0  0  0  0
   68.4135   46.8498   51.5705 C   0  0  0  0  0  0  0  0  0  0  0  0
   68.0899   45.8538   52.4652 C   0  0  0  0  0  0  0  0  0  0  0  0
   68.4547   46.0270   53.7816 C   0  0  0  0  0  0  0  0  0  0  0  0
   69.1295   47.1672   54.2171 C   0  0  0  0  0  0  0  0  0  0  0  0
   69.4573   48.1712   53.3284 C   0  0  0  0  0  0  0  0  0  0  0  0
   68.1262   44.9864   54.7498 C   0  0  0  0  0  0  0  0  0  0  0  0
   67.2712   43.9522   54.5594 N   0  0  0  0  0  0  0  0  0  0  0  0
   67.2397   43.2261   55.6608 N   0  0  0  0  0  0  0  0  0  0  0  0
   68.0706   43.8069   56.5284 N   0  0  0  0  0  0  0  0  0  0  0  0
   68.6144   44.8707   55.9973 N   0  0  0  0  0  0  0  0  0  0  0  0
   70.6667   50.0101   54.6743 C   0  0  0  0  0  0  0  0  0  0  0  0
   69.8257   51.0836   55.2625 C   0  0  0  0  0  0  0  0  0  0  0  0
   66.7995   49.8126   58.0027 C   0  0  0  0  0  0  0  0  0  0  0  0
   67.8010   48.9512   57.6293 C   0  0  0  0  0  0  0  0  0  0  0  0
   68.7767   49.3614   56.7471 C   0  0  0  0  0  0  0  0  0  0  0  0
   68.7888   50.6496   56.2042 C   0  0  0  0  0  0  0  0  0  0  0  0
   67.7783   51.4984   56.5879 C   0  0  0  0  0  0  0  0  0  0  0  0
   66.7967   51.0704   57.4817 C   0  0  0  0  0  0  0  0  0  0  0  0
 17 18  2  0
 17 22  1  0
 18 19  1  0
 19 20  2  0
 20 16  1  0
 20 21  1  0
 16 15  1  0
 15  1  1  0
  1  2  2  0
  1  9  1  0
  2  3  1  0
  3  4  1  0
  4  5  1  0
  4  9  2  0
  5  6  2  0
  6  7  1  0
  7 10  1  0
  7  8  2  0
 10 11  2  0
 10 14  1  0
 11 12  1  0
 12 13  2  0
 13 14  1  0
  8  9  1  0
 21 22  2  0
M  END
>  <minimizedAffinity>  (17) 
-9.04517

$$$$
data/reference_output_2/data/smiles/182925.pdb
     RDKit          3D

 20 22  0  0  0  0  0  0  0  0999 V2000
   69.8375   48.7055   54.5350 N   0  0  0  0  0  0  0  0  0  0  0  0
   70.3733   49.4722   53.4124 C   0  0  0  0  0  0  0  0  0  0  0  0
   71.0669   50.4880   53.5371 O   0  0  0  0  0  0  0  0  0  0  0  0
   69.9379   48.8206   52.2023 C   0  0  0  0  0  0  0  0  0  0  0  0
   70.1660   49.1349   51.0060 O   0  0  0  0  0  0  0  0  0  0  0  0
   69.1299   47.6505   52.6117 C   0  0  0  0  0  0  0  0  0  0  0  0
   68.4769   46.7240   51.8394 C   0  0  0  0  0  0  0  0  0  0  0  0
   67.7463   45.7149   52.4552 C   0  0  0  0  0  0  0  0  0  0  0  0
   67.0869   44.7787   51.7362 F   0  0  0  0  0  0  0  0  0  0  0  0
   67.6807   45.6494   53.8283 C   0  0  0  0  0  0  0  0  0  0  0  0
   68.3542   46.6020   54.5557 C   0  0  0  0  0  0  0  0  0  0  0  0
   69.1013   47.6307   53.9942 C   0  0  0  0  0  0  0  0  0  0  0  0
   70.0271   49.0927   55.9194 C   0  0  0  0  0  0  0  0  0  0  0  0
   69.1202   51.9839   56.0426 C   0  0  0  0  0  0  0  0  0  0  0  0
   68.3523   50.8851   56.6504 C   0  0  0  0  0  0  0  0  0  0  0  0
   67.1668   51.2421   57.2941 C   0  0  0  0  0  0  0  0  0  0  0  0
   66.4550   50.2555   57.9185 C   0  0  0  0  0  0  0  0  0  0  0  0
   66.8813   48.9489   57.9199 C   0  0  0  0  0  0  0  0  0  0  0  0
   68.0553   48.6462   57.2704 C   0  0  0  0  0  0  0  0  0  0  0  0
   68.8395   49.6137   56.6042 C   0  0  0  0  0  0  0  0  0  0  0  0
 14 15  1  0
 15 16  2  0
 15 20  1  0
 16 17  1  0
 17 18  2  0
 18 19  1  0
 19 20  2  0
 20 13  1  0
 13  1  1  0
  1  2  1  0
  1 12  1  0
  2  3  2  0
  2  4  1  0
  4  5  2  0
  4  6  1  0
  6  7  1  0
  6 12  2  0
  7  8  2  0
  8  9  1  0
  8 10  1  0
 10 11  2  0
 11 12  1  0
M  END
>  <minimizedAffinity>  (18) 
-9.03621

$$$$
data/200k_reference_output/data/smiles/66300.pdb
     RDKit          3D

 22 24  0  0  0  0  0  0  0  0999 V2000
   70.1170   46.6147   57.3596 O   0  0  0  0  0  0  0  0  0  0  0  0
   69.1865   46.3534   56.5639 C   0  0  0  0  0  0  0  0  0  0  0  0
   68.7481   45.0138   56.4148 N   0  0  0  0  0  0  0  0  0  0  0  0
   69.3333   43.9486   57.1460 N   0  0  0  0  0  0  0  0  0  0  0  0
   68.7749   42.7736   56.9998 C   0  0  0  0  0  0  0  0  0  0  0  0
   67.6286   42.4555   56.1727 C   0  0  0  0  0  0  0  0  0  0  0  0
   66.9792   43.2543   55.4571 O   0  0  0  0  0  0  0  0  0  0  0  0
   67.3656   41.0608   56.3151 N   0  0  0  0  0  0  0  0  0  0  0  0
   68.3287   40.4974   57.2185 C   0  0  0  0  0  0  0  0  0  0  0  0
   68.4979   39.2027   57.6778 C   0  0  0  0  0  0  0  0  0  0  0  0
   69.4988   38.8813   58.5513 C   0  0  0  0  0  0  0  0  0  0  0  0
   70.3486   39.8962   58.9684 C   0  0  0  0  0  0  0  0  0  0  0  0
   70.1801   41.1862   58.5115 C   0  0  0  0  0  0  0  0  0  0  0  0
   69.1723   41.5133   57.6317 C   0  0  0  0  0  0  0  0  0  0  0  0
   68.5752   47.4718   55.8006 C   0  0  0  0  0  0  0  0  0  0  0  0
   68.5537   47.1607   54.3461 C   0  0  0  0  0  0  0  0  0  0  0  0
   69.3463   47.8669   53.4474 C   0  0  0  0  0  0  0  0  0  0  0  0
   69.3410   47.5938   52.0972 C   0  0  0  0  0  0  0  0  0  0  0  0
   68.5388   46.5968   51.5847 C   0  0  0  0  0  0  0  0  0  0  0  0
   67.7479   45.8910   52.4771 C   0  0  0  0  0  0  0  0  0  0  0  0
   66.9303   44.8816   51.9873 O   0  0  0  0  0  0  0  0  0  0  0  0
   67.7585   46.1671   53.8124 C   0  0  0  0  0  0  0  0  0  0  0  0
  1  2  2  0
  2 15  1  0
  2  3  1  0
 15 16  1  0
 16 17  2  0
 16 22  1  0
 17 18  1  0
 18 19  2  0
 19 20  1  0
 20 21  1  0
 20 22  2  0
  3  4  1  0
  4  5  2  0
  5  6  1  0
  5 14  1  0
  6  7  2  0
  6  8  1  0
  8  9  1  0
  9 10  1  0
  9 14  2  0
 10 11  2  0
 11 12  1  0
 12 13  2  0
 13 14  1  0
M  END
>  <minimizedAffinity>  (19) 
-9.03212

$$$$
data/200k_reference_output/data/smiles/72261.pdb
     RDKit          3D

 21 23  0  0  0  0  0  0  0  0999 V2000
   68.1548   46.9109   56.0484 O   0  0  0  0  0  0  0  0  0  0  0  0
   68.2917   46.8318   54.6783 C   0  0  0  0  0  0  0  0  0  0  0  0
   67.6938   45.7968   53.9504 C   0  0  0  0  0  0  0  0  0  0  0  0
   67.8285   45.7152   52.5940 C   0  0  0  0  0  0  0  0  0  0  0  0
   68.5495   46.6335   51.8742 C   0  0  0  0  0  0  0  0  0  0  0  0
   69.1485   47.6594   52.5603 C   0  0  0  0  0  0  0  0  0  0  0  0
   69.8856   48.5634   51.8144 C   0  0  0  0  0  0  0  0  0  0  0  0
   70.4849   49.5531   52.4819 N   0  0  0  0  0  0  0  0  0  0  0  0
   70.3964   49.6906   53.8057 C   0  0  0  0  0  0  0  0  0  0  0  0
   69.6693   48.7986   54.5447 C   0  0  0  0  0  0  0  0  0  0  0  0
   69.0158   47.7465   53.9314 C   0  0  0  0  0  0  0  0  0  0  0  0
   70.9052   46.4204   58.5127 C   0  0  0  0  0  0  0  0  0  0  0  0
   71.0178   45.0459   58.4599 C   0  0  0  0  0  0  0  0  0  0  0  0
   70.1789   44.3463   57.6089 C   0  0  0  0  0  0  0  0  0  0  0  0
   69.2713   44.9737   56.8486 N   0  0  0  0  0  0  0  0  0  0  0  0
   69.1146   46.3328   56.8584 C   0  0  0  0  0  0  0  0  0  0  0  0
   69.9580   47.0083   57.7100 C   0  0  0  0  0  0  0  0  0  0  0  0
   72.7245   48.0650   58.8066 N   0  0  0  0  0  0  0  0  0  0  0  0
   71.7762   47.2018   59.4003 C   0  0  0  0  0  0  0  0  0  0  0  0
   71.6969   47.1215   60.6823 N   0  0  0  0  0  0  0  0  0  0  0  0
   72.5530   47.8914   61.4290 O   0  0  0  0  0  0  0  0  0  0  0  0
 18 19  1  0
 19 20  2  0
 19 12  1  0
 20 21  1  0
 12 13  2  0
 12 17  1  0
 13 14  1  0
 14 15  2  0
 15 16  1  0
 16  1  1  0
 16 17  2  0
  1  2  1  0
  2  3  2  0
  2 11  1  0
  3  4  1  0
  4  5  2  0
  5  6  1  0
  6  7  1  0
  6 11  2  0
  7  8  2  0
  8  9  1  0
  9 10  2  0
 10 11  1  0
M  CHG  1  20   1
M  END
>  <minimizedAffinity>  (20) 
-9.02136

$$$$
data/200k_reference_output/data/smiles/45467.pdb
     RDKit          3D

 21 22  0  0  0  0  0  0  0  0999 V2000
   68.2135   46.5516   55.9424 O   0  0  0  0  0  0  0  0  0  0  0  0
   68.3538   46.6928   54.5649 C   0  0  0  0  0  0  0  0  0  0  0  0
   67.6144   45.9324   53.6818 C   0  0  0  0  0  0  0  0  0  0  0  0
   67.7239   46.0420   52.3110 C   0  0  0  0  0  0  0  0  0  0  0  0
   66.9595   45.2555   51.4045 N   0  0  0  0  0  0  0  0  0  0  0  0
   68.6294   46.9708   51.7917 C   0  0  0  0  0  0  0  0  0  0  0  0
   69.3732   47.7358   52.6563 C   0  0  0  0  0  0  0  0  0  0  0  0
   69.2541   47.6168   54.0239 C   0  0  0  0  0  0  0  0  0  0  0  0
   70.3041   48.6907   52.1093 N   0  0  0  0  0  0  0  0  0  0  0  0
   70.0852   49.2099   51.0135 O   0  0  0  0  0  0  0  0  0  0  0  0
   71.4388   49.0311   52.7972 O   0  0  0  0  0  0  0  0  0  0  0  0
   71.5469   46.1861   58.5312 C   0  0  0  0  0  0  0  0  0  0  0  0
   71.0256   47.4139   58.1803 C   0  0  0  0  0  0  0  0  0  0  0  0
   69.9401   47.5380   57.3361 C   0  0  0  0  0  0  0  0  0  0  0  0
   69.3154   46.4333   56.7975 C   0  0  0  0  0  0  0  0  0  0  0  0
   69.8335   45.2048   57.1476 C   0  0  0  0  0  0  0  0  0  0  0  0
   70.9200   45.0789   57.9910 C   0  0  0  0  0  0  0  0  0  0  0  0
   73.8883   46.5092   61.6054 C   0  0  0  0  0  0  0  0  0  0  0  0
   72.7351   46.6244   60.6916 C   0  0  0  0  0  0  0  0  0  0  0  0
   71.7190   47.2686   61.0725 O   0  0  0  0  0  0  0  0  0  0  0  0
   72.6658   46.0659   59.4007 N   0  0  0  0  0  0  0  0  0  0  0  0
 18 19  1  0
 19 20  2  0
 19 21  1  0
 21 12  1  0
 12 13  2  0
 12 17  1  0
 13 14  1  0
 14 15  2  0
 15  1  1  0
 15 16  1  0
  1  2  1  0
  2  3  2  0
  2  8  1  0
  3  4  1  0
  4  5  1  0
  4  6  2  0
  6  7  1  0
  7  9  1  0
  7  8  2  0
  9 10  2  0
  9 11  1  0
 16 17  2  0
M  CHG  2   9   1  11  -1
M  END
>  <minimizedAffinity>  (21) 
-8.99193

$$$$
data/200k_reference_output/data/smiles/59084.pdb
     RDKit          3D

 20 22  0  0  0  0  0  0  0  0999 V2000
   70.1251   49.1802   52.6302 S   0  0  0  0  0  0  0  0  0  0  0  0
   70.3059   48.9136   51.1726 O   0  0  0  0  0  0  0  0  0  0  0  0
   71.4771   49.2691   53.2490 O   0  0  0  0  0  0  0  0  0  0  0  0
   69.2580   47.8322   53.3395 C   0  0  0  0  0  0  0  0  0  0  0  0
   69.3331   47.5935   54.7114 C   0  0  0  0  0  0  0  0  0  0  0  0
   68.6227   46.5108   55.2126 C   0  0  0  0  0  0  0  0  0  0  0  0
   67.8792   45.7182   54.3588 C   0  0  0  0  0  0  0  0  0  0  0  0
   67.8110   45.9610   53.0039 C   0  0  0  0  0  0  0  0  0  0  0  0
   67.1961   45.3912   51.9492 N   0  0  0  0  0  0  0  0  0  0  0  0
   67.4903   46.0598   50.8591 O   0  0  0  0  0  0  0  0  0  0  0  0
   68.2774   47.0443   51.1772 N   0  0  0  0  0  0  0  0  0  0  0  0
   68.5122   47.0339   52.4973 C   0  0  0  0  0  0  0  0  0  0  0  0
   69.3011   50.6628   52.8804 N   0  0  0  0  0  0  0  0  0  0  0  0
   67.2322   51.0472   57.3737 C   0  0  0  0  0  0  0  0  0  0  0  0
   68.2132   51.4861   56.3357 C   0  0  0  0  0  0  0  0  0  0  0  0
   69.0637   52.5328   56.6080 C   0  0  0  0  0  0  0  0  0  0  0  0
   69.9806   52.9685   55.6858 C   0  0  0  0  0  0  0  0  0  0  0  0
   70.0584   52.3595   54.4692 C   0  0  0  0  0  0  0  0  0  0  0  0
   69.2312   51.3053   54.1411 C   0  0  0  0  0  0  0  0  0  0  0  0
   68.3083   50.8877   55.1074 C   0  0  0  0  0  0  0  0  0  0  0  0
 14 15  1  0
 15 16  2  0
 15 20  1  0
 16 17  1  0
 17 18  2  0
 18 19  1  0
 19 13  1  0
 19 20  2  0
 13  1  1  0
  1  2  2  0
  1  3  2  0
  1  4  1  0
  4  5  2  0
  4 12  1  0
  5  6  1  0
  6  7  2  0
  7  8  1  0
  8  9  2  0
  8 12  1  0
  9 10  1  0
 10 11  1  0
 11 12  2  0
M  END
>  <minimizedAffinity>  (22) 
-8.98592

$$$$
data/reference_output_2/data/smiles/166148.pdb
     RDKit          3D

 20 22  0  0  0  0  0  0  0  0999 V2000
   70.3309   49.1713   54.0190 C   0  0  0  0  0  0  0  0  0  0  0  0
   71.5077   49.4504   53.3901 N   0  0  0  0  0  0  0  0  0  0  0  0
   72.0945   50.4803   53.9501 N   0  0  0  0  0  0  0  0  0  0  0  0
   71.2929   50.8944   54.9716 C   0  0  0  0  0  0  0  0  0  0  0  0
   70.1845   50.0907   55.0345 C   0  0  0  0  0  0  0  0  0  0  0  0
   66.9583   44.8951   52.5584 O   0  0  0  0  0  0  0  0  0  0  0  0
   67.7944   45.9563   52.9223 C   0  0  0  0  0  0  0  0  0  0  0  0
   68.1515   46.1771   54.2406 C   0  0  0  0  0  0  0  0  0  0  0  0
   68.9808   47.2308   54.5886 C   0  0  0  0  0  0  0  0  0  0  0  0
   69.4684   48.0856   53.6167 C   0  0  0  0  0  0  0  0  0  0  0  0
   69.1012   47.8497   52.3106 C   0  0  0  0  0  0  0  0  0  0  0  0
   69.5672   48.6826   51.2988 O   0  0  0  0  0  0  0  0  0  0  0  0
   68.2789   46.8067   51.9530 C   0  0  0  0  0  0  0  0  0  0  0  0
   67.9409   46.6178   50.5982 O   0  0  0  0  0  0  0  0  0  0  0  0
   69.0715   50.1703   55.9659 C   0  0  0  0  0  0  0  0  0  0  0  0
   68.7475   49.1199   56.8162 C   0  0  0  0  0  0  0  0  0  0  0  0
   67.7042   49.1599   57.7092 C   0  0  0  0  0  0  0  0  0  0  0  0
   66.9218   50.2931   57.7827 C   0  0  0  0  0  0  0  0  0  0  0  0
   67.2361   51.3415   56.9414 C   0  0  0  0  0  0  0  0  0  0  0  0
   68.2836   51.2967   56.0487 C   0  0  0  0  0  0  0  0  0  0  0  0
  6  7  1  0
  7  8  2  0
  7 13  1  0
  8  9  1  0
  9 10  2  0
 10  1  1  0
 10 11  1  0
  1  2  2  0
  1  5  1  0
  2  3  1  0
  3  4  1  0
  4  5  2  0
  5 15  1  0
 15 16  2  0
 15 20  1  0
 16 17  1  0
 17 18  2  0
 18 19  1  0
 19 20  2  0
 11 12  1  0
 11 13  2  0
 13 14  1  0
M  END
>  <minimizedAffinity>  (23) 
-8.97859

$$$$
data/reference_output_2/data/smiles/114670.pdb
     RDKit          3D

 20 22  0  0  0  0  0  0  0  0999 V2000
   70.2387   49.8787   54.9709 C   0  0  0  0  0  0  0  0  0  0  0  0
   71.3083   50.7404   55.0130 C   0  0  0  0  0  0  0  0  0  0  0  0
   72.0698   50.4074   53.9445 N   0  0  0  0  0  0  0  0  0  0  0  0
   71.4986   49.3976   53.2840 N   0  0  0  0  0  0  0  0  0  0  0  0
   70.3590   49.0386   53.8890 C   0  0  0  0  0  0  0  0  0  0  0  0
   69.4730   47.9760   53.4476 C   0  0  0  0  0  0  0  0  0  0  0  0
   68.8474   47.1129   54.3514 C   0  0  0  0  0  0  0  0  0  0  0  0
   68.0163   46.1205   53.8732 C   0  0  0  0  0  0  0  0  0  0  0  0
   67.7806   45.9497   52.5250 C   0  0  0  0  0  0  0  0  0  0  0  0
   66.9238   44.9197   52.1162 O   0  0  0  0  0  0  0  0  0  0  0  0
   68.3928   46.7984   51.6159 C   0  0  0  0  0  0  0  0  0  0  0  0
   69.2172   47.7808   52.1059 C   0  0  0  0  0  0  0  0  0  0  0  0
   69.8409   48.6414   51.2133 O   0  0  0  0  0  0  0  0  0  0  0  0
   66.0857   49.9214   58.7841 O   0  0  0  0  0  0  0  0  0  0  0  0
   67.1064   49.9138   57.8441 C   0  0  0  0  0  0  0  0  0  0  0  0
   67.8724   48.7932   57.6390 C   0  0  0  0  0  0  0  0  0  0  0  0
   68.8763   48.7870   56.7148 C   0  0  0  0  0  0  0  0  0  0  0  0
   69.1529   49.8939   55.9653 C   0  0  0  0  0  0  0  0  0  0  0  0
   68.4023   51.0340   56.1489 C   0  0  0  0  0  0  0  0  0  0  0  0
   67.3847   51.0341   57.0876 C   0  0  0  0  0  0  0  0  0  0  0  0
 14 15  1  0
 15 16  2  0
 15 20  1  0
 16 17  1  0
 17 18  2  0
 18  1  1  0
 18 19  1  0
  1  2  1  0
  1  5  2  0
  2  3  2  0
  3  4  1  0
  4  5  1  0
  5  6  1  0
  6  7  2  0
  6 12  1  0
  7  8  1  0
  8  9  2  0
  9 10  1  0
  9 11  1  0
 11 12  2  0
 12 13  1  0
 19 20  2  0
M  END
>  <minimizedAffinity>  (24) 
-8.97836

$$$$
data/reference_output_2/data/smiles/96331.pdb
     RDKit          3D

 22 23  0  0  0  0  0  0  0  0999 V2000
   67.8509   43.9011   55.2867 N   0  0  0  0  0  0  0  0  0  0  0  0
   68.1851   45.2611   55.1090 C   0  0  0  0  0  0  0  0  0  0  0  0
   68.3924   45.9367   56.1439 O   0  0  0  0  0  0  0  0  0  0  0  0
   68.3014   45.9125   53.8088 C   0  0  0  0  0  0  0  0  0  0  0  0
   67.5588   45.4650   52.7293 C   0  0  0  0  0  0  0  0  0  0  0  0
   67.6408   46.0541   51.4840 C   0  0  0  0  0  0  0  0  0  0  0  0
   68.4838   47.1269   51.2788 C   0  0  0  0  0  0  0  0  0  0  0  0
   69.2359   47.6010   52.3183 C   0  0  0  0  0  0  0  0  0  0  0  0
   69.1331   46.9855   53.5711 C   0  0  0  0  0  0  0  0  0  0  0  0
   70.1003   48.7024   52.1058 N   0  0  0  0  0  0  0  0  0  0  0  0
   69.9339   49.5148   51.1750 O   0  0  0  0  0  0  0  0  0  0  0  0
   71.1585   48.8838   52.9545 O   0  0  0  0  0  0  0  0  0  0  0  0
   67.5280   41.8964   56.6419 C   0  0  0  0  0  0  0  0  0  0  0  0
   67.4397   41.2664   55.5319 O   0  0  0  0  0  0  0  0  0  0  0  0
   67.7464   43.2959   56.5654 N   0  0  0  0  0  0  0  0  0  0  0  0
   65.7533   41.5402   61.2220 C   0  0  0  0  0  0  0  0  0  0  0  0
   66.5378   40.9455   60.1143 C   0  0  0  0  0  0  0  0  0  0  0  0
   67.1396   39.7206   60.2014 C   0  0  0  0  0  0  0  0  0  0  0  0
   67.8653   39.1863   59.1569 C   0  0  0  0  0  0  0  0  0  0  0  0
   67.9927   39.9114   57.9763 C   0  0  0  0  0  0  0  0  0  0  0  0
   67.4007   41.1400   57.8615 C   0  0  0  0  0  0  0  0  0  0  0  0
   66.6844   41.6498   58.9139 C   0  0  0  0  0  0  0  0  0  0  0  0
 16 17  1  0
 17 18  2  0
 17 22  1  0
 18 19  1  0
 19 20  2  0
 20 21  1  0
 21 13  1  0
 21 22  2  0
 13 14  2  0
 13 15  1  0
 15  1  1  0
  1  2  1  0
  2  3  2  0
  2  4  1  0
  4  5  2  0
  4  9  1  0
  5  6  1  0
  6  7  2  0
  7  8  1  0
  8 10  1  0
  8  9  2  0
 10 11  2  0
 10 12  1  0
M  CHG  2  10   1  12  -1
M  END
>  <minimizedAffinity>  (25) 
-8.97105

$$$$
data/reference_output_2/data/smiles/133350.pdb
     RDKit          3D

 22 24  0  0  0  0  0  0  0  0999 V2000
   70.1846   44.9967   57.6555 C   0  0  0  0  0  0  0  0  0  0  0  0
   71.2235   45.2476   58.5655 C   0  0  0  0  0  0  0  0  0  0  0  0
   71.5889   46.5034   58.9328 C   0  0  0  0  0  0  0  0  0  0  0  0
   70.9343   47.5905   58.4102 C   0  0  0  0  0  0  0  0  0  0  0  0
   69.9166   47.3490   57.5214 C   0  0  0  0  0  0  0  0  0  0  0  0
   69.5252   46.0548   57.1327 C   0  0  0  0  0  0  0  0  0  0  0  0
   70.0132   43.5692   57.3106 C   0  0  0  0  0  0  0  0  0  0  0  0
   68.6932   43.0514   57.5076 N   0  0  0  0  0  0  0  0  0  0  0  0
   65.3517   41.5637   54.1442 N   0  0  0  0  0  0  0  0  0  0  0  0
   66.4409   41.5889   55.0785 C   0  0  0  0  0  0  0  0  0  0  0  0
   67.2838   40.5885   55.3911 N   0  0  0  0  0  0  0  0  0  0  0  0
   68.1585   41.0052   56.2880 N   0  0  0  0  0  0  0  0  0  0  0  0
   67.9017   42.3208   56.5903 C   0  0  0  0  0  0  0  0  0  0  0  0
   66.8580   42.6203   55.8349 N   0  0  0  0  0  0  0  0  0  0  0  0
   68.5055   45.9818   56.2619 O   0  0  0  0  0  0  0  0  0  0  0  0
   68.3873   46.1088   54.9375 C   0  0  0  0  0  0  0  0  0  0  0  0
   67.7764   45.2050   54.1224 C   0  0  0  0  0  0  0  0  0  0  0  0
   67.6874   45.4004   52.7450 C   0  0  0  0  0  0  0  0  0  0  0  0
   68.2302   46.5387   52.1992 C   0  0  0  0  0  0  0  0  0  0  0  0
   68.1405   46.7184   50.8480 F   0  0  0  0  0  0  0  0  0  0  0  0
   68.8570   47.4802   52.9850 C   0  0  0  0  0  0  0  0  0  0  0  0
   68.9263   47.2523   54.3404 C   0  0  0  0  0  0  0  0  0  0  0  0
  9 10  1  0
 10 11  2  0
 10 14  1  0
 11 12  1  0
 12 13  1  0
 13  8  1  0
 13 14  2  0
  8  7  1  0
  7  1  1  0
  1  2  2  0
  1  6  1  0
  2  3  1  0
  3  4  2  0
  4  5  1  0
  5  6  2  0
  6 15  1  0
 15 16  1  0
 16 17  2  0
 16 22  1  0
 17 18  1  0
 18 19  2  0
 19 20  1  0
 19 21  1  0
 21 22  2  0
M  END
>  <minimizedAffinity>  (26) 
-8.96674

$$$$
data/reference_output_2/data/smiles/105069.pdb
     RDKit          3D

 19 21  0  0  0  0  0  0  0  0999 V2000
   66.7534   45.3565   50.9717 N   0  0  0  0  0  0  0  0  0  0  0  0
   67.6557   46.1270   51.7354 C   0  0  0  0  0  0  0  0  0  0  0  0
   67.7166   46.0331   53.1106 C   0  0  0  0  0  0  0  0  0  0  0  0
   68.6011   46.7915   53.8345 C   0  0  0  0  0  0  0  0  0  0  0  0
   69.4360   47.6541   53.1603 C   0  0  0  0  0  0  0  0  0  0  0  0
   70.3943   48.5149   53.5516 N   0  0  0  0  0  0  0  0  0  0  0  0
   70.8849   49.0992   52.4511 N   0  0  0  0  0  0  0  0  0  0  0  0
   70.2918   48.6562   51.3782 N   0  0  0  0  0  0  0  0  0  0  0  0
   69.3745   47.7445   51.7924 C   0  0  0  0  0  0  0  0  0  0  0  0
   68.4980   46.9913   51.1104 N   0  0  0  0  0  0  0  0  0  0  0  0
   68.6454   46.6306   55.5836 S   0  0  0  0  0  0  0  0  0  0  0  0
   69.4337   47.9749   56.4586 C   0  0  0  0  0  0  0  0  0  0  0  0
   68.5372   49.0735   56.8235 C   0  0  0  0  0  0  0  0  0  0  0  0
   67.4492   48.8255   57.6403 C   0  0  0  0  0  0  0  0  0  0  0  0
   66.5545   49.8137   58.0150 C   0  0  0  0  0  0  0  0  0  0  0  0
   66.7977   51.0826   57.5302 C   0  0  0  0  0  0  0  0  0  0  0  0
   67.8860   51.3357   56.7122 C   0  0  0  0  0  0  0  0  0  0  0  0
   68.7696   50.3306   56.3487 C   0  0  0  0  0  0  0  0  0  0  0  0
   69.8378   50.6355   55.5392 F   0  0  0  0  0  0  0  0  0  0  0  0
  1  2  1  0
  2  3  2  0
  2 10  1  0
  3  4  1  0
  4 11  1  0
  4  5  2  0
 11 12  1  0
 12 13  1  0
 13 14  2  0
 13 18  1  0
 14 15  1  0
 15 16  2  0
 16 17  1  0
 17 18  2  0
 18 19  1  0
  5  6  1  0
  5  9  1  0
  6  7  2  0
  7  8  1  0
  8  9  1  0
  9 10  2  0
M  END
>  <minimizedAffinity>  (27) 
-8.95303

$$$$
data/reference_output_2/data/smiles/133313.pdb
     RDKit          3D

 20 22  0  0  0  0  0  0  0  0999 V2000
   66.6746   44.9041   50.8185 O   0  0  0  0  0  0  0  0  0  0  0  0
   67.3184   45.6974   51.5859 C   0  0  0  0  0  0  0  0  0  0  0  0
   68.1826   46.5652   51.0407 N   0  0  0  0  0  0  0  0  0  0  0  0
   68.8780   47.4177   51.8204 C   0  0  0  0  0  0  0  0  0  0  0  0
   69.6935   48.2353   51.3428 O   0  0  0  0  0  0  0  0  0  0  0  0
   68.6969   47.3924   53.1779 C   0  0  0  0  0  0  0  0  0  0  0  0
   69.4367   48.2857   53.9373 C   0  0  0  0  0  0  0  0  0  0  0  0
   69.1914   48.1843   55.3230 C   0  0  0  0  0  0  0  0  0  0  0  0
   68.2950   47.2735   55.8312 C   0  0  0  0  0  0  0  0  0  0  0  0
   68.1063   47.2197   57.0943 O   0  0  0  0  0  0  0  0  0  0  0  0
   67.6298   46.4595   55.0517 O   0  0  0  0  0  0  0  0  0  0  0  0
   67.7975   46.4878   53.7652 C   0  0  0  0  0  0  0  0  0  0  0  0
   67.1449   45.6739   52.9179 N   0  0  0  0  0  0  0  0  0  0  0  0
   70.3332   49.3028   53.5184 C   0  0  0  0  0  0  0  0  0  0  0  0
   69.5292   50.5661   53.2439 C   0  0  0  0  0  0  0  0  0  0  0  0
   69.6714   51.5290   54.3773 C   0  0  0  0  0  0  0  0  0  0  0  0
   68.6959   52.1114   55.1465 C   0  0  0  0  0  0  0  0  0  0  0  0
   69.0745   52.9449   56.1032 C   0  0  0  0  0  0  0  0  0  0  0  0
   70.4041   53.1988   56.2974 C   0  0  0  0  0  0  0  0  0  0  0  0
   71.1559   52.1546   54.9991 S   0  0  0  0  0  0  0  0  0  0  0  0
  1  2  2  0
  2  3  1  0
  2 13  1  0
  3  4  1  0
  4  5  2  0
  4  6  1  0
  6  7  1  0
  6 12  2  0
  7 14  1  0
  7  8  2  0
 14 15  1  0
 15 16  1  0
 16 17  2  0
 16 20  1  0
 17 18  1  0
 18 19  2  0
 19 20  1  0
  8  9  1  0
  9 10  2  0
  9 11  1  0
 11 12  1  0
 12 13  1  0
M  END
>  <minimizedAffinity>  (28) 
-8.93706

$$$$
data/reference_output_2/data/smiles/152902.pdb
     RDKit          3D

 22 24  0  0  0  0  0  0  0  0999 V2000
   71.4377   50.5292   54.5506 C   0  0  0  0  0  0  0  0  0  0  0  0
   72.5333   50.9829   54.2257 O   0  0  0  0  0  0  0  0  0  0  0  0
   70.3892   51.1330   55.3562 C   0  0  0  0  0  0  0  0  0  0  0  0
   70.2849   52.5348   55.3885 C   0  0  0  0  0  0  0  0  0  0  0  0
   69.3077   53.1335   56.1375 C   0  0  0  0  0  0  0  0  0  0  0  0
   68.4027   52.4065   56.8777 C   0  0  0  0  0  0  0  0  0  0  0  0
   68.4916   51.0296   56.8564 C   0  0  0  0  0  0  0  0  0  0  0  0
   67.5689   50.3419   57.6084 C   0  0  0  0  0  0  0  0  0  0  0  0
   67.6196   48.9645   57.6173 C   0  0  0  0  0  0  0  0  0  0  0  0
   68.5967   48.3482   56.8682 C   0  0  0  0  0  0  0  0  0  0  0  0
   69.5304   49.0465   56.1079 C   0  0  0  0  0  0  0  0  0  0  0  0
   69.4922   50.4215   56.0882 C   0  0  0  0  0  0  0  0  0  0  0  0
   71.2364   49.2220   54.0269 O   0  0  0  0  0  0  0  0  0  0  0  0
   71.2071   48.9638   52.6813 N   0  0  0  0  0  0  0  0  0  0  0  0
   69.7744   49.6710   51.0512 N   0  0  0  0  0  0  0  0  0  0  0  0
   70.0004   48.7792   51.9307 C   0  0  0  0  0  0  0  0  0  0  0  0
   69.1183   47.6488   52.1771 C   0  0  0  0  0  0  0  0  0  0  0  0
   68.8891   47.1222   53.4170 C   0  0  0  0  0  0  0  0  0  0  0  0
   68.0303   46.0310   53.6117 C   0  0  0  0  0  0  0  0  0  0  0  0
   67.3937   45.4652   52.5315 C   0  0  0  0  0  0  0  0  0  0  0  0
   67.6414   46.0143   51.2919 C   0  0  0  0  0  0  0  0  0  0  0  0
   68.4687   47.0604   51.1302 N   0  0  0  0  0  0  0  0  0  0  0  0
 15 16  2  0
 16 14  1  0
 16 17  1  0
 14 13  1  0
 13  1  1  0
  1  2  2  0
  1  3  1  0
  3  4  2  0
  3 12  1  0
  4  5  1  0
  5  6  2  0
  6  7  1  0
  7  8  1  0
  7 12  2  0
  8  9  2  0
  9 10  1  0
 10 11  2  0
 11 12  1  0
 17 18  2  0
 17 22  1  0
 18 19  1  0
 19 20  2  0
 20 21  1  0
 21 22  2  0
M  CHG  1  15   1
M  END
>  <minimizedAffinity>  (29) 
-8.93622

$$$$
data/200k_reference_output/data/smiles/33218.pdb
     RDKit          3D

 20 21  0  0  0  0  0  0  0  0999 V2000
   68.9659   47.0018   54.9115 C   0  0  0  0  0  0  0  0  0  0  0  0
   68.1367   46.0572   54.3308 C   0  0  0  0  0  0  0  0  0  0  0  0
   67.8880   46.0473   52.9620 C   0  0  0  0  0  0  0  0  0  0  0  0
   67.0531   45.0824   52.4271 O   0  0  0  0  0  0  0  0  0  0  0  0
   68.4840   47.0040   52.1628 C   0  0  0  0  0  0  0  0  0  0  0  0
   68.2173   46.9685   50.8022 O   0  0  0  0  0  0  0  0  0  0  0  0
   69.3214   47.9670   52.7136 C   0  0  0  0  0  0  0  0  0  0  0  0
   69.5279   47.9271   54.0639 C   0  0  0  0  0  0  0  0  0  0  0  0
   69.9053   48.9273   51.8406 N   0  0  0  0  0  0  0  0  0  0  0  0
   69.7051   50.1486   51.9720 O   0  0  0  0  0  0  0  0  0  0  0  0
   70.7154   48.4403   50.8229 O   0  0  0  0  0  0  0  0  0  0  0  0
   69.0000   45.9455   57.0118 O   0  0  0  0  0  0  0  0  0  0  0  0
   69.2161   46.9981   56.3468 C   0  0  0  0  0  0  0  0  0  0  0  0
   69.7184   48.2199   57.0175 C   0  0  0  0  0  0  0  0  0  0  0  0
   68.6412   49.2241   57.1894 C   0  0  0  0  0  0  0  0  0  0  0  0
   68.8182   50.5054   56.7282 C   0  0  0  0  0  0  0  0  0  0  0  0
   67.7915   51.4148   56.9061 C   0  0  0  0  0  0  0  0  0  0  0  0
   66.6089   51.0809   57.5252 C   0  0  0  0  0  0  0  0  0  0  0  0
   66.4229   49.7919   57.9934 C   0  0  0  0  0  0  0  0  0  0  0  0
   67.4578   48.8986   57.8069 C   0  0  0  0  0  0  0  0  0  0  0  0
 12 13  2  0
 13 14  1  0
 13  1  1  0
 14 15  1  0
 15 16  2  0
 15 20  1  0
 16 17  1  0
 17 18  2  0
 18 19  1  0
 19 20  2  0
  1  2  2  0
  1  8  1  0
  2  3  1  0
  3  4  1  0
  3  5  2  0
  5  6  1  0
  5  7  1  0
  7  9  1  0
  7  8  2  0
  9 10  2  0
  9 11  1  0
M  CHG  2   9   1  11  -1
M  END
>  <minimizedAffinity>  (30) 
-8.92138

$$$$
data/reference_output_2/data/smiles/127996.pdb
     RDKit          3D

 20 22  0  0  0  0  0  0  0  0999 V2000
   69.3359   47.9758   52.7146 C   0  0  0  0  0  0  0  0  0  0  0  0
   69.4691   47.9798   54.1056 C   0  0  0  0  0  0  0  0  0  0  0  0
   68.9695   46.9600   54.8853 C   0  0  0  0  0  0  0  0  0  0  0  0
   68.9821   46.7563   56.2469 C   0  0  0  0  0  0  0  0  0  0  0  0
   68.3314   45.5707   56.4135 N   0  0  0  0  0  0  0  0  0  0  0  0
   67.9504   45.0884   55.2425 N   0  0  0  0  0  0  0  0  0  0  0  0
   68.3294   45.9270   54.2658 C   0  0  0  0  0  0  0  0  0  0  0  0
   68.1818   45.8952   52.8779 C   0  0  0  0  0  0  0  0  0  0  0  0
   68.6851   46.9217   52.1062 C   0  0  0  0  0  0  0  0  0  0  0  0
   68.5357   46.8890   50.7132 O   0  0  0  0  0  0  0  0  0  0  0  0
   69.6223   50.4057   52.2943 N   0  0  0  0  0  0  0  0  0  0  0  0
   69.8684   49.0583   51.9174 C   0  0  0  0  0  0  0  0  0  0  0  0
   70.5452   48.7817   50.8950 O   0  0  0  0  0  0  0  0  0  0  0  0
   69.5670   47.6192   57.3063 C   0  0  0  0  0  0  0  0  0  0  0  0
   68.7896   48.8840   57.3759 C   0  0  0  0  0  0  0  0  0  0  0  0
   67.4530   48.8963   57.7075 C   0  0  0  0  0  0  0  0  0  0  0  0
   66.7357   50.0906   57.7692 C   0  0  0  0  0  0  0  0  0  0  0  0
   67.3376   51.3012   57.5021 C   0  0  0  0  0  0  0  0  0  0  0  0
   68.6767   51.2914   57.1702 C   0  0  0  0  0  0  0  0  0  0  0  0
   69.3915   50.0945   57.1088 C   0  0  0  0  0  0  0  0  0  0  0  0
 11 12  1  0
 12 13  2  0
 12  1  1  0
  1  2  2  0
  1  9  1  0
  2  3  1  0
  3  4  1  0
  3  7  2  0
  4 14  1  0
  4  5  2  0
 14 15  1  0
 15 16  2  0
 15 20  1  0
 16 17  1  0
 17 18  2  0
 18 19  1  0
 19 20  2  0
  5  6  1  0
  6  7  1  0
  7  8  1  0
  8  9  2  0
  9 10  1  0
M  END
>  <minimizedAffinity>  (31) 
-8.91133

$$$$
data/reference_output_2/data/smiles/180049.pdb
     RDKit          3D

 20 22  0  0  0  0  0  0  0  0999 V2000
   69.7964   48.6336   54.5018 N   0  0  0  0  0  0  0  0  0  0  0  0
   70.2991   49.4286   53.3888 C   0  0  0  0  0  0  0  0  0  0  0  0
   70.9772   50.4665   53.4791 O   0  0  0  0  0  0  0  0  0  0  0  0
   69.8843   48.8227   52.1412 C   0  0  0  0  0  0  0  0  0  0  0  0
   70.1386   49.2346   50.9852 O   0  0  0  0  0  0  0  0  0  0  0  0
   69.1140   47.6426   52.5221 C   0  0  0  0  0  0  0  0  0  0  0  0
   68.4630   46.7285   51.7326 C   0  0  0  0  0  0  0  0  0  0  0  0
   67.7401   45.6906   52.2730 C   0  0  0  0  0  0  0  0  0  0  0  0
   67.7012   45.6141   53.6459 C   0  0  0  0  0  0  0  0  0  0  0  0
   68.3451   46.5172   54.4844 C   0  0  0  0  0  0  0  0  0  0  0  0
   68.1855   46.4162   55.8036 F   0  0  0  0  0  0  0  0  0  0  0  0
   69.0750   47.5545   53.9241 C   0  0  0  0  0  0  0  0  0  0  0  0
   70.0058   49.0530   55.8689 C   0  0  0  0  0  0  0  0  0  0  0  0
   69.2113   51.9860   55.8169 C   0  0  0  0  0  0  0  0  0  0  0  0
   68.4532   50.9281   56.4649 C   0  0  0  0  0  0  0  0  0  0  0  0
   67.2701   51.3215   57.1225 C   0  0  0  0  0  0  0  0  0  0  0  0
   66.4955   50.4424   57.8434 C   0  0  0  0  0  0  0  0  0  0  0  0
   66.9299   49.1371   57.9003 C   0  0  0  0  0  0  0  0  0  0  0  0
   68.0771   48.7305   57.2691 C   0  0  0  0  0  0  0  0  0  0  0  0
   68.8721   49.6538   56.5197 C   0  0  0  0  0  0  0  0  0  0  0  0
 14 15  1  0
 15 16  2  0
 15 20  1  0
 16 17  1  0
 17 18  2  0
 18 19  1  0
 19 20  2  0
 20 13  1  0
 13  1  1  0
  1  2  1  0
  1 12  1  0
  2  3  2  0
  2  4  1  0
  4  5  2  0
  4  6  1  0
  6  7  1  0
  6 12  2  0
  7  8  2  0
  8  9  1  0
  9 10  2  0
 10 11  1  0
 10 12  1  0
M  END
>  <minimizedAffinity>  (32) 
-8.90474

$$$$
data/200k_reference_output/data/smiles/21154.pdb
     RDKit          3D

 21 23  0  0  0  0  0  0  0  0999 V2000
   70.2847   49.0445   50.9942 O   0  0  0  0  0  0  0  0  0  0  0  0
   69.9572   48.6759   52.1457 C   0  0  0  0  0  0  0  0  0  0  0  0
   70.3914   49.3371   53.3809 C   0  0  0  0  0  0  0  0  0  0  0  0
   71.1267   50.3388   53.4395 O   0  0  0  0  0  0  0  0  0  0  0  0
   69.8024   48.6095   54.4759 N   0  0  0  0  0  0  0  0  0  0  0  0
   69.0201   47.5269   53.9225 C   0  0  0  0  0  0  0  0  0  0  0  0
   68.2404   46.5318   54.4683 C   0  0  0  0  0  0  0  0  0  0  0  0
   67.5636   45.5880   53.6842 C   0  0  0  0  0  0  0  0  0  0  0  0
   67.6845   45.6640   52.3260 C   0  0  0  0  0  0  0  0  0  0  0  0
   67.0406   44.7640   51.5393 F   0  0  0  0  0  0  0  0  0  0  0  0
   68.4544   46.6456   51.7372 C   0  0  0  0  0  0  0  0  0  0  0  0
   69.1088   47.5594   52.5287 C   0  0  0  0  0  0  0  0  0  0  0  0
   69.9631   48.8778   55.8810 C   0  0  0  0  0  0  0  0  0  0  0  0
   68.8130   49.5646   56.5043 C   0  0  0  0  0  0  0  0  0  0  0  0
   68.4870   50.8881   56.3561 C   0  0  0  0  0  0  0  0  0  0  0  0
   69.2623   51.6692   55.5663 F   0  0  0  0  0  0  0  0  0  0  0  0
   67.3640   51.4513   56.9776 C   0  0  0  0  0  0  0  0  0  0  0  0
   66.5303   50.7068   57.7659 C   0  0  0  0  0  0  0  0  0  0  0  0
   66.8322   49.3858   57.9273 C   0  0  0  0  0  0  0  0  0  0  0  0
   67.9373   48.8316   57.3165 C   0  0  0  0  0  0  0  0  0  0  0  0
   68.1943   47.5068   57.4541 F   0  0  0  0  0  0  0  0  0  0  0  0
  1  2  2  0
  2  3  1  0
  2 12  1  0
  3  4  2  0
  3  5  1  0
  5 13  1  0
  5  6  1  0
 13 14  1  0
 14 15  2  0
 14 20  1  0
 15 16  1  0
 15 17  1  0
 17 18  2  0
 18 19  1  0
 19 20  2  0
 20 21  1  0
  6  7  2  0
  6 12  1  0
  7  8  1  0
  8  9  2  0
  9 10  1  0
  9 11  1  0
 11 12  2  0
M  END
>  <minimizedAffinity>  (33) 
-8.90386

$$$$
data/reference_output_2/data/smiles/146609.pdb
     RDKit          3D

 20 21  0  0  0  0  0  0  0  0999 V2000
   69.2655   47.7761   52.6873 C   0  0  0  0  0  0  0  0  0  0  0  0
   69.3807   47.7359   54.0806 C   0  0  0  0  0  0  0  0  0  0  0  0
   68.7204   46.8103   54.7948 N   0  0  0  0  0  0  0  0  0  0  0  0
   67.9474   45.9236   54.1544 C   0  0  0  0  0  0  0  0  0  0  0  0
   67.7958   45.9156   52.7817 C   0  0  0  0  0  0  0  0  0  0  0  0
   66.9991   45.0044   52.1031 O   0  0  0  0  0  0  0  0  0  0  0  0
   68.4690   46.8599   52.0477 C   0  0  0  0  0  0  0  0  0  0  0  0
   68.3325   46.8567   50.7796 O   0  0  0  0  0  0  0  0  0  0  0  0
   70.6322   48.4273   50.9097 O   0  0  0  0  0  0  0  0  0  0  0  0
   69.9819   48.7787   51.9193 C   0  0  0  0  0  0  0  0  0  0  0  0
   69.9711   50.1181   52.2673 O   0  0  0  0  0  0  0  0  0  0  0  0
   68.8214   46.7456   56.2369 C   0  0  0  0  0  0  0  0  0  0  0  0
   69.6914   47.8482   56.7931 C   0  0  0  0  0  0  0  0  0  0  0  0
   68.8228   49.0356   57.0224 C   0  0  0  0  0  0  0  0  0  0  0  0
   67.5674   48.8899   57.6002 C   0  0  0  0  0  0  0  0  0  0  0  0
   66.7548   49.9833   57.8164 C   0  0  0  0  0  0  0  0  0  0  0  0
   67.1426   51.2564   57.4746 C   0  0  0  0  0  0  0  0  0  0  0  0
   68.3922   51.4093   56.8989 C   0  0  0  0  0  0  0  0  0  0  0  0
   68.8967   53.0441   56.4567 Cl  0  0  0  0  0  0  0  0  0  0  0  0
   69.2059   50.3155   56.6819 C   0  0  0  0  0  0  0  0  0  0  0  0
  9 10  2  0
 10 11  1  0
 10  1  1  0
  1  2  2  0
  1  7  1  0
  2  3  1  0
  3 12  1  0
  3  4  1  0
 12 13  1  0
 13 14  1  0
 14 15  2  0
 14 20  1  0
 15 16  1  0
 16 17  2  0
 17 18  1  0
 18 19  1  0
 18 20  2  0
  4  5  2  0
  5  6  1  0
  5  7  1  0
  7  8  2  0
M  END
>  <minimizedAffinity>  (34) 
-8.90041

$$$$
data/reference_output_2/data/smiles/161504.pdb
     RDKit          3D

 21 22  0  0  0  0  0  0  0  0999 V2000
   69.5765   45.9086   57.3183 N   0  0  0  0  0  0  0  0  0  0  0  0
   69.2880   46.8910   57.1976 C   0  0  0  0  0  0  0  0  0  0  0  0
   69.4212   48.3668   57.4999 N   0  0  0  0  0  0  0  0  0  0  0  0
   73.0266   42.4641   58.1813 C   0  0  0  0  0  0  0  0  0  0  0  0
   71.6385   42.8959   57.8271 C   0  0  0  0  0  0  0  0  0  0  0  0
   70.6698   41.9173   57.6459 C   0  0  0  0  0  0  0  0  0  0  0  0
   69.3430   42.2900   57.3967 C   0  0  0  0  0  0  0  0  0  0  0  0
   68.2535   41.3208   57.1527 C   0  0  0  0  0  0  0  0  0  0  0  0
   69.1003   43.5843   57.3398 N   0  0  0  0  0  0  0  0  0  0  0  0
   69.9873   44.5819   57.4989 C   0  0  0  0  0  0  0  0  0  0  0  0
   71.2522   44.1750   57.7445 N   0  0  0  0  0  0  0  0  0  0  0  0
   68.0501   47.0528   56.1891 N   0  0  0  0  0  0  0  0  0  0  0  0
   68.3646   47.0248   54.8322 C   0  0  0  0  0  0  0  0  0  0  0  0
   67.7768   46.0294   54.0124 C   0  0  0  0  0  0  0  0  0  0  0  0
   68.0328   45.9685   52.6487 C   0  0  0  0  0  0  0  0  0  0  0  0
   68.8597   46.8689   52.0707 C   0  0  0  0  0  0  0  0  0  0  0  0
   69.4642   47.8624   52.8277 C   0  0  0  0  0  0  0  0  0  0  0  0
   69.1945   47.9133   54.2016 C   0  0  0  0  0  0  0  0  0  0  0  0
   70.3546   48.7791   52.2263 N   0  0  0  0  0  0  0  0  0  0  0  0
   71.3971   49.1145   52.8389 O   0  0  0  0  0  0  0  0  0  0  0  0
   70.0747   49.3035   50.9755 O   0  0  0  0  0  0  0  0  0  0  0  0
  4  5  1  0
  5  6  2  0
  5 11  1  0
  6  7  1  0
  7  8  1  0
  7  9  2  0
  9 10  1  0
 10  1  1  0
 10 11  2  0
  1  2  2  3
  2  3  1  0
  2 12  1  0
 12 13  1  0
 13 14  2  0
 13 18  1  0
 14 15  1  0
 15 16  2  0
 16 17  1  0
 17 19  1  0
 17 18  2  0
 19 20  2  0
 19 21  1  0
M  CHG  3   1   1  19   1  21  -1
M  END
>  <minimizedAffinity>  (35) 
-8.87476

$$$$
data/200k_reference_output/data/smiles/55147.pdb
     RDKit          3D

 21 23  0  0  0  0  0  0  0  0999 V2000
   71.5921   51.8152   55.8523 O   0  0  0  0  0  0  0  0  0  0  0  0
   71.3843   50.8829   55.0291 C   0  0  0  0  0  0  0  0  0  0  0  0
   72.1927   50.5058   54.0340 N   0  0  0  0  0  0  0  0  0  0  0  0
   71.6383   49.5119   53.4062 N   0  0  0  0  0  0  0  0  0  0  0  0
   70.4134   49.1799   53.9696 C   0  0  0  0  0  0  0  0  0  0  0  0
   70.2999   50.0452   54.9579 N   0  0  0  0  0  0  0  0  0  0  0  0
   69.5715   48.1420   53.4284 C   0  0  0  0  0  0  0  0  0  0  0  0
   68.7525   47.4307   54.3240 C   0  0  0  0  0  0  0  0  0  0  0  0
   67.8861   46.4515   53.9149 C   0  0  0  0  0  0  0  0  0  0  0  0
   67.7890   46.1278   52.5912 C   0  0  0  0  0  0  0  0  0  0  0  0
   66.9106   45.1302   52.1614 O   0  0  0  0  0  0  0  0  0  0  0  0
   68.5638   46.7932   51.6946 C   0  0  0  0  0  0  0  0  0  0  0  0
   69.4448   47.7943   52.1283 C   0  0  0  0  0  0  0  0  0  0  0  0
   70.1620   48.3940   51.1424 O   0  0  0  0  0  0  0  0  0  0  0  0
   69.2313   50.2329   55.8649 C   0  0  0  0  0  0  0  0  0  0  0  0
   69.1185   49.4536   56.9851 C   0  0  0  0  0  0  0  0  0  0  0  0
   68.1085   49.6725   57.8773 C   0  0  0  0  0  0  0  0  0  0  0  0
   67.1747   50.6729   57.6861 C   0  0  0  0  0  0  0  0  0  0  0  0
   67.3162   51.4392   56.5494 C   0  0  0  0  0  0  0  0  0  0  0  0
   68.3238   51.2403   55.6353 C   0  0  0  0  0  0  0  0  0  0  0  0
   68.4217   52.0346   54.5131 F   0  0  0  0  0  0  0  0  0  0  0  0
  1  2  2  0
  2  3  1  0
  2  6  1  0
  3  4  1  0
  4  5  2  0
  5  7  1  0
  5  6  1  0
  7  8  2  0
  7 13  1  0
  8  9  1  0
  9 10  2  0
 10 11  1  0
 10 12  1  0
 12 13  2  0
 13 14  1  0
  6 15  1  0
 15 16  2  0
 15 20  1  0
 16 17  1  0
 17 18  2  0
 18 19  1  0
 19 20  2  0
 20 21  1  0
M  END
>  <minimizedAffinity>  (36) 
-8.87276

$$$$
data/200k_reference_output/data/smiles/12433.pdb
     RDKit          3D

 22 24  0  0  0  0  0  0  0  0999 V2000
   69.0317   47.4532   54.0113 C   0  0  0  0  0  0  0  0  0  0  0  0
   68.3441   46.3086   53.7277 C   0  0  0  0  0  0  0  0  0  0  0  0
   68.0101   45.4111   54.7237 C   0  0  0  0  0  0  0  0  0  0  0  0
   68.3864   45.6966   56.0050 N   0  0  0  0  0  0  0  0  0  0  0  0
   69.0586   46.8113   56.2983 C   0  0  0  0  0  0  0  0  0  0  0  0
   69.3607   47.6544   55.3023 N   0  0  0  0  0  0  0  0  0  0  0  0
   70.0166   47.0701   51.1151 O   0  0  0  0  0  0  0  0  0  0  0  0
   69.8500   48.1870   51.7085 C   0  0  0  0  0  0  0  0  0  0  0  0
   70.1025   49.3682   51.1158 N   0  0  0  0  0  0  0  0  0  0  0  0
   69.8383   50.3553   51.9801 N   0  0  0  0  0  0  0  0  0  0  0  0
   69.4172   49.8114   53.1263 C   0  0  0  0  0  0  0  0  0  0  0  0
   69.4127   48.4224   52.9894 C   0  0  0  0  0  0  0  0  0  0  0  0
   69.4706   47.1228   57.5907 N   0  0  0  0  0  0  0  0  0  0  0  0
   70.6543   47.8091   57.9995 C   0  0  0  0  0  0  0  0  0  0  0  0
   70.4686   49.1059   58.6955 C   0  0  0  0  0  0  0  0  0  0  0  0
   69.6740   50.0343   57.8557 C   0  0  0  0  0  0  0  0  0  0  0  0
   70.2350   50.7728   56.8399 C   0  0  0  0  0  0  0  0  0  0  0  0
   69.4714   51.6186   56.0591 C   0  0  0  0  0  0  0  0  0  0  0  0
   68.1230   51.7468   56.2733 C   0  0  0  0  0  0  0  0  0  0  0  0
   67.5129   51.0165   57.2888 C   0  0  0  0  0  0  0  0  0  0  0  0
   66.1486   51.1641   57.4804 O   0  0  0  0  0  0  0  0  0  0  0  0
   68.3014   50.1890   58.0455 C   0  0  0  0  0  0  0  0  0  0  0  0
  7  8  2  0
  8  9  1  0
  8 12  1  0
  9 10  1  0
 10 11  1  0
 11 12  2  0
 12  1  1  0
  1  2  2  0
  1  6  1  0
  2  3  1  0
  3  4  2  0
  4  5  1  0
  5 13  1  0
  5  6  2  0
 13 14  1  0
 14 15  1  0
 15 16  1  0
 16 17  2  0
 16 22  1  0
 17 18  1  0
 18 19  2  0
 19 20  1  0
 20 21  1  0
 20 22  2  0
M  END
>  <minimizedAffinity>  (37) 
-8.86944

$$$$
data/reference_output_2/data/smiles/175707.pdb
     RDKit          3D

 21 24  0  0  0  0  0  0  0  0999 V2000
   70.4257   49.0522   50.9672 O   0  0  0  0  0  0  0  0  0  0  0  0
   69.9597   48.6884   52.2255 C   0  0  0  0  0  0  0  0  0  0  0  0
   70.3587   49.3303   53.3733 C   0  0  0  0  0  0  0  0  0  0  0  0
   69.8637   48.9258   54.5794 C   0  0  0  0  0  0  0  0  0  0  0  0
   68.9439   47.8643   54.7333 C   0  0  0  0  0  0  0  0  0  0  0  0
   68.5841   47.2605   53.5603 C   0  0  0  0  0  0  0  0  0  0  0  0
   67.7147   46.2046   53.6063 C   0  0  0  0  0  0  0  0  0  0  0  0
   67.3194   45.5391   52.4675 C   0  0  0  0  0  0  0  0  0  0  0  0
   67.8061   45.9375   51.2405 C   0  0  0  0  0  0  0  0  0  0  0  0
   68.6557   46.9708   51.2222 N   0  0  0  0  0  0  0  0  0  0  0  0
   69.0595   47.6390   52.3236 C   0  0  0  0  0  0  0  0  0  0  0  0
   68.4512   47.5882   56.0881 C   0  0  0  0  0  0  0  0  0  0  0  0
   69.1077   46.4851   56.7640 N   0  0  0  0  0  0  0  0  0  0  0  0
   68.7678   45.1997   56.5160 N   0  0  0  0  0  0  0  0  0  0  0  0
   69.5278   44.3660   57.1580 N   0  0  0  0  0  0  0  0  0  0  0  0
   70.4289   45.0843   57.8807 C   0  0  0  0  0  0  0  0  0  0  0  0
   71.4396   44.7028   58.7468 C   0  0  0  0  0  0  0  0  0  0  0  0
   72.1980   45.6508   59.3853 C   0  0  0  0  0  0  0  0  0  0  0  0
   71.8984   46.9672   59.1157 C   0  0  0  0  0  0  0  0  0  0  0  0
   70.8946   47.3500   58.2526 C   0  0  0  0  0  0  0  0  0  0  0  0
   70.1275   46.4074   57.6029 C   0  0  0  0  0  0  0  0  0  0  0  0
  1  2  1  0
  2  3  2  0
  2 11  1  0
  3  4  1  0
  4  5  2  0
  5 12  1  0
  5  6  1  0
 12 13  1  0
 13 14  1  0
 13 21  1  0
 14 15  2  0
 15 16  1  0
 16 17  1  0
 16 21  2  0
 17 18  2  0
 18 19  1  0
 19 20  2  0
 20 21  1  0
  6  7  1  0
  6 11  2  0
  7  8  2  0
  8  9  1  0
  9 10  2  0
 10 11  1  0
M  END
>  <minimizedAffinity>  (38) 
-8.86911

$$$$
data/200k_reference_output/data/smiles/1912.pdb
     RDKit          3D

 22 24  0  0  0  0  0  0  0  0999 V2000
   68.5632   44.8792   55.5033 N   0  0  0  0  0  0  0  0  0  0  0  0
   68.2391   45.0165   54.2101 C   0  0  0  0  0  0  0  0  0  0  0  0
   68.3255   46.2429   53.5530 C   0  0  0  0  0  0  0  0  0  0  0  0
   68.7481   47.3743   54.1990 C   0  0  0  0  0  0  0  0  0  0  0  0
   68.8462   48.6160   53.6008 C   0  0  0  0  0  0  0  0  0  0  0  0
   69.2746   49.7366   54.3021 C   0  0  0  0  0  0  0  0  0  0  0  0
   69.6013   49.5626   55.6279 C   0  0  0  0  0  0  0  0  0  0  0  0
   69.5076   48.3262   56.2408 C   0  0  0  0  0  0  0  0  0  0  0  0
   69.0846   47.2299   55.5418 C   0  0  0  0  0  0  0  0  0  0  0  0
   68.9796   45.9770   56.1503 C   0  0  0  0  0  0  0  0  0  0  0  0
   69.2948   45.8923   57.3673 O   0  0  0  0  0  0  0  0  0  0  0  0
   68.1188   39.7617   58.0552 C   0  0  0  0  0  0  0  0  0  0  0  0
   68.2321   41.0868   57.3923 C   0  0  0  0  0  0  0  0  0  0  0  0
   69.2917   41.9232   57.6759 C   0  0  0  0  0  0  0  0  0  0  0  0
   69.3921   43.1545   57.0599 C   0  0  0  0  0  0  0  0  0  0  0  0
   68.4652   43.6094   56.1471 C   0  0  0  0  0  0  0  0  0  0  0  0
   67.4034   42.7653   55.8653 C   0  0  0  0  0  0  0  0  0  0  0  0
   67.2964   41.5282   56.4814 C   0  0  0  0  0  0  0  0  0  0  0  0
   67.9549   46.3074   52.1527 C   0  0  0  0  0  0  0  0  0  0  0  0
   68.5730   47.0711   51.1508 N   0  0  0  0  0  0  0  0  0  0  0  0
   66.9365   45.5271   51.8382 N   0  0  0  0  0  0  0  0  0  0  0  0
   66.5328   45.5405   50.5252 O   0  0  0  0  0  0  0  0  0  0  0  0
 12 13  1  0
 13 14  2  0
 13 18  1  0
 14 15  1  0
 15 16  2  0
 16  1  1  0
 16 17  1  0
  1  2  1  0
  1 10  1  0
  2  3  2  0
  3 19  1  0
  3  4  1  0
 19 20  1  0
 19 21  2  0
 21 22  1  0
  4  5  2  0
  4  9  1  0
  5  6  1  0
  6  7  2  0
  7  8  1  0
  8  9  2  0
  9 10  1  0
 10 11  2  0
 17 18  2  0
M  CHG  1  21   1
M  END
>  <minimizedAffinity>  (39) 
-8.86698

$$$$
data/200k_reference_output/data/smiles/4731.pdb
     RDKit          3D

 20 22  0  0  0  0  0  0  0  0999 V2000
   69.4437   48.3082   53.9800 C   0  0  0  0  0  0  0  0  0  0  0  0
   69.2595   48.1152   55.3517 C   0  0  0  0  0  0  0  0  0  0  0  0
   68.4130   47.1183   55.7867 C   0  0  0  0  0  0  0  0  0  0  0  0
   68.2187   46.9105   57.0319 O   0  0  0  0  0  0  0  0  0  0  0  0
   67.7666   46.3364   54.9663 O   0  0  0  0  0  0  0  0  0  0  0  0
   67.8923   46.4655   53.6761 C   0  0  0  0  0  0  0  0  0  0  0  0
   67.2057   45.6414   52.8562 N   0  0  0  0  0  0  0  0  0  0  0  0
   67.3130   45.7582   51.5236 C   0  0  0  0  0  0  0  0  0  0  0  0
   66.6662   44.9821   50.7626 O   0  0  0  0  0  0  0  0  0  0  0  0
   68.1214   46.7148   51.0184 N   0  0  0  0  0  0  0  0  0  0  0  0
   68.8116   47.5391   51.8150 C   0  0  0  0  0  0  0  0  0  0  0  0
   69.5577   48.4317   51.3407 O   0  0  0  0  0  0  0  0  0  0  0  0
   68.7311   47.4512   53.1740 C   0  0  0  0  0  0  0  0  0  0  0  0
   70.3794   49.2910   53.5530 C   0  0  0  0  0  0  0  0  0  0  0  0
   70.5644   50.4016   54.5733 C   0  0  0  0  0  0  0  0  0  0  0  0
   69.4187   51.2956   54.7610 C   0  0  0  0  0  0  0  0  0  0  0  0
   69.3643   53.2928   56.2199 C   0  0  0  0  0  0  0  0  0  0  0  0
   68.9442   51.7831   56.0510 C   0  0  0  0  0  0  0  0  0  0  0  0
   67.8302   51.4306   56.8953 C   0  0  0  0  0  0  0  0  0  0  0  0
   69.2525   51.0629   57.3305 C   0  0  0  0  0  0  0  0  0  0  0  0
 17 18  1  0
 18 16  1  0
 18 19  1  0
 18 20  1  0
 16 15  1  0
 15 14  1  0
 14  1  1  0
  1  2  2  0
  1 13  1  0
  2  3  1  0
  3  4  2  0
  3  5  1  0
  5  6  1  0
  6  7  1  0
  6 13  2  0
  7  8  1  0
  8  9  2  0
  8 10  1  0
 10 11  1  0
 11 12  2  0
 11 13  1  0
 19 20  1  0
M  END
>  <minimizedAffinity>  (40) 
-8.85963

$$$$
data/reference_output_2/data/smiles/106134.pdb
     RDKit          3D

 19 20  0  0  0  0  0  0  0  0999 V2000
   69.2632   47.7714   52.6578 C   0  0  0  0  0  0  0  0  0  0  0  0
   69.4522   47.7806   54.0382 C   0  0  0  0  0  0  0  0  0  0  0  0
   68.8119   46.8548   54.8530 C   0  0  0  0  0  0  0  0  0  0  0  0
   67.9790   45.9173   54.2776 C   0  0  0  0  0  0  0  0  0  0  0  0
   67.7976   45.9158   52.9068 C   0  0  0  0  0  0  0  0  0  0  0  0
   66.9531   44.9600   52.3575 O   0  0  0  0  0  0  0  0  0  0  0  0
   68.4314   46.8342   52.0887 C   0  0  0  0  0  0  0  0  0  0  0  0
   68.2627   46.8500   50.7126 O   0  0  0  0  0  0  0  0  0  0  0  0
   70.6244   48.2784   50.8918 O   0  0  0  0  0  0  0  0  0  0  0  0
   69.9040   48.7030   51.8063 N   0  0  0  0  0  0  0  0  0  0  0  0
   69.7572   50.0519   51.9583 O   0  0  0  0  0  0  0  0  0  0  0  0
   68.9964   46.8426   56.3245 C   0  0  0  0  0  0  0  0  0  0  0  0
   69.5912   48.1252   56.8374 C   0  0  0  0  0  0  0  0  0  0  0  0
   68.5962   49.1855   57.0663 C   0  0  0  0  0  0  0  0  0  0  0  0
   67.4538   48.8748   57.7651 C   0  0  0  0  0  0  0  0  0  0  0  0
   66.4853   49.8254   58.0099 C   0  0  0  0  0  0  0  0  0  0  0  0
   66.7024   51.1175   57.5235 C   0  0  0  0  0  0  0  0  0  0  0  0
   67.8467   51.4329   56.8220 C   0  0  0  0  0  0  0  0  0  0  0  0
   68.7959   50.4713   56.5905 C   0  0  0  0  0  0  0  0  0  0  0  0
  9 10  2  0
 10 11  1  0
 10  1  1  0
  1  2  2  0
  1  7  1  0
  2  3  1  0
  3 12  1  0
  3  4  2  0
 12 13  1  0
 13 14  1  0
 14 15  2  0
 14 19  1  0
 15 16  1  0
 16 17  2  0
 17 18  1  0
 18 19  2  0
  4  5  1  0
  5  6  1  0
  5  7  2  0
  7  8  1  0
M  CHG  2  10   1  11  -1
M  END
>  <minimizedAffinity>  (41) 
-8.83793

$$$$
data/200k_reference_output/data/smiles/19248.pdb
     RDKit          3D

 19 20  0  0  0  0  0  0  0  0999 V2000
   69.4929   48.3371   54.0455 C   0  0  0  0  0  0  0  0  0  0  0  0
   69.2217   48.0857   55.4084 C   0  0  0  0  0  0  0  0  0  0  0  0
   68.3569   47.1452   55.8547 C   0  0  0  0  0  0  0  0  0  0  0  0
   68.1874   47.0022   57.0924 O   0  0  0  0  0  0  0  0  0  0  0  0
   67.7107   46.3974   55.0033 O   0  0  0  0  0  0  0  0  0  0  0  0
   67.8767   46.5317   53.7240 C   0  0  0  0  0  0  0  0  0  0  0  0
   67.1899   45.7312   52.8781 N   0  0  0  0  0  0  0  0  0  0  0  0
   67.3339   45.8261   51.5419 C   0  0  0  0  0  0  0  0  0  0  0  0
   66.6886   45.0757   50.7641 O   0  0  0  0  0  0  0  0  0  0  0  0
   68.1827   46.7391   51.0526 N   0  0  0  0  0  0  0  0  0  0  0  0
   68.8871   47.5606   51.8843 C   0  0  0  0  0  0  0  0  0  0  0  0
   69.6684   48.3931   51.4181 O   0  0  0  0  0  0  0  0  0  0  0  0
   68.7529   47.4826   53.2355 C   0  0  0  0  0  0  0  0  0  0  0  0
   70.4008   49.3678   53.6256 C   0  0  0  0  0  0  0  0  0  0  0  0
   70.3073   50.7716   54.0808 C   0  0  0  0  0  0  0  0  0  0  0  0
   68.9989   51.3811   54.3104 C   0  0  0  0  0  0  0  0  0  0  0  0
   68.0600   51.4665   56.5427 C   0  0  0  0  0  0  0  0  0  0  0  0
   68.6744   52.2954   55.3798 C   0  0  0  0  0  0  0  0  0  0  0  0
   69.7657   53.1099   55.9877 C   0  0  0  0  0  0  0  0  0  0  0  0
 17 18  1  0
 18 19  1  0
 18 16  1  0
 16 15  1  0
 15 14  1  0
 14  1  1  0
  1  2  2  0
  1 13  1  0
  2  3  1  0
  3  4  2  0
  3  5  1  0
  5  6  1  0
  6  7  1  0
  6 13  2  0
  7  8  1  0
  8  9  2  0
  8 10  1  0
 10 11  1  0
 11 12  2  0
 11 13  1  0
M  END
>  <minimizedAffinity>  (42) 
-8.83738

$$$$
data/reference_output_2/data/smiles/108201.pdb
     RDKit          3D

 22 24  0  0  0  0  0  0  0  0999 V2000
   71.1820   50.2723   54.9258 C   0  0  0  0  0  0  0  0  0  0  0  0
   72.1005   49.6240   55.5871 O   0  0  0  0  0  0  0  0  0  0  0  0
   70.1716   50.9635   55.6718 C   0  0  0  0  0  0  0  0  0  0  0  0
   70.2015   52.3581   55.6817 C   0  0  0  0  0  0  0  0  0  0  0  0
   69.2366   53.0886   56.3784 C   0  0  0  0  0  0  0  0  0  0  0  0
   68.2595   52.4297   57.0515 C   0  0  0  0  0  0  0  0  0  0  0  0
   68.2014   51.0375   57.0616 C   0  0  0  0  0  0  0  0  0  0  0  0
   67.1877   50.4306   57.7663 C   0  0  0  0  0  0  0  0  0  0  0  0
   67.1053   49.0601   57.7968 C   0  0  0  0  0  0  0  0  0  0  0  0
   68.0466   48.3380   57.1183 C   0  0  0  0  0  0  0  0  0  0  0  0
   69.0596   48.9616   56.4144 C   0  0  0  0  0  0  0  0  0  0  0  0
   69.1782   50.3360   56.3574 C   0  0  0  0  0  0  0  0  0  0  0  0
   71.3769   50.1569   53.5771 O   0  0  0  0  0  0  0  0  0  0  0  0
   71.2400   48.9698   52.9037 N   0  0  0  0  0  0  0  0  0  0  0  0
   69.8522   49.3942   51.1266 N   0  0  0  0  0  0  0  0  0  0  0  0
   70.0773   48.7108   52.0756 C   0  0  0  0  0  0  0  0  0  0  0  0
   69.1823   47.5760   52.4527 C   0  0  0  0  0  0  0  0  0  0  0  0
   69.0161   47.2134   53.7625 C   0  0  0  0  0  0  0  0  0  0  0  0
   68.1592   46.1430   54.0983 C   0  0  0  0  0  0  0  0  0  0  0  0
   67.5212   45.4967   53.1131 N   0  0  0  0  0  0  0  0  0  0  0  0
   67.6522   45.8130   51.8247 C   0  0  0  0  0  0  0  0  0  0  0  0
   68.5086   46.8855   51.4844 C   0  0  0  0  0  0  0  0  0  0  0  0
 15 16  2  0
 16 14  1  0
 16 17  1  0
 14 13  1  0
 13  1  1  0
  1  2  2  0
  1  3  1  0
  3  4  2  0
  3 12  1  0
  4  5  1  0
  5  6  2  0
  6  7  1  0
  7  8  1  0
  7 12  2  0
  8  9  2  0
  9 10  1  0
 10 11  2  0
 11 12  1  0
 17 18  2  0
 17 22  1  0
 18 19  1  0
 19 20  2  0
 20 21  1  0
 21 22  2  0
M  CHG  1  15   1
M  END
>  <minimizedAffinity>  (43) 
-8.83050

$$$$
data/reference_output_2/data/smiles/197687.pdb
     RDKit          3D

 20 22  0  0  0  0  0  0  0  0999 V2000
   69.9665   48.5075   54.8531 C   0  0  0  0  0  0  0  0  0  0  0  0
   70.8618   49.3626   54.2857 N   0  0  0  0  0  0  0  0  0  0  0  0
   71.0295   49.4000   52.9825 N   0  0  0  0  0  0  0  0  0  0  0  0
   70.3294   48.6015   52.1616 C   0  0  0  0  0  0  0  0  0  0  0  0
   70.5321   48.6815   50.9218 O   0  0  0  0  0  0  0  0  0  0  0  0
   69.4110   47.7133   52.6530 C   0  0  0  0  0  0  0  0  0  0  0  0
   68.6864   46.8736   51.8496 C   0  0  0  0  0  0  0  0  0  0  0  0
   67.7664   45.9692   52.3937 C   0  0  0  0  0  0  0  0  0  0  0  0
   67.5856   45.9211   53.7493 C   0  0  0  0  0  0  0  0  0  0  0  0
   68.3324   46.7822   54.5446 C   0  0  0  0  0  0  0  0  0  0  0  0
   69.2448   47.6852   54.0422 C   0  0  0  0  0  0  0  0  0  0  0  0
   69.8137   48.5679   56.2976 C   0  0  0  0  0  0  0  0  0  0  0  0
   68.4941   50.6544   56.6844 C   0  0  0  0  0  0  0  0  0  0  0  0
   67.4171   51.3264   57.1725 C   0  0  0  0  0  0  0  0  0  0  0  0
   66.3917   50.6368   57.8221 C   0  0  0  0  0  0  0  0  0  0  0  0
   66.4926   49.2761   57.9553 C   0  0  0  0  0  0  0  0  0  0  0  0
   67.6065   48.6141   57.4467 C   0  0  0  0  0  0  0  0  0  0  0  0
   68.6285   49.2643   56.8041 C   0  0  0  0  0  0  0  0  0  0  0  0
   69.1831   52.3640   55.0965 C   0  0  0  0  0  0  0  0  0  0  0  0
   69.5335   51.3377   56.0301 O   0  0  0  0  0  0  0  0  0  0  0  0
 19 20  1  0
 20 13  1  0
 13 14  2  0
 13 18  1  0
 14 15  1  0
 15 16  2  0
 16 17  1  0
 17 18  2  0
 18 12  1  0
 12  1  1  0
  1  2  2  0
  1 11  1  0
  2  3  1  0
  3  4  1  0
  4  5  2  0
  4  6  1  0
  6  7  1  0
  6 11  2  0
  7  8  2  0
  8  9  1  0
  9 10  2  0
 10 11  1  0
M  END
>  <minimizedAffinity>  (44) 
-8.81990

$$$$
data/reference_output_2/data/smiles/194288.pdb
     RDKit          3D

 20 21  0  0  0  0  0  0  0  0999 V2000
   68.5899   47.2251   55.0622 C   0  0  0  0  0  0  0  0  0  0  0  0
   67.8079   46.3107   54.3951 C   0  0  0  0  0  0  0  0  0  0  0  0
   67.8522   46.1918   53.0087 C   0  0  0  0  0  0  0  0  0  0  0  0
   67.0421   45.2500   52.3512 O   0  0  0  0  0  0  0  0  0  0  0  0
   68.6904   46.9959   52.2581 C   0  0  0  0  0  0  0  0  0  0  0  0
   68.7254   46.8652   50.8631 O   0  0  0  0  0  0  0  0  0  0  0  0
   69.4770   47.9121   52.9171 C   0  0  0  0  0  0  0  0  0  0  0  0
   69.4161   48.0137   54.2976 C   0  0  0  0  0  0  0  0  0  0  0  0
   70.3466   48.7512   52.1797 N   0  0  0  0  0  0  0  0  0  0  0  0
   70.0555   49.2513   51.0791 O   0  0  0  0  0  0  0  0  0  0  0  0
   71.5818   49.0194   52.7206 O   0  0  0  0  0  0  0  0  0  0  0  0
   67.4006   47.6033   57.0380 O   0  0  0  0  0  0  0  0  0  0  0  0
   68.5183   47.3228   56.5092 C   0  0  0  0  0  0  0  0  0  0  0  0
   69.6774   47.1122   57.3588 C   0  0  0  0  0  0  0  0  0  0  0  0
   70.3119   48.1581   57.9914 C   0  0  0  0  0  0  0  0  0  0  0  0
   71.4259   47.9527   58.8038 C   0  0  0  0  0  0  0  0  0  0  0  0
   71.9380   46.6916   59.0077 C   0  0  0  0  0  0  0  0  0  0  0  0
   71.3058   45.6433   58.3762 C   0  0  0  0  0  0  0  0  0  0  0  0
   70.1932   45.8529   57.5657 C   0  0  0  0  0  0  0  0  0  0  0  0
   69.5671   44.8108   56.9395 F   0  0  0  0  0  0  0  0  0  0  0  0
 12 13  2  0
 13  1  1  0
 13 14  1  0
  1  2  2  0
  1  8  1  0
  2  3  1  0
  3  4  1  0
  3  5  2  0
  5  6  1  0
  5  7  1  0
  7  9  1  0
  7  8  2  0
  9 10  2  0
  9 11  1  0
 14 15  2  0
 14 19  1  0
 15 16  1  0
 16 17  2  0
 17 18  1  0
 18 19  2  0
 19 20  1  0
M  CHG  2   9   1  11  -1
M  END
>  <minimizedAffinity>  (45) 
-8.80587

$$$$
data/200k_reference_output/data/smiles/12007.pdb
     RDKit          3D

 20 21  0  0  0  0  0  0  0  0999 V2000
   70.0354   49.2603   52.4426 S   0  0  0  0  0  0  0  0  0  0  0  0
   70.2580   49.2335   50.9462 O   0  0  0  0  0  0  0  0  0  0  0  0
   71.3831   49.2622   53.1543 O   0  0  0  0  0  0  0  0  0  0  0  0
   69.2048   47.7935   52.8867 C   0  0  0  0  0  0  0  0  0  0  0  0
   68.5492   47.0771   51.8892 C   0  0  0  0  0  0  0  0  0  0  0  0
   67.8471   45.9217   52.1467 C   0  0  0  0  0  0  0  0  0  0  0  0
   67.7688   45.4311   53.4150 C   0  0  0  0  0  0  0  0  0  0  0  0
   68.4024   46.1084   54.4333 C   0  0  0  0  0  0  0  0  0  0  0  0
   69.1090   47.2778   54.1502 C   0  0  0  0  0  0  0  0  0  0  0  0
   68.3190   45.5955   55.7510 N   0  0  0  0  0  0  0  0  0  0  0  0
   68.4645   46.3674   56.7074 O   0  0  0  0  0  0  0  0  0  0  0  0
   68.0825   44.2706   56.0035 O   0  0  0  0  0  0  0  0  0  0  0  0
   69.1438   50.6202   52.9250 N   0  0  0  0  0  0  0  0  0  0  0  0
   67.9926   49.7459   57.5942 C   0  0  0  0  0  0  0  0  0  0  0  0
   68.4183   50.6751   56.5155 C   0  0  0  0  0  0  0  0  0  0  0  0
   68.6448   51.9889   56.8695 C   0  0  0  0  0  0  0  0  0  0  0  0
   69.0433   52.8977   55.9016 C   0  0  0  0  0  0  0  0  0  0  0  0
   69.2024   52.4366   54.5869 C   0  0  0  0  0  0  0  0  0  0  0  0
   68.9754   51.1274   54.2377 C   0  0  0  0  0  0  0  0  0  0  0  0
   68.5854   50.2982   55.2505 N   0  0  0  0  0  0  0  0  0  0  0  0
 14 15  1  0
 15 16  2  0
 15 20  1  0
 16 17  1  0
 17 18  2  0
 18 19  1  0
 19 13  1  0
 19 20  2  0
 13  1  1  0
  1  2  2  0
  1  3  2  0
  1  4  1  0
  4  5  2  0
  4  9  1  0
  5  6  1  0
  6  7  2  0
  7  8  1  0
  8 10  1  0
  8  9  2  0
 10 11  2  0
 10 12  1  0
M  CHG  2  10   1  12  -1
M  END
>  <minimizedAffinity>  (46) 
-8.80579

$$$$
data/200k_reference_output/data/smiles/57603.pdb
     RDKit          3D

 21 22  0  0  0  0  0  0  0  0999 V2000
   68.2617   45.4063   55.2144 C   0  0  0  0  0  0  0  0  0  0  0  0
   67.9980   44.1372   55.4135 N   0  0  0  0  0  0  0  0  0  0  0  0
   69.2363   47.6272   52.3059 C   0  0  0  0  0  0  0  0  0  0  0  0
   68.4588   47.0579   51.3233 C   0  0  0  0  0  0  0  0  0  0  0  0
   67.6254   45.9797   51.5621 C   0  0  0  0  0  0  0  0  0  0  0  0
   67.5862   45.4714   52.8354 C   0  0  0  0  0  0  0  0  0  0  0  0
   68.3375   45.9889   53.8719 C   0  0  0  0  0  0  0  0  0  0  0  0
   69.1472   47.0601   53.5762 C   0  0  0  0  0  0  0  0  0  0  0  0
   71.0983   48.9164   52.7997 O   0  0  0  0  0  0  0  0  0  0  0  0
   70.1100   48.7614   52.0435 C   0  0  0  0  0  0  0  0  0  0  0  0
   69.9052   49.6619   51.0146 O   0  0  0  0  0  0  0  0  0  0  0  0
   67.9096   43.5319   56.5568 O   0  0  0  0  0  0  0  0  0  0  0  0
   68.4004   42.4275   57.1142 C   0  0  0  0  0  0  0  0  0  0  0  0
   67.7827   41.2153   56.7293 C   0  0  0  0  0  0  0  0  0  0  0  0
   68.1726   39.9972   57.2133 C   0  0  0  0  0  0  0  0  0  0  0  0
   69.2131   39.9419   58.1153 C   0  0  0  0  0  0  0  0  0  0  0  0
   69.8168   41.1141   58.4920 C   0  0  0  0  0  0  0  0  0  0  0  0
   69.4319   42.3717   58.0080 C   0  0  0  0  0  0  0  0  0  0  0  0
   70.1641   43.5577   58.4905 C   0  0  0  0  0  0  0  0  0  0  0  0
   69.7219   44.5026   59.1279 O   0  0  0  0  0  0  0  0  0  0  0  0
   71.5369   43.6238   58.1909 O   0  0  0  0  0  0  0  0  0  0  0  0
  9 10  2  0
 10 11  1  0
 10  3  1  0
  3  4  2  0
  3  8  1  0
  4  5  1  0
  5  6  2  0
  6  7  1  0
  7  1  1  0
  7  8  2  0
  1  2  2  0
  2 12  1  0
 12 13  1  0
 13 14  2  0
 13 18  1  0
 14 15  1  0
 15 16  2  0
 16 17  1  0
 17 18  2  0
 18 19  1  0
 19 20  2  0
 19 21  1  0
M  END
>  <minimizedAffinity>  (47) 
-8.79701

$$$$
data/200k_reference_output/data/smiles/25288.pdb
     RDKit          3D

 21 23  0  0  0  0  0  0  0  0999 V2000
   70.0144   48.4896   55.0142 C   0  0  0  0  0  0  0  0  0  0  0  0
   70.8275   49.4042   54.4320 N   0  0  0  0  0  0  0  0  0  0  0  0
   70.9529   49.5157   53.1120 N   0  0  0  0  0  0  0  0  0  0  0  0
   70.2763   48.7236   52.2724 C   0  0  0  0  0  0  0  0  0  0  0  0
   70.3959   48.8319   51.0082 O   0  0  0  0  0  0  0  0  0  0  0  0
   69.4408   47.7827   52.8055 C   0  0  0  0  0  0  0  0  0  0  0  0
   68.7269   46.9556   51.9526 C   0  0  0  0  0  0  0  0  0  0  0  0
   67.8981   46.0311   52.5384 C   0  0  0  0  0  0  0  0  0  0  0  0
   67.7444   45.8896   53.9121 C   0  0  0  0  0  0  0  0  0  0  0  0
   68.4740   46.7335   54.7179 C   0  0  0  0  0  0  0  0  0  0  0  0
   69.3158   47.6723   54.1709 C   0  0  0  0  0  0  0  0  0  0  0  0
   69.9529   48.4477   56.4812 C   0  0  0  0  0  0  0  0  0  0  0  0
   68.6956   50.5590   56.9394 C   0  0  0  0  0  0  0  0  0  0  0  0
   67.5572   51.1796   57.4120 C   0  0  0  0  0  0  0  0  0  0  0  0
   66.5003   50.4145   57.8422 C   0  0  0  0  0  0  0  0  0  0  0  0
   66.5540   49.0348   57.8114 C   0  0  0  0  0  0  0  0  0  0  0  0
   67.6771   48.4002   57.3459 C   0  0  0  0  0  0  0  0  0  0  0  0
   68.7387   49.1953   56.9148 C   0  0  0  0  0  0  0  0  0  0  0  0
   69.7825   51.3447   56.4781 N   0  0  0  0  0  0  0  0  0  0  0  0
   68.8747   52.3364   54.4050 C   0  0  0  0  0  0  0  0  0  0  0  0
   69.5260   52.5657   55.7506 C   0  0  0  0  0  0  0  0  0  0  0  0
 20 21  1  0
 21 19  1  0
 19 13  1  0
 13 14  2  0
 13 18  1  0
 14 15  1  0
 15 16  2  0
 16 17  1  0
 17 18  2  0
 18 12  1  0
 12  1  1  0
  1  2  2  0
  1 11  1  0
  2  3  1  0
  3  4  1  0
  4  5  2  0
  4  6  1  0
  6  7  1  0
  6 11  2  0
  7  8  2  0
  8  9  1  0
  9 10  2  0
 10 11  1  0
M  END
>  <minimizedAffinity>  (48) 
-8.79277

$$$$
data/200k_reference_output/data/smiles/78210.pdb
     RDKit          3D

 19 20  0  0  0  0  0  0  0  0999 V2000
   69.3278   47.7453   52.9016 C   0  0  0  0  0  0  0  0  0  0  0  0
   69.2332   47.7193   54.2971 C   0  0  0  0  0  0  0  0  0  0  0  0
   68.4767   46.8111   54.9928 C   0  0  0  0  0  0  0  0  0  0  0  0
   67.7889   45.8910   54.1900 C   0  0  0  0  0  0  0  0  0  0  0  0
   67.8737   45.9063   52.8164 C   0  0  0  0  0  0  0  0  0  0  0  0
   68.6438   46.8333   52.1606 C   0  0  0  0  0  0  0  0  0  0  0  0
   68.6805   46.7857   50.7711 O   0  0  0  0  0  0  0  0  0  0  0  0
   69.7413   49.3361   51.2386 O   0  0  0  0  0  0  0  0  0  0  0  0
   70.1505   48.7404   52.2600 C   0  0  0  0  0  0  0  0  0  0  0  0
   71.3939   49.0333   52.7789 O   0  0  0  0  0  0  0  0  0  0  0  0
   68.3805   46.7514   56.3893 N   0  0  0  0  0  0  0  0  0  0  0  0
   69.0469   47.5649   57.3566 C   0  0  0  0  0  0  0  0  0  0  0  0
   68.5195   48.9360   57.3572 C   0  0  0  0  0  0  0  0  0  0  0  0
   69.2442   50.0468   57.0130 C   0  0  0  0  0  0  0  0  0  0  0  0
   68.6741   51.3264   57.0068 C   0  0  0  0  0  0  0  0  0  0  0  0
   67.3633   51.4627   57.3524 C   0  0  0  0  0  0  0  0  0  0  0  0
   66.6122   50.3368   57.7052 C   0  0  0  0  0  0  0  0  0  0  0  0
   67.1730   49.0825   57.7123 C   0  0  0  0  0  0  0  0  0  0  0  0
   66.3957   48.0008   58.0659 O   0  0  0  0  0  0  0  0  0  0  0  0
  8  9  2  0
  9 10  1  0
  9  1  1  0
  1  2  2  0
  1  6  1  0
  2  3  1  0
  3 11  1  0
  3  4  2  0
 11 12  1  0
 12 13  1  0
 13 14  2  0
 13 18  1  0
 14 15  1  0
 15 16  2  0
 16 17  1  0
 17 18  2  0
 18 19  1  0
  4  5  1  0
  5  6  2  0
  6  7  1  0
M  END
>  <minimizedAffinity>  (49) 
-8.79231

$$$$
data/200k_reference_output/data/smiles/55337.pdb
     RDKit          3D

 22 24  0  0  0  0  0  0  0  0999 V2000
   68.5168   46.5216   52.8428 C   0  0  0  0  0  0  0  0  0  0  0  0
   69.1360   47.0929   51.7690 C   0  0  0  0  0  0  0  0  0  0  0  0
   69.9326   48.2370   51.9170 C   0  0  0  0  0  0  0  0  0  0  0  0
   70.5134   48.7747   50.9190 O   0  0  0  0  0  0  0  0  0  0  0  0
   70.1137   48.7954   53.0687 O   0  0  0  0  0  0  0  0  0  0  0  0
   69.5417   48.2952   54.1610 C   0  0  0  0  0  0  0  0  0  0  0  0
   69.7888   48.9487   55.3289 C   0  0  0  0  0  0  0  0  0  0  0  0
   69.2126   48.4698   56.5235 C   0  0  0  0  0  0  0  0  0  0  0  0
   68.4293   47.3614   56.4325 C   0  0  0  0  0  0  0  0  0  0  0  0
   68.1837   46.6970   55.2229 C   0  0  0  0  0  0  0  0  0  0  0  0
   68.7461   47.1653   54.0651 C   0  0  0  0  0  0  0  0  0  0  0  0
   66.7414   45.7561   50.7208 N   0  0  0  0  0  0  0  0  0  0  0  0
   66.9044   45.0257   51.8444 N   0  0  0  0  0  0  0  0  0  0  0  0
   67.6825   45.3521   52.7848 C   0  0  0  0  0  0  0  0  0  0  0  0
   69.4791   49.1497   57.6680 O   0  0  0  0  0  0  0  0  0  0  0  0
   69.0948   50.3160   58.2395 C   0  0  0  0  0  0  0  0  0  0  0  0
   69.7020   51.5007   57.6104 C   0  0  0  0  0  0  0  0  0  0  0  0
   71.0152   51.8780   57.6690 C   0  0  0  0  0  0  0  0  0  0  0  0
   71.5020   52.9915   57.0415 C   0  0  0  0  0  0  0  0  0  0  0  0
   70.6453   53.7968   56.3038 C   0  0  0  0  0  0  0  0  0  0  0  0
   69.3099   53.4472   56.2216 C   0  0  0  0  0  0  0  0  0  0  0  0
   68.8316   52.3074   56.8683 C   0  0  0  0  0  0  0  0  0  0  0  0
 12 13  1  0
 13 14  2  0
 14  1  1  0
  1  2  2  0
  1 11  1  0
  2  3  1  0
  3  4  2  0
  3  5  1  0
  5  6  1  0
  6  7  1  0
  6 11  2  0
  7  8  2  0
  8 15  1  0
  8  9  1  0
 15 16  1  0
 16 17  1  0
 17 18  2  0
 17 22  1  0
 18 19  1  0
 19 20  2  0
 20 21  1  0
 21 22  2  0
  9 10  2  0
 10 11  1  0
M  END
>  <minimizedAffinity>  (50) 
-8.78706

$$$$
data/200k_reference_output/data/smiles/53381.pdb
     RDKit          3D

 20 23  0  0  0  0  0  0  0  0999 V2000
   69.7778   48.7020   56.1605 C   0  0  1  0  0  0  0  0  0  0  0  0
   69.8929   47.4284   57.0096 C   0  0  0  0  0  0  0  0  0  0  0  0
   69.1032   46.4270   56.2212 C   0  0  0  0  0  0  0  0  0  0  0  0
   68.4746   45.2471   56.3074 N   0  0  0  0  0  0  0  0  0  0  0  0
   67.9482   44.9323   55.1357 N   0  0  0  0  0  0  0  0  0  0  0  0
   68.2168   45.8952   54.2521 C   0  0  0  0  0  0  0  0  0  0  0  0
   68.9609   46.8647   54.9356 C   0  0  0  0  0  0  0  0  0  0  0  0
   69.6382   48.1503   54.7977 C   0  0  0  0  0  0  0  0  0  0  0  0
   65.8685   49.2207   59.0507 F   0  0  0  0  0  0  0  0  0  0  0  0
   66.7138   49.7230   58.1217 C   0  0  0  0  0  0  0  0  0  0  0  0
   66.4809   51.0046   57.6751 C   0  0  0  0  0  0  0  0  0  0  0  0
   67.3435   51.5142   56.7279 C   0  0  0  0  0  0  0  0  0  0  0  0
   68.4197   50.7683   56.2303 C   0  0  0  0  0  0  0  0  0  0  0  0
   68.6530   49.4871   56.6761 C   0  0  0  0  0  0  0  0  0  0  0  0
   67.7696   48.9821   57.6379 C   0  0  0  0  0  0  0  0  0  0  0  0
   67.8417   45.9848   52.8376 C   0  0  0  0  0  0  0  0  0  0  0  0
   66.9097   45.2904   52.1981 N   0  0  0  0  0  0  0  0  0  0  0  0
   66.8632   45.6536   50.9221 N   0  0  0  0  0  0  0  0  0  0  0  0
   67.7904   46.5964   50.7718 N   0  0  0  0  0  0  0  0  0  0  0  0
   68.4012   46.8125   51.9388 N   0  0  0  0  0  0  0  0  0  0  0  0
  9 10  1  0
 10 11  2  0
 10 15  1  0
 11 12  1  0
 12 13  2  0
 13 14  1  0
  1 14  1  1
 14 15  2  0
  1  2  1  0
  1  8  1  0
  2  3  1  0
  3  4  1  0
  3  7  2  0
  4  5  1  0
  5  6  2  0
  6 16  1  0
  6  7  1  0
 16 17  2  0
 16 20  1  0
 17 18  1  0
 18 19  2  0
 19 20  1  0
  7  8  1  0
M  END
>  <minimizedAffinity>  (51) 
-8.78421

$$$$
data/reference_output_2/data/smiles/89842.pdb
     RDKit          3D

 21 23  0  0  0  0  0  0  0  0999 V2000
   68.1998   45.1315   55.3100 C   0  0  0  0  0  0  0  0  0  0  0  0
   68.6607   45.8952   56.3144 N   0  0  0  0  0  0  0  0  0  0  0  0
   69.0908   47.0673   55.8495 N   0  0  0  0  0  0  0  0  0  0  0  0
   68.8990   47.0490   54.5132 C   0  0  0  0  0  0  0  0  0  0  0  0
   69.1497   47.9741   53.5087 C   0  0  0  0  0  0  0  0  0  0  0  0
   68.8471   47.6879   52.1972 C   0  0  0  0  0  0  0  0  0  0  0  0
   68.2800   46.4557   51.8648 C   0  0  0  0  0  0  0  0  0  0  0  0
   68.0164   45.5099   52.8346 C   0  0  0  0  0  0  0  0  0  0  0  0
   68.3364   45.8415   54.1345 C   0  0  0  0  0  0  0  0  0  0  0  0
   67.6832   43.8753   55.4134 O   0  0  0  0  0  0  0  0  0  0  0  0
   68.1545   42.8492   56.2192 C   0  0  0  0  0  0  0  0  0  0  0  0
   66.1878   41.7277   56.8516 O   0  0  0  0  0  0  0  0  0  0  0  0
   67.2452   41.6817   56.1821 C   0  0  0  0  0  0  0  0  0  0  0  0
   67.5049   40.5419   55.4440 O   0  0  0  0  0  0  0  0  0  0  0  0
   69.6634   48.1626   56.6116 C   0  0  0  0  0  0  0  0  0  0  0  0
   68.6769   49.2127   56.9163 C   0  0  0  0  0  0  0  0  0  0  0  0
   67.5821   48.8913   57.6799 C   0  0  0  0  0  0  0  0  0  0  0  0
   66.6135   49.8490   57.9992 C   0  0  0  0  0  0  0  0  0  0  0  0
   66.7629   51.1361   57.5385 C   0  0  0  0  0  0  0  0  0  0  0  0
   67.8492   51.4786   56.7738 C   0  0  0  0  0  0  0  0  0  0  0  0
   68.7916   50.5057   56.4753 C   0  0  0  0  0  0  0  0  0  0  0  0
 12 13  2  0
 13 14  1  0
 13 11  1  0
 11 10  1  0
 10  1  1  0
  1  2  2  0
  1  9  1  0
  2  3  1  0
  3 15  1  0
  3  4  1  0
 15 16  1  0
 16 17  2  0
 16 21  1  0
 17 18  1  0
 18 19  2  0
 19 20  1  0
 20 21  2  0
  4  5  1  0
  4  9  2  0
  5  6  2  0
  6  7  1  0
  7  8  2  0
  8  9  1  0
M  END
>  <minimizedAffinity>  (52) 
-8.78398

$$$$
data/reference_output_2/data/smiles/139789.pdb
     RDKit          3D

 20 21  0  0  0  0  0  0  0  0999 V2000
   68.3969   45.9087   55.3613 C   0  0  0  0  0  0  0  0  0  0  0  0
   69.3931   47.7415   52.2690 C   0  0  0  0  0  0  0  0  0  0  0  0
   68.6241   47.0919   51.3223 C   0  0  0  0  0  0  0  0  0  0  0  0
   67.7820   46.0629   51.6728 C   0  0  0  0  0  0  0  0  0  0  0  0
   67.6842   45.6526   52.9797 C   0  0  0  0  0  0  0  0  0  0  0  0
   68.4462   46.2936   53.9298 C   0  0  0  0  0  0  0  0  0  0  0  0
   69.2837   47.3217   53.5587 C   0  0  0  0  0  0  0  0  0  0  0  0
   70.0409   49.4745   50.9236 O   0  0  0  0  0  0  0  0  0  0  0  0
   70.2640   48.8004   51.9333 N   0  0  0  0  0  0  0  0  0  0  0  0
   71.3460   49.0879   52.7102 O   0  0  0  0  0  0  0  0  0  0  0  0
   67.7562   44.6462   55.4381 O   0  0  0  0  0  0  0  0  0  0  0  0
   68.1508   43.7578   56.4072 N   0  0  0  0  0  0  0  0  0  0  0  0
   67.8056   42.5244   56.3759 C   0  0  0  0  0  0  0  0  0  0  0  0
   68.2125   41.5796   57.3869 C   0  0  0  0  0  0  0  0  0  0  0  0
   68.5752   41.9733   58.6492 C   0  0  0  0  0  0  0  0  0  0  0  0
   68.9626   41.0714   59.6101 C   0  0  0  0  0  0  0  0  0  0  0  0
   68.9892   39.7285   59.3049 C   0  0  0  0  0  0  0  0  0  0  0  0
   68.6206   39.3295   58.0251 C   0  0  0  0  0  0  0  0  0  0  0  0
   68.2389   40.2351   57.0833 C   0  0  0  0  0  0  0  0  0  0  0  0
   67.8733   39.8232   55.8097 O   0  0  0  0  0  0  0  0  0  0  0  0
  8  9  2  0
  9 10  1  0
  9  2  1  0
  2  3  2  0
  2  7  1  0
  3  4  1  0
  4  5  2  0
  5  6  1  0
  6  1  1  0
  6  7  2  0
  1 11  1  0
 11 12  1  0
 12 13  2  0
 13 14  1  0
 14 15  2  0
 14 19  1  0
 15 16  1  0
 16 17  2  0
 17 18  1  0
 18 19  2  0
 19 20  1  0
M  CHG  2   9   1  10  -1
M  END
>  <minimizedAffinity>  (53) 
-8.78278

$$$$
data/200k_reference_output/data/smiles/67717.pdb
     RDKit          3D

 20 21  0  0  0  0  0  0  0  0999 V2000
   71.1264   51.6117   53.6383 O   0  0  0  0  0  0  0  0  0  0  0  0
   69.9222   51.5539   54.0635 C   0  0  0  0  0  0  0  0  0  0  0  0
   69.1708   50.4250   53.6412 N   0  0  0  0  0  0  0  0  0  0  0  0
   69.8934   49.2160   52.6053 S   0  0  0  0  0  0  0  0  0  0  0  0
   71.3510   49.0498   52.9112 O   0  0  0  0  0  0  0  0  0  0  0  0
   69.7576   49.7040   51.1911 O   0  0  0  0  0  0  0  0  0  0  0  0
   69.0206   47.7100   52.7345 C   0  0  0  0  0  0  0  0  0  0  0  0
   68.7555   47.1894   53.9662 C   0  0  0  0  0  0  0  0  0  0  0  0
   68.0676   46.0006   54.1109 C   0  0  0  0  0  0  0  0  0  0  0  0
   67.6305   45.3060   53.0178 C   0  0  0  0  0  0  0  0  0  0  0  0
   67.8994   45.8334   51.7632 C   0  0  0  0  0  0  0  0  0  0  0  0
   68.5843   47.0174   51.6242 C   0  0  0  0  0  0  0  0  0  0  0  0
   69.3621   52.6111   54.9416 C   0  0  0  0  0  0  0  0  0  0  0  0
   69.6240   52.2402   56.3824 C   0  0  0  0  0  0  0  0  0  0  0  0
   68.7254   51.1752   56.8643 C   0  0  0  0  0  0  0  0  0  0  0  0
   69.1582   49.8759   56.9670 C   0  0  0  0  0  0  0  0  0  0  0  0
   68.2904   48.8950   57.4234 C   0  0  0  0  0  0  0  0  0  0  0  0
   66.9935   49.2062   57.7782 C   0  0  0  0  0  0  0  0  0  0  0  0
   66.5476   50.5039   57.6799 C   0  0  0  0  0  0  0  0  0  0  0  0
   67.4286   51.4693   57.2220 C   0  0  0  0  0  0  0  0  0  0  0  0
  1  2  2  0
  2 13  1  0
  2  3  1  0
 13 14  1  0
 14 15  1  0
 15 16  2  0
 15 20  1  0
 16 17  1  0
 17 18  2  0
 18 19  1  0
 19 20  2  0
  3  4  1  0
  4  5  2  0
  4  6  2  0
  4  7  1  0
  7  8  2  0
  7 12  1  0
  8  9  1  0
  9 10  2  0
 10 11  1  0
 11 12  2  0
M  END
>  <minimizedAffinity>  (54) 
-8.78179

$$$$
data/reference_output_2/data/smiles/108558.pdb
     RDKit          3D

 21 23  0  0  0  0  0  0  0  0999 V2000
   70.4102   49.0185   51.0586 O   0  0  0  0  0  0  0  0  0  0  0  0
   70.0722   48.6719   52.2179 C   0  0  0  0  0  0  0  0  0  0  0  0
   70.4786   49.1628   53.4107 N   0  0  0  0  0  0  0  0  0  0  0  0
   69.8951   48.5334   54.4163 N   0  0  0  0  0  0  0  0  0  0  0  0
   69.0809   47.6009   53.8427 C   0  0  0  0  0  0  0  0  0  0  0  0
   68.2418   46.6715   54.3903 C   0  0  0  0  0  0  0  0  0  0  0  0
   67.5142   45.8300   53.5794 C   0  0  0  0  0  0  0  0  0  0  0  0
   67.5875   45.8727   52.2022 C   0  0  0  0  0  0  0  0  0  0  0  0
   68.4378   46.8142   51.6487 C   0  0  0  0  0  0  0  0  0  0  0  0
   69.1651   47.6568   52.4667 C   0  0  0  0  0  0  0  0  0  0  0  0
   66.8189   44.9842   51.4008 N   0  0  0  0  0  0  0  0  0  0  0  0
   66.6454   43.8239   51.7759 O   0  0  0  0  0  0  0  0  0  0  0  0
   66.2774   45.4201   50.2190 O   0  0  0  0  0  0  0  0  0  0  0  0
   70.0344   48.7408   55.8493 C   0  0  0  0  0  0  0  0  0  0  0  0
   68.9138   49.4938   56.4516 C   0  0  0  0  0  0  0  0  0  0  0  0
   68.7147   50.8531   56.1786 C   0  0  0  0  0  0  0  0  0  0  0  0
   67.6402   51.5084   56.7661 C   0  0  0  0  0  0  0  0  0  0  0  0
   66.7538   50.8864   57.6094 C   0  0  0  0  0  0  0  0  0  0  0  0
   66.9471   49.5491   57.8795 C   0  0  0  0  0  0  0  0  0  0  0  0
   68.0274   48.8717   57.2949 C   0  0  0  0  0  0  0  0  0  0  0  0
   68.2110   47.5251   57.5750 O   0  0  0  0  0  0  0  0  0  0  0  0
  1  2  2  0
  2  3  1  0
  2 10  1  0
  3  4  1  0
  4 14  1  0
  4  5  1  0
 14 15  1  0
 15 16  2  0
 15 20  1  0
 16 17  1  0
 17 18  2  0
 18 19  1  0
 19 20  2  0
 20 21  1  0
  5  6  1  0
  5 10  2  0
  6  7  2  0
  7  8  1  0
  8 11  1  0
  8  9  2  0
 11 12  2  0
 11 13  1  0
  9 10  1  0
M  CHG  2  11   1  13  -1
M  END
>  <minimizedAffinity>  (55) 
-8.77969

$$$$
data/reference_output_2/data/smiles/137898.pdb
     RDKit          3D

 22 24  0  0  0  0  0  0  0  0999 V2000
   69.1942   47.4259   55.9260 C   0  0  0  0  0  0  0  0  0  0  0  0
   68.8698   47.1511   54.5070 C   0  0  0  0  0  0  0  0  0  0  0  0
   68.0426   46.1051   54.1875 C   0  0  0  0  0  0  0  0  0  0  0  0
   67.7120   45.7885   52.8752 C   0  0  0  0  0  0  0  0  0  0  0  0
   68.2126   46.5301   51.8316 C   0  0  0  0  0  0  0  0  0  0  0  0
   69.0447   47.5862   52.1290 C   0  0  0  0  0  0  0  0  0  0  0  0
   69.3589   47.8813   53.4405 C   0  0  0  0  0  0  0  0  0  0  0  0
   68.4885   48.5907   56.4947 C   0  0  0  0  0  0  0  0  0  0  0  0
   68.9406   49.8505   56.2390 C   0  0  0  0  0  0  0  0  0  0  0  0
   68.2922   50.9340   56.7806 C   0  0  0  0  0  0  0  0  0  0  0  0
   67.1985   50.7825   57.5728 C   0  0  0  0  0  0  0  0  0  0  0  0
   66.7441   49.4969   57.8273 C   0  0  0  0  0  0  0  0  0  0  0  0
   67.3940   48.4085   57.2860 C   0  0  0  0  0  0  0  0  0  0  0  0
   69.4333   46.2755   56.7874 C   0  0  0  0  0  0  0  0  0  0  0  0
   69.8470   45.5957   58.9573 O   0  0  0  0  0  0  0  0  0  0  0  0
   70.2025   46.3504   58.0043 C   0  0  0  0  0  0  0  0  0  0  0  0
   71.3137   47.1724   58.2564 N   0  0  0  0  0  0  0  0  0  0  0  0
   71.9720   47.1441   59.4930 C   0  0  0  0  0  0  0  0  0  0  0  0
   72.8579   46.2487   59.9865 N   0  0  0  0  0  0  0  0  0  0  0  0
   73.2365   46.6124   61.2208 C   0  0  0  0  0  0  0  0  0  0  0  0
   72.5951   47.7436   61.5253 N   0  0  0  0  0  0  0  0  0  0  0  0
   71.8355   48.0635   60.4889 N   0  0  0  0  0  0  0  0  0  0  0  0
 15 16  2  0
 16 14  1  0
 16 17  1  0
 14  1  1  0
  1  2  1  0
  1  8  1  0
  2  3  2  0
  2  7  1  0
  3  4  1  0
  4  5  2  0
  5  6  1  0
  6  7  2  0
  8  9  2  0
  8 13  1  0
  9 10  1  0
 10 11  2  0
 11 12  1  0
 12 13  2  0
 17 18  1  0
 18 19  1  0
 18 22  2  0
 19 20  2  0
 20 21  1  0
 21 22  1  0
M  END
>  <minimizedAffinity>  (56) 
-8.77906

$$$$
data/reference_output_2/data/smiles/175714.pdb
     RDKit          3D

 20 22  0  0  0  0  0  0  0  0999 V2000
   70.1470   49.1494   51.0410 O   0  0  0  0  0  0  0  0  0  0  0  0
   69.8926   48.7611   52.2078 C   0  0  0  0  0  0  0  0  0  0  0  0
   70.3573   49.3824   53.4712 C   0  0  0  0  0  0  0  0  0  0  0  0
   71.0911   50.4075   53.4868 O   0  0  0  0  0  0  0  0  0  0  0  0
   69.8421   48.6332   54.5595 N   0  0  0  0  0  0  0  0  0  0  0  0
   69.0681   47.5577   53.9786 C   0  0  0  0  0  0  0  0  0  0  0  0
   68.3611   46.5409   54.5777 C   0  0  0  0  0  0  0  0  0  0  0  0
   67.6829   45.6020   53.8108 C   0  0  0  0  0  0  0  0  0  0  0  0
   67.7114   45.6784   52.4316 C   0  0  0  0  0  0  0  0  0  0  0  0
   67.0580   44.7739   51.6653 F   0  0  0  0  0  0  0  0  0  0  0  0
   68.4156   46.6894   51.8550 C   0  0  0  0  0  0  0  0  0  0  0  0
   69.0931   47.6287   52.6130 C   0  0  0  0  0  0  0  0  0  0  0  0
   69.9988   48.8437   55.9787 C   0  0  0  0  0  0  0  0  0  0  0  0
   68.8243   49.4856   56.5885 C   0  0  0  0  0  0  0  0  0  0  0  0
   67.9559   48.7211   57.3333 C   0  0  0  0  0  0  0  0  0  0  0  0
   66.8203   49.2786   57.9166 C   0  0  0  0  0  0  0  0  0  0  0  0
   66.5533   50.6247   57.7475 C   0  0  0  0  0  0  0  0  0  0  0  0
   67.4093   51.3749   57.0147 C   0  0  0  0  0  0  0  0  0  0  0  0
   68.5520   50.8179   56.4281 C   0  0  0  0  0  0  0  0  0  0  0  0
   69.3510   51.6779   55.7321 F   0  0  0  0  0  0  0  0  0  0  0  0
  1  2  2  0
  2  3  1  0
  2 12  1  0
  3  4  2  0
  3  5  1  0
  5 13  1  0
  5  6  1  0
 13 14  1  0
 14 15  2  0
 14 19  1  0
 15 16  1  0
 16 17  2  0
 17 18  1  0
 18 19  2  0
 19 20  1  0
  6  7  2  0
  6 12  1  0
  7  8  1  0
  8  9  2  0
  9 10  1  0
  9 11  1  0
 11 12  2  0
M  END
>  <minimizedAffinity>  (57) 
-8.77085

$$$$
data/reference_output_2/data/smiles/95676.pdb
     RDKit          3D

 21 24  0  0  0  0  0  0  0  0999 V2000
   69.2335   47.6953   52.4279 C   0  0  0  0  0  0  0  0  0  0  0  0
   68.6329   46.9218   51.4594 C   0  0  0  0  0  0  0  0  0  0  0  0
   67.7709   45.8947   51.8242 C   0  0  0  0  0  0  0  0  0  0  0  0
   67.5319   45.6670   53.1623 C   0  0  0  0  0  0  0  0  0  0  0  0
   68.1112   46.4172   54.1531 C   0  0  0  0  0  0  0  0  0  0  0  0
   68.0642   46.4260   55.5054 N   0  0  0  0  0  0  0  0  0  0  0  0
   68.8539   47.4059   55.9720 C   0  0  0  0  0  0  0  0  0  0  0  0
   69.3900   48.0039   54.9021 N   0  0  0  0  0  0  0  0  0  0  0  0
   68.9654   47.4341   53.7585 C   0  0  0  0  0  0  0  0  0  0  0  0
   69.1090   47.7833   57.4093 C   0  0  1  0  0  0  0  0  0  0  0  0
   70.3590   47.0285   57.8902 C   0  0  0  0  0  0  0  0  0  0  0  0
   70.8531   48.3753   58.3787 C   0  0  0  0  0  0  0  0  0  0  0  0
   69.8297   48.9786   57.5824 N   0  0  2  0  0  0  0  0  0  0  0  0
   69.2644   50.1287   58.1572 C   0  0  0  0  0  0  0  0  0  0  0  0
   70.0508   51.3932   57.8367 C   0  0  0  0  0  0  0  0  0  0  0  0
   69.4004   51.8448   56.5507 C   0  0  0  0  0  0  0  0  0  0  0  0
   67.9574   51.4203   56.6365 C   0  0  0  0  0  0  0  0  0  0  0  0
   67.8821   50.5000   57.8040 C   0  0  0  0  0  0  0  0  0  0  0  0
   71.2694   49.0306   52.7897 N   0  0  0  0  0  0  0  0  0  0  0  0
   70.1221   48.7531   52.0164 C   0  0  0  0  0  0  0  0  0  0  0  0
   69.8862   49.4186   50.9938 O   0  0  0  0  0  0  0  0  0  0  0  0
 19 20  1  0
 20 21  2  0
 20  1  1  0
  1  2  2  0
  1  9  1  0
  2  3  1  0
  3  4  2  0
  4  5  1  0
  5  6  1  0
  5  9  2  0
  6  7  1  0
 10  7  1  6
  7  8  2  0
 10 11  1  0
 10 13  1  0
 11 12  1  0
 12 13  1  0
 13 14  1  1
 14 15  1  0
 14 18  1  0
 15 16  1  0
 16 17  1  0
 17 18  1  0
  8  9  1  0
M  CHG  2   8   1  13   1
M  END
>  <minimizedAffinity>  (58) 
-8.76486

$$$$
data/reference_output_2/data/smiles/140046.pdb
     RDKit          3D

 22 25  0  0  0  0  0  0  0  0999 V2000
   67.9405   45.9357   55.0762 O   0  0  0  0  0  0  0  0  0  0  0  0
   66.4215   44.9158   50.6292 N   0  0  0  0  0  0  0  0  0  0  0  0
   67.2327   45.6567   51.5396 C   0  0  0  0  0  0  0  0  0  0  0  0
   67.2109   45.4580   52.8514 N   0  0  0  0  0  0  0  0  0  0  0  0
   67.9907   46.1712   53.7160 C   0  0  0  0  0  0  0  0  0  0  0  0
   68.8269   47.1298   53.2102 C   0  0  0  0  0  0  0  0  0  0  0  0
   69.6889   47.9731   53.7571 N   0  0  0  0  0  0  0  0  0  0  0  0
   70.2742   48.7268   52.7838 C   0  0  0  0  0  0  0  0  0  0  0  0
   69.7505   48.3272   51.6064 N   0  0  0  0  0  0  0  0  0  0  0  0
   68.8566   47.3432   51.8522 C   0  0  0  0  0  0  0  0  0  0  0  0
   68.0673   46.6125   51.0359 N   0  0  0  0  0  0  0  0  0  0  0  0
   68.8817   45.3503   55.8928 C   0  0  0  0  0  0  0  0  0  0  0  0
   68.6771   43.9530   56.2633 C   0  0  0  0  0  0  0  0  0  0  0  0
   67.6240   43.2468   55.7376 C   0  0  0  0  0  0  0  0  0  0  0  0
   67.4108   41.9041   56.0659 C   0  0  0  0  0  0  0  0  0  0  0  0
   68.2694   41.2488   56.9402 C   0  0  0  0  0  0  0  0  0  0  0  0
   68.0678   39.9297   57.2682 C   0  0  0  0  0  0  0  0  0  0  0  0
   68.9382   39.3218   58.1352 C   0  0  0  0  0  0  0  0  0  0  0  0
   70.0078   39.9988   58.6832 C   0  0  0  0  0  0  0  0  0  0  0  0
   70.1791   41.3203   58.3320 C   0  0  0  0  0  0  0  0  0  0  0  0
   69.3310   41.9872   57.4614 C   0  0  0  0  0  0  0  0  0  0  0  0
   69.5368   43.3121   57.1340 C   0  0  0  0  0  0  0  0  0  0  0  0
  2  3  1  0
  3  4  2  0
  3 11  1  0
  4  5  1  0
  5  1  1  0
  5  6  2  0
  1 12  1  0
 12 13  1  0
 13 14  2  0
 13 22  1  0
 14 15  1  0
 15 16  2  0
 16 17  1  0
 16 21  1  0
 17 18  2  0
 18 19  1  0
 19 20  2  0
 20 21  1  0
 21 22  2  0
  6  7  1  0
  6 10  1  0
  7  8  1  0
  8  9  2  0
  9 10  1  0
 10 11  2  0
M  CHG  1   9   1
M  END
>  <minimizedAffinity>  (59) 
-8.76030

$$$$
data/reference_output_2/data/smiles/111484.pdb
     RDKit          3D

 19 20  0  0  0  0  0  0  0  0999 V2000
   68.8348   46.5729   55.8582 C   0  0  0  0  0  0  0  0  0  0  0  0
   68.5940   45.4969   56.4980 N   0  0  0  0  0  0  0  0  0  0  0  0
   68.1844   44.3424   55.8874 O   0  0  0  0  0  0  0  0  0  0  0  0
   69.2712   47.7987   52.3399 C   0  0  0  0  0  0  0  0  0  0  0  0
   68.4600   46.9591   51.6210 C   0  0  0  0  0  0  0  0  0  0  0  0
   67.7595   45.9734   52.2968 C   0  0  0  0  0  0  0  0  0  0  0  0
   67.8859   45.8499   53.6773 C   0  0  0  0  0  0  0  0  0  0  0  0
   68.7004   46.6883   54.4117 C   0  0  0  0  0  0  0  0  0  0  0  0
   69.3819   47.6568   53.7170 C   0  0  0  0  0  0  0  0  0  0  0  0
   70.7998   48.5447   50.7416 O   0  0  0  0  0  0  0  0  0  0  0  0
   69.9863   48.8094   51.6331 N   0  0  0  0  0  0  0  0  0  0  0  0
   69.7579   50.1200   51.9598 O   0  0  0  0  0  0  0  0  0  0  0  0
   69.2577   47.6916   56.6586 N   0  0  0  0  0  0  0  0  0  0  0  0
   68.4227   48.7875   56.9776 C   0  0  0  0  0  0  0  0  0  0  0  0
   67.2873   48.7454   57.7388 C   0  0  0  0  0  0  0  0  0  0  0  0
   66.5072   49.8529   58.0148 C   0  0  0  0  0  0  0  0  0  0  0  0
   66.8850   51.0765   57.4981 C   0  0  0  0  0  0  0  0  0  0  0  0
   68.0243   51.1615   56.7256 C   0  0  0  0  0  0  0  0  0  0  0  0
   68.7779   50.0307   56.4721 C   0  0  0  0  0  0  0  0  0  0  0  0
 10 11  2  0
 11 12  1  0
 11  4  1  0
  4  5  2  0
  4  9  1  0
  5  6  1  0
  6  7  2  0
  7  8  1  0
  8  1  1  0
  8  9  2  0
  1  2  2  0
  1 13  1  0
  2  3  1  0
 13 14  1  0
 14 15  2  0
 14 19  1  0
 15 16  1  0
 16 17  2  0
 17 18  1  0
 18 19  2  0
M  CHG  3   2   1  11   1  12  -1
M  END
>  <minimizedAffinity>  (60) 
-8.75753

$$$$
data/reference_output_2/data/smiles/101230.pdb
     RDKit          3D

 22 24  0  0  0  0  0  0  0  0999 V2000
   70.6705   50.0140   54.6589 C   0  0  1  0  0  0  0  0  0  0  0  0
   69.6452   50.2816   55.6615 C   0  0  0  0  0  0  0  0  0  0  0  0
   69.5770   49.6316   56.8586 C   0  0  0  0  0  0  0  0  0  0  0  0
   68.5631   49.9061   57.7857 C   0  0  0  0  0  0  0  0  0  0  0  0
   67.6130   50.8452   57.4991 C   0  0  0  0  0  0  0  0  0  0  0  0
   67.6612   51.5142   56.2982 C   0  0  0  0  0  0  0  0  0  0  0  0
   68.6692   51.2220   55.4071 C   0  0  0  0  0  0  0  0  0  0  0  0
   71.4299   48.9945   52.6428 O   0  0  0  0  0  0  0  0  0  0  0  0
   70.3116   49.2954   53.4473 C   0  0  1  0  0  0  0  0  0  0  0  0
   69.4506   48.1324   53.4429 C   0  0  0  0  0  0  0  0  0  0  0  0
   69.1545   47.6247   52.1568 C   0  0  0  0  0  0  0  0  0  0  0  0
   68.3642   46.5137   52.0219 C   0  0  0  0  0  0  0  0  0  0  0  0
   67.8467   45.8741   53.1344 C   0  0  0  0  0  0  0  0  0  0  0  0
   67.0672   44.7775   52.9803 F   0  0  0  0  0  0  0  0  0  0  0  0
   68.1192   46.3462   54.3924 C   0  0  0  0  0  0  0  0  0  0  0  0
   68.9276   47.4789   54.5193 C   0  0  0  0  0  0  0  0  0  0  0  0
   71.6487   51.1744   54.4739 C   0  0  0  0  0  0  0  0  0  0  0  0
   73.0039   50.6946   54.8007 N   0  0  0  0  0  0  0  0  0  0  0  0
   73.5534   50.5513   56.0205 C   0  0  0  0  0  0  0  0  0  0  0  0
   74.8562   50.0680   55.8752 C   0  0  0  0  0  0  0  0  0  0  0  0
   75.0209   49.9458   54.5428 N   0  0  0  0  0  0  0  0  0  0  0  0
   73.9206   50.3192   53.9297 N   0  0  0  0  0  0  0  0  0  0  0  0
  9  8  1  1
  9 10  1  0
  9  1  1  0
 10 11  2  0
 10 16  1  0
 11 12  1  0
 12 13  2  0
 13 14  1  0
 13 15  1  0
 15 16  2  0
  1 17  1  6
  1  2  1  0
 17 18  1  0
 18 19  1  0
 18 22  1  0
 19 20  2  0
 20 21  1  0
 21 22  2  0
  2  3  2  0
  2  7  1  0
  3  4  1  0
  4  5  2  0
  5  6  1  0
  6  7  2  0
M  END
>  <minimizedAffinity>  (61) 
-8.75587

$$$$
data/200k_reference_output/data/smiles/50595.pdb
     RDKit          3D

 19 20  0  0  0  0  0  0  0  0999 V2000
   69.4918   48.3457   54.0334 C   0  0  0  0  0  0  0  0  0  0  0  0
   69.2372   48.1622   55.4043 C   0  0  0  0  0  0  0  0  0  0  0  0
   68.3404   47.2181   55.8589 C   0  0  0  0  0  0  0  0  0  0  0  0
   68.0965   47.0371   57.0796 O   0  0  0  0  0  0  0  0  0  0  0  0
   67.6975   46.4590   55.0043 O   0  0  0  0  0  0  0  0  0  0  0  0
   67.8644   46.5490   53.6999 C   0  0  0  0  0  0  0  0  0  0  0  0
   67.1732   45.7351   52.8848 N   0  0  0  0  0  0  0  0  0  0  0  0
   67.3380   45.8158   51.5617 C   0  0  0  0  0  0  0  0  0  0  0  0
   66.6914   45.0525   50.7648 O   0  0  0  0  0  0  0  0  0  0  0  0
   68.1978   46.7124   51.0552 N   0  0  0  0  0  0  0  0  0  0  0  0
   68.9098   47.5474   51.8578 C   0  0  0  0  0  0  0  0  0  0  0  0
   69.7111   48.3788   51.3835 O   0  0  0  0  0  0  0  0  0  0  0  0
   68.7684   47.4991   53.2215 C   0  0  0  0  0  0  0  0  0  0  0  0
   70.4118   49.3804   53.5521 C   0  0  0  0  0  0  0  0  0  0  0  0
   70.5985   50.5549   54.4412 C   0  0  0  0  0  0  0  0  0  0  0  0
   69.8310   51.7558   53.9313 C   0  0  0  0  0  0  0  0  0  0  0  0
   68.5312   51.8237   54.7214 C   0  0  0  0  0  0  0  0  0  0  0  0
   67.8328   51.3240   57.0791 C   0  0  0  0  0  0  0  0  0  0  0  0
   68.7934   52.0789   56.1951 C   0  0  0  0  0  0  0  0  0  0  0  0
 18 19  1  0
 19 17  1  0
 17 16  1  0
 16 15  1  0
 15 14  1  0
 14  1  1  0
  1  2  2  0
  1 13  1  0
  2  3  1  0
  3  4  2  0
  3  5  1  0
  5  6  1  0
  6  7  1  0
  6 13  2  0
  7  8  1  0
  8  9  2  0
  8 10  1  0
 10 11  1  0
 11 12  2  0
 11 13  1  0
M  END
>  <minimizedAffinity>  (62) 
-8.74912

$$$$
data/reference_output_2/data/smiles/187283.pdb
     RDKit          3D

 22 24  0  0  0  0  0  0  0  0999 V2000
   69.4709   47.9912   56.4418 C   0  0  0  0  0  0  0  0  0  0  0  0
   69.7572   48.7551   57.4462 O   0  0  0  0  0  0  0  0  0  0  0  0
   69.0879   48.5131   55.2204 N   0  0  0  0  0  0  0  0  0  0  0  0
   69.0860   49.9762   55.1403 C   0  0  0  0  0  0  0  0  0  0  0  0
   68.5879   50.5648   56.2720 C   0  0  0  0  0  0  0  0  0  0  0  0
   68.5343   51.9533   56.3798 C   0  0  0  0  0  0  0  0  0  0  0  0
   68.9760   52.7621   55.3561 C   0  0  0  0  0  0  0  0  0  0  0  0
   69.4737   52.1457   54.2202 C   0  0  0  0  0  0  0  0  0  0  0  0
   69.5328   50.7685   54.1019 C   0  0  0  0  0  0  0  0  0  0  0  0
   70.0559   50.3040   52.8525 N   0  0  0  0  0  0  0  0  0  0  0  0
   69.9411   48.9910   52.2593 C   0  0  0  0  0  0  0  0  0  0  0  0
   70.5099   48.7570   51.1897 O   0  0  0  0  0  0  0  0  0  0  0  0
   69.1916   47.8641   52.8112 C   0  0  0  0  0  0  0  0  0  0  0  0
   68.8241   46.9080   51.9014 C   0  0  0  0  0  0  0  0  0  0  0  0
   68.0667   45.8010   52.2608 C   0  0  0  0  0  0  0  0  0  0  0  0
   67.6680   45.6660   53.5941 C   0  0  0  0  0  0  0  0  0  0  0  0
   68.0168   46.6070   54.5391 C   0  0  0  0  0  0  0  0  0  0  0  0
   68.7700   47.6720   54.1148 C   0  0  0  0  0  0  0  0  0  0  0  0
   69.6248   46.5772   56.8038 C   0  0  0  0  0  0  0  0  0  0  0  0
   70.4359   46.4251   58.1039 C   0  0  0  0  0  0  0  0  0  0  0  0
   70.3850   44.0074   58.1847 C   0  0  0  0  0  0  0  0  0  0  0  0
   69.9278   45.2447   58.7776 N   0  0  0  0  0  0  0  0  0  0  0  0
 21 22  1  0
 22 20  1  0
 20 19  1  0
 19  1  1  0
  1  2  2  0
  1  3  1  0
  3  4  1  0
  3 18  1  0
  4  5  2  0
  4  9  1  0
  5  6  1  0
  6  7  2  0
  7  8  1  0
  8  9  2  0
  9 10  1  0
 10 11  1  0
 11 12  2  0
 11 13  1  0
 13 14  2  0
 13 18  1  0
 14 15  1  0
 15 16  2  0
 16 17  1  0
 17 18  2  0
M  CHG  1  22   1
M  END
>  <minimizedAffinity>  (63) 
-8.74735

$$$$
data/reference_output_2/data/smiles/141958.pdb
     RDKit          3D

 20 21  0  0  0  0  0  0  0  0999 V2000
   69.0102   46.7718   56.2144 S   0  0  0  0  0  0  0  0  0  0  0  0
   67.6016   47.1418   56.7961 O   0  0  0  0  0  0  0  0  0  0  0  0
   69.8428   47.9377   56.6715 O   0  0  0  0  0  0  0  0  0  0  0  0
   68.7660   46.7465   54.4874 C   0  0  0  0  0  0  0  0  0  0  0  0
   67.9907   45.8679   53.7931 C   0  0  0  0  0  0  0  0  0  0  0  0
   67.8470   45.9218   52.4148 C   0  0  0  0  0  0  0  0  0  0  0  0
   68.4929   46.8818   51.6772 C   0  0  0  0  0  0  0  0  0  0  0  0
   69.2843   47.7850   52.3436 C   0  0  0  0  0  0  0  0  0  0  0  0
   69.4158   47.7185   53.7111 C   0  0  0  0  0  0  0  0  0  0  0  0
   69.9891   48.8158   51.6367 N   0  0  0  0  0  0  0  0  0  0  0  0
   70.7802   48.5498   50.7248 O   0  0  0  0  0  0  0  0  0  0  0  0
   69.7943   50.1328   51.9648 O   0  0  0  0  0  0  0  0  0  0  0  0
   69.4135   45.2783   56.8592 N   0  0  0  0  0  0  0  0  0  0  0  0
   70.7695   42.8369   58.0676 C   0  0  0  0  0  0  0  0  0  0  0  0
   69.5299   42.8511   57.2721 C   0  0  0  0  0  0  0  0  0  0  0  0
   68.9458   41.5824   57.0782 C   0  0  0  0  0  0  0  0  0  0  0  0
   67.7860   41.4319   56.3615 C   0  0  0  0  0  0  0  0  0  0  0  0
   67.2355   42.5843   55.8513 C   0  0  0  0  0  0  0  0  0  0  0  0
   67.8046   43.7561   56.0497 N   0  0  0  0  0  0  0  0  0  0  0  0
   68.9659   43.9725   56.7575 C   0  0  0  0  0  0  0  0  0  0  0  0
 14 15  1  0
 15 16  2  0
 15 20  1  0
 16 17  1  0
 17 18  2  0
 18 19  1  0
 19 20  2  0
 20 13  1  0
 13  1  1  0
  1  2  2  0
  1  3  2  0
  1  4  1  0
  4  5  2  0
  4  9  1  0
  5  6  1  0
  6  7  2  0
  7  8  1  0
  8 10  1  0
  8  9  2  0
 10 11  2  0
 10 12  1  0
M  CHG  2  10   1  12  -1
M  END
>  <minimizedAffinity>  (64) 
-8.74694

$$$$
data/reference_output_2/data/smiles/180887.pdb
     RDKit          3D

 22 24  0  0  0  0  0  0  0  0999 V2000
   67.7886   48.5359   57.4639 C   0  0  0  0  0  0  0  0  0  0  0  0
   68.8664   47.7907   56.6384 C   0  0  0  0  0  0  0  0  0  0  0  0
   70.0821   47.6551   57.5851 C   0  0  0  0  0  0  0  0  0  0  0  0
   69.2490   48.6471   55.5112 C   0  0  0  0  0  0  0  0  0  0  0  0
   69.1797   48.0146   54.1901 C   0  0  0  0  0  0  0  0  0  0  0  0
   69.5937   48.7154   53.0475 C   0  0  0  0  0  0  0  0  0  0  0  0
   69.5085   48.1200   51.8282 C   0  0  0  0  0  0  0  0  0  0  0  0
   69.0216   46.8377   51.6961 C   0  0  0  0  0  0  0  0  0  0  0  0
   68.6194   46.1551   52.8002 C   0  0  0  0  0  0  0  0  0  0  0  0
   68.6940   46.7339   54.0566 C   0  0  0  0  0  0  0  0  0  0  0  0
   68.2842   45.9735   55.2269 C   0  0  0  0  0  0  0  0  0  0  0  0
   68.3822   46.4972   56.3578 N   0  0  0  0  0  0  0  0  0  0  0  0
   67.8055   44.6676   55.0937 N   0  0  0  0  0  0  0  0  0  0  0  0
   67.9291   43.6364   56.0151 N   0  0  0  0  0  0  0  0  0  0  0  0
   67.2194   42.4170   56.0348 C   0  0  0  0  0  0  0  0  0  0  0  0
   66.3788   42.2151   55.1166 O   0  0  0  0  0  0  0  0  0  0  0  0
   67.4224   41.3865   57.0761 C   0  0  0  0  0  0  0  0  0  0  0  0
   68.1579   40.2462   56.8982 C   0  0  0  0  0  0  0  0  0  0  0  0
   68.2929   39.3250   57.9484 C   0  0  0  0  0  0  0  0  0  0  0  0
   67.6927   39.5492   59.1669 C   0  0  0  0  0  0  0  0  0  0  0  0
   66.9772   40.6782   59.3114 N   0  0  0  0  0  0  0  0  0  0  0  0
   66.8353   41.5749   58.3141 C   0  0  0  0  0  0  0  0  0  0  0  0
  1  2  1  0
  2  3  1  0
  2  4  1  0
  2 12  1  0
  4  5  1  0
  5  6  1  0
  5 10  2  0
  6  7  2  0
  7  8  1  0
  8  9  2  0
  9 10  1  0
 10 11  1  0
 11 13  1  0
 11 12  2  0
 13 14  1  0
 14 15  1  0
 15 16  2  0
 15 17  1  0
 17 18  2  0
 17 22  1  0
 18 19  1  0
 19 20  2  0
 20 21  1  0
 21 22  2  0
M  CHG  1  12   1
M  END
>  <minimizedAffinity>  (65) 
-8.74156

$$$$
data/200k_reference_output/data/smiles/23166.pdb
     RDKit          3D

 19 21  0  0  0  0  0  0  0  0999 V2000
   69.8780   48.3404   54.9328 C   0  0  0  0  0  0  0  0  0  0  0  0
   70.8000   49.2054   54.3600 N   0  0  0  0  0  0  0  0  0  0  0  0
   70.9909   49.3052   53.0746 N   0  0  0  0  0  0  0  0  0  0  0  0
   70.3153   48.5831   52.1782 C   0  0  0  0  0  0  0  0  0  0  0  0
   70.5048   48.6851   50.9384 O   0  0  0  0  0  0  0  0  0  0  0  0
   69.3680   47.6843   52.6452 C   0  0  0  0  0  0  0  0  0  0  0  0
   68.6748   46.9149   51.7343 C   0  0  0  0  0  0  0  0  0  0  0  0
   67.7563   46.0101   52.2093 C   0  0  0  0  0  0  0  0  0  0  0  0
   67.5637   45.9052   53.5766 C   0  0  0  0  0  0  0  0  0  0  0  0
   68.2570   46.6740   54.4664 C   0  0  0  0  0  0  0  0  0  0  0  0
   69.1877   47.5986   54.0278 C   0  0  0  0  0  0  0  0  0  0  0  0
   69.7274   48.3847   56.3748 C   0  0  0  0  0  0  0  0  0  0  0  0
   67.0645   47.7515   57.6441 N   0  0  0  0  0  0  0  0  0  0  0  0
   67.4778   49.0840   57.3580 C   0  0  0  0  0  0  0  0  0  0  0  0
   66.6002   50.1298   57.6887 C   0  0  0  0  0  0  0  0  0  0  0  0
   66.9514   51.4396   57.5109 C   0  0  0  0  0  0  0  0  0  0  0  0
   68.1989   51.7294   56.9954 C   0  0  0  0  0  0  0  0  0  0  0  0
   69.0356   50.6938   56.6808 C   0  0  0  0  0  0  0  0  0  0  0  0
   68.6978   49.3325   56.8516 C   0  0  0  0  0  0  0  0  0  0  0  0
 13 14  1  0
 14 15  2  0
 14 19  1  0
 15 16  1  0
 16 17  2  0
 17 18  1  0
 18 19  2  0
 19 12  1  0
 12  1  1  0
  1  2  2  0
  1 11  1  0
  2  3  1  0
  3  4  1  0
  4  5  2  0
  4  6  1  0
  6  7  1  0
  6 11  2  0
  7  8  2  0
  8  9  1  0
  9 10  2  0
 10 11  1  0
M  END
>  <minimizedAffinity>  (66) 
-8.73919

$$$$
data/200k_reference_output/data/smiles/29979.pdb
     RDKit          3D

 21 22  0  0  0  0  0  0  0  0999 V2000
   68.9674   46.6973   57.1315 N   0  0  0  0  0  0  0  0  0  0  0  0
   68.2690   47.1697   56.2073 C   0  0  0  0  0  0  0  0  0  0  0  0
   68.4571   47.1094   54.7819 C   0  0  0  0  0  0  0  0  0  0  0  0
   67.7690   46.1826   53.9878 C   0  0  0  0  0  0  0  0  0  0  0  0
   67.9329   46.1074   52.6276 C   0  0  0  0  0  0  0  0  0  0  0  0
   68.7992   46.9589   51.9780 C   0  0  0  0  0  0  0  0  0  0  0  0
   69.4808   47.8707   52.7235 C   0  0  0  0  0  0  0  0  0  0  0  0
   69.3098   47.9422   54.1088 C   0  0  0  0  0  0  0  0  0  0  0  0
   70.3837   48.7617   52.0647 N   0  0  0  0  0  0  0  0  0  0  0  0
   71.5126   48.9332   52.5163 O   0  0  0  0  0  0  0  0  0  0  0  0
   70.0138   49.4370   50.9317 O   0  0  0  0  0  0  0  0  0  0  0  0
   70.5688   45.0821   58.1079 C   0  0  0  0  0  0  0  0  0  0  0  0
   69.8243   44.9561   59.1116 O   0  0  0  0  0  0  0  0  0  0  0  0
   70.1365   45.9708   57.0935 N   0  0  0  0  0  0  0  0  0  0  0  0
   70.5120   42.3794   57.4454 N   0  0  0  0  0  0  0  0  0  0  0  0
   71.7738   42.9712   57.7448 C   0  0  0  0  0  0  0  0  0  0  0  0
   72.9047   42.1838   57.6945 C   0  0  0  0  0  0  0  0  0  0  0  0
   74.1448   42.7156   57.9773 C   0  0  0  0  0  0  0  0  0  0  0  0
   74.1905   44.0518   58.3083 C   0  0  0  0  0  0  0  0  0  0  0  0
   73.0449   44.8429   58.3581 C   0  0  0  0  0  0  0  0  0  0  0  0
   71.8026   44.3115   58.0743 C   0  0  0  0  0  0  0  0  0  0  0  0
 15 16  1  0
 16 17  2  0
 16 21  1  0
 17 18  1  0
 18 19  2  0
 19 20  1  0
 20 21  2  0
 21 12  1  0
 12 13  2  0
 12 14  1  0
 14  1  1  0
  1  2  2  0
  2  3  1  0
  3  4  2  0
  3  8  1  0
  4  5  1  0
  5  6  2  0
  6  7  1  0
  7  9  1  0
  7  8  2  0
  9 10  2  0
  9 11  1  0
M  CHG  2   9   1  11  -1
M  END
>  <minimizedAffinity>  (67) 
-8.73759

$$$$
data/reference_output_2/data/smiles/135283.pdb
     RDKit          3D

 21 22  0  0  0  0  0  0  0  0999 V2000
   68.5830   47.5199   55.2745 C   0  0  0  0  0  0  0  0  0  0  0  0
   67.7901   46.5617   54.6033 C   0  0  0  0  0  0  0  0  0  0  0  0
   67.8958   46.3916   53.2490 C   0  0  0  0  0  0  0  0  0  0  0  0
   67.0950   45.4286   52.5960 O   0  0  0  0  0  0  0  0  0  0  0  0
   68.7488   47.1056   52.4351 C   0  0  0  0  0  0  0  0  0  0  0  0
   68.8145   46.8911   51.0715 O   0  0  0  0  0  0  0  0  0  0  0  0
   69.5308   48.0510   53.1008 C   0  0  0  0  0  0  0  0  0  0  0  0
   69.4230   48.2228   54.4610 C   0  0  0  0  0  0  0  0  0  0  0  0
   70.4284   48.8266   52.3297 N   0  0  0  0  0  0  0  0  0  0  0  0
   71.6143   49.0130   52.6613 O   0  0  0  0  0  0  0  0  0  0  0  0
   70.0286   49.4351   51.1431 O   0  0  0  0  0  0  0  0  0  0  0  0
   68.4547   47.6323   56.7134 C   0  0  0  0  0  0  0  0  0  0  0  0
   68.9856   46.7598   57.4819 O   0  0  0  0  0  0  0  0  0  0  0  0
   67.7238   48.7344   57.3626 C   0  0  0  0  0  0  0  0  0  0  0  0
   70.5075   53.7691   56.4949 C   0  0  0  0  0  0  0  0  0  0  0  0
   69.8043   52.4657   56.7424 C   0  0  0  0  0  0  0  0  0  0  0  0
   68.5626   52.2410   56.1796 C   0  0  0  0  0  0  0  0  0  0  0  0
   67.8937   51.0482   56.3833 C   0  0  0  0  0  0  0  0  0  0  0  0
   68.4306   50.0371   57.1505 C   0  0  0  0  0  0  0  0  0  0  0  0
   69.6685   50.2567   57.7144 C   0  0  0  0  0  0  0  0  0  0  0  0
   70.3449   51.4615   57.5093 C   0  0  0  0  0  0  0  0  0  0  0  0
 15 16  1  0
 16 17  2  0
 16 21  1  0
 17 18  1  0
 18 19  2  0
 19 14  1  0
 19 20  1  0
 14 12  1  0
 12 13  2  0
 12  1  1  0
  1  2  2  0
  1  8  1  0
  2  3  1  0
  3  4  1  0
  3  5  2  0
  5  6  1  0
  5  7  1  0
  7  9  1  0
  7  8  2  0
  9 10  2  0
  9 11  1  0
 20 21  2  0
M  CHG  2   9   1  11  -1
M  END
>  <minimizedAffinity>  (68) 
-8.73739

$$$$
data/reference_output_2/data/smiles/114178.pdb
     RDKit          3D

 20 21  0  0  0  0  0  0  0  0999 V2000
   69.8922   49.1283   52.5069 S   0  0  0  0  0  0  0  0  0  0  0  0
   69.9579   49.4982   51.0536 O   0  0  0  0  0  0  0  0  0  0  0  0
   71.3039   49.0159   53.0226 O   0  0  0  0  0  0  0  0  0  0  0  0
   68.2066   45.7739   54.0505 C   0  0  0  0  0  0  0  0  0  0  0  0
   67.5895   45.2341   52.9411 C   0  0  0  0  0  0  0  0  0  0  0  0
   67.6738   45.8662   51.7335 C   0  0  0  0  0  0  0  0  0  0  0  0
   68.3755   47.0490   51.6105 C   0  0  0  0  0  0  0  0  0  0  0  0
   69.0133   47.6311   52.6985 C   0  0  0  0  0  0  0  0  0  0  0  0
   68.9095   46.9692   53.9022 C   0  0  0  0  0  0  0  0  0  0  0  0
   67.7036   43.9831   55.3921 O   0  0  0  0  0  0  0  0  0  0  0  0
   68.1346   45.1399   55.3124 N   0  0  0  0  0  0  0  0  0  0  0  0
   68.5429   45.8211   56.4220 O   0  0  0  0  0  0  0  0  0  0  0  0
   69.1024   50.4244   53.3292 N   0  0  0  0  0  0  0  0  0  0  0  0
   69.8410   50.8040   54.5377 C   0  0  0  0  0  0  0  0  0  0  0  0
   68.9450   50.5161   55.6890 C   0  0  0  0  0  0  0  0  0  0  0  0
   68.1707   51.5449   56.1874 C   0  0  0  0  0  0  0  0  0  0  0  0
   67.3350   51.2895   57.2555 C   0  0  0  0  0  0  0  0  0  0  0  0
   67.3073   50.0129   57.7847 C   0  0  0  0  0  0  0  0  0  0  0  0
   68.0829   48.9886   57.2837 C   0  0  0  0  0  0  0  0  0  0  0  0
   68.8869   49.2699   56.2413 N   0  0  0  0  0  0  0  0  0  0  0  0
 10 11  2  0
 11 12  1  0
 11  4  1  0
  4  5  2  0
  4  9  1  0
  5  6  1  0
  6  7  2  0
  7  8  1  0
  8  1  1  0
  8  9  2  0
  1  2  2  0
  1  3  2  0
  1 13  1  0
 13 14  1  0
 14 15  1  0
 15 16  2  0
 15 20  1  0
 16 17  1  0
 17 18  2  0
 18 19  1  0
 19 20  2  0
M  CHG  2  11   1  12  -1
M  END
>  <minimizedAffinity>  (69) 
-8.73636

$$$$
data/200k_reference_output/data/smiles/12073.pdb
     RDKit          3D

 22 23  0  0  0  0  0  0  0  0999 V2000
   67.5596   42.4354   56.3691 C   0  0  0  0  0  0  0  0  0  0  0  0
   66.5426   41.9385   55.8320 O   0  0  0  0  0  0  0  0  0  0  0  0
   70.2543   39.8232   58.4209 C   0  0  0  0  0  0  0  0  0  0  0  0
   69.0334   39.3805   57.9563 C   0  0  0  0  0  0  0  0  0  0  0  0
   68.1573   40.2121   57.2944 C   0  0  0  0  0  0  0  0  0  0  0  0
   68.4703   41.5415   57.0660 C   0  0  0  0  0  0  0  0  0  0  0  0
   69.6916   41.9773   57.5318 C   0  0  0  0  0  0  0  0  0  0  0  0
   70.5732   41.1502   58.1954 C   0  0  0  0  0  0  0  0  0  0  0  0
   71.4101   37.6451   58.2826 C   0  0  0  0  0  0  0  0  0  0  0  0
   71.1692   38.8989   59.1277 C   0  0  0  0  0  0  0  0  0  0  0  0
   72.5264   39.5644   59.2791 C   0  0  0  0  0  0  0  0  0  0  0  0
   70.6982   38.5081   60.4877 C   0  0  0  0  0  0  0  0  0  0  0  0
   67.7412   43.8022   56.2591 O   0  0  0  0  0  0  0  0  0  0  0  0
   67.9577   44.4432   55.0599 N   0  0  0  0  0  0  0  0  0  0  0  0
   68.2640   45.7059   55.0417 C   0  0  0  0  0  0  0  0  0  0  0  0
   68.3515   46.3342   56.3112 N   0  0  0  0  0  0  0  0  0  0  0  0
   68.5029   46.4292   53.7955 C   0  0  0  0  0  0  0  0  0  0  0  0
   67.9607   45.9135   52.6393 C   0  0  0  0  0  0  0  0  0  0  0  0
   68.1761   46.5878   51.4401 C   0  0  0  0  0  0  0  0  0  0  0  0
   68.8931   47.7231   51.3679 N   0  0  0  0  0  0  0  0  0  0  0  0
   69.4328   48.2433   52.4918 C   0  0  0  0  0  0  0  0  0  0  0  0
   69.2293   47.5898   53.6858 C   0  0  0  0  0  0  0  0  0  0  0  0
  9 10  1  0
 10 11  1  0
 10 12  1  0
 10  3  1  0
  3  4  2  0
  3  8  1  0
  4  5  1  0
  5  6  2  0
  6  1  1  0
  6  7  1  0
  1  2  2  0
  1 13  1  0
 13 14  1  0
 14 15  2  0
 15 16  1  0
 15 17  1  0
 17 18  2  0
 17 22  1  0
 18 19  1  0
 19 20  2  0
 20 21  1  0
 21 22  2  0
  7  8  2  0
M  CHG  1  14   1
M  END
>  <minimizedAffinity>  (70) 
-8.73383

$$$$
data/reference_output_2/data/smiles/148246.pdb
     RDKit          3D

 22 24  0  0  0  0  0  0  0  0999 V2000
   68.3037   44.5542   55.8461 N   0  0  0  0  0  0  0  0  0  0  0  0
   67.9443   45.0344   54.7391 C   0  0  0  0  0  0  0  0  0  0  0  0
   68.4521   46.2500   54.1142 C   0  0  0  0  0  0  0  0  0  0  0  0
   68.4749   47.4542   54.7889 C   0  0  0  0  0  0  0  0  0  0  0  0
   68.9468   48.6236   54.2309 C   0  0  0  0  0  0  0  0  0  0  0  0
   69.4250   48.6318   52.9491 C   0  0  0  0  0  0  0  0  0  0  0  0
   69.4185   47.4434   52.2431 C   0  0  0  0  0  0  0  0  0  0  0  0
   68.9376   46.2665   52.8175 C   0  0  0  0  0  0  0  0  0  0  0  0
   69.9362   47.7546   51.0383 N   0  0  0  0  0  0  0  0  0  0  0  0
   70.2297   49.0181   51.0175 O   0  0  0  0  0  0  0  0  0  0  0  0
   69.9377   49.5839   52.1481 N   0  0  0  0  0  0  0  0  0  0  0  0
   70.1242   50.9294   52.4676 O   0  0  0  0  0  0  0  0  0  0  0  0
   68.6315   42.5000   57.1988 C   0  0  0  0  0  0  0  0  0  0  0  0
   69.8661   42.8084   57.2704 O   0  0  0  0  0  0  0  0  0  0  0  0
   67.8414   43.4065   56.4638 N   0  0  0  0  0  0  0  0  0  0  0  0
   66.6143   37.7767   59.7882 C   0  0  0  0  0  0  0  0  0  0  0  0
   67.1362   39.0157   59.1178 C   0  0  0  0  0  0  0  0  0  0  0  0
   68.0717   38.9184   58.1141 C   0  0  0  0  0  0  0  0  0  0  0  0
   68.5667   40.0504   57.4808 C   0  0  0  0  0  0  0  0  0  0  0  0
   68.1335   41.2970   57.8423 C   0  0  0  0  0  0  0  0  0  0  0  0
   67.1974   41.3760   58.8464 C   0  0  0  0  0  0  0  0  0  0  0  0
   66.6911   40.2630   59.4899 C   0  0  0  0  0  0  0  0  0  0  0  0
 16 17  1  0
 17 18  2  0
 17 22  1  0
 18 19  1  0
 19 20  2  0
 20 13  1  0
 20 21  1  0
 13 14  2  0
 13 15  1  0
 15  1  1  0
  1  2  2  0
  2  3  1  0
  3  4  1  0
  3  8  2  0
  4  5  2  0
  5  6  1  0
  6  7  1  0
  6 11  2  0
  7  8  1  0
  7  9  2  0
  9 10  1  0
 10 11  1  0
 11 12  1  0
 21 22  2  0
M  CHG  2  11   1  12  -1
M  END
>  <minimizedAffinity>  (71) 
-8.72993

$$$$
data/reference_output_2/data/smiles/167964.pdb
     RDKit          3D

 22 24  0  0  0  0  0  0  0  0999 V2000
   69.9832   47.3809   57.5940 C   0  0  0  0  0  0  0  0  0  0  0  0
   68.8362   47.6513   56.6175 C   0  0  0  0  0  0  0  0  0  0  0  0
   67.7843   48.3908   57.4497 C   0  0  0  0  0  0  0  0  0  0  0  0
   69.3437   48.5155   55.5291 C   0  0  0  0  0  0  0  0  0  0  0  0
   69.2633   47.9793   54.1712 C   0  0  0  0  0  0  0  0  0  0  0  0
   69.7299   48.7656   53.1399 C   0  0  0  0  0  0  0  0  0  0  0  0
   69.6554   48.2605   51.8591 C   0  0  0  0  0  0  0  0  0  0  0  0
   69.1292   47.0094   51.6278 C   0  0  0  0  0  0  0  0  0  0  0  0
   68.6528   46.2063   52.6734 C   0  0  0  0  0  0  0  0  0  0  0  0
   68.7301   46.7136   53.9498 C   0  0  0  0  0  0  0  0  0  0  0  0
   68.2424   45.8986   55.0633 C   0  0  0  0  0  0  0  0  0  0  0  0
   68.3180   46.3775   56.2356 N   0  0  0  0  0  0  0  0  0  0  0  0
   67.6957   44.6023   54.8705 N   0  0  0  0  0  0  0  0  0  0  0  0
   67.8467   43.6709   55.9009 N   0  0  0  0  0  0  0  0  0  0  0  0
   67.1321   42.4391   55.9277 C   0  0  0  0  0  0  0  0  0  0  0  0
   66.3343   42.1476   55.0165 O   0  0  0  0  0  0  0  0  0  0  0  0
   67.3239   41.4975   57.0253 C   0  0  0  0  0  0  0  0  0  0  0  0
   68.1104   40.3790   56.8906 C   0  0  0  0  0  0  0  0  0  0  0  0
   68.3140   39.4708   57.9021 C   0  0  0  0  0  0  0  0  0  0  0  0
   67.7112   39.6738   59.1084 C   0  0  0  0  0  0  0  0  0  0  0  0
   66.9149   40.8072   59.2427 C   0  0  0  0  0  0  0  0  0  0  0  0
   66.7368   41.6765   58.2308 N   0  0  0  0  0  0  0  0  0  0  0  0
  1  2  1  0
  2  3  1  0
  2  4  1  0
  2 12  1  0
  4  5  1  0
  5  6  1  0
  5 10  2  0
  6  7  2  0
  7  8  1  0
  8  9  2  0
  9 10  1  0
 10 11  1  0
 11 13  1  0
 11 12  2  0
 13 14  1  0
 14 15  1  0
 15 16  2  0
 15 17  1  0
 17 18  2  0
 17 22  1  0
 18 19  1  0
 19 20  2  0
 20 21  1  0
 21 22  2  0
M  CHG  1  12   1
M  END
>  <minimizedAffinity>  (72) 
-8.72724

$$$$
data/reference_output_2/data/smiles/175311.pdb
     RDKit          3D

 21 22  0  0  0  0  0  0  0  0999 V2000
   68.9588   50.0377   56.6215 C   0  0  0  0  0  0  0  0  0  0  0  0
   68.1353   51.0567   57.0469 C   0  0  0  0  0  0  0  0  0  0  0  0
   66.9120   50.8396   57.6790 C   0  0  0  0  0  0  0  0  0  0  0  0
   66.5126   49.5420   57.8858 C   0  0  0  0  0  0  0  0  0  0  0  0
   67.3281   48.5032   57.4644 C   0  0  0  0  0  0  0  0  0  0  0  0
   68.5335   48.7253   56.8416 C   0  0  0  0  0  0  0  0  0  0  0  0
   70.3837   50.9114   54.8230 C   0  0  0  0  0  0  0  0  0  0  0  0
   70.2354   50.2625   55.9623 C   0  0  0  0  0  0  0  0  0  0  0  0
   71.8870   52.2465   53.6486 O   0  0  0  0  0  0  0  0  0  0  0  0
   71.6642   51.1304   54.1725 C   0  0  0  0  0  0  0  0  0  0  0  0
   72.6760   50.1459   54.0987 N   0  0  0  0  0  0  0  0  0  0  0  0
   73.8750   50.3756   53.4800 O   0  0  0  0  0  0  0  0  0  0  0  0
   69.2789   47.6224   56.4574 O   0  0  0  0  0  0  0  0  0  0  0  0
   68.7843   46.5453   55.7814 C   0  0  0  0  0  0  0  0  0  0  0  0
   68.4775   45.5228   56.4482 O   0  0  0  0  0  0  0  0  0  0  0  0
   68.6293   46.6090   54.3328 C   0  0  0  0  0  0  0  0  0  0  0  0
   67.8293   45.6970   53.6803 C   0  0  0  0  0  0  0  0  0  0  0  0
   67.6658   45.7373   52.2922 C   0  0  0  0  0  0  0  0  0  0  0  0
   68.3146   46.7067   51.5563 C   0  0  0  0  0  0  0  0  0  0  0  0
   69.1285   47.6399   52.1996 C   0  0  0  0  0  0  0  0  0  0  0  0
   69.2606   47.5629   53.5568 C   0  0  0  0  0  0  0  0  0  0  0  0
  9 10  2  0
 10  7  1  0
 10 11  1  0
  7  8  2  0
  8  1  1  0
  1  2  2  0
  1  6  1  0
  2  3  1  0
  3  4  2  0
  4  5  1  0
  5  6  2  0
  6 13  1  0
 13 14  1  0
 14 15  2  0
 14 16  1  0
 16 17  2  0
 16 21  1  0
 17 18  1  0
 18 19  2  0
 19 20  1  0
 20 21  2  0
 11 12  1  0
M  END
>  <minimizedAffinity>  (73) 
-8.72443

$$$$
data/200k_reference_output/data/smiles/2577.pdb
     RDKit          3D

 21 23  0  0  0  0  0  0  0  0999 V2000
   70.0513   50.6113   54.1481 C   0  0  2  0  0  0  0  0  0  0  0  0
   71.3293   51.2669   53.9939 O   0  0  0  0  0  0  0  0  0  0  0  0
   69.0923   51.7903   54.3052 C   0  0  0  0  0  0  0  0  0  0  0  0
   68.9819   52.2540   55.7408 C   0  0  0  0  0  0  0  0  0  0  0  0
   68.3707   51.1143   56.4688 C   0  0  0  0  0  0  0  0  0  0  0  0
   67.2832   51.2584   57.2736 C   0  0  0  0  0  0  0  0  0  0  0  0
   66.7420   50.1718   57.9413 C   0  0  0  0  0  0  0  0  0  0  0  0
   67.3578   48.9472   57.7480 C   0  0  0  0  0  0  0  0  0  0  0  0
   68.4527   48.7847   56.9417 C   0  0  0  0  0  0  0  0  0  0  0  0
   68.9644   49.8875   56.2922 C   0  0  0  0  0  0  0  0  0  0  0  0
   70.1651   49.8470   55.4046 C   0  0  0  0  0  0  0  0  0  0  0  0
   69.8370   49.9321   52.8568 C   0  0  0  0  0  0  0  0  0  0  0  0
   69.2046   47.6441   51.9854 C   0  0  0  0  0  0  0  0  0  0  0  0
   70.2350   47.5387   51.2731 O   0  0  0  0  0  0  0  0  0  0  0  0
   69.0047   48.7966   52.7427 N   0  0  0  0  0  0  0  0  0  0  0  0
   68.3041   45.9938   54.4566 C   0  0  0  0  0  0  0  0  0  0  0  0
   67.8193   45.7964   53.0731 C   0  0  0  0  0  0  0  0  0  0  0  0
   66.9282   44.8938   52.6510 O   0  0  0  0  0  0  0  0  0  0  0  0
   66.7572   45.0283   51.3591 N   0  0  0  0  0  0  0  0  0  0  0  0
   67.5543   46.0473   50.9145 C   0  0  0  0  0  0  0  0  0  0  0  0
   68.2298   46.5365   52.0008 C   0  0  0  0  0  0  0  0  0  0  0  0
 16 17  1  0
 17 18  1  0
 17 21  2  0
 18 19  1  0
 19 20  2  0
 20 21  1  0
 21 13  1  0
 13 14  2  0
 13 15  1  0
 15 12  1  0
 12  1  1  0
  1  2  1  6
  1  3  1  0
  1 11  1  0
  3  4  1  0
  4  5  1  0
  5  6  2  0
  5 10  1  0
  6  7  1  0
  7  8  2  0
  8  9  1  0
  9 10  2  0
 10 11  1  0
M  END
>  <minimizedAffinity>  (74) 
-8.72261

$$$$
data/200k_reference_output/data/smiles/5847.pdb
     RDKit          3D

 22 24  0  0  0  0  0  0  0  0999 V2000
   68.0904   43.5008   55.9996 N   0  0  0  0  0  0  0  0  0  0  0  0
   67.2024   42.5153   55.7908 C   0  0  0  0  0  0  0  0  0  0  0  0
   67.4680   41.4451   56.6140 C   0  0  0  0  0  0  0  0  0  0  0  0
   68.5907   41.8288   57.3603 C   0  0  0  0  0  0  0  0  0  0  0  0
   68.8903   43.0370   56.9431 N   0  0  0  0  0  0  0  0  0  0  0  0
   68.0279   46.1623   53.3548 C   0  0  0  0  0  0  0  0  0  0  0  0
   68.3212   47.2608   54.1342 C   0  0  0  0  0  0  0  0  0  0  0  0
   68.5268   47.0939   55.4855 C   0  0  0  0  0  0  0  0  0  0  0  0
   68.4498   45.8867   56.0691 N   0  0  0  0  0  0  0  0  0  0  0  0
   68.1664   44.7716   55.3567 C   0  0  0  0  0  0  0  0  0  0  0  0
   67.9598   44.9348   54.0043 C   0  0  0  0  0  0  0  0  0  0  0  0
   66.8784   45.6067   51.4034 O   0  0  0  0  0  0  0  0  0  0  0  0
   67.8006   46.2804   51.9175 C   0  0  0  0  0  0  0  0  0  0  0  0
   68.5462   47.0951   51.0894 O   0  0  0  0  0  0  0  0  0  0  0  0
   69.2546   41.0087   58.3848 C   0  0  0  0  0  0  0  0  0  0  0  0
   68.7830   39.6151   58.5488 C   0  0  0  0  0  0  0  0  0  0  0  0
   69.8036   38.5876   58.7723 C   0  0  0  0  0  0  0  0  0  0  0  0
   70.9840   38.5735   58.0598 C   0  0  0  0  0  0  0  0  0  0  0  0
   71.9208   37.5935   58.2546 C   0  0  0  0  0  0  0  0  0  0  0  0
   71.7157   36.5925   59.1669 C   0  0  0  0  0  0  0  0  0  0  0  0
   70.5581   36.5855   59.8815 C   0  0  0  0  0  0  0  0  0  0  0  0
   69.5962   37.5849   59.6859 C   0  0  0  0  0  0  0  0  0  0  0  0
 12 13  2  0
 13 14  1  0
 13  6  1  0
  6  7  2  0
  6 11  1  0
  7  8  1  0
  8  9  2  0
  9 10  1  0
 10  1  1  0
 10 11  2  0
  1  2  1  0
  1  5  1  0
  2  3  2  0
  3  4  1  0
  4 15  1  0
  4  5  2  0
 15 16  1  0
 16 17  1  0
 17 18  2  0
 17 22  1  0
 18 19  1  0
 19 20  2  0
 20 21  1  0
 21 22  2  0
M  END
>  <minimizedAffinity>  (75) 
-8.72189

$$$$
data/reference_output_2/data/smiles/168326.pdb
     RDKit          3D

 19 20  0  0  0  0  0  0  0  0999 V2000
   69.2042   47.5338   56.0760 C   0  0  0  0  0  0  0  0  0  0  0  0
   68.9550   47.2741   54.6408 C   0  0  0  0  0  0  0  0  0  0  0  0
   69.5259   48.0405   53.6112 C   0  0  0  0  0  0  0  0  0  0  0  0
   69.3061   47.8308   52.2919 C   0  0  0  0  0  0  0  0  0  0  0  0
   68.4868   46.8266   51.8924 C   0  0  0  0  0  0  0  0  0  0  0  0
   67.8915   46.0366   52.8246 C   0  0  0  0  0  0  0  0  0  0  0  0
   67.0675   45.0259   52.4321 F   0  0  0  0  0  0  0  0  0  0  0  0
   68.1294   46.2666   54.1601 C   0  0  0  0  0  0  0  0  0  0  0  0
   68.4447   48.7033   56.5898 C   0  0  0  0  0  0  0  0  0  0  0  0
   67.3575   48.5706   57.4305 C   0  0  0  0  0  0  0  0  0  0  0  0
   66.6328   49.6138   57.9219 C   0  0  0  0  0  0  0  0  0  0  0  0
   66.9589   50.8971   57.5955 C   0  0  0  0  0  0  0  0  0  0  0  0
   68.0379   51.0973   56.7569 C   0  0  0  0  0  0  0  0  0  0  0  0
   68.3520   52.3797   56.4407 F   0  0  0  0  0  0  0  0  0  0  0  0
   68.7501   50.0197   56.2770 C   0  0  0  0  0  0  0  0  0  0  0  0
   69.0769   45.1773   56.5836 O   0  0  0  0  0  0  0  0  0  0  0  0
   69.3536   46.3891   56.9542 C   0  0  0  0  0  0  0  0  0  0  0  0
   69.8069   46.4070   58.3058 N   0  0  0  0  0  0  0  0  0  0  0  0
   69.9252   45.2986   59.0759 O   0  0  0  0  0  0  0  0  0  0  0  0
 16 17  2  0
 17 18  1  0
 17  1  1  0
 18 19  1  0
  1  2  1  0
  1  9  1  0
  2  3  2  0
  2  8  1  0
  3  4  1  0
  4  5  2  0
  5  6  1  0
  6  7  1  0
  6  8  2  0
  9 10  2  0
  9 15  1  0
 10 11  1  0
 11 12  2  0
 12 13  1  0
 13 14  1  0
 13 15  2  0
M  END
>  <minimizedAffinity>  (76) 
-8.71968

$$$$
data/200k_reference_output/data/smiles/14473.pdb
     RDKit          3D

 22 23  0  0  0  0  0  0  0  0999 V2000
   67.8714   43.9784   55.7145 N   0  0  0  0  0  0  0  0  0  0  0  0
   68.4522   43.1332   56.6714 C   0  0  0  0  0  0  0  0  0  0  0  0
   69.2347   43.6588   57.5071 O   0  0  0  0  0  0  0  0  0  0  0  0
   68.1834   41.6930   56.7286 C   0  0  0  0  0  0  0  0  0  0  0  0
   67.4454   41.1588   55.8721 O   0  0  0  0  0  0  0  0  0  0  0  0
   68.7377   40.8588   57.7394 N   0  0  0  0  0  0  0  0  0  0  0  0
   68.4984   39.4921   57.8155 N   0  0  0  0  0  0  0  0  0  0  0  0
   69.3133   38.6028   58.5587 C   0  0  0  0  0  0  0  0  0  0  0  0
   68.8355   38.0143   59.7342 C   0  0  0  0  0  0  0  0  0  0  0  0
   69.6189   37.1464   60.4670 C   0  0  0  0  0  0  0  0  0  0  0  0
   70.8969   36.8277   60.0718 C   0  0  0  0  0  0  0  0  0  0  0  0
   71.3918   37.3932   58.9180 C   0  0  0  0  0  0  0  0  0  0  0  0
   72.7784   37.0787   58.4426 C   0  0  0  0  0  0  0  0  0  0  0  0
   70.5899   38.2618   58.1960 C   0  0  0  0  0  0  0  0  0  0  0  0
   68.0944   45.3481   55.6186 N   0  0  0  0  0  0  0  0  0  0  0  0
   69.9380   48.8783   52.6704 C   0  0  0  0  0  0  0  0  0  0  0  0
   69.1439   47.6469   52.8733 C   0  0  0  0  0  0  0  0  0  0  0  0
   68.5482   47.0619   51.7757 C   0  0  0  0  0  0  0  0  0  0  0  0
   67.8088   45.9164   51.9589 C   0  0  0  0  0  0  0  0  0  0  0  0
   67.6607   45.3604   53.2004 C   0  0  0  0  0  0  0  0  0  0  0  0
   68.2483   45.9239   54.3372 C   0  0  0  0  0  0  0  0  0  0  0  0
   68.9864   47.0759   54.1166 C   0  0  0  0  0  0  0  0  0  0  0  0
 16 17  1  0
 17 18  2  0
 17 22  1  0
 18 19  1  0
 19 20  2  0
 20 21  1  0
 21 15  1  0
 21 22  2  0
 15  1  1  0
  1  2  1  0
  2  3  2  0
  2  4  1  0
  4  5  2  0
  4  6  1  0
  6  7  1  0
  7  8  1  0
  8  9  2  0
  8 14  1  0
  9 10  1  0
 10 11  2  0
 11 12  1  0
 12 13  1  0
 12 14  2  0
M  END
>  <minimizedAffinity>  (77) 
-8.71443

$$$$
data/200k_reference_output/data/smiles/68602.pdb
     RDKit          3D

 20 22  0  0  0  0  0  0  0  0999 V2000
   69.2720   45.2233   56.6806 C   0  0  0  0  0  0  0  0  0  0  0  0
   68.2145   44.6426   56.0994 N   0  0  0  0  0  0  0  0  0  0  0  0
   67.9705   43.3331   56.2357 N   0  0  0  0  0  0  0  0  0  0  0  0
   68.7767   42.5238   56.9662 C   0  0  0  0  0  0  0  0  0  0  0  0
   68.5072   41.2802   57.0692 O   0  0  0  0  0  0  0  0  0  0  0  0
   69.8572   43.0755   57.5695 C   0  0  0  0  0  0  0  0  0  0  0  0
   70.1146   44.4472   57.4285 C   0  0  0  0  0  0  0  0  0  0  0  0
   71.2967   44.9286   58.1520 C   0  0  0  0  0  0  0  0  0  0  0  0
   72.5038   44.0463   57.9243 C   0  0  0  0  0  0  0  0  0  0  0  0
   72.1884   42.5883   57.8486 C   0  0  0  0  0  0  0  0  0  0  0  0
   70.7951   42.2656   58.3768 C   0  0  0  0  0  0  0  0  0  0  0  0
   69.5302   46.6519   56.4879 C   0  0  0  0  0  0  0  0  0  0  0  0
   68.4092   47.2541   55.7152 C   0  0  0  0  0  0  0  0  0  0  0  0
   70.3988   48.8282   51.4309 N   0  0  0  0  0  0  0  0  0  0  0  0
   69.5628   47.9815   52.1858 C   0  0  0  0  0  0  0  0  0  0  0  0
   68.8433   47.0125   51.5076 C   0  0  0  0  0  0  0  0  0  0  0  0
   68.0072   46.1448   52.1661 C   0  0  0  0  0  0  0  0  0  0  0  0
   67.9085   46.2740   53.5330 C   0  0  0  0  0  0  0  0  0  0  0  0
   68.6032   47.2218   54.2530 C   0  0  0  0  0  0  0  0  0  0  0  0
   69.4318   48.0739   53.5607 C   0  0  0  0  0  0  0  0  0  0  0  0
 14 15  1  0
 15 16  2  0
 15 20  1  0
 16 17  1  0
 17 18  2  0
 18 19  1  0
 19 13  1  0
 19 20  2  0
 13 12  1  0
 12  1  1  0
  1  2  2  0
  1  7  1  0
  2  3  1  0
  3  4  1  0
  4  5  2  0
  4  6  1  0
  6  7  2  0
  6 11  1  0
  7  8  1  0
  8  9  1  0
  9 10  1  0
 10 11  1  0
M  END
>  <minimizedAffinity>  (78) 
-8.71012

$$$$
data/200k_reference_output/data/smiles/60499.pdb
     RDKit          3D

 20 21  0  0  0  0  0  0  0  0999 V2000
   68.2319   46.5571   56.4018 O   0  0  0  0  0  0  0  0  0  0  0  0
   68.4029   46.1549   55.2342 C   0  0  0  0  0  0  0  0  0  0  0  0
   68.1738   44.7558   55.0146 N   0  0  0  0  0  0  0  0  0  0  0  0
   68.8071   47.0507   54.1854 C   0  0  0  0  0  0  0  0  0  0  0  0
   68.7388   46.5910   52.8898 C   0  0  0  0  0  0  0  0  0  0  0  0
   69.1323   47.3703   51.8272 C   0  0  0  0  0  0  0  0  0  0  0  0
   69.6116   48.6530   52.0401 C   0  0  0  0  0  0  0  0  0  0  0  0
   70.0204   49.4568   50.9862 O   0  0  0  0  0  0  0  0  0  0  0  0
   69.6692   49.0932   53.3382 C   0  0  0  0  0  0  0  0  0  0  0  0
   69.2777   48.3188   54.4102 C   0  0  0  0  0  0  0  0  0  0  0  0
   67.7905   43.8806   55.9179 N   0  0  0  0  0  0  0  0  0  0  0  0
   67.9449   42.8788   56.4931 C   0  0  0  0  0  0  0  0  0  0  0  0
   68.1306   41.6659   57.1894 C   0  0  0  0  0  0  0  0  0  0  0  0
   68.4545   41.8113   58.5817 C   0  0  0  0  0  0  0  0  0  0  0  0
   68.6509   40.7355   59.3982 C   0  0  0  0  0  0  0  0  0  0  0  0
   68.5501   39.4415   58.9336 C   0  0  0  0  0  0  0  0  0  0  0  0
   68.7505   38.3647   59.7763 O   0  0  0  0  0  0  0  0  0  0  0  0
   68.2410   39.2936   57.6082 C   0  0  0  0  0  0  0  0  0  0  0  0
   68.0371   40.3763   56.7632 C   0  0  0  0  0  0  0  0  0  0  0  0
   67.7231   40.1285   55.4185 O   0  0  0  0  0  0  0  0  0  0  0  0
  1  2  2  0
  2  3  1  0
  2  4  1  0
  3 11  1  0
 11 12  2  3
 12 13  1  0
 13 14  2  0
 13 19  1  0
 14 15  1  0
 15 16  2  0
 16 17  1  0
 16 18  1  0
 18 19  2  0
 19 20  1  0
  4  5  2  0
  4 10  1  0
  5  6  1  0
  6  7  2  0
  7  8  1  0
  7  9  1  0
  9 10  2  0
M  END
>  <minimizedAffinity>  (79) 
-8.70864

$$$$
data/reference_output_2/data/smiles/172913.pdb
     RDKit          3D

 22 23  0  0  0  0  0  0  0  0999 V2000
   68.9939   46.3596   56.9227 N   0  0  0  0  0  0  0  0  0  0  0  0
   68.6234   47.2209   56.0400 C   0  0  0  0  0  0  0  0  0  0  0  0
   68.2256   48.5040   56.6372 C   0  0  0  0  0  0  0  0  0  0  0  0
   68.8351   49.6953   56.2187 C   0  0  0  0  0  0  0  0  0  0  0  0
   68.4296   50.9347   56.6574 C   0  0  0  0  0  0  0  0  0  0  0  0
   67.3803   51.0011   57.5461 C   0  0  0  0  0  0  0  0  0  0  0  0
   66.7527   49.8766   57.9831 C   0  0  0  0  0  0  0  0  0  0  0  0
   67.2032   48.6275   57.5040 C   0  0  0  0  0  0  0  0  0  0  0  0
   68.6556   46.9692   54.6098 C   0  0  0  0  0  0  0  0  0  0  0  0
   67.8969   45.9691   54.0255 C   0  0  0  0  0  0  0  0  0  0  0  0
   67.8150   45.8336   52.6343 C   0  0  0  0  0  0  0  0  0  0  0  0
   68.4750   46.6727   51.7744 C   0  0  0  0  0  0  0  0  0  0  0  0
   69.2286   47.6653   52.3427 C   0  0  0  0  0  0  0  0  0  0  0  0
   69.3078   47.8010   53.7450 C   0  0  0  0  0  0  0  0  0  0  0  0
   69.9406   44.3067   57.9274 C   0  0  0  0  0  0  0  0  0  0  0  0
   69.9795   44.8795   59.0444 O   0  0  0  0  0  0  0  0  0  0  0  0
   69.4263   45.0885   56.8369 N   0  0  0  0  0  0  0  0  0  0  0  0
   70.3931   42.9298   57.7594 C   0  0  0  0  0  0  0  0  0  0  0  0
   71.5221   42.5969   58.2047 O   0  0  0  0  0  0  0  0  0  0  0  0
   69.6652   41.9521   57.1400 O   0  0  0  0  0  0  0  0  0  0  0  0
   67.4957   41.8852   56.2423 C   0  0  0  0  0  0  0  0  0  0  0  0
   68.3598   41.5663   57.4486 C   0  0  0  0  0  0  0  0  0  0  0  0
 21 22  1  0
 22 20  1  0
 20 18  1  0
 18 19  2  0
 18 15  1  0
 15 16  2  0
 15 17  1  0
 17  1  1  0
  1  2  2  0
  2  3  1  0
  2  9  1  0
  3  4  2  0
  3  8  1  0
  4  5  1  0
  5  6  2  0
  6  7  1  0
  7  8  2  0
  9 10  2  0
  9 14  1  0
 10 11  1  0
 11 12  2  0
 12 13  1  0
 13 14  2  0
M  END
>  <minimizedAffinity>  (80) 
-8.70036

$$$$
data/reference_output_2/data/smiles/197191.pdb
     RDKit          3D

 19 21  0  0  0  0  0  0  0  0999 V2000
   66.7877   45.3194   51.1393 N   0  0  0  0  0  0  0  0  0  0  0  0
   67.7094   46.1475   51.8471 C   0  0  0  0  0  0  0  0  0  0  0  0
   67.7284   46.0991   53.2184 C   0  0  0  0  0  0  0  0  0  0  0  0
   68.6092   46.8889   53.9021 C   0  0  0  0  0  0  0  0  0  0  0  0
   69.4507   47.7119   53.2110 C   0  0  0  0  0  0  0  0  0  0  0  0
   70.4069   48.5883   53.5711 N   0  0  0  0  0  0  0  0  0  0  0  0
   70.9333   49.1348   52.4619 N   0  0  0  0  0  0  0  0  0  0  0  0
   70.3422   48.6360   51.3876 N   0  0  0  0  0  0  0  0  0  0  0  0
   69.4098   47.7398   51.8407 C   0  0  0  0  0  0  0  0  0  0  0  0
   68.5552   46.9723   51.1782 N   0  0  0  0  0  0  0  0  0  0  0  0
   68.6610   46.8743   55.2582 O   0  0  0  0  0  0  0  0  0  0  0  0
   69.3061   47.8016   56.0857 C   0  0  0  0  0  0  0  0  0  0  0  0
   68.4345   48.8378   56.6454 C   0  0  0  0  0  0  0  0  0  0  0  0
   67.3798   48.5759   57.4898 C   0  0  0  0  0  0  0  0  0  0  0  0
   66.6024   49.6134   58.0001 C   0  0  0  0  0  0  0  0  0  0  0  0
   66.8774   50.9221   57.6652 C   0  0  0  0  0  0  0  0  0  0  0  0
   67.9350   51.1967   56.8166 C   0  0  0  0  0  0  0  0  0  0  0  0
   68.6978   50.1468   56.3197 C   0  0  0  0  0  0  0  0  0  0  0  0
   69.7283   50.5142   55.4834 F   0  0  0  0  0  0  0  0  0  0  0  0
  1  2  1  0
  2  3  2  0
  2 10  1  0
  3  4  1  0
  4 11  1  0
  4  5  2  0
 11 12  1  0
 12 13  1  0
 13 14  2  0
 13 18  1  0
 14 15  1  0
 15 16  2  0
 16 17  1  0
 17 18  2  0
 18 19  1  0
  5  6  1  0
  5  9  1  0
  6  7  2  0
  7  8  1  0
  8  9  1  0
  9 10  2  0
M  END
>  <minimizedAffinity>  (81) 
-8.69930

$$$$
data/reference_output_2/data/smiles/148268.pdb
     RDKit          3D

 20 22  0  0  0  0  0  0  0  0999 V2000
   68.6508   45.3784   56.1054 C   0  0  0  0  0  0  0  0  0  0  0  0
   69.6120   45.9774   56.8311 N   0  0  0  0  0  0  0  0  0  0  0  0
   70.3737   45.3106   57.7170 C   0  0  0  0  0  0  0  0  0  0  0  0
   70.1762   43.9477   57.9062 C   0  0  0  0  0  0  0  0  0  0  0  0
   69.1992   43.3179   57.1752 C   0  0  0  0  0  0  0  0  0  0  0  0
   68.4660   44.0651   56.2932 N   0  0  0  0  0  0  0  0  0  0  0  0
   68.9318   41.8914   57.3177 C   0  0  0  0  0  0  0  0  0  0  0  0
   69.6156   41.1255   58.2183 C   0  0  0  0  0  0  0  0  0  0  0  0
   69.3173   39.7712   58.3086 C   0  0  0  0  0  0  0  0  0  0  0  0
   68.3558   39.2191   57.5081 C   0  0  0  0  0  0  0  0  0  0  0  0
   67.7237   40.0119   56.6512 N   0  0  0  0  0  0  0  0  0  0  0  0
   67.9679   41.3104   56.5224 C   0  0  0  0  0  0  0  0  0  0  0  0
   67.8545   46.1191   55.1674 N   0  0  0  0  0  0  0  0  0  0  0  0
   70.4234   48.9898   51.0335 N   0  0  0  0  0  0  0  0  0  0  0  0
   69.7829   48.2768   52.0720 C   0  0  0  0  0  0  0  0  0  0  0  0
   69.7494   48.7526   53.3713 C   0  0  0  0  0  0  0  0  0  0  0  0
   69.1203   48.0494   54.3850 C   0  0  0  0  0  0  0  0  0  0  0  0
   68.5109   46.8585   54.1298 C   0  0  0  0  0  0  0  0  0  0  0  0
   68.5349   46.3733   52.8443 C   0  0  0  0  0  0  0  0  0  0  0  0
   69.1616   47.0670   51.8199 C   0  0  0  0  0  0  0  0  0  0  0  0
 14 15  1  0
 15 16  2  0
 15 20  1  0
 16 17  1  0
 17 18  2  0
 18 13  1  0
 18 19  1  0
 13  1  1  0
  1  2  2  0
  1  6  1  0
  2  3  1  0
  3  4  2  0
  4  5  1  0
  5  7  1  0
  5  6  2  0
  7  8  2  0
  7 12  1  0
  8  9  1  0
  9 10  2  0
 10 11  1  0
 11 12  2  0
 19 20  2  0
M  END
>  <minimizedAffinity>  (82) 
-8.69575

$$$$
data/200k_reference_output/data/smiles/6677.pdb
     RDKit          3D

 22 25  0  0  0  0  0  0  0  0999 V2000
   68.4345   46.1807   54.6774 C   0  0  0  0  0  0  0  0  0  0  0  0
   67.9874   45.4982   53.5389 C   0  0  0  0  0  0  0  0  0  0  0  0
   68.2426   45.9873   52.2942 C   0  0  0  0  0  0  0  0  0  0  0  0
   68.9476   47.1662   52.1924 C   0  0  0  0  0  0  0  0  0  0  0  0
   69.3512   47.8936   51.1281 N   0  0  0  0  0  0  0  0  0  0  0  0
   70.0019   48.9560   51.5361 N   0  0  0  0  0  0  0  0  0  0  0  0
   70.0690   48.9985   52.9025 C   0  0  0  0  0  0  0  0  0  0  0  0
   69.4118   47.8831   53.3061 C   0  0  0  0  0  0  0  0  0  0  0  0
   69.1358   47.3561   54.5579 C   0  0  0  0  0  0  0  0  0  0  0  0
   70.7594   50.0766   53.6000 C   0  0  0  0  0  0  0  0  0  0  0  0
   70.3026   51.2914   54.0460 C   0  0  0  0  0  0  0  0  0  0  0  0
   71.3420   51.9860   54.6834 C   0  0  0  0  0  0  0  0  0  0  0  0
   72.4376   51.1653   54.6143 C   0  0  0  0  0  0  0  0  0  0  0  0
   72.0537   50.0580   53.9711 N   0  0  0  0  0  0  0  0  0  0  0  0
   68.1616   45.6506   55.9625 N   0  0  0  0  0  0  0  0  0  0  0  0
   67.3185   40.8545   55.7514 N   0  0  0  0  0  0  0  0  0  0  0  0
   68.0573   41.9924   56.1562 C   0  0  0  0  0  0  0  0  0  0  0  0
   69.1727   41.7678   56.9109 N   0  0  0  0  0  0  0  0  0  0  0  0
   69.9435   42.7765   57.3437 C   0  0  0  0  0  0  0  0  0  0  0  0
   69.5952   44.0483   57.0179 C   0  0  0  0  0  0  0  0  0  0  0  0
   68.4587   44.2709   56.2499 C   0  0  0  0  0  0  0  0  0  0  0  0
   67.7120   43.2533   55.8316 N   0  0  0  0  0  0  0  0  0  0  0  0
 16 17  1  0
 17 18  2  0
 17 22  1  0
 18 19  1  0
 19 20  2  0
 20 21  1  0
 21 15  1  0
 21 22  2  0
 15  1  1  0
  1  2  2  0
  1  9  1  0
  2  3  1  0
  3  4  2  0
  4  5  1  0
  4  8  1  0
  5  6  1  0
  6  7  2  0
  7 10  1  0
  7  8  1  0
 10 11  2  0
 10 14  1  0
 11 12  1  0
 12 13  2  0
 13 14  1  0
  8  9  2  0
M  END
>  <minimizedAffinity>  (83) 
-8.69565

$$$$
data/reference_output_2/data/smiles/178148.pdb
     RDKit          3D

 20 21  0  0  0  0  0  0  0  0999 V2000
   69.9148   49.1759   52.4863 S   0  0  0  0  0  0  0  0  0  0  0  0
   69.9699   49.4975   51.0097 O   0  0  0  0  0  0  0  0  0  0  0  0
   71.3060   48.9843   52.9660 O   0  0  0  0  0  0  0  0  0  0  0  0
   68.2315   45.8765   54.0289 C   0  0  0  0  0  0  0  0  0  0  0  0
   67.6248   45.3097   52.9151 C   0  0  0  0  0  0  0  0  0  0  0  0
   67.7362   45.9314   51.7322 N   0  0  0  0  0  0  0  0  0  0  0  0
   68.4203   47.0824   51.6153 C   0  0  0  0  0  0  0  0  0  0  0  0
   69.0320   47.6669   52.7044 C   0  0  0  0  0  0  0  0  0  0  0  0
   68.9392   47.0629   53.9171 C   0  0  0  0  0  0  0  0  0  0  0  0
   68.4276   45.8368   56.3082 O   0  0  0  0  0  0  0  0  0  0  0  0
   68.1201   45.2301   55.2784 N   0  0  0  0  0  0  0  0  0  0  0  0
   67.6762   43.9454   55.3420 O   0  0  0  0  0  0  0  0  0  0  0  0
   69.1683   50.4556   53.3045 N   0  0  0  0  0  0  0  0  0  0  0  0
   69.7720   50.7834   54.5670 C   0  0  0  0  0  0  0  0  0  0  0  0
   68.8984   50.4925   55.7189 C   0  0  0  0  0  0  0  0  0  0  0  0
   68.8715   49.2546   56.3150 C   0  0  0  0  0  0  0  0  0  0  0  0
   68.0356   49.0583   57.3782 C   0  0  0  0  0  0  0  0  0  0  0  0
   67.2089   50.0380   57.8950 C   0  0  0  0  0  0  0  0  0  0  0  0
   67.2458   51.2758   57.2884 C   0  0  0  0  0  0  0  0  0  0  0  0
   68.0829   51.4915   56.2135 C   0  0  0  0  0  0  0  0  0  0  0  0
 10 11  2  0
 11 12  1  0
 11  4  1  0
  4  5  2  0
  4  9  1  0
  5  6  1  0
  6  7  2  0
  7  8  1  0
  8  1  1  0
  8  9  2  0
  1  2  2  0
  1  3  2  0
  1 13  1  0
 13 14  1  0
 14 15  1  0
 15 16  2  0
 15 20  1  0
 16 17  1  0
 17 18  2  0
 18 19  1  0
 19 20  2  0
M  CHG  2  11   1  12  -1
M  END
>  <minimizedAffinity>  (84) 
-8.69562

$$$$
data/200k_reference_output/data/smiles/83849.pdb
     RDKit          3D

 21 22  0  0  0  0  0  0  0  0999 V2000
   68.3150   42.6464   56.4630 C   0  0  0  0  0  0  0  0  0  0  0  0
   67.7146   43.7336   56.1239 N   0  0  0  0  0  0  0  0  0  0  0  0
   68.1411   44.5379   55.0632 N   0  0  0  0  0  0  0  0  0  0  0  0
   68.2995   45.9400   55.1647 C   0  0  0  0  0  0  0  0  0  0  0  0
   68.0198   46.4202   56.3125 O   0  0  0  0  0  0  0  0  0  0  0  0
   68.7405   46.7985   54.0769 C   0  0  0  0  0  0  0  0  0  0  0  0
   69.4004   47.9875   54.2413 C   0  0  0  0  0  0  0  0  0  0  0  0
   69.7956   48.7502   53.1583 C   0  0  0  0  0  0  0  0  0  0  0  0
   69.5476   48.3540   51.8557 C   0  0  0  0  0  0  0  0  0  0  0  0
   68.8827   47.1556   51.6918 C   0  0  0  0  0  0  0  0  0  0  0  0
   68.4842   46.3875   52.7715 C   0  0  0  0  0  0  0  0  0  0  0  0
   67.8206   45.1921   52.5876 O   0  0  0  0  0  0  0  0  0  0  0  0
   67.8972   41.7801   57.5681 C   0  0  0  0  0  0  0  0  0  0  0  0
   67.8361   40.0450   55.9184 O   0  0  0  0  0  0  0  0  0  0  0  0
   68.0440   40.3635   57.0964 C   0  0  0  0  0  0  0  0  0  0  0  0
   68.4485   39.3652   58.1021 C   0  0  0  0  0  0  0  0  0  0  0  0
   67.4841   38.7946   58.9097 C   0  0  0  0  0  0  0  0  0  0  0  0
   67.8137   37.8730   59.8662 C   0  0  0  0  0  0  0  0  0  0  0  0
   69.1311   37.4672   60.0709 C   0  0  0  0  0  0  0  0  0  0  0  0
   70.0922   38.0376   59.2639 C   0  0  0  0  0  0  0  0  0  0  0  0
   69.7535   38.9809   58.2857 C   0  0  0  0  0  0  0  0  0  0  0  0
 14 15  2  0
 15 13  1  0
 15 16  1  0
 13  1  1  0
  1  2  2  0
  2  3  1  0
  3  4  1  0
  4  5  2  0
  4  6  1  0
  6  7  2  0
  6 11  1  0
  7  8  1  0
  8  9  2  0
  9 10  1  0
 10 11  2  0
 11 12  1  0
 16 17  2  0
 16 21  1  0
 17 18  1  0
 18 19  2  0
 19 20  1  0
 20 21  2  0
M  END
>  <minimizedAffinity>  (85) 
-8.69450

$$$$
data/reference_output_2/data/smiles/87734.pdb
     RDKit          3D

 20 21  0  0  0  0  0  0  0  0999 V2000
   68.5013   47.1777   54.9917 C   0  0  0  0  0  0  0  0  0  0  0  0
   67.7452   46.2555   54.3043 C   0  0  0  0  0  0  0  0  0  0  0  0
   67.8010   46.1245   52.9370 C   0  0  0  0  0  0  0  0  0  0  0  0
   67.0422   45.1979   52.2439 O   0  0  0  0  0  0  0  0  0  0  0  0
   68.6689   46.9747   52.2459 C   0  0  0  0  0  0  0  0  0  0  0  0
   68.7384   46.8578   50.8661 O   0  0  0  0  0  0  0  0  0  0  0  0
   69.4474   47.9140   52.8848 C   0  0  0  0  0  0  0  0  0  0  0  0
   69.3397   47.9880   54.2546 C   0  0  0  0  0  0  0  0  0  0  0  0
   70.3371   48.7826   52.1607 N   0  0  0  0  0  0  0  0  0  0  0  0
   70.1063   49.2910   51.0746 O   0  0  0  0  0  0  0  0  0  0  0  0
   71.5558   49.0404   52.7831 O   0  0  0  0  0  0  0  0  0  0  0  0
   68.4596   47.3015   56.4691 C   0  0  0  0  0  0  0  0  0  0  0  0
   67.3389   47.6141   56.9473 O   0  0  0  0  0  0  0  0  0  0  0  0
   73.0978   46.3342   59.7911 C   0  0  0  0  0  0  0  0  0  0  0  0
   71.9091   46.5924   58.9167 C   0  0  0  0  0  0  0  0  0  0  0  0
   71.2266   45.5521   58.3119 C   0  0  0  0  0  0  0  0  0  0  0  0
   70.1279   45.7917   57.5109 C   0  0  0  0  0  0  0  0  0  0  0  0
   69.6532   47.0645   57.2716 C   0  0  0  0  0  0  0  0  0  0  0  0
   70.3232   48.1124   57.8649 C   0  0  0  0  0  0  0  0  0  0  0  0
   71.4312   47.8577   58.6708 C   0  0  0  0  0  0  0  0  0  0  0  0
 14 15  1  0
 15 16  2  0
 15 20  1  0
 16 17  1  0
 17 18  2  0
 18 12  1  0
 18 19  1  0
 12 13  2  0
 12  1  1  0
  1  2  2  0
  1  8  1  0
  2  3  1  0
  3  4  1  0
  3  5  2  0
  5  6  1  0
  5  7  1  0
  7  9  1  0
  7  8  2  0
  9 10  2  0
  9 11  1  0
 19 20  2  0
M  CHG  2   9   1  11  -1
M  END
>  <minimizedAffinity>  (86) 
-8.68650

$$$$
data/reference_output_2/data/smiles/179198.pdb
     RDKit          3D

 22 24  0  0  0  0  0  0  0  0999 V2000
   68.2019   45.3547   55.3264 C   0  0  0  0  0  0  0  0  0  0  0  0
   68.6313   45.8982   56.4801 N   0  0  0  0  0  0  0  0  0  0  0  0
   69.2650   47.0924   56.4854 C   0  0  0  0  0  0  0  0  0  0  0  0
   69.4784   47.7529   55.3486 N   0  0  0  0  0  0  0  0  0  0  0  0
   69.0820   47.2803   54.1550 C   0  0  0  0  0  0  0  0  0  0  0  0
   69.3270   48.0116   53.0123 C   0  0  0  0  0  0  0  0  0  0  0  0
   68.8949   47.4778   51.8180 C   0  0  0  0  0  0  0  0  0  0  0  0
   68.2372   46.2452   51.7868 C   0  0  0  0  0  0  0  0  0  0  0  0
   68.0108   45.5445   52.9502 C   0  0  0  0  0  0  0  0  0  0  0  0
   68.4280   46.0487   54.1547 C   0  0  0  0  0  0  0  0  0  0  0  0
   70.0199   49.2941   53.0825 C   0  0  0  0  0  0  0  0  0  0  0  0
   69.3480   50.5294   53.1733 N   0  0  0  0  0  0  0  0  0  0  0  0
   71.2793   49.3146   53.0620 O   0  0  0  0  0  0  0  0  0  0  0  0
   67.5309   44.1035   55.2988 N   0  0  0  0  0  0  0  0  0  0  0  0
   69.7994   42.0909   57.4788 C   0  0  0  0  0  0  0  0  0  0  0  0
   69.0159   40.9811   57.7400 C   0  0  0  0  0  0  0  0  0  0  0  0
   67.7386   40.8990   57.1902 C   0  0  0  0  0  0  0  0  0  0  0  0
   67.2644   41.9205   56.3935 C   0  0  0  0  0  0  0  0  0  0  0  0
   68.0341   43.0557   56.1110 C   0  0  0  0  0  0  0  0  0  0  0  0
   69.2917   43.1056   56.6697 C   0  0  0  0  0  0  0  0  0  0  0  0
   72.2269   42.3343   58.4741 C   0  0  0  0  0  0  0  0  0  0  0  0
   71.1184   42.2176   58.0275 C   0  0  0  0  0  0  0  0  0  0  0  0
 21 22  3  0
 22 15  1  0
 15 16  2  0
 15 20  1  0
 16 17  1  0
 17 18  2  0
 18 19  1  0
 19 14  1  0
 19 20  2  0
 14  1  1  0
  1  2  2  0
  1 10  1  0
  2  3  1  0
  3  4  2  0
  4  5  1  0
  5  6  1  0
  5 10  2  0
  6 11  1  0
  6  7  2  0
 11 12  1  0
 11 13  2  0
  7  8  1  0
  8  9  2  0
  9 10  1  0
M  END
>  <minimizedAffinity>  (87) 
-8.68212

$$$$
data/200k_reference_output/data/smiles/1054.pdb
     RDKit          3D

 20 22  0  0  0  0  0  0  0  0999 V2000
   70.0564   48.5448   54.9811 C   0  0  0  0  0  0  0  0  0  0  0  0
   70.9153   49.3954   54.3452 N   0  0  0  0  0  0  0  0  0  0  0  0
   71.0512   49.4504   53.0418 N   0  0  0  0  0  0  0  0  0  0  0  0
   70.3545   48.6703   52.2019 C   0  0  0  0  0  0  0  0  0  0  0  0
   70.4775   48.7174   50.9506 O   0  0  0  0  0  0  0  0  0  0  0  0
   69.4643   47.7772   52.7378 C   0  0  0  0  0  0  0  0  0  0  0  0
   68.7198   46.9216   51.9451 C   0  0  0  0  0  0  0  0  0  0  0  0
   67.8431   46.0124   52.4909 C   0  0  0  0  0  0  0  0  0  0  0  0
   67.6983   45.9461   53.8504 C   0  0  0  0  0  0  0  0  0  0  0  0
   68.4458   46.8052   54.6429 C   0  0  0  0  0  0  0  0  0  0  0  0
   69.3366   47.7357   54.1267 C   0  0  0  0  0  0  0  0  0  0  0  0
   69.8958   48.5683   56.4444 C   0  0  0  0  0  0  0  0  0  0  0  0
   68.6156   50.6677   56.7379 C   0  0  0  0  0  0  0  0  0  0  0  0
   67.4788   51.3837   57.1405 C   0  0  0  0  0  0  0  0  0  0  0  0
   66.4031   50.7657   57.7266 C   0  0  0  0  0  0  0  0  0  0  0  0
   66.4978   49.3986   57.9004 C   0  0  0  0  0  0  0  0  0  0  0  0
   67.6008   48.6934   57.5115 C   0  0  0  0  0  0  0  0  0  0  0  0
   68.6780   49.2941   56.9252 C   0  0  0  0  0  0  0  0  0  0  0  0
   69.4234   52.5412   55.2696 C   0  0  0  0  0  0  0  0  0  0  0  0
   69.6536   51.4699   56.2202 N   0  0  0  0  0  0  0  0  0  0  0  0
 19 20  1  0
 20 13  1  0
 13 14  2  0
 13 18  1  0
 14 15  1  0
 15 16  2  0
 16 17  1  0
 17 18  2  0
 18 12  1  0
 12  1  1  0
  1  2  2  0
  1 11  1  0
  2  3  1  0
  3  4  1  0
  4  5  2  0
  4  6  1  0
  6  7  1  0
  6 11  2  0
  7  8  2  0
  8  9  1  0
  9 10  2  0
 10 11  1  0
M  END
>  <minimizedAffinity>  (88) 
-8.68205

$$$$
data/200k_reference_output/data/smiles/87116.pdb
     RDKit          3D

 19 20  0  0  0  0  0  0  0  0999 V2000
   69.2462   47.7854   52.6936 C   0  0  0  0  0  0  0  0  0  0  0  0
   69.3617   47.6944   54.0554 C   0  0  0  0  0  0  0  0  0  0  0  0
   68.7404   46.7635   54.7937 N   0  0  0  0  0  0  0  0  0  0  0  0
   67.9632   45.8765   54.1519 C   0  0  0  0  0  0  0  0  0  0  0  0
   67.7783   45.8799   52.7749 C   0  0  0  0  0  0  0  0  0  0  0  0
   66.9713   44.9543   52.1266 O   0  0  0  0  0  0  0  0  0  0  0  0
   68.4474   46.8704   52.0479 C   0  0  0  0  0  0  0  0  0  0  0  0
   68.2873   46.8835   50.7998 O   0  0  0  0  0  0  0  0  0  0  0  0
   70.6103   48.4982   50.9102 O   0  0  0  0  0  0  0  0  0  0  0  0
   69.9287   48.8006   51.9220 C   0  0  0  0  0  0  0  0  0  0  0  0
   69.8781   50.1561   52.2426 O   0  0  0  0  0  0  0  0  0  0  0  0
   68.9154   46.7358   56.2301 C   0  0  0  0  0  0  0  0  0  0  0  0
   69.5702   48.0406   56.6232 C   0  0  0  0  0  0  0  0  0  0  0  0
   68.5996   49.1052   56.9267 C   0  0  0  0  0  0  0  0  0  0  0  0
   68.7448   50.4046   56.4718 C   0  0  0  0  0  0  0  0  0  0  0  0
   67.8276   51.3943   56.7635 C   0  0  0  0  0  0  0  0  0  0  0  0
   66.7128   51.1300   57.5304 C   0  0  0  0  0  0  0  0  0  0  0  0
   66.5632   49.8369   57.9855 C   0  0  0  0  0  0  0  0  0  0  0  0
   67.4816   48.8468   57.6944 C   0  0  0  0  0  0  0  0  0  0  0  0
  9 10  2  0
 10 11  1  0
 10  1  1  0
  1  2  2  0
  1  7  1  0
  2  3  1  0
  3 12  1  0
  3  4  1  0
 12 13  1  0
 13 14  1  0
 14 15  2  0
 14 19  1  0
 15 16  1  0
 16 17  2  0
 17 18  1  0
 18 19  2  0
  4  5  2  0
  5  6  1  0
  5  7  1  0
  7  8  2  0
M  END
>  <minimizedAffinity>  (89) 
-8.67917

$$$$
data/reference_output_2/data/smiles/124967.pdb
     RDKit          3D

 22 25  0  0  0  0  0  0  0  0999 V2000
   69.2351   47.8311   52.6534 C   0  0  0  0  0  0  0  0  0  0  0  0
   68.4468   46.9625   51.9625 C   0  0  0  0  0  0  0  0  0  0  0  0
   67.8635   45.8632   52.5728 C   0  0  0  0  0  0  0  0  0  0  0  0
   68.0859   45.6379   53.9283 C   0  0  0  0  0  0  0  0  0  0  0  0
   67.6922   44.7039   54.8141 N   0  0  0  0  0  0  0  0  0  0  0  0
   68.1983   44.9574   56.0049 N   0  0  0  0  0  0  0  0  0  0  0  0
   68.9586   46.0835   55.9615 C   0  0  0  0  0  0  0  0  0  0  0  0
   68.8856   46.5095   54.6515 C   0  0  0  0  0  0  0  0  0  0  0  0
   69.4365   47.5756   54.0054 C   0  0  0  0  0  0  0  0  0  0  0  0
   69.6894   46.7001   57.0650 C   0  0  0  0  0  0  0  0  0  0  0  0
   69.6684   48.0560   57.3233 C   0  0  0  0  0  0  0  0  0  0  0  0
   70.3799   48.6023   58.3837 C   0  0  0  0  0  0  0  0  0  0  0  0
   71.1344   47.8027   59.2176 C   0  0  0  0  0  0  0  0  0  0  0  0
   71.1611   46.4466   58.9663 C   0  0  0  0  0  0  0  0  0  0  0  0
   70.4477   45.9089   57.9058 C   0  0  0  0  0  0  0  0  0  0  0  0
   71.9271   45.6678   59.8207 O   0  0  0  0  0  0  0  0  0  0  0  0
   72.6907   46.1725   60.8839 C   0  0  0  0  0  0  0  0  0  0  0  0
   73.0370   47.6237   60.7506 C   0  0  0  0  0  0  0  0  0  0  0  0
   71.8619   48.3083   60.2910 O   0  0  0  0  0  0  0  0  0  0  0  0
   69.8639   50.2461   52.7162 N   0  0  0  0  0  0  0  0  0  0  0  0
   69.8672   48.9974   52.0504 C   0  0  0  0  0  0  0  0  0  0  0  0
   70.4260   48.9153   50.9306 O   0  0  0  0  0  0  0  0  0  0  0  0
 20 21  1  0
 21 22  2  0
 21  1  1  0
  1  2  2  0
  1  9  1  0
  2  3  1  0
  3  4  2  0
  4  5  1  0
  4  8  1  0
  5  6  1  0
  6  7  2  0
  7 10  1  0
  7  8  1  0
 10 11  2  0
 10 15  1  0
 11 12  1  0
 12 13  2  0
 13 14  1  0
 13 19  1  0
 14 15  2  0
 14 16  1  0
 16 17  1  0
 17 18  1  0
 18 19  1  0
  8  9  2  0
M  END
>  <minimizedAffinity>  (90) 
-8.67846

$$$$
data/reference_output_2/data/smiles/113206.pdb
     RDKit          3D

 20 21  0  0  0  0  0  0  0  0999 V2000
   69.2574   47.7919   52.6362 C   0  0  0  0  0  0  0  0  0  0  0  0
   69.3770   47.7846   54.0088 C   0  0  0  0  0  0  0  0  0  0  0  0
   68.7387   46.8932   54.7882 N   0  0  0  0  0  0  0  0  0  0  0  0
   67.9551   45.9793   54.1913 C   0  0  0  0  0  0  0  0  0  0  0  0
   67.8012   45.9462   52.8070 C   0  0  0  0  0  0  0  0  0  0  0  0
   66.9866   44.9931   52.2042 O   0  0  0  0  0  0  0  0  0  0  0  0
   68.4632   46.8662   52.0284 C   0  0  0  0  0  0  0  0  0  0  0  0
   68.3504   46.8675   50.7901 O   0  0  0  0  0  0  0  0  0  0  0  0
   70.6780   48.4661   50.8446 O   0  0  0  0  0  0  0  0  0  0  0  0
   69.9677   48.7770   51.8313 C   0  0  0  0  0  0  0  0  0  0  0  0
   69.8716   50.1340   52.1509 O   0  0  0  0  0  0  0  0  0  0  0  0
   68.8418   46.8589   56.2090 C   0  0  0  0  0  0  0  0  0  0  0  0
   69.5758   48.0189   56.8116 C   0  0  0  0  0  0  0  0  0  0  0  0
   68.5778   49.0973   57.0609 C   0  0  0  0  0  0  0  0  0  0  0  0
   67.4301   48.8400   57.7870 C   0  0  0  0  0  0  0  0  0  0  0  0
   66.4847   49.8308   58.0326 C   0  0  0  0  0  0  0  0  0  0  0  0
   66.6712   51.1038   57.5527 C   0  0  0  0  0  0  0  0  0  0  0  0
   67.8091   51.3759   56.8273 C   0  0  0  0  0  0  0  0  0  0  0  0
   68.7303   50.3935   56.5929 C   0  0  0  0  0  0  0  0  0  0  0  0
   70.1661   50.7738   55.6678 Cl  0  0  0  0  0  0  0  0  0  0  0  0
  9 10  2  0
 10 11  1  0
 10  1  1  0
  1  2  2  0
  1  7  1  0
  2  3  1  0
  3 12  1  0
  3  4  1  0
 12 13  1  0
 13 14  1  0
 14 15  2  0
 14 19  1  0
 15 16  1  0
 16 17  2  0
 17 18  1  0
 18 19  2  0
 19 20  1  0
  4  5  2  0
  5  6  1  0
  5  7  1  0
  7  8  2  0
M  END
>  <minimizedAffinity>  (91) 
-8.67671

$$$$
data/200k_reference_output/data/smiles/81542.pdb
     RDKit          3D

 21 23  0  0  0  0  0  0  0  0999 V2000
   67.2786   43.1934   55.7920 O   0  0  0  0  0  0  0  0  0  0  0  0
   68.3484   43.0173   56.4299 C   0  0  0  0  0  0  0  0  0  0  0  0
   68.8947   41.8185   56.9549 N   0  0  0  0  0  0  0  0  0  0  0  0
   70.1323   42.0527   57.6145 C   0  0  0  0  0  0  0  0  0  0  0  0
   71.0148   41.2112   58.2678 C   0  0  0  0  0  0  0  0  0  0  0  0
   72.1754   41.6913   58.8430 C   0  0  0  0  0  0  0  0  0  0  0  0
   72.4222   43.0439   58.7412 C   0  0  0  0  0  0  0  0  0  0  0  0
   71.5275   43.8902   58.0808 C   0  0  0  0  0  0  0  0  0  0  0  0
   70.3719   43.4074   57.5088 C   0  0  0  0  0  0  0  0  0  0  0  0
   69.2760   44.0696   56.7689 C   0  0  0  0  0  0  0  0  0  0  0  0
   69.1629   45.3213   56.4884 N   0  0  0  0  0  0  0  0  0  0  0  0
   68.0902   45.8706   55.7925 N   0  0  0  0  0  0  0  0  0  0  0  0
   68.2796   46.2365   54.4311 C   0  0  0  0  0  0  0  0  0  0  0  0
   67.6068   45.5207   53.4444 C   0  0  0  0  0  0  0  0  0  0  0  0
   67.7543   45.8170   52.1100 C   0  0  0  0  0  0  0  0  0  0  0  0
   68.5839   46.8424   51.7276 C   0  0  0  0  0  0  0  0  0  0  0  0
   69.2757   47.5866   52.6586 C   0  0  0  0  0  0  0  0  0  0  0  0
   69.0962   47.2523   53.9936 C   0  0  0  0  0  0  0  0  0  0  0  0
   70.1654   48.6826   52.2625 C   0  0  0  0  0  0  0  0  0  0  0  0
   71.1399   48.9647   52.9726 O   0  0  0  0  0  0  0  0  0  0  0  0
   69.9321   49.4070   51.1039 O   0  0  0  0  0  0  0  0  0  0  0  0
  1  2  2  0
  2  3  1  0
  2 10  1  0
  3  4  1  0
  4  5  2  0
  4  9  1  0
  5  6  1  0
  6  7  2  0
  7  8  1  0
  8  9  2  0
  9 10  1  0
 10 11  2  0
 11 12  1  0
 12 13  1  0
 13 14  2  0
 13 18  1  0
 14 15  1  0
 15 16  2  0
 16 17  1  0
 17 19  1  0
 17 18  2  0
 19 20  2  0
 19 21  1  0
M  END
>  <minimizedAffinity>  (92) 
-8.67507

$$$$
data/200k_reference_output/data/smiles/70110.pdb
     RDKit          3D

 21 23  0  0  0  0  0  0  0  0999 V2000
   69.4750   48.4647   54.3001 C   0  0  0  0  0  0  0  0  0  0  0  0
   69.3382   48.3914   55.6682 C   0  0  0  0  0  0  0  0  0  0  0  0
   68.5804   47.3947   56.2709 C   0  0  0  0  0  0  0  0  0  0  0  0
   68.4418   47.3049   57.5160 O   0  0  0  0  0  0  0  0  0  0  0  0
   67.9781   46.5023   55.5281 O   0  0  0  0  0  0  0  0  0  0  0  0
   68.0735   46.5273   54.2173 C   0  0  0  0  0  0  0  0  0  0  0  0
   67.4115   45.5663   53.4688 C   0  0  0  0  0  0  0  0  0  0  0  0
   67.4811   45.5683   52.0894 C   0  0  0  0  0  0  0  0  0  0  0  0
   66.8065   44.5910   51.3682 O   0  0  0  0  0  0  0  0  0  0  0  0
   68.2296   46.5541   51.4836 C   0  0  0  0  0  0  0  0  0  0  0  0
   68.9035   47.5246   52.2017 C   0  0  0  0  0  0  0  0  0  0  0  0
   68.8154   47.4949   53.5668 C   0  0  0  0  0  0  0  0  0  0  0  0
   70.3586   49.4651   53.7234 C   0  0  0  0  0  0  0  0  0  0  0  0
   69.6205   50.7437   53.5028 C   0  0  0  0  0  0  0  0  0  0  0  0
   72.7735   53.7109   55.6277 C   0  0  0  0  0  0  0  0  0  0  0  0
   71.3600   53.2177   55.5743 C   0  0  0  0  0  0  0  0  0  0  0  0
   70.3798   53.6858   56.4278 C   0  0  0  0  0  0  0  0  0  0  0  0
   69.0979   53.1844   56.3360 C   0  0  0  0  0  0  0  0  0  0  0  0
   68.7813   52.2100   55.3896 C   0  0  0  0  0  0  0  0  0  0  0  0
   69.7667   51.7611   54.5538 C   0  0  0  0  0  0  0  0  0  0  0  0
   71.0031   52.2950   54.6968 N   0  0  0  0  0  0  0  0  0  0  0  0
 15 16  1  0
 16 17  2  0
 16 21  1  0
 17 18  1  0
 18 19  2  0
 19 20  1  0
 20 14  1  0
 20 21  2  0
 14 13  1  0
 13  1  1  0
  1  2  2  0
  1 12  1  0
  2  3  1  0
  3  4  2  0
  3  5  1  0
  5  6  1  0
  6  7  1  0
  6 12  2  0
  7  8  2  0
  8  9  1  0
  8 10  1  0
 10 11  2  0
 11 12  1  0
M  END
>  <minimizedAffinity>  (93) 
-8.67305

$$$$
data/200k_reference_output/data/smiles/85644.pdb
     RDKit          3D

 20 21  0  0  0  0  0  0  0  0999 V2000
   71.5125   49.3731   53.5629 O   0  0  0  0  0  0  0  0  0  0  0  0
   70.2226   49.4962   53.4947 C   0  0  0  0  0  0  0  0  0  0  0  0
   69.4681   48.2993   53.1785 C   0  0  0  0  0  0  0  0  0  0  0  0
   68.6073   47.8010   54.1646 C   0  0  0  0  0  0  0  0  0  0  0  0
   67.8311   46.6964   53.9319 C   0  0  0  0  0  0  0  0  0  0  0  0
   67.9245   46.0929   52.6964 C   0  0  0  0  0  0  0  0  0  0  0  0
   67.1363   44.9608   52.4384 O   0  0  0  0  0  0  0  0  0  0  0  0
   68.7635   46.5656   51.7119 C   0  0  0  0  0  0  0  0  0  0  0  0
   69.5604   47.6983   51.9531 C   0  0  0  0  0  0  0  0  0  0  0  0
   70.3935   48.1496   50.9625 O   0  0  0  0  0  0  0  0  0  0  0  0
   69.7252   50.8375   53.7505 C   0  0  2  0  0  0  0  0  0  0  0  0
   70.5781   51.7288   53.0009 O   0  0  0  0  0  0  0  0  0  0  0  0
   69.9960   51.2771   55.1911 C   0  0  0  0  0  0  0  0  0  0  0  0
   68.9928   50.8325   56.1507 C   0  0  0  0  0  0  0  0  0  0  0  0
   67.8579   51.5767   56.4009 C   0  0  0  0  0  0  0  0  0  0  0  0
   66.9147   51.1533   57.3061 C   0  0  0  0  0  0  0  0  0  0  0  0
   67.1174   49.9755   57.9605 C   0  0  0  0  0  0  0  0  0  0  0  0
   66.1822   49.5250   58.8796 O   0  0  0  0  0  0  0  0  0  0  0  0
   68.2435   49.2101   57.7309 C   0  0  0  0  0  0  0  0  0  0  0  0
   69.1750   49.6305   56.8346 C   0  0  0  0  0  0  0  0  0  0  0  0
  1  2  2  0
  2  3  1  0
  2 11  1  0
  3  4  2  0
  3  9  1  0
  4  5  1  0
  5  6  2  0
  6  7  1  0
  6  8  1  0
  8  9  2  0
  9 10  1  0
 11 12  1  6
 11 13  1  0
 13 14  1  0
 14 15  2  0
 14 20  1  0
 15 16  1  0
 16 17  2  0
 17 18  1  0
 17 19  1  0
 19 20  2  0
M  END
>  <minimizedAffinity>  (94) 
-8.67289

$$$$
data/200k_reference_output/data/smiles/31695.pdb
     RDKit          3D

 20 22  0  0  0  0  0  0  0  0999 V2000
   68.8457   47.4974   56.1643 N   0  0  0  0  0  0  0  0  0  0  0  0
   68.3134   48.7331   56.5671 C   0  0  0  0  0  0  0  0  0  0  0  0
   67.3589   48.7030   57.6045 C   0  0  0  0  0  0  0  0  0  0  0  0
   66.8269   49.8835   58.0252 C   0  0  0  0  0  0  0  0  0  0  0  0
   67.2024   51.0896   57.4594 C   0  0  0  0  0  0  0  0  0  0  0  0
   68.1366   51.0984   56.4488 C   0  0  0  0  0  0  0  0  0  0  0  0
   68.5276   52.2855   55.8730 C   0  0  0  0  0  0  0  0  0  0  0  0
   69.4500   52.3738   54.8677 C   0  0  0  0  0  0  0  0  0  0  0  0
   70.0107   51.1744   54.4184 C   0  0  0  0  0  0  0  0  0  0  0  0
   69.6443   49.9868   54.9711 C   0  0  0  0  0  0  0  0  0  0  0  0
   68.7118   49.9208   55.9821 C   0  0  0  0  0  0  0  0  0  0  0  0
   68.4198   46.5986   55.2372 N   0  0  0  0  0  0  0  0  0  0  0  0
   66.8062   45.4358   51.0051 O   0  0  0  0  0  0  0  0  0  0  0  0
   67.6456   46.1208   51.6708 C   0  0  0  0  0  0  0  0  0  0  0  0
   67.5753   45.9770   53.0697 C   0  0  0  0  0  0  0  0  0  0  0  0
   68.4904   46.7248   53.8012 C   0  0  0  0  0  0  0  0  0  0  0  0
   69.3518   47.5070   53.2093 N   0  0  0  0  0  0  0  0  0  0  0  0
   69.4170   47.6422   51.8801 C   0  0  0  0  0  0  0  0  0  0  0  0
   70.2299   48.3802   51.2831 O   0  0  0  0  0  0  0  0  0  0  0  0
   68.5314   46.9220   51.1198 N   0  0  0  0  0  0  0  0  0  0  0  0
 13 14  2  0
 14 15  1  0
 14 20  1  0
 15 16  2  0
 16 12  1  0
 16 17  1  0
 12  1  1  0
  1  2  1  0
  2  3  2  0
  2 11  1  0
  3  4  1  0
  4  5  2  0
  5  6  1  0
  6  7  1  0
  6 11  2  0
  7  8  2  0
  8  9  1  0
  9 10  2  0
 10 11  1  0
 17 18  1  0
 18 19  2  0
 18 20  1  0
M  END
>  <minimizedAffinity>  (95) 
-8.67207

$$$$
data/200k_reference_output/data/smiles/81399.pdb
     RDKit          3D

 22 24  0  0  0  0  0  0  0  0999 V2000
   69.7997   48.5895   54.3590 N   0  0  0  0  0  0  0  0  0  0  0  0
   70.4697   49.1617   53.3469 N   0  0  0  0  0  0  0  0  0  0  0  0
   70.1151   48.6222   52.1704 C   0  0  0  0  0  0  0  0  0  0  0  0
   70.5118   48.8856   51.0171 O   0  0  0  0  0  0  0  0  0  0  0  0
   69.1605   47.6437   52.4273 C   0  0  0  0  0  0  0  0  0  0  0  0
   68.4504   46.7680   51.6343 C   0  0  0  0  0  0  0  0  0  0  0  0
   67.5570   45.8798   52.1939 C   0  0  0  0  0  0  0  0  0  0  0  0
   67.3981   45.8959   53.5599 C   0  0  0  0  0  0  0  0  0  0  0  0
   68.1127   46.7767   54.3595 C   0  0  0  0  0  0  0  0  0  0  0  0
   69.0108   47.6733   53.8018 C   0  0  0  0  0  0  0  0  0  0  0  0
   66.8206   44.9721   51.3668 N   0  0  0  0  0  0  0  0  0  0  0  0
   66.6593   43.8021   51.7147 O   0  0  0  0  0  0  0  0  0  0  0  0
   66.2792   45.3792   50.1722 O   0  0  0  0  0  0  0  0  0  0  0  0
   69.9874   49.0285   55.6955 C   0  0  0  0  0  0  0  0  0  0  0  0
   68.5132   50.8960   56.4239 C   0  0  0  0  0  0  0  0  0  0  0  0
   67.4104   51.2890   57.1733 C   0  0  0  0  0  0  0  0  0  0  0  0
   66.6697   50.3973   57.9099 C   0  0  0  0  0  0  0  0  0  0  0  0
   67.0126   49.0819   57.9162 C   0  0  0  0  0  0  0  0  0  0  0  0
   68.1049   48.6853   57.1751 C   0  0  0  0  0  0  0  0  0  0  0  0
   68.8728   49.5798   56.4183 C   0  0  0  0  0  0  0  0  0  0  0  0
   69.5972   53.1003   56.2390 C   0  0  0  0  0  0  0  0  0  0  0  0
   69.1920   51.8552   55.7195 O   0  0  0  0  0  0  0  0  0  0  0  0
 21 22  1  0
 22 15  1  0
 15 16  2  0
 15 20  1  0
 16 17  1  0
 17 18  2  0
 18 19  1  0
 19 20  2  0
 20 14  1  0
 14  1  1  0
  1  2  1  0
  1 10  1  0
  2  3  1  0
  3  4  2  0
  3  5  1  0
  5  6  1  0
  5 10  2  0
  6  7  2  0
  7 11  1  0
  7  8  1  0
 11 12  2  0
 11 13  1  0
  8  9  2  0
  9 10  1  0
M  CHG  2  11   1  13  -1
M  END
>  <minimizedAffinity>  (96) 
-8.67105

$$$$
data/200k_reference_output/data/smiles/71022.pdb
     RDKit          3D

 21 23  0  0  0  0  0  0  0  0999 V2000
   69.9489   50.4581   54.1952 C   0  0  1  0  0  0  0  0  0  0  0  0
   69.6223   49.3636   53.2463 C   0  0  0  0  0  0  0  0  0  0  0  0
   69.8175   49.3405   51.8877 C   0  0  0  0  0  0  0  0  0  0  0  0
   69.3847   48.1351   51.4355 N   0  0  0  0  0  0  0  0  0  0  0  0
   68.9189   47.3876   52.4680 C   0  0  0  0  0  0  0  0  0  0  0  0
   68.3777   46.1200   52.5673 C   0  0  0  0  0  0  0  0  0  0  0  0
   67.9719   45.5762   53.7664 C   0  0  0  0  0  0  0  0  0  0  0  0
   68.1196   46.3441   54.9026 C   0  0  0  0  0  0  0  0  0  0  0  0
   68.6629   47.6195   54.8136 C   0  0  0  0  0  0  0  0  0  0  0  0
   69.0662   48.1539   53.6067 C   0  0  0  0  0  0  0  0  0  0  0  0
   71.3611   50.8395   54.0335 C   0  0  0  0  0  0  0  0  0  0  0  0
   71.9164   52.0552   53.8993 N   0  0  0  0  0  0  0  0  0  0  0  0
   73.2263   51.9536   53.7736 N   0  0  0  0  0  0  0  0  0  0  0  0
   73.5093   50.6667   53.8286 N   0  0  0  0  0  0  0  0  0  0  0  0
   72.3870   49.9761   53.9852 N   0  0  0  0  0  0  0  0  0  0  0  0
   68.9730   51.5761   54.2185 C   0  0  0  0  0  0  0  0  0  0  0  0
   68.6691   52.1971   55.4895 C   0  0  0  0  0  0  0  0  0  0  0  0
   69.2922   53.2462   55.8002 O   0  0  0  0  0  0  0  0  0  0  0  0
   67.7457   51.7265   56.3946 O   0  0  0  0  0  0  0  0  0  0  0  0
   67.0605   49.8948   57.8074 C   0  0  0  0  0  0  0  0  0  0  0  0
   68.0531   51.0044   57.5577 C   0  0  0  0  0  0  0  0  0  0  0  0
 20 21  1  0
 21 19  1  0
 19 17  1  0
 17 18  2  0
 17 16  1  0
  1 16  1  6
  1 11  1  0
  1  2  1  0
 11 12  2  0
 11 15  1  0
 12 13  1  0
 13 14  2  0
 14 15  1  0
  2  3  2  0
  2 10  1  0
  3  4  1  0
  4  5  1  0
  5  6  1  0
  5 10  2  0
  6  7  2  0
  7  8  1  0
  8  9  2  0
  9 10  1  0
M  END
>  <minimizedAffinity>  (97) 
-8.67089

$$$$
data/200k_reference_output/data/smiles/83613.pdb
     RDKit          3D

 21 23  0  0  0  0  0  0  0  0999 V2000
   70.8681   49.8177   53.2584 O   0  0  0  0  0  0  0  0  0  0  0  0
   67.5297   45.3864   52.4156 C   0  0  0  0  0  0  0  0  0  0  0  0
   68.4051   46.5486   52.6377 C   0  0  0  0  0  0  0  0  0  0  0  0
   69.0273   47.1573   51.5727 C   0  0  0  0  0  0  0  0  0  0  0  0
   69.8511   48.2505   51.7792 C   0  0  0  0  0  0  0  0  0  0  0  0
   70.0426   48.7246   53.0604 C   0  0  0  0  0  0  0  0  0  0  0  0
   69.4260   48.1257   54.1352 C   0  0  0  0  0  0  0  0  0  0  0  0
   68.5953   47.0208   53.9183 C   0  0  0  0  0  0  0  0  0  0  0  0
   68.0497   46.5510   55.2365 C   0  0  0  0  0  0  0  0  0  0  0  0
   69.1701   46.9911   56.1610 C   0  0  0  0  0  0  0  0  0  0  0  0
   69.4344   48.3951   55.5991 C   0  0  0  0  0  0  0  0  0  0  0  0
   70.4651   50.9133   54.0042 C   0  0  0  0  0  0  0  0  0  0  0  0
   69.2575   51.4935   53.9148 N   0  0  0  0  0  0  0  0  0  0  0  0
   68.8830   52.5575   54.6479 C   0  0  0  0  0  0  0  0  0  0  0  0
   69.7655   53.1093   55.5512 C   0  0  0  0  0  0  0  0  0  0  0  0
   71.0115   52.5287   55.6582 C   0  0  0  0  0  0  0  0  0  0  0  0
   71.3946   51.4385   54.9071 C   0  0  0  0  0  0  0  0  0  0  0  0
   72.7320   50.8385   55.0436 C   0  0  0  0  0  0  0  0  0  0  0  0
   73.2034   50.6193   56.3672 N   0  0  0  0  0  0  0  0  0  0  0  0
   73.4364   50.5303   54.0202 N   0  0  0  0  0  0  0  0  0  0  0  0
   74.6916   49.9682   54.1535 O   0  0  0  0  0  0  0  0  0  0  0  0
  2  3  1  0
  3  4  2  0
  3  8  1  0
  4  5  1  0
  5  6  2  0
  6  1  1  0
  6  7  1  0
  1 12  1  0
 12 13  2  0
 12 17  1  0
 13 14  1  0
 14 15  2  0
 15 16  1  0
 16 17  2  0
 17 18  1  0
 18 19  1  0
 18 20  2  0
 20 21  1  0
  7  8  2  0
  7 11  1  0
  8  9  1  0
  9 10  1  0
 10 11  1  0
M  CHG  1  20   1
M  END
>  <minimizedAffinity>  (98) 
-8.67040

$$$$
data/200k_reference_output/data/smiles/29420.pdb
     RDKit          3D

 22 25  0  0  0  0  0  0  0  0999 V2000
   72.0594   35.5953   53.7468 O   0  0  0  0  0  0  0  0  0  0  0  0
   73.2812   35.5448   53.9953 C   0  0  0  0  0  0  0  0  0  0  0  0
   74.3271   35.6499   53.0898 C   0  0  0  0  0  0  0  0  0  0  0  0
   75.5181   35.5423   53.7699 C   0  0  0  0  0  0  0  0  0  0  0  0
   75.1913   35.3753   55.0591 N   0  0  0  0  0  0  0  0  0  0  0  0
   73.8508   35.3791   55.1799 N   0  0  0  0  0  0  0  0  0  0  0  0
   73.1611   35.2247   56.4125 C   0  0  0  0  0  0  0  0  0  0  0  0
   73.0155   34.0162   57.0578 C   0  0  0  0  0  0  0  0  0  0  0  0
   72.3348   33.9127   58.2587 C   0  0  0  0  0  0  0  0  0  0  0  0
   71.7847   35.0192   58.8424 C   0  0  0  0  0  0  0  0  0  0  0  0
   71.9250   36.2378   58.2043 C   0  0  0  0  0  0  0  0  0  0  0  0
   72.6110   36.3357   56.9952 C   0  0  0  0  0  0  0  0  0  0  0  0
   76.8734   35.6001   53.1912 C   0  0  0  0  0  0  0  0  0  0  0  0
   76.8713   35.2942   51.7276 C   0  0  0  0  0  0  0  0  0  0  0  0
   77.6412   35.8854   50.7986 N   0  0  0  0  0  0  0  0  0  0  0  0
   77.3897   35.3776   49.5779 C   0  0  0  0  0  0  0  0  0  0  0  0
   77.8740   35.6050   48.3053 C   0  0  0  0  0  0  0  0  0  0  0  0
   77.4116   34.9056   47.1964 C   0  0  0  0  0  0  0  0  0  0  0  0
   76.4380   33.9542   47.3813 C   0  0  0  0  0  0  0  0  0  0  0  0
   75.9475   33.7161   48.6416 C   0  0  0  0  0  0  0  0  0  0  0  0
   76.4125   34.4180   49.7442 C   0  0  0  0  0  0  0  0  0  0  0  0
   76.1215   34.3950   51.0655 N   0  0  0  0  0  0  0  0  0  0  0  0
  1  2  2  0
  2  3  1  0
  2  6  1  0
  3  4  2  0
  4 13  1  0
  4  5  1  0
 13 14  1  0
 14 15  2  0
 14 22  1  0
 15 16  1  0
 16 17  2  0
 16 21  1  0
 17 18  1  0
 18 19  2  0
 19 20  1  0
 20 21  2  0
 21 22  1  0
  5  6  1  0
  6  7  1  0
  7  8  2  0
  7 12  1  0
  8  9  1  0
  9 10  2  0
 10 11  1  0
 11 12  2  0
M  CHG  1  15   1
M  END
>  <minimizedAffinity>  (99) 
-8.66941

$$$$
data/200k_reference_output/data/smiles/9669.pdb
     RDKit          3D

 22 24  0  0  0  0  0  0  0  0999 V2000
   69.9651   48.5798   56.5106 C   0  0  0  0  0  0  0  0  0  0  0  0
   70.1070   48.6382   55.0273 C   0  0  0  0  0  0  0  0  0  0  0  0
   70.8290   49.5617   54.3903 N   0  0  0  0  0  0  0  0  0  0  0  0
   70.8790   49.6978   53.0885 N   0  0  0  0  0  0  0  0  0  0  0  0
   70.1732   48.8755   52.2950 C   0  0  0  0  0  0  0  0  0  0  0  0
   70.2050   48.9917   51.0317 O   0  0  0  0  0  0  0  0  0  0  0  0
   69.3886   47.8736   52.8613 C   0  0  0  0  0  0  0  0  0  0  0  0
   68.6866   46.9942   52.0353 C   0  0  0  0  0  0  0  0  0  0  0  0
   67.9449   45.9794   52.5763 C   0  0  0  0  0  0  0  0  0  0  0  0
   67.9348   45.8816   53.9553 C   0  0  0  0  0  0  0  0  0  0  0  0
   68.6271   46.7495   54.7685 C   0  0  0  0  0  0  0  0  0  0  0  0
   69.3661   47.7648   54.2295 C   0  0  0  0  0  0  0  0  0  0  0  0
   68.7346   50.6578   57.0295 C   0  0  0  0  0  0  0  0  0  0  0  0
   67.5720   51.2852   57.4128 C   0  0  0  0  0  0  0  0  0  0  0  0
   66.4243   50.6189   57.7761 C   0  0  0  0  0  0  0  0  0  0  0  0
   66.4769   49.2424   57.7445 C   0  0  0  0  0  0  0  0  0  0  0  0
   67.6278   48.5381   57.3641 C   0  0  0  0  0  0  0  0  0  0  0  0
   68.7364   49.2530   57.0110 C   0  0  0  0  0  0  0  0  0  0  0  0
   71.3324   53.1728   55.6911 C   0  0  0  0  0  0  0  0  0  0  0  0
   70.0080   52.4943   55.9127 C   0  0  0  0  0  0  0  0  0  0  0  0
   69.0140   52.9586   55.3271 O   0  0  0  0  0  0  0  0  0  0  0  0
   69.9273   51.3652   56.7688 N   0  0  0  0  0  0  0  0  0  0  0  0
 19 20  1  0
 20 21  2  0
 20 22  1  0
 22 13  1  0
 13 14  2  0
 13 18  1  0
 14 15  1  0
 15 16  2  0
 16 17  1  0
 17 18  2  0
 18  1  1  0
  1  2  1  0
  2  3  2  0
  2 12  1  0
  3  4  1  0
  4  5  1  0
  5  6  2  0
  5  7  1  0
  7  8  1  0
  7 12  2  0
  8  9  2  0
  9 10  1  0
 10 11  2  0
 11 12  1  0
M  END
>  <minimizedAffinity>  (100) 
-8.66261

$$$$
data/200k_reference_output/data/smiles/62093.pdb
     RDKit          3D

 21 23  0  0  0  0  0  0  0  0999 V2000
   69.2139   45.3601   56.4980 C   0  0  0  0  0  0  0  0  0  0  0  0
   68.9528   43.9113   56.7364 C   0  0  0  0  0  0  0  0  0  0  0  0
   67.7949   43.3498   56.2638 N   0  0  0  0  0  0  0  0  0  0  0  0
   67.5065   42.0576   56.4728 C   0  0  0  0  0  0  0  0  0  0  0  0
   68.3527   41.2228   57.1711 C   0  0  0  0  0  0  0  0  0  0  0  0
   68.0730   39.8916   57.3954 C   0  0  0  0  0  0  0  0  0  0  0  0
   68.9316   39.0692   58.0971 C   0  0  0  0  0  0  0  0  0  0  0  0
   70.0963   39.6336   58.5732 C   0  0  0  0  0  0  0  0  0  0  0  0
   70.3770   40.9720   58.3470 C   0  0  0  0  0  0  0  0  0  0  0  0
   69.5182   41.7879   57.6477 C   0  0  0  0  0  0  0  0  0  0  0  0
   69.7598   43.0867   57.4112 N   0  0  0  0  0  0  0  0  0  0  0  0
   68.4068   45.9821   55.5809 O   0  0  0  0  0  0  0  0  0  0  0  0
   69.3028   47.7058   52.4965 C   0  0  0  0  0  0  0  0  0  0  0  0
   68.5679   46.9905   51.5841 C   0  0  0  0  0  0  0  0  0  0  0  0
   67.7939   45.9487   52.0401 C   0  0  0  0  0  0  0  0  0  0  0  0
   67.7425   45.6179   53.3576 C   0  0  0  0  0  0  0  0  0  0  0  0
   68.4986   46.3547   54.2905 C   0  0  0  0  0  0  0  0  0  0  0  0
   69.2782   47.3995   53.8537 C   0  0  0  0  0  0  0  0  0  0  0  0
   71.1757   49.0910   52.7381 O   0  0  0  0  0  0  0  0  0  0  0  0
   70.1395   48.8200   52.0636 C   0  0  0  0  0  0  0  0  0  0  0  0
   69.8121   49.5654   50.9435 O   0  0  0  0  0  0  0  0  0  0  0  0
 19 20  2  0
 20 21  1  0
 20 13  1  0
 13 14  2  0
 13 18  1  0
 14 15  1  0
 15 16  2  0
 16 17  1  0
 17 12  1  0
 17 18  2  0
 12  1  1  0
  1  2  1  0
  2  3  2  0
  2 11  1  0
  3  4  1  0
  4  5  2  0
  5  6  1  0
  5 10  1  0
  6  7  2  0
  7  8  1  0
  8  9  2  0
  9 10  1  0
 10 11  2  0
M  END
>  <minimizedAffinity>  (101) 
-8.66052

$$$$
data/200k_reference_output/data/smiles/45453.pdb
     RDKit          3D

 21 23  0  0  0  0  0  0  0  0999 V2000
   70.2714   49.1450   50.9501 O   0  0  0  0  0  0  0  0  0  0  0  0
   69.9765   48.7705   52.1076 C   0  0  0  0  0  0  0  0  0  0  0  0
   70.3875   49.3538   53.3726 C   0  0  0  0  0  0  0  0  0  0  0  0
   71.1348   50.3692   53.5267 O   0  0  0  0  0  0  0  0  0  0  0  0
   69.8236   48.6119   54.4426 N   0  0  0  0  0  0  0  0  0  0  0  0
   69.0654   47.5719   53.8357 C   0  0  0  0  0  0  0  0  0  0  0  0
   68.2921   46.5357   54.3769 C   0  0  0  0  0  0  0  0  0  0  0  0
   68.2252   46.4736   55.7328 F   0  0  0  0  0  0  0  0  0  0  0  0
   67.6392   45.6342   53.5691 C   0  0  0  0  0  0  0  0  0  0  0  0
   67.7102   45.7013   52.1944 C   0  0  0  0  0  0  0  0  0  0  0  0
   68.4651   46.7117   51.6458 C   0  0  0  0  0  0  0  0  0  0  0  0
   69.1321   47.6330   52.4632 C   0  0  0  0  0  0  0  0  0  0  0  0
   69.9592   48.8245   55.8700 C   0  0  0  0  0  0  0  0  0  0  0  0
   68.8363   49.5808   56.4556 C   0  0  0  0  0  0  0  0  0  0  0  0
   68.0559   48.9057   57.3813 C   0  0  0  0  0  0  0  0  0  0  0  0
   68.3039   47.6220   57.7350 F   0  0  0  0  0  0  0  0  0  0  0  0
   66.9968   49.5838   57.9482 C   0  0  0  0  0  0  0  0  0  0  0  0
   66.7262   50.8967   57.5998 C   0  0  0  0  0  0  0  0  0  0  0  0
   67.5171   51.5483   56.6754 C   0  0  0  0  0  0  0  0  0  0  0  0
   68.5957   50.8786   56.0893 C   0  0  0  0  0  0  0  0  0  0  0  0
   69.3739   51.4991   55.1886 F   0  0  0  0  0  0  0  0  0  0  0  0
  1  2  2  0
  2  3  1  0
  2 12  1  0
  3  4  2  0
  3  5  1  0
  5 13  1  0
  5  6  1  0
 13 14  1  0
 14 15  2  0
 14 20  1  0
 15 16  1  0
 15 17  1  0
 17 18  2  0
 18 19  1  0
 19 20  2  0
 20 21  1  0
  6  7  2  0
  6 12  1  0
  7  8  1  0
  7  9  1  0
  9 10  2  0
 10 11  1  0
 11 12  2  0
M  END
>  <minimizedAffinity>  (102) 
-8.65947

$$$$
data/200k_reference_output/data/smiles/26405.pdb
     RDKit          3D

 20 22  0  0  0  0  0  0  0  0999 V2000
   68.7087   45.3840   56.1072 C   0  0  0  0  0  0  0  0  0  0  0  0
   69.6880   45.9907   56.8477 N   0  0  0  0  0  0  0  0  0  0  0  0
   70.3995   45.2793   57.7259 C   0  0  0  0  0  0  0  0  0  0  0  0
   70.1633   43.9120   57.9071 C   0  0  0  0  0  0  0  0  0  0  0  0
   69.1862   43.2954   57.1714 C   0  0  0  0  0  0  0  0  0  0  0  0
   68.5135   44.0793   56.3087 N   0  0  0  0  0  0  0  0  0  0  0  0
   68.8994   41.8818   57.3034 C   0  0  0  0  0  0  0  0  0  0  0  0
   69.5573   41.1198   58.2729 C   0  0  0  0  0  0  0  0  0  0  0  0
   69.2784   39.7637   58.3984 C   0  0  0  0  0  0  0  0  0  0  0  0
   68.3631   39.1271   57.5941 C   0  0  0  0  0  0  0  0  0  0  0  0
   67.7484   39.8841   56.6748 N   0  0  0  0  0  0  0  0  0  0  0  0
   67.9973   41.2224   56.5208 C   0  0  0  0  0  0  0  0  0  0  0  0
   67.9742   46.1207   55.1593 N   0  0  0  0  0  0  0  0  0  0  0  0
   70.2690   49.1208   50.9601 O   0  0  0  0  0  0  0  0  0  0  0  0
   69.6927   48.3504   51.9946 C   0  0  0  0  0  0  0  0  0  0  0  0
   69.6561   48.8155   53.2850 C   0  0  0  0  0  0  0  0  0  0  0  0
   69.1028   48.0815   54.2950 C   0  0  0  0  0  0  0  0  0  0  0  0
   68.5395   46.8094   54.0759 C   0  0  0  0  0  0  0  0  0  0  0  0
   68.5913   46.3759   52.7723 C   0  0  0  0  0  0  0  0  0  0  0  0
   69.1527   47.1169   51.7396 C   0  0  0  0  0  0  0  0  0  0  0  0
 14 15  1  0
 15 16  2  0
 15 20  1  0
 16 17  1  0
 17 18  2  0
 18 13  1  0
 18 19  1  0
 13  1  1  0
  1  2  2  0
  1  6  1  0
  2  3  1  0
  3  4  2  0
  4  5  1  0
  5  7  1  0
  5  6  2  0
  7  8  2  0
  7 12  1  0
  8  9  1  0
  9 10  2  0
 10 11  1  0
 11 12  2  0
 19 20  2  0
M  END
>  <minimizedAffinity>  (103) 
-8.65662

$$$$
data/reference_output_2/data/smiles/142780.pdb
     RDKit          3D

 22 24  0  0  0  0  0  0  0  0999 V2000
   70.3796   50.0550   54.7746 C   0  0  0  0  0  0  0  0  0  0  0  0
   70.1584   51.4699   54.2348 C   0  0  1  0  0  0  0  0  0  0  0  0
   70.2422   51.4626   52.8336 O   0  0  0  0  0  0  0  0  0  0  0  0
   68.9888   52.1521   54.7341 C   0  0  0  0  0  0  0  0  0  0  0  0
   67.7420   51.9650   54.5691 O   0  0  0  0  0  0  0  0  0  0  0  0
   69.4180   53.2391   55.5713 N   0  0  0  0  0  0  0  0  0  0  0  0
   70.8357   53.2789   55.5604 C   0  0  0  0  0  0  0  0  0  0  0  0
   71.6924   54.1845   56.2151 C   0  0  0  0  0  0  0  0  0  0  0  0
   73.0460   54.0356   56.0364 C   0  0  0  0  0  0  0  0  0  0  0  0
   73.5560   53.0176   55.2286 C   0  0  0  0  0  0  0  0  0  0  0  0
   72.6826   52.1559   54.6093 C   0  0  0  0  0  0  0  0  0  0  0  0
   71.3123   52.2839   54.7735 C   0  0  0  0  0  0  0  0  0  0  0  0
   71.5765   49.2141   53.0159 O   0  0  0  0  0  0  0  0  0  0  0  0
   70.4932   49.1141   53.7004 C   0  0  0  0  0  0  0  0  0  0  0  0
   69.5898   48.0716   53.2607 C   0  0  0  0  0  0  0  0  0  0  0  0
   68.7036   47.4861   54.1667 C   0  0  0  0  0  0  0  0  0  0  0  0
   67.8156   46.4893   53.8268 C   0  0  0  0  0  0  0  0  0  0  0  0
   67.7737   46.0218   52.5318 C   0  0  0  0  0  0  0  0  0  0  0  0
   66.8932   45.0181   52.1499 O   0  0  0  0  0  0  0  0  0  0  0  0
   68.6251   46.5648   51.6017 C   0  0  0  0  0  0  0  0  0  0  0  0
   69.5175   47.5783   51.9805 C   0  0  0  0  0  0  0  0  0  0  0  0
   70.3634   48.1104   51.0332 O   0  0  0  0  0  0  0  0  0  0  0  0
 13 14  2  0
 14  1  1  0
 14 15  1  0
  1  2  1  0
  2  3  1  6
  2  4  1  0
  2 12  1  0
  4  5  2  0
  4  6  1  0
  6  7  1  0
  7  8  1  0
  7 12  2  0
  8  9  2  0
  9 10  1  0
 10 11  2  0
 11 12  1  0
 15 16  2  0
 15 21  1  0
 16 17  1  0
 17 18  2  0
 18 19  1  0
 18 20  1  0
 20 21  2  0
 21 22  1  0
M  END
>  <minimizedAffinity>  (104) 
-8.65524

$$$$
data/200k_reference_output/data/smiles/61588.pdb
     RDKit          3D

 21 23  0  0  0  0  0  0  0  0999 V2000
   68.7026   46.2712   55.6125 C   0  0  0  0  0  0  0  0  0  0  0  0
   69.2011   47.1959   56.5256 C   0  0  0  0  0  0  0  0  0  0  0  0
   69.7039   48.4198   56.1402 C   0  0  0  0  0  0  0  0  0  0  0  0
   69.7247   48.7712   54.7905 C   0  0  0  0  0  0  0  0  0  0  0  0
   69.2347   47.8682   53.8692 C   0  0  0  0  0  0  0  0  0  0  0  0
   69.2446   48.1906   52.5294 C   0  0  0  0  0  0  0  0  0  0  0  0
   68.7549   47.2899   51.6104 C   0  0  0  0  0  0  0  0  0  0  0  0
   68.2481   46.0536   51.9993 C   0  0  0  0  0  0  0  0  0  0  0  0
   68.2440   45.7431   53.3426 C   0  0  0  0  0  0  0  0  0  0  0  0
   68.7312   46.6357   54.2833 C   0  0  0  0  0  0  0  0  0  0  0  0
   69.7585   49.4617   52.0507 C   0  0  0  0  0  0  0  0  0  0  0  0
   69.7744   49.7752   50.8184 O   0  0  0  0  0  0  0  0  0  0  0  0
   70.2754   50.4235   52.9799 N   0  0  0  0  0  0  0  0  0  0  0  0
   70.2527   50.0643   54.3549 C   0  0  0  0  0  0  0  0  0  0  0  0
   70.7000   50.8902   55.1821 O   0  0  0  0  0  0  0  0  0  0  0  0
   68.4728   44.0522   56.5691 N   0  0  0  0  0  0  0  0  0  0  0  0
   68.1854   45.0208   55.9616 N   0  0  0  0  0  0  0  0  0  0  0  0
   69.6750   42.0935   57.5260 C   0  0  0  0  0  0  0  0  0  0  0  0
   69.4858   43.5176   57.3226 N   0  0  0  0  0  0  0  0  0  0  0  0
   70.4337   44.4101   57.9630 C   0  0  0  0  0  0  0  0  0  0  0  0
   69.7764   44.9268   59.0994 O   0  0  0  0  0  0  0  0  0  0  0  0
 18 19  1  0
 19 20  1  0
 19 16  1  0
 20 21  1  0
 16 17  2  0
 17  1  1  0
  1  2  2  0
  1 10  1  0
  2  3  1  0
  3  4  2  0
  4  5  1  0
  4 14  1  0
  5  6  1  0
  5 10  2  0
  6  7  2  0
  6 11  1  0
  7  8  1  0
  8  9  2  0
  9 10  1  0
 11 12  2  0
 11 13  1  0
 13 14  1  0
 14 15  2  0
M  END
>  <minimizedAffinity>  (105) 
-8.65387

$$$$
data/200k_reference_output/data/smiles/20849.pdb
     RDKit          3D

 20 22  0  0  0  0  0  0  0  0999 V2000
   66.6401   40.9660   55.2618 O   0  0  0  0  0  0  0  0  0  0  0  0
   67.4972   41.4621   56.0531 C   0  0  0  0  0  0  0  0  0  0  0  0
   67.8774   42.7868   56.0611 C   0  0  0  0  0  0  0  0  0  0  0  0
   67.4396   43.7468   55.2809 N   0  0  0  0  0  0  0  0  0  0  0  0
   68.8161   42.8847   57.0671 C   0  0  0  0  0  0  0  0  0  0  0  0
   69.4102   43.9459   57.3926 O   0  0  0  0  0  0  0  0  0  0  0  0
   69.0217   41.6626   57.6734 C   0  0  0  0  0  0  0  0  0  0  0  0
   69.8263   41.2074   58.7017 C   0  0  0  0  0  0  0  0  0  0  0  0
   69.8339   39.8909   59.1190 C   0  0  0  0  0  0  0  0  0  0  0  0
   68.9969   39.0033   58.4723 C   0  0  0  0  0  0  0  0  0  0  0  0
   68.1853   39.4354   57.4421 C   0  0  0  0  0  0  0  0  0  0  0  0
   68.1870   40.7736   57.0280 C   0  0  0  0  0  0  0  0  0  0  0  0
   67.9172   45.0504   55.4029 N   0  0  0  0  0  0  0  0  0  0  0  0
   68.2439   45.8791   54.3125 C   0  0  0  0  0  0  0  0  0  0  0  0
   67.9293   45.4950   53.0370 C   0  0  0  0  0  0  0  0  0  0  0  0
   68.2410   46.2969   51.9327 C   0  0  0  0  0  0  0  0  0  0  0  0
   68.8752   47.4956   52.1291 C   0  0  0  0  0  0  0  0  0  0  0  0
   69.1940   47.8834   53.4197 C   0  0  0  0  0  0  0  0  0  0  0  0
   68.8801   47.0786   54.5142 C   0  0  0  0  0  0  0  0  0  0  0  0
   69.3297   47.6709   56.0910 Cl  0  0  0  0  0  0  0  0  0  0  0  0
  1  2  2  0
  2  3  1  0
  2 12  1  0
  3  4  2  0
  3  5  1  0
  4 13  1  0
 13 14  1  0
 14 15  2  0
 14 19  1  0
 15 16  1  0
 16 17  2  0
 17 18  1  0
 18 19  2  0
 19 20  1  0
  5  6  2  0
  5  7  1  0
  7  8  1  0
  7 12  2  0
  8  9  2  0
  9 10  1  0
 10 11  2  0
 11 12  1  0
M  END
>  <minimizedAffinity>  (106) 
-8.65260

$$$$
data/reference_output_2/data/smiles/195255.pdb
     RDKit          3D

 21 23  0  0  0  0  0  0  0  0999 V2000
   68.5094   46.5728   56.3767 N   0  0  0  0  0  0  0  0  0  0  0  0
   69.2739   47.6447   52.9090 C   0  0  0  0  0  0  0  0  0  0  0  0
   69.2356   47.5700   54.2735 C   0  0  0  0  0  0  0  0  0  0  0  0
   68.4854   46.6126   54.9770 C   0  0  0  0  0  0  0  0  0  0  0  0
   67.7741   45.7314   54.1936 C   0  0  0  0  0  0  0  0  0  0  0  0
   67.8153   45.8101   52.8077 C   0  0  0  0  0  0  0  0  0  0  0  0
   68.5566   46.7574   52.1402 C   0  0  0  0  0  0  0  0  0  0  0  0
   68.5464   46.7726   50.7523 O   0  0  0  0  0  0  0  0  0  0  0  0
   71.2183   48.9597   52.6472 O   0  0  0  0  0  0  0  0  0  0  0  0
   70.0758   48.6668   52.2253 C   0  0  0  0  0  0  0  0  0  0  0  0
   69.5955   49.3225   51.1113 O   0  0  0  0  0  0  0  0  0  0  0  0
   69.0438   47.5699   57.2492 C   0  0  0  0  0  0  0  0  0  0  0  0
   68.2310   48.8008   57.3313 C   0  0  0  0  0  0  0  0  0  0  0  0
   67.0049   48.8464   57.9433 C   0  0  0  0  0  0  0  0  0  0  0  0
   66.2901   50.0367   58.0206 C   0  0  0  0  0  0  0  0  0  0  0  0
   66.8276   51.1796   57.4733 C   0  0  0  0  0  0  0  0  0  0  0  0
   68.0646   51.1530   56.8507 C   0  0  0  0  0  0  0  0  0  0  0  0
   68.7475   49.9756   56.7867 C   0  0  0  0  0  0  0  0  0  0  0  0
   69.9502   50.2182   56.1167 O   0  0  0  0  0  0  0  0  0  0  0  0
   69.7497   51.4313   55.4026 C   0  0  0  0  0  0  0  0  0  0  0  0
   68.8467   52.1180   56.2227 O   0  0  0  0  0  0  0  0  0  0  0  0
  9 10  2  0
 10 11  1  0
 10  2  1  0
  2  3  2  0
  2  7  1  0
  3  4  1  0
  4  1  1  0
  4  5  2  0
  1 12  1  0
 12 13  1  0
 13 14  2  0
 13 18  1  0
 14 15  1  0
 15 16  2  0
 16 17  1  0
 17 18  2  0
 17 21  1  0
 18 19  1  0
 19 20  1  0
 20 21  1  0
  5  6  1  0
  6  7  2  0
  7  8  1  0
M  END
>  <minimizedAffinity>  (107) 
-8.65221

$$$$
data/reference_output_2/data/smiles/115189.pdb
     RDKit          3D

 20 22  0  0  0  0  0  0  0  0999 V2000
   71.6625   49.8370   53.6049 O   0  0  0  0  0  0  0  0  0  0  0  0
   70.4618   49.7683   53.2484 C   0  0  0  0  0  0  0  0  0  0  0  0
   69.6402   50.8879   53.5630 N   0  0  0  0  0  0  0  0  0  0  0  0
   69.9617   48.5946   52.5521 C   0  0  0  0  0  0  0  0  0  0  0  0
   70.2400   48.1357   51.3224 N   0  0  0  0  0  0  0  0  0  0  0  0
   69.5545   47.0185   51.0860 N   0  0  0  0  0  0  0  0  0  0  0  0
   68.8010   46.7056   52.1528 C   0  0  0  0  0  0  0  0  0  0  0  0
   69.0589   47.7030   53.0823 C   0  0  0  0  0  0  0  0  0  0  0  0
   68.3430   47.5959   54.3756 C   0  0  0  0  0  0  0  0  0  0  0  0
   68.3361   46.1410   54.7790 C   0  0  0  0  0  0  0  0  0  0  0  0
   67.6694   45.2412   53.8067 C   0  0  0  0  0  0  0  0  0  0  0  0
   67.8877   45.5848   52.3704 C   0  0  0  0  0  0  0  0  0  0  0  0
   70.1415   52.0567   54.2584 C   0  0  0  0  0  0  0  0  0  0  0  0
   69.0720   52.5441   55.1892 C   0  0  0  0  0  0  0  0  0  0  0  0
   68.9962   51.8323   56.4626 C   0  0  0  0  0  0  0  0  0  0  0  0
   70.1264   51.6144   57.1322 C   0  0  0  0  0  0  0  0  0  0  0  0
   70.0500   50.8817   58.4425 C   0  0  0  0  0  0  0  0  0  0  0  0
   69.2330   49.6448   58.2256 C   0  0  0  0  0  0  0  0  0  0  0  0
   68.0026   49.8492   57.4108 C   0  0  0  0  0  0  0  0  0  0  0  0
   67.7780   51.3152   57.1052 C   0  0  0  0  0  0  0  0  0  0  0  0
  1  2  2  0
  2  3  1  0
  2  4  1  0
  3 13  1  0
 13 14  1  0
 14 15  1  0
 15 16  2  0
 15 20  1  0
 16 17  1  0
 17 18  1  0
 18 19  1  0
 19 20  1  0
  4  5  2  0
  4  8  1  0
  5  6  1  0
  6  7  1  0
  7  8  2  0
  7 12  1  0
  8  9  1  0
  9 10  1  0
 10 11  1  0
 11 12  1  0
M  END
>  <minimizedAffinity>  (108) 
-8.65129

$$$$
data/reference_output_2/data/smiles/115705.pdb
     RDKit          3D

 20 21  0  0  0  0  0  0  0  0999 V2000
   69.2953   47.7372   52.9376 C   0  0  0  0  0  0  0  0  0  0  0  0
   69.2739   47.6634   54.3182 C   0  0  0  0  0  0  0  0  0  0  0  0
   68.5427   46.7215   54.9863 C   0  0  0  0  0  0  0  0  0  0  0  0
   67.7972   45.8074   54.2231 C   0  0  0  0  0  0  0  0  0  0  0  0
   67.8341   45.8985   52.8645 C   0  0  0  0  0  0  0  0  0  0  0  0
   68.5673   46.8450   52.1884 C   0  0  0  0  0  0  0  0  0  0  0  0
   68.5508   46.8706   50.8216 O   0  0  0  0  0  0  0  0  0  0  0  0
   70.1059   48.7799   52.3197 C   0  0  0  0  0  0  0  0  0  0  0  0
   70.3910   48.6899   51.1007 O   0  0  0  0  0  0  0  0  0  0  0  0
   69.6871   50.9377   53.3234 C   0  0  0  0  0  0  0  0  0  0  0  0
   70.5670   49.8646   53.0483 O   0  0  0  0  0  0  0  0  0  0  0  0
   68.4512   46.5985   56.3860 N   0  0  0  0  0  0  0  0  0  0  0  0
   69.0893   47.4621   57.3299 C   0  0  0  0  0  0  0  0  0  0  0  0
   68.5564   48.8473   57.3170 C   0  0  0  0  0  0  0  0  0  0  0  0
   69.2902   49.9614   57.0234 C   0  0  0  0  0  0  0  0  0  0  0  0
   68.7483   51.2329   57.0567 C   0  0  0  0  0  0  0  0  0  0  0  0
   67.4429   51.4464   57.3879 C   0  0  0  0  0  0  0  0  0  0  0  0
   66.6702   50.3492   57.6907 C   0  0  0  0  0  0  0  0  0  0  0  0
   67.2163   49.0881   57.6553 C   0  0  0  0  0  0  0  0  0  0  0  0
   66.4564   47.9519   57.9590 O   0  0  0  0  0  0  0  0  0  0  0  0
 10 11  1  0
 11  8  1  0
  8  9  2  0
  8  1  1  0
  1  2  2  0
  1  6  1  0
  2  3  1  0
  3 12  1  0
  3  4  2  0
 12 13  1  0
 13 14  1  0
 14 15  2  0
 14 19  1  0
 15 16  1  0
 16 17  2  0
 17 18  1  0
 18 19  2  0
 19 20  1  0
  4  5  1  0
  5  6  2  0
  6  7  1  0
M  END
>  <minimizedAffinity>  (109) 
-8.65002

$$$$
data/reference_output_2/data/smiles/160573.pdb
     RDKit          3D

 21 22  0  0  0  0  0  0  0  0999 V2000
   69.5116   44.3629   56.8131 C   0  0  0  0  0  0  0  0  0  0  0  0
   68.4400   44.5459   56.0790 N   0  0  0  0  0  0  0  0  0  0  0  0
   69.3096   40.7542   57.8911 C   0  0  0  0  0  0  0  0  0  0  0  0
   70.5822   40.5928   58.3881 C   0  0  0  0  0  0  0  0  0  0  0  0
   71.4957   41.6368   58.3761 C   0  0  0  0  0  0  0  0  0  0  0  0
   71.1199   42.8781   57.8483 C   0  0  0  0  0  0  0  0  0  0  0  0
   69.8488   43.0517   57.3489 C   0  0  0  0  0  0  0  0  0  0  0  0
   68.9831   42.0061   57.3790 C   0  0  0  0  0  0  0  0  0  0  0  0
   67.7197   39.4032   56.8861 O   0  0  0  0  0  0  0  0  0  0  0  0
   68.3779   39.6474   57.9176 C   0  0  0  0  0  0  0  0  0  0  0  0
   68.1827   38.8536   59.0245 O   0  0  0  0  0  0  0  0  0  0  0  0
   68.0962   45.7538   55.5645 O   0  0  0  0  0  0  0  0  0  0  0  0
   68.2719   46.1615   54.2692 C   0  0  0  0  0  0  0  0  0  0  0  0
   67.5927   45.5106   53.2686 C   0  0  0  0  0  0  0  0  0  0  0  0
   67.7217   45.8684   51.9397 C   0  0  0  0  0  0  0  0  0  0  0  0
   68.5656   46.9123   51.6386 C   0  0  0  0  0  0  0  0  0  0  0  0
   69.2708   47.5985   52.6040 C   0  0  0  0  0  0  0  0  0  0  0  0
   69.1035   47.1978   53.9214 C   0  0  0  0  0  0  0  0  0  0  0  0
   70.1536   48.6987   52.2432 C   0  0  0  0  0  0  0  0  0  0  0  0
   71.0723   49.0784   53.0080 O   0  0  0  0  0  0  0  0  0  0  0  0
   69.9840   49.3406   51.0399 O   0  0  0  0  0  0  0  0  0  0  0  0
  9 10  2  0
 10 11  1  0
 10  3  1  0
  3  4  2  0
  3  8  1  0
  4  5  1  0
  5  6  2  0
  6  7  1  0
  7  1  1  0
  7  8  2  0
  1  2  2  0
  2 12  1  0
 12 13  1  0
 13 14  2  0
 13 18  1  0
 14 15  1  0
 15 16  2  0
 16 17  1  0
 17 19  1  0
 17 18  2  0
 19 20  2  0
 19 21  1  0
M  END
>  <minimizedAffinity>  (110) 
-8.64959

$$$$
data/200k_reference_output/data/smiles/29761.pdb
     RDKit          3D

 21 23  0  0  0  0  0  0  0  0999 V2000
   70.4488   49.2477   54.0229 C   0  0  0  0  0  0  0  0  0  0  0  0
   71.6155   49.5389   53.4222 N   0  0  0  0  0  0  0  0  0  0  0  0
   72.1780   50.5933   53.9815 N   0  0  0  0  0  0  0  0  0  0  0  0
   71.3967   51.0417   54.9819 C   0  0  0  0  0  0  0  0  0  0  0  0
   70.3137   50.1970   55.0065 C   0  0  0  0  0  0  0  0  0  0  0  0
   66.9488   44.9950   52.6427 O   0  0  0  0  0  0  0  0  0  0  0  0
   67.8109   46.0422   52.9801 C   0  0  0  0  0  0  0  0  0  0  0  0
   68.1525   46.2892   54.2934 C   0  0  0  0  0  0  0  0  0  0  0  0
   69.0022   47.3208   54.6358 C   0  0  0  0  0  0  0  0  0  0  0  0
   69.5480   48.1509   53.6764 C   0  0  0  0  0  0  0  0  0  0  0  0
   69.2008   47.8979   52.3647 C   0  0  0  0  0  0  0  0  0  0  0  0
   69.7594   48.7468   51.3942 O   0  0  0  0  0  0  0  0  0  0  0  0
   68.3516   46.8681   52.0164 C   0  0  0  0  0  0  0  0  0  0  0  0
   68.0284   46.6503   50.6679 O   0  0  0  0  0  0  0  0  0  0  0  0
   69.2087   50.3317   55.9564 C   0  0  0  0  0  0  0  0  0  0  0  0
   69.1270   49.6113   57.1096 C   0  0  0  0  0  0  0  0  0  0  0  0
   68.0676   49.7783   57.9631 C   0  0  0  0  0  0  0  0  0  0  0  0
   67.0746   50.6839   57.6563 C   0  0  0  0  0  0  0  0  0  0  0  0
   67.1587   51.4151   56.4849 C   0  0  0  0  0  0  0  0  0  0  0  0
   68.2262   51.2389   55.6361 C   0  0  0  0  0  0  0  0  0  0  0  0
   68.3090   51.9668   54.4714 F   0  0  0  0  0  0  0  0  0  0  0  0
  6  7  1  0
  7  8  2  0
  7 13  1  0
  8  9  1  0
  9 10  2  0
 10  1  1  0
 10 11  1  0
  1  2  2  0
  1  5  1  0
  2  3  1  0
  3  4  1  0
  4  5  2  0
  5 15  1  0
 15 16  2  0
 15 20  1  0
 16 17  1  0
 17 18  2  0
 18 19  1  0
 19 20  2  0
 20 21  1  0
 11 12  1  0
 11 13  2  0
 13 14  1  0
M  END
>  <minimizedAffinity>  (111) 
-8.64943

$$$$
data/reference_output_2/data/smiles/120238.pdb
     RDKit          3D

 22 24  0  0  0  0  0  0  0  0999 V2000
   68.8222   46.9737   54.3969 C   0  0  0  0  0  0  0  0  0  0  0  0
   68.7662   46.4216   53.1417 C   0  0  0  0  0  0  0  0  0  0  0  0
   69.0578   47.1930   52.0139 C   0  0  0  0  0  0  0  0  0  0  0  0
   69.4017   48.5091   52.1577 C   0  0  0  0  0  0  0  0  0  0  0  0
   69.7148   49.5065   51.3149 N   0  0  0  0  0  0  0  0  0  0  0  0
   69.9521   50.5891   51.9451 O   0  0  0  0  0  0  0  0  0  0  0  0
   69.8209   50.4173   53.2543 C   0  0  0  0  0  0  0  0  0  0  0  0
   69.4712   49.1102   53.4226 C   0  0  0  0  0  0  0  0  0  0  0  0
   69.1741   48.3086   54.5000 C   0  0  0  0  0  0  0  0  0  0  0  0
   70.0285   51.4801   54.2111 C   0  0  0  0  0  0  0  0  0  0  0  0
   71.2214   52.0195   54.6079 C   0  0  0  0  0  0  0  0  0  0  0  0
   71.3472   53.0126   55.5903 C   0  0  0  0  0  0  0  0  0  0  0  0
   70.2219   53.4858   56.2013 C   0  0  0  0  0  0  0  0  0  0  0  0
   69.0012   52.9689   55.8284 C   0  0  0  0  0  0  0  0  0  0  0  0
   68.8932   52.0012   54.8710 C   0  0  0  0  0  0  0  0  0  0  0  0
   68.5191   46.1815   55.5775 C   0  0  0  0  0  0  0  0  0  0  0  0
   68.0402   45.0345   55.4441 O   0  0  0  0  0  0  0  0  0  0  0  0
   68.7481   46.6683   56.8427 O   0  0  0  0  0  0  0  0  0  0  0  0
   70.0110   46.9432   57.3841 C   0  0  0  0  0  0  0  0  0  0  0  0
   71.7193   45.1187   57.8925 N   0  0  0  0  0  0  0  0  0  0  0  0
   70.4891   45.7658   58.1558 C   0  0  0  0  0  0  0  0  0  0  0  0
   69.7721   45.3047   59.1008 O   0  0  0  0  0  0  0  0  0  0  0  0
 20 21  1  0
 21 22  2  0
 21 19  1  0
 19 18  1  0
 18 16  1  0
 16 17  2  0
 16  1  1  0
  1  2  1  0
  1  9  2  0
  2  3  2  0
  3  4  1  0
  4  5  2  0
  4  8  1  0
  5  6  1  0
  6  7  1  0
  7 10  1  0
  7  8  2  0
 10 11  2  0
 10 15  1  0
 11 12  1  0
 12 13  2  0
 13 14  1  0
 14 15  2  0
  8  9  1  0
M  END
>  <minimizedAffinity>  (112) 
-8.64492

$$$$
data/reference_output_2/data/smiles/149803.pdb
     RDKit          3D

 21 23  0  0  0  0  0  0  0  0999 V2000
   67.8069   45.0165   55.2608 N   0  0  0  0  0  0  0  0  0  0  0  0
   68.2344   46.3618   55.3036 C   0  0  0  0  0  0  0  0  0  0  0  0
   68.1772   47.0344   56.4979 N   0  0  0  0  0  0  0  0  0  0  0  0
   68.5668   48.3132   56.6080 C   0  0  0  0  0  0  0  0  0  0  0  0
   69.0277   48.9675   55.5326 N   0  0  0  0  0  0  0  0  0  0  0  0
   69.1147   48.3761   54.3237 C   0  0  0  0  0  0  0  0  0  0  0  0
   69.5929   49.0748   53.2311 C   0  0  0  0  0  0  0  0  0  0  0  0
   69.6779   48.4622   52.0013 C   0  0  0  0  0  0  0  0  0  0  0  0
   69.2837   47.1546   51.8718 C   0  0  0  0  0  0  0  0  0  0  0  0
   68.7978   46.4427   52.9753 C   0  0  0  0  0  0  0  0  0  0  0  0
   68.7083   47.0446   54.2110 C   0  0  0  0  0  0  0  0  0  0  0  0
   67.8069   42.7409   56.2545 C   0  0  0  0  0  0  0  0  0  0  0  0
   66.6315   42.5929   55.8203 O   0  0  0  0  0  0  0  0  0  0  0  0
   68.4198   43.9857   55.9720 N   0  0  0  0  0  0  0  0  0  0  0  0
   70.1277   38.3034   59.1409 C   0  0  0  0  0  0  0  0  0  0  0  0
   69.5574   39.4712   58.4068 C   0  0  0  0  0  0  0  0  0  0  0  0
   70.1639   40.7047   58.3872 C   0  0  0  0  0  0  0  0  0  0  0  0
   69.6064   41.7784   57.6917 C   0  0  0  0  0  0  0  0  0  0  0  0
   68.4260   41.6499   56.9949 C   0  0  0  0  0  0  0  0  0  0  0  0
   67.8297   40.4050   57.0250 C   0  0  0  0  0  0  0  0  0  0  0  0
   68.3746   39.3382   57.7104 C   0  0  0  0  0  0  0  0  0  0  0  0
 15 16  1  0
 16 17  2  0
 16 21  1  0
 17 18  1  0
 18 19  2  0
 19 12  1  0
 19 20  1  0
 12 13  2  0
 12 14  1  0
 14  1  1  0
  1  2  1  0
  2  3  2  0
  2 11  1  0
  3  4  1  0
  4  5  2  0
  5  6  1  0
  6  7  1  0
  6 11  2  0
  7  8  2  0
  8  9  1  0
  9 10  2  0
 10 11  1  0
 20 21  2  0
M  END
>  <minimizedAffinity>  (113) 
-8.64395

$$$$
data/reference_output_2/data/smiles/174059.pdb
     RDKit          3D

 20 22  0  0  0  0  0  0  0  0999 V2000
   70.3796   48.8762   50.9591 O   0  0  0  0  0  0  0  0  0  0  0  0
   70.2549   48.8199   52.2019 C   0  0  0  0  0  0  0  0  0  0  0  0
   70.8537   49.6169   53.0261 O   0  0  0  0  0  0  0  0  0  0  0  0
   70.7251   49.5585   54.3332 C   0  0  0  0  0  0  0  0  0  0  0  0
   71.3858   50.4206   54.9682 O   0  0  0  0  0  0  0  0  0  0  0  0
   69.9336   48.6337   54.9548 N   0  0  0  0  0  0  0  0  0  0  0  0
   69.2977   47.7907   54.0994 C   0  0  0  0  0  0  0  0  0  0  0  0
   68.4576   46.8354   54.5988 C   0  0  0  0  0  0  0  0  0  0  0  0
   67.7600   45.9483   53.7696 C   0  0  0  0  0  0  0  0  0  0  0  0
   67.9034   46.0150   52.4030 C   0  0  0  0  0  0  0  0  0  0  0  0
   67.0421   44.9153   51.3452 Cl  0  0  0  0  0  0  0  0  0  0  0  0
   68.7422   46.9722   51.8905 C   0  0  0  0  0  0  0  0  0  0  0  0
   69.4315   47.8513   52.7313 C   0  0  0  0  0  0  0  0  0  0  0  0
   69.8157   48.6068   56.3747 C   0  0  0  0  0  0  0  0  0  0  0  0
   68.6138   49.3340   56.8747 C   0  0  0  0  0  0  0  0  0  0  0  0
   67.5945   48.7303   57.5679 C   0  0  0  0  0  0  0  0  0  0  0  0
   66.5046   49.4968   57.9876 C   0  0  0  0  0  0  0  0  0  0  0  0
   66.4194   50.8455   57.7264 C   0  0  0  0  0  0  0  0  0  0  0  0
   67.4525   51.4452   57.0258 C   0  0  0  0  0  0  0  0  0  0  0  0
   68.5289   50.7071   56.6079 C   0  0  0  0  0  0  0  0  0  0  0  0
  1  2  2  0
  2  3  1  0
  2 13  1  0
  3  4  1  0
  4  5  2  0
  4  6  1  0
  6 14  1  0
  6  7  1  0
 14 15  1  0
 15 16  2  0
 15 20  1  0
 16 17  1  0
 17 18  2  0
 18 19  1  0
 19 20  2  0
  7  8  1  0
  7 13  2  0
  8  9  2  0
  9 10  1  0
 10 11  1  0
 10 12  2  0
 12 13  1  0
M  END
>  <minimizedAffinity>  (114) 
-8.63534

$$$$
data/200k_reference_output/data/smiles/37082.pdb
     RDKit          3D

 20 22  0  0  0  0  0  0  0  0999 V2000
   70.3371   50.0107   53.5479 C   0  0  0  0  0  0  0  0  0  0  0  0
   71.6661   49.6611   53.5305 N   0  0  0  0  0  0  0  0  0  0  0  0
   72.5835   50.3525   54.1807 N   0  0  0  0  0  0  0  0  0  0  0  0
   72.2813   51.4495   54.9050 C   0  0  0  0  0  0  0  0  0  0  0  0
   73.1661   52.1148   55.5290 O   0  0  0  0  0  0  0  0  0  0  0  0
   70.9844   51.8558   54.9679 C   0  0  0  0  0  0  0  0  0  0  0  0
   70.0256   51.1132   54.2774 C   0  0  0  0  0  0  0  0  0  0  0  0
   68.6370   51.5580   54.3999 C   0  0  0  0  0  0  0  0  0  0  0  0
   68.3417   51.8274   55.8640 C   0  0  0  0  0  0  0  0  0  0  0  0
   69.3643   52.6300   56.5726 C   0  0  0  0  0  0  0  0  0  0  0  0
   70.5244   53.0501   55.7166 C   0  0  0  0  0  0  0  0  0  0  0  0
   69.3819   49.2057   52.7545 C   0  0  0  0  0  0  0  0  0  0  0  0
   68.6031   46.4721   56.7904 N   0  0  0  0  0  0  0  0  0  0  0  0
   68.5626   46.6077   55.3638 C   0  0  0  0  0  0  0  0  0  0  0  0
   68.9853   47.7996   54.7735 C   0  0  0  0  0  0  0  0  0  0  0  0
   68.9559   47.9515   53.4229 C   0  0  0  0  0  0  0  0  0  0  0  0
   68.5078   46.9337   52.5939 C   0  0  0  0  0  0  0  0  0  0  0  0
   68.0905   45.7596   53.1695 C   0  0  0  0  0  0  0  0  0  0  0  0
   68.1162   45.5946   54.5438 C   0  0  0  0  0  0  0  0  0  0  0  0
   67.6854   44.3880   55.1232 O   0  0  0  0  0  0  0  0  0  0  0  0
 13 14  1  0
 14 15  2  0
 14 19  1  0
 15 16  1  0
 16 12  1  0
 16 17  2  0
 12  1  1  0
  1  2  2  0
  1  7  1  0
  2  3  1  0
  3  4  1  0
  4  5  2  0
  4  6  1  0
  6  7  2  0
  6 11  1  0
  7  8  1  0
  8  9  1  0
  9 10  1  0
 10 11  1  0
 17 18  1  0
 18 19  2  0
 19 20  1  0
M  END
>  <minimizedAffinity>  (115) 
-8.63521

$$$$
data/reference_output_2/data/smiles/130164.pdb
     RDKit          3D

 19 21  0  0  0  0  0  0  0  0999 V2000
   69.9405   49.8061   50.8784 N   0  0  0  0  0  0  0  0  0  0  0  0
   69.4684   48.7413   51.6875 C   0  0  0  0  0  0  0  0  0  0  0  0
   68.8232   47.6273   51.3415 N   0  0  0  0  0  0  0  0  0  0  0  0
   68.5565   46.8849   52.4293 C   0  0  0  0  0  0  0  0  0  0  0  0
   67.9390   45.6610   52.5944 C   0  0  0  0  0  0  0  0  0  0  0  0
   67.8127   45.0952   53.8425 C   0  0  0  0  0  0  0  0  0  0  0  0
   68.3061   45.7482   54.9467 C   0  0  0  0  0  0  0  0  0  0  0  0
   68.2009   45.2096   56.2282 O   0  0  0  0  0  0  0  0  0  0  0  0
   68.9287   46.9749   54.8112 C   0  0  0  0  0  0  0  0  0  0  0  0
   69.0475   47.5351   53.5599 C   0  0  0  0  0  0  0  0  0  0  0  0
   69.6164   48.7000   53.0953 C   0  0  0  0  0  0  0  0  0  0  0  0
   70.3138   49.6958   53.8484 C   0  0  0  0  0  0  0  0  0  0  0  0
   71.6014   49.7395   53.6799 O   0  0  0  0  0  0  0  0  0  0  0  0
   69.8385   50.6863   54.7750 C   0  0  0  0  0  0  0  0  0  0  0  0
   69.4778   51.9617   54.3921 C   0  0  0  0  0  0  0  0  0  0  0  0
   69.0151   52.8799   55.3056 C   0  0  0  0  0  0  0  0  0  0  0  0
   68.8797   52.5982   56.6457 C   0  0  0  0  0  0  0  0  0  0  0  0
   69.2433   51.3144   57.0208 C   0  0  0  0  0  0  0  0  0  0  0  0
   69.7049   50.3896   56.1295 C   0  0  0  0  0  0  0  0  0  0  0  0
  1  2  1  0
  2  3  1  0
  2 11  2  0
  3  4  1  0
  4  5  2  0
  4 10  1  0
  5  6  1  0
  6  7  2  0
  7  8  1  0
  7  9  1  0
  9 10  2  0
 10 11  1  0
 11 12  1  0
 12 13  2  0
 12 14  1  0
 14 15  2  0
 14 19  1  0
 15 16  1  0
 16 17  2  0
 17 18  1  0
 18 19  2  0
M  END
>  <minimizedAffinity>  (116) 
-8.63317

$$$$
data/reference_output_2/data/smiles/144871.pdb
     RDKit          3D

 22 24  0  0  0  0  0  0  0  0999 V2000
   70.3087   50.0571   54.9427 N   0  0  0  0  0  0  0  0  0  0  0  0
   70.4093   49.1836   53.9497 C   0  0  0  0  0  0  0  0  0  0  0  0
   71.6056   49.4420   53.3624 N   0  0  0  0  0  0  0  0  0  0  0  0
   72.2339   50.4316   53.9524 N   0  0  0  0  0  0  0  0  0  0  0  0
   71.4284   50.8254   54.9470 C   0  0  0  0  0  0  0  0  0  0  0  0
   71.6749   51.7590   55.7538 O   0  0  0  0  0  0  0  0  0  0  0  0
   69.4875   48.1327   53.5199 C   0  0  0  0  0  0  0  0  0  0  0  0
   68.7284   47.3695   54.3597 C   0  0  0  0  0  0  0  0  0  0  0  0
   67.8758   46.3664   53.8615 C   0  0  0  0  0  0  0  0  0  0  0  0
   67.7589   46.1005   52.5250 C   0  0  0  0  0  0  0  0  0  0  0  0
   66.9060   45.1035   52.0798 O   0  0  0  0  0  0  0  0  0  0  0  0
   68.5208   46.8662   51.6716 C   0  0  0  0  0  0  0  0  0  0  0  0
   69.3551   47.8471   52.1563 C   0  0  0  0  0  0  0  0  0  0  0  0
   70.1278   48.6231   51.2883 O   0  0  0  0  0  0  0  0  0  0  0  0
   69.2224   49.4477   57.0397 C   0  0  0  0  0  0  0  0  0  0  0  0
   68.1592   49.6406   57.9199 C   0  0  0  0  0  0  0  0  0  0  0  0
   67.1725   50.5674   57.6861 C   0  0  0  0  0  0  0  0  0  0  0  0
   67.2274   51.3374   56.5475 C   0  0  0  0  0  0  0  0  0  0  0  0
   68.2537   51.1650   55.6792 C   0  0  0  0  0  0  0  0  0  0  0  0
   69.2572   50.2308   55.9045 C   0  0  0  0  0  0  0  0  0  0  0  0
   71.2187   48.8956   58.3954 C   0  0  0  0  0  0  0  0  0  0  0  0
   70.2636   48.4272   57.3430 C   0  0  0  0  0  0  0  0  0  0  0  0
 21 22  1  0
 22 15  1  0
 15 16  2  0
 15 20  1  0
 16 17  1  0
 17 18  2  0
 18 19  1  0
 19 20  2  0
 20  1  1  0
  1  2  1  0
  1  5  1  0
  2  7  1  0
  2  3  2  0
  7  8  2  0
  7 13  1  0
  8  9  1  0
  9 10  2  0
 10 11  1  0
 10 12  1  0
 12 13  2  0
 13 14  1  0
  3  4  1  0
  4  5  1  0
  5  6  2  0
M  END
>  <minimizedAffinity>  (117) 
-8.63050

$$$$
data/200k_reference_output/data/smiles/70105.pdb
     RDKit          3D

 20 22  0  0  0  0  0  0  0  0999 V2000
   68.7354   46.9121   54.1754 C   0  0  0  0  0  0  0  0  0  0  0  0
   68.7978   46.3284   52.9270 C   0  0  0  0  0  0  0  0  0  0  0  0
   69.1417   47.0888   51.8057 C   0  0  0  0  0  0  0  0  0  0  0  0
   69.4194   48.4274   51.9487 C   0  0  0  0  0  0  0  0  0  0  0  0
   69.7755   49.4076   51.0788 N   0  0  0  0  0  0  0  0  0  0  0  0
   69.9289   50.5384   51.7335 N   0  0  0  0  0  0  0  0  0  0  0  0
   69.6829   50.3577   53.0531 C   0  0  0  0  0  0  0  0  0  0  0  0
   69.3627   49.0294   53.1882 C   0  0  0  0  0  0  0  0  0  0  0  0
   69.0171   48.2473   54.2922 C   0  0  0  0  0  0  0  0  0  0  0  0
   69.7492   51.3575   54.1129 C   0  0  0  0  0  0  0  0  0  0  0  0
   68.5985   51.8174   54.7203 C   0  0  0  0  0  0  0  0  0  0  0  0
   68.6841   52.7603   55.7236 C   0  0  0  0  0  0  0  0  0  0  0  0
   69.9313   53.2178   56.0898 C   0  0  0  0  0  0  0  0  0  0  0  0
   69.9506   54.1536   57.0933 F   0  0  0  0  0  0  0  0  0  0  0  0
   71.0901   52.7689   55.4930 C   0  0  0  0  0  0  0  0  0  0  0  0
   71.0124   51.8273   54.4909 C   0  0  0  0  0  0  0  0  0  0  0  0
   68.1950   46.6149   56.4691 O   0  0  0  0  0  0  0  0  0  0  0  0
   68.3759   46.0946   55.3154 C   0  0  0  0  0  0  0  0  0  0  0  0
   68.1981   44.6942   55.2573 N   0  0  0  0  0  0  0  0  0  0  0  0
   67.8565   43.9575   56.3642 O   0  0  0  0  0  0  0  0  0  0  0  0
 17 18  2  0
 18 19  1  0
 18  1  1  0
 19 20  1  0
  1  2  2  0
  1  9  1  0
  2  3  1  0
  3  4  2  0
  4  5  1  0
  4  8  1  0
  5  6  1  0
  6  7  2  0
  7 10  1  0
  7  8  1  0
 10 11  2  0
 10 16  1  0
 11 12  1  0
 12 13  2  0
 13 14  1  0
 13 15  1  0
 15 16  2  0
  8  9  2  0
M  END
>  <minimizedAffinity>  (118) 
-8.62827

$$$$
data/reference_output_2/data/smiles/143162.pdb
     RDKit          3D

 20 22  0  0  0  0  0  0  0  0999 V2000
   70.1272   49.2821   50.9633 O   0  0  0  0  0  0  0  0  0  0  0  0
   69.8507   48.8254   52.1049 C   0  0  0  0  0  0  0  0  0  0  0  0
   70.2441   49.3741   53.4135 C   0  0  0  0  0  0  0  0  0  0  0  0
   70.9399   50.4312   53.4476 O   0  0  0  0  0  0  0  0  0  0  0  0
   69.7216   48.5477   54.4313 N   0  0  0  0  0  0  0  0  0  0  0  0
   68.9988   47.4819   53.7832 C   0  0  0  0  0  0  0  0  0  0  0  0
   68.2747   46.4026   54.2500 C   0  0  0  0  0  0  0  0  0  0  0  0
   68.1228   46.1887   55.5612 F   0  0  0  0  0  0  0  0  0  0  0  0
   67.6408   45.4961   53.3931 C   0  0  0  0  0  0  0  0  0  0  0  0
   67.7272   45.6682   52.0393 C   0  0  0  0  0  0  0  0  0  0  0  0
   68.4431   46.7400   51.5561 C   0  0  0  0  0  0  0  0  0  0  0  0
   69.0625   47.6252   52.4144 C   0  0  0  0  0  0  0  0  0  0  0  0
   69.8811   48.7405   55.8466 C   0  0  0  0  0  0  0  0  0  0  0  0
   68.7183   49.3280   56.5661 C   0  0  0  0  0  0  0  0  0  0  0  0
   67.8633   48.5326   57.3033 C   0  0  0  0  0  0  0  0  0  0  0  0
   66.7930   49.1149   57.9793 C   0  0  0  0  0  0  0  0  0  0  0  0
   66.5350   50.4702   57.9529 C   0  0  0  0  0  0  0  0  0  0  0  0
   67.3828   51.2695   57.2193 C   0  0  0  0  0  0  0  0  0  0  0  0
   68.4595   50.6839   56.5379 C   0  0  0  0  0  0  0  0  0  0  0  0
   69.2569   51.4780   55.7929 F   0  0  0  0  0  0  0  0  0  0  0  0
  1  2  2  0
  2  3  1  0
  2 12  1  0
  3  4  2  0
  3  5  1  0
  5 13  1  0
  5  6  1  0
 13 14  1  0
 14 15  2  0
 14 19  1  0
 15 16  1  0
 16 17  2  0
 17 18  1  0
 18 19  2  0
 19 20  1  0
  6  7  2  0
  6 12  1  0
  7  8  1  0
  7  9  1  0
  9 10  2  0
 10 11  1  0
 11 12  2  0
M  END
>  <minimizedAffinity>  (119) 
-8.62590

$$$$
data/reference_output_2/data/smiles/185913.pdb
     RDKit          3D

 19 20  0  0  0  0  0  0  0  0999 V2000
   71.4105   48.9322   52.7672 O   0  0  0  0  0  0  0  0  0  0  0  0
   70.2363   48.6622   52.1132 C   0  0  0  0  0  0  0  0  0  0  0  0
   69.9532   49.3443   51.0987 O   0  0  0  0  0  0  0  0  0  0  0  0
   69.2889   47.6312   52.5150 C   0  0  0  0  0  0  0  0  0  0  0  0
   69.0608   47.3327   53.8395 C   0  0  0  0  0  0  0  0  0  0  0  0
   68.1721   46.3620   54.2560 C   0  0  0  0  0  0  0  0  0  0  0  0
   67.4594   45.6364   53.3236 C   0  0  0  0  0  0  0  0  0  0  0  0
   67.6779   45.9243   51.9917 C   0  0  0  0  0  0  0  0  0  0  0  0
   66.9890   45.2222   51.0595 F   0  0  0  0  0  0  0  0  0  0  0  0
   68.5678   46.8951   51.5799 C   0  0  0  0  0  0  0  0  0  0  0  0
   71.5331   49.8594   53.7835 N   0  0  0  0  0  0  0  0  0  0  0  0
   70.4257   51.8242   53.2559 N   0  0  0  0  0  0  0  0  0  0  0  0
   70.5380   50.8244   54.0781 C   0  0  0  0  0  0  0  0  0  0  0  0
   69.6545   50.7517   55.2337 C   0  0  0  0  0  0  0  0  0  0  0  0
   69.8548   49.7923   56.2021 C   0  0  0  0  0  0  0  0  0  0  0  0
   69.0244   49.7013   57.3183 C   0  0  0  0  0  0  0  0  0  0  0  0
   67.9718   50.5728   57.4891 C   0  0  0  0  0  0  0  0  0  0  0  0
   67.7688   51.5335   56.5229 C   0  0  0  0  0  0  0  0  0  0  0  0
   68.6059   51.6172   55.4083 C   0  0  0  0  0  0  0  0  0  0  0  0
 12 13  2  0
 13 11  1  0
 13 14  1  0
 11  1  1  0
  1  2  1  0
  2  3  2  0
  2  4  1  0
  4  5  2  0
  4 10  1  0
  5  6  1  0
  6  7  2  0
  7  8  1  0
  8  9  1  0
  8 10  2  0
 14 15  2  0
 14 19  1  0
 15 16  1  0
 16 17  2  0
 17 18  1  0
 18 19  2  0
M  CHG  1  12   1
M  END
>  <minimizedAffinity>  (120) 
-8.62456

$$$$
data/200k_reference_output/data/smiles/18687.pdb
     RDKit          3D

 21 23  0  0  0  0  0  0  0  0999 V2000
   68.2313   46.5647   56.2433 O   0  0  0  0  0  0  0  0  0  0  0  0
   68.3637   46.6608   54.8796 C   0  0  0  0  0  0  0  0  0  0  0  0
   67.8853   45.5985   54.0982 C   0  0  0  0  0  0  0  0  0  0  0  0
   67.9611   45.5817   52.7319 C   0  0  0  0  0  0  0  0  0  0  0  0
   68.5316   46.6507   52.0753 C   0  0  0  0  0  0  0  0  0  0  0  0
   69.0195   47.7223   52.7968 C   0  0  0  0  0  0  0  0  0  0  0  0
   68.9257   47.7017   54.1913 C   0  0  0  0  0  0  0  0  0  0  0  0
   69.5227   48.8496   54.8989 C   0  0  0  0  0  0  0  0  0  0  0  0
   69.2873   50.1362   54.1223 C   0  0  0  0  0  0  0  0  0  0  0  0
   70.0046   50.0276   52.7999 C   0  0  0  0  0  0  0  0  0  0  0  0
   69.6046   48.8277   52.0267 C   0  0  0  0  0  0  0  0  0  0  0  0
   71.0516   46.2516   58.6700 C   0  0  0  0  0  0  0  0  0  0  0  0
   71.2159   44.8684   58.6381 C   0  0  0  0  0  0  0  0  0  0  0  0
   70.3894   44.1296   57.8196 C   0  0  0  0  0  0  0  0  0  0  0  0
   69.4394   44.6846   57.0569 N   0  0  0  0  0  0  0  0  0  0  0  0
   69.2323   46.0381   57.0475 C   0  0  0  0  0  0  0  0  0  0  0  0
   70.0595   46.7622   57.8648 C   0  0  0  0  0  0  0  0  0  0  0  0
   72.8628   47.9052   58.9123 N   0  0  0  0  0  0  0  0  0  0  0  0
   71.8941   47.0739   59.5124 C   0  0  0  0  0  0  0  0  0  0  0  0
   71.7861   47.0670   60.7859 N   0  0  0  0  0  0  0  0  0  0  0  0
   72.5888   47.8507   61.5858 O   0  0  0  0  0  0  0  0  0  0  0  0
 18 19  1  0
 19 20  2  0
 19 12  1  0
 20 21  1  0
 12 13  2  0
 12 17  1  0
 13 14  1  0
 14 15  2  0
 15 16  1  0
 16  1  1  0
 16 17  2  0
  1  2  1  0
  2  3  2  0
  2  7  1  0
  3  4  1  0
  4  5  2  0
  5  6  1  0
  6  7  2  0
  6 11  1  0
  7  8  1  0
  8  9  1  0
  9 10  1  0
 10 11  1  0
M  CHG  1  20   1
M  END
>  <minimizedAffinity>  (121) 
-8.61392

$$$$
data/reference_output_2/data/smiles/143908.pdb
     RDKit          3D

 19 20  0  0  0  0  0  0  0  0999 V2000
   68.4180   46.7157   54.0707 C   0  0  0  0  0  0  0  0  0  0  0  0
   68.4005   46.3252   52.7255 C   0  0  0  0  0  0  0  0  0  0  0  0
   69.0515   47.0220   51.7295 C   0  0  0  0  0  0  0  0  0  0  0  0
   69.7655   48.1757   52.0582 C   0  0  0  0  0  0  0  0  0  0  0  0
   70.4170   48.8689   51.0453 O   0  0  0  0  0  0  0  0  0  0  0  0
   69.8011   48.5846   53.3686 C   0  0  0  0  0  0  0  0  0  0  0  0
   69.1312   47.8511   54.3447 C   0  0  0  0  0  0  0  0  0  0  0  0
   70.5476   49.7839   53.7027 C   0  0  0  0  0  0  0  0  0  0  0  0
   69.9735   50.8461   54.0220 O   0  0  0  0  0  0  0  0  0  0  0  0
   71.9525   49.8061   53.6844 O   0  0  0  0  0  0  0  0  0  0  0  0
   67.7340   45.9349   54.9967 N   0  0  0  0  0  0  0  0  0  0  0  0
   67.7064   41.2847   56.3493 C   0  0  0  0  0  0  0  0  0  0  0  0
   68.2966   42.6533   56.4469 C   0  0  0  0  0  0  0  0  0  0  0  0
   69.3680   42.8485   57.3040 C   0  0  0  0  0  0  0  0  0  0  0  0
   69.8896   44.1310   57.3692 C   0  0  0  0  0  0  0  0  0  0  0  0
   71.0393   44.4849   58.2461 C   0  0  0  0  0  0  0  0  0  0  0  0
   69.3271   45.0575   56.6148 N   0  0  0  0  0  0  0  0  0  0  0  0
   68.2939   44.8988   55.7808 C   0  0  0  0  0  0  0  0  0  0  0  0
   67.7804   43.6414   55.7140 N   0  0  0  0  0  0  0  0  0  0  0  0
 12 13  1  0
 13 14  2  0
 13 19  1  0
 14 15  1  0
 15 16  1  0
 15 17  2  0
 17 18  1  0
 18 11  1  0
 18 19  2  0
 11  1  1  0
  1  2  2  0
  1  7  1  0
  2  3  1  0
  3  4  2  0
  4  5  1  0
  4  6  1  0
  6  8  1  0
  6  7  2  0
  8  9  2  0
  8 10  1  0
M  END
>  <minimizedAffinity>  (122) 
-8.61177

$$$$
data/reference_output_2/data/smiles/156486.pdb
     RDKit          3D

 21 23  0  0  0  0  0  0  0  0999 V2000
   70.5279   48.6836   50.9231 O   0  0  0  0  0  0  0  0  0  0  0  0
   70.3499   48.6283   52.1625 C   0  0  0  0  0  0  0  0  0  0  0  0
   71.0272   49.4096   53.0305 N   0  0  0  0  0  0  0  0  0  0  0  0
   70.8618   49.3727   54.3298 N   0  0  0  0  0  0  0  0  0  0  0  0
   69.9687   48.5212   54.9601 C   0  0  0  0  0  0  0  0  0  0  0  0
   69.2783   47.7254   54.1068 C   0  0  0  0  0  0  0  0  0  0  0  0
   68.3482   46.8232   54.5820 C   0  0  0  0  0  0  0  0  0  0  0  0
   67.6388   46.0162   53.7280 C   0  0  0  0  0  0  0  0  0  0  0  0
   67.8089   46.0555   52.3606 C   0  0  0  0  0  0  0  0  0  0  0  0
   68.7375   46.9536   51.8655 C   0  0  0  0  0  0  0  0  0  0  0  0
   69.4354   47.7498   52.7270 C   0  0  0  0  0  0  0  0  0  0  0  0
   69.8752   48.5729   56.4338 C   0  0  0  0  0  0  0  0  0  0  0  0
   68.7682   49.4355   56.9375 C   0  0  0  0  0  0  0  0  0  0  0  0
   67.7148   48.6972   57.5230 C   0  0  0  0  0  0  0  0  0  0  0  0
   66.5867   49.3775   57.8759 C   0  0  0  0  0  0  0  0  0  0  0  0
   66.4309   50.7340   57.6901 C   0  0  0  0  0  0  0  0  0  0  0  0
   67.4709   51.4143   57.1245 C   0  0  0  0  0  0  0  0  0  0  0  0
   68.6710   50.7730   56.7353 C   0  0  0  0  0  0  0  0  0  0  0  0
   69.7449   51.5476   56.2894 N   0  0  0  0  0  0  0  0  0  0  0  0
   70.8217   51.8419   56.7473 O   0  0  0  0  0  0  0  0  0  0  0  0
   69.5146   52.1544   55.0118 O   0  0  0  0  0  0  0  0  0  0  0  0
  1  2  2  0
  2  3  1  0
  2 11  1  0
  3  4  1  0
  4  5  2  0
  5 12  1  0
  5  6  1  0
 12 13  1  0
 13 14  2  0
 13 18  1  0
 14 15  1  0
 15 16  2  0
 16 17  1  0
 17 18  2  0
 18 19  1  0
 19 20  2  0
 19 21  1  0
  6  7  1  0
  6 11  2  0
  7  8  2  0
  8  9  1  0
  9 10  2  0
 10 11  1  0
M  CHG  2  19   1  21  -1
M  END
>  <minimizedAffinity>  (123) 
-8.61142

$$$$
data/200k_reference_output/data/smiles/21786.pdb
     RDKit          3D

 19 20  0  0  0  0  0  0  0  0999 V2000
   69.2473   47.6613   52.7321 C   0  0  0  0  0  0  0  0  0  0  0  0
   69.3944   47.5756   54.0768 N   0  0  0  0  0  0  0  0  0  0  0  0
   68.7771   46.6994   54.8468 C   0  0  0  0  0  0  0  0  0  0  0  0
   67.9336   45.8224   54.2364 N   0  0  0  0  0  0  0  0  0  0  0  0
   67.7504   45.8610   52.9180 C   0  0  0  0  0  0  0  0  0  0  0  0
   66.9627   45.0421   52.3479 O   0  0  0  0  0  0  0  0  0  0  0  0
   68.3925   46.7726   52.1122 C   0  0  0  0  0  0  0  0  0  0  0  0
   68.1662   46.7702   50.7398 O   0  0  0  0  0  0  0  0  0  0  0  0
   70.5832   48.2545   50.9190 O   0  0  0  0  0  0  0  0  0  0  0  0
   69.9539   48.6454   51.9303 C   0  0  0  0  0  0  0  0  0  0  0  0
   69.9788   50.0009   52.2093 O   0  0  0  0  0  0  0  0  0  0  0  0
   68.9488   46.6230   56.2909 C   0  0  0  0  0  0  0  0  0  0  0  0
   69.5447   47.7978   56.9484 C   0  0  0  0  0  0  0  0  0  0  0  0
   68.5920   48.9200   57.1133 C   0  0  0  0  0  0  0  0  0  0  0  0
   67.4071   48.8360   57.7933 C   0  0  0  0  0  0  0  0  0  0  0  0
   66.5417   49.8976   57.9720 C   0  0  0  0  0  0  0  0  0  0  0  0
   66.8556   51.1213   57.4498 C   0  0  0  0  0  0  0  0  0  0  0  0
   68.0454   51.2375   56.7563 C   0  0  0  0  0  0  0  0  0  0  0  0
   68.8954   50.1820   56.5849 C   0  0  0  0  0  0  0  0  0  0  0  0
  9 10  2  0
 10 11  1  0
 10  1  1  0
  1  2  1  0
  1  7  2  0
  2  3  2  0
  3 12  1  0
  3  4  1  0
 12 13  1  0
 13 14  1  0
 14 15  2  0
 14 19  1  0
 15 16  1  0
 16 17  2  0
 17 18  1  0
 18 19  2  0
  4  5  1  0
  5  6  2  0
  5  7  1  0
  7  8  1  0
M  END
>  <minimizedAffinity>  (124) 
-8.61104

$$$$
data/200k_reference_output/data/smiles/31615.pdb
     RDKit          3D

 20 21  0  0  0  0  0  0  0  0999 V2000
   69.9383   49.1753   52.4772 S   0  0  0  0  0  0  0  0  0  0  0  0
   69.9585   49.5725   51.0112 O   0  0  0  0  0  0  0  0  0  0  0  0
   71.3689   49.0333   52.8957 O   0  0  0  0  0  0  0  0  0  0  0  0
   68.2541   45.8238   53.9913 C   0  0  0  0  0  0  0  0  0  0  0  0
   67.6508   45.3425   52.8698 C   0  0  0  0  0  0  0  0  0  0  0  0
   67.7065   45.9611   51.6401 C   0  0  0  0  0  0  0  0  0  0  0  0
   68.4219   47.1446   51.5538 C   0  0  0  0  0  0  0  0  0  0  0  0
   69.0528   47.6794   52.6560 C   0  0  0  0  0  0  0  0  0  0  0  0
   68.9629   47.0178   53.8558 C   0  0  0  0  0  0  0  0  0  0  0  0
   68.5946   45.8879   56.3169 N   0  0  0  0  0  0  0  0  0  0  0  0
   68.2173   45.2007   55.3010 C   0  0  0  0  0  0  0  0  0  0  0  0
   67.7807   43.8704   55.4758 N   0  0  0  0  0  0  0  0  0  0  0  0
   69.1143   50.4004   53.3295 N   0  0  0  0  0  0  0  0  0  0  0  0
   69.7734   50.8281   54.5213 C   0  0  0  0  0  0  0  0  0  0  0  0
   68.8967   50.5521   55.6842 C   0  0  0  0  0  0  0  0  0  0  0  0
   68.0767   51.5457   56.1583 C   0  0  0  0  0  0  0  0  0  0  0  0
   67.2400   51.3236   57.2474 C   0  0  0  0  0  0  0  0  0  0  0  0
   67.2337   50.0833   57.8608 C   0  0  0  0  0  0  0  0  0  0  0  0
   68.0449   49.0806   57.4014 C   0  0  0  0  0  0  0  0  0  0  0  0
   68.8713   49.3375   56.3070 C   0  0  0  0  0  0  0  0  0  0  0  0
 10 11  2  0
 11 12  1  0
 11  4  1  0
  4  5  2  0
  4  9  1  0
  5  6  1  0
  6  7  2  0
  7  8  1  0
  8  1  1  0
  8  9  2  0
  1  2  2  0
  1  3  2  0
  1 13  1  0
 13 14  1  0
 14 15  1  0
 15 16  2  0
 15 20  1  0
 16 17  1  0
 17 18  2  0
 18 19  1  0
 19 20  2  0
M  CHG  1  10   1
M  END
>  <minimizedAffinity>  (125) 
-8.61097

$$$$
data/reference_output_2/data/smiles/141196.pdb
     RDKit          3D

 19 20  0  0  0  0  0  0  0  0999 V2000
   68.3669   46.5318   56.1525 N   0  0  0  0  0  0  0  0  0  0  0  0
   69.3973   47.7125   52.7308 C   0  0  0  0  0  0  0  0  0  0  0  0
   68.6294   46.8423   51.9846 C   0  0  0  0  0  0  0  0  0  0  0  0
   67.8145   45.8978   52.5736 C   0  0  0  0  0  0  0  0  0  0  0  0
   67.7790   45.8357   53.9438 C   0  0  0  0  0  0  0  0  0  0  0  0
   68.5327   46.6895   54.7667 C   0  0  0  0  0  0  0  0  0  0  0  0
   69.3093   47.5907   54.1148 C   0  0  0  0  0  0  0  0  0  0  0  0
   69.9244   49.2477   51.0581 O   0  0  0  0  0  0  0  0  0  0  0  0
   70.2516   48.7033   52.1159 C   0  0  0  0  0  0  0  0  0  0  0  0
   71.4418   49.0378   52.7230 O   0  0  0  0  0  0  0  0  0  0  0  0
   68.9512   47.4007   57.1313 C   0  0  0  0  0  0  0  0  0  0  0  0
   68.2795   48.7076   57.2848 C   0  0  0  0  0  0  0  0  0  0  0  0
   69.0587   49.8180   56.9167 C   0  0  0  0  0  0  0  0  0  0  0  0
   68.5749   51.0927   56.9864 C   0  0  0  0  0  0  0  0  0  0  0  0
   69.3620   52.1851   56.6163 O   0  0  0  0  0  0  0  0  0  0  0  0
   67.2951   51.3219   57.4263 C   0  0  0  0  0  0  0  0  0  0  0  0
   66.5065   50.2533   57.7950 C   0  0  0  0  0  0  0  0  0  0  0  0
   67.0215   48.9572   57.7156 C   0  0  0  0  0  0  0  0  0  0  0  0
   66.1790   47.9455   58.1009 O   0  0  0  0  0  0  0  0  0  0  0  0
  8  9  2  0
  9 10  1  0
  9  2  1  0
  2  3  2  0
  2  7  1  0
  3  4  1  0
  4  5  2  0
  5  6  1  0
  6  1  1  0
  6  7  2  0
  1 11  1  0
 11 12  1  0
 12 13  2  0
 12 18  1  0
 13 14  1  0
 14 15  1  0
 14 16  2  0
 16 17  1  0
 17 18  2  0
 18 19  1  0
M  END
>  <minimizedAffinity>  (126) 
-8.61013

$$$$
data/reference_output_2/data/smiles/127466.pdb
     RDKit          3D

 21 23  0  0  0  0  0  0  0  0999 V2000
   69.3814   47.6034   54.3603 C   0  0  0  0  0  0  0  0  0  0  0  0
   70.1745   48.6542   53.9683 C   0  0  0  0  0  0  0  0  0  0  0  0
   70.2444   49.0395   52.6346 C   0  0  0  0  0  0  0  0  0  0  0  0
   69.5259   48.3860   51.6649 C   0  0  0  0  0  0  0  0  0  0  0  0
   68.7114   47.3169   52.0211 C   0  0  0  0  0  0  0  0  0  0  0  0
   67.9924   46.6611   51.0631 N   0  0  0  0  0  0  0  0  0  0  0  0
   67.2078   45.6298   51.4117 C   0  0  0  0  0  0  0  0  0  0  0  0
   66.4412   44.9254   50.4113 N   0  0  0  0  0  0  0  0  0  0  0  0
   67.1518   45.2714   52.7023 N   0  0  0  0  0  0  0  0  0  0  0  0
   67.8555   45.9039   53.6838 C   0  0  0  0  0  0  0  0  0  0  0  0
   67.7844   45.5151   55.0292 N   0  0  0  0  0  0  0  0  0  0  0  0
   68.6595   46.9583   53.3341 C   0  0  0  0  0  0  0  0  0  0  0  0
   69.2376   47.1463   55.6232 O   0  0  0  0  0  0  0  0  0  0  0  0
   69.2739   47.6473   56.8860 C   0  0  0  0  0  0  0  0  0  0  0  0
   68.8797   52.6106   56.6077 C   0  0  0  0  0  0  0  0  0  0  0  0
   68.2753   51.3008   57.0069 C   0  0  0  0  0  0  0  0  0  0  0  0
   67.0177   51.2286   57.5857 C   0  0  0  0  0  0  0  0  0  0  0  0
   66.4864   50.0059   57.9425 C   0  0  0  0  0  0  0  0  0  0  0  0
   67.2088   48.8619   57.7236 C   0  0  0  0  0  0  0  0  0  0  0  0
   68.4523   48.8685   57.1564 C   0  0  0  0  0  0  0  0  0  0  0  0
   68.9597   50.1302   56.8068 C   0  0  0  0  0  0  0  0  0  0  0  0
 15 16  1  0
 16 17  2  0
 16 21  1  0
 17 18  1  0
 18 19  2  0
 19 20  1  0
 20 14  1  0
 20 21  2  0
 14 13  1  0
 13  1  1  0
  1  2  2  0
  1 12  1  0
  2  3  1  0
  3  4  2  0
  4  5  1  0
  5  6  1  0
  5 12  2  0
  6  7  2  0
  7  8  1  0
  7  9  1  0
  9 10  2  0
 10 11  1  0
 10 12  1  0
M  END
>  <minimizedAffinity>  (127) 
-8.60878

$$$$
data/reference_output_2/data/smiles/195406.pdb
     RDKit          3D

 20 21  0  0  0  0  0  0  0  0999 V2000
   70.0767   50.4546   54.1757 C   0  0  1  0  0  0  0  0  0  0  0  0
   71.5984   52.1551   54.5488 C   0  0  0  0  0  0  0  0  0  0  0  0
   70.7189   51.5259   53.6808 O   0  0  0  0  0  0  0  0  0  0  0  0
   70.3540   49.2165   53.4591 C   0  0  0  0  0  0  0  0  0  0  0  0
   71.5576   49.1205   53.0066 O   0  0  0  0  0  0  0  0  0  0  0  0
   69.4861   48.1167   53.1973 C   0  0  0  0  0  0  0  0  0  0  0  0
   68.6438   47.5577   54.1140 C   0  0  0  0  0  0  0  0  0  0  0  0
   67.7977   46.4720   53.7989 C   0  0  0  0  0  0  0  0  0  0  0  0
   67.7878   45.9294   52.5414 C   0  0  0  0  0  0  0  0  0  0  0  0
   66.9510   44.8481   52.2101 O   0  0  0  0  0  0  0  0  0  0  0  0
   68.6275   46.4767   51.6017 C   0  0  0  0  0  0  0  0  0  0  0  0
   69.4458   47.5329   51.9238 C   0  0  0  0  0  0  0  0  0  0  0  0
   70.2854   48.0736   50.9676 O   0  0  0  0  0  0  0  0  0  0  0  0
   70.3086   50.2501   55.6708 C   0  0  0  0  0  0  0  0  0  0  0  0
   69.0384   50.2365   56.4406 C   0  0  0  0  0  0  0  0  0  0  0  0
   68.2651   51.3752   56.5824 C   0  0  0  0  0  0  0  0  0  0  0  0
   67.1014   51.2723   57.3107 C   0  0  0  0  0  0  0  0  0  0  0  0
   66.6841   50.1006   57.8951 C   0  0  0  0  0  0  0  0  0  0  0  0
   67.4481   48.9640   57.7584 C   0  0  0  0  0  0  0  0  0  0  0  0
   68.6180   49.0644   57.0271 C   0  0  0  0  0  0  0  0  0  0  0  0
  2  3  1  0
  3  1  1  0
  1 14  1  1
  1  4  1  0
 14 15  1  0
 15 16  2  0
 15 20  1  0
 16 17  1  0
 17 18  2  0
 18 19  1  0
 19 20  2  0
  4  5  2  0
  4  6  1  0
  6  7  2  0
  6 12  1  0
  7  8  1  0
  8  9  2  0
  9 10  1  0
  9 11  1  0
 11 12  2  0
 12 13  1  0
M  END
>  <minimizedAffinity>  (128) 
-8.60849

$$$$
data/reference_output_2/data/smiles/196167.pdb
     RDKit          3D

 20 22  0  0  0  0  0  0  0  0999 V2000
   71.9379   50.0230   53.8664 O   0  0  0  0  0  0  0  0  0  0  0  0
   70.6650   49.9752   53.6654 C   0  0  0  0  0  0  0  0  0  0  0  0
   69.9415   51.0003   54.2888 N   0  0  0  0  0  0  0  0  0  0  0  0
   70.2015   48.8850   52.8484 C   0  0  0  0  0  0  0  0  0  0  0  0
   70.5316   48.6875   51.5263 N   0  0  0  0  0  0  0  0  0  0  0  0
   69.9319   47.6298   51.0519 N   0  0  0  0  0  0  0  0  0  0  0  0
   69.1712   47.0500   51.9925 C   0  0  0  0  0  0  0  0  0  0  0  0
   68.3429   45.9557   52.0405 C   0  0  0  0  0  0  0  0  0  0  0  0
   67.6582   45.5998   53.1829 C   0  0  0  0  0  0  0  0  0  0  0  0
   67.7974   46.3569   54.3180 C   0  0  0  0  0  0  0  0  0  0  0  0
   68.6413   47.4699   54.2633 C   0  0  0  0  0  0  0  0  0  0  0  0
   69.3398   47.8456   53.1341 C   0  0  0  0  0  0  0  0  0  0  0  0
   70.5583   52.0513   55.0833 C   0  0  0  0  0  0  0  0  0  0  0  0
   70.3954   51.8998   56.5534 C   0  0  0  0  0  0  0  0  0  0  0  0
   69.2014   51.1546   56.9628 C   0  0  0  0  0  0  0  0  0  0  0  0
   67.9642   51.7367   57.1089 C   0  0  0  0  0  0  0  0  0  0  0  0
   66.8748   50.9837   57.4950 C   0  0  0  0  0  0  0  0  0  0  0  0
   66.9796   49.6249   57.7474 C   0  0  0  0  0  0  0  0  0  0  0  0
   68.2095   49.0437   57.6023 C   0  0  0  0  0  0  0  0  0  0  0  0
   69.3077   49.8029   57.2139 C   0  0  0  0  0  0  0  0  0  0  0  0
  1  2  2  0
  2  3  1  0
  2  4  1  0
  3 13  1  0
 13 14  1  0
 14 15  1  0
 15 16  2  0
 15 20  1  0
 16 17  1  0
 17 18  2  0
 18 19  1  0
 19 20  2  0
  4  5  1  0
  4 12  2  0
  5  6  1  0
  6  7  2  0
  7  8  1  0
  7 12  1  0
  8  9  2  0
  9 10  1  0
 10 11  2  0
 11 12  1  0
M  END
>  <minimizedAffinity>  (129) 
-8.60538

$$$$
data/200k_reference_output/data/smiles/19470.pdb
     RDKit          3D

 20 22  0  0  0  0  0  0  0  0999 V2000
   69.2001   46.2810   56.4593 C   0  0  0  0  0  0  0  0  0  0  0  0
   70.1914   46.5907   57.3112 N   0  0  0  0  0  0  0  0  0  0  0  0
   70.7452   45.6181   58.0659 C   0  0  0  0  0  0  0  0  0  0  0  0
   70.3187   44.2873   57.9893 C   0  0  0  0  0  0  0  0  0  0  0  0
   69.3094   43.9908   57.1193 C   0  0  0  0  0  0  0  0  0  0  0  0
   68.7914   45.0080   56.3880 N   0  0  0  0  0  0  0  0  0  0  0  0
   68.8116   42.6475   57.0104 C   0  0  0  0  0  0  0  0  0  0  0  0
   67.8060   42.3835   56.0897 C   0  0  0  0  0  0  0  0  0  0  0  0
   67.3200   41.0729   55.9593 C   0  0  0  0  0  0  0  0  0  0  0  0
   67.8234   40.0883   56.7145 N   0  0  0  0  0  0  0  0  0  0  0  0
   68.7960   40.3114   57.6136 C   0  0  0  0  0  0  0  0  0  0  0  0
   69.2840   41.6126   57.7506 C   0  0  0  0  0  0  0  0  0  0  0  0
   68.6306   47.3221   55.6753 N   0  0  0  0  0  0  0  0  0  0  0  0
   70.2790   48.7595   51.3585 N   0  0  0  0  0  0  0  0  0  0  0  0
   69.4699   47.8950   52.1246 C   0  0  0  0  0  0  0  0  0  0  0  0
   68.7036   46.9248   51.4837 C   0  0  0  0  0  0  0  0  0  0  0  0
   67.9153   46.0862   52.2350 C   0  0  0  0  0  0  0  0  0  0  0  0
   67.8882   46.2094   53.6126 C   0  0  0  0  0  0  0  0  0  0  0  0
   68.6392   47.1634   54.2706 C   0  0  0  0  0  0  0  0  0  0  0  0
   69.4295   48.0029   53.5029 C   0  0  0  0  0  0  0  0  0  0  0  0
 14 15  1  0
 15 16  2  0
 15 20  1  0
 16 17  1  0
 17 18  2  0
 18 19  1  0
 19 13  1  0
 19 20  2  0
 13  1  1  0
  1  2  2  0
  1  6  1  0
  2  3  1  0
  3  4  2  0
  4  5  1  0
  5  7  1  0
  5  6  2  0
  7  8  2  0
  7 12  1  0
  8  9  1  0
  9 10  2  0
 10 11  1  0
 11 12  2  0
M  END
>  <minimizedAffinity>  (130) 
-8.60324

$$$$
data/200k_reference_output/data/smiles/16151.pdb
     RDKit          3D

 22 24  0  0  0  0  0  0  0  0999 V2000
   69.5984   46.3307   57.5986 C   0  0  0  0  0  0  0  0  0  0  0  0
   69.8672   46.0982   58.7960 O   0  0  0  0  0  0  0  0  0  0  0  0
   69.6882   45.1412   56.7425 N   0  0  0  0  0  0  0  0  0  0  0  0
   70.0560   43.9130   57.3600 C   0  0  0  0  0  0  0  0  0  0  0  0
   71.1835   43.7987   58.1498 C   0  0  0  0  0  0  0  0  0  0  0  0
   71.5185   42.5766   58.7427 C   0  0  0  0  0  0  0  0  0  0  0  0
   70.7597   41.4783   58.5668 N   0  0  0  0  0  0  0  0  0  0  0  0
   69.6583   41.5654   57.8030 C   0  0  0  0  0  0  0  0  0  0  0  0
   68.8876   40.4385   57.6278 C   0  0  0  0  0  0  0  0  0  0  0  0
   67.7601   40.5398   56.8428 C   0  0  0  0  0  0  0  0  0  0  0  0
   67.3716   41.7102   56.2285 C   0  0  0  0  0  0  0  0  0  0  0  0
   68.1692   42.8355   56.4223 C   0  0  0  0  0  0  0  0  0  0  0  0
   69.2953   42.7653   57.1972 C   0  0  0  0  0  0  0  0  0  0  0  0
   68.9044   47.9961   55.8823 C   0  0  0  0  0  0  0  0  0  0  0  0
   69.2362   47.5827   57.0317 C   0  0  0  0  0  0  0  0  0  0  0  0
   70.2302   48.0050   51.2001 N   0  0  0  0  0  0  0  0  0  0  0  0
   69.4112   47.4824   52.2465 C   0  0  0  0  0  0  0  0  0  0  0  0
   68.5322   46.4831   51.9438 C   0  0  0  0  0  0  0  0  0  0  0  0
   67.7460   45.9764   52.9328 C   0  0  0  0  0  0  0  0  0  0  0  0
   67.8421   46.4792   54.2428 C   0  0  0  0  0  0  0  0  0  0  0  0
   68.7110   47.4760   54.5833 C   0  0  0  0  0  0  0  0  0  0  0  0
   69.5107   47.9732   53.5122 C   0  0  0  0  0  0  0  0  0  0  0  0
 16 17  1  0
 17 18  2  0
 17 22  1  0
 18 19  1  0
 19 20  2  0
 20 21  1  0
 21 14  1  0
 21 22  2  0
 14 15  2  0
 15  1  1  0
  1  2  2  0
  1  3  1  0
  3  4  1  0
  4  5  2  0
  4 13  1  0
  5  6  1  0
  6  7  2  0
  7  8  1  0
  8  9  1  0
  8 13  2  0
  9 10  2  0
 10 11  1  0
 11 12  2  0
 12 13  1  0
M  END
>  <minimizedAffinity>  (131) 
-8.60279

$$$$
data/200k_reference_output/data/smiles/39908.pdb
     RDKit          3D

 20 22  0  0  0  0  0  0  0  0999 V2000
   68.1068   46.3589   55.1691 N   0  0  0  0  0  0  0  0  0  0  0  0
   68.1461   46.5123   53.7562 C   0  0  0  0  0  0  0  0  0  0  0  0
   67.3650   45.7832   52.9276 N   0  0  0  0  0  0  0  0  0  0  0  0
   67.4227   45.9492   51.5950 C   0  0  0  0  0  0  0  0  0  0  0  0
   66.6755   45.2451   50.8710 O   0  0  0  0  0  0  0  0  0  0  0  0
   68.2346   46.8266   50.9837 N   0  0  0  0  0  0  0  0  0  0  0  0
   69.0311   47.5732   51.7756 C   0  0  0  0  0  0  0  0  0  0  0  0
   69.9501   48.5352   51.4770 N   0  0  0  0  0  0  0  0  0  0  0  0
   70.4614   48.9645   52.6165 N   0  0  0  0  0  0  0  0  0  0  0  0
   69.9102   48.3192   53.6591 C   0  0  0  0  0  0  0  0  0  0  0  0
   68.9884   47.4210   53.1451 C   0  0  0  0  0  0  0  0  0  0  0  0
   69.0403   44.4916   56.2745 C   0  0  0  0  0  0  0  0  0  0  0  0
   68.0600   45.0612   55.6863 N   0  0  0  0  0  0  0  0  0  0  0  0
   68.7128   39.1179   58.3580 C   0  0  0  0  0  0  0  0  0  0  0  0
   68.8045   40.5163   57.8205 C   0  0  0  0  0  0  0  0  0  0  0  0
   67.8364   41.0197   56.9746 C   0  0  0  0  0  0  0  0  0  0  0  0
   67.8960   42.3152   56.4601 C   0  0  0  0  0  0  0  0  0  0  0  0
   68.9590   43.1219   56.8077 C   0  0  0  0  0  0  0  0  0  0  0  0
   69.9146   42.6099   57.6480 C   0  0  0  0  0  0  0  0  0  0  0  0
   69.8647   41.3305   58.1621 C   0  0  0  0  0  0  0  0  0  0  0  0
 14 15  1  0
 15 16  2  0
 15 20  1  0
 16 17  1  0
 17 18  2  0
 18 12  1  0
 18 19  1  0
 12 13  2  0
 13  1  1  0
  1  2  1  0
  2  3  2  0
  2 11  1  0
  3  4  1  0
  4  5  2  0
  4  6  1  0
  6  7  1  0
  7  8  1  0
  7 11  2  0
  8  9  1  0
  9 10  2  0
 10 11  1  0
 19 20  2  0
M  END
>  <minimizedAffinity>  (132) 
-8.59977

$$$$
data/reference_output_2/data/smiles/157695.pdb
     RDKit          3D

 20 21  0  0  0  0  0  0  0  0999 V2000
   66.6264   45.0709   50.7200 O   0  0  0  0  0  0  0  0  0  0  0  0
   67.3118   45.8333   51.4863 C   0  0  0  0  0  0  0  0  0  0  0  0
   68.1865   46.7220   51.0034 N   0  0  0  0  0  0  0  0  0  0  0  0
   68.9070   47.5238   51.8301 C   0  0  0  0  0  0  0  0  0  0  0  0
   69.7238   48.3578   51.3699 O   0  0  0  0  0  0  0  0  0  0  0  0
   68.7466   47.4308   53.1734 C   0  0  0  0  0  0  0  0  0  0  0  0
   69.4890   48.2597   54.0262 C   0  0  0  0  0  0  0  0  0  0  0  0
   69.2319   48.0735   55.3688 C   0  0  0  0  0  0  0  0  0  0  0  0
   68.3229   47.1493   55.8167 C   0  0  0  0  0  0  0  0  0  0  0  0
   68.1263   47.0192   57.0717 O   0  0  0  0  0  0  0  0  0  0  0  0
   67.6650   46.4079   54.9805 O   0  0  0  0  0  0  0  0  0  0  0  0
   67.8442   46.5178   53.6997 C   0  0  0  0  0  0  0  0  0  0  0  0
   67.1592   45.7499   52.8142 N   0  0  0  0  0  0  0  0  0  0  0  0
   70.5064   49.2257   53.5395 C   0  0  0  0  0  0  0  0  0  0  0  0
   70.6235   50.4716   54.3477 C   0  0  0  0  0  0  0  0  0  0  0  0
   69.6990   51.5228   53.8012 C   0  0  0  0  0  0  0  0  0  0  0  0
   68.6670   51.9696   54.7977 C   0  0  0  0  0  0  0  0  0  0  0  0
   67.4195   51.9768   54.1416 F   0  0  0  0  0  0  0  0  0  0  0  0
   68.8608   53.2091   55.3148 F   0  0  0  0  0  0  0  0  0  0  0  0
   68.4738   51.0390   55.8248 F   0  0  0  0  0  0  0  0  0  0  0  0
  1  2  2  0
  2  3  1  0
  2 13  1  0
  3  4  1  0
  4  5  2  0
  4  6  1  0
  6  7  1  0
  6 12  2  0
  7 14  1  0
  7  8  2  0
 14 15  1  0
 15 16  1  0
 16 17  1  0
 17 18  1  0
 17 19  1  0
 17 20  1  0
  8  9  1  0
  9 10  2  0
  9 11  1  0
 11 12  1  0
 12 13  1  0
M  END
>  <minimizedAffinity>  (133) 
-8.59579

$$$$
data/200k_reference_output/data/smiles/7136.pdb
     RDKit          3D

 20 21  0  0  0  0  0  0  0  0999 V2000
   68.2486   44.4654   56.1506 N   0  0  0  0  0  0  0  0  0  0  0  0
   67.9728   43.3931   56.3715 N   0  0  0  0  0  0  0  0  0  0  0  0
   68.5207   42.2571   57.0069 C   0  0  0  0  0  0  0  0  0  0  0  0
   69.6847   42.2065   57.7100 C   0  0  0  0  0  0  0  0  0  0  0  0
   70.1689   41.0471   58.2688 C   0  0  0  0  0  0  0  0  0  0  0  0
   69.5019   39.8513   58.1544 C   0  0  0  0  0  0  0  0  0  0  0  0
   68.3089   39.8772   57.4374 C   0  0  0  0  0  0  0  0  0  0  0  0
   67.8165   41.0426   56.8722 C   0  0  0  0  0  0  0  0  0  0  0  0
   69.9562   38.5952   58.7058 C   0  0  0  0  0  0  0  0  0  0  0  0
   69.3186   38.0126   59.6322 N   0  0  0  0  0  0  0  0  0  0  0  0
   71.1430   38.0006   58.2214 N   0  0  0  0  0  0  0  0  0  0  0  0
   68.2641   45.7394   55.7349 N   0  0  0  0  0  0  0  0  0  0  0  0
   68.9388   47.2878   52.4056 C   0  0  0  0  0  0  0  0  0  0  0  0
   68.1746   46.5061   51.5615 C   0  0  0  0  0  0  0  0  0  0  0  0
   67.4496   45.4707   52.0819 C   0  0  0  0  0  0  0  0  0  0  0  0
   67.4928   45.2150   53.4567 C   0  0  0  0  0  0  0  0  0  0  0  0
   68.2498   45.9845   54.3175 C   0  0  0  0  0  0  0  0  0  0  0  0
   68.9565   47.0135   53.7401 C   0  0  0  0  0  0  0  0  0  0  0  0
   70.3106   49.2846   51.4717 N   0  0  0  0  0  0  0  0  0  0  0  0
   69.7084   48.3882   51.8897 C   0  0  0  0  0  0  0  0  0  0  0  0
 19 20  3  0
 20 13  1  0
 13 14  2  0
 13 18  1  0
 14 15  1  0
 15 16  2  0
 16 17  1  0
 17 12  1  0
 17 18  2  0
 12  1  1  0
  1  2  2  0
  2  3  1  0
  3  4  2  0
  3  8  1  0
  4  5  1  0
  5  6  2  0
  6  9  1  0
  6  7  1  0
  9 10  2  0
  9 11  1  0
  7  8  2  0
M  CHG  1  10   1
M  END
>  <minimizedAffinity>  (134) 
-8.59287

$$$$
data/reference_output_2/data/smiles/100005.pdb
     RDKit          3D

 22 24  0  0  0  0  0  0  0  0999 V2000
   67.9468   42.2642   55.9839 O   0  0  0  0  0  0  0  0  0  0  0  0
   68.6384   43.0397   56.6742 C   0  0  0  0  0  0  0  0  0  0  0  0
   68.5433   44.4312   56.2290 N   0  0  0  0  0  0  0  0  0  0  0  0
   69.4700   42.7376   57.7917 C   0  0  0  0  0  0  0  0  0  0  0  0
   69.2125   43.4332   58.8648 O   0  0  0  0  0  0  0  0  0  0  0  0
   70.5477   41.8013   57.9798 C   0  0  0  0  0  0  0  0  0  0  0  0
   71.9202   42.1610   57.9565 C   0  0  0  0  0  0  0  0  0  0  0  0
   72.6855   41.1203   58.2645 N   0  0  0  0  0  0  0  0  0  0  0  0
   71.8945   40.0508   58.5002 C   0  0  0  0  0  0  0  0  0  0  0  0
   72.2304   38.7509   58.8322 C   0  0  0  0  0  0  0  0  0  0  0  0
   71.1912   37.8588   58.9830 C   0  0  0  0  0  0  0  0  0  0  0  0
   69.8900   38.2099   58.8194 C   0  0  0  0  0  0  0  0  0  0  0  0
   69.5736   39.5333   58.4839 C   0  0  0  0  0  0  0  0  0  0  0  0
   70.5667   40.4683   58.3222 C   0  0  0  0  0  0  0  0  0  0  0  0
   67.7594   44.8115   55.1651 N   0  0  0  0  0  0  0  0  0  0  0  0
   68.1756   45.7587   54.1978 C   0  0  0  0  0  0  0  0  0  0  0  0
   67.9074   45.5275   52.8358 C   0  0  0  0  0  0  0  0  0  0  0  0
   68.2973   46.4212   51.8678 C   0  0  0  0  0  0  0  0  0  0  0  0
   68.9644   47.5562   52.2783 C   0  0  0  0  0  0  0  0  0  0  0  0
   69.3821   48.4961   51.3393 O   0  0  0  0  0  0  0  0  0  0  0  0
   69.2336   47.7961   53.6111 C   0  0  0  0  0  0  0  0  0  0  0  0
   68.8389   46.8911   54.5984 C   0  0  0  0  0  0  0  0  0  0  0  0
  1  2  2  0
  2  3  1  0
  2  4  1  0
  3 15  1  0
 15 16  1  0
 16 17  2  0
 16 22  1  0
 17 18  1  0
 18 19  2  0
 19 20  1  0
 19 21  1  0
 21 22  2  0
  4  5  2  0
  4  6  1  0
  6  7  2  0
  6 14  1  0
  7  8  1  0
  8  9  1  0
  9 10  1  0
  9 14  2  0
 10 11  2  0
 11 12  1  0
 12 13  2  0
 13 14  1  0
M  END
>  <minimizedAffinity>  (135) 
-8.58933

$$$$
data/reference_output_2/data/smiles/149653.pdb
     RDKit          3D

 21 23  0  0  0  0  0  0  0  0999 V2000
   70.3607   49.9829   53.5149 C   0  0  0  0  0  0  0  0  0  0  0  0
   71.6839   49.6464   53.4542 N   0  0  0  0  0  0  0  0  0  0  0  0
   72.6400   50.2612   54.0899 N   0  0  0  0  0  0  0  0  0  0  0  0
   72.3257   51.3022   54.8649 C   0  0  0  0  0  0  0  0  0  0  0  0
   73.2022   51.9338   55.4994 O   0  0  0  0  0  0  0  0  0  0  0  0
   71.0065   51.7457   55.0148 C   0  0  0  0  0  0  0  0  0  0  0  0
   70.0291   51.0623   54.3237 C   0  0  0  0  0  0  0  0  0  0  0  0
   68.6255   51.4181   54.5339 C   0  0  0  0  0  0  0  0  0  0  0  0
   68.3584   52.0234   55.9112 C   0  0  0  0  0  0  0  0  0  0  0  0
   69.3000   53.1224   56.2313 C   0  0  0  0  0  0  0  0  0  0  0  0
   70.7103   52.8926   55.8762 C   0  0  0  0  0  0  0  0  0  0  0  0
   69.3917   49.2883   52.6424 C   0  0  0  0  0  0  0  0  0  0  0  0
   68.5788   46.5787   55.1490 C   0  0  0  0  0  0  0  0  0  0  0  0
   68.9929   47.8174   54.6382 C   0  0  0  0  0  0  0  0  0  0  0  0
   68.9618   47.9998   53.2886 C   0  0  0  0  0  0  0  0  0  0  0  0
   68.5270   46.9722   52.4300 C   0  0  0  0  0  0  0  0  0  0  0  0
   68.1215   45.7607   52.9306 C   0  0  0  0  0  0  0  0  0  0  0  0
   68.1549   45.5818   54.3024 C   0  0  0  0  0  0  0  0  0  0  0  0
   67.7539   44.3917   54.8590 F   0  0  0  0  0  0  0  0  0  0  0  0
   69.6963   46.9823   57.3518 C   0  0  0  0  0  0  0  0  0  0  0  0
   68.6053   46.4139   56.5602 N   0  0  0  0  0  0  0  0  0  0  0  0
 20 21  1  0
 21 13  1  0
 13 14  2  0
 13 18  1  0
 14 15  1  0
 15 12  1  0
 15 16  2  0
 12  1  1  0
  1  2  2  0
  1  7  1  0
  2  3  1  0
  3  4  1  0
  4  5  2  0
  4  6  1  0
  6  7  2  0
  6 11  1  0
  7  8  1  0
  8  9  1  0
  9 10  1  0
 10 11  1  0
 16 17  1  0
 17 18  2  0
 18 19  1  0
M  END
>  <minimizedAffinity>  (136) 
-8.58725

$$$$
data/200k_reference_output/data/smiles/53301.pdb
     RDKit          3D

 20 22  0  0  0  0  0  0  0  0999 V2000
   68.7295   46.8219   54.0769 C   0  0  0  0  0  0  0  0  0  0  0  0
   68.7891   46.2534   52.8130 C   0  0  0  0  0  0  0  0  0  0  0  0
   69.1313   47.0361   51.7348 C   0  0  0  0  0  0  0  0  0  0  0  0
   69.4096   48.3670   51.9213 C   0  0  0  0  0  0  0  0  0  0  0  0
   69.7655   49.3776   51.1028 N   0  0  0  0  0  0  0  0  0  0  0  0
   69.9214   50.5022   51.7879 N   0  0  0  0  0  0  0  0  0  0  0  0
   69.6775   50.2923   53.0881 C   0  0  0  0  0  0  0  0  0  0  0  0
   69.3541   48.9543   53.1901 C   0  0  0  0  0  0  0  0  0  0  0  0
   69.0161   48.1752   54.2408 C   0  0  0  0  0  0  0  0  0  0  0  0
   69.7558   51.3083   54.1289 C   0  0  0  0  0  0  0  0  0  0  0  0
   70.9716   51.8220   54.5593 C   0  0  0  0  0  0  0  0  0  0  0  0
   71.0601   52.7846   55.5423 C   0  0  0  0  0  0  0  0  0  0  0  0
   69.9279   53.2846   56.1477 C   0  0  0  0  0  0  0  0  0  0  0  0
   70.0346   54.2296   57.1122 F   0  0  0  0  0  0  0  0  0  0  0  0
   68.7126   52.7832   55.7307 C   0  0  0  0  0  0  0  0  0  0  0  0
   68.6299   51.8151   54.7414 C   0  0  0  0  0  0  0  0  0  0  0  0
   67.9254   43.8968   56.3956 N   0  0  0  0  0  0  0  0  0  0  0  0
   68.2724   44.6277   55.2427 N   0  0  0  0  0  0  0  0  0  0  0  0
   68.3730   46.0408   55.2559 C   0  0  0  0  0  0  0  0  0  0  0  0
   68.1373   46.6146   56.3480 O   0  0  0  0  0  0  0  0  0  0  0  0
 17 18  1  0
 18 19  1  0
 19 20  2  0
 19  1  1  0
  1  2  2  0
  1  9  1  0
  2  3  1  0
  3  4  2  0
  4  5  1  0
  4  8  1  0
  5  6  1  0
  6  7  2  0
  7 10  1  0
  7  8  1  0
 10 11  2  0
 10 16  1  0
 11 12  1  0
 12 13  2  0
 13 14  1  0
 13 15  1  0
 15 16  2  0
  8  9  2  0
M  END
>  <minimizedAffinity>  (137) 
-8.58371

$$$$
data/reference_output_2/data/smiles/197724.pdb
     RDKit          3D

 20 21  0  0  0  0  0  0  0  0999 V2000
   69.1473   46.5965   57.3314 N   0  0  0  0  0  0  0  0  0  0  0  0
   68.6957   47.4141   56.4558 C   0  0  0  0  0  0  0  0  0  0  0  0
   68.7416   47.1370   55.0140 C   0  0  0  0  0  0  0  0  0  0  0  0
   69.3972   47.9393   54.1119 C   0  0  0  0  0  0  0  0  0  0  0  0
   69.3497   47.7984   52.7484 C   0  0  0  0  0  0  0  0  0  0  0  0
   68.5928   46.7748   52.2180 C   0  0  0  0  0  0  0  0  0  0  0  0
   67.9290   45.9571   53.1069 C   0  0  0  0  0  0  0  0  0  0  0  0
   67.1873   44.9496   52.5815 F   0  0  0  0  0  0  0  0  0  0  0  0
   67.9785   46.1038   54.4723 C   0  0  0  0  0  0  0  0  0  0  0  0
   68.0870   48.6567   56.9472 C   0  0  0  0  0  0  0  0  0  0  0  0
   66.9747   48.7749   57.7021 C   0  0  0  0  0  0  0  0  0  0  0  0
   66.4089   50.0233   58.0201 C   0  0  0  0  0  0  0  0  0  0  0  0
   67.0078   51.1602   57.5496 C   0  0  0  0  0  0  0  0  0  0  0  0
   68.1504   51.0957   56.7744 C   0  0  0  0  0  0  0  0  0  0  0  0
   68.6958   52.2516   56.3415 F   0  0  0  0  0  0  0  0  0  0  0  0
   68.6704   49.8573   56.4853 C   0  0  0  0  0  0  0  0  0  0  0  0
   69.7293   45.3940   57.2426 N   0  0  0  0  0  0  0  0  0  0  0  0
   69.7264   44.2057   59.3978 N   0  0  0  0  0  0  0  0  0  0  0  0
   70.4629   44.8070   58.3365 C   0  0  0  0  0  0  0  0  0  0  0  0
   72.0704   44.8372   58.3461 S   0  0  0  0  0  0  0  0  0  0  0  0
 18 19  1  0
 19 20  2  0
 19 17  1  0
 17  1  1  0
  1  2  2  0
  2  3  1  0
  2 10  1  0
  3  4  2  0
  3  9  1  0
  4  5  1  0
  5  6  2  0
  6  7  1  0
  7  8  1  0
  7  9  2  0
 10 11  2  0
 10 16  1  0
 11 12  1  0
 12 13  2  0
 13 14  1  0
 14 15  1  0
 14 16  2  0
M  END
>  <minimizedAffinity>  (138) 
-8.58036

$$$$
data/200k_reference_output/data/smiles/58825.pdb
     RDKit          3D

 20 22  0  0  0  0  0  0  0  0999 V2000
   70.5419   48.3411   50.7080 O   0  0  0  0  0  0  0  0  0  0  0  0
   70.3526   48.3897   51.9427 C   0  0  0  0  0  0  0  0  0  0  0  0
   71.0161   49.2118   52.7725 N   0  0  0  0  0  0  0  0  0  0  0  0
   70.8285   49.2699   54.0530 N   0  0  0  0  0  0  0  0  0  0  0  0
   69.9174   48.4892   54.7359 C   0  0  0  0  0  0  0  0  0  0  0  0
   69.2067   47.6298   53.9473 C   0  0  0  0  0  0  0  0  0  0  0  0
   68.2617   46.8250   54.5464 C   0  0  0  0  0  0  0  0  0  0  0  0
   67.5363   45.9673   53.7527 C   0  0  0  0  0  0  0  0  0  0  0  0
   67.7278   45.8936   52.3865 C   0  0  0  0  0  0  0  0  0  0  0  0
   68.6745   46.7037   51.7906 C   0  0  0  0  0  0  0  0  0  0  0  0
   69.4137   47.5701   52.5592 C   0  0  0  0  0  0  0  0  0  0  0  0
   69.8413   48.6195   56.2061 C   0  0  0  0  0  0  0  0  0  0  0  0
   68.7767   49.5730   56.6447 C   0  0  0  0  0  0  0  0  0  0  0  0
   67.7398   49.0011   57.3861 C   0  0  0  0  0  0  0  0  0  0  0  0
   67.7148   47.6589   57.6391 F   0  0  0  0  0  0  0  0  0  0  0  0
   66.7195   49.7679   57.8798 C   0  0  0  0  0  0  0  0  0  0  0  0
   66.7219   51.1292   57.6365 C   0  0  0  0  0  0  0  0  0  0  0  0
   67.7355   51.7061   56.9091 C   0  0  0  0  0  0  0  0  0  0  0  0
   68.7494   50.9109   56.4258 C   0  0  0  0  0  0  0  0  0  0  0  0
   69.7688   51.5085   55.7455 F   0  0  0  0  0  0  0  0  0  0  0  0
  1  2  2  0
  2  3  1  0
  2 11  1  0
  3  4  1  0
  4  5  2  0
  5 12  1  0
  5  6  1  0
 12 13  1  0
 13 14  2  0
 13 19  1  0
 14 15  1  0
 14 16  1  0
 16 17  2  0
 17 18  1  0
 18 19  2  0
 19 20  1  0
  6  7  1  0
  6 11  2  0
  7  8  2  0
  8  9  1  0
  9 10  2  0
 10 11  1  0
M  END
>  <minimizedAffinity>  (139) 
-8.57861

$$$$
data/200k_reference_output/data/smiles/71701.pdb
     RDKit          3D

 21 23  0  0  0  0  0  0  0  0999 V2000
   68.5545   48.2729   56.2789 C   0  0  0  0  0  0  0  0  0  0  0  0
   69.1972   48.6710   55.1588 N   0  0  0  0  0  0  0  0  0  0  0  0
   68.9428   47.8553   54.1254 C   0  0  0  0  0  0  0  0  0  0  0  0
   69.3328   47.8073   52.7930 C   0  0  0  0  0  0  0  0  0  0  0  0
   68.8909   46.8107   51.9418 C   0  0  0  0  0  0  0  0  0  0  0  0
   68.0400   45.8515   52.4519 C   0  0  0  0  0  0  0  0  0  0  0  0
   67.6473   45.8908   53.7719 C   0  0  0  0  0  0  0  0  0  0  0  0
   68.0956   46.8994   54.6333 C   0  0  0  0  0  0  0  0  0  0  0  0
   67.8766   47.1720   55.9305 N   0  0  0  0  0  0  0  0  0  0  0  0
   70.8661   53.1270   56.0267 C   0  0  0  0  0  0  0  0  0  0  0  0
   69.4660   52.5927   55.9995 C   0  0  0  0  0  0  0  0  0  0  0  0
   68.6819   53.0818   55.1400 O   0  0  0  0  0  0  0  0  0  0  0  0
   69.0281   51.5906   56.8855 N   0  0  0  0  0  0  0  0  0  0  0  0
   69.9165   51.0315   57.8651 C   0  0  0  0  0  0  0  0  0  0  0  0
   69.9713   49.5299   57.8135 C   0  0  0  0  0  0  0  0  0  0  0  0
   68.6109   48.9674   57.6228 C   0  0  0  0  0  0  0  0  0  0  0  0
   67.5346   49.9799   57.7834 C   0  0  0  0  0  0  0  0  0  0  0  0
   67.6683   51.1163   56.8128 C   0  0  0  0  0  0  0  0  0  0  0  0
   70.2225   48.8174   52.2745 C   0  0  0  0  0  0  0  0  0  0  0  0
   69.8584   49.5675   51.1280 N   0  0  0  0  0  0  0  0  0  0  0  0
   71.3230   49.0666   52.8025 O   0  0  0  0  0  0  0  0  0  0  0  0
 10 11  1  0
 11 12  2  0
 11 13  1  0
 13 14  1  0
 13 18  1  0
 14 15  1  0
 15 16  1  0
 16  1  1  0
 16 17  1  0
  1  2  2  0
  1  9  1  0
  2  3  1  0
  3  4  2  0
  3  8  1  0
  4 19  1  0
  4  5  1  0
 19 20  1  0
 19 21  2  0
  5  6  2  0
  6  7  1  0
  7  8  2  0
  8  9  1  0
 17 18  1  0
M  CHG  1   2   1
M  END
>  <minimizedAffinity>  (140) 
-8.57740

$$$$
data/reference_output_2/data/smiles/170210.pdb
     RDKit          3D

 20 23  0  0  0  0  0  0  0  0999 V2000
   68.6138   50.6424   53.8060 O   0  0  0  0  0  0  0  0  0  0  0  0
   69.8685   50.6979   53.9936 C   0  0  0  0  0  0  0  0  0  0  0  0
   70.3992   51.7310   54.7229 C   0  0  0  0  0  0  0  0  0  0  0  0
   69.6290   52.7360   55.2759 C   0  0  0  0  0  0  0  0  0  0  0  0
   70.2452   53.7478   56.0024 C   0  0  0  0  0  0  0  0  0  0  0  0
   71.6101   53.7951   56.1979 C   0  0  0  0  0  0  0  0  0  0  0  0
   72.3620   52.7786   55.6347 C   0  0  0  0  0  0  0  0  0  0  0  0
   71.7677   51.7541   54.9027 C   0  0  0  0  0  0  0  0  0  0  0  0
   72.4792   50.7595   54.3490 N   0  0  0  0  0  0  0  0  0  0  0  0
   71.9211   49.7814   53.6519 N   0  0  0  0  0  0  0  0  0  0  0  0
   70.6044   49.7118   53.4476 N   0  0  0  0  0  0  0  0  0  0  0  0
   70.0330   48.6474   52.6932 C   0  0  0  0  0  0  0  0  0  0  0  0
   70.1409   48.4085   51.3579 N   0  0  0  0  0  0  0  0  0  0  0  0
   69.4720   47.3267   51.0312 N   0  0  0  0  0  0  0  0  0  0  0  0
   68.8833   46.7857   52.1201 C   0  0  0  0  0  0  0  0  0  0  0  0
   68.0887   45.6703   52.2945 C   0  0  0  0  0  0  0  0  0  0  0  0
   67.6164   45.3498   53.5499 C   0  0  0  0  0  0  0  0  0  0  0  0
   67.9580   46.1676   54.6079 C   0  0  0  0  0  0  0  0  0  0  0  0
   68.7572   47.2851   54.4181 C   0  0  0  0  0  0  0  0  0  0  0  0
   69.2377   47.6181   53.1627 C   0  0  0  0  0  0  0  0  0  0  0  0
  1  2  2  0
  2  3  1  0
  2 11  1  0
  3  4  2  0
  3  8  1  0
  4  5  1  0
  5  6  2  0
  6  7  1  0
  7  8  2  0
  8  9  1  0
  9 10  2  0
 10 11  1  0
 11 12  1  0
 12 13  2  0
 12 20  1  0
 13 14  1  0
 14 15  1  0
 15 16  1  0
 15 20  2  0
 16 17  2  0
 17 18  1  0
 18 19  2  0
 19 20  1  0
M  END
>  <minimizedAffinity>  (141) 
-8.57596

$$$$
data/200k_reference_output/data/smiles/12801.pdb
     RDKit          3D

 19 21  0  0  0  0  0  0  0  0999 V2000
   70.5992   48.4626   50.8075 O   0  0  0  0  0  0  0  0  0  0  0  0
   70.3830   48.4583   52.0560 C   0  0  0  0  0  0  0  0  0  0  0  0
   71.0652   49.2713   52.8802 N   0  0  0  0  0  0  0  0  0  0  0  0
   70.8483   49.2763   54.1841 N   0  0  0  0  0  0  0  0  0  0  0  0
   69.9250   48.4615   54.7783 C   0  0  0  0  0  0  0  0  0  0  0  0
   69.2290   47.6319   53.9348 C   0  0  0  0  0  0  0  0  0  0  0  0
   68.2702   46.8059   54.4748 C   0  0  0  0  0  0  0  0  0  0  0  0
   67.5293   45.9631   53.6710 C   0  0  0  0  0  0  0  0  0  0  0  0
   67.7398   45.9349   52.2873 C   0  0  0  0  0  0  0  0  0  0  0  0
   68.6901   46.7550   51.7416 C   0  0  0  0  0  0  0  0  0  0  0  0
   69.4215   47.5893   52.5471 C   0  0  0  0  0  0  0  0  0  0  0  0
   69.7969   48.5119   56.2371 C   0  0  0  0  0  0  0  0  0  0  0  0
   68.7627   49.4829   56.6751 C   0  0  0  0  0  0  0  0  0  0  0  0
   68.8014   50.8340   56.4443 C   0  0  0  0  0  0  0  0  0  0  0  0
   67.8278   51.7006   56.8952 C   0  0  0  0  0  0  0  0  0  0  0  0
   66.7529   51.2427   57.6097 C   0  0  0  0  0  0  0  0  0  0  0  0
   66.6732   49.8903   57.8642 C   0  0  0  0  0  0  0  0  0  0  0  0
   67.6428   49.0311   57.4138 C   0  0  0  0  0  0  0  0  0  0  0  0
   67.5736   47.7076   57.6620 F   0  0  0  0  0  0  0  0  0  0  0  0
  1  2  2  0
  2  3  1  0
  2 11  1  0
  3  4  1  0
  4  5  2  0
  5 12  1  0
  5  6  1  0
 12 13  1  0
 13 14  2  0
 13 18  1  0
 14 15  1  0
 15 16  2  0
 16 17  1  0
 17 18  2  0
 18 19  1  0
  6  7  1  0
  6 11  2  0
  7  8  2  0
  8  9  1  0
  9 10  2  0
 10 11  1  0
M  END
>  <minimizedAffinity>  (142) 
-8.57279

$$$$
data/reference_output_2/data/smiles/140797.pdb
     RDKit          3D

 20 22  0  0  0  0  0  0  0  0999 V2000
   71.5025   52.1796   54.6916 C   0  0  0  0  0  0  0  0  0  0  0  0
   71.5279   52.9739   55.8155 C   0  0  0  0  0  0  0  0  0  0  0  0
   70.3308   53.4005   56.3400 C   0  0  0  0  0  0  0  0  0  0  0  0
   69.1411   53.0543   55.7761 C   0  0  0  0  0  0  0  0  0  0  0  0
   69.1347   52.2735   54.6750 N   0  0  0  0  0  0  0  0  0  0  0  0
   70.2910   51.8341   54.1272 C   0  0  0  0  0  0  0  0  0  0  0  0
   73.6126   52.6124   53.4594 N   0  0  0  0  0  0  0  0  0  0  0  0
   72.7246   51.6848   54.0725 C   0  0  0  0  0  0  0  0  0  0  0  0
   73.0497   50.4457   54.0479 N   0  0  0  0  0  0  0  0  0  0  0  0
   74.2015   50.0466   53.4546 O   0  0  0  0  0  0  0  0  0  0  0  0
   70.2810   51.0359   53.0018 O   0  0  0  0  0  0  0  0  0  0  0  0
   69.7702   49.7493   53.0833 C   0  0  0  0  0  0  0  0  0  0  0  0
   69.7705   48.9832   51.9203 C   0  0  0  0  0  0  0  0  0  0  0  0
   69.2662   47.7043   51.9903 C   0  0  0  0  0  0  0  0  0  0  0  0
   68.7673   47.1738   53.1728 C   0  0  0  0  0  0  0  0  0  0  0  0
   68.7735   47.9420   54.3141 C   0  0  0  0  0  0  0  0  0  0  0  0
   69.2749   49.2258   54.2670 C   0  0  0  0  0  0  0  0  0  0  0  0
   68.1941   47.1591   55.4364 C   0  0  0  0  0  0  0  0  0  0  0  0
   68.4124   45.7299   54.9786 C   0  0  0  0  0  0  0  0  0  0  0  0
   68.1820   45.8380   53.4789 C   0  0  0  0  0  0  0  0  0  0  0  0
  7  8  1  0
  8  9  2  0
  8  1  1  0
  9 10  1  0
  1  2  2  0
  1  6  1  0
  2  3  1  0
  3  4  2  0
  4  5  1  0
  5  6  2  0
  6 11  1  0
 11 12  1  0
 12 13  2  0
 12 17  1  0
 13 14  1  0
 14 15  2  0
 15 16  1  0
 15 20  1  0
 16 17  2  0
 16 18  1  0
 18 19  1  0
 19 20  1  0
M  CHG  1   9   1
M  END
>  <minimizedAffinity>  (143) 
-8.57111

$$$$
data/200k_reference_output/data/smiles/42028.pdb
     RDKit          3D

 21 23  0  0  0  0  0  0  0  0999 V2000
   68.5344   48.1691   56.1922 C   0  0  0  0  0  0  0  0  0  0  0  0
   69.1813   48.5863   55.0927 N   0  0  0  0  0  0  0  0  0  0  0  0
   68.9090   47.8002   54.0394 C   0  0  0  0  0  0  0  0  0  0  0  0
   69.2960   47.7810   52.7160 C   0  0  0  0  0  0  0  0  0  0  0  0
   68.8339   46.8172   51.8477 C   0  0  0  0  0  0  0  0  0  0  0  0
   67.9602   45.8342   52.2872 C   0  0  0  0  0  0  0  0  0  0  0  0
   67.5893   45.8762   53.6148 C   0  0  0  0  0  0  0  0  0  0  0  0
   68.0383   46.8308   54.5046 C   0  0  0  0  0  0  0  0  0  0  0  0
   67.8264   47.0802   55.8248 N   0  0  0  0  0  0  0  0  0  0  0  0
   69.5066   49.8456   57.5087 N   0  0  2  0  0  0  0  0  0  0  0  0
   69.0940   50.8938   56.6911 C   0  0  0  0  0  0  0  0  0  0  0  0
   67.8170   51.4901   57.1850 C   0  0  0  0  0  0  0  0  0  0  0  0
   66.7404   50.4966   57.4798 C   0  0  0  0  0  0  0  0  0  0  0  0
   67.1971   49.1833   57.9912 C   0  0  0  0  0  0  0  0  0  0  0  0
   68.5778   48.7771   57.5571 C   0  0  1  0  0  0  0  0  0  0  0  0
   71.2579   48.8000   58.7471 C   0  0  0  0  0  0  0  0  0  0  0  0
   70.4138   50.0314   58.5247 C   0  0  0  0  0  0  0  0  0  0  0  0
   71.4036   51.1789   58.2773 C   0  0  0  0  0  0  0  0  0  0  0  0
   70.2094   48.7844   52.1948 C   0  0  0  0  0  0  0  0  0  0  0  0
   69.8361   49.5541   51.0670 N   0  0  0  0  0  0  0  0  0  0  0  0
   71.3296   48.9856   52.7245 O   0  0  0  0  0  0  0  0  0  0  0  0
 16 17  1  0
 17 18  1  0
 10 17  1  1
 10 11  1  0
 10 15  1  0
 11 12  1  0
 12 13  1  0
 13 14  1  0
 14 15  1  0
 15  1  1  6
  1  2  2  0
  1  9  1  0
  2  3  1  0
  3  4  2  0
  3  8  1  0
  4 19  1  0
  4  5  1  0
 19 20  1  0
 19 21  2  0
  5  6  2  0
  6  7  1  0
  7  8  2  0
  8  9  1  0
M  CHG  2   2   1  10   1
M  END
>  <minimizedAffinity>  (144) 
-8.56938

$$$$
data/reference_output_2/data/smiles/94813.pdb
     RDKit          3D

 22 24  0  0  0  0  0  0  0  0999 V2000
   73.2629   51.7607   54.7092 C   0  0  0  0  0  0  0  0  0  0  0  0
   72.0224   51.1544   54.1063 C   0  0  0  0  0  0  0  0  0  0  0  0
   71.6509   49.8663   54.1090 N   0  0  0  0  0  0  0  0  0  0  0  0
   70.4795   49.7205   53.4684 C   0  0  0  0  0  0  0  0  0  0  0  0
   70.1615   50.9698   53.0815 N   0  0  0  0  0  0  0  0  0  0  0  0
   71.0811   51.8016   53.4643 O   0  0  0  0  0  0  0  0  0  0  0  0
   69.6881   48.5189   53.2187 C   0  0  0  0  0  0  0  0  0  0  0  0
   68.9869   47.9172   54.2520 C   0  0  0  0  0  0  0  0  0  0  0  0
   68.2329   46.7807   54.0361 C   0  0  0  0  0  0  0  0  0  0  0  0
   68.1450   46.1970   52.7903 C   0  0  0  0  0  0  0  0  0  0  0  0
   68.8372   46.7842   51.7518 C   0  0  0  0  0  0  0  0  0  0  0  0
   69.5899   47.9242   51.9777 C   0  0  0  0  0  0  0  0  0  0  0  0
   73.7020   51.0481   55.9270 C   0  0  0  0  0  0  0  0  0  0  0  0
   75.4118   49.3652   54.5323 O   0  0  0  0  0  0  0  0  0  0  0  0
   75.9602   50.0834   55.4043 C   0  0  0  0  0  0  0  0  0  0  0  0
   75.1136   50.9482   56.1285 N   0  0  0  0  0  0  0  0  0  0  0  0
   77.3941   50.0224   55.6514 C   0  0  0  0  0  0  0  0  0  0  0  0
   78.2255   49.0471   55.1550 C   0  0  0  0  0  0  0  0  0  0  0  0
   79.5921   49.0235   55.4140 C   0  0  0  0  0  0  0  0  0  0  0  0
   80.1746   49.9967   56.1923 C   0  0  0  0  0  0  0  0  0  0  0  0
   79.3508   50.9808   56.6959 C   0  0  0  0  0  0  0  0  0  0  0  0
   78.0014   51.0092   56.4435 C   0  0  0  0  0  0  0  0  0  0  0  0
 14 15  2  0
 15 16  1  0
 15 17  1  0
 16 13  1  0
 13  1  1  0
  1  2  1  0
  2  3  2  0
  2  6  1  0
  3  4  1  0
  4  7  1  0
  4  5  2  0
  7  8  2  0
  7 12  1  0
  8  9  1  0
  9 10  2  0
 10 11  1  0
 11 12  2  0
  5  6  1  0
 17 18  2  0
 17 22  1  0
 18 19  1  0
 19 20  2  0
 20 21  1  0
 21 22  2  0
M  END
>  <minimizedAffinity>  (145) 
-8.56736

$$$$
data/reference_output_2/data/smiles/137939.pdb
     RDKit          3D

 22 24  0  0  0  0  0  0  0  0999 V2000
   68.4167   43.3962   56.1871 C   0  0  0  0  0  0  0  0  0  0  0  0
   67.4850   42.3780   56.1296 C   0  0  0  0  0  0  0  0  0  0  0  0
   67.6439   41.1917   56.8374 C   0  0  0  0  0  0  0  0  0  0  0  0
   68.7555   40.9916   57.6293 C   0  0  0  0  0  0  0  0  0  0  0  0
   69.6665   42.0280   57.6646 C   0  0  0  0  0  0  0  0  0  0  0  0
   69.4867   43.1681   56.9692 N   0  0  0  0  0  0  0  0  0  0  0  0
   68.9631   39.7609   58.3890 C   0  0  0  0  0  0  0  0  0  0  0  0
   67.9713   39.1747   59.1480 C   0  0  0  0  0  0  0  0  0  0  0  0
   68.1711   38.0123   59.8640 C   0  0  0  0  0  0  0  0  0  0  0  0
   69.3993   37.3839   59.8425 C   0  0  0  0  0  0  0  0  0  0  0  0
   70.4112   37.9563   59.0854 C   0  0  0  0  0  0  0  0  0  0  0  0
   70.1881   39.1249   58.3737 C   0  0  0  0  0  0  0  0  0  0  0  0
   69.4268   45.8555   56.9977 O   0  0  0  0  0  0  0  0  0  0  0  0
   68.7915   45.8520   55.9123 C   0  0  0  0  0  0  0  0  0  0  0  0
   68.2588   44.6199   55.4615 N   0  0  0  0  0  0  0  0  0  0  0  0
   68.6072   47.1232   55.1228 C   0  0  0  0  0  0  0  0  0  0  0  0
   68.3342   46.8220   53.7015 C   0  0  0  0  0  0  0  0  0  0  0  0
   67.3515   45.9280   53.3481 C   0  0  0  0  0  0  0  0  0  0  0  0
   67.0883   45.6413   52.0718 N   0  0  0  0  0  0  0  0  0  0  0  0
   67.7830   46.2231   51.0942 C   0  0  0  0  0  0  0  0  0  0  0  0
   68.7428   47.0945   51.3966 N   0  0  0  0  0  0  0  0  0  0  0  0
   69.0379   47.4098   52.6659 C   0  0  0  0  0  0  0  0  0  0  0  0
 13 14  2  0
 14 16  1  0
 14 15  1  0
 16 17  1  0
 17 18  2  0
 17 22  1  0
 18 19  1  0
 19 20  2  0
 20 21  1  0
 21 22  2  0
 15  1  1  0
  1  2  2  0
  1  6  1  0
  2  3  1  0
  3  4  2  0
  4  7  1  0
  4  5  1  0
  7  8  2  0
  7 12  1  0
  8  9  1  0
  9 10  2  0
 10 11  1  0
 11 12  2  0
  5  6  2  0
M  END
>  <minimizedAffinity>  (146) 
-8.56621

$$$$
data/reference_output_2/data/smiles/117098.pdb
     RDKit          3D

 20 21  0  0  0  0  0  0  0  0999 V2000
   69.9503   49.2367   52.4570 S   0  0  0  0  0  0  0  0  0  0  0  0
   69.9780   49.4890   50.9453 O   0  0  0  0  0  0  0  0  0  0  0  0
   71.4072   49.0480   52.8328 O   0  0  0  0  0  0  0  0  0  0  0  0
   68.2774   46.0195   54.1204 C   0  0  0  0  0  0  0  0  0  0  0  0
   67.7087   45.3885   53.0475 C   0  0  0  0  0  0  0  0  0  0  0  0
   67.8201   45.9274   51.7858 C   0  0  0  0  0  0  0  0  0  0  0  0
   68.5158   47.1092   51.6461 C   0  0  0  0  0  0  0  0  0  0  0  0
   69.0948   47.7606   52.7054 C   0  0  0  0  0  0  0  0  0  0  0  0
   68.9801   47.2189   53.9613 C   0  0  0  0  0  0  0  0  0  0  0  0
   67.8850   44.2709   55.5544 O   0  0  0  0  0  0  0  0  0  0  0  0
   68.1627   45.4667   55.4131 N   0  0  0  0  0  0  0  0  0  0  0  0
   68.3592   46.2581   56.5117 O   0  0  0  0  0  0  0  0  0  0  0  0
   69.2862   50.6222   53.1601 N   0  0  0  0  0  0  0  0  0  0  0  0
   69.2124   50.8131   54.5522 C   0  0  0  0  0  0  0  0  0  0  0  0
   68.2878   51.5696   55.2287 C   0  0  0  0  0  0  0  0  0  0  0  0
   68.2941   51.6778   56.6149 C   0  0  0  0  0  0  0  0  0  0  0  0
   69.2283   51.0300   57.3860 C   0  0  0  0  0  0  0  0  0  0  0  0
   69.2552   51.1195   58.7396 F   0  0  0  0  0  0  0  0  0  0  0  0
   70.1640   50.2650   56.7261 C   0  0  0  0  0  0  0  0  0  0  0  0
   70.1603   50.1569   55.3539 C   0  0  0  0  0  0  0  0  0  0  0  0
 10 11  2  0
 11 12  1  0
 11  4  1  0
  4  5  2  0
  4  9  1  0
  5  6  1  0
  6  7  2  0
  7  8  1  0
  8  1  1  0
  8  9  2  0
  1  2  2  0
  1  3  2  0
  1 13  1  0
 13 14  1  0
 14 15  2  0
 14 20  1  0
 15 16  1  0
 16 17  2  0
 17 18  1  0
 17 19  1  0
 19 20  2  0
M  CHG  2  11   1  12  -1
M  END
>  <minimizedAffinity>  (147) 
-8.56125

$$$$
data/reference_output_2/data/smiles/195367.pdb
     RDKit          3D

 21 23  0  0  0  0  0  0  0  0999 V2000
   70.3059   49.1351   51.0463 O   0  0  0  0  0  0  0  0  0  0  0  0
   69.9957   48.7664   52.2256 C   0  0  0  0  0  0  0  0  0  0  0  0
   70.4758   49.3492   53.4659 C   0  0  0  0  0  0  0  0  0  0  0  0
   71.2793   50.3152   53.5846 O   0  0  0  0  0  0  0  0  0  0  0  0
   69.8436   48.5924   54.5083 N   0  0  0  0  0  0  0  0  0  0  0  0
   69.0198   47.5996   53.9219 C   0  0  0  0  0  0  0  0  0  0  0  0
   68.1804   46.5985   54.4294 C   0  0  0  0  0  0  0  0  0  0  0  0
   67.4698   45.7455   53.6175 C   0  0  0  0  0  0  0  0  0  0  0  0
   67.5683   45.8572   52.2557 C   0  0  0  0  0  0  0  0  0  0  0  0
   68.3741   46.8192   51.7179 C   0  0  0  0  0  0  0  0  0  0  0  0
   69.0770   47.6635   52.5543 C   0  0  0  0  0  0  0  0  0  0  0  0
   66.8161   44.9542   51.4070 N   0  0  0  0  0  0  0  0  0  0  0  0
   66.6502   43.7739   51.7662 O   0  0  0  0  0  0  0  0  0  0  0  0
   66.2864   45.3624   50.2267 O   0  0  0  0  0  0  0  0  0  0  0  0
   70.0006   48.7967   55.9190 C   0  0  0  0  0  0  0  0  0  0  0  0
   68.8116   49.4045   56.5695 C   0  0  0  0  0  0  0  0  0  0  0  0
   67.9316   48.6953   57.3267 C   0  0  0  0  0  0  0  0  0  0  0  0
   66.8615   49.3298   57.8981 C   0  0  0  0  0  0  0  0  0  0  0  0
   66.6223   50.6715   57.7444 C   0  0  0  0  0  0  0  0  0  0  0  0
   67.5239   51.3708   56.9759 C   0  0  0  0  0  0  0  0  0  0  0  0
   68.6112   50.7524   56.3898 C   0  0  0  0  0  0  0  0  0  0  0  0
  1  2  2  0
  2  3  1  0
  2 11  1  0
  3  4  2  0
  3  5  1  0
  5 15  1  0
  5  6  1  0
 15 16  1  0
 16 17  2  0
 16 21  1  0
 17 18  1  0
 18 19  2  0
 19 20  1  0
 20 21  2  0
  6  7  2  0
  6 11  1  0
  7  8  1  0
  8  9  2  0
  9 12  1  0
  9 10  1  0
 12 13  2  0
 12 14  1  0
 10 11  2  0
M  CHG  2  12   1  14  -1
M  END
>  <minimizedAffinity>  (148) 
-8.56117

$$$$
data/reference_output_2/data/smiles/132989.pdb
     RDKit          3D

 19 20  0  0  0  0  0  0  0  0999 V2000
   68.1879   46.3124   55.8770 N   0  0  0  0  0  0  0  0  0  0  0  0
   69.3286   47.7040   52.5700 C   0  0  0  0  0  0  0  0  0  0  0  0
   68.6352   46.8814   51.7123 C   0  0  0  0  0  0  0  0  0  0  0  0
   67.8200   45.9097   52.2268 C   0  0  0  0  0  0  0  0  0  0  0  0
   67.6922   45.7513   53.5811 C   0  0  0  0  0  0  0  0  0  0  0  0
   68.3743   46.5600   54.5039 C   0  0  0  0  0  0  0  0  0  0  0  0
   69.1825   47.5245   53.9523 C   0  0  0  0  0  0  0  0  0  0  0  0
   69.9717   49.3524   51.0003 O   0  0  0  0  0  0  0  0  0  0  0  0
   70.2076   48.7531   52.0770 C   0  0  0  0  0  0  0  0  0  0  0  0
   71.3354   49.1251   52.7834 O   0  0  0  0  0  0  0  0  0  0  0  0
   69.1852   46.4402   56.8709 C   0  0  0  0  0  0  0  0  0  0  0  0
   69.6834   47.6842   57.2409 C   0  0  0  0  0  0  0  0  0  0  0  0
   70.6632   47.8012   58.2006 C   0  0  0  0  0  0  0  0  0  0  0  0
   71.1935   46.6938   58.8359 C   0  0  0  0  0  0  0  0  0  0  0  0
   70.6816   45.4739   58.4498 C   0  0  0  0  0  0  0  0  0  0  0  0
   69.7230   45.3942   57.5080 N   0  0  0  0  0  0  0  0  0  0  0  0
   72.1943   46.7696   59.8216 N   0  0  0  0  0  0  0  0  0  0  0  0
   73.3712   46.5304   59.5228 O   0  0  0  0  0  0  0  0  0  0  0  0
   71.8483   47.1082   61.1011 O   0  0  0  0  0  0  0  0  0  0  0  0
  8  9  2  0
  9 10  1  0
  9  2  1  0
  2  3  2  0
  2  7  1  0
  3  4  1  0
  4  5  2  0
  5  6  1  0
  6  1  1  0
  6  7  2  0
  1 11  1  0
 11 12  2  0
 11 16  1  0
 12 13  1  0
 13 14  2  0
 14 17  1  0
 14 15  1  0
 17 18  2  0
 17 19  1  0
 15 16  2  0
M  CHG  2  17   1  19  -1
M  END
>  <minimizedAffinity>  (149) 
-8.55772

$$$$
data/200k_reference_output/data/smiles/42986.pdb
     RDKit          3D

 22 24  0  0  0  0  0  0  0  0999 V2000
   71.9483   45.8449   58.6424 O   0  0  0  0  0  0  0  0  0  0  0  0
   71.0818   46.6872   58.2465 C   0  0  0  0  0  0  0  0  0  0  0  0
   69.9745   46.3107   57.3758 C   0  0  0  0  0  0  0  0  0  0  0  0
   69.0712   47.1779   56.9625 C   0  0  0  0  0  0  0  0  0  0  0  0
   69.1441   48.5851   57.3675 C   0  0  0  0  0  0  0  0  0  0  0  0
   68.2093   49.5092   56.9476 C   0  0  0  0  0  0  0  0  0  0  0  0
   68.2425   50.8372   57.3079 C   0  0  0  0  0  0  0  0  0  0  0  0
   69.2645   51.2737   58.1335 C   0  0  0  0  0  0  0  0  0  0  0  0
   70.2164   50.3870   58.5744 C   0  0  0  0  0  0  0  0  0  0  0  0
   70.1488   49.0514   58.1889 C   0  0  0  0  0  0  0  0  0  0  0  0
   71.1665   48.0998   58.6619 C   0  0  0  0  0  0  0  0  0  0  0  0
   72.0990   48.4830   59.4122 O   0  0  0  0  0  0  0  0  0  0  0  0
   68.0128   46.7649   56.1155 N   0  0  0  0  0  0  0  0  0  0  0  0
   68.2712   46.7641   54.7200 C   0  0  0  0  0  0  0  0  0  0  0  0
   67.6637   45.8057   53.8998 C   0  0  0  0  0  0  0  0  0  0  0  0
   67.9218   45.8231   52.5270 C   0  0  0  0  0  0  0  0  0  0  0  0
   68.7581   46.7602   51.9823 C   0  0  0  0  0  0  0  0  0  0  0  0
   69.3761   47.7238   52.7667 C   0  0  0  0  0  0  0  0  0  0  0  0
   69.0887   47.6649   54.1198 C   0  0  0  0  0  0  0  0  0  0  0  0
   70.2618   48.7296   52.1969 C   0  0  0  0  0  0  0  0  0  0  0  0
   71.3037   49.0622   52.8267 O   0  0  0  0  0  0  0  0  0  0  0  0
   70.0066   49.3336   50.9940 O   0  0  0  0  0  0  0  0  0  0  0  0
  1  2  2  0
  2  3  1  0
  2 11  1  0
  3  4  2  0
  4 13  1  0
  4  5  1  0
 13 14  1  0
 14 15  2  0
 14 19  1  0
 15 16  1  0
 16 17  2  0
 17 18  1  0
 18 20  1  0
 18 19  2  0
 20 21  2  0
 20 22  1  0
  5  6  1  0
  5 10  2  0
  6  7  2  0
  7  8  1  0
  8  9  2  0
  9 10  1  0
 10 11  1  0
 11 12  2  0
M  END
>  <minimizedAffinity>  (150) 
-8.55564

$$$$
data/reference_output_2/data/smiles/102845.pdb
     RDKit          3D

 21 23  0  0  0  0  0  0  0  0999 V2000
   68.2667   45.6573   56.1753 N   0  0  0  0  0  0  0  0  0  0  0  0
   68.3688   46.8157   55.6611 C   0  0  0  0  0  0  0  0  0  0  0  0
   68.4024   48.1042   56.4276 C   0  0  0  0  0  0  0  0  0  0  0  0
   69.7565   48.7039   56.0921 C   0  0  0  0  0  0  0  0  0  0  0  0
   69.9671   48.8881   54.6361 C   0  0  0  0  0  0  0  0  0  0  0  0
   69.3083   47.9521   53.7255 C   0  0  0  0  0  0  0  0  0  0  0  0
   69.4661   48.0713   52.3712 C   0  0  0  0  0  0  0  0  0  0  0  0
   68.8109   47.1887   51.5111 C   0  0  0  0  0  0  0  0  0  0  0  0
   67.9953   46.1862   52.0408 C   0  0  0  0  0  0  0  0  0  0  0  0
   67.8232   46.0509   53.4030 C   0  0  0  0  0  0  0  0  0  0  0  0
   68.4826   46.9318   54.2084 C   0  0  0  0  0  0  0  0  0  0  0  0
   68.2364   44.4415   55.5111 N   0  0  0  0  0  0  0  0  0  0  0  0
   68.4990   40.6930   57.5396 C   0  0  0  0  0  0  0  0  0  0  0  0
   67.5119   40.9503   56.6139 C   0  0  0  0  0  0  0  0  0  0  0  0
   67.4330   42.1705   55.9598 C   0  0  0  0  0  0  0  0  0  0  0  0
   68.3341   43.1853   56.1987 C   0  0  0  0  0  0  0  0  0  0  0  0
   69.3251   42.9323   57.1249 C   0  0  0  0  0  0  0  0  0  0  0  0
   69.4052   41.7180   57.7789 C   0  0  0  0  0  0  0  0  0  0  0  0
   69.7236   38.9275   58.4090 O   0  0  0  0  0  0  0  0  0  0  0  0
   68.5811   39.4124   58.2259 C   0  0  0  0  0  0  0  0  0  0  0  0
   67.4955   38.7085   58.6810 O   0  0  0  0  0  0  0  0  0  0  0  0
 19 20  2  0
 20 21  1  0
 20 13  1  0
 13 14  2  0
 13 18  1  0
 14 15  1  0
 15 16  2  0
 16 12  1  0
 16 17  1  0
 12  1  1  0
  1  2  2  0
  2  3  1  0
  2 11  1  0
  3  4  1  0
  4  5  1  0
  5  6  1  0
  6  7  2  0
  6 11  1  0
  7  8  1  0
  8  9  2  0
  9 10  1  0
 10 11  2  0
 17 18  2  0
M  END
>  <minimizedAffinity>  (151) 
-8.55130

$$$$
data/reference_output_2/data/smiles/166314.pdb
     RDKit          3D

 20 22  0  0  0  0  0  0  0  0999 V2000
   69.6445   47.1064   55.6507 O   0  0  0  0  0  0  0  0  0  0  0  0
   68.9307   46.5823   54.5705 C   0  0  0  0  0  0  0  0  0  0  0  0
   68.0894   45.5142   54.6733 C   0  0  0  0  0  0  0  0  0  0  0  0
   67.4415   45.0926   53.5303 C   0  0  0  0  0  0  0  0  0  0  0  0
   67.6070   45.6942   52.3148 C   0  0  0  0  0  0  0  0  0  0  0  0
   68.4593   46.7746   52.2192 C   0  0  0  0  0  0  0  0  0  0  0  0
   68.8327   47.5561   51.2378 O   0  0  0  0  0  0  0  0  0  0  0  0
   69.6704   48.4535   51.6490 C   0  0  0  0  0  0  0  0  0  0  0  0
   70.2522   49.3795   51.0070 O   0  0  0  0  0  0  0  0  0  0  0  0
   69.8588   48.2559   52.9534 N   0  0  0  0  0  0  0  0  0  0  0  0
   69.1144   47.2086   53.3533 C   0  0  0  0  0  0  0  0  0  0  0  0
   69.0501   47.5314   56.8132 C   0  0  0  0  0  0  0  0  0  0  0  0
   69.0700   46.7358   57.7859 O   0  0  0  0  0  0  0  0  0  0  0  0
   68.7838   52.4493   55.9295 C   0  0  0  0  0  0  0  0  0  0  0  0
   68.2696   51.2093   56.5548 C   0  0  0  0  0  0  0  0  0  0  0  0
   67.1312   51.3025   57.3230 C   0  0  0  0  0  0  0  0  0  0  0  0
   66.6140   50.1565   57.9312 C   0  0  0  0  0  0  0  0  0  0  0  0
   67.2731   48.9629   57.7341 C   0  0  0  0  0  0  0  0  0  0  0  0
   68.4114   48.8310   56.9733 C   0  0  0  0  0  0  0  0  0  0  0  0
   68.8959   49.9881   56.3868 C   0  0  0  0  0  0  0  0  0  0  0  0
 14 15  1  0
 15 16  2  0
 15 20  1  0
 16 17  1  0
 17 18  2  0
 18 19  1  0
 19 12  1  0
 19 20  2  0
 12 13  2  0
 12  1  1  0
  1  2  1  0
  2  3  2  0
  2 11  1  0
  3  4  1  0
  4  5  2  0
  5  6  1  0
  6  7  1  0
  6 11  2  0
  7  8  1  0
  8  9  2  0
  8 10  1  0
 10 11  1  0
M  END
>  <minimizedAffinity>  (152) 
-8.55059

$$$$
data/reference_output_2/data/smiles/170611.pdb
     RDKit          3D

 20 22  0  0  0  0  0  0  0  0999 V2000
   68.4021   45.4563   56.3138 N   0  0  0  0  0  0  0  0  0  0  0  0
   68.4424   46.0006   54.9818 C   0  0  0  0  0  0  0  0  0  0  0  0
   69.1140   47.1270   54.7597 N   0  0  0  0  0  0  0  0  0  0  0  0
   69.1925   47.6961   53.5406 C   0  0  0  0  0  0  0  0  0  0  0  0
   69.7981   48.8300   53.0767 C   0  0  0  0  0  0  0  0  0  0  0  0
   69.4878   48.8668   51.7029 C   0  0  0  0  0  0  0  0  0  0  0  0
   68.7403   47.8016   51.3966 N   0  0  0  0  0  0  0  0  0  0  0  0
   68.5304   47.0468   52.4958 C   0  0  0  0  0  0  0  0  0  0  0  0
   67.8292   45.8754   52.7216 C   0  0  0  0  0  0  0  0  0  0  0  0
   67.2455   45.3175   51.7537 O   0  0  0  0  0  0  0  0  0  0  0  0
   67.8090   45.3860   53.9698 N   0  0  0  0  0  0  0  0  0  0  0  0
   70.6266   49.7864   53.7992 C   0  0  0  0  0  0  0  0  0  0  0  0
   71.8856   49.7280   53.6371 O   0  0  0  0  0  0  0  0  0  0  0  0
   69.9956   50.7591   54.6629 C   0  0  0  0  0  0  0  0  0  0  0  0
   70.4458   52.0565   54.6368 C   0  0  0  0  0  0  0  0  0  0  0  0
   69.8545   53.0085   55.4814 C   0  0  0  0  0  0  0  0  0  0  0  0
   68.8332   52.6247   56.3247 C   0  0  0  0  0  0  0  0  0  0  0  0
   68.3701   51.3111   56.3590 C   0  0  0  0  0  0  0  0  0  0  0  0
   67.0709   50.8612   57.4425 Cl  0  0  0  0  0  0  0  0  0  0  0  0
   68.9872   50.4018   55.5007 C   0  0  0  0  0  0  0  0  0  0  0  0
  1  2  1  0
  2  3  2  0
  2 11  1  0
  3  4  1  0
  4  5  1  0
  4  8  2  0
  5 12  1  0
  5  6  2  0
 12 13  2  0
 12 14  1  0
 14 15  2  0
 14 20  1  0
 15 16  1  0
 16 17  2  0
 17 18  1  0
 18 19  1  0
 18 20  2  0
  6  7  1  0
  7  8  1  0
  8  9  1  0
  9 10  2  0
  9 11  1  0
M  END
>  <minimizedAffinity>  (153) 
-8.54960

$$$$
data/200k_reference_output/data/smiles/40681.pdb
     RDKit          3D

 21 23  0  0  0  0  0  0  0  0999 V2000
   70.0890   48.6388   55.0305 C   0  0  0  0  0  0  0  0  0  0  0  0
   70.8955   49.4869   54.3784 N   0  0  0  0  0  0  0  0  0  0  0  0
   71.0063   49.5106   53.0476 N   0  0  0  0  0  0  0  0  0  0  0  0
   70.3100   48.6791   52.2678 C   0  0  0  0  0  0  0  0  0  0  0  0
   70.4038   48.6905   51.0061 O   0  0  0  0  0  0  0  0  0  0  0  0
   69.4447   47.7612   52.8524 C   0  0  0  0  0  0  0  0  0  0  0  0
   68.7046   46.8800   52.0929 C   0  0  0  0  0  0  0  0  0  0  0  0
   67.8650   45.9900   52.7181 C   0  0  0  0  0  0  0  0  0  0  0  0
   67.7806   45.9985   54.1039 C   0  0  0  0  0  0  0  0  0  0  0  0
   68.5292   46.8891   54.8451 C   0  0  0  0  0  0  0  0  0  0  0  0
   69.3565   47.7646   54.2166 C   0  0  0  0  0  0  0  0  0  0  0  0
   70.0329   48.6374   56.4688 C   0  0  0  0  0  0  0  0  0  0  0  0
   68.6599   50.6575   56.9304 C   0  0  0  0  0  0  0  0  0  0  0  0
   67.4768   51.2842   57.3722 C   0  0  0  0  0  0  0  0  0  0  0  0
   66.4281   50.5276   57.7948 C   0  0  0  0  0  0  0  0  0  0  0  0
   66.5492   49.1548   57.7810 C   0  0  0  0  0  0  0  0  0  0  0  0
   67.6999   48.5402   57.3507 C   0  0  0  0  0  0  0  0  0  0  0  0
   68.7791   49.2968   56.9173 C   0  0  0  0  0  0  0  0  0  0  0  0
   70.9352   51.6856   57.1693 C   0  0  0  0  0  0  0  0  0  0  0  0
   69.6885   51.5194   56.4927 N   0  0  0  0  0  0  0  0  0  0  0  0
   69.4722   52.2959   55.2520 C   0  0  0  0  0  0  0  0  0  0  0  0
 19 20  1  0
 20 21  1  0
 20 13  1  0
 13 14  2  0
 13 18  1  0
 14 15  1  0
 15 16  2  0
 16 17  1  0
 17 18  2  0
 18 12  1  0
 12  1  1  0
  1  2  2  0
  1 11  1  0
  2  3  1  0
  3  4  1  0
  4  5  2  0
  4  6  1  0
  6  7  1  0
  6 11  2  0
  7  8  2  0
  8  9  1  0
  9 10  2  0
 10 11  1  0
M  END
>  <minimizedAffinity>  (154) 
-8.54678

$$$$
data/200k_reference_output/data/smiles/30248.pdb
     RDKit          3D

 22 23  0  0  0  0  0  0  0  0999 V2000
   67.6998   45.0611   54.7660 N   0  0  0  0  0  0  0  0  0  0  0  0
   68.0712   44.1512   55.7947 C   0  0  0  0  0  0  0  0  0  0  0  0
   68.9633   44.5266   56.5977 O   0  0  0  0  0  0  0  0  0  0  0  0
   67.5137   42.8764   55.9685 N   0  0  0  0  0  0  0  0  0  0  0  0
   68.1061   46.0350   52.1781 C   0  0  0  0  0  0  0  0  0  0  0  0
   68.4885   46.8505   53.3436 C   0  0  0  0  0  0  0  0  0  0  0  0
   69.0567   48.1169   53.1485 C   0  0  0  0  0  0  0  0  0  0  0  0
   69.4116   48.8727   54.2664 C   0  0  0  0  0  0  0  0  0  0  0  0
   69.2072   48.3845   55.5359 C   0  0  0  0  0  0  0  0  0  0  0  0
   68.6454   47.1333   55.6791 C   0  0  0  0  0  0  0  0  0  0  0  0
   68.2785   46.3486   54.6083 C   0  0  0  0  0  0  0  0  0  0  0  0
   67.8650   41.9753   56.9665 N   0  0  0  0  0  0  0  0  0  0  0  0
   67.9556   40.5644   56.7637 C   0  0  0  0  0  0  0  0  0  0  0  0
   67.6907   40.1881   55.6006 O   0  0  0  0  0  0  0  0  0  0  0  0
   68.3269   39.6317   57.8243 C   0  0  0  0  0  0  0  0  0  0  0  0
   69.7510   39.6781   58.2755 C   0  0  0  0  0  0  0  0  0  0  0  0
   70.3222   38.3854   58.7105 C   0  0  0  0  0  0  0  0  0  0  0  0
   71.4064   37.7849   58.1220 C   0  0  0  0  0  0  0  0  0  0  0  0
   71.8281   36.5610   58.6006 C   0  0  0  0  0  0  0  0  0  0  0  0
   71.2199   35.9059   59.6408 C   0  0  0  0  0  0  0  0  0  0  0  0
   70.1369   36.5283   60.2147 C   0  0  0  0  0  0  0  0  0  0  0  0
   69.6820   37.7429   59.7730 C   0  0  0  0  0  0  0  0  0  0  0  0
  5  6  1  0
  6  7  2  0
  6 11  1  0
  7  8  1  0
  8  9  2  0
  9 10  1  0
 10 11  2  0
 11  1  1  0
  1  2  1  0
  2  3  2  0
  2  4  1  0
  4 12  1  0
 12 13  1  0
 13 14  2  0
 13 15  1  0
 15 16  1  0
 16 17  1  0
 17 18  2  0
 17 22  1  0
 18 19  1  0
 19 20  2  0
 20 21  1  0
 21 22  2  0
M  END
>  <minimizedAffinity>  (155) 
-8.54584

$$$$
data/reference_output_2/data/smiles/153581.pdb
     RDKit          3D

 20 21  0  0  0  0  0  0  0  0999 V2000
   69.2665   47.6516   52.7039 C   0  0  0  0  0  0  0  0  0  0  0  0
   69.4281   47.4813   54.0579 C   0  0  0  0  0  0  0  0  0  0  0  0
   68.7950   46.5257   54.7590 N   0  0  0  0  0  0  0  0  0  0  0  0
   67.9644   45.7019   54.0848 C   0  0  0  0  0  0  0  0  0  0  0  0
   67.7521   45.8104   52.7257 C   0  0  0  0  0  0  0  0  0  0  0  0
   66.9076   44.9844   52.0010 O   0  0  0  0  0  0  0  0  0  0  0  0
   68.4165   46.8007   52.0367 C   0  0  0  0  0  0  0  0  0  0  0  0
   68.2379   46.9221   50.7863 O   0  0  0  0  0  0  0  0  0  0  0  0
   70.6277   48.4318   50.9330 O   0  0  0  0  0  0  0  0  0  0  0  0
   69.9805   48.7115   51.9739 C   0  0  0  0  0  0  0  0  0  0  0  0
   69.9660   50.0270   52.4012 O   0  0  0  0  0  0  0  0  0  0  0  0
   68.9730   46.3550   56.1869 C   0  0  0  0  0  0  0  0  0  0  0  0
   69.0416   47.6877   56.8407 C   0  0  0  0  0  0  0  0  0  0  0  0
   70.2359   48.1088   57.3868 C   0  0  0  0  0  0  0  0  0  0  0  0
   70.3796   49.3328   58.0105 C   0  0  0  0  0  0  0  0  0  0  0  0
   69.2974   50.1807   58.0995 C   0  0  0  0  0  0  0  0  0  0  0  0
   69.3620   51.3937   58.6952 F   0  0  0  0  0  0  0  0  0  0  0  0
   68.0852   49.7657   57.5515 C   0  0  0  0  0  0  0  0  0  0  0  0
   66.7050   50.8282   57.6572 Cl  0  0  0  0  0  0  0  0  0  0  0  0
   67.9574   48.5300   56.9266 C   0  0  0  0  0  0  0  0  0  0  0  0
  9 10  2  0
 10 11  1  0
 10  1  1  0
  1  2  2  0
  1  7  1  0
  2  3  1  0
  3 12  1  0
  3  4  1  0
 12 13  1  0
 13 14  2  0
 13 20  1  0
 14 15  1  0
 15 16  2  0
 16 17  1  0
 16 18  1  0
 18 19  1  0
 18 20  2  0
  4  5  2  0
  5  6  1  0
  5  7  1  0
  7  8  2  0
M  END
>  <minimizedAffinity>  (156) 
-8.54468

$$$$
data/200k_reference_output/data/smiles/1070.pdb
     RDKit          3D

 21 23  0  0  0  0  0  0  0  0999 V2000
   70.5807   49.6272   54.2389 C   0  0  0  0  0  0  0  0  0  0  0  0
   69.7218   48.7241   54.8187 C   0  0  0  0  0  0  0  0  0  0  0  0
   69.0896   47.7634   54.0232 C   0  0  0  0  0  0  0  0  0  0  0  0
   68.2187   46.8255   54.5244 C   0  0  0  0  0  0  0  0  0  0  0  0
   67.6127   45.8914   53.7077 C   0  0  0  0  0  0  0  0  0  0  0  0
   67.9121   45.9287   52.3460 C   0  0  0  0  0  0  0  0  0  0  0  0
   68.7867   46.8758   51.8659 C   0  0  0  0  0  0  0  0  0  0  0  0
   69.3967   47.8118   52.6743 C   0  0  0  0  0  0  0  0  0  0  0  0
   70.2656   48.7390   52.1419 C   0  0  0  0  0  0  0  0  0  0  0  0
   70.5185   48.7504   50.9136 O   0  0  0  0  0  0  0  0  0  0  0  0
   70.8123   49.6026   52.9652 O   0  0  0  0  0  0  0  0  0  0  0  0
   71.2432   50.6363   55.0841 C   0  0  0  0  0  0  0  0  0  0  0  0
   70.8115   52.0257   54.5980 C   0  0  0  0  0  0  0  0  0  0  0  0
   69.4503   52.1625   54.8724 O   0  0  0  0  0  0  0  0  0  0  0  0
   69.1534   53.5956   56.5848 O   0  0  0  0  0  0  0  0  0  0  0  0
   68.9051   52.4624   56.1017 C   0  0  0  0  0  0  0  0  0  0  0  0
   68.0667   51.5323   56.8494 C   0  0  0  0  0  0  0  0  0  0  0  0
   68.5078   50.4760   57.6182 C   0  0  0  0  0  0  0  0  0  0  0  0
   67.4030   49.8472   58.1550 C   0  0  0  0  0  0  0  0  0  0  0  0
   66.3218   50.5597   57.6819 C   0  0  0  0  0  0  0  0  0  0  0  0
   66.7684   51.5364   56.9225 O   0  0  0  0  0  0  0  0  0  0  0  0
 15 16  2  0
 16 14  1  0
 16 17  1  0
 14 13  1  0
 13 12  1  0
 12  1  1  0
  1  2  2  0
  1 11  1  0
  2  3  1  0
  3  4  2  0
  3  8  1  0
  4  5  1  0
  5  6  2  0
  6  7  1  0
  7  8  2  0
  8  9  1  0
  9 10  2  0
  9 11  1  0
 17 18  2  0
 17 21  1  0
 18 19  1  0
 19 20  2  0
 20 21  1  0
M  END
>  <minimizedAffinity>  (157) 
-8.54179

$$$$
data/reference_output_2/data/smiles/141271.pdb
     RDKit          3D

 22 24  0  0  0  0  0  0  0  0999 V2000
   68.4376   42.5965   56.6497 C   0  0  0  0  0  0  0  0  0  0  0  0
   69.4048   41.9507   57.3823 C   0  0  0  0  0  0  0  0  0  0  0  0
   70.4033   42.7129   57.9384 C   0  0  0  0  0  0  0  0  0  0  0  0
   71.2957   42.1408   58.6115 O   0  0  0  0  0  0  0  0  0  0  0  0
   70.4061   44.0837   57.7484 C   0  0  0  0  0  0  0  0  0  0  0  0
   71.3925   44.8603   58.3144 C   0  0  0  0  0  0  0  0  0  0  0  0
   71.4169   46.2260   58.1581 C   0  0  0  0  0  0  0  0  0  0  0  0
   70.4320   46.8343   57.4155 C   0  0  0  0  0  0  0  0  0  0  0  0
   69.3986   46.1026   56.8107 C   0  0  0  0  0  0  0  0  0  0  0  0
   69.4189   44.7388   56.9998 C   0  0  0  0  0  0  0  0  0  0  0  0
   68.4655   43.9489   56.4789 N   0  0  0  0  0  0  0  0  0  0  0  0
   66.2161   42.3523   55.9839 O   0  0  0  0  0  0  0  0  0  0  0  0
   67.3491   41.8506   56.0306 C   0  0  0  0  0  0  0  0  0  0  0  0
   67.5469   40.5945   55.4918 O   0  0  0  0  0  0  0  0  0  0  0  0
   68.4141   46.7931   55.9903 C   0  0  0  0  0  0  0  0  0  0  0  0
   67.4112   47.3761   56.4973 O   0  0  0  0  0  0  0  0  0  0  0  0
   68.5469   46.8457   54.5506 C   0  0  0  0  0  0  0  0  0  0  0  0
   67.9088   45.9004   53.7451 C   0  0  0  0  0  0  0  0  0  0  0  0
   68.0090   45.9425   52.3655 C   0  0  0  0  0  0  0  0  0  0  0  0
   68.7521   46.9361   51.7580 C   0  0  0  0  0  0  0  0  0  0  0  0
   69.3959   47.8857   52.5214 C   0  0  0  0  0  0  0  0  0  0  0  0
   69.2774   47.8158   53.8731 C   0  0  0  0  0  0  0  0  0  0  0  0
 12 13  2  0
 13 14  1  0
 13  1  1  0
  1  2  2  0
  1 11  1  0
  2  3  1  0
  3  4  2  0
  3  5  1  0
  5  6  1  0
  5 10  2  0
  6  7  2  0
  7  8  1  0
  8  9  2  0
  9 15  1  0
  9 10  1  0
 15 16  2  0
 15 17  1  0
 17 18  2  0
 17 22  1  0
 18 19  1  0
 19 20  2  0
 20 21  1  0
 21 22  2  0
 10 11  1  0
M  END
>  <minimizedAffinity>  (158) 
-8.54005

$$$$
data/reference_output_2/data/smiles/106157.pdb
     RDKit          3D

 21 23  0  0  0  0  0  0  0  0999 V2000
   66.4649   42.3378   55.6312 O   0  0  0  0  0  0  0  0  0  0  0  0
   67.4260   41.8925   56.3120 C   0  0  0  0  0  0  0  0  0  0  0  0
   67.6123   40.5842   56.8376 N   0  0  0  0  0  0  0  0  0  0  0  0
   68.8477   40.5520   57.5387 C   0  0  0  0  0  0  0  0  0  0  0  0
   69.4959   39.5280   58.2309 C   0  0  0  0  0  0  0  0  0  0  0  0
   70.7174   39.7546   58.8402 C   0  0  0  0  0  0  0  0  0  0  0  0
   71.3306   40.9815   58.7860 C   0  0  0  0  0  0  0  0  0  0  0  0
   70.6827   41.9839   58.1000 C   0  0  0  0  0  0  0  0  0  0  0  0
   69.4571   41.7863   57.4798 C   0  0  0  0  0  0  0  0  0  0  0  0
   68.5795   42.6739   56.7028 C   0  0  0  0  0  0  0  0  0  0  0  0
   68.8667   43.9104   56.4640 N   0  0  0  0  0  0  0  0  0  0  0  0
   67.9875   44.6735   55.7267 N   0  0  0  0  0  0  0  0  0  0  0  0
   68.3877   45.8754   55.0621 C   0  0  0  0  0  0  0  0  0  0  0  0
   68.6796   47.0252   55.7613 C   0  0  0  0  0  0  0  0  0  0  0  0
   69.0667   48.1839   55.1178 C   0  0  0  0  0  0  0  0  0  0  0  0
   69.1620   48.1865   53.7194 C   0  0  0  0  0  0  0  0  0  0  0  0
   68.8737   47.0454   53.0010 C   0  0  0  0  0  0  0  0  0  0  0  0
   68.4926   45.9131   53.6896 C   0  0  0  0  0  0  0  0  0  0  0  0
   68.9758   47.0628   51.5734 N   0  0  0  0  0  0  0  0  0  0  0  0
   68.0101   46.7966   50.8481 O   0  0  0  0  0  0  0  0  0  0  0  0
   70.1603   47.3774   50.9532 O   0  0  0  0  0  0  0  0  0  0  0  0
  1  2  2  0
  2  3  1  0
  2 10  1  0
  3  4  1  0
  4  5  2  0
  4  9  1  0
  5  6  1  0
  6  7  2  0
  7  8  1  0
  8  9  2  0
  9 10  1  0
 10 11  2  0
 11 12  1  0
 12 13  1  0
 13 14  2  0
 13 18  1  0
 14 15  1  0
 15 16  2  0
 16 17  1  0
 17 19  1  0
 17 18  2  0
 19 20  2  0
 19 21  1  0
M  CHG  2  19   1  21  -1
M  END
>  <minimizedAffinity>  (159) 
-8.53895

$$$$
data/200k_reference_output/data/smiles/84070.pdb
     RDKit          3D

 22 24  0  0  0  0  0  0  0  0999 V2000
   69.0202   47.4955   54.0137 C   0  0  0  0  0  0  0  0  0  0  0  0
   68.3584   46.3460   53.6395 C   0  0  0  0  0  0  0  0  0  0  0  0
   68.0131   45.4224   54.6238 C   0  0  0  0  0  0  0  0  0  0  0  0
   68.3414   45.6850   55.9206 N   0  0  0  0  0  0  0  0  0  0  0  0
   68.9827   46.7953   56.2867 C   0  0  0  0  0  0  0  0  0  0  0  0
   69.3096   47.6802   55.3231 N   0  0  0  0  0  0  0  0  0  0  0  0
   70.0362   46.9944   51.2999 O   0  0  0  0  0  0  0  0  0  0  0  0
   69.8839   48.1653   51.7459 C   0  0  0  0  0  0  0  0  0  0  0  0
   70.1468   49.2912   51.0677 N   0  0  0  0  0  0  0  0  0  0  0  0
   69.8611   50.3157   51.8638 N   0  0  0  0  0  0  0  0  0  0  0  0
   69.4100   49.8579   53.0672 C   0  0  0  0  0  0  0  0  0  0  0  0
   69.4129   48.4816   53.0191 C   0  0  0  0  0  0  0  0  0  0  0  0
   69.3311   47.0918   57.6296 N   0  0  0  0  0  0  0  0  0  0  0  0
   70.5617   47.8223   57.8284 C   0  0  0  0  0  0  0  0  0  0  0  0
   70.1493   49.1253   58.5020 C   0  0  0  0  0  0  0  0  0  0  0  0
   69.7039   50.1654   57.5551 C   0  0  0  0  0  0  0  0  0  0  0  0
   68.3844   50.5133   57.3780 C   0  0  0  0  0  0  0  0  0  0  0  0
   67.9813   51.4856   56.4615 C   0  0  0  0  0  0  0  0  0  0  0  0
   68.9174   52.1598   55.6725 C   0  0  0  0  0  0  0  0  0  0  0  0
   68.5069   53.1002   54.7877 F   0  0  0  0  0  0  0  0  0  0  0  0
   70.2394   51.8162   55.8472 C   0  0  0  0  0  0  0  0  0  0  0  0
   70.6345   50.8495   56.7591 C   0  0  0  0  0  0  0  0  0  0  0  0
  7  8  2  0
  8  9  1  0
  8 12  1  0
  9 10  1  0
 10 11  1  0
 11 12  2  0
 12  1  1  0
  1  2  2  0
  1  6  1  0
  2  3  1  0
  3  4  2  0
  4  5  1  0
  5 13  1  0
  5  6  2  0
 13 14  1  0
 14 15  1  0
 15 16  1  0
 16 17  2  0
 16 22  1  0
 17 18  1  0
 18 19  2  0
 19 20  1  0
 19 21  1  0
 21 22  2  0
M  END
>  <minimizedAffinity>  (160) 
-8.53566

$$$$
data/200k_reference_output/data/smiles/39879.pdb
     RDKit          3D

 20 23  0  0  0  0  0  0  0  0999 V2000
   69.3799   48.2680   55.9343 C   0  0  1  0  0  0  0  0  0  0  0  0
   69.5445   47.0474   56.7911 C   0  0  0  0  0  0  0  0  0  0  0  0
   68.8679   45.9546   56.0389 C   0  0  0  0  0  0  0  0  0  0  0  0
   68.4176   44.6907   56.0937 N   0  0  0  0  0  0  0  0  0  0  0  0
   67.8770   44.3355   54.9543 N   0  0  0  0  0  0  0  0  0  0  0  0
   67.9384   45.3609   54.0590 C   0  0  0  0  0  0  0  0  0  0  0  0
   68.5638   46.3817   54.7463 C   0  0  0  0  0  0  0  0  0  0  0  0
   69.0191   47.7770   54.5797 C   0  0  0  0  0  0  0  0  0  0  0  0
   69.9511   51.1692   55.1069 Cl  0  0  0  0  0  0  0  0  0  0  0  0
   68.7205   50.6609   56.2289 C   0  0  0  0  0  0  0  0  0  0  0  0
   67.9182   51.6343   56.8093 C   0  0  0  0  0  0  0  0  0  0  0  0
   66.9178   51.2831   57.7043 C   0  0  0  0  0  0  0  0  0  0  0  0
   66.7496   49.9689   57.9939 C   0  0  0  0  0  0  0  0  0  0  0  0
   67.5412   49.0260   57.4194 C   0  0  0  0  0  0  0  0  0  0  0  0
   68.5684   49.3253   56.5057 C   0  0  0  0  0  0  0  0  0  0  0  0
   67.4480   45.3575   52.6901 C   0  0  0  0  0  0  0  0  0  0  0  0
   67.6279   46.2993   51.7511 N   0  0  0  0  0  0  0  0  0  0  0  0
   67.0299   45.9366   50.6282 N   0  0  0  0  0  0  0  0  0  0  0  0
   66.4614   44.7646   50.8303 N   0  0  0  0  0  0  0  0  0  0  0  0
   66.7189   44.4119   52.0914 N   0  0  0  0  0  0  0  0  0  0  0  0
  9 10  1  0
 10 11  2  0
 10 15  1  0
 11 12  1  0
 12 13  2  0
 13 14  1  0
 14 15  2  0
  1 15  1  1
  1  2  1  0
  1  8  1  0
  2  3  1  0
  3  4  1  0
  3  7  2  0
  4  5  1  0
  5  6  2  0
  6 16  1  0
  6  7  1  0
 16 17  2  0
 16 20  1  0
 17 18  1  0
 18 19  2  0
 19 20  1  0
  7  8  1  0
M  END
>  <minimizedAffinity>  (161) 
-8.53412

$$$$
data/200k_reference_output/data/smiles/8871.pdb
     RDKit          3D

 20 22  0  0  0  0  0  0  0  0999 V2000
   68.4127   47.7374   55.8737 C   0  0  0  0  0  0  0  0  0  0  0  0
   69.0529   48.2761   54.8199 N   0  0  0  0  0  0  0  0  0  0  0  0
   68.7859   47.5803   53.6989 C   0  0  0  0  0  0  0  0  0  0  0  0
   69.1684   47.6901   52.3667 C   0  0  0  0  0  0  0  0  0  0  0  0
   68.7174   46.7989   51.4153 C   0  0  0  0  0  0  0  0  0  0  0  0
   67.8693   45.7680   51.7597 C   0  0  0  0  0  0  0  0  0  0  0  0
   67.4962   45.6672   53.0812 C   0  0  0  0  0  0  0  0  0  0  0  0
   67.9378   46.5512   54.0495 C   0  0  0  0  0  0  0  0  0  0  0  0
   67.7396   46.6860   55.3760 N   0  0  0  0  0  0  0  0  0  0  0  0
   68.2147   51.0848   56.8892 C   0  0  1  0  0  0  0  0  0  0  0  0
   69.5391   50.3832   56.6951 C   0  0  0  0  0  0  0  0  0  0  0  0
   69.6569   49.1116   57.4723 C   0  0  0  0  0  0  0  0  0  0  0  0
   68.4474   48.2139   57.2994 C   0  0  1  0  0  0  0  0  0  0  0  0
   67.1635   48.9343   57.6107 C   0  0  0  0  0  0  0  0  0  0  0  0
   67.4474   50.3797   57.9667 C   0  0  0  0  0  0  0  0  0  0  0  0
   69.2731   53.0563   56.3637 C   0  0  0  0  0  0  0  0  0  0  0  0
   68.4012   52.3991   57.2417 O   0  0  0  0  0  0  0  0  0  0  0  0
   70.0669   48.7886   52.0228 C   0  0  0  0  0  0  0  0  0  0  0  0
   71.2062   48.9860   52.8580 N   0  0  0  0  0  0  0  0  0  0  0  0
   69.8670   49.5373   51.0449 O   0  0  0  0  0  0  0  0  0  0  0  0
 16 17  1  0
 10 17  1  1
 10 11  1  0
 10 15  1  0
 11 12  1  0
 12 13  1  0
 13  1  1  6
 13 14  1  0
  1  2  2  0
  1  9  1  0
  2  3  1  0
  3  4  2  0
  3  8  1  0
  4 18  1  0
  4  5  1  0
 18 19  1  0
 18 20  2  0
  5  6  2  0
  6  7  1  0
  7  8  2  0
  8  9  1  0
 14 15  1  0
M  CHG  1   2   1
M  END
>  <minimizedAffinity>  (162) 
-8.53313

$$$$
data/200k_reference_output/data/smiles/57486.pdb
     RDKit          3D

 21 22  0  0  0  0  0  0  0  0999 V2000
   70.0280   51.2622   54.1889 C   0  0  0  0  0  0  0  0  0  0  0  0
   69.3571   50.5408   53.2798 C   0  0  0  0  0  0  0  0  0  0  0  0
   70.1628   49.3646   52.9553 C   0  0  1  0  0  0  0  0  0  0  0  0
   71.3504   49.5072   53.6419 O   0  0  0  0  0  0  0  0  0  0  0  0
   71.3111   50.6285   54.4437 C   0  0  0  0  0  0  0  0  0  0  0  0
   72.2278   51.0239   55.2464 O   0  0  0  0  0  0  0  0  0  0  0  0
   69.4437   48.0981   53.3268 C   0  0  0  0  0  0  0  0  0  0  0  0
   69.0214   47.8772   54.6369 C   0  0  0  0  0  0  0  0  0  0  0  0
   68.3533   46.7245   54.9898 C   0  0  0  0  0  0  0  0  0  0  0  0
   67.9360   46.5105   56.2954 O   0  0  0  0  0  0  0  0  0  0  0  0
   68.0763   45.7451   54.0622 C   0  0  0  0  0  0  0  0  0  0  0  0
   68.4895   45.9526   52.7621 C   0  0  0  0  0  0  0  0  0  0  0  0
   69.1693   47.1289   52.4093 C   0  0  0  0  0  0  0  0  0  0  0  0
   69.5551   47.2692   51.0897 O   0  0  0  0  0  0  0  0  0  0  0  0
   69.4980   52.5218   54.7418 C   0  0  0  0  0  0  0  0  0  0  0  0
   69.2530   52.5484   56.2174 C   0  0  0  0  0  0  0  0  0  0  0  0
   67.0534   49.8628   57.8619 C   0  0  0  0  0  0  0  0  0  0  0  0
   68.2720   50.7168   57.5118 C   0  0  0  0  0  0  0  0  0  0  0  0
   68.1702   51.6741   56.6314 C   0  0  0  0  0  0  0  0  0  0  0  0
   69.5227   50.4021   58.2113 C   0  0  0  0  0  0  0  0  0  0  0  0
   70.0848   49.2999   57.5105 O   0  0  0  0  0  0  0  0  0  0  0  0
 17 18  1  0
 18 19  2  0
 18 20  1  0
 19 16  1  0
 16 15  1  0
 15  1  1  0
  1  2  2  0
  1  5  1  0
  2  3  1  0
  3  7  1  1
  3  4  1  0
  7  8  2  0
  7 13  1  0
  8  9  1  0
  9 10  1  0
  9 11  2  0
 11 12  1  0
 12 13  2  0
 13 14  1  0
  4  5  1  0
  5  6  2  0
 20 21  1  0
M  END
>  <minimizedAffinity>  (163) 
-8.53127

$$$$
data/200k_reference_output/data/smiles/22306.pdb
     RDKit          3D

 19 21  0  0  0  0  0  0  0  0999 V2000
   70.3923   48.9559   50.9390 O   0  0  0  0  0  0  0  0  0  0  0  0
   70.2820   49.2095   52.4305 S   0  0  0  0  0  0  0  0  0  0  0  0
   71.6872   49.1611   53.0285 O   0  0  0  0  0  0  0  0  0  0  0  0
   69.3421   47.9579   53.1650 C   0  0  0  0  0  0  0  0  0  0  0  0
   69.3561   47.7978   54.5546 C   0  0  0  0  0  0  0  0  0  0  0  0
   68.6185   46.8281   55.1731 C   0  0  0  0  0  0  0  0  0  0  0  0
   67.8341   45.9779   54.4300 C   0  0  0  0  0  0  0  0  0  0  0  0
   67.7969   46.1063   53.0664 C   0  0  0  0  0  0  0  0  0  0  0  0
   67.1730   45.4711   52.0633 N   0  0  0  0  0  0  0  0  0  0  0  0
   67.5089   46.0142   50.9440 O   0  0  0  0  0  0  0  0  0  0  0  0
   68.3370   46.9926   51.1374 N   0  0  0  0  0  0  0  0  0  0  0  0
   68.5599   47.1043   52.4554 C   0  0  0  0  0  0  0  0  0  0  0  0
   69.6424   50.7731   52.6797 N   0  0  0  0  0  0  0  0  0  0  0  0
   69.5964   51.4757   53.8993 C   0  0  0  0  0  0  0  0  0  0  0  0
   70.6876   52.1333   54.4265 C   0  0  0  0  0  0  0  0  0  0  0  0
   70.6068   52.7742   55.6399 C   0  0  0  0  0  0  0  0  0  0  0  0
   69.4386   52.7852   56.3704 C   0  0  0  0  0  0  0  0  0  0  0  0
   68.3377   52.1464   55.8834 C   0  0  0  0  0  0  0  0  0  0  0  0
   68.4291   51.5101   54.6721 C   0  0  0  0  0  0  0  0  0  0  0  0
  1  2  2  0
  2  3  2  0
  2 13  1  0
  2  4  1  0
 13 14  1  0
 14 15  2  0
 14 19  1  0
 15 16  1  0
 16 17  2  0
 17 18  1  0
 18 19  2  0
  4  5  2  0
  4 12  1  0
  5  6  1  0
  6  7  2  0
  7  8  1  0
  8  9  2  0
  8 12  1  0
  9 10  1  0
 10 11  1  0
 11 12  2  0
M  END
>  <minimizedAffinity>  (164) 
-8.52743

$$$$
data/200k_reference_output/data/smiles/49303.pdb
     RDKit          3D

 21 22  0  0  0  0  0  0  0  0999 V2000
   69.7326   46.1677   57.1060 C   0  0  0  0  0  0  0  0  0  0  0  0
   68.7126   46.8749   56.7999 N   0  0  0  0  0  0  0  0  0  0  0  0
   72.4558   47.1780   60.2510 C   0  0  0  0  0  0  0  0  0  0  0  0
   71.7919   48.1498   59.5316 C   0  0  0  0  0  0  0  0  0  0  0  0
   70.9128   47.8238   58.5161 C   0  0  0  0  0  0  0  0  0  0  0  0
   70.6594   46.5130   58.1760 C   0  0  0  0  0  0  0  0  0  0  0  0
   71.3266   45.5427   58.8988 C   0  0  0  0  0  0  0  0  0  0  0  0
   72.2075   45.8645   59.9152 C   0  0  0  0  0  0  0  0  0  0  0  0
   72.9385   48.0631   62.3653 O   0  0  0  0  0  0  0  0  0  0  0  0
   73.3898   47.5341   61.3289 C   0  0  0  0  0  0  0  0  0  0  0  0
   74.7343   47.3061   61.2370 O   0  0  0  0  0  0  0  0  0  0  0  0
   67.8298   46.5655   55.7960 O   0  0  0  0  0  0  0  0  0  0  0  0
   68.1506   46.6754   54.4529 C   0  0  0  0  0  0  0  0  0  0  0  0
   67.5983   45.8013   53.5411 C   0  0  0  0  0  0  0  0  0  0  0  0
   67.9113   45.8990   52.1851 C   0  0  0  0  0  0  0  0  0  0  0  0
   68.7762   46.8686   51.7241 C   0  0  0  0  0  0  0  0  0  0  0  0
   69.3311   47.7438   52.6310 C   0  0  0  0  0  0  0  0  0  0  0  0
   69.0157   47.6430   53.9908 C   0  0  0  0  0  0  0  0  0  0  0  0
   70.2418   48.7634   52.1435 C   0  0  0  0  0  0  0  0  0  0  0  0
   70.0212   49.3185   51.0497 O   0  0  0  0  0  0  0  0  0  0  0  0
   71.3464   49.1172   52.8885 O   0  0  0  0  0  0  0  0  0  0  0  0
  9 10  2  0
 10 11  1  0
 10  3  1  0
  3  4  2  0
  3  8  1  0
  4  5  1  0
  5  6  2  0
  6  1  1  0
  6  7  1  0
  1  2  2  0
  2 12  1  0
 12 13  1  0
 13 14  2  0
 13 18  1  0
 14 15  1  0
 15 16  2  0
 16 17  1  0
 17 19  1  0
 17 18  2  0
 19 20  2  0
 19 21  1  0
  7  8  2  0
M  END
>  <minimizedAffinity>  (165) 
-8.52570

$$$$
data/200k_reference_output/data/smiles/81284.pdb
     RDKit          3D

 20 22  0  0  0  0  0  0  0  0999 V2000
   66.7262   44.9944   50.8886 O   0  0  0  0  0  0  0  0  0  0  0  0
   67.3787   45.8003   51.6253 C   0  0  0  0  0  0  0  0  0  0  0  0
   68.2113   46.6977   51.0691 N   0  0  0  0  0  0  0  0  0  0  0  0
   68.9065   47.5572   51.8635 C   0  0  0  0  0  0  0  0  0  0  0  0
   69.6778   48.4011   51.3531 O   0  0  0  0  0  0  0  0  0  0  0  0
   68.7711   47.5182   53.2121 C   0  0  0  0  0  0  0  0  0  0  0  0
   69.4535   48.3739   54.0574 C   0  0  0  0  0  0  0  0  0  0  0  0
   69.1668   48.1882   55.4193 C   0  0  0  0  0  0  0  0  0  0  0  0
   68.2863   47.2321   55.8728 C   0  0  0  0  0  0  0  0  0  0  0  0
   68.0947   47.1388   57.1052 O   0  0  0  0  0  0  0  0  0  0  0  0
   67.6860   46.4617   55.0162 O   0  0  0  0  0  0  0  0  0  0  0  0
   67.8861   46.5619   53.7252 C   0  0  0  0  0  0  0  0  0  0  0  0
   67.1982   45.7128   52.9440 N   0  0  0  0  0  0  0  0  0  0  0  0
   70.4281   49.3233   53.5641 C   0  0  0  0  0  0  0  0  0  0  0  0
   71.0610   50.2766   54.4960 C   0  0  0  0  0  0  0  0  0  0  0  0
   70.5693   51.6941   54.5403 C   0  0  0  0  0  0  0  0  0  0  0  0
   69.3529   51.9559   55.3530 C   0  0  0  0  0  0  0  0  0  0  0  0
   67.8047   51.9482   54.4072 Cl  0  0  0  0  0  0  0  0  0  0  0  0
   69.3982   53.1835   56.2238 C   0  0  0  0  0  0  0  0  0  0  0  0
   69.2835   51.7942   56.8339 C   0  0  0  0  0  0  0  0  0  0  0  0
  1  2  2  0
  2  3  1  0
  2 13  1  0
  3  4  1  0
  4  5  2  0
  4  6  1  0
  6  7  1  0
  6 12  2  0
  7 14  1  0
  7  8  2  0
 14 15  1  0
 15 16  1  0
 16 17  1  0
 17 18  1  0
 17 19  1  0
 17 20  1  0
 19 20  1  0
  8  9  1  0
  9 10  2  0
  9 11  1  0
 11 12  1  0
 12 13  1  0
M  END
>  <minimizedAffinity>  (166) 
-8.52504

$$$$
data/reference_output_2/data/smiles/125859.pdb
     RDKit          3D

 22 24  0  0  0  0  0  0  0  0999 V2000
   70.3014   46.3584   57.6689 O   0  0  0  0  0  0  0  0  0  0  0  0
   69.4016   46.2873   56.8007 C   0  0  0  0  0  0  0  0  0  0  0  0
   68.8561   45.0019   56.5221 N   0  0  0  0  0  0  0  0  0  0  0  0
   69.3231   43.8695   57.2043 N   0  0  0  0  0  0  0  0  0  0  0  0
   68.7896   42.7001   57.0753 C   0  0  0  0  0  0  0  0  0  0  0  0
   67.6489   42.3848   56.2232 C   0  0  0  0  0  0  0  0  0  0  0  0
   67.0560   43.2342   55.5116 O   0  0  0  0  0  0  0  0  0  0  0  0
   67.4080   41.0059   56.3898 N   0  0  0  0  0  0  0  0  0  0  0  0
   68.3308   40.4216   57.3004 C   0  0  0  0  0  0  0  0  0  0  0  0
   68.4806   39.1222   57.7655 C   0  0  0  0  0  0  0  0  0  0  0  0
   69.4779   38.8096   58.6661 C   0  0  0  0  0  0  0  0  0  0  0  0
   70.3061   39.8322   59.0768 C   0  0  0  0  0  0  0  0  0  0  0  0
   70.1569   41.1317   58.6105 C   0  0  0  0  0  0  0  0  0  0  0  0
   69.1585   41.4418   57.7104 C   0  0  0  0  0  0  0  0  0  0  0  0
   68.9613   47.5256   56.1241 C   0  0  0  0  0  0  0  0  0  0  0  0
   68.7196   47.2151   54.6949 C   0  0  0  0  0  0  0  0  0  0  0  0
   69.3859   47.9178   53.6999 C   0  0  0  0  0  0  0  0  0  0  0  0
   69.1693   47.6386   52.3765 C   0  0  0  0  0  0  0  0  0  0  0  0
   68.2856   46.6522   51.9778 C   0  0  0  0  0  0  0  0  0  0  0  0
   68.0672   46.3711   50.6680 F   0  0  0  0  0  0  0  0  0  0  0  0
   67.6204   45.9493   52.9533 C   0  0  0  0  0  0  0  0  0  0  0  0
   67.8445   46.2380   54.2793 C   0  0  0  0  0  0  0  0  0  0  0  0
  1  2  2  0
  2 15  1  0
  2  3  1  0
 15 16  1  0
 16 17  2  0
 16 22  1  0
 17 18  1  0
 18 19  2  0
 19 20  1  0
 19 21  1  0
 21 22  2  0
  3  4  1  0
  4  5  2  0
  5  6  1  0
  5 14  1  0
  6  7  2  0
  6  8  1  0
  8  9  1  0
  9 10  1  0
  9 14  2  0
 10 11  2  0
 11 12  1  0
 12 13  2  0
 13 14  1  0
M  END
>  <minimizedAffinity>  (167) 
-8.52308

$$$$
data/reference_output_2/data/smiles/178796.pdb
     RDKit          3D

 20 21  0  0  0  0  0  0  0  0999 V2000
   68.7553   46.4778   54.8092 N   0  0  0  0  0  0  0  0  0  0  0  0
   67.9286   45.6601   54.1224 C   0  0  0  0  0  0  0  0  0  0  0  0
   67.7867   45.8158   52.7469 C   0  0  0  0  0  0  0  0  0  0  0  0
   66.9431   44.9873   52.0226 O   0  0  0  0  0  0  0  0  0  0  0  0
   68.4895   46.8037   52.0899 C   0  0  0  0  0  0  0  0  0  0  0  0
   68.3783   46.9674   50.8357 O   0  0  0  0  0  0  0  0  0  0  0  0
   69.3369   47.6410   52.7983 C   0  0  0  0  0  0  0  0  0  0  0  0
   69.4321   47.4339   54.1558 C   0  0  0  0  0  0  0  0  0  0  0  0
   70.0949   48.6944   52.1359 C   0  0  0  0  0  0  0  0  0  0  0  0
   71.2443   48.9520   52.5403 O   0  0  0  0  0  0  0  0  0  0  0  0
   69.5726   49.4036   51.0846 O   0  0  0  0  0  0  0  0  0  0  0  0
   68.9346   46.3528   56.2474 C   0  0  0  0  0  0  0  0  0  0  0  0
   67.0504   50.7719   57.6030 C   0  0  0  0  0  0  0  0  0  0  0  0
   68.1802   49.8039   57.5631 C   0  0  0  0  0  0  0  0  0  0  0  0
   68.0120   48.5806   56.9410 C   0  0  0  0  0  0  0  0  0  0  0  0
   69.0669   47.6735   56.9016 C   0  0  0  0  0  0  0  0  0  0  0  0
   70.2630   48.0288   57.4931 C   0  0  0  0  0  0  0  0  0  0  0  0
   70.4595   49.2425   58.1199 C   0  0  0  0  0  0  0  0  0  0  0  0
   69.3919   50.1286   58.1457 C   0  0  0  0  0  0  0  0  0  0  0  0
   69.4900   51.3413   58.7373 F   0  0  0  0  0  0  0  0  0  0  0  0
 13 14  1  0
 14 15  2  0
 14 19  1  0
 15 16  1  0
 16 12  1  0
 16 17  2  0
 12  1  1  0
  1  2  1  0
  1  8  1  0
  2  3  2  0
  3  4  1  0
  3  5  1  0
  5  6  2  0
  5  7  1  0
  7  9  1  0
  7  8  2  0
  9 10  2  0
  9 11  1  0
 17 18  1  0
 18 19  2  0
 19 20  1  0
M  END
>  <minimizedAffinity>  (168) 
-8.52207

$$$$
data/reference_output_2/data/smiles/172388.pdb
     RDKit          3D

 19 20  0  0  0  0  0  0  0  0999 V2000
   68.2620   45.5571   55.2644 C   0  0  0  0  0  0  0  0  0  0  0  0
   68.2243   44.3188   55.4903 O   0  0  0  0  0  0  0  0  0  0  0  0
   69.9973   48.7247   51.8087 C   0  0  0  0  0  0  0  0  0  0  0  0
   69.1281   47.5889   52.2146 C   0  0  0  0  0  0  0  0  0  0  0  0
   69.0966   47.1101   53.5172 C   0  0  0  0  0  0  0  0  0  0  0  0
   68.2909   46.0570   53.8922 C   0  0  0  0  0  0  0  0  0  0  0  0
   67.5042   45.4865   52.9165 C   0  0  0  0  0  0  0  0  0  0  0  0
   67.5552   45.9899   51.6099 C   0  0  0  0  0  0  0  0  0  0  0  0
   66.8349   45.4682   50.7125 O   0  0  0  0  0  0  0  0  0  0  0  0
   68.3551   47.0199   51.2802 N   0  0  0  0  0  0  0  0  0  0  0  0
   68.2736   46.3875   56.3598 O   0  0  0  0  0  0  0  0  0  0  0  0
   69.1595   47.4678   56.5433 C   0  0  2  0  0  0  0  0  0  0  0  0
   69.9863   47.1401   57.7727 C   0  0  0  0  0  0  0  0  0  0  0  0
   68.4615   48.7403   56.8332 C   0  0  0  0  0  0  0  0  0  0  0  0
   67.4405   48.8003   57.7609 C   0  0  0  0  0  0  0  0  0  0  0  0
   66.8489   50.0231   57.9660 C   0  0  0  0  0  0  0  0  0  0  0  0
   67.2509   51.1554   57.2762 C   0  0  0  0  0  0  0  0  0  0  0  0
   68.2651   51.0394   56.3704 C   0  0  0  0  0  0  0  0  0  0  0  0
   68.8514   49.8407   56.1637 N   0  0  0  0  0  0  0  0  0  0  0  0
  3  4  1  0
  4  5  2  0
  4 10  1  0
  5  6  1  0
  6  1  1  0
  6  7  2  0
  1  2  2  0
  1 11  1  0
 11 12  1  0
 12 13  1  1
 12 14  1  0
 14 15  2  0
 14 19  1  0
 15 16  1  0
 16 17  2  0
 17 18  1  0
 18 19  2  0
  7  8  1  0
  8  9  2  0
  8 10  1  0
M  END
>  <minimizedAffinity>  (169) 
-8.51918

$$$$
data/reference_output_2/data/smiles/101829.pdb
     RDKit          3D

 22 24  0  0  0  0  0  0  0  0999 V2000
   70.0360   46.0872   58.6764 O   0  0  0  0  0  0  0  0  0  0  0  0
   69.6108   46.2314   57.5050 C   0  0  0  0  0  0  0  0  0  0  0  0
   69.3754   44.9813   56.8035 N   0  0  0  0  0  0  0  0  0  0  0  0
   69.6412   43.7969   57.4911 N   0  0  0  0  0  0  0  0  0  0  0  0
   68.9898   42.7075   57.2727 C   0  0  0  0  0  0  0  0  0  0  0  0
   67.9101   42.5610   56.3038 C   0  0  0  0  0  0  0  0  0  0  0  0
   67.4827   43.4714   55.5634 O   0  0  0  0  0  0  0  0  0  0  0  0
   67.4374   41.1988   56.3546 N   0  0  0  0  0  0  0  0  0  0  0  0
   68.2061   40.5177   57.3345 C   0  0  0  0  0  0  0  0  0  0  0  0
   68.1338   39.2054   57.7480 C   0  0  0  0  0  0  0  0  0  0  0  0
   68.9823   38.7142   58.7337 C   0  0  0  0  0  0  0  0  0  0  0  0
   69.8949   39.5849   59.2784 C   0  0  0  0  0  0  0  0  0  0  0  0
   69.9754   40.9173   58.8649 C   0  0  0  0  0  0  0  0  0  0  0  0
   69.1271   41.3928   57.8862 C   0  0  0  0  0  0  0  0  0  0  0  0
   69.3615   47.5184   56.8709 C   0  0  0  0  0  0  0  0  0  0  0  0
   68.2474   47.5410   55.9170 C   0  0  0  0  0  0  0  0  0  0  0  0
   68.4941   47.3356   54.5089 C   0  0  0  0  0  0  0  0  0  0  0  0
   67.9133   46.3348   53.7931 C   0  0  0  0  0  0  0  0  0  0  0  0
   68.1894   46.1323   52.4321 C   0  0  0  0  0  0  0  0  0  0  0  0
   69.0839   46.9989   51.8331 C   0  0  0  0  0  0  0  0  0  0  0  0
   69.6908   48.0244   52.5284 C   0  0  0  0  0  0  0  0  0  0  0  0
   69.3975   48.1934   53.8656 C   0  0  0  0  0  0  0  0  0  0  0  0
  1  2  2  0
  2 15  1  0
  2  3  1  0
 15 16  1  0
 16 17  1  0
 17 18  2  0
 17 22  1  0
 18 19  1  0
 19 20  2  0
 20 21  1  0
 21 22  2  0
  3  4  1  0
  4  5  2  0
  5  6  1  0
  5 14  1  0
  6  7  2  0
  6  8  1  0
  8  9  1  0
  9 10  1  0
  9 14  2  0
 10 11  2  0
 11 12  1  0
 12 13  2  0
 13 14  1  0
M  END
>  <minimizedAffinity>  (170) 
-8.51723

$$$$
data/reference_output_2/data/smiles/190924.pdb
     RDKit          3D

 22 24  0  0  0  0  0  0  0  0999 V2000
   68.2340   44.0192   56.1630 N   0  0  0  0  0  0  0  0  0  0  0  0
   67.9918   42.6188   56.5382 C   0  0  0  0  0  0  0  0  0  0  0  0
   67.2723   41.9959   55.7226 O   0  0  0  0  0  0  0  0  0  0  0  0
   68.5847   42.1556   57.7554 C   0  0  0  0  0  0  0  0  0  0  0  0
   67.8747   42.3567   58.8256 O   0  0  0  0  0  0  0  0  0  0  0  0
   69.8475   41.5014   58.0179 C   0  0  0  0  0  0  0  0  0  0  0  0
   71.1053   42.1448   57.8778 C   0  0  0  0  0  0  0  0  0  0  0  0
   72.0959   41.2715   58.1030 N   0  0  0  0  0  0  0  0  0  0  0  0
   71.5848   40.0681   58.3918 C   0  0  0  0  0  0  0  0  0  0  0  0
   72.1270   38.8354   58.7255 C   0  0  0  0  0  0  0  0  0  0  0  0
   71.3561   37.7357   59.0140 C   0  0  0  0  0  0  0  0  0  0  0  0
   69.9971   37.8615   58.9704 C   0  0  0  0  0  0  0  0  0  0  0  0
   69.4570   39.0966   58.6360 C   0  0  0  0  0  0  0  0  0  0  0  0
   70.1962   40.2144   58.3396 C   0  0  0  0  0  0  0  0  0  0  0  0
   67.6246   44.4175   54.9514 N   0  0  0  0  0  0  0  0  0  0  0  0
   69.6808   48.9716   52.1503 C   0  0  0  0  0  0  0  0  0  0  0  0
   69.1136   47.7460   52.8287 C   0  0  0  0  0  0  0  0  0  0  0  0
   69.1726   47.6604   54.1992 C   0  0  0  0  0  0  0  0  0  0  0  0
   68.6876   46.5820   54.8910 C   0  0  0  0  0  0  0  0  0  0  0  0
   68.1154   45.5343   54.1817 C   0  0  0  0  0  0  0  0  0  0  0  0
   68.0362   45.5840   52.8040 C   0  0  0  0  0  0  0  0  0  0  0  0
   68.5423   46.7057   52.1275 C   0  0  0  0  0  0  0  0  0  0  0  0
 16 17  1  0
 17 18  2  0
 17 22  1  0
 18 19  1  0
 19 20  2  0
 20 15  1  0
 20 21  1  0
 15  1  1  0
  1  2  1  0
  2  3  2  0
  2  4  1  0
  4  5  2  0
  4  6  1  0
  6  7  2  0
  6 14  1  0
  7  8  1  0
  8  9  1  0
  9 10  1  0
  9 14  2  0
 10 11  2  0
 11 12  1  0
 12 13  2  0
 13 14  1  0
 21 22  2  0
M  END
>  <minimizedAffinity>  (171) 
-8.51684

$$$$
data/reference_output_2/data/smiles/132784.pdb
     RDKit          3D

 22 24  0  0  0  0  0  0  0  0999 V2000
   68.9627   47.1580   56.0616 C   0  0  0  0  0  0  0  0  0  0  0  0
   68.2797   46.0427   56.3416 N   0  0  0  0  0  0  0  0  0  0  0  0
   67.8836   45.4496   55.2361 N   0  0  0  0  0  0  0  0  0  0  0  0
   68.2916   46.1532   54.1426 C   0  0  0  0  0  0  0  0  0  0  0  0
   68.1588   45.9854   52.7935 C   0  0  0  0  0  0  0  0  0  0  0  0
   68.7087   46.9018   51.9392 C   0  0  0  0  0  0  0  0  0  0  0  0
   69.3995   47.9948   52.4220 C   0  0  0  0  0  0  0  0  0  0  0  0
   69.5196   48.1404   53.7875 C   0  0  0  0  0  0  0  0  0  0  0  0
   68.9791   47.2408   54.6870 C   0  0  0  0  0  0  0  0  0  0  0  0
   67.6588   49.2834   57.1642 O   0  0  0  0  0  0  0  0  0  0  0  0
   68.8952   49.1941   57.5015 C   0  0  0  0  0  0  0  0  0  0  0  0
   69.5711   48.0864   56.9325 N   0  0  0  0  0  0  0  0  0  0  0  0
   69.4492   50.2011   58.4010 C   0  0  0  0  0  0  0  0  0  0  0  0
   69.8837   51.4509   57.7237 C   0  0  0  0  0  0  0  0  0  0  0  0
   68.9736   52.2006   56.9954 C   0  0  0  0  0  0  0  0  0  0  0  0
   69.3511   53.3735   56.3412 C   0  0  0  0  0  0  0  0  0  0  0  0
   70.6679   53.7999   56.4203 C   0  0  0  0  0  0  0  0  0  0  0  0
   71.5682   53.0656   57.1350 C   0  0  0  0  0  0  0  0  0  0  0  0
   71.1807   51.8977   57.7839 C   0  0  0  0  0  0  0  0  0  0  0  0
   69.9870   48.9607   51.5594 N   0  0  0  0  0  0  0  0  0  0  0  0
   70.7432   48.5541   50.6647 O   0  0  0  0  0  0  0  0  0  0  0  0
   69.7210   50.2901   51.7171 O   0  0  0  0  0  0  0  0  0  0  0  0
 10 11  2  0
 11 13  1  0
 11 12  1  0
 13 14  1  0
 14 15  2  0
 14 19  1  0
 15 16  1  0
 16 17  2  0
 17 18  1  0
 18 19  2  0
 12  1  1  0
  1  2  2  0
  1  9  1  0
  2  3  1  0
  3  4  1  0
  4  5  1  0
  4  9  2  0
  5  6  2  0
  6  7  1  0
  7 20  1  0
  7  8  2  0
 20 21  2  0
 20 22  1  0
  8  9  1  0
M  CHG  2  20   1  22  -1
M  END
>  <minimizedAffinity>  (172) 
-8.51653

$$$$
data/200k_reference_output/data/smiles/15027.pdb
     RDKit          3D

 20 21  0  0  0  0  0  0  0  0999 V2000
   68.3917   46.5469   54.0677 C   0  0  0  0  0  0  0  0  0  0  0  0
   68.2816   46.1008   52.7402 C   0  0  0  0  0  0  0  0  0  0  0  0
   68.8594   46.8329   51.7281 C   0  0  0  0  0  0  0  0  0  0  0  0
   69.5447   47.9979   52.0013 C   0  0  0  0  0  0  0  0  0  0  0  0
   69.6694   48.4664   53.3136 C   0  0  0  0  0  0  0  0  0  0  0  0
   69.0848   47.7157   54.2954 C   0  0  0  0  0  0  0  0  0  0  0  0
   70.4070   49.6980   53.4998 C   0  0  0  0  0  0  0  0  0  0  0  0
   70.1980   50.7176   52.8033 O   0  0  0  0  0  0  0  0  0  0  0  0
   71.4089   49.8017   54.4934 N   0  0  0  0  0  0  0  0  0  0  0  0
   72.1767   51.0021   54.7259 C   0  0  0  0  0  0  0  0  0  0  0  0
   73.6513   50.7803   54.6784 C   0  0  0  0  0  0  0  0  0  0  0  0
   74.0255   50.1648   53.4874 O   0  0  0  0  0  0  0  0  0  0  0  0
   67.7916   45.7637   55.0006 O   0  0  0  0  0  0  0  0  0  0  0  0
   67.4654   41.1019   56.1590 C   0  0  0  0  0  0  0  0  0  0  0  0
   68.1017   42.4366   56.3118 C   0  0  0  0  0  0  0  0  0  0  0  0
   69.1456   42.5793   57.1982 C   0  0  0  0  0  0  0  0  0  0  0  0
   69.7249   43.8224   57.3276 C   0  0  0  0  0  0  0  0  0  0  0  0
   69.2516   44.8333   56.5914 N   0  0  0  0  0  0  0  0  0  0  0  0
   68.2443   44.7202   55.7284 C   0  0  0  0  0  0  0  0  0  0  0  0
   67.6845   43.5031   55.6076 N   0  0  0  0  0  0  0  0  0  0  0  0
 14 15  1  0
 15 16  2  0
 15 20  1  0
 16 17  1  0
 17 18  2  0
 18 19  1  0
 19 13  1  0
 19 20  2  0
 13  1  1  0
  1  2  2  0
  1  6  1  0
  2  3  1  0
  3  4  2  0
  4  5  1  0
  5  7  1  0
  5  6  2  0
  7  8  2  0
  7  9  1  0
  9 10  1  0
 10 11  1  0
 11 12  1  0
M  END
>  <minimizedAffinity>  (173) 
-8.51583

$$$$
data/200k_reference_output/data/smiles/10203.pdb
     RDKit          3D

 17 18  0  0  0  0  0  0  0  0999 V2000
   68.4509   46.4709   55.3699 C   0  0  0  0  0  0  0  0  0  0  0  0
   70.3646   48.6439   51.4051 N   0  0  0  0  0  0  0  0  0  0  0  0
   69.4055   47.7258   51.9692 C   0  0  0  0  0  0  0  0  0  0  0  0
   69.3551   47.5216   53.2981 N   0  0  0  0  0  0  0  0  0  0  0  0
   68.4896   46.6835   53.8931 C   0  0  0  0  0  0  0  0  0  0  0  0
   67.6188   46.0121   53.0456 C   0  0  0  0  0  0  0  0  0  0  0  0
   67.6716   46.2230   51.6866 C   0  0  0  0  0  0  0  0  0  0  0  0
   66.8865   45.6189   50.9172 O   0  0  0  0  0  0  0  0  0  0  0  0
   68.5563   47.0722   51.1429 N   0  0  0  0  0  0  0  0  0  0  0  0
   69.3653   47.5106   55.9801 C   0  0  0  0  0  0  0  0  0  0  0  0
   68.6517   48.6658   56.5131 C   0  0  0  0  0  0  0  0  0  0  0  0
   67.5623   48.5483   57.3475 C   0  0  0  0  0  0  0  0  0  0  0  0
   66.9079   49.6863   57.8359 C   0  0  0  0  0  0  0  0  0  0  0  0
   67.3552   50.9477   57.4799 C   0  0  0  0  0  0  0  0  0  0  0  0
   68.4475   51.0742   56.6442 C   0  0  0  0  0  0  0  0  0  0  0  0
   69.0363   52.8325   56.1757 Br  0  0  0  0  0  0  0  0  0  0  0  0
   69.0615   49.9380   56.1866 C   0  0  0  0  0  0  0  0  0  0  0  0
  2  3  1  0
  3  4  2  0
  3  9  1  0
  4  5  1  0
  5  1  1  0
  5  6  2  0
  1 10  1  0
 10 11  1  0
 11 12  2  0
 11 17  1  0
 12 13  1  0
 13 14  2  0
 14 15  1  0
 15 16  1  0
 15 17  2  0
  6  7  1  0
  7  8  2  0
  7  9  1  0
M  END
>  <minimizedAffinity>  (174) 
-8.51562

$$$$
data/200k_reference_output/data/smiles/33720.pdb
     RDKit          3D

 22 24  0  0  0  0  0  0  0  0999 V2000
   68.8649   48.4382   56.1707 C   0  0  0  0  0  0  0  0  0  0  0  0
   69.2805   48.4844   54.7598 C   0  0  0  0  0  0  0  0  0  0  0  0
   70.1512   49.4152   54.3543 N   0  0  0  0  0  0  0  0  0  0  0  0
   70.5729   49.5248   53.1043 N   0  0  0  0  0  0  0  0  0  0  0  0
   70.1173   48.6638   52.1668 C   0  0  0  0  0  0  0  0  0  0  0  0
   70.5336   48.7884   50.9875 O   0  0  0  0  0  0  0  0  0  0  0  0
   69.2209   47.6701   52.4829 C   0  0  0  0  0  0  0  0  0  0  0  0
   68.7661   46.8002   51.5257 C   0  0  0  0  0  0  0  0  0  0  0  0
   67.8704   45.8249   51.8998 C   0  0  0  0  0  0  0  0  0  0  0  0
   67.4261   45.7077   53.2123 C   0  0  0  0  0  0  0  0  0  0  0  0
   67.9197   46.6153   54.1352 C   0  0  0  0  0  0  0  0  0  0  0  0
   68.8092   47.6031   53.8207 C   0  0  0  0  0  0  0  0  0  0  0  0
   70.9062   48.3151   57.3144 O   0  0  0  0  0  0  0  0  0  0  0  0
   69.8556   47.7190   57.0003 C   0  0  0  0  0  0  0  0  0  0  0  0
   69.6606   46.3951   57.4475 N   0  0  0  0  0  0  0  0  0  0  0  0
   70.6828   45.7667   58.2519 C   0  0  0  0  0  0  0  0  0  0  0  0
   70.5277   44.3026   58.1220 C   0  0  0  0  0  0  0  0  0  0  0  0
   71.6906   43.5384   58.0225 C   0  0  0  0  0  0  0  0  0  0  0  0
   71.6277   42.1639   57.8932 C   0  0  0  0  0  0  0  0  0  0  0  0
   70.3910   41.5655   57.8664 C   0  0  0  0  0  0  0  0  0  0  0  0
   69.2442   42.3263   57.9654 C   0  0  0  0  0  0  0  0  0  0  0  0
   69.3611   43.6591   58.0889 N   0  0  0  0  0  0  0  0  0  0  0  0
 13 14  2  0
 14  1  1  0
 14 15  1  0
  1  2  1  0
  2  3  2  0
  2 12  1  0
  3  4  1  0
  4  5  1  0
  5  6  2  0
  5  7  1  0
  7  8  1  0
  7 12  2  0
  8  9  2  0
  9 10  1  0
 10 11  2  0
 11 12  1  0
 15 16  1  0
 16 17  1  0
 17 18  2  0
 17 22  1  0
 18 19  1  0
 19 20  2  0
 20 21  1  0
 21 22  2  0
M  END
>  <minimizedAffinity>  (175) 
-8.51486

$$$$
data/200k_reference_output/data/smiles/30154.pdb
     RDKit          3D

 21 22  0  0  0  0  0  0  0  0999 V2000
   68.2302   45.2846   55.1505 C   0  0  0  0  0  0  0  0  0  0  0  0
   68.4883   45.7477   56.3137 O   0  0  0  0  0  0  0  0  0  0  0  0
   67.7529   43.9464   55.1570 N   0  0  0  0  0  0  0  0  0  0  0  0
   69.3544   47.9942   52.7858 C   0  0  0  0  0  0  0  0  0  0  0  0
   68.7479   47.5744   51.6341 C   0  0  0  0  0  0  0  0  0  0  0  0
   67.9801   46.4185   51.6318 C   0  0  0  0  0  0  0  0  0  0  0  0
   67.8227   45.6833   52.7902 C   0  0  0  0  0  0  0  0  0  0  0  0
   68.4196   46.0820   53.9579 C   0  0  0  0  0  0  0  0  0  0  0  0
   69.1712   47.2228   53.9429 C   0  0  0  0  0  0  0  0  0  0  0  0
   71.4326   49.0680   52.9052 O   0  0  0  0  0  0  0  0  0  0  0  0
   70.1677   49.2015   52.8304 C   0  0  0  0  0  0  0  0  0  0  0  0
   69.6313   50.5074   52.7964 N   0  0  0  0  0  0  0  0  0  0  0  0
   70.4368   51.6085   52.8404 O   0  0  0  0  0  0  0  0  0  0  0  0
   67.5725   43.1855   56.2933 N   0  0  0  0  0  0  0  0  0  0  0  0
   67.6474   41.9268   56.3874 C   0  0  0  0  0  0  0  0  0  0  0  0
   67.4487   41.1650   57.6156 C   0  0  0  0  0  0  0  0  0  0  0  0
   66.6516   41.6202   58.6443 C   0  0  0  0  0  0  0  0  0  0  0  0
   66.4384   40.9309   59.8194 C   0  0  0  0  0  0  0  0  0  0  0  0
   67.0586   39.7092   59.9875 C   0  0  0  0  0  0  0  0  0  0  0  0
   67.8663   39.2217   58.9752 C   0  0  0  0  0  0  0  0  0  0  0  0
   68.0648   39.9291   57.8077 C   0  0  0  0  0  0  0  0  0  0  0  0
 10 11  2  0
 11 12  1  0
 11  4  1  0
 12 13  1  0
  4  5  2  0
  4  9  1  0
  5  6  1  0
  6  7  2  0
  7  8  1  0
  8  1  1  0
  8  9  2  0
  1  2  2  0
  1  3  1  0
  3 14  1  0
 14 15  2  0
 15 16  1  0
 16 17  2  0
 16 21  1  0
 17 18  1  0
 18 19  2  0
 19 20  1  0
 20 21  2  0
M  END
>  <minimizedAffinity>  (176) 
-8.51447

$$$$
data/200k_reference_output/data/smiles/23815.pdb
     RDKit          3D

 22 25  0  0  0  0  0  0  0  0999 V2000
   66.2453   41.9784   55.0404 O   0  0  0  0  0  0  0  0  0  0  0  0
   67.1841   42.6441   55.5503 C   0  0  0  0  0  0  0  0  0  0  0  0
   67.3815   43.9355   55.1567 N   0  0  0  0  0  0  0  0  0  0  0  0
   68.3692   44.6657   55.6808 C   0  0  0  0  0  0  0  0  0  0  0  0
   69.1518   44.0639   56.6077 N   0  0  0  0  0  0  0  0  0  0  0  0
   69.0095   42.8106   57.0299 C   0  0  0  0  0  0  0  0  0  0  0  0
   69.8389   42.2358   57.9847 C   0  0  0  0  0  0  0  0  0  0  0  0
   69.6793   40.9379   58.4130 C   0  0  0  0  0  0  0  0  0  0  0  0
   68.6559   40.1959   57.8651 C   0  0  0  0  0  0  0  0  0  0  0  0
   67.8176   40.7504   56.9112 C   0  0  0  0  0  0  0  0  0  0  0  0
   67.9977   42.0593   56.4961 C   0  0  0  0  0  0  0  0  0  0  0  0
   68.6196   46.0581   55.2884 C   0  0  0  0  0  0  0  0  0  0  0  0
   68.5486   47.0933   56.1835 C   0  0  0  0  0  0  0  0  0  0  0  0
   68.7977   48.4032   55.7539 C   0  0  0  0  0  0  0  0  0  0  0  0
   69.1122   48.6631   54.4504 C   0  0  0  0  0  0  0  0  0  0  0  0
   69.3615   49.9369   53.9981 C   0  0  0  0  0  0  0  0  0  0  0  0
   69.6777   50.1805   52.6780 C   0  0  0  0  0  0  0  0  0  0  0  0
   69.7469   49.1462   51.7954 C   0  0  0  0  0  0  0  0  0  0  0  0
   69.4962   47.8701   52.2492 C   0  0  0  0  0  0  0  0  0  0  0  0
   69.5561   46.7883   51.3790 O   0  0  0  0  0  0  0  0  0  0  0  0
   69.1774   47.6070   53.5714 C   0  0  0  0  0  0  0  0  0  0  0  0
   68.9353   46.3660   54.0051 N   0  0  0  0  0  0  0  0  0  0  0  0
  1  2  2  0
  2  3  1  0
  2 11  1  0
  3  4  1  0
  4 12  1  0
  4  5  2  0
 12 13  2  0
 12 22  1  0
 13 14  1  0
 14 15  2  0
 15 16  1  0
 15 21  1  0
 16 17  2  0
 17 18  1  0
 18 19  2  0
 19 20  1  0
 19 21  1  0
 21 22  2  0
  5  6  1  0
  6  7  1  0
  6 11  2  0
  7  8  2  0
  8  9  1  0
  9 10  2  0
 10 11  1  0
M  END
>  <minimizedAffinity>  (177) 
-8.51432

$$$$
data/200k_reference_output/data/smiles/38027.pdb
     RDKit          3D

 21 23  0  0  0  0  0  0  0  0999 V2000
   70.5255   49.8854   53.3902 C   0  0  0  0  0  0  0  0  0  0  0  0
   71.8019   49.8389   53.7631 N   0  0  0  0  0  0  0  0  0  0  0  0
   72.3431   50.7193   54.6488 C   0  0  0  0  0  0  0  0  0  0  0  0
   73.5561   50.6123   54.9509 O   0  0  0  0  0  0  0  0  0  0  0  0
   71.5854   51.7068   55.2033 C   0  0  0  0  0  0  0  0  0  0  0  0
   72.1180   52.6228   56.1146 C   0  0  0  0  0  0  0  0  0  0  0  0
   71.3685   53.6261   56.6856 C   0  0  0  0  0  0  0  0  0  0  0  0
   70.0283   53.7191   56.3308 C   0  0  0  0  0  0  0  0  0  0  0  0
   69.5171   52.8108   55.4326 C   0  0  0  0  0  0  0  0  0  0  0  0
   70.2628   51.7997   54.8552 C   0  0  0  0  0  0  0  0  0  0  0  0
   69.7521   50.9045   53.9663 C   0  0  0  0  0  0  0  0  0  0  0  0
   68.4179   50.9761   53.5962 O   0  0  0  0  0  0  0  0  0  0  0  0
   69.9207   48.9378   52.4822 C   0  0  0  0  0  0  0  0  0  0  0  0
   70.0496   49.1177   51.2168 O   0  0  0  0  0  0  0  0  0  0  0  0
   68.1136   45.7010   55.7749 N   0  0  0  0  0  0  0  0  0  0  0  0
   68.2653   46.1362   54.4354 C   0  0  0  0  0  0  0  0  0  0  0  0
   67.7031   45.4111   53.4106 C   0  0  0  0  0  0  0  0  0  0  0  0
   67.8592   45.8466   52.1153 C   0  0  0  0  0  0  0  0  0  0  0  0
   68.5642   46.9872   51.8383 C   0  0  0  0  0  0  0  0  0  0  0  0
   69.1589   47.7656   52.8471 C   0  0  0  0  0  0  0  0  0  0  0  0
   68.9796   47.2944   54.1250 C   0  0  0  0  0  0  0  0  0  0  0  0
 15 16  1  0
 16 17  2  0
 16 21  1  0
 17 18  1  0
 18 19  2  0
 19 20  1  0
 20 13  1  0
 20 21  2  0
 13 14  2  0
 13  1  1  0
  1  2  1  0
  1 11  2  0
  2  3  1  0
  3  4  2  0
  3  5  1  0
  5  6  2  0
  5 10  1  0
  6  7  1  0
  7  8  2  0
  8  9  1  0
  9 10  2  0
 10 11  1  0
 11 12  1  0
M  END
>  <minimizedAffinity>  (178) 
-8.51340

$$$$
data/reference_output_2/data/smiles/88907.pdb
     RDKit          3D

 22 24  0  0  0  0  0  0  0  0999 V2000
   69.2779   47.3133   56.2159 C   0  0  0  0  0  0  0  0  0  0  0  0
   69.1651   46.0377   56.0739 O   0  0  0  0  0  0  0  0  0  0  0  0
   69.0085   48.1002   55.0959 N   0  0  0  0  0  0  0  0  0  0  0  0
   69.1167   49.5187   55.1532 C   0  0  0  0  0  0  0  0  0  0  0  0
   68.5856   49.9841   56.3292 C   0  0  0  0  0  0  0  0  0  0  0  0
   68.6390   51.3331   56.5820 C   0  0  0  0  0  0  0  0  0  0  0  0
   69.2070   52.2152   55.6867 C   0  0  0  0  0  0  0  0  0  0  0  0
   69.7386   51.7456   54.5027 C   0  0  0  0  0  0  0  0  0  0  0  0
   69.6915   50.3937   54.2362 C   0  0  0  0  0  0  0  0  0  0  0  0
   70.2508   50.0265   52.9587 N   0  0  0  0  0  0  0  0  0  0  0  0
   69.9616   48.8728   52.1624 C   0  0  0  0  0  0  0  0  0  0  0  0
   70.4720   48.8041   51.0216 O   0  0  0  0  0  0  0  0  0  0  0  0
   69.1130   47.7558   52.5731 C   0  0  0  0  0  0  0  0  0  0  0  0
   68.7081   46.9627   51.4976 C   0  0  0  0  0  0  0  0  0  0  0  0
   67.8875   45.8745   51.7022 C   0  0  0  0  0  0  0  0  0  0  0  0
   67.4806   45.5936   52.9861 C   0  0  0  0  0  0  0  0  0  0  0  0
   67.8565   46.3513   54.0739 C   0  0  0  0  0  0  0  0  0  0  0  0
   68.6722   47.4249   53.8541 C   0  0  0  0  0  0  0  0  0  0  0  0
   69.6881   47.6931   57.5768 C   0  0  0  0  0  0  0  0  0  0  0  0
   70.6947   46.6652   58.1373 C   0  0  0  0  0  0  0  0  0  0  0  0
   70.6732   44.4249   58.8287 C   0  0  0  0  0  0  0  0  0  0  0  0
   69.9933   45.6887   58.9108 N   0  0  0  0  0  0  0  0  0  0  0  0
 21 22  1  0
 22 20  1  0
 20 19  1  0
 19  1  1  0
  1  2  2  0
  1  3  1  0
  3  4  1  0
  3 18  1  0
  4  5  2  0
  4  9  1  0
  5  6  1  0
  6  7  2  0
  7  8  1  0
  8  9  2  0
  9 10  1  0
 10 11  1  0
 11 12  2  0
 11 13  1  0
 13 14  2  0
 13 18  1  0
 14 15  1  0
 15 16  2  0
 16 17  1  0
 17 18  2  0
M  CHG  1  22   1
M  END
>  <minimizedAffinity>  (179) 
-8.51300

$$$$
data/200k_reference_output/data/smiles/3712.pdb
     RDKit          3D

 19 20  0  0  0  0  0  0  0  0999 V2000
   69.3236   47.6001   52.8273 C   0  0  0  0  0  0  0  0  0  0  0  0
   69.2508   47.4862   54.2172 C   0  0  0  0  0  0  0  0  0  0  0  0
   68.4669   46.5623   54.8429 C   0  0  0  0  0  0  0  0  0  0  0  0
   67.7195   45.7101   54.0673 C   0  0  0  0  0  0  0  0  0  0  0  0
   67.7768   45.8042   52.6732 C   0  0  0  0  0  0  0  0  0  0  0  0
   68.5765   46.7470   52.0504 C   0  0  0  0  0  0  0  0  0  0  0  0
   68.6068   46.8049   50.6819 F   0  0  0  0  0  0  0  0  0  0  0  0
   71.2739   48.9942   52.7262 O   0  0  0  0  0  0  0  0  0  0  0  0
   70.1409   48.6458   52.2613 C   0  0  0  0  0  0  0  0  0  0  0  0
   69.7686   49.4026   51.1241 O   0  0  0  0  0  0  0  0  0  0  0  0
   68.3863   46.4478   56.2654 N   0  0  0  0  0  0  0  0  0  0  0  0
   68.9372   47.4561   57.0920 C   0  0  0  0  0  0  0  0  0  0  0  0
   70.2923   47.1505   57.9313 S   0  0  0  0  0  0  0  0  0  0  0  0
   68.3079   48.7664   57.2259 C   0  0  0  0  0  0  0  0  0  0  0  0
   67.0703   48.9816   57.7826 C   0  0  0  0  0  0  0  0  0  0  0  0
   66.5380   50.2739   57.8693 C   0  0  0  0  0  0  0  0  0  0  0  0
   67.2641   51.3228   57.3925 C   0  0  0  0  0  0  0  0  0  0  0  0
   68.5079   51.1080   56.8331 C   0  0  0  0  0  0  0  0  0  0  0  0
   68.9623   49.8665   56.7762 N   0  0  0  0  0  0  0  0  0  0  0  0
  8  9  2  0
  9 10  1  0
  9  1  1  0
  1  2  2  0
  1  6  1  0
  2  3  1  0
  3 11  1  0
  3  4  2  0
 11 12  1  0
 12 13  2  0
 12 14  1  0
 14 15  2  0
 14 19  1  0
 15 16  1  0
 16 17  2  0
 17 18  1  0
 18 19  2  0
  4  5  1  0
  5  6  2  0
  6  7  1  0
M  END
>  <minimizedAffinity>  (180) 
-8.51281

$$$$
data/200k_reference_output/data/smiles/74107.pdb
     RDKit          3D

 20 21  0  0  0  0  0  0  0  0999 V2000
   68.6181   45.9628   55.1200 N   0  0  0  0  0  0  0  0  0  0  0  0
   68.5676   46.4350   53.7909 C   0  0  0  0  0  0  0  0  0  0  0  0
   69.2739   47.5122   53.3318 C   0  0  0  0  0  0  0  0  0  0  0  0
   70.0508   48.2714   54.1052 F   0  0  0  0  0  0  0  0  0  0  0  0
   69.1947   47.8984   51.9903 C   0  0  0  0  0  0  0  0  0  0  0  0
   69.8946   48.9647   51.5293 F   0  0  0  0  0  0  0  0  0  0  0  0
   68.4295   47.2316   51.1209 N   0  0  0  0  0  0  0  0  0  0  0  0
   67.7205   46.1715   51.5265 C   0  0  0  0  0  0  0  0  0  0  0  0
   66.9561   45.5254   50.6040 F   0  0  0  0  0  0  0  0  0  0  0  0
   67.7859   45.7783   52.8391 C   0  0  0  0  0  0  0  0  0  0  0  0
   67.0530   44.7055   53.2104 F   0  0  0  0  0  0  0  0  0  0  0  0
   68.1056   46.5240   56.2597 N   0  0  0  0  0  0  0  0  0  0  0  0
   69.9454   47.2792   57.5326 C   0  0  0  0  0  0  0  0  0  0  0  0
   68.7723   47.5554   56.9606 C   0  0  0  0  0  0  0  0  0  0  0  0
   68.2097   48.8848   57.0860 C   0  0  0  0  0  0  0  0  0  0  0  0
   67.0137   49.0550   57.7300 C   0  0  0  0  0  0  0  0  0  0  0  0
   66.4518   50.3183   57.9056 C   0  0  0  0  0  0  0  0  0  0  0  0
   67.0800   51.4018   57.4403 N   0  0  0  0  0  0  0  0  0  0  0  0
   68.2493   51.3033   56.8025 C   0  0  0  0  0  0  0  0  0  0  0  0
   68.8216   50.0405   56.6213 C   0  0  0  0  0  0  0  0  0  0  0  0
 13 14  2  0
 14 12  1  0
 14 15  1  0
 12  1  1  0
  1  2  1  0
  2  3  2  0
  2 10  1  0
  3  4  1  0
  3  5  1  0
  5  6  1  0
  5  7  2  0
  7  8  1  0
  8  9  1  0
  8 10  2  0
 10 11  1  0
 15 16  2  0
 15 20  1  0
 16 17  1  0
 17 18  2  0
 18 19  1  0
 19 20  2  0
M  END
>  <minimizedAffinity>  (181) 
-8.51146

$$$$
data/reference_output_2/data/smiles/99257.pdb
     RDKit          3D

 21 22  0  0  0  0  0  0  0  0999 V2000
   68.7254   45.1647   56.2349 N   0  0  0  0  0  0  0  0  0  0  0  0
   68.4783   43.8634   56.2991 C   0  0  0  0  0  0  0  0  0  0  0  0
   69.4048   42.9956   56.9961 C   0  0  0  0  0  0  0  0  0  0  0  0
   70.6861   43.4778   57.3035 C   0  0  0  0  0  0  0  0  0  0  0  0
   71.6098   42.6987   57.9648 C   0  0  0  0  0  0  0  0  0  0  0  0
   71.2989   41.4171   58.3433 C   0  0  0  0  0  0  0  0  0  0  0  0
   70.0489   40.9325   58.0474 C   0  0  0  0  0  0  0  0  0  0  0  0
   69.0924   41.7253   57.3689 C   0  0  0  0  0  0  0  0  0  0  0  0
   67.8057   41.1530   57.0927 C   0  0  0  0  0  0  0  0  0  0  0  0
   67.7370   40.3255   56.1025 O   0  0  0  0  0  0  0  0  0  0  0  0
   66.6180   41.3498   57.7276 O   0  0  0  0  0  0  0  0  0  0  0  0
   67.8617   46.0046   55.5803 O   0  0  0  0  0  0  0  0  0  0  0  0
   69.2742   47.6114   52.5540 C   0  0  0  0  0  0  0  0  0  0  0  0
   68.6502   46.8492   51.5915 C   0  0  0  0  0  0  0  0  0  0  0  0
   67.7760   45.8197   51.9291 C   0  0  0  0  0  0  0  0  0  0  0  0
   67.5478   45.5789   53.2781 C   0  0  0  0  0  0  0  0  0  0  0  0
   68.1555   46.3237   54.2654 C   0  0  0  0  0  0  0  0  0  0  0  0
   69.0111   47.3296   53.8739 C   0  0  0  0  0  0  0  0  0  0  0  0
   71.1784   48.9291   52.9174 O   0  0  0  0  0  0  0  0  0  0  0  0
   70.1868   48.6855   52.1891 C   0  0  0  0  0  0  0  0  0  0  0  0
   69.9801   49.4440   51.0541 O   0  0  0  0  0  0  0  0  0  0  0  0
 19 20  2  0
 20 21  1  0
 20 13  1  0
 13 14  2  0
 13 18  1  0
 14 15  1  0
 15 16  2  0
 16 17  1  0
 17 12  1  0
 17 18  2  0
 12  1  1  0
  1  2  2  0
  2  3  1  0
  3  4  2  0
  3  8  1  0
  4  5  1  0
  5  6  2  0
  6  7  1  0
  7  8  2  0
  8  9  1  0
  9 10  2  0
  9 11  1  0
M  END
>  <minimizedAffinity>  (182) 
-8.51143

$$$$
data/reference_output_2/data/smiles/135455.pdb
     RDKit          3D

 19 20  0  0  0  0  0  0  0  0999 V2000
   70.4222   46.1960   57.6492 C   0  0  0  0  0  0  0  0  0  0  0  0
   70.4869   44.8222   57.7022 C   0  0  0  0  0  0  0  0  0  0  0  0
   69.6413   44.0943   56.8902 C   0  0  0  0  0  0  0  0  0  0  0  0
   68.7350   44.7104   56.0263 C   0  0  0  0  0  0  0  0  0  0  0  0
   68.6756   46.0970   55.9774 C   0  0  0  0  0  0  0  0  0  0  0  0
   69.5252   46.8098   56.7936 C   0  0  0  0  0  0  0  0  0  0  0  0
   71.3127   47.0148   58.5034 C   0  0  0  0  0  0  0  0  0  0  0  0
   72.5975   47.6284   61.6547 N   0  0  0  0  0  0  0  0  0  0  0  0
   71.8626   47.2782   60.7139 N   0  0  0  0  0  0  0  0  0  0  0  0
   71.3568   46.5261   59.8619 N   0  0  0  0  0  0  0  0  0  0  0  0
   67.7504   46.7034   55.0866 N   0  0  0  0  0  0  0  0  0  0  0  0
   67.9849   46.6477   53.6974 C   0  0  0  0  0  0  0  0  0  0  0  0
   69.0421   47.2822   53.0842 C   0  0  0  0  0  0  0  0  0  0  0  0
   69.2576   47.2136   51.7256 C   0  0  0  0  0  0  0  0  0  0  0  0
   70.2209   47.7944   51.1821 O   0  0  0  0  0  0  0  0  0  0  0  0
   68.4107   46.5040   50.9751 N   0  0  0  0  0  0  0  0  0  0  0  0
   67.3675   45.8732   51.5611 C   0  0  0  0  0  0  0  0  0  0  0  0
   66.5856   45.2112   50.8248 O   0  0  0  0  0  0  0  0  0  0  0  0
   67.1632   45.9490   52.9015 N   0  0  0  0  0  0  0  0  0  0  0  0
  8  9  2  0
  9 10  2  0
 10  7  1  0
  7  1  1  0
  1  2  2  0
  1  6  1  0
  2  3  1  0
  3  4  2  0
  4  5  1  0
  5 11  1  0
  5  6  2  0
 11 12  1  0
 12 13  2  0
 12 19  1  0
 13 14  1  0
 14 15  2  0
 14 16  1  0
 16 17  1  0
 17 18  2  0
 17 19  1  0
M  CHG  2   8  -1   9   1
M  END
>  <minimizedAffinity>  (183) 
-8.51033

$$$$
data/reference_output_2/data/smiles/174559.pdb
     RDKit          3D

 19 21  0  0  0  0  0  0  0  0999 V2000
   68.1175   45.9806   55.7461 N   0  0  0  0  0  0  0  0  0  0  0  0
   68.8257   44.9604   56.4259 C   0  0  0  0  0  0  0  0  0  0  0  0
   69.9222   45.1704   57.1453 N   0  0  0  0  0  0  0  0  0  0  0  0
   70.6169   44.1913   57.7818 C   0  0  0  0  0  0  0  0  0  0  0  0
   70.1438   42.9416   57.6594 N   0  0  0  0  0  0  0  0  0  0  0  0
   69.0462   42.6171   56.9565 C   0  0  0  0  0  0  0  0  0  0  0  0
   68.4076   41.4552   56.7003 N   0  0  0  0  0  0  0  0  0  0  0  0
   67.3638   41.7848   55.9241 C   0  0  0  0  0  0  0  0  0  0  0  0
   67.3411   43.1044   55.6980 N   0  0  0  0  0  0  0  0  0  0  0  0
   68.3783   43.6467   56.3307 C   0  0  0  0  0  0  0  0  0  0  0  0
   69.2907   47.6031   52.5990 C   0  0  0  0  0  0  0  0  0  0  0  0
   68.6239   46.8630   51.6341 C   0  0  0  0  0  0  0  0  0  0  0  0
   67.7959   45.8446   52.0372 C   0  0  0  0  0  0  0  0  0  0  0  0
   67.6273   45.5601   53.3689 C   0  0  0  0  0  0  0  0  0  0  0  0
   68.2790   46.2808   54.3691 C   0  0  0  0  0  0  0  0  0  0  0  0
   69.1096   47.3030   53.9301 C   0  0  0  0  0  0  0  0  0  0  0  0
   71.1848   49.0120   52.8744 O   0  0  0  0  0  0  0  0  0  0  0  0
   70.1745   48.6932   52.1734 C   0  0  0  0  0  0  0  0  0  0  0  0
   69.9610   49.4155   51.0132 O   0  0  0  0  0  0  0  0  0  0  0  0
 17 18  2  0
 18 19  1  0
 18 11  1  0
 11 12  2  0
 11 16  1  0
 12 13  1  0
 13 14  2  0
 14 15  1  0
 15  1  1  0
 15 16  2  0
  1  2  1  0
  2  3  2  0
  2 10  1  0
  3  4  1  0
  4  5  2  0
  5  6  1  0
  6  7  1  0
  6 10  2  0
  7  8  1  0
  8  9  2  0
  9 10  1  0
M  CHG  1   9   1
M  END
>  <minimizedAffinity>  (184) 
-8.50954

$$$$
data/200k_reference_output/data/smiles/29037.pdb
     RDKit          3D

 21 23  0  0  0  0  0  0  0  0999 V2000
   68.3495   45.5585   55.4311 C   0  0  0  0  0  0  0  0  0  0  0  0
   68.6042   46.0713   56.5799 N   0  0  0  0  0  0  0  0  0  0  0  0
   69.0971   47.3948   56.3891 C   0  0  0  0  0  0  0  0  0  0  0  0
   69.4589   48.2249   57.2724 O   0  0  0  0  0  0  0  0  0  0  0  0
   69.1277   47.6708   54.9524 C   0  0  0  0  0  0  0  0  0  0  0  0
   69.5010   48.7558   54.1684 C   0  0  0  0  0  0  0  0  0  0  0  0
   69.4186   48.7265   52.7938 C   0  0  0  0  0  0  0  0  0  0  0  0
   68.9477   47.5682   52.2155 C   0  0  0  0  0  0  0  0  0  0  0  0
   68.5689   46.4667   52.9846 C   0  0  0  0  0  0  0  0  0  0  0  0
   68.6597   46.5208   54.3576 C   0  0  0  0  0  0  0  0  0  0  0  0
   69.8077   49.8541   52.0235 N   0  0  0  0  0  0  0  0  0  0  0  0
   69.8010   49.8034   50.7848 O   0  0  0  0  0  0  0  0  0  0  0  0
   70.1986   51.0263   52.6197 O   0  0  0  0  0  0  0  0  0  0  0  0
   67.8406   44.2449   55.2466 N   0  0  0  0  0  0  0  0  0  0  0  0
   69.0333   39.6938   58.4432 C   0  0  0  0  0  0  0  0  0  0  0  0
   68.7281   40.8743   57.6148 C   0  0  0  0  0  0  0  0  0  0  0  0
   67.6478   40.8780   56.7432 C   0  0  0  0  0  0  0  0  0  0  0  0
   67.3899   42.0043   55.9814 C   0  0  0  0  0  0  0  0  0  0  0  0
   68.1789   43.1349   56.0605 C   0  0  0  0  0  0  0  0  0  0  0  0
   69.2372   43.0940   56.9323 C   0  0  0  0  0  0  0  0  0  0  0  0
   69.5296   41.9820   57.7145 C   0  0  0  0  0  0  0  0  0  0  0  0
 15 16  1  0
 16 17  2  0
 16 21  1  0
 17 18  1  0
 18 19  2  0
 19 14  1  0
 19 20  1  0
 14  1  1  0
  1  2  2  0
  1 10  1  0
  2  3  1  0
  3  4  2  0
  3  5  1  0
  5  6  1  0
  5 10  2  0
  6  7  2  0
  7 11  1  0
  7  8  1  0
 11 12  2  0
 11 13  1  0
  8  9  2  0
  9 10  1  0
 20 21  2  0
M  CHG  3   2   1  11   1  13  -1
M  END
>  <minimizedAffinity>  (185) 
-8.50865

$$$$
data/200k_reference_output/data/smiles/19758.pdb
     RDKit          3D

 21 22  0  0  0  0  0  0  0  0999 V2000
   68.1594   46.1546   55.8030 N   0  0  0  0  0  0  0  0  0  0  0  0
   69.6963   43.1797   57.3778 C   0  0  0  0  0  0  0  0  0  0  0  0
   70.5562   43.7808   58.2450 C   0  0  0  0  0  0  0  0  0  0  0  0
   70.6189   45.1686   58.2966 C   0  0  0  0  0  0  0  0  0  0  0  0
   69.8259   45.8815   57.4876 N   0  0  0  0  0  0  0  0  0  0  0  0
   68.9566   45.2971   56.6107 C   0  0  0  0  0  0  0  0  0  0  0  0
   68.9311   43.9706   56.5972 N   0  0  0  0  0  0  0  0  0  0  0  0
   69.6041   41.7572   57.2963 N   0  0  0  0  0  0  0  0  0  0  0  0
   68.4042   41.0240   57.5368 C   0  0  0  0  0  0  0  0  0  0  0  0
   67.6615   40.2214   55.3744 O   0  0  0  0  0  0  0  0  0  0  0  0
   67.4849   41.1948   56.3486 C   0  0  0  0  0  0  0  0  0  0  0  0
   68.3422   46.4355   54.4576 C   0  0  0  0  0  0  0  0  0  0  0  0
   67.6894   45.6595   53.5001 C   0  0  0  0  0  0  0  0  0  0  0  0
   67.7793   45.8631   52.1577 C   0  0  0  0  0  0  0  0  0  0  0  0
   68.5715   46.9079   51.7219 C   0  0  0  0  0  0  0  0  0  0  0  0
   69.2438   47.7134   52.6124 C   0  0  0  0  0  0  0  0  0  0  0  0
   69.1089   47.4510   53.9857 C   0  0  0  0  0  0  0  0  0  0  0  0
   70.0708   48.8147   52.1130 C   0  0  0  0  0  0  0  0  0  0  0  0
   70.6774   48.4607   50.9221 F   0  0  0  0  0  0  0  0  0  0  0  0
   71.0312   49.1315   53.0502 F   0  0  0  0  0  0  0  0  0  0  0  0
   69.3399   49.9590   51.8800 F   0  0  0  0  0  0  0  0  0  0  0  0
 10 11  1  0
 11  9  1  0
  9  8  1  0
  8  2  1  0
  2  3  2  0
  2  7  1  0
  3  4  1  0
  4  5  2  0
  5  6  1  0
  6  1  1  0
  6  7  2  0
  1 12  1  0
 12 13  2  0
 12 17  1  0
 13 14  1  0
 14 15  2  0
 15 16  1  0
 16 18  1  0
 16 17  2  0
 18 19  1  0
 18 20  1  0
 18 21  1  0
M  END
>  <minimizedAffinity>  (186) 
-8.50686

$$$$
data/200k_reference_output/data/smiles/13399.pdb
     RDKit          3D

 20 21  0  0  0  0  0  0  0  0999 V2000
   69.9585   49.1881   52.3980 S   0  0  0  0  0  0  0  0  0  0  0  0
   71.3451   48.9973   52.9540 O   0  0  0  0  0  0  0  0  0  0  0  0
   70.1368   49.3416   50.9032 O   0  0  0  0  0  0  0  0  0  0  0  0
   69.0924   47.7189   52.6785 C   0  0  0  0  0  0  0  0  0  0  0  0
   68.4712   47.0835   51.6319 C   0  0  0  0  0  0  0  0  0  0  0  0
   67.7567   45.9172   51.7607 C   0  0  0  0  0  0  0  0  0  0  0  0
   67.6511   45.3449   53.0072 C   0  0  0  0  0  0  0  0  0  0  0  0
   68.2690   45.9716   54.0676 C   0  0  0  0  0  0  0  0  0  0  0  0
   68.9816   47.1382   53.9291 C   0  0  0  0  0  0  0  0  0  0  0  0
   68.1487   45.3625   55.3586 N   0  0  0  0  0  0  0  0  0  0  0  0
   68.3749   46.0161   56.3985 O   0  0  0  0  0  0  0  0  0  0  0  0
   67.7850   44.0510   55.5087 O   0  0  0  0  0  0  0  0  0  0  0  0
   69.2694   50.5941   53.0159 N   0  0  0  0  0  0  0  0  0  0  0  0
   71.6172   54.0926   56.9021 C   0  0  0  0  0  0  0  0  0  0  0  0
   70.9693   53.1921   55.9138 C   0  0  0  0  0  0  0  0  0  0  0  0
   69.6088   52.9992   55.8641 C   0  0  0  0  0  0  0  0  0  0  0  0
   69.0261   52.1498   54.9284 C   0  0  0  0  0  0  0  0  0  0  0  0
   69.7879   51.4647   54.0084 C   0  0  0  0  0  0  0  0  0  0  0  0
   71.1355   51.6812   54.0874 N   0  0  0  0  0  0  0  0  0  0  0  0
   71.7049   52.4929   54.9803 C   0  0  0  0  0  0  0  0  0  0  0  0
 14 15  1  0
 15 16  2  0
 15 20  1  0
 16 17  1  0
 17 18  2  0
 18 13  1  0
 18 19  1  0
 13  1  1  0
  1  2  2  0
  1  3  2  0
  1  4  1  0
  4  5  2  0
  4  9  1  0
  5  6  1  0
  6  7  2  0
  7  8  1  0
  8 10  1  0
  8  9  2  0
 10 11  2  0
 10 12  1  0
 19 20  2  0
M  CHG  2  10   1  12  -1
M  END
>  <minimizedAffinity>  (187) 
-8.50658

$$$$
data/200k_reference_output/data/smiles/5859.pdb
     RDKit          3D

 21 22  0  0  0  0  0  0  0  0999 V2000
   69.5356   44.4522   56.9895 C   0  0  0  0  0  0  0  0  0  0  0  0
   68.5237   44.8556   56.3741 N   0  0  0  0  0  0  0  0  0  0  0  0
   70.0947   40.3287   58.2048 C   0  0  0  0  0  0  0  0  0  0  0  0
   68.8767   40.8398   57.8015 C   0  0  0  0  0  0  0  0  0  0  0  0
   68.7136   42.1549   57.4200 C   0  0  0  0  0  0  0  0  0  0  0  0
   69.7496   43.0625   57.4082 C   0  0  0  0  0  0  0  0  0  0  0  0
   70.9765   42.5738   57.8068 C   0  0  0  0  0  0  0  0  0  0  0  0
   71.1387   41.2728   58.1862 C   0  0  0  0  0  0  0  0  0  0  0  0
   71.5363   38.2732   58.2096 C   0  0  0  0  0  0  0  0  0  0  0  0
   70.3386   39.0062   58.6221 N   0  0  0  0  0  0  0  0  0  0  0  0
   69.4384   38.2926   59.4703 C   0  0  0  0  0  0  0  0  0  0  0  0
   68.1957   46.1195   55.9170 N   0  0  0  0  0  0  0  0  0  0  0  0
   68.3557   46.3471   54.5385 C   0  0  0  0  0  0  0  0  0  0  0  0
   67.7010   45.5954   53.6045 C   0  0  0  0  0  0  0  0  0  0  0  0
   67.8241   45.8074   52.2499 C   0  0  0  0  0  0  0  0  0  0  0  0
   68.6367   46.8124   51.7829 C   0  0  0  0  0  0  0  0  0  0  0  0
   69.3285   47.6072   52.7092 C   0  0  0  0  0  0  0  0  0  0  0  0
   69.1757   47.3599   54.0716 C   0  0  0  0  0  0  0  0  0  0  0  0
   70.1867   48.6726   52.2037 C   0  0  0  0  0  0  0  0  0  0  0  0
   71.2194   49.0333   52.8579 O   0  0  0  0  0  0  0  0  0  0  0  0
   69.9347   49.3313   51.0196 O   0  0  0  0  0  0  0  0  0  0  0  0
  9 10  1  0
 10 11  1  0
 10  3  1  0
  3  4  2  0
  3  8  1  0
  4  5  1  0
  5  6  2  0
  6  1  1  0
  6  7  1  0
  1  2  2  0
  2 12  1  0
 12 13  1  0
 13 14  2  0
 13 18  1  0
 14 15  1  0
 15 16  2  0
 16 17  1  0
 17 19  1  0
 17 18  2  0
 19 20  2  0
 19 21  1  0
  7  8  2  0
M  END
>  <minimizedAffinity>  (188) 
-8.50369

$$$$
data/reference_output_2/data/smiles/103934.pdb
     RDKit          3D

 19 20  0  0  0  0  0  0  0  0999 V2000
   68.8159   47.0078   54.8888 C   0  0  0  0  0  0  0  0  0  0  0  0
   68.0173   46.0549   54.2454 C   0  0  0  0  0  0  0  0  0  0  0  0
   67.8454   45.9932   52.8946 C   0  0  0  0  0  0  0  0  0  0  0  0
   67.0342   45.0072   52.3260 O   0  0  0  0  0  0  0  0  0  0  0  0
   68.4889   46.9176   52.1182 C   0  0  0  0  0  0  0  0  0  0  0  0
   68.3221   46.8662   50.7435 O   0  0  0  0  0  0  0  0  0  0  0  0
   69.2941   47.8890   52.6963 C   0  0  0  0  0  0  0  0  0  0  0  0
   69.4519   47.9286   54.0752 C   0  0  0  0  0  0  0  0  0  0  0  0
   69.9302   48.7953   51.8283 N   0  0  0  0  0  0  0  0  0  0  0  0
   70.6273   48.3870   50.8971 O   0  0  0  0  0  0  0  0  0  0  0  0
   69.7710   50.1387   52.0137 O   0  0  0  0  0  0  0  0  0  0  0  0
   69.1205   45.9338   56.9741 O   0  0  0  0  0  0  0  0  0  0  0  0
   68.9745   46.9796   56.3355 C   0  0  0  0  0  0  0  0  0  0  0  0
   68.9568   48.2669   57.0248 C   0  0  0  0  0  0  0  0  0  0  0  0
   67.7346   48.9254   57.2175 C   0  0  0  0  0  0  0  0  0  0  0  0
   67.6464   50.1699   57.8241 C   0  0  0  0  0  0  0  0  0  0  0  0
   68.8078   50.7732   58.2499 C   0  0  0  0  0  0  0  0  0  0  0  0
   70.0384   50.1553   58.0793 C   0  0  0  0  0  0  0  0  0  0  0  0
   70.0760   48.9290   57.4741 C   0  0  0  0  0  0  0  0  0  0  0  0
 12 13  2  0
 13 14  1  0
 13  1  1  0
 14 15  2  0
 14 19  1  0
 15 16  1  0
 16 17  2  0
 17 18  1  0
 18 19  2  0
  1  2  2  0
  1  8  1  0
  2  3  1  0
  3  4  1  0
  3  5  2  0
  5  6  1  0
  5  7  1  0
  7  9  1  0
  7  8  2  0
  9 10  2  0
  9 11  1  0
M  CHG  2   9   1  11  -1
M  END
>  <minimizedAffinity>  (189) 
-8.50363

$$$$
data/reference_output_2/data/smiles/136728.pdb
     RDKit          3D

 22 24  0  0  0  0  0  0  0  0999 V2000
   69.1613   48.0255   56.4994 C   0  0  2  0  0  0  0  0  0  0  0  0
   69.7312   48.3844   55.1779 C   0  0  0  0  0  0  0  0  0  0  0  0
   70.7285   49.2863   54.8767 C   0  0  0  0  0  0  0  0  0  0  0  0
   70.9460   49.3113   53.5488 N   0  0  0  0  0  0  0  0  0  0  0  0
   70.1084   48.4407   52.9676 C   0  0  0  0  0  0  0  0  0  0  0  0
   69.8995   48.0637   51.6493 C   0  0  0  0  0  0  0  0  0  0  0  0
   70.5955   48.5993   50.7479 O   0  0  0  0  0  0  0  0  0  0  0  0
   68.9761   47.1539   51.3744 N   0  0  0  0  0  0  0  0  0  0  0  0
   68.2313   46.5792   52.3165 C   0  0  0  0  0  0  0  0  0  0  0  0
   67.2618   45.6125   51.9376 N   0  0  0  0  0  0  0  0  0  0  0  0
   68.4232   46.9345   53.5974 N   0  0  0  0  0  0  0  0  0  0  0  0
   69.3362   47.8483   53.9734 C   0  0  0  0  0  0  0  0  0  0  0  0
   68.2526   49.0905   56.9105 C   0  0  0  0  0  0  0  0  0  0  0  0
   68.3996   50.4277   56.6110 C   0  0  0  0  0  0  0  0  0  0  0  0
   67.5146   51.4037   57.0200 C   0  0  0  0  0  0  0  0  0  0  0  0
   66.4112   51.0399   57.7738 C   0  0  0  0  0  0  0  0  0  0  0  0
   66.2347   49.7077   58.0910 C   0  0  0  0  0  0  0  0  0  0  0  0
   67.1457   48.7498   57.6630 C   0  0  0  0  0  0  0  0  0  0  0  0
   70.2937   47.7653   57.4451 C   0  0  0  0  0  0  0  0  0  0  0  0
   69.7083   45.2775   57.4379 N   0  0  0  0  0  0  0  0  0  0  0  0
   70.2472   46.4083   58.0433 C   0  0  0  0  0  0  0  0  0  0  0  0
   70.7435   46.2880   59.2012 O   0  0  0  0  0  0  0  0  0  0  0  0
 20 21  1  0
 21 22  2  0
 21 19  1  0
  1 19  1  1
  1 13  1  0
  1  2  1  0
 13 14  2  0
 13 18  1  0
 14 15  1  0
 15 16  2  0
 16 17  1  0
 17 18  2  0
  2  3  2  0
  2 12  1  0
  3  4  1  0
  4  5  1  0
  5  6  1  0
  5 12  2  0
  6  7  2  0
  6  8  1  0
  8  9  1  0
  9 10  1  0
  9 11  2  0
 11 12  1  0
M  END
>  <minimizedAffinity>  (190) 
-8.50277

$$$$
data/200k_reference_output/data/smiles/65307.pdb
     RDKit          3D

 21 23  0  0  0  0  0  0  0  0999 V2000
   68.8607   40.5534   57.6004 C   0  0  0  0  0  0  0  0  0  0  0  0
   67.8219   40.6781   56.7415 C   0  0  0  0  0  0  0  0  0  0  0  0
   67.4703   41.8930   56.1426 C   0  0  0  0  0  0  0  0  0  0  0  0
   66.5093   41.9740   55.3561 O   0  0  0  0  0  0  0  0  0  0  0  0
   68.2444   42.9581   56.4778 N   0  0  0  0  0  0  0  0  0  0  0  0
   68.1850   44.2135   56.0995 N   0  0  0  0  0  0  0  0  0  0  0  0
   69.1272   44.9717   56.6497 C   0  0  0  0  0  0  0  0  0  0  0  0
   69.8256   44.1020   57.4344 N   0  0  0  0  0  0  0  0  0  0  0  0
   69.2824   42.8733   57.3260 C   0  0  0  0  0  0  0  0  0  0  0  0
   69.5755   41.6725   57.8739 N   0  0  0  0  0  0  0  0  0  0  0  0
   69.2126   39.2902   58.2373 C   0  0  0  0  0  0  0  0  0  0  0  0
   71.2300   37.7963   58.4996 C   0  0  0  0  0  0  0  0  0  0  0  0
   70.6098   39.1412   58.7051 C   0  0  0  0  0  0  0  0  0  0  0  0
   69.3894   46.4103   56.4802 C   0  0  0  0  0  0  0  0  0  0  0  0
   68.3615   47.1548   55.6957 C   0  0  0  0  0  0  0  0  0  0  0  0
   68.5255   47.1400   54.2344 C   0  0  0  0  0  0  0  0  0  0  0  0
   67.8023   46.2117   53.4708 C   0  0  0  0  0  0  0  0  0  0  0  0
   67.9436   46.1390   52.1097 C   0  0  0  0  0  0  0  0  0  0  0  0
   68.7988   46.9706   51.4340 C   0  0  0  0  0  0  0  0  0  0  0  0
   69.5136   47.8836   52.1676 C   0  0  0  0  0  0  0  0  0  0  0  0
   69.3734   47.9599   53.5440 C   0  0  0  0  0  0  0  0  0  0  0  0
 12 13  1  0
 13 11  1  0
 11  1  1  0
  1  2  2  0
  1 10  1  0
  2  3  1  0
  3  4  2  0
  3  5  1  0
  5  6  1  0
  5  9  1  0
  6  7  2  0
  7 14  1  0
  7  8  1  0
 14 15  1  0
 15 16  1  0
 16 17  2  0
 16 21  1  0
 17 18  1  0
 18 19  2  0
 19 20  1  0
 20 21  2  0
  8  9  2  0
  9 10  1  0
M  END
>  <minimizedAffinity>  (191) 
-8.50276

$$$$
data/reference_output_2/data/smiles/117226.pdb
     RDKit          3D

 20 22  0  0  0  0  0  0  0  0999 V2000
   66.5627   45.1481   50.6993 O   0  0  0  0  0  0  0  0  0  0  0  0
   67.3014   45.8190   51.4636 C   0  0  0  0  0  0  0  0  0  0  0  0
   67.2699   45.5881   52.7994 N   0  0  0  0  0  0  0  0  0  0  0  0
   68.0294   46.2635   53.6625 C   0  0  0  0  0  0  0  0  0  0  0  0
   68.8643   47.2261   53.1556 C   0  0  0  0  0  0  0  0  0  0  0  0
   69.7744   48.1150   53.7314 C   0  0  0  0  0  0  0  0  0  0  0  0
   70.3145   48.8396   52.7264 N   0  0  0  0  0  0  0  0  0  0  0  0
   69.7890   48.4502   51.5609 N   0  0  0  0  0  0  0  0  0  0  0  0
   68.9037   47.4721   51.7861 C   0  0  0  0  0  0  0  0  0  0  0  0
   68.1280   46.7717   50.9482 N   0  0  0  0  0  0  0  0  0  0  0  0
   67.9771   46.0162   55.0392 N   0  0  0  0  0  0  0  0  0  0  0  0
   68.0112   44.7165   55.5381 N   0  0  0  0  0  0  0  0  0  0  0  0
   68.8507   44.2417   56.3691 C   0  0  0  0  0  0  0  0  0  0  0  0
   68.7822   42.8354   56.8264 C   0  0  0  0  0  0  0  0  0  0  0  0
   67.7875   42.0407   56.2603 C   0  0  0  0  0  0  0  0  0  0  0  0
   67.6192   40.7364   56.6103 C   0  0  0  0  0  0  0  0  0  0  0  0
   68.4565   40.1782   57.5537 C   0  0  0  0  0  0  0  0  0  0  0  0
   68.2864   38.8624   57.9094 F   0  0  0  0  0  0  0  0  0  0  0  0
   69.4442   40.9598   58.1168 C   0  0  0  0  0  0  0  0  0  0  0  0
   69.6131   42.3020   57.7540 C   0  0  0  0  0  0  0  0  0  0  0  0
  1  2  2  0
  2  3  1  0
  2 10  1  0
  3  4  2  0
  4 11  1  0
  4  5  1  0
 11 12  1  0
 12 13  2  0
 13 14  1  0
 14 15  2  0
 14 20  1  0
 15 16  1  0
 16 17  2  0
 17 18  1  0
 17 19  1  0
 19 20  2  0
  5  6  1  0
  5  9  2  0
  6  7  2  0
  7  8  1  0
  8  9  1  0
  9 10  1  0
M  END
>  <minimizedAffinity>  (192) 
-8.50234

$$$$
data/reference_output_2/data/smiles/90497.pdb
     RDKit          3D

 21 22  0  0  0  0  0  0  0  0999 V2000
   70.2605   44.7022   57.5130 C   0  0  0  0  0  0  0  0  0  0  0  0
   71.3321   44.8301   58.3726 C   0  0  0  0  0  0  0  0  0  0  0  0
   71.7307   46.0697   58.8629 C   0  0  0  0  0  0  0  0  0  0  0  0
   71.0113   47.1881   58.4583 C   0  0  0  0  0  0  0  0  0  0  0  0
   69.9497   47.0417   57.6027 C   0  0  0  0  0  0  0  0  0  0  0  0
   69.5421   45.8070   57.1058 C   0  0  0  0  0  0  0  0  0  0  0  0
   69.0628   42.5430   57.8674 C   0  0  0  0  0  0  0  0  0  0  0  0
   68.6815   43.0024   58.9841 O   0  0  0  0  0  0  0  0  0  0  0  0
   69.8934   43.3928   57.0541 N   0  0  0  0  0  0  0  0  0  0  0  0
   68.7025   41.2035   57.3695 C   0  0  0  0  0  0  0  0  0  0  0  0
   66.9183   42.5329   56.1837 N   0  0  0  0  0  0  0  0  0  0  0  0
   67.6815   41.3592   56.2869 C   0  0  0  0  0  0  0  0  0  0  0  0
   67.5225   40.3866   55.4523 N   0  0  0  0  0  0  0  0  0  0  0  0
   66.5808   40.5321   54.4554 O   0  0  0  0  0  0  0  0  0  0  0  0
   68.4747   45.7847   56.2655 O   0  0  0  0  0  0  0  0  0  0  0  0
   68.4173   46.0710   54.9280 C   0  0  0  0  0  0  0  0  0  0  0  0
   67.7994   45.1629   54.0872 C   0  0  0  0  0  0  0  0  0  0  0  0
   67.7234   45.4192   52.7393 C   0  0  0  0  0  0  0  0  0  0  0  0
   68.2577   46.5770   52.2063 C   0  0  0  0  0  0  0  0  0  0  0  0
   68.8672   47.4615   53.0707 C   0  0  0  0  0  0  0  0  0  0  0  0
   68.9572   47.2322   54.4169 C   0  0  0  0  0  0  0  0  0  0  0  0
 11 12  1  0
 12 10  1  0
 12 13  2  0
 10  7  1  0
  7  8  2  0
  7  9  1  0
  9  1  1  0
  1  2  2  0
  1  6  1  0
  2  3  1  0
  3  4  2  0
  4  5  1  0
  5  6  2  0
  6 15  1  0
 15 16  1  0
 16 17  2  0
 16 21  1  0
 17 18  1  0
 18 19  2  0
 19 20  1  0
 20 21  2  0
 13 14  1  0
M  CHG  1  13   1
M  END
>  <minimizedAffinity>  (193) 
-8.50221

$$$$
data/reference_output_2/data/smiles/110051.pdb
     RDKit          3D

 21 22  0  0  0  0  0  0  0  0999 V2000
   69.0294   46.5799   57.0430 N   0  0  0  0  0  0  0  0  0  0  0  0
   68.2835   47.0431   56.1667 C   0  0  0  0  0  0  0  0  0  0  0  0
   68.4375   46.9958   54.7026 C   0  0  0  0  0  0  0  0  0  0  0  0
   67.7241   46.1125   53.9309 C   0  0  0  0  0  0  0  0  0  0  0  0
   67.9100   46.1139   52.5630 C   0  0  0  0  0  0  0  0  0  0  0  0
   68.7800   46.9606   51.9307 C   0  0  0  0  0  0  0  0  0  0  0  0
   69.4923   47.8427   52.7135 C   0  0  0  0  0  0  0  0  0  0  0  0
   69.3207   47.8552   54.0705 C   0  0  0  0  0  0  0  0  0  0  0  0
   70.4154   48.7450   52.0753 N   0  0  0  0  0  0  0  0  0  0  0  0
   70.1877   49.2060   50.9646 O   0  0  0  0  0  0  0  0  0  0  0  0
   71.5572   49.0750   52.7462 O   0  0  0  0  0  0  0  0  0  0  0  0
   70.5933   45.0976   58.1335 C   0  0  0  0  0  0  0  0  0  0  0  0
   69.7935   45.0561   59.1285 O   0  0  0  0  0  0  0  0  0  0  0  0
   70.2086   45.8884   57.0369 N   0  0  0  0  0  0  0  0  0  0  0  0
   75.5242   42.2361   58.3466 N   0  0  0  0  0  0  0  0  0  0  0  0
   74.2958   42.9608   58.2950 C   0  0  0  0  0  0  0  0  0  0  0  0
   74.2375   44.3154   58.5462 C   0  0  0  0  0  0  0  0  0  0  0  0
   73.0191   44.9824   58.4856 C   0  0  0  0  0  0  0  0  0  0  0  0
   71.8355   44.3430   58.1803 C   0  0  0  0  0  0  0  0  0  0  0  0
   71.8935   42.9989   57.9317 C   0  0  0  0  0  0  0  0  0  0  0  0
   73.1145   42.3194   57.9907 C   0  0  0  0  0  0  0  0  0  0  0  0
 15 16  1  0
 16 17  2  0
 16 21  1  0
 17 18  1  0
 18 19  2  0
 19 12  1  0
 19 20  1  0
 12 13  2  0
 12 14  1  0
 14  1  1  0
  1  2  2  0
  2  3  1  0
  3  4  2  0
  3  8  1  0
  4  5  1  0
  5  6  2  0
  6  7  1  0
  7  9  1  0
  7  8  2  0
  9 10  2  0
  9 11  1  0
 20 21  2  0
M  CHG  2   9   1  11  -1
M  END
>  <minimizedAffinity>  (194) 
-8.50180

$$$$
data/200k_reference_output/data/smiles/28138.pdb
     RDKit          3D

 22 23  0  0  0  0  0  0  0  0999 V2000
   71.3555   51.7302   53.6134 O   0  0  0  0  0  0  0  0  0  0  0  0
   70.1944   51.5260   53.9982 C   0  0  0  0  0  0  0  0  0  0  0  0
   69.4717   50.3552   53.4551 C   0  0  0  0  0  0  0  0  0  0  0  0
   69.7853   49.1235   53.8020 C   0  0  0  0  0  0  0  0  0  0  0  0
   69.1301   47.9186   53.3188 C   0  0  0  0  0  0  0  0  0  0  0  0
   68.9003   47.6466   52.0069 C   0  0  0  0  0  0  0  0  0  0  0  0
   68.2647   46.4734   51.5771 C   0  0  0  0  0  0  0  0  0  0  0  0
   67.8482   45.5448   52.5064 C   0  0  0  0  0  0  0  0  0  0  0  0
   68.0734   45.8044   53.8397 C   0  0  0  0  0  0  0  0  0  0  0  0
   67.6659   44.8922   54.7871 O   0  0  0  0  0  0  0  0  0  0  0  0
   68.7075   46.9807   54.2368 C   0  0  0  0  0  0  0  0  0  0  0  0
   69.5424   52.4323   54.9790 C   0  0  0  0  0  0  0  0  0  0  0  0
   69.6068   51.9318   56.3517 C   0  0  0  0  0  0  0  0  0  0  0  0
   70.5083   52.3915   57.1181 O   0  0  0  0  0  0  0  0  0  0  0  0
   68.6864   50.9314   56.8804 C   0  0  0  0  0  0  0  0  0  0  0  0
   67.4215   51.2867   57.2948 C   0  0  0  0  0  0  0  0  0  0  0  0
   66.5487   50.3409   57.7960 C   0  0  0  0  0  0  0  0  0  0  0  0
   66.9026   49.0127   57.9029 C   0  0  0  0  0  0  0  0  0  0  0  0
   66.0613   48.0465   58.3956 O   0  0  0  0  0  0  0  0  0  0  0  0
   68.1667   48.6623   57.4877 C   0  0  0  0  0  0  0  0  0  0  0  0
   68.6156   47.3499   57.5562 O   0  0  0  0  0  0  0  0  0  0  0  0
   69.0515   49.6079   56.9827 C   0  0  0  0  0  0  0  0  0  0  0  0
  1  2  2  0
  2  3  1  0
  2 12  1  0
  3  4  2  0
  4  5  1  0
  5  6  2  0
  5 11  1  0
  6  7  1  0
  7  8  2  0
  8  9  1  0
  9 10  1  0
  9 11  2  0
 12 13  1  0
 13 14  2  0
 13 15  1  0
 15 16  2  0
 15 22  1  0
 16 17  1  0
 17 18  2  0
 18 19  1  0
 18 20  1  0
 20 21  1  0
 20 22  2  0
M  END
>  <minimizedAffinity>  (195) 
-8.50145

$$$$
data/200k_reference_output/data/smiles/62226.pdb
     RDKit          3D

 22 25  0  0  0  0  0  0  0  0999 V2000
   70.3338   51.0212   53.5330 C   0  0  0  0  0  0  0  0  0  0  0  0
   70.5090   51.9860   52.7469 O   0  0  0  0  0  0  0  0  0  0  0  0
   72.0175   49.0140   58.3333 C   0  0  0  0  0  0  0  0  0  0  0  0
   70.8492   49.7762   57.8584 C   0  0  0  0  0  0  0  0  0  0  0  0
   69.8088   50.1880   58.6468 C   0  0  0  0  0  0  0  0  0  0  0  0
   68.7336   50.9008   58.1579 C   0  0  0  0  0  0  0  0  0  0  0  0
   68.6790   51.2277   56.8142 C   0  0  0  0  0  0  0  0  0  0  0  0
   67.8152   51.8874   56.0265 N   0  0  0  0  0  0  0  0  0  0  0  0
   68.2856   51.9022   54.7656 C   0  0  0  0  0  0  0  0  0  0  0  0
   69.4897   51.2346   54.7189 C   0  0  0  0  0  0  0  0  0  0  0  0
   69.7205   50.8192   56.0123 C   0  0  0  0  0  0  0  0  0  0  0  0
   70.7927   50.1056   56.5136 C   0  0  0  0  0  0  0  0  0  0  0  0
   70.9364   49.8317   53.2436 O   0  0  0  0  0  0  0  0  0  0  0  0
   70.3746   48.8092   52.5249 N   0  0  0  0  0  0  0  0  0  0  0  0
   70.5167   48.4931   51.2652 N   0  0  0  0  0  0  0  0  0  0  0  0
   69.7869   47.4190   50.9643 N   0  0  0  0  0  0  0  0  0  0  0  0
   69.1318   47.0055   52.0746 C   0  0  0  0  0  0  0  0  0  0  0  0
   68.2625   45.9714   52.3331 C   0  0  0  0  0  0  0  0  0  0  0  0
   67.7410   45.7859   53.5764 C   0  0  0  0  0  0  0  0  0  0  0  0
   68.1161   46.6754   54.5795 C   0  0  0  0  0  0  0  0  0  0  0  0
   68.9877   47.7110   54.3151 C   0  0  0  0  0  0  0  0  0  0  0  0
   69.5272   47.9151   53.0619 C   0  0  0  0  0  0  0  0  0  0  0  0
  3  4  1  0
  4  5  2  0
  4 12  1  0
  5  6  1  0
  6  7  2  0
  7  8  1  0
  7 11  1  0
  8  9  1  0
  9 10  2  0
 10  1  1  0
 10 11  1  0
  1  2  2  0
  1 13  1  0
 13 14  1  0
 14 15  1  0
 14 22  1  0
 15 16  2  0
 16 17  1  0
 17 18  1  0
 17 22  2  0
 18 19  2  0
 19 20  1  0
 20 21  2  0
 21 22  1  0
 11 12  2  0
M  END
>  <minimizedAffinity>  (196) 
-8.50080

$$$$
