data/200k_reference_output/data/smiles/28243.pdb
     RDKit          3D

 29 31  0  0  0  0  0  0  0  0999 V2000
   68.2550   45.8242   53.9643 C   0  0  0  0  0  0  0  0  0  0  0  0
   67.6522   45.3054   52.8239 C   0  0  0  0  0  0  0  0  0  0  0  0
   67.6959   45.9416   51.6125 C   0  0  0  0  0  0  0  0  0  0  0  0
   68.3694   47.1483   51.5317 C   0  0  0  0  0  0  0  0  0  0  0  0
   68.9856   47.7128   52.6193 C   0  0  0  0  0  0  0  0  0  0  0  0
   68.9084   47.0222   53.8248 C   0  0  0  0  0  0  0  0  0  0  0  0
   67.7405   43.7675   55.3507 N   0  0  0  0  0  0  0  0  0  0  0  0
   68.1831   45.1096   55.2387 C   0  0  0  0  0  0  0  0  0  0  0  0
   68.5241   45.6885   56.3116 O   0  0  0  0  0  0  0  0  0  0  0  0
   67.4297   41.0841   55.5494 O   0  0  0  0  0  0  0  0  0  0  0  0
   67.5219   41.7230   56.6241 C   0  0  0  0  0  0  0  0  0  0  0  0
   67.6842   43.1087   56.5926 N   0  0  0  0  0  0  0  0  0  0  0  0
   67.4556   40.9810   57.8771 C   0  0  0  0  0  0  0  0  0  0  0  0
   68.1082   39.7441   57.9716 C   0  0  0  0  0  0  0  0  0  0  0  0
   68.0396   39.0597   59.1465 C   0  0  0  0  0  0  0  0  0  0  0  0
   67.3619   39.5518   60.2023 N   0  0  0  0  0  0  0  0  0  0  0  0
   66.7314   40.7328   60.1298 C   0  0  0  0  0  0  0  0  0  0  0  0
   66.7781   41.4527   58.9606 C   0  0  0  0  0  0  0  0  0  0  0  0
   69.8548   49.2345   52.5503 S   0  0  0  0  0  0  0  0  0  0  0  0
   71.1559   49.0777   53.3047 O   0  0  0  0  0  0  0  0  0  0  0  0
   70.1560   49.5931   51.1040 O   0  0  0  0  0  0  0  0  0  0  0  0
   68.9323   50.4622   53.2962 N   0  0  0  0  0  0  0  0  0  0  0  0
   68.9184   50.6500   54.6900 C   0  0  0  0  0  0  0  0  0  0  0  0
   69.0943   49.6470   55.6129 C   0  0  0  0  0  0  0  0  0  0  0  0
   69.0842   49.8771   56.9942 C   0  0  0  0  0  0  0  0  0  0  0  0
   68.8931   51.1520   57.4627 C   0  0  0  0  0  0  0  0  0  0  0  0
   68.7148   52.1814   56.5695 C   0  0  0  0  0  0  0  0  0  0  0  0
   68.7291   51.9235   55.2406 C   0  0  0  0  0  0  0  0  0  0  0  0
   68.5525   52.9429   54.3661 F   0  0  0  0  0  0  0  0  0  0  0  0
 10 11  2  0
 11 12  1  0
 11 13  1  0
 12  7  1  0
  7  8  1  0
  8  9  2  0
  8  1  1  0
  1  2  2  0
  1  6  1  0
  2  3  1  0
  3  4  2  0
  4  5  1  0
  5 19  1  0
  5  6  2  0
 19 20  2  0
 19 21  2  0
 19 22  1  0
 22 23  1  0
 23 24  2  0
 23 28  1  0
 24 25  1  0
 25 26  2  0
 26 27  1  0
 27 28  2  0
 28 29  1  0
 13 14  2  0
 13 18  1  0
 14 15  1  0
 15 16  2  0
 16 17  1  0
 17 18  2  0
M  END
>  <minimizedAffinity>  (1) 
-10.34503

$$$$
data/reference_output_2/data/smiles/103370.pdb
     RDKit          3D

 32 36  0  0  0  0  0  0  0  0999 V2000
   70.9480   46.1529   58.2297 C   0  0  0  0  0  0  0  0  0  0  0  0
   72.0163   46.9634   58.5693 C   0  0  0  0  0  0  0  0  0  0  0  0
   72.0567   48.2881   58.1602 C   0  0  0  0  0  0  0  0  0  0  0  0
   71.0326   48.8182   57.4099 C   0  0  0  0  0  0  0  0  0  0  0  0
   69.9560   48.0398   57.0550 C   0  0  0  0  0  0  0  0  0  0  0  0
   69.9457   46.7225   57.4784 C   0  0  0  0  0  0  0  0  0  0  0  0
   71.7135   43.9635   58.1395 O   0  0  0  0  0  0  0  0  0  0  0  0
   70.8884   44.7605   58.6508 C   0  0  0  0  0  0  0  0  0  0  0  0
   69.9769   44.2542   59.5852 N   0  0  0  0  0  0  0  0  0  0  0  0
   69.9172   42.8625   60.0070 C   0  0  1  0  0  0  0  0  0  0  0  0
   70.6134   42.7803   61.3476 C   0  0  0  0  0  0  0  0  0  0  0  0
   69.7490   43.2285   62.4200 N   0  0  0  0  0  0  0  0  0  0  0  0
   68.4298   42.7126   62.4462 C   0  0  0  0  0  0  0  0  0  0  0  0
   67.7769   42.6534   63.5455 O   0  0  0  0  0  0  0  0  0  0  0  0
   67.8382   42.2567   61.2047 C   0  0  0  0  0  0  0  0  0  0  0  0
   66.5433   41.7546   61.2545 C   0  0  0  0  0  0  0  0  0  0  0  0
   65.9616   41.3160   60.0871 C   0  0  0  0  0  0  0  0  0  0  0  0
   66.6702   41.3834   58.9042 C   0  0  0  0  0  0  0  0  0  0  0  0
   67.9744   41.8921   58.8757 C   0  0  0  0  0  0  0  0  0  0  0  0
   68.5519   42.3306   60.0451 C   0  0  0  0  0  0  0  0  0  0  0  0
   68.8233   48.5609   56.2457 C   0  0  0  0  0  0  0  0  0  0  0  0
   69.2600   48.5887   54.8290 C   0  0  0  0  0  0  0  0  0  0  0  0
   70.1043   49.5272   54.3680 N   0  0  0  0  0  0  0  0  0  0  0  0
   70.5112   49.5779   53.1120 N   0  0  0  0  0  0  0  0  0  0  0  0
   70.1111   48.6894   52.1906 C   0  0  0  0  0  0  0  0  0  0  0  0
   70.5215   48.7709   50.9993 O   0  0  0  0  0  0  0  0  0  0  0  0
   69.2368   47.6884   52.5916 C   0  0  0  0  0  0  0  0  0  0  0  0
   68.8007   46.7557   51.6766 C   0  0  0  0  0  0  0  0  0  0  0  0
   67.9430   45.7719   52.0692 C   0  0  0  0  0  0  0  0  0  0  0  0
   67.5172   45.7230   53.3955 C   0  0  0  0  0  0  0  0  0  0  0  0
   67.9537   46.6585   54.3156 C   0  0  0  0  0  0  0  0  0  0  0  0
   68.8188   47.6456   53.9049 C   0  0  0  0  0  0  0  0  0  0  0  0
  7  8  2  0
  8  9  1  0
  8  1  1  0
 10  9  1  1
 10 11  1  0
 10 20  1  0
 11 12  1  0
 12 13  1  0
 13 14  2  0
 13 15  1  0
 15 16  2  0
 15 20  1  0
 16 17  1  0
 17 18  2  0
 18 19  1  0
 19 20  2  0
  1  2  2  0
  1  6  1  0
  2  3  1  0
  3  4  2  0
  4  5  1  0
  5 21  1  0
  5  6  2  0
 21 22  1  0
 22 23  2  0
 22 32  1  0
 23 24  1  0
 24 25  1  0
 25 26  2  0
 25 27  1  0
 27 28  1  0
 27 32  2  0
 28 29  2  0
 29 30  1  0
 30 31  2  0
 31 32  1  0
M  END
>  <minimizedAffinity>  (2) 
-10.28934

$$$$
data/reference_output_2/data/smiles/97914.pdb
     RDKit          3D

 33 37  0  0  0  0  0  0  0  0999 V2000
   73.6350   41.9277   58.1260 O   0  0  0  0  0  0  0  0  0  0  0  0
   72.3808   41.8467   58.1907 C   0  0  0  0  0  0  0  0  0  0  0  0
   71.7682   40.6347   58.2779 N   0  0  0  0  0  0  0  0  0  0  0  0
   70.4240   40.5987   58.3445 C   0  0  0  0  0  0  0  0  0  0  0  0
   69.8399   39.4142   58.4288 C   0  0  0  0  0  0  0  0  0  0  0  0
   69.7183   41.7852   58.3218 C   0  0  0  0  0  0  0  0  0  0  0  0
   68.4560   41.6778   58.3878 O   0  0  0  0  0  0  0  0  0  0  0  0
   70.3104   42.9920   58.2352 N   0  0  0  0  0  0  0  0  0  0  0  0
   71.6563   43.0181   58.1693 C   0  0  0  0  0  0  0  0  0  0  0  0
   72.2430   44.2201   58.0834 C   0  0  0  0  0  0  0  0  0  0  0  0
   70.6016   38.1564   58.4532 C   0  0  0  0  0  0  0  0  0  0  0  0
   70.3732   37.1501   59.3174 N   0  0  0  0  0  0  0  0  0  0  0  0
   71.2308   36.1287   59.0965 C   0  0  0  0  0  0  0  0  0  0  0  0
   71.4318   34.8881   59.6758 C   0  0  0  0  0  0  0  0  0  0  0  0
   72.4061   34.0163   59.2436 C   0  0  0  0  0  0  0  0  0  0  0  0
   73.2175   34.4099   58.1783 C   0  0  0  0  0  0  0  0  0  0  0  0
   73.0082   35.6474   57.6098 C   0  0  0  0  0  0  0  0  0  0  0  0
   72.0362   36.5265   58.0356 C   0  0  0  0  0  0  0  0  0  0  0  0
   71.6118   37.7549   57.6891 N   0  0  0  0  0  0  0  0  0  0  0  0
   71.4631   45.4399   58.0624 C   0  0  0  0  0  0  0  0  0  0  0  0
   71.9017   46.5218   58.7746 C   0  0  0  0  0  0  0  0  0  0  0  0
   71.1834   47.6982   58.7775 C   0  0  0  0  0  0  0  0  0  0  0  0
   70.0313   47.7532   58.0548 C   0  0  0  0  0  0  0  0  0  0  0  0
   69.5876   46.6692   57.3384 C   0  0  0  0  0  0  0  0  0  0  0  0
   70.3079   45.4839   57.3338 C   0  0  0  0  0  0  0  0  0  0  0  0
   68.4146   46.7100   56.5973 O   0  0  0  0  0  0  0  0  0  0  0  0
   68.4206   46.6833   55.2113 C   0  0  0  0  0  0  0  0  0  0  0  0
   68.9491   47.7504   54.5379 C   0  0  0  0  0  0  0  0  0  0  0  0
   68.9710   47.7565   53.1480 C   0  0  0  0  0  0  0  0  0  0  0  0
   68.4673   46.7019   52.4136 C   0  0  0  0  0  0  0  0  0  0  0  0
   68.5092   46.7500   51.0482 F   0  0  0  0  0  0  0  0  0  0  0  0
   67.9393   45.6371   53.1059 C   0  0  0  0  0  0  0  0  0  0  0  0
   67.9119   45.6200   54.5011 C   0  0  0  0  0  0  0  0  0  0  0  0
  1  2  2  0
  2  3  1  0
  2  9  1  0
  3  4  1  0
  4  5  2  0
  4  6  1  0
  5 11  1  0
 11 12  2  0
 11 19  1  0
 12 13  1  0
 13 14  2  0
 13 18  1  0
 14 15  1  0
 15 16  2  0
 16 17  1  0
 17 18  2  0
 18 19  1  0
  6  7  2  0
  6  8  1  0
  8  9  1  0
  9 10  2  0
 10 20  1  0
 20 21  2  0
 20 25  1  0
 21 22  1  0
 22 23  2  0
 23 24  1  0
 24 26  1  0
 24 25  2  0
 26 27  1  0
 27 28  2  0
 27 33  1  0
 28 29  1  0
 29 30  2  0
 30 31  1  0
 30 32  1  0
 32 33  2  0
M  CHG  1  12   1
M  END
>  <minimizedAffinity>  (3) 
-10.27963

$$$$
data/reference_output_2/data/smiles/199900.pdb
     RDKit          3D

 30 33  0  0  0  0  0  0  0  0999 V2000
   68.3911   46.0158   54.1036 C   0  0  0  0  0  0  0  0  0  0  0  0
   67.9104   45.5562   52.8901 C   0  0  0  0  0  0  0  0  0  0  0  0
   68.0615   46.3328   51.7518 C   0  0  0  0  0  0  0  0  0  0  0  0
   68.6795   47.5551   51.7996 C   0  0  0  0  0  0  0  0  0  0  0  0
   69.1592   48.0200   52.9979 C   0  0  0  0  0  0  0  0  0  0  0  0
   69.0037   47.2429   54.1137 C   0  0  0  0  0  0  0  0  0  0  0  0
   67.8264   43.8767   55.3832 N   0  0  0  0  0  0  0  0  0  0  0  0
   68.2501   45.2174   55.3316 C   0  0  0  0  0  0  0  0  0  0  0  0
   68.5322   45.7849   56.4146 O   0  0  0  0  0  0  0  0  0  0  0  0
   67.4657   41.1668   55.4460 O   0  0  0  0  0  0  0  0  0  0  0  0
   67.5101   41.7318   56.5897 C   0  0  0  0  0  0  0  0  0  0  0  0
   67.6963   43.1294   56.5599 N   0  0  0  0  0  0  0  0  0  0  0  0
   67.3753   40.9592   57.8172 C   0  0  0  0  0  0  0  0  0  0  0  0
   66.6570   41.3613   58.9132 C   0  0  0  0  0  0  0  0  0  0  0  0
   66.5488   40.6075   60.0628 C   0  0  0  0  0  0  0  0  0  0  0  0
   67.1831   39.3801   60.1495 C   0  0  0  0  0  0  0  0  0  0  0  0
   67.9091   38.9587   59.0605 C   0  0  0  0  0  0  0  0  0  0  0  0
   68.0014   39.7343   57.9197 C   0  0  0  0  0  0  0  0  0  0  0  0
   69.9673   49.5970   53.0978 S   0  0  0  0  0  0  0  0  0  0  0  0
   71.4476   49.3257   53.3212 O   0  0  0  0  0  0  0  0  0  0  0  0
   69.8597   50.3066   51.7929 O   0  0  0  0  0  0  0  0  0  0  0  0
   69.4144   50.5130   54.4275 N   0  0  0  0  0  0  0  0  0  0  0  0
   68.5914   51.6994   54.3331 C   0  0  0  0  0  0  0  0  0  0  0  0
   68.9393   52.5228   55.5522 C   0  0  0  0  0  0  0  0  0  0  0  0
   69.3502   51.4816   56.5259 C   0  0  0  0  0  0  0  0  0  0  0  0
   69.5035   51.4635   57.9100 C   0  0  0  0  0  0  0  0  0  0  0  0
   69.9122   50.3496   58.6114 C   0  0  0  0  0  0  0  0  0  0  0  0
   70.1834   49.1960   57.9141 C   0  0  0  0  0  0  0  0  0  0  0  0
   70.0334   49.2011   56.5223 C   0  0  0  0  0  0  0  0  0  0  0  0
   69.6206   50.3310   55.8307 C   0  0  0  0  0  0  0  0  0  0  0  0
 10 11  2  0
 11 12  1  0
 11 13  1  0
 12  7  1  0
  7  8  1  0
  8  9  2  0
  8  1  1  0
  1  2  2  0
  1  6  1  0
  2  3  1  0
  3  4  2  0
  4  5  1  0
  5 19  1  0
  5  6  2  0
 19 20  2  0
 19 21  2  0
 19 22  1  0
 22 23  1  0
 22 30  1  0
 23 24  1  0
 24 25  1  0
 25 26  1  0
 25 30  2  0
 26 27  2  0
 27 28  1  0
 28 29  2  0
 29 30  1  0
 13 14  2  0
 13 18  1  0
 14 15  1  0
 15 16  2  0
 16 17  1  0
 17 18  2  0
M  END
>  <minimizedAffinity>  (4) 
-10.20553

$$$$
data/200k_reference_output/data/smiles/47872.pdb
     RDKit          3D

 31 34  0  0  0  0  0  0  0  0999 V2000
   68.4644   46.0407   54.2593 C   0  0  0  0  0  0  0  0  0  0  0  0
   67.9676   45.5604   53.0657 C   0  0  0  0  0  0  0  0  0  0  0  0
   68.0607   46.2118   51.8716 C   0  0  0  0  0  0  0  0  0  0  0  0
   68.6956   47.4411   51.8463 C   0  0  0  0  0  0  0  0  0  0  0  0
   69.2123   47.9698   53.0100 C   0  0  0  0  0  0  0  0  0  0  0  0
   69.0932   47.2659   54.2114 C   0  0  0  0  0  0  0  0  0  0  0  0
   68.5829   45.7835   56.5870 O   0  0  0  0  0  0  0  0  0  0  0  0
   68.3082   45.2585   55.4776 C   0  0  0  0  0  0  0  0  0  0  0  0
   67.8573   43.9145   55.5137 N   0  0  0  0  0  0  0  0  0  0  0  0
   67.7170   43.1837   56.7165 N   0  0  0  0  0  0  0  0  0  0  0  0
   67.4883   41.7963   56.7203 C   0  0  0  0  0  0  0  0  0  0  0  0
   67.4222   41.2760   55.5487 O   0  0  0  0  0  0  0  0  0  0  0  0
   67.3274   40.9314   57.8789 C   0  0  0  0  0  0  0  0  0  0  0  0
   66.5830   41.3816   58.9781 C   0  0  0  0  0  0  0  0  0  0  0  0
   66.3631   40.6744   60.1115 C   0  0  0  0  0  0  0  0  0  0  0  0
   66.8982   39.4069   60.2321 C   0  0  0  0  0  0  0  0  0  0  0  0
   67.6385   38.9156   59.1804 C   0  0  0  0  0  0  0  0  0  0  0  0
   67.8532   39.6719   58.0111 C   0  0  0  0  0  0  0  0  0  0  0  0
   68.5869   39.1442   57.0048 F   0  0  0  0  0  0  0  0  0  0  0  0
   70.0070   49.5058   52.9803 S   0  0  0  0  0  0  0  0  0  0  0  0
   69.7922   50.1773   51.6534 O   0  0  0  0  0  0  0  0  0  0  0  0
   71.4972   49.2867   53.1268 O   0  0  0  0  0  0  0  0  0  0  0  0
   69.4914   50.5245   54.2697 N   0  0  0  0  0  0  0  0  0  0  0  0
   68.7305   51.7411   54.1101 C   0  0  0  0  0  0  0  0  0  0  0  0
   68.7741   52.4340   55.4471 C   0  0  0  0  0  0  0  0  0  0  0  0
   69.3320   51.4190   56.3643 C   0  0  0  0  0  0  0  0  0  0  0  0
   69.4652   51.4704   57.7359 C   0  0  0  0  0  0  0  0  0  0  0  0
   70.0148   50.4174   58.4287 C   0  0  0  0  0  0  0  0  0  0  0  0
   70.4399   49.2931   57.7511 C   0  0  0  0  0  0  0  0  0  0  0  0
   70.3031   49.2493   56.3825 C   0  0  0  0  0  0  0  0  0  0  0  0
   69.7516   50.2959   55.6504 C   0  0  0  0  0  0  0  0  0  0  0  0
  7  8  2  0
  8  9  1  0
  8  1  1  0
  9 10  1  0
 10 11  1  0
 11 12  2  0
 11 13  1  0
 13 14  2  0
 13 18  1  0
 14 15  1  0
 15 16  2  0
 16 17  1  0
 17 18  2  0
 18 19  1  0
  1  2  2  0
  1  6  1  0
  2  3  1  0
  3  4  2  0
  4  5  1  0
  5 20  1  0
  5  6  2  0
 20 21  2  0
 20 22  2  0
 20 23  1  0
 23 24  1  0
 23 31  1  0
 24 25  1  0
 25 26  1  0
 26 27  1  0
 26 31  2  0
 27 28  2  0
 28 29  1  0
 29 30  2  0
 30 31  1  0
M  END
>  <minimizedAffinity>  (5) 
-10.18499

$$$$
data/200k_reference_output/data/smiles/2919.pdb
     RDKit          3D

 30 32  0  0  0  0  0  0  0  0999 V2000
   67.7825   43.7499   55.9125 N   0  0  0  0  0  0  0  0  0  0  0  0
   68.4443   42.7507   56.6535 C   0  0  0  0  0  0  0  0  0  0  0  0
   69.5465   43.0501   57.1824 O   0  0  0  0  0  0  0  0  0  0  0  0
   67.9659   41.4351   56.8480 N   0  0  0  0  0  0  0  0  0  0  0  0
   68.6699   40.4538   57.6068 C   0  0  0  0  0  0  0  0  0  0  0  0
   69.9760   40.6577   58.0048 C   0  0  0  0  0  0  0  0  0  0  0  0
   70.6793   39.7231   58.7392 C   0  0  0  0  0  0  0  0  0  0  0  0
   70.0995   38.5306   59.1120 C   0  0  0  0  0  0  0  0  0  0  0  0
   68.7954   38.3137   58.7208 C   0  0  0  0  0  0  0  0  0  0  0  0
   68.1002   39.2542   57.9863 C   0  0  0  0  0  0  0  0  0  0  0  0
   70.8680   37.5284   59.9051 C   0  0  0  0  0  0  0  0  0  0  0  0
   71.5186   36.5238   59.0210 C   0  0  0  0  0  0  0  0  0  0  0  0
   72.1690   36.9402   57.8705 C   0  0  0  0  0  0  0  0  0  0  0  0
   72.7915   36.0357   57.0157 C   0  0  0  0  0  0  0  0  0  0  0  0
   72.7716   34.6953   57.2988 C   0  0  0  0  0  0  0  0  0  0  0  0
   72.1303   34.2607   58.4374 C   0  0  0  0  0  0  0  0  0  0  0  0
   71.5138   35.1717   59.2825 C   0  0  0  0  0  0  0  0  0  0  0  0
   68.2105   45.7276   54.4893 C   0  0  0  0  0  0  0  0  0  0  0  0
   67.6531   45.0620   53.5545 O   0  0  0  0  0  0  0  0  0  0  0  0
   68.2869   45.0499   55.7375 N   0  0  0  0  0  0  0  0  0  0  0  0
   69.6854   49.6614   53.9285 C   0  0  0  0  0  0  0  0  0  0  0  0
   69.3779   49.1957   55.1916 C   0  0  0  0  0  0  0  0  0  0  0  0
   68.8961   47.8963   55.3330 C   0  0  0  0  0  0  0  0  0  0  0  0
   68.7157   47.0651   54.2597 C   0  0  0  0  0  0  0  0  0  0  0  0
   69.0206   47.5288   53.0107 C   0  0  0  0  0  0  0  0  0  0  0  0
   69.5070   48.8310   52.8446 C   0  0  0  0  0  0  0  0  0  0  0  0
   71.9486   51.3783   54.2388 N   0  0  0  0  0  0  0  0  0  0  0  0
   70.2909   51.2874   53.7337 S   0  0  0  0  0  0  0  0  0  0  0  0
   69.4940   52.2671   54.5662 O   0  0  0  0  0  0  0  0  0  0  0  0
   70.1505   51.7196   52.3054 O   0  0  0  0  0  0  0  0  0  0  0  0
 27 28  1  0
 28 29  2  0
 28 30  2  0
 28 21  1  0
 21 22  2  0
 21 26  1  0
 22 23  1  0
 23 24  2  0
 24 18  1  0
 24 25  1  0
 18 19  2  0
 18 20  1  0
 20  1  1  0
  1  2  1  0
  2  3  2  0
  2  4  1  0
  4  5  1  0
  5  6  2  0
  5 10  1  0
  6  7  1  0
  7  8  2  0
  8 11  1  0
  8  9  1  0
 11 12  1  0
 12 13  2  0
 12 17  1  0
 13 14  1  0
 14 15  2  0
 15 16  1  0
 16 17  2  0
  9 10  2  0
 25 26  2  0
M  END
>  <minimizedAffinity>  (6) 
-10.15446

$$$$
data/reference_output_2/data/smiles/177149.pdb
     RDKit          3D

 33 37  0  0  0  0  0  0  0  0999 V2000
   70.8213   46.8531   58.4332 C   0  0  0  0  0  0  0  0  0  0  0  0
   69.9733   47.3541   57.4385 C   0  0  0  0  0  0  0  0  0  0  0  0
   69.7747   48.6951   57.2178 C   0  0  0  0  0  0  0  0  0  0  0  0
   70.4484   49.6270   58.0189 C   0  0  0  0  0  0  0  0  0  0  0  0
   71.2807   49.1571   58.9971 C   0  0  0  0  0  0  0  0  0  0  0  0
   71.4624   47.7792   59.1982 C   0  0  0  0  0  0  0  0  0  0  0  0
   72.2873   47.3710   60.1798 F   0  0  0  0  0  0  0  0  0  0  0  0
   72.0577   44.8702   58.2057 O   0  0  0  0  0  0  0  0  0  0  0  0
   70.9520   45.4200   58.5565 C   0  0  0  0  0  0  0  0  0  0  0  0
   69.9834   44.5095   59.0314 N   0  0  0  0  0  0  0  0  0  0  0  0
   70.2072   43.0765   59.1133 C   0  0  1  0  0  0  0  0  0  0  0  0
   70.0080   42.5708   60.5477 C   0  0  0  0  0  0  0  0  0  0  0  0
   69.9019   41.1357   60.5568 N   0  0  0  0  0  0  0  0  0  0  0  0
   68.9968   40.5242   59.6565 C   0  0  0  0  0  0  0  0  0  0  0  0
   68.4826   39.4038   59.9175 O   0  0  0  0  0  0  0  0  0  0  0  0
   68.6701   41.2171   58.4197 C   0  0  0  0  0  0  0  0  0  0  0  0
   67.7839   40.6534   57.5168 C   0  0  0  0  0  0  0  0  0  0  0  0
   67.4797   41.3188   56.3557 C   0  0  0  0  0  0  0  0  0  0  0  0
   68.0475   42.5449   56.0794 C   0  0  0  0  0  0  0  0  0  0  0  0
   68.9252   43.0782   56.9977 C   0  0  0  0  0  0  0  0  0  0  0  0
   69.2545   42.4339   58.1794 C   0  0  0  0  0  0  0  0  0  0  0  0
   68.8729   49.2636   56.1831 C   0  0  0  0  0  0  0  0  0  0  0  0
   69.3021   49.0104   54.8033 C   0  0  0  0  0  0  0  0  0  0  0  0
   70.1470   49.8969   54.1899 N   0  0  0  0  0  0  0  0  0  0  0  0
   70.5481   49.7724   52.9429 N   0  0  0  0  0  0  0  0  0  0  0  0
   70.1534   48.7586   52.1784 C   0  0  0  0  0  0  0  0  0  0  0  0
   70.5612   48.6715   50.9776 O   0  0  0  0  0  0  0  0  0  0  0  0
   69.3086   47.8171   52.7030 C   0  0  0  0  0  0  0  0  0  0  0  0
   68.9166   46.7627   51.9000 C   0  0  0  0  0  0  0  0  0  0  0  0
   68.0762   45.8071   52.4288 C   0  0  0  0  0  0  0  0  0  0  0  0
   67.6645   45.9464   53.7352 C   0  0  0  0  0  0  0  0  0  0  0  0
   68.0605   47.0039   54.5338 C   0  0  0  0  0  0  0  0  0  0  0  0
   68.8918   47.9613   54.0250 C   0  0  0  0  0  0  0  0  0  0  0  0
  8  9  2  0
  9 10  1  0
  9  1  1  0
 11 10  1  1
 11 12  1  0
 11 21  1  0
 12 13  1  0
 13 14  1  0
 14 15  2  0
 14 16  1  0
 16 17  2  0
 16 21  1  0
 17 18  1  0
 18 19  2  0
 19 20  1  0
 20 21  2  0
  1  2  2  0
  1  6  1  0
  2  3  1  0
  3 22  1  0
  3  4  2  0
 22 23  1  0
 23 24  2  0
 23 33  1  0
 24 25  1  0
 25 26  1  0
 26 27  2  0
 26 28  1  0
 28 29  1  0
 28 33  2  0
 29 30  2  0
 30 31  1  0
 31 32  2  0
 32 33  1  0
  4  5  1  0
  5  6  2  0
  6  7  1  0
M  END
>  <minimizedAffinity>  (7) 
-10.13426

$$$$
data/reference_output_2/data/smiles/117803.pdb
     RDKit          3D

 29 31  0  0  0  0  0  0  0  0999 V2000
   69.5624   45.1918   56.9563 C   0  0  0  0  0  0  0  0  0  0  0  0
   70.6893   45.0271   57.7561 C   0  0  0  0  0  0  0  0  0  0  0  0
   71.0889   43.7771   58.1826 C   0  0  0  0  0  0  0  0  0  0  0  0
   70.3950   42.6380   57.8371 C   0  0  0  0  0  0  0  0  0  0  0  0
   69.2840   42.8366   57.0428 C   0  0  0  0  0  0  0  0  0  0  0  0
   68.9022   44.0672   56.6319 N   0  0  0  0  0  0  0  0  0  0  0  0
   67.7698   44.2089   55.8322 O   0  0  0  0  0  0  0  0  0  0  0  0
   69.0626   46.7876   56.4185 S   0  0  0  0  0  0  0  0  0  0  0  0
   70.0573   47.7972   56.8587 O   0  0  0  0  0  0  0  0  0  0  0  0
   67.7357   47.1642   57.0520 O   0  0  0  0  0  0  0  0  0  0  0  0
   69.3792   47.8749   52.5159 C   0  0  0  0  0  0  0  0  0  0  0  0
   68.5966   46.9396   51.8762 C   0  0  0  0  0  0  0  0  0  0  0  0
   67.9772   45.9820   52.6461 C   0  0  0  0  0  0  0  0  0  0  0  0
   68.1344   45.9605   54.0205 C   0  0  0  0  0  0  0  0  0  0  0  0
   68.9171   46.8927   54.6799 C   0  0  0  0  0  0  0  0  0  0  0  0
   69.5354   47.8493   53.9072 C   0  0  0  0  0  0  0  0  0  0  0  0
   70.7487   48.5543   50.7515 O   0  0  0  0  0  0  0  0  0  0  0  0
   70.0423   48.8940   51.7273 C   0  0  0  0  0  0  0  0  0  0  0  0
   69.8841   50.2237   52.0626 O   0  0  0  0  0  0  0  0  0  0  0  0
   70.7820   41.2985   58.2640 C   0  0  0  0  0  0  0  0  0  0  0  0
   71.9078   41.1417   58.8179 O   0  0  0  0  0  0  0  0  0  0  0  0
   69.9933   40.1535   58.1058 N   0  0  0  0  0  0  0  0  0  0  0  0
   70.3856   38.8440   58.5290 C   0  0  0  0  0  0  0  0  0  0  0  0
   71.4379   38.1977   57.9093 C   0  0  0  0  0  0  0  0  0  0  0  0
   71.8313   36.9262   58.3084 C   0  0  0  0  0  0  0  0  0  0  0  0
   71.1884   36.2666   59.3361 C   0  0  0  0  0  0  0  0  0  0  0  0
   71.5827   35.0198   59.7189 F   0  0  0  0  0  0  0  0  0  0  0  0
   70.1383   36.9143   59.9527 C   0  0  0  0  0  0  0  0  0  0  0  0
   69.7329   38.1946   59.5590 C   0  0  0  0  0  0  0  0  0  0  0  0
 17 18  2  0
 18 19  1  0
 18 11  1  0
 11 12  2  0
 11 16  1  0
 12 13  1  0
 13 14  2  0
 14 15  1  0
 15  8  1  0
 15 16  2  0
  8  9  2  0
  8 10  2  0
  8  1  1  0
  1  2  2  0
  1  6  1  0
  2  3  1  0
  3  4  2  0
  4 20  1  0
  4  5  1  0
 20 21  2  0
 20 22  1  0
 22 23  1  0
 23 24  2  0
 23 29  1  0
 24 25  1  0
 25 26  2  0
 26 27  1  0
 26 28  1  0
 28 29  2  0
  5  6  2  0
  6  7  1  0
M  CHG  2   6   1   7  -1
M  END
>  <minimizedAffinity>  (8) 
-10.02256

$$$$
data/reference_output_2/data/smiles/154657.pdb
     RDKit          3D

 30 32  0  0  0  0  0  0  0  0999 V2000
   69.3084   47.7183   52.9978 C   0  0  0  0  0  0  0  0  0  0  0  0
   68.6129   47.3373   51.8615 C   0  0  0  0  0  0  0  0  0  0  0  0
   67.8034   46.2247   51.8752 C   0  0  0  0  0  0  0  0  0  0  0  0
   67.6680   45.4606   53.0304 C   0  0  0  0  0  0  0  0  0  0  0  0
   68.3459   45.8115   54.1788 C   0  0  0  0  0  0  0  0  0  0  0  0
   69.1451   46.9265   54.1329 C   0  0  0  0  0  0  0  0  0  0  0  0
   70.3077   49.1403   53.0149 S   0  0  0  0  0  0  0  0  0  0  0  0
   69.5957   50.1887   52.1986 O   0  0  0  0  0  0  0  0  0  0  0  0
   71.6408   48.7992   52.3763 O   0  0  0  0  0  0  0  0  0  0  0  0
   70.5902   49.6529   54.6137 N   0  0  0  0  0  0  0  0  0  0  0  0
   66.9988   49.6773   58.0455 C   0  0  0  0  0  0  0  0  0  0  0  0
   67.8941   50.3818   57.0976 C   0  0  0  0  0  0  0  0  0  0  0  0
   67.8243   51.7458   56.9735 C   0  0  0  0  0  0  0  0  0  0  0  0
   68.6627   52.3893   56.0880 C   0  0  0  0  0  0  0  0  0  0  0  0
   69.5595   51.6762   55.3346 C   0  0  0  0  0  0  0  0  0  0  0  0
   69.6517   50.2889   55.4395 C   0  0  0  0  0  0  0  0  0  0  0  0
   68.8168   49.6796   56.3186 C   0  0  0  0  0  0  0  0  0  0  0  0
   68.2200   45.0217   55.4114 C   0  0  0  0  0  0  0  0  0  0  0  0
   68.5569   45.5381   56.5228 O   0  0  0  0  0  0  0  0  0  0  0  0
   67.7405   43.6929   55.4643 N   0  0  0  0  0  0  0  0  0  0  0  0
   67.6340   42.9675   56.6619 N   0  0  0  0  0  0  0  0  0  0  0  0
   67.5758   41.5628   56.7085 C   0  0  0  0  0  0  0  0  0  0  0  0
   67.6288   41.0159   55.5491 O   0  0  0  0  0  0  0  0  0  0  0  0
   67.4671   40.7330   57.8966 C   0  0  0  0  0  0  0  0  0  0  0  0
   68.1060   39.4811   57.9069 C   0  0  0  0  0  0  0  0  0  0  0  0
   68.0393   38.6536   58.9981 C   0  0  0  0  0  0  0  0  0  0  0  0
   67.3316   39.0351   60.1314 C   0  0  0  0  0  0  0  0  0  0  0  0
   66.6942   40.2491   60.1587 C   0  0  0  0  0  0  0  0  0  0  0  0
   66.7860   41.0694   59.0197 C   0  0  0  0  0  0  0  0  0  0  0  0
   66.1231   42.2849   59.1049 O   0  0  0  0  0  0  0  0  0  0  0  0
 11 12  1  0
 12 13  2  0
 12 17  1  0
 13 14  1  0
 14 15  2  0
 15 16  1  0
 16 10  1  0
 16 17  2  0
 10  7  1  0
  7  8  2  0
  7  9  2  0
  7  1  1  0
  1  2  2  0
  1  6  1  0
  2  3  1  0
  3  4  2  0
  4  5  1  0
  5 18  1  0
  5  6  2  0
 18 19  2  0
 18 20  1  0
 20 21  1  0
 21 22  1  0
 22 23  2  0
 22 24  1  0
 24 25  2  0
 24 29  1  0
 25 26  1  0
 26 27  2  0
 27 28  1  0
 28 29  2  0
 29 30  1  0
M  END
>  <minimizedAffinity>  (9) 
-9.99527

$$$$
data/200k_reference_output/data/smiles/45367.pdb
     RDKit          3D

 32 35  0  0  0  0  0  0  0  0999 V2000
   72.0348   37.7019   59.2261 C   0  0  0  0  0  0  0  0  0  0  0  0
   71.1750   38.6044   58.7541 C   0  0  0  0  0  0  0  0  0  0  0  0
   69.9097   38.2340   58.4800 N   0  0  0  0  0  0  0  0  0  0  0  0
   69.0381   39.1442   58.0027 C   0  0  0  0  0  0  0  0  0  0  0  0
   67.8445   38.7936   57.7452 O   0  0  0  0  0  0  0  0  0  0  0  0
   69.3798   40.4627   57.7768 C   0  0  0  0  0  0  0  0  0  0  0  0
   68.5091   41.3612   57.3036 C   0  0  0  0  0  0  0  0  0  0  0  0
   70.6434   40.8351   58.0495 N   0  0  0  0  0  0  0  0  0  0  0  0
   71.5181   39.9212   58.5284 C   0  0  0  0  0  0  0  0  0  0  0  0
   72.6989   40.2641   58.7843 O   0  0  0  0  0  0  0  0  0  0  0  0
   68.8593   42.7395   57.0644 C   0  0  0  0  0  0  0  0  0  0  0  0
   69.8682   43.3338   57.7873 C   0  0  0  0  0  0  0  0  0  0  0  0
   70.2207   44.6709   57.5665 C   0  0  0  0  0  0  0  0  0  0  0  0
   69.5478   45.3970   56.6141 C   0  0  0  0  0  0  0  0  0  0  0  0
   68.5402   44.8214   55.8842 C   0  0  0  0  0  0  0  0  0  0  0  0
   68.2090   43.4974   56.1196 C   0  0  0  0  0  0  0  0  0  0  0  0
   67.8440   45.5191   54.9213 O   0  0  0  0  0  0  0  0  0  0  0  0
   68.4077   46.3656   54.0063 C   0  0  0  0  0  0  0  0  0  0  0  0
   68.4410   46.0016   52.6769 C   0  0  0  0  0  0  0  0  0  0  0  0
   69.0084   46.8402   51.7191 C   0  0  0  0  0  0  0  0  0  0  0  0
   69.5484   48.0490   52.0731 C   0  0  0  0  0  0  0  0  0  0  0  0
   69.5119   48.4108   53.4143 C   0  0  0  0  0  0  0  0  0  0  0  0
   68.9514   47.5810   54.3575 C   0  0  0  0  0  0  0  0  0  0  0  0
   72.0750   35.1939   58.8231 C   0  0  0  0  0  0  0  0  0  0  0  0
   71.4545   34.1920   59.3939 O   0  0  0  0  0  0  0  0  0  0  0  0
   70.6737   34.5847   60.3480 C   0  0  0  0  0  0  0  0  0  0  0  0
   70.7921   35.9208   60.4031 N   0  0  0  0  0  0  0  0  0  0  0  0
   71.6601   36.3170   59.4594 C   0  0  0  0  0  0  0  0  0  0  0  0
   74.4010   35.4741   58.2708 C   0  0  0  0  0  0  0  0  0  0  0  0
   73.0201   35.0955   57.7202 C   0  0  0  0  0  0  0  0  0  0  0  0
   73.0822   33.6659   57.2276 C   0  0  0  0  0  0  0  0  0  0  0  0
   72.6980   36.0029   56.5608 C   0  0  0  0  0  0  0  0  0  0  0  0
 29 30  1  0
 30 31  1  0
 30 32  1  0
 30 24  1  0
 24 25  1  0
 24 28  2  0
 25 26  1  0
 26 27  2  0
 27 28  1  0
 28  1  1  0
  1  2  2  0
  2  3  1  0
  2  9  1  0
  3  4  1  0
  4  5  2  0
  4  6  1  0
  6  7  2  0
  6  8  1  0
  7 11  1  0
 11 12  2  0
 11 16  1  0
 12 13  1  0
 13 14  2  0
 14 15  1  0
 15 17  1  0
 15 16  2  0
 17 18  1  0
 18 19  2  0
 18 23  1  0
 19 20  1  0
 20 21  2  0
 21 22  1  0
 22 23  2  0
  8  9  1  0
  9 10  2  0
M  END
>  <minimizedAffinity>  (10) 
-9.93896

$$$$
data/200k_reference_output/data/smiles/39583.pdb
     RDKit          3D

 33 37  0  0  0  0  0  0  0  0999 V2000
   71.5234   47.0190   58.8403 C   0  0  0  0  0  0  0  0  0  0  0  0
   70.7181   47.7930   58.0649 C   0  0  0  0  0  0  0  0  0  0  0  0
   69.7933   47.2540   57.1449 C   0  0  0  0  0  0  0  0  0  0  0  0
   69.7566   45.8953   57.0837 C   0  0  0  0  0  0  0  0  0  0  0  0
   70.5781   45.0842   57.8745 C   0  0  0  0  0  0  0  0  0  0  0  0
   71.4654   45.6452   58.7559 C   0  0  0  0  0  0  0  0  0  0  0  0
   72.2823   44.8682   59.5429 F   0  0  0  0  0  0  0  0  0  0  0  0
   72.0250   47.8144   60.9573 O   0  0  0  0  0  0  0  0  0  0  0  0
   72.4692   47.5748   59.7861 C   0  0  0  0  0  0  0  0  0  0  0  0
   73.8457   47.8545   59.4610 N   0  0  0  0  0  0  0  0  0  0  0  0
   74.5975   48.3690   60.5677 C   0  0  0  0  0  0  0  0  0  0  0  0
   75.3890   49.5979   60.2873 C   0  0  0  0  0  0  0  0  0  0  0  0
   74.6409   50.5482   59.3432 C   0  0  0  0  0  0  0  0  0  0  0  0
   74.4392   49.9867   58.0627 N   0  0  0  0  0  0  0  0  0  0  0  0
   73.6343   50.4914   57.0522 C   0  0  0  0  0  0  0  0  0  0  0  0
   73.5796   49.8254   55.9163 O   0  0  0  0  0  0  0  0  0  0  0  0
   75.1218   48.7274   57.6315 C   0  0  0  0  0  0  0  0  0  0  0  0
   74.2522   47.5931   58.1055 C   0  0  0  0  0  0  0  0  0  0  0  0
   72.8149   51.6895   57.0602 C   0  0  0  0  0  0  0  0  0  0  0  0
   71.9902   52.2252   58.1416 C   0  0  0  0  0  0  0  0  0  0  0  0
   71.2584   51.5290   57.0776 C   0  0  0  0  0  0  0  0  0  0  0  0
   68.9466   48.1857   56.3369 C   0  0  0  0  0  0  0  0  0  0  0  0
   69.3154   48.2768   54.9307 C   0  0  0  0  0  0  0  0  0  0  0  0
   70.2733   49.1890   54.5766 N   0  0  0  0  0  0  0  0  0  0  0  0
   70.7272   49.3216   53.3559 N   0  0  0  0  0  0  0  0  0  0  0  0
   70.2759   48.5594   52.3427 C   0  0  0  0  0  0  0  0  0  0  0  0
   70.7201   48.6962   51.1777 O   0  0  0  0  0  0  0  0  0  0  0  0
   69.3031   47.6025   52.5837 C   0  0  0  0  0  0  0  0  0  0  0  0
   68.8038   46.8174   51.5743 C   0  0  0  0  0  0  0  0  0  0  0  0
   67.8286   45.8974   51.8458 C   0  0  0  0  0  0  0  0  0  0  0  0
   67.3771   45.7968   53.1603 C   0  0  0  0  0  0  0  0  0  0  0  0
   67.8797   46.5855   54.1742 C   0  0  0  0  0  0  0  0  0  0  0  0
   68.8493   47.4960   53.8996 C   0  0  0  0  0  0  0  0  0  0  0  0
  8  9  2  0
  9  1  1  0
  9 10  1  0
  1  2  2  0
  1  6  1  0
  2  3  1  0
  3 22  1  0
  3  4  2  0
 22 23  1  0
 23 24  2  0
 23 33  1  0
 24 25  1  0
 25 26  1  0
 26 27  2  0
 26 28  1  0
 28 29  1  0
 28 33  2  0
 29 30  2  0
 30 31  1  0
 31 32  2  0
 32 33  1  0
  4  5  1  0
  5  6  2  0
  6  7  1  0
 10 11  1  0
 10 18  1  0
 11 12  1  0
 12 13  1  0
 13 14  1  0
 14 15  1  0
 14 17  1  0
 15 16  2  0
 15 19  1  0
 19 20  1  0
 19 21  1  0
 20 21  1  0
 17 18  1  0
M  END
>  <minimizedAffinity>  (11) 
-9.91872

$$$$
data/reference_output_2/data/smiles/180054.pdb
     RDKit          3D

 31 35  0  0  0  0  0  0  0  0999 V2000
   69.3125   40.0454   58.0100 C   0  0  0  0  0  0  0  0  0  0  0  0
   68.1960   40.0634   57.2031 C   0  0  0  0  0  0  0  0  0  0  0  0
   67.7888   41.2332   56.5910 C   0  0  0  0  0  0  0  0  0  0  0  0
   68.4686   42.4223   56.7536 C   0  0  0  0  0  0  0  0  0  0  0  0
   69.6048   42.4197   57.5702 C   0  0  0  0  0  0  0  0  0  0  0  0
   69.9901   41.2529   58.1666 C   0  0  0  0  0  0  0  0  0  0  0  0
   73.0119   35.9678   57.2277 C   0  0  0  0  0  0  0  0  0  0  0  0
   72.1460   35.9510   58.3945 N   0  0  0  0  0  0  0  0  0  0  0  0
   72.1406   35.0152   59.3493 C   0  0  0  0  0  0  0  0  0  0  0  0
   72.9105   34.0133   59.3423 O   0  0  0  0  0  0  0  0  0  0  0  0
   71.2024   35.3321   60.2735 N   0  0  0  0  0  0  0  0  0  0  0  0
   70.6039   36.4782   59.9078 C   0  0  0  0  0  0  0  0  0  0  0  0
   69.6207   37.2407   60.4413 N   0  0  0  0  0  0  0  0  0  0  0  0
   69.2000   38.3739   59.8513 C   0  0  0  0  0  0  0  0  0  0  0  0
   69.7562   38.8169   58.6647 C   0  0  0  0  0  0  0  0  0  0  0  0
   70.7589   38.0252   58.1350 C   0  0  0  0  0  0  0  0  0  0  0  0
   71.2001   36.8633   58.7249 C   0  0  0  0  0  0  0  0  0  0  0  0
   70.3308   43.6714   57.7508 C   0  0  0  0  0  0  0  0  0  0  0  0
   71.5861   43.6932   57.8340 O   0  0  0  0  0  0  0  0  0  0  0  0
   69.6630   44.9195   57.8399 N   0  0  0  0  0  0  0  0  0  0  0  0
   70.3765   46.1620   58.0171 C   0  0  0  0  0  0  0  0  0  0  0  0
   69.6614   47.3582   57.4289 C   0  0  0  0  0  0  0  0  0  0  0  0
   69.2186   47.0636   56.0195 C   0  0  0  0  0  0  0  0  0  0  0  0
   68.4139   46.0687   55.6060 N   0  0  0  0  0  0  0  0  0  0  0  0
   68.2415   46.1172   54.2715 C   0  0  0  0  0  0  0  0  0  0  0  0
   67.5293   45.3530   53.3569 C   0  0  0  0  0  0  0  0  0  0  0  0
   67.5551   45.6703   52.0140 C   0  0  0  0  0  0  0  0  0  0  0  0
   68.2841   46.7505   51.5325 C   0  0  0  0  0  0  0  0  0  0  0  0
   68.9794   47.4905   52.4613 C   0  0  0  0  0  0  0  0  0  0  0  0
   68.9699   47.1927   53.8159 C   0  0  0  0  0  0  0  0  0  0  0  0
   69.5494   47.7424   54.9062 N   0  0  0  0  0  0  0  0  0  0  0  0
  7  8  1  0
  8  9  1  0
  8 17  1  0
  9 10  2  0
  9 11  1  0
 11 12  1  0
 12 13  1  0
 12 17  2  0
 13 14  2  0
 14 15  1  0
 15  1  1  0
 15 16  2  0
  1  2  2  0
  1  6  1  0
  2  3  1  0
  3  4  2  0
  4  5  1  0
  5 18  1  0
  5  6  2  0
 18 19  2  0
 18 20  1  0
 20 21  1  0
 21 22  1  0
 22 23  1  0
 23 24  2  0
 23 31  1  0
 24 25  1  0
 25 26  2  0
 25 30  1  0
 26 27  1  0
 27 28  2  0
 28 29  1  0
 29 30  2  0
 30 31  1  0
 16 17  1  0
M  CHG  1  24   1
M  END
>  <minimizedAffinity>  (12) 
-9.88948

$$$$
data/200k_reference_output/data/smiles/16557.pdb
     RDKit          3D

 33 37  0  0  0  0  0  0  0  0999 V2000
   70.9159   49.4854   58.5049 C   0  0  0  0  0  0  0  0  0  0  0  0
   70.8280   48.1662   58.5851 C   0  0  0  0  0  0  0  0  0  0  0  0
   70.1342   47.4819   57.6607 N   0  0  0  0  0  0  0  0  0  0  0  0
   70.0585   46.1628   57.7626 C   0  0  0  0  0  0  0  0  0  0  0  0
   69.4085   45.5202   56.8967 O   0  0  0  0  0  0  0  0  0  0  0  0
   70.6753   45.4682   58.7952 C   0  0  0  0  0  0  0  0  0  0  0  0
   70.5706   44.1446   58.8530 C   0  0  0  0  0  0  0  0  0  0  0  0
   71.3716   46.1522   59.7221 N   0  0  0  0  0  0  0  0  0  0  0  0
   71.4531   47.4763   59.6290 C   0  0  0  0  0  0  0  0  0  0  0  0
   72.1036   48.1730   60.4847 O   0  0  0  0  0  0  0  0  0  0  0  0
   69.7383   50.2593   55.0376 C   0  0  0  0  0  0  0  0  0  0  0  0
   69.0658   51.4684   55.2801 C   0  0  0  0  0  0  0  0  0  0  0  0
   69.0014   52.0174   56.5446 C   0  0  0  0  0  0  0  0  0  0  0  0
   69.5991   51.3946   57.6170 C   0  0  0  0  0  0  0  0  0  0  0  0
   70.2661   50.2121   57.4226 C   0  0  0  0  0  0  0  0  0  0  0  0
   70.3188   49.6764   56.1395 C   0  0  0  0  0  0  0  0  0  0  0  0
   70.4196   50.3427   52.8032 O   0  0  0  0  0  0  0  0  0  0  0  0
   69.8060   49.7130   53.6922 C   0  0  0  0  0  0  0  0  0  0  0  0
   69.1838   48.4590   53.3499 C   0  0  0  0  0  0  0  0  0  0  0  0
   68.5158   47.6511   54.2375 C   0  0  0  0  0  0  0  0  0  0  0  0
   67.9437   46.4387   53.8811 C   0  0  0  0  0  0  0  0  0  0  0  0
   68.0384   46.0071   52.5771 C   0  0  0  0  0  0  0  0  0  0  0  0
   67.4709   44.8049   52.2307 F   0  0  0  0  0  0  0  0  0  0  0  0
   68.6986   46.7891   51.6670 C   0  0  0  0  0  0  0  0  0  0  0  0
   69.2616   47.9919   52.0359 C   0  0  0  0  0  0  0  0  0  0  0  0
   71.2157   43.4182   59.9333 C   0  0  0  0  0  0  0  0  0  0  0  0
   70.9100   43.4923   61.2614 N   0  0  0  0  0  0  0  0  0  0  0  0
   71.7522   42.6706   61.8936 C   0  0  0  0  0  0  0  0  0  0  0  0
   72.5677   42.0905   61.0018 N   0  0  0  0  0  0  0  0  0  0  0  0
   72.2455   42.5492   59.7564 C   0  0  0  0  0  0  0  0  0  0  0  0
   72.9716   42.0894   58.5558 C   0  0  0  0  0  0  0  0  0  0  0  0
   74.4603   42.3774   58.4599 C   0  0  0  0  0  0  0  0  0  0  0  0
   73.4494   42.9607   57.4893 C   0  0  0  0  0  0  0  0  0  0  0  0
 17 18  2  0
 18 19  1  0
 18 11  1  0
 19 20  2  0
 19 25  1  0
 20 21  1  0
 21 22  2  0
 22 23  1  0
 22 24  1  0
 24 25  2  0
 11 12  2  0
 11 16  1  0
 12 13  1  0
 13 14  2  0
 14 15  1  0
 15  1  1  0
 15 16  2  0
  1  2  2  0
  2  3  1  0
  2  9  1  0
  3  4  1  0
  4  5  2  0
  4  6  1  0
  6  7  2  0
  6  8  1  0
  7 26  1  0
 26 27  1  0
 26 30  2  0
 27 28  2  0
 28 29  1  0
 29 30  1  0
 30 31  1  0
 31 32  1  0
 31 33  1  0
 32 33  1  0
  8  9  1  0
  9 10  2  0
M  CHG  1  27   1
M  END
>  <minimizedAffinity>  (13) 
-9.87300

$$$$
data/reference_output_2/data/smiles/192565.pdb
     RDKit          3D

 33 36  0  0  0  0  0  0  0  0999 V2000
   70.7728   44.4753   59.0044 C   0  0  0  0  0  0  0  0  0  0  0  0
   70.7948   45.7950   58.8637 C   0  0  0  0  0  0  0  0  0  0  0  0
   71.4785   46.5554   59.7329 N   0  0  0  0  0  0  0  0  0  0  0  0
   71.4501   47.8853   59.5645 C   0  0  0  0  0  0  0  0  0  0  0  0
   72.0965   48.5978   60.3872 O   0  0  0  0  0  0  0  0  0  0  0  0
   70.7644   48.5388   58.5590 C   0  0  0  0  0  0  0  0  0  0  0  0
   70.7514   49.8468   58.4110 C   0  0  0  0  0  0  0  0  0  0  0  0
   70.0852   47.7415   57.6992 N   0  0  0  0  0  0  0  0  0  0  0  0
   70.0878   46.4126   57.8293 C   0  0  0  0  0  0  0  0  0  0  0  0
   69.4485   45.7002   57.0151 O   0  0  0  0  0  0  0  0  0  0  0  0
   69.9871   50.4244   57.3129 C   0  0  0  0  0  0  0  0  0  0  0  0
   68.9706   51.3078   57.5933 C   0  0  0  0  0  0  0  0  0  0  0  0
   68.2240   51.8932   56.5877 C   0  0  0  0  0  0  0  0  0  0  0  0
   68.5292   51.5617   55.2652 C   0  0  0  0  0  0  0  0  0  0  0  0
   69.5394   50.6825   54.9586 C   0  0  0  0  0  0  0  0  0  0  0  0
   70.2586   50.1216   55.9989 C   0  0  0  0  0  0  0  0  0  0  0  0
   69.8505   50.3967   53.5783 C   0  0  0  0  0  0  0  0  0  0  0  0
   70.3370   51.2898   52.8514 O   0  0  0  0  0  0  0  0  0  0  0  0
   69.6070   49.0874   53.0099 C   0  0  0  0  0  0  0  0  0  0  0  0
   68.8350   48.1261   53.6353 C   0  0  0  0  0  0  0  0  0  0  0  0
   68.6288   46.8815   53.0421 C   0  0  0  0  0  0  0  0  0  0  0  0
   69.1918   46.5823   51.8108 C   0  0  0  0  0  0  0  0  0  0  0  0
   69.9376   47.5178   51.2104 N   0  0  0  0  0  0  0  0  0  0  0  0
   70.1425   48.7350   51.7853 C   0  0  0  0  0  0  0  0  0  0  0  0
   72.6581   43.0903   59.9205 C   0  0  0  0  0  0  0  0  0  0  0  0
   73.0024   42.5960   61.0973 N   0  0  0  0  0  0  0  0  0  0  0  0
   72.0824   42.9492   62.0098 C   0  0  0  0  0  0  0  0  0  0  0  0
   71.1308   43.6912   61.3796 N   0  0  0  0  0  0  0  0  0  0  0  0
   71.4694   43.7908   60.0829 C   0  0  0  0  0  0  0  0  0  0  0  0
   72.4334   42.5247   57.5181 C   0  0  0  0  0  0  0  0  0  0  0  0
   73.3616   42.9634   58.6323 C   0  0  0  0  0  0  0  0  0  0  0  0
   74.4300   41.9122   58.7644 C   0  0  0  0  0  0  0  0  0  0  0  0
   73.9924   44.2894   58.2358 C   0  0  0  0  0  0  0  0  0  0  0  0
 30 31  1  0
 31 32  1  0
 31 33  1  0
 31 25  1  0
 25 26  1  0
 25 29  2  0
 26 27  1  0
 27 28  2  0
 28 29  1  0
 29  1  1  0
  1  2  2  0
  2  3  1  0
  2  9  1  0
  3  4  1  0
  4  5  2  0
  4  6  1  0
  6  7  2  0
  6  8  1  0
  7 11  1  0
 11 12  2  0
 11 16  1  0
 12 13  1  0
 13 14  2  0
 14 15  1  0
 15 17  1  0
 15 16  2  0
 17 18  2  0
 17 19  1  0
 19 20  2  0
 19 24  1  0
 20 21  1  0
 21 22  2  0
 22 23  1  0
 23 24  2  0
  8  9  1  0
  9 10  2  0
M  CHG  1  28   1
M  END
>  <minimizedAffinity>  (14) 
-9.87216

$$$$
data/200k_reference_output/data/smiles/4308.pdb
     RDKit          3D

 33 37  0  0  0  0  0  0  0  0999 V2000
   71.0342   48.7535   58.9666 C   0  0  0  0  0  0  0  0  0  0  0  0
   70.7982   50.1066   59.0125 C   0  0  0  0  0  0  0  0  0  0  0  0
   69.9308   50.7191   58.1442 C   0  0  0  0  0  0  0  0  0  0  0  0
   69.2724   49.9415   57.1888 C   0  0  0  0  0  0  0  0  0  0  0  0
   69.4708   48.5970   57.1006 C   0  0  0  0  0  0  0  0  0  0  0  0
   70.3698   48.0210   58.0158 C   0  0  0  0  0  0  0  0  0  0  0  0
   71.5479   47.2789   60.7174 O   0  0  0  0  0  0  0  0  0  0  0  0
   71.9531   48.1375   59.9000 C   0  0  0  0  0  0  0  0  0  0  0  0
   73.3460   48.5073   59.8964 N   0  0  0  0  0  0  0  0  0  0  0  0
   74.2357   47.8695   60.8375 C   0  0  0  0  0  0  0  0  0  0  0  0
   75.5464   48.5708   61.0441 C   0  0  0  0  0  0  0  0  0  0  0  0
   75.8778   49.4568   59.9298 N   0  0  0  0  0  0  0  0  0  0  0  0
   77.1394   49.3755   59.3036 C   0  0  0  0  0  0  0  0  0  0  0  0
   77.9654   48.5083   59.7085 O   0  0  0  0  0  0  0  0  0  0  0  0
   74.8266   50.3659   59.5387 C   0  0  0  0  0  0  0  0  0  0  0  0
   73.7401   49.5029   58.9227 C   0  0  0  0  0  0  0  0  0  0  0  0
   77.5507   50.2459   58.1966 C   0  0  0  0  0  0  0  0  0  0  0  0
   77.3573   49.5340   56.8422 C   0  0  0  0  0  0  0  0  0  0  0  0
   78.0648   50.5142   55.9292 C   0  0  0  0  0  0  0  0  0  0  0  0
   79.1869   51.1282   56.7760 C   0  0  0  0  0  0  0  0  0  0  0  0
   79.0768   50.4099   58.1226 C   0  0  0  0  0  0  0  0  0  0  0  0
   68.8151   47.7007   56.1008 C   0  0  0  0  0  0  0  0  0  0  0  0
   69.2196   47.9419   54.7170 C   0  0  0  0  0  0  0  0  0  0  0  0
   70.1128   48.9496   54.4571 N   0  0  0  0  0  0  0  0  0  0  0  0
   70.5023   49.2748   53.2517 N   0  0  0  0  0  0  0  0  0  0  0  0
   70.0508   48.6379   52.1621 C   0  0  0  0  0  0  0  0  0  0  0  0
   70.4370   48.9657   51.0034 O   0  0  0  0  0  0  0  0  0  0  0  0
   69.1401   47.6029   52.3622 C   0  0  0  0  0  0  0  0  0  0  0  0
   68.6808   46.9349   51.2603 C   0  0  0  0  0  0  0  0  0  0  0  0
   67.8037   45.9120   51.4412 C   0  0  0  0  0  0  0  0  0  0  0  0
   67.3719   45.5373   52.6942 C   0  0  0  0  0  0  0  0  0  0  0  0
   67.8484   46.2273   53.7968 C   0  0  0  0  0  0  0  0  0  0  0  0
   68.7303   47.2605   53.6310 C   0  0  0  0  0  0  0  0  0  0  0  0
  7  8  2  0
  8  1  1  0
  8  9  1  0
  1  2  2  0
  1  6  1  0
  2  3  1  0
  3  4  2  0
  4  5  1  0
  5 22  1  0
  5  6  2  0
 22 23  1  0
 23 24  2  0
 23 33  1  0
 24 25  1  0
 25 26  1  0
 26 27  2  0
 26 28  1  0
 28 29  1  0
 28 33  2  0
 29 30  2  0
 30 31  1  0
 31 32  2  0
 32 33  1  0
  9 10  1  0
  9 16  1  0
 10 11  1  0
 11 12  1  0
 12 13  1  0
 12 15  1  0
 13 14  2  0
 13 17  1  0
 17 18  1  0
 17 21  1  0
 18 19  1  0
 19 20  1  0
 20 21  1  0
 15 16  1  0
M  END
>  <minimizedAffinity>  (15) 
-9.86695

$$$$
data/200k_reference_output/data/smiles/82418.pdb
     RDKit          3D

 33 37  0  0  0  0  0  0  0  0999 V2000
   71.4075   47.3227   58.8586 C   0  0  0  0  0  0  0  0  0  0  0  0
   70.5335   48.0456   58.0859 C   0  0  0  0  0  0  0  0  0  0  0  0
   69.6692   47.4714   57.1587 C   0  0  0  0  0  0  0  0  0  0  0  0
   69.7177   46.1069   57.0304 C   0  0  0  0  0  0  0  0  0  0  0  0
   70.5865   45.3335   57.7915 C   0  0  0  0  0  0  0  0  0  0  0  0
   71.4203   45.9348   58.6944 C   0  0  0  0  0  0  0  0  0  0  0  0
   72.2945   45.2197   59.4711 F   0  0  0  0  0  0  0  0  0  0  0  0
   72.0828   47.7768   61.0515 O   0  0  0  0  0  0  0  0  0  0  0  0
   72.2982   47.9476   59.8450 C   0  0  0  0  0  0  0  0  0  0  0  0
   73.4040   48.7445   59.4331 N   0  0  0  0  0  0  0  0  0  0  0  0
   74.3180   49.3992   60.3393 C   0  0  0  0  0  0  0  0  0  0  0  0
   75.7266   48.9157   60.0640 C   0  0  0  0  0  0  0  0  0  0  0  0
   75.9878   48.9751   58.6135 N   0  0  0  0  0  0  0  0  0  0  0  0
   75.0435   48.2419   57.7948 C   0  0  0  0  0  0  0  0  0  0  0  0
   73.6993   48.9456   58.0066 C   0  0  0  0  0  0  0  0  0  0  0  0
   77.0683   49.7140   58.0873 C   0  0  0  0  0  0  0  0  0  0  0  0
   77.2390   49.9273   56.7431 C   0  0  0  0  0  0  0  0  0  0  0  0
   78.3026   50.6671   56.3066 C   0  0  0  0  0  0  0  0  0  0  0  0
   79.2046   51.2027   57.1445 N   0  0  0  0  0  0  0  0  0  0  0  0
   79.0784   51.0211   58.4621 C   0  0  0  0  0  0  0  0  0  0  0  0
   77.9936   50.2661   58.9356 C   0  0  0  0  0  0  0  0  0  0  0  0
   68.7442   48.2892   56.3395 C   0  0  0  0  0  0  0  0  0  0  0  0
   69.2569   48.3287   54.9471 C   0  0  0  0  0  0  0  0  0  0  0  0
   70.2974   49.1807   54.6490 N   0  0  0  0  0  0  0  0  0  0  0  0
   70.7970   49.2976   53.4456 N   0  0  0  0  0  0  0  0  0  0  0  0
   70.2909   48.5687   52.4549 C   0  0  0  0  0  0  0  0  0  0  0  0
   70.7535   48.6667   51.2978 O   0  0  0  0  0  0  0  0  0  0  0  0
   69.2274   47.6666   52.6459 C   0  0  0  0  0  0  0  0  0  0  0  0
   68.7399   47.5816   53.9300 C   0  0  0  0  0  0  0  0  0  0  0  0
   67.6271   46.6396   54.2285 C   0  0  0  0  0  0  0  0  0  0  0  0
   67.8023   45.4387   53.2986 C   0  0  0  0  0  0  0  0  0  0  0  0
   67.7240   45.8852   51.8674 C   0  0  0  0  0  0  0  0  0  0  0  0
   68.7177   46.9087   51.4924 C   0  0  0  0  0  0  0  0  0  0  0  0
  8  9  2  0
  9  1  1  0
  9 10  1  0
  1  2  2  0
  1  6  1  0
  2  3  1  0
  3 22  1  0
  3  4  2  0
 22 23  1  0
 23 24  2  0
 23 29  1  0
 24 25  1  0
 25 26  1  0
 26 27  2  0
 26 28  1  0
 28 29  2  0
 28 33  1  0
 29 30  1  0
 30 31  1  0
 31 32  1  0
 32 33  1  0
  4  5  1  0
  5  6  2  0
  6  7  1  0
 10 11  1  0
 10 15  1  0
 11 12  1  0
 12 13  1  0
 13 16  1  0
 13 14  1  0
 16 17  2  0
 16 21  1  0
 17 18  1  0
 18 19  2  0
 19 20  1  0
 20 21  2  0
 14 15  1  0
M  END
>  <minimizedAffinity>  (16) 
-9.86691

$$$$
data/reference_output_2/data/smiles/175669.pdb
     RDKit          3D

 33 37  0  0  0  0  0  0  0  0999 V2000
   71.8767   46.5623   59.2455 C   0  0  0  0  0  0  0  0  0  0  0  0
   70.9350   47.1853   58.4712 C   0  0  0  0  0  0  0  0  0  0  0  0
   70.1301   46.5013   57.5465 C   0  0  0  0  0  0  0  0  0  0  0  0
   70.3158   45.1597   57.4363 C   0  0  0  0  0  0  0  0  0  0  0  0
   71.2589   44.5195   58.2083 C   0  0  0  0  0  0  0  0  0  0  0  0
   72.0516   45.2059   59.1216 C   0  0  0  0  0  0  0  0  0  0  0  0
   72.9627   44.5108   59.8508 F   0  0  0  0  0  0  0  0  0  0  0  0
   72.2036   47.5992   61.3058 O   0  0  0  0  0  0  0  0  0  0  0  0
   72.6778   47.3212   60.1808 C   0  0  0  0  0  0  0  0  0  0  0  0
   73.9904   47.7723   59.8799 N   0  0  0  0  0  0  0  0  0  0  0  0
   74.7691   48.5231   60.8123 C   0  0  0  0  0  0  0  0  0  0  0  0
   75.7493   49.4879   60.1811 C   0  0  0  0  0  0  0  0  0  0  0  0
   76.3418   48.8912   58.9775 N   0  0  0  0  0  0  0  0  0  0  0  0
   76.0324   47.5150   58.6645 C   0  0  0  0  0  0  0  0  0  0  0  0
   74.5214   47.4437   58.5802 C   0  0  0  0  0  0  0  0  0  0  0  0
   77.1941   49.6557   58.1606 C   0  0  0  0  0  0  0  0  0  0  0  0
   78.3433   50.3044   58.5352 C   0  0  0  0  0  0  0  0  0  0  0  0
   79.1053   51.0368   57.6510 C   0  0  0  0  0  0  0  0  0  0  0  0
   78.7263   51.1406   56.3393 C   0  0  0  0  0  0  0  0  0  0  0  0
   77.5720   50.4891   55.9629 C   0  0  0  0  0  0  0  0  0  0  0  0
   76.8473   49.7825   56.8402 N   0  0  0  0  0  0  0  0  0  0  0  0
   69.1413   47.3114   56.7839 C   0  0  0  0  0  0  0  0  0  0  0  0
   68.6559   46.6460   55.5547 C   0  0  0  0  0  0  0  0  0  0  0  0
   68.0464   45.4353   55.6147 N   0  0  0  0  0  0  0  0  0  0  0  0
   67.5695   44.7752   54.5936 N   0  0  0  0  0  0  0  0  0  0  0  0
   67.6791   45.3188   53.3715 C   0  0  0  0  0  0  0  0  0  0  0  0
   67.2233   44.6994   52.3511 O   0  0  0  0  0  0  0  0  0  0  0  0
   68.2850   46.5452   53.2186 C   0  0  0  0  0  0  0  0  0  0  0  0
   68.7818   47.2250   54.3109 C   0  0  0  0  0  0  0  0  0  0  0  0
   69.4447   48.5409   54.1239 C   0  0  0  0  0  0  0  0  0  0  0  0
   70.1796   48.6931   52.8385 C   0  0  0  0  0  0  0  0  0  0  0  0
   69.8555   47.6646   51.7951 C   0  0  0  0  0  0  0  0  0  0  0  0
   68.4243   47.1836   51.8881 C   0  0  0  0  0  0  0  0  0  0  0  0
  8  9  2  0
  9  1  1  0
  9 10  1  0
  1  2  2  0
  1  6  1  0
  2  3  1  0
  3 22  1  0
  3  4  2  0
 22 23  1  0
 23 24  2  0
 23 29  1  0
 24 25  1  0
 25 26  1  0
 26 27  2  0
 26 28  1  0
 28 29  2  0
 28 33  1  0
 29 30  1  0
 30 31  1  0
 31 32  1  0
 32 33  1  0
  4  5  1  0
  5  6  2  0
  6  7  1  0
 10 11  1  0
 10 15  1  0
 11 12  1  0
 12 13  1  0
 13 16  1  0
 13 14  1  0
 16 17  2  0
 16 21  1  0
 17 18  1  0
 18 19  2  0
 19 20  1  0
 20 21  2  0
 14 15  1  0
M  END
>  <minimizedAffinity>  (17) 
-9.81302

$$$$
data/200k_reference_output/data/smiles/64370.pdb
     RDKit          3D

 29 31  0  0  0  0  0  0  0  0999 V2000
   68.3401   46.0378   53.9838 C   0  0  0  0  0  0  0  0  0  0  0  0
   69.0399   47.2315   54.0310 C   0  0  0  0  0  0  0  0  0  0  0  0
   69.2226   48.0352   52.9280 C   0  0  0  0  0  0  0  0  0  0  0  0
   68.6908   47.6394   51.7246 C   0  0  0  0  0  0  0  0  0  0  0  0
   67.9931   46.4710   51.6287 C   0  0  0  0  0  0  0  0  0  0  0  0
   67.8301   45.6833   52.7721 C   0  0  0  0  0  0  0  0  0  0  0  0
   67.1186   44.5352   52.5752 F   0  0  0  0  0  0  0  0  0  0  0  0
   67.7773   43.8905   55.2587 N   0  0  0  0  0  0  0  0  0  0  0  0
   68.1731   45.2294   55.1602 C   0  0  0  0  0  0  0  0  0  0  0  0
   68.4132   45.7854   56.3018 O   0  0  0  0  0  0  0  0  0  0  0  0
   67.4481   41.1700   55.5224 O   0  0  0  0  0  0  0  0  0  0  0  0
   67.4858   41.8169   56.6034 C   0  0  0  0  0  0  0  0  0  0  0  0
   67.6529   43.2118   56.4928 N   0  0  0  0  0  0  0  0  0  0  0  0
   67.3567   41.1078   57.8683 C   0  0  0  0  0  0  0  0  0  0  0  0
   67.9768   39.9084   58.1208 C   0  0  0  0  0  0  0  0  0  0  0  0
   67.8203   39.2760   59.3398 C   0  0  0  0  0  0  0  0  0  0  0  0
   67.0494   39.8176   60.3267 C   0  0  0  0  0  0  0  0  0  0  0  0
   66.4116   41.0275   60.0987 C   0  0  0  0  0  0  0  0  0  0  0  0
   65.4163   41.7387   61.3564 Cl  0  0  0  0  0  0  0  0  0  0  0  0
   66.5805   41.6428   58.8760 C   0  0  0  0  0  0  0  0  0  0  0  0
   70.1188   49.5303   53.0648 S   0  0  0  0  0  0  0  0  0  0  0  0
   71.5808   49.1801   53.0410 O   0  0  0  0  0  0  0  0  0  0  0  0
   69.8625   50.4461   51.8971 O   0  0  0  0  0  0  0  0  0  0  0  0
   69.7936   50.3743   54.5052 N   0  0  0  0  0  0  0  0  0  0  0  0
   70.9478   50.7124   55.2748 C   0  0  0  0  0  0  0  0  0  0  0  0
   71.2642   52.1763   55.0161 C   0  0  0  0  0  0  0  0  0  0  0  0
   70.2869   53.0185   55.4891 O   0  0  0  0  0  0  0  0  0  0  0  0
   69.0268   52.4723   55.4475 C   0  0  0  0  0  0  0  0  0  0  0  0
   68.8505   51.4452   54.3552 C   0  0  0  0  0  0  0  0  0  0  0  0
 11 12  2  0
 12 13  1  0
 12 14  1  0
 13  8  1  0
  8  9  1  0
  9 10  2  0
  9  1  1  0
  1  2  2  0
  1  6  1  0
  2  3  1  0
  3 21  1  0
  3  4  2  0
 21 22  2  0
 21 23  2  0
 21 24  1  0
 24 25  1  0
 24 29  1  0
 25 26  1  0
 26 27  1  0
 27 28  1  0
 28 29  1  0
  4  5  1  0
  5  6  2  0
  6  7  1  0
 14 15  2  0
 14 20  1  0
 15 16  1  0
 16 17  2  0
 17 18  1  0
 18 19  1  0
 18 20  2  0
M  END
>  <minimizedAffinity>  (18) 
-9.81105

$$$$
data/reference_output_2/data/smiles/196543.pdb
     RDKit          3D

 32 36  0  0  0  0  0  0  0  0999 V2000
   71.9085   47.5620   58.6782 C   0  0  0  0  0  0  0  0  0  0  0  0
   73.0987   48.2434   58.3990 C   0  0  0  0  0  0  0  0  0  0  0  0
   73.1723   49.2297   57.4490 C   0  0  0  0  0  0  0  0  0  0  0  0
   72.0365   49.5771   56.7285 C   0  0  0  0  0  0  0  0  0  0  0  0
   70.8623   48.9175   56.9905 C   0  0  0  0  0  0  0  0  0  0  0  0
   70.7913   47.9138   57.9603 C   0  0  0  0  0  0  0  0  0  0  0  0
   71.7420   46.9249   60.8931 O   0  0  0  0  0  0  0  0  0  0  0  0
   71.9212   46.5193   59.6915 C   0  0  0  0  0  0  0  0  0  0  0  0
   72.1058   45.1475   59.4842 N   0  0  0  0  0  0  0  0  0  0  0  0
   72.3127   44.6024   58.1626 C   0  0  0  0  0  0  0  0  0  0  0  0
   72.5893   43.1098   58.2216 C   0  0  0  0  0  0  0  0  0  0  0  0
   71.6866   42.4250   59.1038 N   0  0  0  0  0  0  0  0  0  0  0  0
   71.1121   43.1144   60.2251 C   0  0  0  0  0  0  0  0  0  0  0  0
   72.0940   44.2325   60.6056 C   0  0  0  0  0  0  0  0  0  0  0  0
   71.3729   41.0664   58.8606 C   0  0  0  0  0  0  0  0  0  0  0  0
   72.3212   40.0521   58.8744 C   0  0  0  0  0  0  0  0  0  0  0  0
   71.9934   38.7313   58.6289 C   0  0  0  0  0  0  0  0  0  0  0  0
   70.6930   38.3659   58.3571 C   0  0  0  0  0  0  0  0  0  0  0  0
   69.7618   39.3920   58.3489 C   0  0  0  0  0  0  0  0  0  0  0  0
   70.1030   40.6640   58.5896 N   0  0  0  0  0  0  0  0  0  0  0  0
   69.6283   49.2591   56.2218 C   0  0  0  0  0  0  0  0  0  0  0  0
   69.8268   48.8703   54.8082 C   0  0  0  0  0  0  0  0  0  0  0  0
   70.7370   49.5435   54.0527 N   0  0  0  0  0  0  0  0  0  0  0  0
   70.9620   49.2719   52.7850 N   0  0  0  0  0  0  0  0  0  0  0  0
   70.2823   48.2929   52.1683 C   0  0  0  0  0  0  0  0  0  0  0  0
   70.5230   48.0564   50.9427 O   0  0  0  0  0  0  0  0  0  0  0  0
   69.3388   47.5533   52.8490 C   0  0  0  0  0  0  0  0  0  0  0  0
   69.1261   47.8627   54.1831 C   0  0  0  0  0  0  0  0  0  0  0  0
   68.1339   47.0765   54.9411 C   0  0  0  0  0  0  0  0  0  0  0  0
   68.0797   45.6654   54.3834 C   0  0  0  0  0  0  0  0  0  0  0  0
   67.6350   45.7490   52.9379 C   0  0  0  0  0  0  0  0  0  0  0  0
   68.6271   46.4984   52.0980 C   0  0  0  0  0  0  0  0  0  0  0  0
  7  8  2  0
  8  1  1  0
  8  9  1  0
  1  2  2  0
  1  6  1  0
  2  3  1  0
  3  4  2  0
  4  5  1  0
  5 21  1  0
  5  6  2  0
 21 22  1  0
 22 23  2  0
 22 28  1  0
 23 24  1  0
 24 25  1  0
 25 26  2  0
 25 27  1  0
 27 28  2  0
 27 32  1  0
 28 29  1  0
 29 30  1  0
 30 31  1  0
 31 32  1  0
  9 10  1  0
  9 14  1  0
 10 11  1  0
 11 12  1  0
 12 15  1  0
 12 13  1  0
 15 16  2  0
 15 20  1  0
 16 17  1  0
 17 18  2  0
 18 19  1  0
 19 20  2  0
 13 14  1  0
M  END
>  <minimizedAffinity>  (19) 
-9.80801

$$$$
data/reference_output_2/data/smiles/195180.pdb
     RDKit          3D

 30 32  0  0  0  0  0  0  0  0999 V2000
   67.8338   43.7157   56.0696 N   0  0  0  0  0  0  0  0  0  0  0  0
   68.5826   42.7343   56.8003 C   0  0  0  0  0  0  0  0  0  0  0  0
   69.6836   43.1318   57.2301 O   0  0  0  0  0  0  0  0  0  0  0  0
   68.1520   41.4363   57.0326 N   0  0  0  0  0  0  0  0  0  0  0  0
   68.8210   40.4105   57.7375 C   0  0  0  0  0  0  0  0  0  0  0  0
   68.1134   39.2544   58.1110 C   0  0  0  0  0  0  0  0  0  0  0  0
   68.7232   38.2361   58.7956 C   0  0  0  0  0  0  0  0  0  0  0  0
   70.0500   38.2632   59.1646 C   0  0  0  0  0  0  0  0  0  0  0  0
   70.7602   39.3820   58.8102 C   0  0  0  0  0  0  0  0  0  0  0  0
   70.1373   40.4300   58.1079 C   0  0  0  0  0  0  0  0  0  0  0  0
   70.6398   37.2052   59.8625 O   0  0  0  0  0  0  0  0  0  0  0  0
   71.3170   36.1941   59.1921 C   0  0  0  0  0  0  0  0  0  0  0  0
   71.3417   34.8859   59.6376 C   0  0  0  0  0  0  0  0  0  0  0  0
   72.0205   33.8886   58.9599 C   0  0  0  0  0  0  0  0  0  0  0  0
   72.7033   34.1688   57.8039 C   0  0  0  0  0  0  0  0  0  0  0  0
   72.6917   35.4686   57.3427 C   0  0  0  0  0  0  0  0  0  0  0  0
   72.0079   36.4623   58.0287 C   0  0  0  0  0  0  0  0  0  0  0  0
   68.2528   45.6819   54.6226 C   0  0  0  0  0  0  0  0  0  0  0  0
   67.7783   45.0446   53.6261 O   0  0  0  0  0  0  0  0  0  0  0  0
   68.2773   45.0074   55.8467 N   0  0  0  0  0  0  0  0  0  0  0  0
   69.6217   49.6826   53.9126 C   0  0  0  0  0  0  0  0  0  0  0  0
   69.3351   49.2397   55.1853 C   0  0  0  0  0  0  0  0  0  0  0  0
   68.8884   47.9337   55.4172 C   0  0  0  0  0  0  0  0  0  0  0  0
   68.7186   47.0429   54.3805 C   0  0  0  0  0  0  0  0  0  0  0  0
   69.0091   47.4995   53.1107 C   0  0  0  0  0  0  0  0  0  0  0  0
   69.4494   48.7852   52.8808 C   0  0  0  0  0  0  0  0  0  0  0  0
   69.1586   52.4710   54.4352 N   0  0  0  0  0  0  0  0  0  0  0  0
   70.1832   51.3241   53.6258 S   0  0  0  0  0  0  0  0  0  0  0  0
   71.6096   51.4801   54.0641 O   0  0  0  0  0  0  0  0  0  0  0  0
   70.0529   51.5928   52.1498 O   0  0  0  0  0  0  0  0  0  0  0  0
 27 28  1  0
 28 29  2  0
 28 30  2  0
 28 21  1  0
 21 22  2  0
 21 26  1  0
 22 23  1  0
 23 24  2  0
 24 18  1  0
 24 25  1  0
 18 19  2  0
 18 20  1  0
 20  1  1  0
  1  2  1  0
  2  3  2  0
  2  4  1  0
  4  5  1  0
  5  6  2  0
  5 10  1  0
  6  7  1  0
  7  8  2  0
  8 11  1  0
  8  9  1  0
 11 12  1  0
 12 13  2  0
 12 17  1  0
 13 14  1  0
 14 15  2  0
 15 16  1  0
 16 17  2  0
  9 10  2  0
 25 26  2  0
M  END
>  <minimizedAffinity>  (20) 
-9.79753

$$$$
data/200k_reference_output/data/smiles/1910.pdb
     RDKit          3D

 28 31  0  0  0  0  0  0  0  0999 V2000
   69.4081   40.5198   58.4953 N   0  0  0  0  0  0  0  0  0  0  0  0
   69.7129   41.6801   59.2989 C   0  0  0  0  0  0  0  0  0  0  0  0
   70.3071   42.7054   58.3231 C   0  0  0  0  0  0  0  0  0  0  0  0
   69.2924   43.0752   57.3147 C   0  0  0  0  0  0  0  0  0  0  0  0
   69.0400   44.2471   56.6200 C   0  0  0  0  0  0  0  0  0  0  0  0
   67.9587   43.9165   55.8173 N   0  0  0  0  0  0  0  0  0  0  0  0
   67.6016   42.6771   56.0114 N   0  0  0  0  0  0  0  0  0  0  0  0
   68.3792   42.0905   56.9237 C   0  0  0  0  0  0  0  0  0  0  0  0
   68.4068   40.7625   57.5070 C   0  0  0  0  0  0  0  0  0  0  0  0
   67.6098   39.8454   57.1867 O   0  0  0  0  0  0  0  0  0  0  0  0
   71.9495   35.4081   59.1237 C   0  0  0  0  0  0  0  0  0  0  0  0
   71.2860   36.7276   58.9723 C   0  0  0  0  0  0  0  0  0  0  0  0
   71.8435   37.7245   58.2097 C   0  0  0  0  0  0  0  0  0  0  0  0
   71.2489   38.9791   58.0436 C   0  0  0  0  0  0  0  0  0  0  0  0
   70.0604   39.2600   58.6515 C   0  0  0  0  0  0  0  0  0  0  0  0
   69.4913   38.2645   59.4199 C   0  0  0  0  0  0  0  0  0  0  0  0
   70.0867   37.0281   59.5785 C   0  0  0  0  0  0  0  0  0  0  0  0
   69.6301   45.5200   56.6207 N   0  0  0  0  0  0  0  0  0  0  0  0
   68.9613   46.9584   56.0249 S   0  0  0  0  0  0  0  0  0  0  0  0
   69.6612   48.2069   56.4834 O   0  0  0  0  0  0  0  0  0  0  0  0
   67.5302   47.1291   56.5717 O   0  0  0  0  0  0  0  0  0  0  0  0
   68.7597   46.8704   54.2956 C   0  0  0  0  0  0  0  0  0  0  0  0
   67.9256   45.9360   53.7237 C   0  0  0  0  0  0  0  0  0  0  0  0
   67.7315   45.8615   52.3496 C   0  0  0  0  0  0  0  0  0  0  0  0
   68.4170   46.7716   51.5767 C   0  0  0  0  0  0  0  0  0  0  0  0
   69.2585   47.7222   52.0935 C   0  0  0  0  0  0  0  0  0  0  0  0
   69.4271   47.7681   53.4505 C   0  0  0  0  0  0  0  0  0  0  0  0
   70.2447   48.6836   54.0334 F   0  0  0  0  0  0  0  0  0  0  0  0
 11 12  1  0
 12 13  2  0
 12 17  1  0
 13 14  1  0
 14 15  2  0
 15  1  1  0
 15 16  1  0
  1  2  1  0
  1  9  1  0
  2  3  1  0
  3  4  1  0
  4  5  1  0
  4  8  2  0
  5 18  1  0
  5  6  2  0
 18 19  1  0
 19 20  2  0
 19 21  2  0
 19 22  1  0
 22 23  2  0
 22 27  1  0
 23 24  1  0
 24 25  2  0
 25 26  1  0
 26 27  2  0
 27 28  1  0
  6  7  1  0
  7  8  1  0
  8  9  1  0
  9 10  2  0
 16 17  2  0
M  END
>  <minimizedAffinity>  (21) 
-9.78601

$$$$
data/reference_output_2/data/smiles/112256.pdb
     RDKit          3D

 31 34  0  0  0  0  0  0  0  0999 V2000
   71.3634   46.7828   58.8788 C   0  0  0  0  0  0  0  0  0  0  0  0
   70.4345   47.4713   58.1374 C   0  0  0  0  0  0  0  0  0  0  0  0
   69.5899   46.8609   57.1963 C   0  0  0  0  0  0  0  0  0  0  0  0
   69.7199   45.5124   57.0291 C   0  0  0  0  0  0  0  0  0  0  0  0
   70.6578   44.7869   57.7702 C   0  0  0  0  0  0  0  0  0  0  0  0
   71.4668   45.4195   58.6809 C   0  0  0  0  0  0  0  0  0  0  0  0
   72.3918   44.7506   59.4213 F   0  0  0  0  0  0  0  0  0  0  0  0
   71.8547   47.4520   61.0424 O   0  0  0  0  0  0  0  0  0  0  0  0
   72.2234   47.4768   59.8484 C   0  0  0  0  0  0  0  0  0  0  0  0
   73.4132   48.1497   59.4946 N   0  0  0  0  0  0  0  0  0  0  0  0
   74.0979   48.7525   60.5794 C   0  0  0  0  0  0  0  0  0  0  0  0
   75.1561   49.7152   60.2878 C   0  0  0  0  0  0  0  0  0  0  0  0
   75.3197   50.1438   58.8662 C   0  0  0  0  0  0  0  0  0  0  0  0
   75.8565   49.1714   57.9943 N   0  0  1  0  0  0  0  0  0  0  0  0
   75.1956   47.9279   57.9184 C   0  0  0  0  0  0  0  0  0  0  0  0
   73.7290   48.1108   58.0855 C   0  0  0  0  0  0  0  0  0  0  0  0
   76.4040   49.7085   56.8050 C   0  0  0  0  0  0  0  0  0  0  0  0
   75.4347   50.1937   55.7840 C   0  0  0  0  0  0  0  0  0  0  0  0
   75.4269   49.4197   54.6262 O   0  0  0  0  0  0  0  0  0  0  0  0
   68.6199   47.7322   56.4906 C   0  0  0  0  0  0  0  0  0  0  0  0
   69.1497   48.0358   55.1371 C   0  0  0  0  0  0  0  0  0  0  0  0
   70.1026   48.9968   55.0003 N   0  0  0  0  0  0  0  0  0  0  0  0
   70.6412   49.2700   53.8317 N   0  0  0  0  0  0  0  0  0  0  0  0
   70.2828   48.6198   52.7098 C   0  0  0  0  0  0  0  0  0  0  0  0
   70.8374   48.9305   51.6299 O   0  0  0  0  0  0  0  0  0  0  0  0
   69.3224   47.6304   52.7568 C   0  0  0  0  0  0  0  0  0  0  0  0
   68.9149   46.9480   51.6330 C   0  0  0  0  0  0  0  0  0  0  0  0
   67.9450   45.9770   51.7007 C   0  0  0  0  0  0  0  0  0  0  0  0
   67.3744   45.6879   52.9177 C   0  0  0  0  0  0  0  0  0  0  0  0
   67.7953   46.3821   54.0408 C   0  0  0  0  0  0  0  0  0  0  0  0
   68.7689   47.3638   54.0135 C   0  0  0  0  0  0  0  0  0  0  0  0
  8  9  2  0
  9  1  1  0
  9 10  1  0
  1  2  2  0
  1  6  1  0
  2  3  1  0
  3 20  1  0
  3  4  2  0
 20 21  1  0
 21 22  2  0
 21 31  1  0
 22 23  1  0
 23 24  1  0
 24 25  2  0
 24 26  1  0
 26 27  1  0
 26 31  2  0
 27 28  2  0
 28 29  1  0
 29 30  2  0
 30 31  1  0
  4  5  1  0
  5  6  2  0
  6  7  1  0
 10 11  1  0
 10 16  1  0
 11 12  1  0
 12 13  1  0
 13 14  1  0
 14 17  1  6
 14 15  1  0
 17 18  1  0
 18 19  1  0
 15 16  1  0
M  CHG  1  14   1
M  END
>  <minimizedAffinity>  (22) 
-9.74793

$$$$
data/200k_reference_output/data/smiles/80876.pdb
     RDKit          3D

 30 33  0  0  0  0  0  0  0  0999 V2000
   69.9443   39.3096   58.4293 C   0  0  0  0  0  0  0  0  0  0  0  0
   70.5149   40.5012   58.3568 C   0  0  0  0  0  0  0  0  0  0  0  0
   71.8574   40.5258   58.2910 N   0  0  0  0  0  0  0  0  0  0  0  0
   72.4543   41.7321   58.2172 C   0  0  0  0  0  0  0  0  0  0  0  0
   73.7077   41.8205   58.1530 O   0  0  0  0  0  0  0  0  0  0  0  0
   71.7473   42.9225   58.2071 C   0  0  0  0  0  0  0  0  0  0  0  0
   72.3113   44.1088   58.1350 C   0  0  0  0  0  0  0  0  0  0  0  0
   70.4035   42.8849   58.2730 N   0  0  0  0  0  0  0  0  0  0  0  0
   69.7944   41.6846   58.3475 C   0  0  0  0  0  0  0  0  0  0  0  0
   68.5314   41.5802   58.4130 O   0  0  0  0  0  0  0  0  0  0  0  0
   73.1655   35.6493   57.3960 C   0  0  0  0  0  0  0  0  0  0  0  0
   72.1096   36.5006   58.0260 C   0  0  0  0  0  0  0  0  0  0  0  0
   71.4565   36.1027   59.1827 C   0  0  0  0  0  0  0  0  0  0  0  0
   70.5773   37.1350   59.4375 C   0  0  0  0  0  0  0  0  0  0  0  0
   70.7540   38.0691   58.4367 C   0  0  0  0  0  0  0  0  0  0  0  0
   71.6603   37.6658   57.6245 O   0  0  0  0  0  0  0  0  0  0  0  0
   71.5313   45.3575   58.1259 C   0  0  0  0  0  0  0  0  0  0  0  0
   71.8818   46.4612   58.8391 C   0  0  0  0  0  0  0  0  0  0  0  0
   71.0909   47.5867   58.7697 C   0  0  0  0  0  0  0  0  0  0  0  0
   69.9410   47.6172   57.9857 C   0  0  0  0  0  0  0  0  0  0  0  0
   69.5801   46.5033   57.2611 C   0  0  0  0  0  0  0  0  0  0  0  0
   70.3900   45.3932   57.3507 C   0  0  0  0  0  0  0  0  0  0  0  0
   68.4595   46.4940   56.4807 O   0  0  0  0  0  0  0  0  0  0  0  0
   68.4373   46.5557   55.1099 C   0  0  0  0  0  0  0  0  0  0  0  0
   68.9376   47.6258   54.4059 C   0  0  0  0  0  0  0  0  0  0  0  0
   68.9098   47.6786   53.0263 C   0  0  0  0  0  0  0  0  0  0  0  0
   68.3638   46.6270   52.3133 C   0  0  0  0  0  0  0  0  0  0  0  0
   68.3310   46.6666   50.9517 F   0  0  0  0  0  0  0  0  0  0  0  0
   67.8642   45.5568   53.0166 C   0  0  0  0  0  0  0  0  0  0  0  0
   67.8944   45.5103   54.4033 C   0  0  0  0  0  0  0  0  0  0  0  0
 11 12  1  0
 12 13  2  0
 12 16  1  0
 13 14  1  0
 14 15  2  0
 15  1  1  0
 15 16  1  0
  1  2  2  0
  2  3  1  0
  2  9  1  0
  3  4  1  0
  4  5  2  0
  4  6  1  0
  6  7  2  0
  6  8  1  0
  7 17  1  0
 17 18  2  0
 17 22  1  0
 18 19  1  0
 19 20  2  0
 20 21  1  0
 21 23  1  0
 21 22  2  0
 23 24  1  0
 24 25  2  0
 24 30  1  0
 25 26  1  0
 26 27  2  0
 27 28  1  0
 27 29  1  0
 29 30  2  0
  8  9  1  0
  9 10  2  0
M  END
>  <minimizedAffinity>  (23) 
-9.72682

$$$$
data/200k_reference_output/data/smiles/11766.pdb
     RDKit          3D

 28 30  0  0  0  0  0  0  0  0999 V2000
   68.5843   46.3173   54.1618 C   0  0  0  0  0  0  0  0  0  0  0  0
   68.2517   45.9909   52.8644 C   0  0  0  0  0  0  0  0  0  0  0  0
   68.5381   46.8479   51.8121 C   0  0  0  0  0  0  0  0  0  0  0  0
   69.1730   48.0546   52.0889 C   0  0  0  0  0  0  0  0  0  0  0  0
   69.5185   48.4112   53.3764 C   0  0  0  0  0  0  0  0  0  0  0  0
   69.2107   47.5228   54.3852 C   0  0  0  0  0  0  0  0  0  0  0  0
   68.4831   45.8399   56.4603 O   0  0  0  0  0  0  0  0  0  0  0  0
   68.2918   45.4322   55.2824 C   0  0  0  0  0  0  0  0  0  0  0  0
   67.7949   44.1092   55.1523 N   0  0  0  0  0  0  0  0  0  0  0  0
   67.5315   43.2998   56.2864 N   0  0  0  0  0  0  0  0  0  0  0  0
   67.8273   42.0472   56.2843 C   0  0  0  0  0  0  0  0  0  0  0  0
   67.5875   41.1599   57.4043 C   0  0  0  0  0  0  0  0  0  0  0  0
   68.1465   39.9054   57.4531 C   0  0  0  0  0  0  0  0  0  0  0  0
   67.9124   39.0533   58.5381 C   0  0  0  0  0  0  0  0  0  0  0  0
   67.1070   39.4742   59.5776 C   0  0  0  0  0  0  0  0  0  0  0  0
   66.8669   38.6673   60.6351 F   0  0  0  0  0  0  0  0  0  0  0  0
   66.5440   40.7263   59.5384 C   0  0  0  0  0  0  0  0  0  0  0  0
   65.7631   41.1318   60.5499 F   0  0  0  0  0  0  0  0  0  0  0  0
   66.7902   41.5526   58.4530 C   0  0  0  0  0  0  0  0  0  0  0  0
   70.3064   49.9244   53.6728 S   0  0  0  0  0  0  0  0  0  0  0  0
   71.8161   49.7698   53.6639 O   0  0  0  0  0  0  0  0  0  0  0  0
   69.9944   50.8925   52.5498 O   0  0  0  0  0  0  0  0  0  0  0  0
   69.8697   50.6487   55.1417 N   0  0  0  0  0  0  0  0  0  0  0  0
   68.8411   51.6295   55.0695 C   0  0  0  0  0  0  0  0  0  0  0  0
   68.1053   51.6267   56.4020 C   0  0  0  0  0  0  0  0  0  0  0  0
   69.0571   51.2700   57.5301 C   0  0  0  0  0  0  0  0  0  0  0  0
   70.4389   51.8184   57.1500 C   0  0  0  0  0  0  0  0  0  0  0  0
   70.9414   50.9519   56.0220 C   0  0  0  0  0  0  0  0  0  0  0  0
  7  8  2  0
  8  9  1  0
  8  1  1  0
  9 10  1  0
 10 11  2  0
 11 12  1  0
 12 13  2  0
 12 19  1  0
 13 14  1  0
 14 15  2  0
 15 16  1  0
 15 17  1  0
 17 18  1  0
 17 19  2  0
  1  2  2  0
  1  6  1  0
  2  3  1  0
  3  4  2  0
  4  5  1  0
  5 20  1  0
  5  6  2  0
 20 21  2  0
 20 22  2  0
 20 23  1  0
 23 24  1  0
 23 28  1  0
 24 25  1  0
 25 26  1  0
 26 27  1  0
 27 28  1  0
M  END
>  <minimizedAffinity>  (24) 
-9.72153

$$$$
data/200k_reference_output/data/smiles/67490.pdb
     RDKit          3D

 29 32  0  0  0  0  0  0  0  0999 V2000
   68.4267   45.9368   54.2274 C   0  0  0  0  0  0  0  0  0  0  0  0
   67.7347   45.3068   53.2148 C   0  0  0  0  0  0  0  0  0  0  0  0
   67.7149   45.8791   51.9455 C   0  0  0  0  0  0  0  0  0  0  0  0
   68.3762   47.0691   51.6855 C   0  0  0  0  0  0  0  0  0  0  0  0
   69.0714   47.7038   52.6977 C   0  0  0  0  0  0  0  0  0  0  0  0
   69.0704   47.1156   53.9290 C   0  0  0  0  0  0  0  0  0  0  0  0
   68.4111   46.2153   56.5466 O   0  0  0  0  0  0  0  0  0  0  0  0
   68.5060   45.4206   55.5800 C   0  0  0  0  0  0  0  0  0  0  0  0
   68.6878   44.0582   55.9039 N   0  0  0  0  0  0  0  0  0  0  0  0
   68.7652   43.5569   57.2051 N   0  0  0  0  0  0  0  0  0  0  0  0
   68.3372   42.3749   57.4431 C   0  0  0  0  0  0  0  0  0  0  0  0
   67.7527   41.4862   56.4047 C   0  0  0  0  0  0  0  0  0  0  0  0
   68.0844   40.1294   56.9849 C   0  0  0  0  0  0  0  0  0  0  0  0
   68.1554   40.2937   58.4374 C   0  0  0  0  0  0  0  0  0  0  0  0
   68.1045   39.4256   59.5331 C   0  0  0  0  0  0  0  0  0  0  0  0
   68.2034   39.8796   60.8285 C   0  0  0  0  0  0  0  0  0  0  0  0
   68.3596   41.2357   61.0800 C   0  0  0  0  0  0  0  0  0  0  0  0
   68.4107   42.0924   60.0167 C   0  0  0  0  0  0  0  0  0  0  0  0
   68.5660   43.4537   60.2405 O   0  0  0  0  0  0  0  0  0  0  0  0
   68.3104   41.6308   58.7212 C   0  0  0  0  0  0  0  0  0  0  0  0
   69.9373   49.2051   52.4584 S   0  0  0  0  0  0  0  0  0  0  0  0
   71.3936   49.0595   52.7906 O   0  0  0  0  0  0  0  0  0  0  0  0
   69.8310   49.5312   50.9779 O   0  0  0  0  0  0  0  0  0  0  0  0
   69.2000   50.4935   53.3083 N   0  0  0  0  0  0  0  0  0  0  0  0
   70.1429   51.0662   54.2192 C   0  0  0  0  0  0  0  0  0  0  0  0
   70.1340   50.2542   55.5106 C   0  0  0  0  0  0  0  0  0  0  0  0
   68.7151   50.4993   55.9980 C   0  0  0  0  0  0  0  0  0  0  0  0
   68.4318   51.9283   55.6612 C   0  0  0  0  0  0  0  0  0  0  0  0
   69.5343   52.3811   54.7223 C   0  0  0  0  0  0  0  0  0  0  0  0
  7  8  2  0
  8  9  1  0
  8  1  1  0
  9 10  1  0
 10 11  2  0
 11 12  1  0
 11 20  1  0
 12 13  1  0
 13 14  1  0
 14 15  1  0
 14 20  2  0
 15 16  2  0
 16 17  1  0
 17 18  2  0
 18 19  1  0
 18 20  1  0
  1  2  2  0
  1  6  1  0
  2  3  1  0
  3  4  2  0
  4  5  1  0
  5 21  1  0
  5  6  2  0
 21 22  2  0
 21 23  2  0
 21 24  1  0
 24 25  1  0
 25 26  1  0
 25 29  1  0
 26 27  1  0
 27 28  1  0
 28 29  1  0
M  END
>  <minimizedAffinity>  (25) 
-9.71686

$$$$
data/reference_output_2/data/smiles/90696.pdb
     RDKit          3D

 28 30  0  0  0  0  0  0  0  0999 V2000
   70.7777   44.0460   58.2475 O   0  0  0  0  0  0  0  0  0  0  0  0
   69.7885   43.8604   57.5043 C   0  0  0  0  0  0  0  0  0  0  0  0
   69.2165   44.9894   56.8453 N   0  0  0  0  0  0  0  0  0  0  0  0
   69.2276   42.5433   57.3098 C   0  0  0  0  0  0  0  0  0  0  0  0
   68.1837   42.3951   56.3790 C   0  0  0  0  0  0  0  0  0  0  0  0
   67.5913   41.1893   56.1285 C   0  0  0  0  0  0  0  0  0  0  0  0
   66.5955   41.1024   55.2287 F   0  0  0  0  0  0  0  0  0  0  0  0
   68.0422   40.0687   56.8239 C   0  0  0  0  0  0  0  0  0  0  0  0
   69.0523   40.1447   57.7405 C   0  0  0  0  0  0  0  0  0  0  0  0
   69.6180   41.4110   57.9510 C   0  0  0  0  0  0  0  0  0  0  0  0
   69.5437   39.0039   58.4778 C   0  0  0  0  0  0  0  0  0  0  0  0
   68.8565   38.4043   59.4972 C   0  0  0  0  0  0  0  0  0  0  0  0
   69.3393   37.3122   60.1946 C   0  0  0  0  0  0  0  0  0  0  0  0
   70.5688   36.8064   59.8462 C   0  0  0  0  0  0  0  0  0  0  0  0
   71.2573   37.4097   58.8221 C   0  0  0  0  0  0  0  0  0  0  0  0
   70.7437   38.4790   58.1668 N   0  0  0  0  0  0  0  0  0  0  0  0
   69.7614   46.2670   57.0359 N   0  0  0  0  0  0  0  0  0  0  0  0
   68.8457   47.4543   56.2538 S   0  0  0  0  0  0  0  0  0  0  0  0
   69.4549   48.8152   56.5436 O   0  0  0  0  0  0  0  0  0  0  0  0
   67.4310   47.5146   56.8257 O   0  0  0  0  0  0  0  0  0  0  0  0
   68.7983   47.2386   54.5426 C   0  0  0  0  0  0  0  0  0  0  0  0
   69.4407   48.0995   53.7004 C   0  0  0  0  0  0  0  0  0  0  0  0
   69.3852   47.9609   52.3246 C   0  0  0  0  0  0  0  0  0  0  0  0
   68.6577   46.9229   51.8042 C   0  0  0  0  0  0  0  0  0  0  0  0
   68.0094   46.0544   52.6455 C   0  0  0  0  0  0  0  0  0  0  0  0
   67.2659   44.9945   52.1156 O   0  0  0  0  0  0  0  0  0  0  0  0
   68.0550   46.1781   54.0090 C   0  0  0  0  0  0  0  0  0  0  0  0
   67.4298   45.3435   54.8582 F   0  0  0  0  0  0  0  0  0  0  0  0
  1  2  2  0
  2  3  1  0
  2  4  1  0
  3 17  1  0
 17 18  1  0
 18 19  2  0
 18 20  2  0
 18 21  1  0
 21 22  2  0
 21 27  1  0
 22 23  1  0
 23 24  2  0
 24 25  1  0
 25 26  1  0
 25 27  2  0
 27 28  1  0
  4  5  2  0
  4 10  1  0
  5  6  1  0
  6  7  1  0
  6  8  2  0
  8  9  1  0
  9 11  1  0
  9 10  2  0
 11 12  2  0
 11 16  1  0
 12 13  1  0
 13 14  2  0
 14 15  1  0
 15 16  2  0
M  END
>  <minimizedAffinity>  (26) 
-9.70397

$$$$
data/reference_output_2/data/smiles/168025.pdb
     RDKit          3D

 30 34  0  0  0  0  0  0  0  0999 V2000
   68.4863   43.3050   56.4082 C   0  0  0  0  0  0  0  0  0  0  0  0
   69.6223   43.6994   56.8083 O   0  0  0  0  0  0  0  0  0  0  0  0
   67.7438   44.0955   55.4907 N   0  0  0  0  0  0  0  0  0  0  0  0
   68.2173   45.3320   54.9867 C   0  0  0  0  0  0  0  0  0  0  0  0
   68.5472   46.3987   55.8182 C   0  0  0  0  0  0  0  0  0  0  0  0
   69.0039   47.5884   55.2966 C   0  0  0  0  0  0  0  0  0  0  0  0
   69.1447   47.7562   53.9472 C   0  0  0  0  0  0  0  0  0  0  0  0
   68.8307   46.7322   53.1013 C   0  0  0  0  0  0  0  0  0  0  0  0
   68.3670   45.5228   53.6327 C   0  0  0  0  0  0  0  0  0  0  0  0
   69.0857   47.2148   51.7204 C   0  0  0  0  0  0  0  0  0  0  0  0
   69.5705   48.6048   51.9080 C   0  0  0  0  0  0  0  0  0  0  0  0
   69.9211   49.4409   51.0347 O   0  0  0  0  0  0  0  0  0  0  0  0
   69.5934   48.9092   53.3117 N   0  0  0  0  0  0  0  0  0  0  0  0
   69.9555   50.0709   54.0841 C   0  0  0  0  0  0  0  0  0  0  0  0
   70.3769   49.6395   55.4559 C   0  0  0  0  0  0  0  0  0  0  0  0
   69.3710   48.7434   56.1513 C   0  0  0  0  0  0  0  0  0  0  0  0
   66.7036   41.8786   56.9542 O   0  0  0  0  0  0  0  0  0  0  0  0
   67.9627   42.0277   56.9093 C   0  0  0  0  0  0  0  0  0  0  0  0
   68.8545   41.0019   57.3268 N   0  0  0  0  0  0  0  0  0  0  0  0
   68.2902   39.7933   57.7999 C   0  0  0  0  0  0  0  0  0  0  0  0
   68.4511   39.4271   59.2212 C   0  0  0  0  0  0  0  0  0  0  0  0
   69.1395   38.1964   59.5560 C   0  0  0  0  0  0  0  0  0  0  0  0
   68.6828   37.2544   60.4883 C   0  0  0  0  0  0  0  0  0  0  0  0
   69.5348   36.2256   60.5166 N   0  0  0  0  0  0  0  0  0  0  0  0
   70.5542   36.4400   59.6357 C   0  0  0  0  0  0  0  0  0  0  0  0
   71.6716   35.6848   59.3138 C   0  0  0  0  0  0  0  0  0  0  0  0
   72.5909   36.1194   58.3858 C   0  0  0  0  0  0  0  0  0  0  0  0
   72.3293   37.3423   57.8047 C   0  0  0  0  0  0  0  0  0  0  0  0
   71.2293   38.0997   58.1117 C   0  0  0  0  0  0  0  0  0  0  0  0
   70.2998   37.6606   59.0477 C   0  0  0  0  0  0  0  0  0  0  0  0
 17 18  2  0
 18 19  1  0
 18  1  1  0
 19 20  1  0
 20 21  1  0
 21 22  1  0
 22 23  2  0
 22 30  1  0
 23 24  1  0
 24 25  1  0
 25 26  1  0
 25 30  2  0
 26 27  2  0
 27 28  1  0
 28 29  2  0
 29 30  1  0
  1  2  2  0
  1  3  1  0
  3  4  1  0
  4  5  2  0
  4  9  1  0
  5  6  1  0
  6  7  2  0
  6 16  1  0
  7  8  1  0
  7 13  1  0
  8  9  2  0
  8 10  1  0
 10 11  1  0
 11 12  2  0
 11 13  1  0
 13 14  1  0
 14 15  1  0
 15 16  1  0
M  END
>  <minimizedAffinity>  (27) 
-9.69384

$$$$
data/reference_output_2/data/smiles/165880.pdb
     RDKit          3D

 28 31  0  0  0  0  0  0  0  0999 V2000
   69.8201   39.8417   58.1399 N   0  0  0  0  0  0  0  0  0  0  0  0
   70.9345   40.7862   58.1674 C   0  0  0  0  0  0  0  0  0  0  0  0
   70.4548   42.1958   58.2701 C   0  0  0  0  0  0  0  0  0  0  0  0
   69.3488   42.5860   57.3836 C   0  0  0  0  0  0  0  0  0  0  0  0
   68.9104   43.7972   56.8668 C   0  0  0  0  0  0  0  0  0  0  0  0
   67.7695   43.4658   56.1689 N   0  0  0  0  0  0  0  0  0  0  0  0
   67.5111   42.2032   56.2286 N   0  0  0  0  0  0  0  0  0  0  0  0
   68.4641   41.6169   56.9703 C   0  0  0  0  0  0  0  0  0  0  0  0
   68.7015   40.2200   57.3562 C   0  0  0  0  0  0  0  0  0  0  0  0
   67.9122   39.3307   56.9948 O   0  0  0  0  0  0  0  0  0  0  0  0
   70.4166   34.9566   61.0561 C   0  0  0  0  0  0  0  0  0  0  0  0
   70.2448   36.2369   60.3048 C   0  0  0  0  0  0  0  0  0  0  0  0
   69.2199   37.1141   60.5811 C   0  0  0  0  0  0  0  0  0  0  0  0
   69.0613   38.2971   59.8877 C   0  0  0  0  0  0  0  0  0  0  0  0
   69.9352   38.6501   58.8777 C   0  0  0  0  0  0  0  0  0  0  0  0
   70.9640   37.7632   58.6035 C   0  0  0  0  0  0  0  0  0  0  0  0
   71.1223   36.5810   59.2974 C   0  0  0  0  0  0  0  0  0  0  0  0
   69.3980   45.0847   57.0276 N   0  0  0  0  0  0  0  0  0  0  0  0
   69.0229   46.5638   56.3415 S   0  0  0  0  0  0  0  0  0  0  0  0
   67.8012   47.2114   56.9753 O   0  0  0  0  0  0  0  0  0  0  0  0
   70.1359   47.5877   56.5824 O   0  0  0  0  0  0  0  0  0  0  0  0
   68.7242   46.5426   54.6170 C   0  0  0  0  0  0  0  0  0  0  0  0
   67.9222   45.5742   54.0479 C   0  0  0  0  0  0  0  0  0  0  0  0
   67.6440   45.5926   52.7182 C   0  0  0  0  0  0  0  0  0  0  0  0
   68.1345   46.5660   51.8577 C   0  0  0  0  0  0  0  0  0  0  0  0
   67.8424   46.5645   50.5331 F   0  0  0  0  0  0  0  0  0  0  0  0
   68.9344   47.5334   52.4240 C   0  0  0  0  0  0  0  0  0  0  0  0
   69.2063   47.5044   53.7568 C   0  0  0  0  0  0  0  0  0  0  0  0
 11 12  1  0
 12 13  2  0
 12 17  1  0
 13 14  1  0
 14 15  2  0
 15  1  1  0
 15 16  1  0
  1  2  1  0
  1  9  1  0
  2  3  1  0
  3  4  1  0
  4  5  1  0
  4  8  2  0
  5 18  1  0
  5  6  2  0
 18 19  1  0
 19 20  2  0
 19 21  2  0
 19 22  1  0
 22 23  2  0
 22 28  1  0
 23 24  1  0
 24 25  2  0
 25 26  1  0
 25 27  1  0
 27 28  2  0
  6  7  1  0
  7  8  1  0
  8  9  1  0
  9 10  2  0
 16 17  2  0
M  END
>  <minimizedAffinity>  (28) 
-9.67729

$$$$
data/200k_reference_output/data/smiles/83258.pdb
     RDKit          3D

 30 33  0  0  0  0  0  0  0  0999 V2000
   71.5608   47.3409   58.8401 C   0  0  0  0  0  0  0  0  0  0  0  0
   70.7107   48.0897   58.0279 C   0  0  0  0  0  0  0  0  0  0  0  0
   69.8244   47.5536   57.1541 C   0  0  0  0  0  0  0  0  0  0  0  0
   69.7988   46.1456   57.1033 C   0  0  0  0  0  0  0  0  0  0  0  0
   70.5992   45.3529   57.8672 C   0  0  0  0  0  0  0  0  0  0  0  0
   70.5523   44.0083   57.7922 F   0  0  0  0  0  0  0  0  0  0  0  0
   71.4818   45.9744   58.7379 C   0  0  0  0  0  0  0  0  0  0  0  0
   72.2857   45.1976   59.5077 F   0  0  0  0  0  0  0  0  0  0  0  0
   74.2542   50.9743   58.5045 N   0  0  0  0  0  0  0  0  0  0  0  0
   74.6924   50.7161   59.8250 C   0  0  0  0  0  0  0  0  0  0  0  0
   74.5977   49.2683   60.1833 C   0  0  0  0  0  0  0  0  0  0  0  0
   73.6869   48.6169   59.2762 N   0  0  0  0  0  0  0  0  0  0  0  0
   72.4891   47.9999   59.7494 C   0  0  0  0  0  0  0  0  0  0  0  0
   72.2088   48.0113   60.9737 O   0  0  0  0  0  0  0  0  0  0  0  0
   74.0488   48.6145   57.8749 C   0  0  0  0  0  0  0  0  0  0  0  0
   74.5355   49.9942   57.5145 C   0  0  0  0  0  0  0  0  0  0  0  0
   72.9333   52.9177   57.7779 C   0  0  0  0  0  0  0  0  0  0  0  0
   72.9646   51.5412   58.3345 C   0  0  0  0  0  0  0  0  0  0  0  0
   68.8956   48.3191   56.2678 C   0  0  0  0  0  0  0  0  0  0  0  0
   69.3114   48.3307   54.8520 C   0  0  0  0  0  0  0  0  0  0  0  0
   70.2165   49.2681   54.4431 N   0  0  0  0  0  0  0  0  0  0  0  0
   70.6114   49.4266   53.2127 N   0  0  0  0  0  0  0  0  0  0  0  0
   70.1420   48.6527   52.2221 C   0  0  0  0  0  0  0  0  0  0  0  0
   70.5397   48.8220   51.0202 O   0  0  0  0  0  0  0  0  0  0  0  0
   69.2298   47.6826   52.5488 C   0  0  0  0  0  0  0  0  0  0  0  0
   68.7411   46.8518   51.5709 C   0  0  0  0  0  0  0  0  0  0  0  0
   67.8370   45.8507   51.8765 C   0  0  0  0  0  0  0  0  0  0  0  0
   67.4399   45.7114   53.2111 C   0  0  0  0  0  0  0  0  0  0  0  0
   67.9203   46.5335   54.1940 C   0  0  0  0  0  0  0  0  0  0  0  0
   68.8125   47.5189   53.8670 C   0  0  0  0  0  0  0  0  0  0  0  0
 17 18  1  0
 18  9  1  0
  9 10  1  0
  9 16  1  0
 10 11  1  0
 11 12  1  0
 12 13  1  0
 12 15  1  0
 13 14  2  0
 13  1  1  0
  1  2  2  0
  1  7  1  0
  2  3  1  0
  3 19  1  0
  3  4  2  0
 19 20  1  0
 20 21  2  0
 20 30  1  0
 21 22  1  0
 22 23  1  0
 23 24  2  0
 23 25  1  0
 25 26  1  0
 25 30  2  0
 26 27  2  0
 27 28  1  0
 28 29  2  0
 29 30  1  0
  4  5  1  0
  5  6  1  0
  5  7  2  0
  7  8  1  0
 15 16  1  0
M  CHG  1   9   1
M  END
>  <minimizedAffinity>  (29) 
-9.67530

$$$$
data/reference_output_2/data/smiles/109401.pdb
     RDKit          3D

 31 34  0  0  0  0  0  0  0  0999 V2000
   70.0312   44.6416   57.5176 C   0  0  0  0  0  0  0  0  0  0  0  0
   69.6830   43.3347   57.1445 C   0  0  0  0  0  0  0  0  0  0  0  0
   70.3093   42.2184   57.6531 C   0  0  0  0  0  0  0  0  0  0  0  0
   71.3240   42.3542   58.5681 C   0  0  0  0  0  0  0  0  0  0  0  0
   71.6877   43.6269   58.9476 C   0  0  0  0  0  0  0  0  0  0  0  0
   71.0457   44.7602   58.4256 C   0  0  0  0  0  0  0  0  0  0  0  0
   70.8471   47.3224   57.5329 O   0  0  0  0  0  0  0  0  0  0  0  0
   69.7629   47.0617   56.9670 C   0  0  0  0  0  0  0  0  0  0  0  0
   69.3085   45.7129   56.9404 N   0  0  0  0  0  0  0  0  0  0  0  0
   68.8996   48.1102   56.3110 C   0  0  0  0  0  0  0  0  0  0  0  0
   69.2987   48.3212   54.8996 C   0  0  0  0  0  0  0  0  0  0  0  0
   70.1853   49.2901   54.5723 N   0  0  0  0  0  0  0  0  0  0  0  0
   70.6119   49.4825   53.3342 N   0  0  0  0  0  0  0  0  0  0  0  0
   70.1686   48.7003   52.3264 C   0  0  0  0  0  0  0  0  0  0  0  0
   70.5413   48.8380   51.1375 O   0  0  0  0  0  0  0  0  0  0  0  0
   69.2625   47.6909   52.5860 C   0  0  0  0  0  0  0  0  0  0  0  0
   68.7902   46.8907   51.5580 C   0  0  0  0  0  0  0  0  0  0  0  0
   67.8668   45.8916   51.8393 C   0  0  0  0  0  0  0  0  0  0  0  0
   67.4088   45.6766   53.1053 C   0  0  0  0  0  0  0  0  0  0  0  0
   67.8990   46.4926   54.1207 C   0  0  0  0  0  0  0  0  0  0  0  0
   68.8217   47.5044   53.9055 C   0  0  0  0  0  0  0  0  0  0  0  0
   72.1015   40.9593   59.3356 S   0  0  0  0  0  0  0  0  0  0  0  0
   73.4589   40.8240   58.7212 O   0  0  0  0  0  0  0  0  0  0  0  0
   72.1827   41.0810   60.8051 O   0  0  0  0  0  0  0  0  0  0  0  0
   71.2085   39.5081   58.8535 N   0  0  0  0  0  0  0  0  0  0  0  0
   70.4990   39.0894   60.0769 C   0  0  0  0  0  0  0  0  0  0  0  0
   69.6260   37.9245   59.7210 C   0  0  0  0  0  0  0  0  0  0  0  0
   70.2217   36.6046   60.1599 C   0  0  0  0  0  0  0  0  0  0  0  0
   71.5308   36.3173   59.5083 C   0  0  0  0  0  0  0  0  0  0  0  0
   71.7770   37.1562   58.2694 C   0  0  0  0  0  0  0  0  0  0  0  0
   72.2461   38.5391   58.5489 C   0  0  0  0  0  0  0  0  0  0  0  0
  7  8  2  0
  8 10  1  0
  8  9  1  0
 10 11  1  0
 11 12  2  0
 11 21  1  0
 12 13  1  0
 13 14  1  0
 14 15  2  0
 14 16  1  0
 16 17  1  0
 16 21  2  0
 17 18  2  0
 18 19  1  0
 19 20  2  0
 20 21  1  0
  9  1  1  0
  1  2  2  0
  1  6  1  0
  2  3  1  0
  3  4  2  0
  4 22  1  0
  4  5  1  0
 22 23  2  0
 22 24  2  0
 22 25  1  0
 25 26  1  0
 25 31  1  0
 26 27  1  0
 27 28  1  0
 28 29  1  0
 29 30  1  0
 30 31  1  0
  5  6  2  0
M  END
>  <minimizedAffinity>  (30) 
-9.66824

$$$$
data/reference_output_2/data/smiles/157050.pdb
     RDKit          3D

 30 33  0  0  0  0  0  0  0  0999 V2000
   73.7433   41.9231   58.1918 O   0  0  0  0  0  0  0  0  0  0  0  0
   72.4804   41.8375   58.2170 C   0  0  0  0  0  0  0  0  0  0  0  0
   71.8526   40.6520   58.3008 N   0  0  0  0  0  0  0  0  0  0  0  0
   70.5075   40.5436   58.3289 C   0  0  0  0  0  0  0  0  0  0  0  0
   69.9389   39.3497   58.4119 C   0  0  0  0  0  0  0  0  0  0  0  0
   69.7905   41.7206   58.2659 C   0  0  0  0  0  0  0  0  0  0  0  0
   68.5330   41.6179   58.2926 O   0  0  0  0  0  0  0  0  0  0  0  0
   70.4129   42.9105   58.1823 N   0  0  0  0  0  0  0  0  0  0  0  0
   71.7533   43.0037   58.1553 C   0  0  0  0  0  0  0  0  0  0  0  0
   72.3655   44.1956   58.0713 C   0  0  0  0  0  0  0  0  0  0  0  0
   70.7172   38.1150   58.4775 C   0  0  0  0  0  0  0  0  0  0  0  0
   70.6952   37.1228   59.4205 C   0  0  0  0  0  0  0  0  0  0  0  0
   71.6116   36.1487   59.0561 C   0  0  0  0  0  0  0  0  0  0  0  0
   72.1598   36.6254   57.8663 C   0  0  0  0  0  0  0  0  0  0  0  0
   73.3891   35.7421   56.9910 Cl  0  0  0  0  0  0  0  0  0  0  0  0
   71.6011   37.7715   57.5800 O   0  0  0  0  0  0  0  0  0  0  0  0
   71.5061   45.3662   58.0119 C   0  0  0  0  0  0  0  0  0  0  0  0
   71.9553   46.4931   58.7094 C   0  0  0  0  0  0  0  0  0  0  0  0
   71.1837   47.6362   58.6914 C   0  0  0  0  0  0  0  0  0  0  0  0
   69.9983   47.6539   57.9969 C   0  0  0  0  0  0  0  0  0  0  0  0
   69.5396   46.5477   57.3011 C   0  0  0  0  0  0  0  0  0  0  0  0
   70.3224   45.4123   57.3298 C   0  0  0  0  0  0  0  0  0  0  0  0
   68.3255   46.6006   56.6039 O   0  0  0  0  0  0  0  0  0  0  0  0
   68.4051   46.6801   55.2201 C   0  0  0  0  0  0  0  0  0  0  0  0
   67.9333   45.6237   54.4836 C   0  0  0  0  0  0  0  0  0  0  0  0
   67.9990   45.6727   53.1101 C   0  0  0  0  0  0  0  0  0  0  0  0
   68.5213   46.7447   52.4216 C   0  0  0  0  0  0  0  0  0  0  0  0
   68.5752   46.7703   51.0516 F   0  0  0  0  0  0  0  0  0  0  0  0
   68.9957   47.8085   53.1697 C   0  0  0  0  0  0  0  0  0  0  0  0
   68.9350   47.7703   54.5616 C   0  0  0  0  0  0  0  0  0  0  0  0
  1  2  2  0
  2  3  1  0
  2  9  1  0
  3  4  1  0
  4  5  2  0
  4  6  1  0
  5 11  1  0
 11 12  2  0
 11 16  1  0
 12 13  1  0
 13 14  2  0
 14 15  1  0
 14 16  1  0
  6  7  2  0
  6  8  1  0
  8  9  1  0
  9 10  2  0
 10 17  1  0
 17 18  2  0
 17 22  1  0
 18 19  1  0
 19 20  2  0
 20 21  1  0
 21 23  1  0
 21 22  2  0
 23 24  1  0
 24 25  2  0
 24 30  1  0
 25 26  1  0
 26 27  2  0
 27 28  1  0
 27 29  1  0
 29 30  2  0
M  END
>  <minimizedAffinity>  (31) 
-9.64698

$$$$
data/reference_output_2/data/smiles/131333.pdb
     RDKit          3D

 28 30  0  0  0  0  0  0  0  0999 V2000
   68.2776   42.7681   57.5357 O   0  0  0  0  0  0  0  0  0  0  0  0
   69.4433   43.1666   57.3080 C   0  0  0  0  0  0  0  0  0  0  0  0
   69.5545   44.4416   56.6283 N   0  0  0  0  0  0  0  0  0  0  0  0
   70.5866   42.3787   57.7117 C   0  0  0  0  0  0  0  0  0  0  0  0
   71.8722   42.8459   57.7843 C   0  0  0  0  0  0  0  0  0  0  0  0
   72.9370   42.0410   58.1805 C   0  0  0  0  0  0  0  0  0  0  0  0
   74.2006   42.5267   58.2448 F   0  0  0  0  0  0  0  0  0  0  0  0
   72.6929   40.7257   58.5123 C   0  0  0  0  0  0  0  0  0  0  0  0
   71.3987   40.2156   58.4493 C   0  0  0  0  0  0  0  0  0  0  0  0
   70.4037   41.0505   58.0556 C   0  0  0  0  0  0  0  0  0  0  0  0
   71.1565   38.8125   58.8057 C   0  0  0  0  0  0  0  0  0  0  0  0
   70.1898   38.3939   59.6564 C   0  0  0  0  0  0  0  0  0  0  0  0
   70.0385   37.0332   59.9326 C   0  0  0  0  0  0  0  0  0  0  0  0
   70.8768   36.1018   59.3361 C   0  0  0  0  0  0  0  0  0  0  0  0
   71.8651   36.5194   58.4669 C   0  0  0  0  0  0  0  0  0  0  0  0
   71.9836   37.8695   58.2196 C   0  0  0  0  0  0  0  0  0  0  0  0
   68.4504   45.1557   56.2645 N   0  0  0  0  0  0  0  0  0  0  0  0
   68.6033   46.8194   56.1264 S   0  0  0  0  0  0  0  0  0  0  0  0
   67.2952   47.5145   56.5437 O   0  0  0  0  0  0  0  0  0  0  0  0
   69.6005   47.3545   57.1507 O   0  0  0  0  0  0  0  0  0  0  0  0
   68.9618   47.4540   54.5461 C   0  0  0  0  0  0  0  0  0  0  0  0
   69.7797   48.5764   54.4177 C   0  0  0  0  0  0  0  0  0  0  0  0
   70.1182   49.0690   53.2026 C   0  0  0  0  0  0  0  0  0  0  0  0
   69.6443   48.4461   52.0557 C   0  0  0  0  0  0  0  0  0  0  0  0
   68.8442   47.3491   52.1463 C   0  0  0  0  0  0  0  0  0  0  0  0
   68.3440   46.6898   51.0215 O   0  0  0  0  0  0  0  0  0  0  0  0
   68.5058   46.8576   53.4088 C   0  0  0  0  0  0  0  0  0  0  0  0
   67.6496   45.7794   53.4041 F   0  0  0  0  0  0  0  0  0  0  0  0
  1  2  2  0
  2  3  1  0
  2  4  1  0
  3 17  1  0
 17 18  1  0
 18 19  2  0
 18 20  2  0
 18 21  1  0
 21 22  2  0
 21 27  1  0
 22 23  1  0
 23 24  2  0
 24 25  1  0
 25 26  1  0
 25 27  2  0
 27 28  1  0
  4  5  2  0
  4 10  1  0
  5  6  1  0
  6  7  1  0
  6  8  2  0
  8  9  1  0
  9 11  1  0
  9 10  2  0
 11 12  2  0
 11 16  1  0
 12 13  1  0
 13 14  2  0
 14 15  1  0
 15 16  2  0
M  END
>  <minimizedAffinity>  (32) 
-9.64258

$$$$
data/200k_reference_output/data/smiles/64763.pdb
     RDKit          3D

 30 33  0  0  0  0  0  0  0  0999 V2000
   65.8369   42.4436   60.3381 O   0  0  0  0  0  0  0  0  0  0  0  0
   66.5578   41.6573   59.6799 C   0  0  0  0  0  0  0  0  0  0  0  0
   67.4597   42.1496   58.8108 N   0  0  0  0  0  0  0  0  0  0  0  0
   68.2244   41.2974   58.1132 C   0  0  0  0  0  0  0  0  0  0  0  0
   69.0993   41.8057   57.2696 C   0  0  0  0  0  0  0  0  0  0  0  0
   68.0591   39.9348   58.3111 C   0  0  0  0  0  0  0  0  0  0  0  0
   68.8010   39.1499   57.6327 O   0  0  0  0  0  0  0  0  0  0  0  0
   67.1573   39.4424   59.1792 N   0  0  0  0  0  0  0  0  0  0  0  0
   66.3860   40.2898   59.8827 C   0  0  0  0  0  0  0  0  0  0  0  0
   65.4780   39.8617   60.7557 C   0  0  0  0  0  0  0  0  0  0  0  0
   69.2579   43.2461   57.0764 C   0  0  0  0  0  0  0  0  0  0  0  0
   70.1879   43.9840   57.7981 C   0  0  0  0  0  0  0  0  0  0  0  0
   70.3641   45.3443   57.6412 C   0  0  0  0  0  0  0  0  0  0  0  0
   69.5668   45.9817   56.7169 C   0  0  0  0  0  0  0  0  0  0  0  0
   68.6257   45.3034   55.9690 C   0  0  0  0  0  0  0  0  0  0  0  0
   68.4939   43.9454   56.1685 C   0  0  0  0  0  0  0  0  0  0  0  0
   67.8147   45.9546   55.0276 O   0  0  0  0  0  0  0  0  0  0  0  0
   68.4625   46.6531   54.0242 C   0  0  0  0  0  0  0  0  0  0  0  0
   68.5865   46.1923   52.7228 C   0  0  0  0  0  0  0  0  0  0  0  0
   69.2367   46.9136   51.7509 C   0  0  0  0  0  0  0  0  0  0  0  0
   69.7831   48.1314   52.0784 C   0  0  0  0  0  0  0  0  0  0  0  0
   70.4389   48.8938   51.1679 F   0  0  0  0  0  0  0  0  0  0  0  0
   69.6836   48.6281   53.3637 C   0  0  0  0  0  0  0  0  0  0  0  0
   69.0157   47.8732   54.3322 C   0  0  0  0  0  0  0  0  0  0  0  0
   65.2833   38.4420   60.9830 C   0  0  0  0  0  0  0  0  0  0  0  0
   64.5568   37.6399   60.1307 C   0  0  0  0  0  0  0  0  0  0  0  0
   64.4114   36.2766   60.4162 C   0  0  0  0  0  0  0  0  0  0  0  0
   64.9752   35.7207   61.5223 C   0  0  0  0  0  0  0  0  0  0  0  0
   65.7031   36.5148   62.3794 C   0  0  0  0  0  0  0  0  0  0  0  0
   65.8529   37.8792   62.1021 C   0  0  0  0  0  0  0  0  0  0  0  0
  1  2  2  0
  2  3  1  0
  2  9  1  0
  3  4  1  0
  4  5  2  0
  4  6  1  0
  5 11  1  0
 11 12  2  0
 11 16  1  0
 12 13  1  0
 13 14  2  0
 14 15  1  0
 15 17  1  0
 15 16  2  0
 17 18  1  0
 18 19  2  0
 18 24  1  0
 19 20  1  0
 20 21  2  0
 21 22  1  0
 21 23  1  0
 23 24  2  0
  6  7  2  0
  6  8  1  0
  8  9  1  0
  9 10  2  0
 10 25  1  0
 25 26  2  0
 25 30  1  0
 26 27  1  0
 27 28  2  0
 28 29  1  0
 29 30  2  0
M  END
>  <minimizedAffinity>  (33) 
-9.62400

$$$$
data/200k_reference_output/data/smiles/84868.pdb
     RDKit          3D

 33 36  0  0  0  0  0  0  0  0999 V2000
   72.5196   41.5797   58.7863 C   0  0  0  0  0  0  0  0  0  0  0  0
   72.1478   42.2445   57.6369 C   0  0  0  0  0  0  0  0  0  0  0  0
   72.0158   43.6130   57.5769 C   0  0  0  0  0  0  0  0  0  0  0  0
   72.2589   44.4037   58.7093 C   0  0  0  0  0  0  0  0  0  0  0  0
   72.6277   43.7355   59.8489 C   0  0  0  0  0  0  0  0  0  0  0  0
   72.7613   42.3453   59.9049 C   0  0  0  0  0  0  0  0  0  0  0  0
   72.9006   44.5493   61.0215 C   0  0  0  0  0  0  0  0  0  0  0  0
   73.2402   43.9248   62.0766 O   0  0  0  0  0  0  0  0  0  0  0  0
   72.7946   45.9542   60.9923 N   0  0  0  0  0  0  0  0  0  0  0  0
   73.0576   46.6749   62.1133 O   0  0  0  0  0  0  0  0  0  0  0  0
   72.4170   46.6225   59.8071 C   0  0  0  0  0  0  0  0  0  0  0  0
   72.3638   47.9076   59.7835 O   0  0  0  0  0  0  0  0  0  0  0  0
   72.0814   45.8673   58.5897 C   0  0  2  0  0  0  0  0  0  0  0  0
   70.4268   39.8154   58.4034 O   0  0  0  0  0  0  0  0  0  0  0  0
   71.5482   39.2881   58.6003 C   0  0  0  0  0  0  0  0  0  0  0  0
   72.6433   40.1562   58.8001 N   0  0  0  0  0  0  0  0  0  0  0  0
   71.6355   37.8253   58.6084 C   0  0  0  0  0  0  0  0  0  0  0  0
   71.0012   37.0793   59.5835 C   0  0  0  0  0  0  0  0  0  0  0  0
   71.0696   35.6951   59.6123 C   0  0  0  0  0  0  0  0  0  0  0  0
   71.7813   35.0012   58.6576 C   0  0  0  0  0  0  0  0  0  0  0  0
   72.4204   35.7303   57.6783 C   0  0  0  0  0  0  0  0  0  0  0  0
   72.3438   37.1184   57.6611 C   0  0  0  0  0  0  0  0  0  0  0  0
   70.6679   46.2009   58.2267 C   0  0  0  0  0  0  0  0  0  0  0  0
   69.7324   45.7325   58.9350 O   0  0  0  0  0  0  0  0  0  0  0  0
   70.3403   47.0140   57.1262 N   0  0  0  0  0  0  0  0  0  0  0  0
   69.0067   47.3612   56.7482 C   0  0  0  0  0  0  0  0  0  0  0  0
   68.8489   47.2083   55.2867 C   0  0  0  0  0  0  0  0  0  0  0  0
   68.2129   46.0670   54.7782 C   0  0  0  0  0  0  0  0  0  0  0  0
   68.0164   45.8523   53.4375 C   0  0  0  0  0  0  0  0  0  0  0  0
   68.4523   46.7832   52.5239 C   0  0  0  0  0  0  0  0  0  0  0  0
   68.2816   46.6166   51.1850 F   0  0  0  0  0  0  0  0  0  0  0  0
   69.0850   47.9233   52.9972 C   0  0  0  0  0  0  0  0  0  0  0  0
   69.2721   48.1179   54.3474 C   0  0  0  0  0  0  0  0  0  0  0  0
 14 15  2  0
 15 16  1  0
 15 17  1  0
 16  1  1  0
  1  2  2  0
  1  6  1  0
  2  3  1  0
  3  4  2  0
  4  5  1  0
  4 13  1  0
  5  6  2  0
  5  7  1  0
  7  8  2  0
  7  9  1  0
  9 10  1  0
  9 11  1  0
 11 12  2  0
 11 13  1  0
 13 23  1  1
 23 24  2  0
 23 25  1  0
 25 26  1  0
 26 27  1  0
 27 28  2  0
 27 33  1  0
 28 29  1  0
 29 30  2  0
 30 31  1  0
 30 32  1  0
 32 33  2  0
 17 18  2  0
 17 22  1  0
 18 19  1  0
 19 20  2  0
 20 21  1  0
 21 22  2  0
M  END
>  <minimizedAffinity>  (34) 
-9.61048

$$$$
data/reference_output_2/data/smiles/102453.pdb
     RDKit          3D

 31 34  0  0  0  0  0  0  0  0999 V2000
   73.6994   41.6507   58.3295 O   0  0  0  0  0  0  0  0  0  0  0  0
   72.4519   41.5438   58.3209 C   0  0  0  0  0  0  0  0  0  0  0  0
   71.8918   40.3213   58.3881 N   0  0  0  0  0  0  0  0  0  0  0  0
   70.5514   40.2081   58.3789 C   0  0  0  0  0  0  0  0  0  0  0  0
   70.0010   39.0001   58.4452 C   0  0  0  0  0  0  0  0  0  0  0  0
   69.8081   41.3688   58.3008 C   0  0  0  0  0  0  0  0  0  0  0  0
   68.5478   41.2338   58.2948 O   0  0  0  0  0  0  0  0  0  0  0  0
   70.3605   42.5953   58.2336 N   0  0  0  0  0  0  0  0  0  0  0  0
   71.7013   42.7094   58.2427 C   0  0  0  0  0  0  0  0  0  0  0  0
   72.2622   43.9094   58.1771 C   0  0  0  0  0  0  0  0  0  0  0  0
   71.4898   45.1393   58.0950 C   0  0  0  0  0  0  0  0  0  0  0  0
   71.8852   46.2628   58.7846 C   0  0  0  0  0  0  0  0  0  0  0  0
   71.1464   47.4514   58.7101 C   0  0  0  0  0  0  0  0  0  0  0  0
   70.0110   47.4850   57.9332 C   0  0  0  0  0  0  0  0  0  0  0  0
   69.5945   46.3696   57.2306 C   0  0  0  0  0  0  0  0  0  0  0  0
   70.3480   45.2178   57.3297 C   0  0  0  0  0  0  0  0  0  0  0  0
   68.4503   46.4849   56.4770 O   0  0  0  0  0  0  0  0  0  0  0  0
   68.4055   46.5023   55.1033 C   0  0  0  0  0  0  0  0  0  0  0  0
   68.9054   47.5864   54.4193 C   0  0  0  0  0  0  0  0  0  0  0  0
   68.8898   47.6651   53.0352 C   0  0  0  0  0  0  0  0  0  0  0  0
   68.3622   46.6417   52.3038 C   0  0  0  0  0  0  0  0  0  0  0  0
   68.3549   46.7372   50.9481 F   0  0  0  0  0  0  0  0  0  0  0  0
   67.8493   45.5335   52.9661 C   0  0  0  0  0  0  0  0  0  0  0  0
   67.8719   45.4687   54.3485 C   0  0  0  0  0  0  0  0  0  0  0  0
   70.8067   37.7856   58.5273 C   0  0  0  0  0  0  0  0  0  0  0  0
   70.7905   36.8418   59.5340 C   0  0  0  0  0  0  0  0  0  0  0  0
   71.7223   35.8960   59.1532 C   0  0  0  0  0  0  0  0  0  0  0  0
   72.2599   36.2969   57.9488 C   0  0  0  0  0  0  0  0  0  0  0  0
   71.6788   37.4143   57.6370 O   0  0  0  0  0  0  0  0  0  0  0  0
   73.3156   35.5349   57.1947 C   0  0  0  0  0  0  0  0  0  0  0  0
   72.9371   35.3985   55.8802 O   0  0  0  0  0  0  0  0  0  0  0  0
  1  2  2  0
  2  3  1  0
  2  9  1  0
  3  4  1  0
  4  5  2  0
  4  6  1  0
  5 25  1  0
 25 26  2  0
 25 29  1  0
 26 27  1  0
 27 28  2  0
 28 30  1  0
 28 29  1  0
 30 31  1  0
  6  7  2  0
  6  8  1  0
  8  9  1  0
  9 10  2  0
 10 11  1  0
 11 12  2  0
 11 16  1  0
 12 13  1  0
 13 14  2  0
 14 15  1  0
 15 17  1  0
 15 16  2  0
 17 18  1  0
 18 19  2  0
 18 24  1  0
 19 20  1  0
 20 21  2  0
 21 22  1  0
 21 23  1  0
 23 24  2  0
M  END
>  <minimizedAffinity>  (35) 
-9.61029

$$$$
data/reference_output_2/data/smiles/140358.pdb
     RDKit          3D

 30 32  0  0  0  0  0  0  0  0999 V2000
   69.0799   45.2209   56.5353 N   0  0  0  0  0  0  0  0  0  0  0  0
   70.1232   44.6840   57.2994 C   0  0  0  0  0  0  0  0  0  0  0  0
   71.0075   45.4928   57.7086 O   0  0  0  0  0  0  0  0  0  0  0  0
   70.2415   43.2679   57.6411 C   0  0  0  0  0  0  0  0  0  0  0  0
   69.1680   42.4183   57.7637 C   0  0  0  0  0  0  0  0  0  0  0  0
   69.3345   41.0754   58.0911 C   0  0  0  0  0  0  0  0  0  0  0  0
   70.5802   40.5268   58.3108 C   0  0  0  0  0  0  0  0  0  0  0  0
   71.6589   41.3776   58.1893 C   0  0  0  0  0  0  0  0  0  0  0  0
   71.5010   42.7057   57.8646 C   0  0  0  0  0  0  0  0  0  0  0  0
   70.7500   39.1369   58.6498 C   0  0  0  0  0  0  0  0  0  0  0  0
   70.9053   37.9713   58.9157 C   0  0  0  0  0  0  0  0  0  0  0  0
   71.0860   36.5782   59.2163 C   0  0  0  0  0  0  0  0  0  0  0  0
   71.8772   35.7686   58.4172 C   0  0  0  0  0  0  0  0  0  0  0  0
   72.0625   34.4320   58.6901 C   0  0  0  0  0  0  0  0  0  0  0  0
   71.4621   33.8436   59.7772 C   0  0  0  0  0  0  0  0  0  0  0  0
   70.6710   34.6298   60.5865 C   0  0  0  0  0  0  0  0  0  0  0  0
   70.4920   35.9711   60.3025 C   0  0  0  0  0  0  0  0  0  0  0  0
   68.9283   46.8805   56.1271 S   0  0  0  0  0  0  0  0  0  0  0  0
   69.9676   47.7307   56.7951 O   0  0  0  0  0  0  0  0  0  0  0  0
   67.6035   47.3273   56.7490 O   0  0  0  0  0  0  0  0  0  0  0  0
   69.3669   48.1387   53.7721 C   0  0  0  0  0  0  0  0  0  0  0  0
   69.3025   48.2066   52.3762 C   0  0  0  0  0  0  0  0  0  0  0  0
   68.7247   47.2204   51.6218 C   0  0  0  0  0  0  0  0  0  0  0  0
   68.1924   46.1267   52.2818 C   0  0  0  0  0  0  0  0  0  0  0  0
   68.2591   46.0632   53.6506 C   0  0  0  0  0  0  0  0  0  0  0  0
   68.8453   47.0649   54.4169 C   0  0  0  0  0  0  0  0  0  0  0  0
   68.8745   50.2577   55.6008 N   0  0  0  0  0  0  0  0  0  0  0  0
   70.0773   49.4687   54.6326 S   0  0  0  0  0  0  0  0  0  0  0  0
   71.2912   49.1418   55.4101 O   0  0  0  0  0  0  0  0  0  0  0  0
   70.5336   50.5138   53.6030 O   0  0  0  0  0  0  0  0  0  0  0  0
 27 28  1  0
 28 29  2  0
 28 30  2  0
 28 21  1  0
 21 22  2  0
 21 26  1  0
 22 23  1  0
 23 24  2  0
 24 25  1  0
 25 26  2  0
 26 18  1  0
 18 19  2  0
 18 20  2  0
 18  1  1  0
  1  2  1  0
  2  3  2  0
  2  4  1  0
  4  5  2  0
  4  9  1  0
  5  6  1  0
  6  7  2  0
  7 10  1  0
  7  8  1  0
 10 11  3  0
 11 12  1  0
 12 13  2  0
 12 17  1  0
 13 14  1  0
 14 15  2  0
 15 16  1  0
 16 17  2  0
  8  9  2  0
M  END
>  <minimizedAffinity>  (36) 
-9.59771

$$$$
data/reference_output_2/data/smiles/169224.pdb
     RDKit          3D

 32 35  0  0  0  0  0  0  0  0999 V2000
   65.3441   39.7228   60.7349 C   0  0  0  0  0  0  0  0  0  0  0  0
   66.2473   40.2180   59.9024 C   0  0  0  0  0  0  0  0  0  0  0  0
   67.0172   39.3787   59.1788 N   0  0  0  0  0  0  0  0  0  0  0  0
   67.9374   39.8880   58.3309 C   0  0  0  0  0  0  0  0  0  0  0  0
   68.6581   39.0869   57.6529 O   0  0  0  0  0  0  0  0  0  0  0  0
   68.1372   41.2428   58.1611 C   0  0  0  0  0  0  0  0  0  0  0  0
   69.0537   41.7234   57.3164 C   0  0  0  0  0  0  0  0  0  0  0  0
   67.3683   42.0773   58.8830 N   0  0  0  0  0  0  0  0  0  0  0  0
   66.4467   41.5737   59.7329 C   0  0  0  0  0  0  0  0  0  0  0  0
   65.7298   42.3617   60.4065 O   0  0  0  0  0  0  0  0  0  0  0  0
   69.2639   43.1457   57.1373 C   0  0  0  0  0  0  0  0  0  0  0  0
   70.1875   43.8253   57.8841 C   0  0  0  0  0  0  0  0  0  0  0  0
   70.3991   45.1952   57.7216 C   0  0  0  0  0  0  0  0  0  0  0  0
   69.6318   45.8350   56.7718 C   0  0  0  0  0  0  0  0  0  0  0  0
   68.6969   45.1775   56.0079 C   0  0  0  0  0  0  0  0  0  0  0  0
   68.5266   43.8296   56.2058 C   0  0  0  0  0  0  0  0  0  0  0  0
   67.9276   45.8537   55.0457 O   0  0  0  0  0  0  0  0  0  0  0  0
   68.5098   46.6853   54.1087 C   0  0  0  0  0  0  0  0  0  0  0  0
   69.0403   47.9293   54.4403 C   0  0  0  0  0  0  0  0  0  0  0  0
   69.6025   48.6915   53.4330 C   0  0  0  0  0  0  0  0  0  0  0  0
   69.6541   48.2667   52.1222 C   0  0  0  0  0  0  0  0  0  0  0  0
   70.2187   49.0689   51.1959 F   0  0  0  0  0  0  0  0  0  0  0  0
   69.1184   47.0250   51.8217 C   0  0  0  0  0  0  0  0  0  0  0  0
   68.5525   46.2428   52.8036 C   0  0  0  0  0  0  0  0  0  0  0  0
   65.5995   37.5532   61.9690 C   0  0  0  0  0  0  0  0  0  0  0  0
   65.2198   36.2558   61.8375 N   0  0  0  0  0  0  0  0  0  0  0  0
   64.5026   36.2004   60.6865 C   0  0  0  0  0  0  0  0  0  0  0  0
   64.4506   37.4308   60.1385 N   0  0  0  0  0  0  0  0  0  0  0  0
   65.1286   38.2918   60.9209 C   0  0  0  0  0  0  0  0  0  0  0  0
   65.9617   37.5617   64.4339 C   0  0  0  0  0  0  0  0  0  0  0  0
   66.4106   38.0946   63.0904 C   0  0  0  0  0  0  0  0  0  0  0  0
   67.8453   37.6187   62.8815 C   0  0  0  0  0  0  0  0  0  0  0  0
 30 31  1  0
 31 32  1  0
 31 25  1  0
 25 26  1  0
 25 29  2  0
 26 27  1  0
 27 28  2  0
 28 29  1  0
 29  1  1  0
  1  2  2  0
  2  3  1  0
  2  9  1  0
  3  4  1  0
  4  5  2  0
  4  6  1  0
  6  7  2  0
  6  8  1  0
  7 11  1  0
 11 12  2  0
 11 16  1  0
 12 13  1  0
 13 14  2  0
 14 15  1  0
 15 17  1  0
 15 16  2  0
 17 18  1  0
 18 19  2  0
 18 24  1  0
 19 20  1  0
 20 21  2  0
 21 22  1  0
 21 23  1  0
 23 24  2  0
  8  9  1  0
  9 10  2  0
M  CHG  1  28   1
M  END
>  <minimizedAffinity>  (37) 
-9.57852

$$$$
data/reference_output_2/data/smiles/119777.pdb
     RDKit          3D

 31 33  0  0  0  0  0  0  0  0999 V2000
   71.3511   43.6587   57.9429 C   0  0  0  0  0  0  0  0  0  0  0  0
   72.0650   44.7083   58.4855 C   0  0  0  0  0  0  0  0  0  0  0  0
   71.6040   46.0091   58.4296 C   0  0  0  0  0  0  0  0  0  0  0  0
   70.4048   46.3207   57.8269 C   0  0  0  0  0  0  0  0  0  0  0  0
   69.6728   45.2904   57.2772 C   0  0  0  0  0  0  0  0  0  0  0  0
   70.1537   43.9769   57.3428 C   0  0  0  0  0  0  0  0  0  0  0  0
   73.0751   42.0927   57.7280 O   0  0  0  0  0  0  0  0  0  0  0  0
   71.8706   42.3002   58.0232 C   0  0  0  0  0  0  0  0  0  0  0  0
   71.1219   41.1678   58.4106 N   0  0  0  0  0  0  0  0  0  0  0  0
   71.6225   39.8649   58.4866 N   0  0  0  0  0  0  0  0  0  0  0  0
   70.8150   38.7128   58.3552 C   0  0  0  0  0  0  0  0  0  0  0  0
   69.5892   38.9274   58.1606 O   0  0  0  0  0  0  0  0  0  0  0  0
   71.3068   37.3413   58.4293 C   0  0  0  0  0  0  0  0  0  0  0  0
   72.1746   36.8043   57.5117 C   0  0  0  0  0  0  0  0  0  0  0  0
   72.6293   35.4847   57.6100 C   0  0  0  0  0  0  0  0  0  0  0  0
   72.2135   34.6745   58.6442 C   0  0  0  0  0  0  0  0  0  0  0  0
   71.3417   35.2146   59.5650 C   0  0  0  0  0  0  0  0  0  0  0  0
   70.8961   36.5248   59.4603 C   0  0  0  0  0  0  0  0  0  0  0  0
   70.0150   37.0663   60.3949 O   0  0  0  0  0  0  0  0  0  0  0  0
   69.9606   47.6875   57.7884 N   0  0  0  0  0  0  0  0  0  0  0  0
   68.5735   48.1796   56.9250 S   0  0  0  0  0  0  0  0  0  0  0  0
   67.3154   47.6253   57.5256 O   0  0  0  0  0  0  0  0  0  0  0  0
   68.4696   49.6741   56.9729 O   0  0  0  0  0  0  0  0  0  0  0  0
   68.6903   47.7309   55.2163 C   0  0  0  0  0  0  0  0  0  0  0  0
   69.4683   48.4535   54.3356 C   0  0  0  0  0  0  0  0  0  0  0  0
   69.5585   48.1017   53.0027 C   0  0  0  0  0  0  0  0  0  0  0  0
   68.8738   47.0179   52.5136 C   0  0  0  0  0  0  0  0  0  0  0  0
   68.9984   46.7179   51.1980 F   0  0  0  0  0  0  0  0  0  0  0  0
   68.0910   46.2832   53.3774 C   0  0  0  0  0  0  0  0  0  0  0  0
   67.4128   45.2077   52.8896 F   0  0  0  0  0  0  0  0  0  0  0  0
   68.0085   46.6444   54.7083 C   0  0  0  0  0  0  0  0  0  0  0  0
  7  8  2  0
  8  9  1  0
  8  1  1  0
  9 10  1  0
 10 11  1  0
 11 12  2  0
 11 13  1  0
 13 14  2  0
 13 18  1  0
 14 15  1  0
 15 16  2  0
 16 17  1  0
 17 18  2  0
 18 19  1  0
  1  2  2  0
  1  6  1  0
  2  3  1  0
  3  4  2  0
  4 20  1  0
  4  5  1  0
 20 21  1  0
 21 22  2  0
 21 23  2  0
 21 24  1  0
 24 25  2  0
 24 31  1  0
 25 26  1  0
 26 27  2  0
 27 28  1  0
 27 29  1  0
 29 30  1  0
 29 31  2  0
  5  6  2  0
M  END
>  <minimizedAffinity>  (38) 
-9.57399

$$$$
data/reference_output_2/data/smiles/190130.pdb
     RDKit          3D

 29 32  0  0  0  0  0  0  0  0999 V2000
   69.5854   40.6672   58.4402 N   0  0  0  0  0  0  0  0  0  0  0  0
   70.1044   41.8213   59.1741 C   0  0  0  0  0  0  0  0  0  0  0  0
   70.4146   42.9754   58.2553 C   0  0  0  0  0  0  0  0  0  0  0  0
   69.3088   43.2147   57.3017 C   0  0  0  0  0  0  0  0  0  0  0  0
   69.0038   44.3977   56.6359 C   0  0  0  0  0  0  0  0  0  0  0  0
   67.9114   44.0927   55.8899 N   0  0  0  0  0  0  0  0  0  0  0  0
   67.5688   42.8220   56.0792 N   0  0  0  0  0  0  0  0  0  0  0  0
   68.4069   42.2441   56.9462 C   0  0  0  0  0  0  0  0  0  0  0  0
   68.5393   40.9191   57.5293 C   0  0  0  0  0  0  0  0  0  0  0  0
   67.7410   39.9827   57.2416 O   0  0  0  0  0  0  0  0  0  0  0  0
   71.1896   36.7620   58.9722 C   0  0  0  0  0  0  0  0  0  0  0  0
   69.9990   37.1393   59.5569 C   0  0  0  0  0  0  0  0  0  0  0  0
   69.4654   38.4009   59.3947 C   0  0  0  0  0  0  0  0  0  0  0  0
   70.1040   39.3558   58.6317 C   0  0  0  0  0  0  0  0  0  0  0  0
   71.2942   38.9798   58.0467 C   0  0  0  0  0  0  0  0  0  0  0  0
   71.8295   37.7165   58.2086 C   0  0  0  0  0  0  0  0  0  0  0  0
   71.8469   34.9884   60.4714 C   0  0  0  0  0  0  0  0  0  0  0  0
   71.7083   35.4820   59.1512 O   0  0  0  0  0  0  0  0  0  0  0  0
   69.6715   45.6441   56.7081 N   0  0  0  0  0  0  0  0  0  0  0  0
   68.9681   47.0708   56.0481 S   0  0  0  0  0  0  0  0  0  0  0  0
   67.5565   47.1747   56.6040 O   0  0  0  0  0  0  0  0  0  0  0  0
   69.7279   48.2994   56.4628 O   0  0  0  0  0  0  0  0  0  0  0  0
   68.8083   46.9914   54.3143 C   0  0  0  0  0  0  0  0  0  0  0  0
   69.4926   47.8716   53.4728 C   0  0  0  0  0  0  0  0  0  0  0  0
   69.3532   47.7952   52.0853 C   0  0  0  0  0  0  0  0  0  0  0  0
   68.5383   46.8486   51.5131 C   0  0  0  0  0  0  0  0  0  0  0  0
   67.8523   45.9659   52.3461 C   0  0  0  0  0  0  0  0  0  0  0  0
   67.0657   45.0556   51.7623 F   0  0  0  0  0  0  0  0  0  0  0  0
   67.9981   46.0526   53.7154 C   0  0  0  0  0  0  0  0  0  0  0  0
 17 18  1  0
 18 11  1  0
 11 12  2  0
 11 16  1  0
 12 13  1  0
 13 14  2  0
 14  1  1  0
 14 15  1  0
  1  2  1  0
  1  9  1  0
  2  3  1  0
  3  4  1  0
  4  5  1  0
  4  8  2  0
  5 19  1  0
  5  6  2  0
 19 20  1  0
 20 21  2  0
 20 22  2  0
 20 23  1  0
 23 24  2  0
 23 29  1  0
 24 25  1  0
 25 26  2  0
 26 27  1  0
 27 28  1  0
 27 29  2  0
  6  7  1  0
  7  8  1  0
  8  9  1  0
  9 10  2  0
 15 16  2  0
M  END
>  <minimizedAffinity>  (39) 
-9.57387

$$$$
data/reference_output_2/data/smiles/167075.pdb
     RDKit          3D

 32 34  0  0  0  0  0  0  0  0999 V2000
   69.1733   39.9874   59.1943 N   0  0  0  0  0  0  0  0  0  0  0  0
   68.1250   39.9742   60.2354 C   0  0  0  0  0  0  0  0  0  0  0  0
   67.1206   41.0802   59.9384 C   0  0  0  0  0  0  0  0  0  0  0  0
   66.9369   41.1850   58.5386 O   0  0  0  0  0  0  0  0  0  0  0  0
   68.0315   41.8715   58.0313 C   0  0  1  0  0  0  0  0  0  0  0  0
   69.2560   41.1644   58.4163 C   0  0  0  0  0  0  0  0  0  0  0  0
   70.4183   41.5581   58.0831 O   0  0  0  0  0  0  0  0  0  0  0  0
   71.6825   36.5839   58.7107 C   0  0  0  0  0  0  0  0  0  0  0  0
   71.8970   37.7259   57.9693 C   0  0  0  0  0  0  0  0  0  0  0  0
   71.0777   38.8380   58.1199 C   0  0  0  0  0  0  0  0  0  0  0  0
   70.0236   38.8745   58.9987 C   0  0  0  0  0  0  0  0  0  0  0  0
   69.8113   37.7206   59.7434 C   0  0  0  0  0  0  0  0  0  0  0  0
   70.6286   36.6014   59.5975 C   0  0  0  0  0  0  0  0  0  0  0  0
   72.9421   35.1563   57.1040 C   0  0  0  0  0  0  0  0  0  0  0  0
   72.5606   35.3839   58.5521 C   0  0  0  0  0  0  0  0  0  0  0  0
   73.8361   35.5176   59.3464 C   0  0  0  0  0  0  0  0  0  0  0  0
   71.8589   34.1287   59.0275 C   0  0  0  0  0  0  0  0  0  0  0  0
   67.9220   42.1246   56.5551 C   0  0  1  0  0  0  0  0  0  0  0  0
   66.5697   41.8977   56.2203 O   0  0  0  0  0  0  0  0  0  0  0  0
   68.3819   43.4402   56.1150 C   0  0  0  0  0  0  0  0  0  0  0  0
   69.4328   43.9225   56.6016 O   0  0  0  0  0  0  0  0  0  0  0  0
   67.6769   44.1934   55.1548 N   0  0  0  0  0  0  0  0  0  0  0  0
   68.1355   45.4662   54.7407 C   0  0  0  0  0  0  0  0  0  0  0  0
   68.5853   46.4238   55.6365 C   0  0  0  0  0  0  0  0  0  0  0  0
   69.0253   47.6547   55.1962 C   0  0  0  0  0  0  0  0  0  0  0  0
   69.0371   47.9864   53.8534 C   0  0  0  0  0  0  0  0  0  0  0  0
   68.5890   47.0307   52.9687 C   0  0  0  0  0  0  0  0  0  0  0  0
   68.1522   45.8083   53.4026 C   0  0  0  0  0  0  0  0  0  0  0  0
   67.7112   44.8676   52.5327 F   0  0  0  0  0  0  0  0  0  0  0  0
   69.5067   49.2990   53.3955 C   0  0  0  0  0  0  0  0  0  0  0  0
   70.4601   49.3260   52.5270 N   0  0  0  0  0  0  0  0  0  0  0  0
   68.9750   50.5212   53.8533 N   0  0  0  0  0  0  0  0  0  0  0  0
 14 15  1  0
 15 16  1  0
 15 17  1  0
 15  8  1  0
  8  9  2  0
  8 13  1  0
  9 10  1  0
 10 11  2  0
 11  1  1  0
 11 12  1  0
  1  2  1  0
  1  6  1  0
  2  3  1  0
  3  4  1  0
  5  4  1  6
  5 18  1  0
  5  6  1  0
 18 19  1  1
 18 20  1  0
 20 21  2  0
 20 22  1  0
 22 23  1  0
 23 24  2  0
 23 28  1  0
 24 25  1  0
 25 26  2  0
 26 30  1  0
 26 27  1  0
 30 31  2  0
 30 32  1  0
 27 28  2  0
 28 29  1  0
  6  7  2  0
 12 13  2  0
M  CHG  1  31   1
M  END
>  <minimizedAffinity>  (40) 
-9.57181

$$$$
data/200k_reference_output/data/smiles/82058.pdb
     RDKit          3D

 29 32  0  0  0  0  0  0  0  0999 V2000
   68.7715   41.3303   57.4576 C   0  0  0  0  0  0  0  0  0  0  0  0
   68.3271   40.0114   57.6361 C   0  0  0  0  0  0  0  0  0  0  0  0
   69.1581   39.0280   58.1163 C   0  0  0  0  0  0  0  0  0  0  0  0
   70.4617   39.3228   58.4376 C   0  0  0  0  0  0  0  0  0  0  0  0
   70.9507   40.6281   58.2769 C   0  0  0  0  0  0  0  0  0  0  0  0
   72.2582   40.9167   58.5944 C   0  0  0  0  0  0  0  0  0  0  0  0
   73.0089   40.0316   59.0270 O   0  0  0  0  0  0  0  0  0  0  0  0
   72.7099   42.2011   58.4235 C   0  0  0  0  0  0  0  0  0  0  0  0
   74.0305   42.5239   58.7398 C   0  0  0  0  0  0  0  0  0  0  0  0
   74.4525   43.8116   58.5615 C   0  0  0  0  0  0  0  0  0  0  0  0
   73.5466   44.7586   58.0702 C   0  0  0  0  0  0  0  0  0  0  0  0
   72.2463   44.4302   57.7609 C   0  0  0  0  0  0  0  0  0  0  0  0
   71.8101   43.1271   57.9385 C   0  0  0  0  0  0  0  0  0  0  0  0
   70.5335   42.8589   57.6230 N   0  0  0  0  0  0  0  0  0  0  0  0
   70.0842   41.5956   57.7896 C   0  0  0  0  0  0  0  0  0  0  0  0
   68.3576   43.1829   55.8567 N   0  0  0  0  0  0  0  0  0  0  0  0
   67.8924   42.3444   56.9172 C   0  0  0  0  0  0  0  0  0  0  0  0
   66.7103   42.5541   57.3225 O   0  0  0  0  0  0  0  0  0  0  0  0
   67.5509   44.1851   55.3170 N   0  0  0  0  0  0  0  0  0  0  0  0
   69.2376   47.7028   53.5698 C   0  0  0  0  0  0  0  0  0  0  0  0
   68.6409   46.7312   52.7797 C   0  0  0  0  0  0  0  0  0  0  0  0
   68.0872   45.5764   53.3401 C   0  0  0  0  0  0  0  0  0  0  0  0
   68.1047   45.3423   54.6897 C   0  0  0  0  0  0  0  0  0  0  0  0
   68.7100   46.3294   55.4800 C   0  0  0  0  0  0  0  0  0  0  0  0
   69.2533   47.4652   54.9283 C   0  0  0  0  0  0  0  0  0  0  0  0
   70.0584   49.0871   51.1749 N   0  0  0  0  0  0  0  0  0  0  0  0
   69.9460   49.1489   52.8785 S   0  0  0  0  0  0  0  0  0  0  0  0
   69.1613   50.3729   53.2812 O   0  0  0  0  0  0  0  0  0  0  0  0
   71.3470   49.3579   53.4271 O   0  0  0  0  0  0  0  0  0  0  0  0
 26 27  1  0
 27 28  2  0
 27 29  2  0
 27 20  1  0
 20 21  2  0
 20 25  1  0
 21 22  1  0
 22 23  2  0
 23 19  1  0
 23 24  1  0
 19 16  1  0
 16 17  1  0
 17 18  2  0
 17  1  1  0
  1  2  2  0
  1 15  1  0
  2  3  1  0
  3  4  2  0
  4  5  1  0
  5  6  1  0
  5 15  2  0
  6  7  2  0
  6  8  1  0
  8  9  1  0
  8 13  2  0
  9 10  2  0
 10 11  1  0
 11 12  2  0
 12 13  1  0
 13 14  1  0
 14 15  1  0
 24 25  2  0
M  END
>  <minimizedAffinity>  (41) 
-9.56847

$$$$
data/200k_reference_output/data/smiles/27234.pdb
     RDKit          3D

 25 26  0  0  0  0  0  0  0  0999 V2000
   69.9759   49.3580   52.7080 S   0  0  0  0  0  0  0  0  0  0  0  0
   69.9219   49.3846   51.2082 O   0  0  0  0  0  0  0  0  0  0  0  0
   71.4195   49.4081   53.1328 O   0  0  0  0  0  0  0  0  0  0  0  0
   69.2305   47.8754   53.3032 C   0  0  0  0  0  0  0  0  0  0  0  0
   69.2999   47.6308   54.6579 C   0  0  0  0  0  0  0  0  0  0  0  0
   69.9167   48.5031   55.5047 F   0  0  0  0  0  0  0  0  0  0  0  0
   68.7366   46.4847   55.1787 C   0  0  0  0  0  0  0  0  0  0  0  0
   68.7823   46.2048   56.5045 F   0  0  0  0  0  0  0  0  0  0  0  0
   68.1016   45.5794   54.3323 C   0  0  0  0  0  0  0  0  0  0  0  0
   67.5586   44.4612   54.8820 F   0  0  0  0  0  0  0  0  0  0  0  0
   68.0320   45.8239   52.9798 C   0  0  0  0  0  0  0  0  0  0  0  0
   67.4067   44.9187   52.2003 F   0  0  0  0  0  0  0  0  0  0  0  0
   68.5984   46.9725   52.4754 C   0  0  0  0  0  0  0  0  0  0  0  0
   68.5378   47.2168   51.1385 F   0  0  0  0  0  0  0  0  0  0  0  0
   69.1101   50.7306   53.2863 N   0  0  0  0  0  0  0  0  0  0  0  0
   71.5737   52.9398   55.0439 C   0  0  0  0  0  0  0  0  0  0  0  0
   70.8463   53.3902   56.1156 C   0  0  0  0  0  0  0  0  0  0  0  0
   69.5476   52.9428   56.2240 C   0  0  0  0  0  0  0  0  0  0  0  0
   68.9887   52.0824   55.3104 C   0  0  0  0  0  0  0  0  0  0  0  0
   69.7271   51.6174   54.2112 C   0  0  0  0  0  0  0  0  0  0  0  0
   71.0215   52.0753   54.1190 C   0  0  0  0  0  0  0  0  0  0  0  0
   73.7882   52.8248   53.2858 N   0  0  0  0  0  0  0  0  0  0  0  0
   73.2277   53.4498   54.8176 S   0  0  0  0  0  0  0  0  0  0  0  0
   74.1414   52.8936   55.8705 O   0  0  0  0  0  0  0  0  0  0  0  0
   73.3400   54.9451   54.7282 O   0  0  0  0  0  0  0  0  0  0  0  0
 22 23  1  0
 23 24  2  0
 23 25  2  0
 23 16  1  0
 16 17  2  0
 16 21  1  0
 17 18  1  0
 18 19  2  0
 19 20  1  0
 20 15  1  0
 20 21  2  0
 15  1  1  0
  1  2  2  0
  1  3  2  0
  1  4  1  0
  4  5  2  0
  4 13  1  0
  5  6  1  0
  5  7  1  0
  7  8  1  0
  7  9  2  0
  9 10  1  0
  9 11  1  0
 11 12  1  0
 11 13  2  0
 13 14  1  0
M  END
>  <minimizedAffinity>  (42) 
-9.56258

$$$$
data/reference_output_2/data/smiles/179208.pdb
     RDKit          3D

 29 32  0  0  0  0  0  0  0  0999 V2000
   69.7700   44.5748   57.2419 C   0  0  0  0  0  0  0  0  0  0  0  0
   70.7912   45.2126   57.8651 C   0  0  0  0  0  0  0  0  0  0  0  0
   71.8180   44.8798   58.6857 C   0  0  0  0  0  0  0  0  0  0  0  0
   71.7951   43.2656   58.9871 C   0  0  0  0  0  0  0  0  0  0  0  0
   72.7472   42.9299   59.7737 F   0  0  0  0  0  0  0  0  0  0  0  0
   70.8426   43.1463   58.3137 C   0  0  0  0  0  0  0  0  0  0  0  0
   69.7672   43.0131   57.5536 C   0  0  0  0  0  0  0  0  0  0  0  0
   68.9010   42.3196   57.0604 F   0  0  0  0  0  0  0  0  0  0  0  0
   70.9402   41.3387   58.4928 C   0  0  0  0  0  0  0  0  0  0  0  0
   71.0125   40.2168   58.5888 C   0  0  0  0  0  0  0  0  0  0  0  0
   71.0924   38.8342   58.6891 C   0  0  0  0  0  0  0  0  0  0  0  0
   70.3192   38.1201   59.5860 C   0  0  0  0  0  0  0  0  0  0  0  0
   70.4022   36.7926   59.6804 N   0  0  0  0  0  0  0  0  0  0  0  0
   71.2410   36.0939   58.9042 C   0  0  0  0  0  0  0  0  0  0  0  0
   71.5030   34.7567   58.8156 N   0  0  0  0  0  0  0  0  0  0  0  0
   72.4209   34.5654   57.8912 N   0  0  0  0  0  0  0  0  0  0  0  0
   72.7704   35.7735   57.3657 C   0  0  0  0  0  0  0  0  0  0  0  0
   72.0343   36.7486   57.9941 C   0  0  0  0  0  0  0  0  0  0  0  0
   71.9616   38.1062   57.8855 C   0  0  0  0  0  0  0  0  0  0  0  0
   68.8052   44.9672   56.3984 N   0  0  0  0  0  0  0  0  0  0  0  0
   67.4636   47.2802   56.5522 O   0  0  0  0  0  0  0  0  0  0  0  0
   68.6403   46.6547   55.9137 S   0  0  0  0  0  0  0  0  0  0  0  0
   69.9010   47.3549   56.2948 O   0  0  0  0  0  0  0  0  0  0  0  0
   68.5267   46.6581   54.1717 C   0  0  0  0  0  0  0  0  0  0  0  0
   67.7678   45.6895   53.5253 C   0  0  0  0  0  0  0  0  0  0  0  0
   67.6506   45.7061   52.1573 C   0  0  0  0  0  0  0  0  0  0  0  0
   68.3041   46.7076   51.4371 C   0  0  0  0  0  0  0  0  0  0  0  0
   69.0224   47.6155   52.1116 N   0  0  0  0  0  0  0  0  0  0  0  0
   69.1615   47.6324   53.4514 C   0  0  0  0  0  0  0  0  0  0  0  0
 21 22  2  0
 22 23  2  0
 22 20  1  0
 22 24  1  0
 20  1  1  0
  1  2  2  0
  1  7  1  0
  2  3  1  0
  3  4  2  0
  4  5  1  0
  4  6  1  0
  6  9  1  0
  6  7  2  0
  9 10  3  0
 10 11  1  0
 11 12  2  0
 11 19  1  0
 12 13  1  0
 13 14  2  0
 14 15  1  0
 14 18  1  0
 15 16  1  0
 16 17  2  0
 17 18  1  0
 18 19  2  0
  7  8  1  0
 24 25  2  0
 24 29  1  0
 25 26  1  0
 26 27  2  0
 27 28  1  0
 28 29  2  0
M  END
>  <minimizedAffinity>  (43) 
-9.56064

$$$$
data/200k_reference_output/data/smiles/57729.pdb
     RDKit          3D

 31 34  0  0  0  0  0  0  0  0999 V2000
   77.4565   35.2829   51.6805 C   0  0  0  0  0  0  0  0  0  0  0  0
   76.3044   35.2352   52.3712 C   0  0  0  0  0  0  0  0  0  0  0  0
   75.1546   35.0615   51.6958 N   0  0  0  0  0  0  0  0  0  0  0  0
   74.0199   35.0170   52.4169 C   0  0  0  0  0  0  0  0  0  0  0  0
   72.9498   34.8561   51.8022 O   0  0  0  0  0  0  0  0  0  0  0  0
   74.0159   35.1438   53.7983 C   0  0  0  0  0  0  0  0  0  0  0  0
   72.8956   35.1009   54.5054 C   0  0  0  0  0  0  0  0  0  0  0  0
   75.1582   35.3161   54.4632 N   0  0  0  0  0  0  0  0  0  0  0  0
   76.3060   35.3622   53.7482 C   0  0  0  0  0  0  0  0  0  0  0  0
   77.4162   35.5248   54.3436 O   0  0  0  0  0  0  0  0  0  0  0  0
   76.1996   33.5547   47.1659 C   0  0  0  0  0  0  0  0  0  0  0  0
   76.8093   34.3730   48.2501 C   0  0  0  0  0  0  0  0  0  0  0  0
   77.6362   35.4554   48.0408 C   0  0  0  0  0  0  0  0  0  0  0  0
   77.9890   35.9395   49.2795 C   0  0  0  0  0  0  0  0  0  0  0  0
   77.3656   35.1379   50.2089 C   0  0  0  0  0  0  0  0  0  0  0  0
   76.6888   34.2383   49.5467 O   0  0  0  0  0  0  0  0  0  0  0  0
   72.8971   35.2365   55.9722 C   0  0  0  0  0  0  0  0  0  0  0  0
   73.3155   34.2037   56.7849 C   0  0  0  0  0  0  0  0  0  0  0  0
   73.3095   34.3513   58.1645 C   0  0  0  0  0  0  0  0  0  0  0  0
   72.8850   35.5251   58.7418 C   0  0  0  0  0  0  0  0  0  0  0  0
   72.4531   36.5970   57.9526 C   0  0  0  0  0  0  0  0  0  0  0  0
   72.4811   36.3941   56.5905 C   0  0  0  0  0  0  0  0  0  0  0  0
   72.0161   37.8440   58.5680 C   0  0  0  0  0  0  0  0  0  0  0  0
   72.8746   38.7004   58.8580 O   0  0  0  0  0  0  0  0  0  0  0  0
   70.6076   38.0865   58.8384 C   0  0  0  0  0  0  0  0  0  0  0  0
   69.9486   37.3996   59.8661 C   0  0  0  0  0  0  0  0  0  0  0  0
   68.6296   37.5921   60.1403 C   0  0  0  0  0  0  0  0  0  0  0  0
   67.8761   38.4723   59.4201 C   0  0  0  0  0  0  0  0  0  0  0  0
   66.5592   38.6252   59.7398 F   0  0  0  0  0  0  0  0  0  0  0  0
   68.4803   39.1716   58.3982 C   0  0  0  0  0  0  0  0  0  0  0  0
   69.8269   38.9700   58.1252 C   0  0  0  0  0  0  0  0  0  0  0  0
 11 12  1  0
 12 13  2  0
 12 16  1  0
 13 14  1  0
 14 15  2  0
 15  1  1  0
 15 16  1  0
  1  2  2  0
  2  3  1  0
  2  9  1  0
  3  4  1  0
  4  5  2  0
  4  6  1  0
  6  7  2  0
  6  8  1  0
  7 17  1  0
 17 18  2  0
 17 22  1  0
 18 19  1  0
 19 20  2  0
 20 21  1  0
 21 23  1  0
 21 22  2  0
 23 24  2  0
 23 25  1  0
 25 26  2  0
 25 31  1  0
 26 27  1  0
 27 28  2  0
 28 29  1  0
 28 30  1  0
 30 31  2  0
  8  9  1  0
  9 10  2  0
M  END
>  <minimizedAffinity>  (44) 
-9.55809

$$$$
data/reference_output_2/data/smiles/142787.pdb
     RDKit          3D

 30 33  0  0  0  0  0  0  0  0999 V2000
   70.0617   39.5588   58.2366 C   0  0  0  0  0  0  0  0  0  0  0  0
   70.3793   40.9999   58.5286 C   0  0  0  0  0  0  0  0  0  0  0  0
   69.7068   41.9432   57.5531 C   0  0  0  0  0  0  0  0  0  0  0  0
   68.3103   41.6389   57.3842 N   0  0  0  0  0  0  0  0  0  0  0  0
   67.5061   42.4747   56.5793 C   0  0  0  0  0  0  0  0  0  0  0  0
   66.2841   42.2373   56.4128 O   0  0  0  0  0  0  0  0  0  0  0  0
   67.7363   40.4752   58.0381 C   0  0  0  0  0  0  0  0  0  0  0  0
   68.6697   39.3122   57.8071 C   0  0  0  0  0  0  0  0  0  0  0  0
   68.0676   43.6380   55.9192 C   0  0  0  0  0  0  0  0  0  0  0  0
   69.1579   44.1868   56.2522 O   0  0  0  0  0  0  0  0  0  0  0  0
   67.3864   44.2513   54.8074 N   0  0  0  0  0  0  0  0  0  0  0  0
   67.9393   45.3892   54.1650 C   0  0  0  0  0  0  0  0  0  0  0  0
   68.0794   45.5028   52.7982 C   0  0  0  0  0  0  0  0  0  0  0  0
   68.6281   46.6393   52.2109 C   0  0  0  0  0  0  0  0  0  0  0  0
   69.0510   47.6910   52.9866 C   0  0  0  0  0  0  0  0  0  0  0  0
   68.9144   47.5856   54.3552 C   0  0  0  0  0  0  0  0  0  0  0  0
   68.3696   46.4561   54.9305 C   0  0  0  0  0  0  0  0  0  0  0  0
   69.3457   48.6562   55.1230 O   0  0  0  0  0  0  0  0  0  0  0  0
   70.3475   49.5621   54.6499 C   0  0  0  0  0  0  0  0  0  0  0  0
   70.0366   49.9191   53.2332 C   0  0  0  0  0  0  0  0  0  0  0  0
   70.1428   51.1047   52.8102 O   0  0  0  0  0  0  0  0  0  0  0  0
   69.6138   48.8564   52.3851 N   0  0  0  0  0  0  0  0  0  0  0  0
   70.5705   38.7037   59.3637 C   0  0  0  0  0  0  0  0  0  0  0  0
   72.8491   33.6464   57.8313 C   0  0  0  0  0  0  0  0  0  0  0  0
   72.2722   34.9778   58.2031 C   0  0  0  0  0  0  0  0  0  0  0  0
   72.5564   36.1107   57.4887 C   0  0  0  0  0  0  0  0  0  0  0  0
   71.9982   37.3106   57.8745 C   0  0  0  0  0  0  0  0  0  0  0  0
   71.1579   37.4211   58.9584 C   0  0  0  0  0  0  0  0  0  0  0  0
   70.8734   36.2829   59.6765 C   0  0  0  0  0  0  0  0  0  0  0  0
   71.4318   35.0880   59.2887 C   0  0  0  0  0  0  0  0  0  0  0  0
 24 25  1  0
 25 26  2  0
 25 30  1  0
 26 27  1  0
 27 28  2  0
 28 23  1  0
 28 29  1  0
 23  1  1  0
  1  2  1  0
  1  8  1  0
  2  3  1  0
  3  4  1  0
  4  5  1  0
  4  7  1  0
  5  6  2  0
  5  9  1  0
  9 10  2  0
  9 11  1  0
 11 12  1  0
 12 13  2  0
 12 17  1  0
 13 14  1  0
 14 15  2  0
 15 16  1  0
 15 22  1  0
 16 17  2  0
 16 18  1  0
 18 19  1  0
 19 20  1  0
 20 21  2  0
 20 22  1  0
  7  8  1  0
 29 30  2  0
M  END
>  <minimizedAffinity>  (45) 
-9.55789

$$$$
data/reference_output_2/data/smiles/137022.pdb
     RDKit          3D

 31 34  0  0  0  0  0  0  0  0999 V2000
   69.7664   43.2749   57.7199 C   0  0  0  0  0  0  0  0  0  0  0  0
   68.6483   42.5068   57.9532 C   0  0  0  0  0  0  0  0  0  0  0  0
   68.7496   41.1684   58.2565 C   0  0  0  0  0  0  0  0  0  0  0  0
   69.9840   40.5067   58.3466 C   0  0  0  0  0  0  0  0  0  0  0  0
   71.0880   41.2842   58.1116 C   0  0  0  0  0  0  0  0  0  0  0  0
   72.3239   40.7373   58.1725 F   0  0  0  0  0  0  0  0  0  0  0  0
   70.9839   42.6494   57.8023 C   0  0  0  0  0  0  0  0  0  0  0  0
   71.0590   45.2820   59.2944 N   0  0  0  0  0  0  0  0  0  0  0  0
   70.3184   45.6564   58.1668 C   0  0  0  0  0  0  0  0  0  0  0  0
   70.2382   46.9640   57.8563 N   0  0  0  0  0  0  0  0  0  0  0  0
   69.5330   47.3746   56.7746 C   0  0  0  0  0  0  0  0  0  0  0  0
   68.9009   46.4323   55.9995 C   0  0  0  0  0  0  0  0  0  0  0  0
   68.9945   45.1437   56.3266 N   0  0  0  0  0  0  0  0  0  0  0  0
   69.6865   44.7138   57.3927 C   0  0  0  0  0  0  0  0  0  0  0  0
   68.1084   46.8483   54.7892 C   0  0  1  0  0  0  0  0  0  0  0  0
   68.6387   48.1170   54.1819 C   0  0  0  0  0  0  0  0  0  0  0  0
   69.8136   47.8313   53.2419 C   0  0  0  0  0  0  0  0  0  0  0  0
   69.2458   47.0464   52.1143 C   0  0  0  0  0  0  0  0  0  0  0  0
   69.6433   47.1413   50.9255 O   0  0  0  0  0  0  0  0  0  0  0  0
   68.1879   46.1424   52.4423 N   0  0  0  0  0  0  0  0  0  0  0  0
   68.1227   45.6896   53.8153 C   0  0  0  0  0  0  0  0  0  0  0  0
   70.0045   39.0876   58.6758 C   0  0  0  0  0  0  0  0  0  0  0  0
   68.9587   38.4121   58.4328 O   0  0  0  0  0  0  0  0  0  0  0  0
   71.0612   38.3676   59.2406 N   0  0  0  0  0  0  0  0  0  0  0  0
   71.0450   36.9471   59.5582 C   0  0  0  0  0  0  0  0  0  0  0  0
   71.7799   36.1899   58.5197 C   0  0  0  0  0  0  0  0  0  0  0  0
   71.9290   34.8136   58.7125 C   0  0  0  0  0  0  0  0  0  0  0  0
   72.6075   34.0200   57.8048 C   0  0  0  0  0  0  0  0  0  0  0  0
   73.1597   34.5591   56.6785 C   0  0  0  0  0  0  0  0  0  0  0  0
   73.0164   35.9223   56.4802 C   0  0  0  0  0  0  0  0  0  0  0  0
   72.3367   36.7107   57.3932 C   0  0  0  0  0  0  0  0  0  0  0  0
  8  9  1  0
  9 10  2  0
  9 14  1  0
 10 11  1  0
 11 12  2  0
 15 12  1  1
 12 13  1  0
 15 16  1  0
 15 21  1  0
 16 17  1  0
 17 18  1  0
 18 19  2  0
 18 20  1  0
 20 21  1  0
 13 14  2  0
 14  1  1  0
  1  2  2  0
  1  7  1  0
  2  3  1  0
  3  4  2  0
  4 22  1  0
  4  5  1  0
 22 23  2  0
 22 24  1  0
 24 25  1  0
 25 26  1  0
 26 27  2  0
 26 31  1  0
 27 28  1  0
 28 29  2  0
 29 30  1  0
 30 31  2  0
  5  6  1  0
  5  7  2  0
M  END
>  <minimizedAffinity>  (46) 
-9.54803

$$$$
data/200k_reference_output/data/smiles/38899.pdb
     RDKit          3D

 31 33  0  0  0  0  0  0  0  0999 V2000
   69.7487   47.3050   57.3900 C   0  0  0  0  0  0  0  0  0  0  0  0
   68.5539   47.2317   57.7989 O   0  0  0  0  0  0  0  0  0  0  0  0
   69.9924   47.9479   56.1713 N   0  0  0  0  0  0  0  0  0  0  0  0
   68.9759   48.5413   55.3312 C   0  0  1  0  0  0  0  0  0  0  0  0
   69.2874   49.9291   54.9592 C   0  0  0  0  0  0  0  0  0  0  0  0
   68.7530   50.7943   55.7035 O   0  0  0  0  0  0  0  0  0  0  0  0
   70.0760   50.4928   53.9198 N   0  0  0  0  0  0  0  0  0  0  0  0
   70.5469   51.8570   54.1528 C   0  0  0  0  0  0  0  0  0  0  0  0
   70.4401   49.8877   52.7198 N   0  0  0  0  0  0  0  0  0  0  0  0
   70.0960   48.7131   52.2690 C   0  0  0  0  0  0  0  0  0  0  0  0
   69.2450   47.7249   52.8894 C   0  0  0  0  0  0  0  0  0  0  0  0
   68.8972   46.7275   51.9670 C   0  0  0  0  0  0  0  0  0  0  0  0
   68.0965   45.6917   52.3415 C   0  0  0  0  0  0  0  0  0  0  0  0
   67.6125   45.5969   53.6254 C   0  0  0  0  0  0  0  0  0  0  0  0
   67.9647   46.5867   54.5212 C   0  0  0  0  0  0  0  0  0  0  0  0
   68.7719   47.6475   54.1750 C   0  0  0  0  0  0  0  0  0  0  0  0
   72.0721   47.5756   58.2215 C   0  0  0  0  0  0  0  0  0  0  0  0
   70.8333   46.7165   58.2055 C   0  0  2  0  0  0  0  0  0  0  0  0
   71.0972   45.3415   57.8618 N   0  0  0  0  0  0  0  0  0  0  0  0
   70.5409   44.2350   58.5637 C   0  0  0  0  0  0  0  0  0  0  0  0
   69.7881   44.4295   59.5258 O   0  0  0  0  0  0  0  0  0  0  0  0
   70.8464   42.8321   58.1654 C   0  0  2  0  0  0  0  0  0  0  0  0
   71.9106   42.8376   57.2713 O   0  0  0  0  0  0  0  0  0  0  0  0
   69.6865   42.1435   57.5954 C   0  0  0  0  0  0  0  0  0  0  0  0
   69.3821   40.8249   57.8355 C   0  0  0  0  0  0  0  0  0  0  0  0
   68.2868   40.2065   57.2852 C   0  0  0  0  0  0  0  0  0  0  0  0
   67.9824   38.9055   57.5197 F   0  0  0  0  0  0  0  0  0  0  0  0
   67.4604   40.9522   56.4551 C   0  0  0  0  0  0  0  0  0  0  0  0
   67.7286   42.2788   56.1880 C   0  0  0  0  0  0  0  0  0  0  0  0
   66.9341   43.0280   55.3784 F   0  0  0  0  0  0  0  0  0  0  0  0
   68.8450   42.8634   56.7641 C   0  0  0  0  0  0  0  0  0  0  0  0
 18 17  1  6
 18 19  1  0
 18  1  1  0
 19 20  1  0
 20 21  2  0
 20 22  1  0
 22 23  1  6
 22 24  1  0
 24 25  2  0
 24 31  1  0
 25 26  1  0
 26 27  1  0
 26 28  2  0
 28 29  1  0
 29 30  1  0
 29 31  2  0
  1  2  2  0
  1  3  1  0
  4  3  1  6
  4  5  1  0
  4 16  1  0
  5  6  2  0
  5  7  1  0
  7  8  1  0
  7  9  1  0
  9 10  2  0
 10 11  1  0
 11 12  1  0
 11 16  2  0
 12 13  2  0
 13 14  1  0
 14 15  2  0
 15 16  1  0
M  END
>  <minimizedAffinity>  (47) 
-9.54227

$$$$
data/200k_reference_output/data/smiles/33715.pdb
     RDKit          3D

 29 32  0  0  0  0  0  0  0  0999 V2000
   69.7409   45.7041   58.0139 N   0  0  0  0  0  0  0  0  0  0  0  0
   72.1615   45.3077   59.0495 S   0  0  0  0  0  0  0  0  0  0  0  0
   70.7378   44.7682   58.3625 C   0  0  0  0  0  0  0  0  0  0  0  0
   70.5744   43.3904   58.1495 N   0  0  0  0  0  0  0  0  0  0  0  0
   71.7151   42.6699   57.5772 C   0  0  0  0  0  0  0  0  0  0  0  0
   71.9035   41.3365   58.2891 C   0  0  0  0  0  0  0  0  0  0  0  0
   70.6821   40.5515   58.2435 N   0  0  0  0  0  0  0  0  0  0  0  0
   69.4955   41.2233   57.7969 C   0  0  0  0  0  0  0  0  0  0  0  0
   69.3917   42.6142   58.4352 C   0  0  0  0  0  0  0  0  0  0  0  0
   70.7291   39.1822   58.6381 C   0  0  0  0  0  0  0  0  0  0  0  0
   69.8340   38.7004   59.5672 C   0  0  0  0  0  0  0  0  0  0  0  0
   69.8238   37.3814   59.9973 C   0  0  0  0  0  0  0  0  0  0  0  0
   70.7437   36.4917   59.4816 C   0  0  0  0  0  0  0  0  0  0  0  0
   71.6364   36.9782   58.5536 C   0  0  0  0  0  0  0  0  0  0  0  0
   71.6404   38.2963   58.1301 C   0  0  0  0  0  0  0  0  0  0  0  0
   69.3714   45.9597   56.7396 N   0  0  0  0  0  0  0  0  0  0  0  0
   68.7639   46.8733   56.1499 C   0  0  0  0  0  0  0  0  0  0  0  0
   68.5989   46.6942   54.6720 C   0  0  0  0  0  0  0  0  0  0  0  0
   69.1389   47.5766   53.7696 C   0  0  0  0  0  0  0  0  0  0  0  0
   68.9844   47.4052   52.3992 C   0  0  0  0  0  0  0  0  0  0  0  0
   68.2730   46.3237   51.9218 C   0  0  0  0  0  0  0  0  0  0  0  0
   67.7456   45.4581   52.8593 C   0  0  0  0  0  0  0  0  0  0  0  0
   67.9097   45.6479   54.1839 N   0  0  0  0  0  0  0  0  0  0  0  0
   68.1984   48.0705   56.7606 C   0  0  0  0  0  0  0  0  0  0  0  0
   68.7492   49.3161   56.6764 C   0  0  0  0  0  0  0  0  0  0  0  0
   68.1563   50.4368   57.2820 C   0  0  0  0  0  0  0  0  0  0  0  0
   66.9857   50.2980   57.9856 C   0  0  0  0  0  0  0  0  0  0  0  0
   66.4453   49.0334   58.0588 C   0  0  0  0  0  0  0  0  0  0  0  0
   67.0321   47.9857   57.4732 N   0  0  0  0  0  0  0  0  0  0  0  0
  2  3  2  0
  3  1  1  0
  3  4  1  0
  1 16  1  0
 16 17  2  0
 17 18  1  0
 17 24  1  0
 18 19  2  0
 18 23  1  0
 19 20  1  0
 20 21  2  0
 21 22  1  0
 22 23  2  0
 24 25  2  0
 24 29  1  0
 25 26  1  0
 26 27  2  0
 27 28  1  0
 28 29  2  0
  4  5  1  0
  4  9  1  0
  5  6  1  0
  6  7  1  0
  7 10  1  0
  7  8  1  0
 10 11  2  0
 10 15  1  0
 11 12  1  0
 12 13  2  0
 13 14  1  0
 14 15  2  0
  8  9  1  0
M  END
>  <minimizedAffinity>  (48) 
-9.53314

$$$$
data/200k_reference_output/data/smiles/37478.pdb
     RDKit          3D

 28 30  0  0  0  0  0  0  0  0999 V2000
   69.0766   44.3426   56.9077 N   0  0  0  0  0  0  0  0  0  0  0  0
   68.4373   43.1101   56.6364 C   0  0  0  0  0  0  0  0  0  0  0  0
   67.7848   43.0759   55.5398 O   0  0  0  0  0  0  0  0  0  0  0  0
   68.4697   41.9648   57.4574 N   0  0  0  0  0  0  0  0  0  0  0  0
   67.7795   40.7796   57.0631 C   0  0  0  0  0  0  0  0  0  0  0  0
   68.2310   39.5488   57.8060 C   0  0  0  0  0  0  0  0  0  0  0  0
   69.5627   39.6219   58.3345 N   0  0  0  0  0  0  0  0  0  0  0  0
   70.2705   40.8672   58.5449 C   0  0  0  0  0  0  0  0  0  0  0  0
   69.1895   41.9487   58.7048 C   0  0  0  0  0  0  0  0  0  0  0  0
   68.8254   47.6577   54.2649 C   0  0  0  0  0  0  0  0  0  0  0  0
   68.3149   46.4201   53.9343 C   0  0  0  0  0  0  0  0  0  0  0  0
   68.3874   45.3332   54.7796 C   0  0  0  0  0  0  0  0  0  0  0  0
   68.9905   45.4491   56.0211 C   0  0  0  0  0  0  0  0  0  0  0  0
   69.4998   46.6918   56.3458 C   0  0  0  0  0  0  0  0  0  0  0  0
   70.0976   46.8103   57.5752 F   0  0  0  0  0  0  0  0  0  0  0  0
   69.4267   47.7788   55.4999 C   0  0  0  0  0  0  0  0  0  0  0  0
   68.7318   48.7350   53.3800 O   0  0  0  0  0  0  0  0  0  0  0  0
   70.0544   47.5815   51.1849 N   0  0  0  0  0  0  0  0  0  0  0  0
   69.9479   48.9675   52.2089 S   0  0  0  0  0  0  0  0  0  0  0  0
   71.2552   49.0910   52.9623 O   0  0  0  0  0  0  0  0  0  0  0  0
   69.6613   50.2028   51.4129 O   0  0  0  0  0  0  0  0  0  0  0  0
   70.2172   38.4053   58.6747 C   0  0  0  0  0  0  0  0  0  0  0  0
   69.7894   37.5741   59.6911 C   0  0  0  0  0  0  0  0  0  0  0  0
   70.4331   36.3872   60.0084 C   0  0  0  0  0  0  0  0  0  0  0  0
   71.5477   35.9841   59.3058 C   0  0  0  0  0  0  0  0  0  0  0  0
   72.3842   34.4805   59.6881 Cl  0  0  0  0  0  0  0  0  0  0  0  0
   71.9826   36.8068   58.2892 C   0  0  0  0  0  0  0  0  0  0  0  0
   71.3408   37.9855   57.9764 C   0  0  0  0  0  0  0  0  0  0  0  0
 18 19  1  0
 19 20  2  0
 19 21  2  0
 19 17  1  0
 17 10  1  0
 10 11  2  0
 10 16  1  0
 11 12  1  0
 12 13  2  0
 13  1  1  0
 13 14  1  0
  1  2  1  0
  2  3  2  0
  2  4  1  0
  4  5  1  0
  4  9  1  0
  5  6  1  0
  6  7  1  0
  7 22  1  0
  7  8  1  0
 22 23  2  0
 22 28  1  0
 23 24  1  0
 24 25  2  0
 25 26  1  0
 25 27  1  0
 27 28  2  0
  8  9  1  0
 14 15  1  0
 14 16  2  0
M  END
>  <minimizedAffinity>  (49) 
-9.53020

$$$$
data/200k_reference_output/data/smiles/50452.pdb
     RDKit          3D

 28 29  0  0  0  0  0  0  0  0999 V2000
   70.6365   44.2877   58.3470 C   0  0  0  0  0  0  0  0  0  0  0  0
   71.4214   45.4763   59.1317 S   0  0  0  0  0  0  0  0  0  0  0  0
   70.5569   41.8334   58.7741 C   0  0  0  0  0  0  0  0  0  0  0  0
   69.4461   42.0164   59.3431 O   0  0  0  0  0  0  0  0  0  0  0  0
   71.1889   42.9780   58.2540 N   0  0  0  0  0  0  0  0  0  0  0  0
   72.0255   37.8022   58.5561 C   0  0  0  0  0  0  0  0  0  0  0  0
   72.8584   38.8372   58.9209 C   0  0  0  0  0  0  0  0  0  0  0  0
   72.3866   40.1509   58.9938 C   0  0  0  0  0  0  0  0  0  0  0  0
   71.0769   40.4730   58.7070 C   0  0  0  0  0  0  0  0  0  0  0  0
   70.2533   39.4211   58.3428 C   0  0  0  0  0  0  0  0  0  0  0  0
   70.7147   38.1234   58.2695 C   0  0  0  0  0  0  0  0  0  0  0  0
   72.7121   35.9523   57.0479 C   0  0  0  0  0  0  0  0  0  0  0  0
   72.5074   36.3975   58.4732 C   0  0  0  0  0  0  0  0  0  0  0  0
   73.8068   36.3194   59.2700 C   0  0  0  0  0  0  0  0  0  0  0  0
   71.5248   35.4752   59.1212 C   0  0  0  0  0  0  0  0  0  0  0  0
   69.3797   44.5515   57.7448 N   0  0  0  0  0  0  0  0  0  0  0  0
   69.3042   44.8380   56.3548 N   0  0  0  0  0  0  0  0  0  0  0  0
   68.6979   46.0211   55.8805 C   0  0  0  0  0  0  0  0  0  0  0  0
   68.2075   46.8487   56.7072 O   0  0  0  0  0  0  0  0  0  0  0  0
   68.6159   46.3211   54.4726 C   0  0  0  0  0  0  0  0  0  0  0  0
   67.7914   45.6644   53.5944 C   0  0  0  0  0  0  0  0  0  0  0  0
   67.7599   46.0039   52.2366 C   0  0  0  0  0  0  0  0  0  0  0  0
   68.5696   47.0141   51.7754 C   0  0  0  0  0  0  0  0  0  0  0  0
   69.4206   47.7059   52.6287 C   0  0  0  0  0  0  0  0  0  0  0  0
   69.4078   47.3305   53.9428 C   0  0  0  0  0  0  0  0  0  0  0  0
   70.2433   48.7434   52.1189 N   0  0  0  0  0  0  0  0  0  0  0  0
   69.9442   49.2690   51.0373 O   0  0  0  0  0  0  0  0  0  0  0  0
   71.3379   49.1556   52.7995 O   0  0  0  0  0  0  0  0  0  0  0  0
 12 13  1  0
 13 14  1  0
 13 15  1  0
 13  6  1  0
  6  7  2  0
  6 11  1  0
  7  8  1  0
  8  9  2  0
  9  3  1  0
  9 10  1  0
  3  4  2  0
  3  5  1  0
  5  1  1  0
  1  2  2  0
  1 16  1  0
 16 17  1  0
 17 18  1  0
 18 19  2  0
 18 20  1  0
 20 21  2  0
 20 25  1  0
 21 22  1  0
 22 23  2  0
 23 24  1  0
 24 26  1  0
 24 25  2  0
 26 27  2  0
 26 28  1  0
 10 11  2  0
M  CHG  2  26   1  28  -1
M  END
>  <minimizedAffinity>  (50) 
-9.52301

$$$$
data/200k_reference_output/data/smiles/39265.pdb
     RDKit          3D

 30 33  0  0  0  0  0  0  0  0999 V2000
   69.6992   49.5603   53.0417 C   0  0  0  0  0  0  0  0  0  0  0  0
   69.3943   48.4376   53.8728 N   0  0  0  0  0  0  0  0  0  0  0  0
   69.6466   48.3271   55.1862 C   0  0  0  0  0  0  0  0  0  0  0  0
   70.2774   49.3914   55.8123 C   0  0  0  0  0  0  0  0  0  0  0  0
   70.5363   49.2671   57.1685 C   0  0  0  0  0  0  0  0  0  0  0  0
   70.1946   48.1494   57.8930 C   0  0  0  0  0  0  0  0  0  0  0  0
   69.5609   47.0875   57.2476 C   0  0  0  0  0  0  0  0  0  0  0  0
   69.2956   47.1985   55.8919 C   0  0  0  0  0  0  0  0  0  0  0  0
   68.6561   46.0993   55.2805 C   0  0  0  0  0  0  0  0  0  0  0  0
   68.3801   45.1187   56.0186 N   0  0  0  0  0  0  0  0  0  0  0  0
   68.4081   46.2350   53.9319 C   0  0  0  0  0  0  0  0  0  0  0  0
   67.7921   45.1990   53.2840 C   0  0  0  0  0  0  0  0  0  0  0  0
   67.5212   45.2746   51.9358 C   0  0  0  0  0  0  0  0  0  0  0  0
   67.8744   46.4037   51.2430 C   0  0  0  0  0  0  0  0  0  0  0  0
   68.4990   47.4606   51.8879 C   0  0  0  0  0  0  0  0  0  0  0  0
   68.7726   47.3831   53.2489 C   0  0  0  0  0  0  0  0  0  0  0  0
   67.8202   43.9184   55.9584 N   0  0  0  0  0  0  0  0  0  0  0  0
   68.2569   42.7394   56.6495 C   0  0  0  0  0  0  0  0  0  0  0  0
   67.5285   41.5741   56.6925 C   0  0  0  0  0  0  0  0  0  0  0  0
   68.0129   40.4828   57.3762 C   0  0  0  0  0  0  0  0  0  0  0  0
   69.2220   40.4883   58.0409 C   0  0  0  0  0  0  0  0  0  0  0  0
   69.9391   41.6661   57.9881 C   0  0  0  0  0  0  0  0  0  0  0  0
   69.4702   42.7683   57.3081 C   0  0  0  0  0  0  0  0  0  0  0  0
   69.7939   39.0717   58.8979 S   0  0  0  0  0  0  0  0  0  0  0  0
   70.3816   39.4784   60.2300 O   0  0  0  0  0  0  0  0  0  0  0  0
   68.6173   38.1512   59.1168 O   0  0  0  0  0  0  0  0  0  0  0  0
   71.0281   38.3463   57.9708 N   0  0  0  0  0  0  0  0  0  0  0  0
   71.6878   37.3088   58.2854 C   0  0  0  0  0  0  0  0  0  0  0  0
   71.4648   36.6061   59.4931 N   0  0  0  0  0  0  0  0  0  0  0  0
   72.6874   36.8338   57.3957 N   0  0  0  0  0  0  0  0  0  0  0  0
  1  2  1  0
  2  3  1  0
  2 16  1  0
  3  4  2  0
  3  8  1  0
  4  5  1  0
  5  6  2  0
  6  7  1  0
  7  8  2  0
  8  9  1  0
  9 10  2  0
  9 11  1  0
 10 17  1  0
 17 18  1  0
 18 19  2  0
 18 23  1  0
 19 20  1  0
 20 21  2  0
 21 24  1  0
 21 22  1  0
 24 25  2  0
 24 26  2  0
 24 27  1  0
 27 28  2  0
 28 29  1  0
 28 30  1  0
 22 23  2  0
 11 12  1  0
 11 16  2  0
 12 13  2  0
 13 14  1  0
 14 15  2  0
 15 16  1  0
M  CHG  1  27   1
M  END
>  <minimizedAffinity>  (51) 
-9.52226

$$$$
data/reference_output_2/data/smiles/99446.pdb
     RDKit          3D

 33 36  0  0  0  0  0  0  0  0999 V2000
   70.7333   44.3702   58.9829 C   0  0  0  0  0  0  0  0  0  0  0  0
   70.7399   45.6870   58.8174 C   0  0  0  0  0  0  0  0  0  0  0  0
   71.4167   46.4170   59.7057 N   0  0  0  0  0  0  0  0  0  0  0  0
   71.4400   47.7539   59.5621 C   0  0  0  0  0  0  0  0  0  0  0  0
   72.0708   48.4614   60.3867 O   0  0  0  0  0  0  0  0  0  0  0  0
   70.7718   48.3819   58.5039 C   0  0  0  0  0  0  0  0  0  0  0  0
   70.7781   49.6766   58.3392 C   0  0  0  0  0  0  0  0  0  0  0  0
   70.0913   47.6485   57.6088 N   0  0  0  0  0  0  0  0  0  0  0  0
   70.0831   46.3128   57.7755 C   0  0  0  0  0  0  0  0  0  0  0  0
   69.4586   45.5923   56.9606 O   0  0  0  0  0  0  0  0  0  0  0  0
   70.0669   50.3009   57.2192 C   0  0  0  0  0  0  0  0  0  0  0  0
   69.1303   51.2521   57.5908 C   0  0  0  0  0  0  0  0  0  0  0  0
   68.4128   51.8916   56.6019 C   0  0  0  0  0  0  0  0  0  0  0  0
   68.6585   51.5580   55.2834 C   0  0  0  0  0  0  0  0  0  0  0  0
   69.5917   50.6105   54.9212 C   0  0  0  0  0  0  0  0  0  0  0  0
   70.2957   49.9846   55.9148 C   0  0  0  0  0  0  0  0  0  0  0  0
   69.8097   50.2944   53.4704 C   0  0  0  0  0  0  0  0  0  0  0  0
   69.3455   48.9029   53.2257 C   0  0  0  0  0  0  0  0  0  0  0  0
   68.6489   48.2255   54.2053 C   0  0  0  0  0  0  0  0  0  0  0  0
   68.2300   46.9412   53.9548 C   0  0  0  0  0  0  0  0  0  0  0  0
   68.4948   46.3257   52.7486 C   0  0  0  0  0  0  0  0  0  0  0  0
   68.0554   45.0607   52.5676 F   0  0  0  0  0  0  0  0  0  0  0  0
   69.1963   47.0316   51.7874 C   0  0  0  0  0  0  0  0  0  0  0  0
   69.6303   48.3225   52.0062 C   0  0  0  0  0  0  0  0  0  0  0  0
   72.6214   43.0662   59.9788 C   0  0  0  0  0  0  0  0  0  0  0  0
   72.9095   42.5716   61.1893 N   0  0  0  0  0  0  0  0  0  0  0  0
   71.9146   42.8709   62.0561 C   0  0  0  0  0  0  0  0  0  0  0  0
   71.0063   43.5643   61.3413 N   0  0  0  0  0  0  0  0  0  0  0  0
   71.4175   43.6950   60.0707 C   0  0  0  0  0  0  0  0  0  0  0  0
   72.6579   42.5136   57.5703 C   0  0  0  0  0  0  0  0  0  0  0  0
   73.4580   42.9467   58.7777 C   0  0  0  0  0  0  0  0  0  0  0  0
   74.1609   44.2650   58.5414 C   0  0  0  0  0  0  0  0  0  0  0  0
   74.5016   41.8788   59.0142 C   0  0  0  0  0  0  0  0  0  0  0  0
 30 31  1  0
 31 32  1  0
 31 33  1  0
 31 25  1  0
 25 26  1  0
 25 29  2  0
 26 27  1  0
 27 28  2  0
 28 29  1  0
 29  1  1  0
  1  2  2  0
  2  3  1  0
  2  9  1  0
  3  4  1  0
  4  5  2  0
  4  6  1  0
  6  7  2  0
  6  8  1  0
  7 11  1  0
 11 12  2  0
 11 16  1  0
 12 13  1  0
 13 14  2  0
 14 15  1  0
 15 17  1  0
 15 16  2  0
 17 18  1  0
 18 19  2  0
 18 24  1  0
 19 20  1  0
 20 21  2  0
 21 22  1  0
 21 23  1  0
 23 24  2  0
  8  9  1  0
  9 10  2  0
M  CHG  1  28   1
M  END
>  <minimizedAffinity>  (52) 
-9.51901

$$$$
data/reference_output_2/data/smiles/123450.pdb
     RDKit          3D

 32 36  0  0  0  0  0  0  0  0999 V2000
   68.7646   39.0768   57.7010 O   0  0  0  0  0  0  0  0  0  0  0  0
   68.0353   39.8823   58.3463 C   0  0  0  0  0  0  0  0  0  0  0  0
   67.1027   39.4047   59.1931 N   0  0  0  0  0  0  0  0  0  0  0  0
   66.3252   40.2593   59.8809 C   0  0  0  0  0  0  0  0  0  0  0  0
   65.4073   39.7806   60.7142 C   0  0  0  0  0  0  0  0  0  0  0  0
   66.5207   41.6051   59.6856 C   0  0  0  0  0  0  0  0  0  0  0  0
   65.7994   42.4171   60.3226 O   0  0  0  0  0  0  0  0  0  0  0  0
   67.4421   42.1143   58.8478 N   0  0  0  0  0  0  0  0  0  0  0  0
   68.2223   41.2559   58.1574 C   0  0  0  0  0  0  0  0  0  0  0  0
   69.1470   41.6735   57.3189 C   0  0  0  0  0  0  0  0  0  0  0  0
   69.3189   43.1040   57.1424 C   0  0  0  0  0  0  0  0  0  0  0  0
   70.2709   43.8212   57.8736 C   0  0  0  0  0  0  0  0  0  0  0  0
   70.4298   45.1800   57.7008 C   0  0  0  0  0  0  0  0  0  0  0  0
   69.6370   45.8475   56.7930 C   0  0  0  0  0  0  0  0  0  0  0  0
   68.6867   45.1802   56.0509 C   0  0  0  0  0  0  0  0  0  0  0  0
   68.5578   43.8261   56.2502 C   0  0  0  0  0  0  0  0  0  0  0  0
   67.8801   45.8705   55.1242 O   0  0  0  0  0  0  0  0  0  0  0  0
   68.4922   46.6348   54.1416 C   0  0  0  0  0  0  0  0  0  0  0  0
   68.5924   46.1877   52.8340 C   0  0  0  0  0  0  0  0  0  0  0  0
   69.2008   46.9487   51.8586 C   0  0  0  0  0  0  0  0  0  0  0  0
   69.7343   48.1905   52.1538 C   0  0  0  0  0  0  0  0  0  0  0  0
   70.3352   48.9399   51.1849 F   0  0  0  0  0  0  0  0  0  0  0  0
   69.6455   48.6605   53.4589 C   0  0  0  0  0  0  0  0  0  0  0  0
   69.0340   47.8807   54.4070 C   0  0  0  0  0  0  0  0  0  0  0  0
   65.1923   38.3581   60.9293 C   0  0  0  0  0  0  0  0  0  0  0  0
   64.6151   37.4691   60.1082 N   0  0  0  0  0  0  0  0  0  0  0  0
   64.6410   36.2652   60.7398 C   0  0  0  0  0  0  0  0  0  0  0  0
   65.2331   36.4325   61.9383 N   0  0  0  0  0  0  0  0  0  0  0  0
   65.5916   37.7162   62.0997 C   0  0  0  0  0  0  0  0  0  0  0  0
   66.2588   38.2716   63.2751 C   0  0  0  0  0  0  0  0  0  0  0  0
   66.4628   37.4836   64.5139 C   0  0  0  0  0  0  0  0  0  0  0  0
   67.6218   37.6743   63.5874 C   0  0  0  0  0  0  0  0  0  0  0  0
  1  2  2  0
  2  3  1  0
  2  9  1  0
  3  4  1  0
  4  5  2  0
  4  6  1  0
  5 25  1  0
 25 26  1  0
 25 29  2  0
 26 27  2  0
 27 28  1  0
 28 29  1  0
 29 30  1  0
 30 31  1  0
 30 32  1  0
 31 32  1  0
  6  7  2  0
  6  8  1  0
  8  9  1  0
  9 10  2  0
 10 11  1  0
 11 12  2  0
 11 16  1  0
 12 13  1  0
 13 14  2  0
 14 15  1  0
 15 17  1  0
 15 16  2  0
 17 18  1  0
 18 19  2  0
 18 24  1  0
 19 20  1  0
 20 21  2  0
 21 22  1  0
 21 23  1  0
 23 24  2  0
M  CHG  1  26   1
M  END
>  <minimizedAffinity>  (53) 
-9.51467

$$$$
data/reference_output_2/data/smiles/126716.pdb
     RDKit          3D

 33 36  0  0  0  0  0  0  0  0999 V2000
   65.6556   39.9155   60.8932 C   0  0  0  0  0  0  0  0  0  0  0  0
   66.4655   40.4496   59.9907 C   0  0  0  0  0  0  0  0  0  0  0  0
   67.0465   39.6382   59.0849 N   0  0  0  0  0  0  0  0  0  0  0  0
   67.8729   40.1632   58.1603 C   0  0  0  0  0  0  0  0  0  0  0  0
   68.4245   39.4149   57.3053 O   0  0  0  0  0  0  0  0  0  0  0  0
   68.1624   41.5123   58.0872 C   0  0  0  0  0  0  0  0  0  0  0  0
   68.9772   42.0133   57.1717 C   0  0  0  0  0  0  0  0  0  0  0  0
   67.5835   42.3237   58.9906 N   0  0  0  0  0  0  0  0  0  0  0  0
   66.7529   41.7922   59.9191 C   0  0  0  0  0  0  0  0  0  0  0  0
   66.2186   42.5576   60.7562 O   0  0  0  0  0  0  0  0  0  0  0  0
   69.2919   43.4322   57.0839 C   0  0  0  0  0  0  0  0  0  0  0  0
   70.3258   43.9188   57.8735 C   0  0  0  0  0  0  0  0  0  0  0  0
   70.6647   45.2537   57.8301 C   0  0  0  0  0  0  0  0  0  0  0  0
   69.9835   46.1176   57.0042 C   0  0  0  0  0  0  0  0  0  0  0  0
   68.9514   45.6700   56.2064 C   0  0  0  0  0  0  0  0  0  0  0  0
   68.6422   44.3300   56.2775 C   0  0  0  0  0  0  0  0  0  0  0  0
   68.2583   46.6278   55.3577 C   0  0  0  0  0  0  0  0  0  0  0  0
   67.4164   47.3899   55.9560 O   0  0  0  0  0  0  0  0  0  0  0  0
   68.4551   46.7662   53.9304 C   0  0  0  0  0  0  0  0  0  0  0  0
   67.7433   45.9670   53.0546 C   0  0  0  0  0  0  0  0  0  0  0  0
   67.8943   46.0710   51.6710 C   0  0  0  0  0  0  0  0  0  0  0  0
   68.7654   46.9867   51.1968 N   0  0  0  0  0  0  0  0  0  0  0  0
   69.4478   47.7540   52.0382 C   0  0  0  0  0  0  0  0  0  0  0  0
   69.3290   47.6833   53.4098 C   0  0  0  0  0  0  0  0  0  0  0  0
   65.9654   37.5043   61.7110 C   0  0  0  0  0  0  0  0  0  0  0  0
   65.4196   36.3007   61.4147 N   0  0  0  0  0  0  0  0  0  0  0  0
   64.5128   36.5041   60.4577 C   0  0  0  0  0  0  0  0  0  0  0  0
   64.4812   37.8068   60.1520 N   0  0  0  0  0  0  0  0  0  0  0  0
   65.3839   38.4703   60.9228 C   0  0  0  0  0  0  0  0  0  0  0  0
   66.5633   38.7769   63.7146 C   0  0  0  0  0  0  0  0  0  0  0  0
   67.0100   37.7314   62.7162 C   0  0  0  0  0  0  0  0  0  0  0  0
   67.2729   36.4596   63.5128 C   0  0  0  0  0  0  0  0  0  0  0  0
   68.2929   38.0907   62.0257 C   0  0  0  0  0  0  0  0  0  0  0  0
 30 31  1  0
 31 32  1  0
 31 33  1  0
 31 25  1  0
 25 26  1  0
 25 29  2  0
 26 27  1  0
 27 28  2  0
 28 29  1  0
 29  1  1  0
  1  2  2  0
  2  3  1  0
  2  9  1  0
  3  4  1  0
  4  5  2  0
  4  6  1  0
  6  7  2  0
  6  8  1  0
  7 11  1  0
 11 12  2  0
 11 16  1  0
 12 13  1  0
 13 14  2  0
 14 15  1  0
 15 17  1  0
 15 16  2  0
 17 18  2  0
 17 19  1  0
 19 20  2  0
 19 24  1  0
 20 21  1  0
 21 22  2  0
 22 23  1  0
 23 24  2  0
  8  9  1  0
  9 10  2  0
M  CHG  1  28   1
M  END
>  <minimizedAffinity>  (54) 
-9.49609

$$$$
data/reference_output_2/data/smiles/145806.pdb
     RDKit          3D

 26 27  0  0  0  0  0  0  0  0999 V2000
   67.6861   42.0274   56.7673 S   0  0  0  0  0  0  0  0  0  0  0  0
   67.1974   41.3461   55.5223 O   0  0  0  0  0  0  0  0  0  0  0  0
   66.5509   41.9273   57.7598 O   0  0  0  0  0  0  0  0  0  0  0  0
   69.0627   41.1820   57.4344 C   0  0  0  0  0  0  0  0  0  0  0  0
   69.0181   39.8540   57.7891 C   0  0  0  0  0  0  0  0  0  0  0  0
   67.8474   39.1932   57.5760 F   0  0  0  0  0  0  0  0  0  0  0  0
   70.0961   39.1909   58.3308 C   0  0  0  0  0  0  0  0  0  0  0  0
   70.0104   37.8752   58.6646 F   0  0  0  0  0  0  0  0  0  0  0  0
   71.2764   39.8335   58.5443 C   0  0  0  0  0  0  0  0  0  0  0  0
   72.3588   39.2127   59.0761 F   0  0  0  0  0  0  0  0  0  0  0  0
   71.3554   41.1841   58.1965 C   0  0  0  0  0  0  0  0  0  0  0  0
   72.5315   41.8479   58.4062 F   0  0  0  0  0  0  0  0  0  0  0  0
   70.2603   41.8283   57.6525 C   0  0  0  0  0  0  0  0  0  0  0  0
   70.4242   43.1433   57.3464 F   0  0  0  0  0  0  0  0  0  0  0  0
   68.0416   43.6551   56.3907 N   0  0  0  0  0  0  0  0  0  0  0  0
   67.5504   44.1087   55.1938 N   0  0  0  0  0  0  0  0  0  0  0  0
   69.0923   47.6289   53.5123 C   0  0  0  0  0  0  0  0  0  0  0  0
   68.5113   46.6543   52.7184 C   0  0  0  0  0  0  0  0  0  0  0  0
   68.0215   45.5068   53.2804 C   0  0  0  0  0  0  0  0  0  0  0  0
   68.0944   45.2993   54.6352 C   0  0  0  0  0  0  0  0  0  0  0  0
   68.6769   46.2809   55.4053 C   0  0  0  0  0  0  0  0  0  0  0  0
   69.1813   47.4466   54.8760 C   0  0  0  0  0  0  0  0  0  0  0  0
   71.4132   49.2530   53.1211 N   0  0  0  0  0  0  0  0  0  0  0  0
   69.7264   49.0812   52.7862 S   0  0  0  0  0  0  0  0  0  0  0  0
   68.9305   50.2613   53.2241 O   0  0  0  0  0  0  0  0  0  0  0  0
   69.6139   48.9647   51.2669 O   0  0  0  0  0  0  0  0  0  0  0  0
 23 24  1  0
 24 25  2  0
 24 26  2  0
 24 17  1  0
 17 18  2  0
 17 22  1  0
 18 19  1  0
 19 20  2  0
 20 16  1  0
 20 21  1  0
 16 15  1  0
 15  1  1  0
  1  2  2  0
  1  3  2  0
  1  4  1  0
  4  5  2  0
  4 13  1  0
  5  6  1  0
  5  7  1  0
  7  8  1  0
  7  9  2  0
  9 10  1  0
  9 11  1  0
 11 12  1  0
 11 13  2  0
 13 14  1  0
 21 22  2  0
M  END
>  <minimizedAffinity>  (55) 
-9.48855

$$$$
data/reference_output_2/data/smiles/131248.pdb
     RDKit          3D

 30 33  0  0  0  0  0  0  0  0999 V2000
   71.5771   47.3587   58.9780 C   0  0  0  0  0  0  0  0  0  0  0  0
   70.7508   48.0674   58.1039 C   0  0  0  0  0  0  0  0  0  0  0  0
   69.9198   47.5046   57.1855 C   0  0  0  0  0  0  0  0  0  0  0  0
   69.9289   46.1027   57.1507 C   0  0  0  0  0  0  0  0  0  0  0  0
   70.7241   45.3580   57.9901 C   0  0  0  0  0  0  0  0  0  0  0  0
   71.5441   45.9893   58.9003 C   0  0  0  0  0  0  0  0  0  0  0  0
   72.3537   45.2958   59.7543 F   0  0  0  0  0  0  0  0  0  0  0  0
   76.1550   49.1172   58.8533 N   0  0  0  0  0  0  0  0  0  0  0  0
   75.6616   49.0295   60.2038 C   0  0  0  0  0  0  0  0  0  0  0  0
   74.3256   49.6575   60.4349 C   0  0  0  0  0  0  0  0  0  0  0  0
   73.4542   48.9386   59.4790 N   0  0  0  0  0  0  0  0  0  0  0  0
   72.4350   48.0771   59.9195 C   0  0  0  0  0  0  0  0  0  0  0  0
   72.2344   47.8974   61.1406 O   0  0  0  0  0  0  0  0  0  0  0  0
   73.7980   49.2186   58.1085 C   0  0  0  0  0  0  0  0  0  0  0  0
   75.2550   48.9717   57.8142 C   0  0  0  0  0  0  0  0  0  0  0  0
   77.4154   48.4633   58.8328 C   0  0  0  0  0  0  0  0  0  0  0  0
   78.5441   50.7191   58.5727 C   0  0  0  0  0  0  0  0  0  0  0  0
   78.6621   49.2502   58.8364 C   0  0  0  0  0  0  0  0  0  0  0  0
   69.0004   48.1784   56.2702 C   0  0  0  0  0  0  0  0  0  0  0  0
   69.3912   48.3077   54.8793 C   0  0  0  0  0  0  0  0  0  0  0  0
   70.2674   49.2493   54.5022 N   0  0  0  0  0  0  0  0  0  0  0  0
   70.6272   49.4363   53.2430 N   0  0  0  0  0  0  0  0  0  0  0  0
   70.1412   48.6918   52.2380 C   0  0  0  0  0  0  0  0  0  0  0  0
   70.4645   48.8485   51.0351 O   0  0  0  0  0  0  0  0  0  0  0  0
   69.2238   47.6920   52.5654 C   0  0  0  0  0  0  0  0  0  0  0  0
   68.7223   46.8968   51.5723 C   0  0  0  0  0  0  0  0  0  0  0  0
   67.8338   45.8836   51.8549 C   0  0  0  0  0  0  0  0  0  0  0  0
   67.4664   45.6948   53.1662 C   0  0  0  0  0  0  0  0  0  0  0  0
   67.9689   46.4922   54.1564 C   0  0  0  0  0  0  0  0  0  0  0  0
   68.8521   47.5037   53.8910 C   0  0  0  0  0  0  0  0  0  0  0  0
 17 18  1  0
 18 16  1  0
 16  8  1  0
  8  9  1  0
  8 15  1  0
  9 10  1  0
 10 11  1  0
 11 12  1  0
 11 14  1  0
 12 13  2  0
 12  1  1  0
  1  2  2  0
  1  6  1  0
  2  3  1  0
  3 19  1  0
  3  4  2  0
 19 20  1  0
 20 21  2  0
 20 30  1  0
 21 22  1  0
 22 23  1  0
 23 24  2  0
 23 25  1  0
 25 26  1  0
 25 30  2  0
 26 27  2  0
 27 28  1  0
 28 29  2  0
 29 30  1  0
  4  5  1  0
  5  6  2  0
  6  7  1  0
 14 15  1  0
M  CHG  1   8   1
M  END
>  <minimizedAffinity>  (56) 
-9.48792

$$$$
data/200k_reference_output/data/smiles/34749.pdb
     RDKit          3D

 33 37  0  0  0  0  0  0  0  0999 V2000
   72.1092   47.5252   58.8550 C   0  0  0  0  0  0  0  0  0  0  0  0
   71.0019   47.9151   58.0885 C   0  0  0  0  0  0  0  0  0  0  0  0
   71.0587   48.8932   57.1538 C   0  0  0  0  0  0  0  0  0  0  0  0
   72.2924   49.5338   56.9586 C   0  0  0  0  0  0  0  0  0  0  0  0
   73.4009   49.1884   57.6810 C   0  0  0  0  0  0  0  0  0  0  0  0
   73.2919   48.1727   58.6340 C   0  0  0  0  0  0  0  0  0  0  0  0
   74.3764   47.8225   59.3532 F   0  0  0  0  0  0  0  0  0  0  0  0
   71.7456   46.7865   61.0205 O   0  0  0  0  0  0  0  0  0  0  0  0
   71.9071   46.4639   59.8185 C   0  0  0  0  0  0  0  0  0  0  0  0
   71.8829   45.0833   59.4813 N   0  0  0  0  0  0  0  0  0  0  0  0
   72.0606   44.7438   58.0623 C   0  0  0  0  0  0  0  0  0  0  0  0
   72.0399   43.2369   57.9735 C   0  0  0  0  0  0  0  0  0  0  0  0
   70.8789   42.7608   58.6540 N   0  0  0  0  0  0  0  0  0  0  0  0
   70.8136   42.9559   60.0807 C   0  0  0  0  0  0  0  0  0  0  0  0
   71.6968   44.1029   60.5221 C   0  0  0  0  0  0  0  0  0  0  0  0
   69.8152   42.1295   57.9735 C   0  0  0  0  0  0  0  0  0  0  0  0
   69.5248   40.7752   58.2071 C   0  0  0  0  0  0  0  0  0  0  0  0
   68.4915   40.1332   57.5706 C   0  0  0  0  0  0  0  0  0  0  0  0
   67.7173   40.8390   56.6754 C   0  0  0  0  0  0  0  0  0  0  0  0
   67.9555   42.1689   56.4062 C   0  0  0  0  0  0  0  0  0  0  0  0
   69.0019   42.7838   57.0645 C   0  0  0  0  0  0  0  0  0  0  0  0
   69.9074   49.2863   56.3118 C   0  0  0  0  0  0  0  0  0  0  0  0
   70.0586   48.8982   54.9050 C   0  0  0  0  0  0  0  0  0  0  0  0
   70.9181   49.5635   54.0827 N   0  0  0  0  0  0  0  0  0  0  0  0
   71.0298   49.2671   52.8036 N   0  0  0  0  0  0  0  0  0  0  0  0
   70.3134   48.3059   52.2384 C   0  0  0  0  0  0  0  0  0  0  0  0
   70.3891   47.9879   51.0062 O   0  0  0  0  0  0  0  0  0  0  0  0
   69.4082   47.5668   52.9866 C   0  0  0  0  0  0  0  0  0  0  0  0
   69.3096   47.8974   54.3371 C   0  0  0  0  0  0  0  0  0  0  0  0
   68.4508   47.1356   55.1983 N   0  0  0  0  0  0  0  0  0  0  0  0
   68.0959   45.7701   54.7724 C   0  0  0  0  0  0  0  0  0  0  0  0
   67.6845   45.7953   53.3331 C   0  0  0  0  0  0  0  0  0  0  0  0
   68.6010   46.4954   52.4026 C   0  0  0  0  0  0  0  0  0  0  0  0
  8  9  2  0
  9  1  1  0
  9 10  1  0
  1  2  2  0
  1  6  1  0
  2  3  1  0
  3 22  1  0
  3  4  2  0
 22 23  1  0
 23 24  2  0
 23 29  1  0
 24 25  1  0
 25 26  1  0
 26 27  2  0
 26 28  1  0
 28 29  2  0
 28 33  1  0
 29 30  1  0
 30 31  1  0
 31 32  1  0
 32 33  1  0
  4  5  1  0
  5  6  2  0
  6  7  1  0
 10 11  1  0
 10 15  1  0
 11 12  1  0
 12 13  1  0
 13 16  1  0
 13 14  1  0
 16 17  2  0
 16 21  1  0
 17 18  1  0
 18 19  2  0
 19 20  1  0
 20 21  2  0
 14 15  1  0
M  END
>  <minimizedAffinity>  (57) 
-9.48397

$$$$
data/200k_reference_output/data/smiles/13786.pdb
     RDKit          3D

 33 36  0  0  0  0  0  0  0  0999 V2000
   65.5255   40.0126   61.0688 C   0  0  0  0  0  0  0  0  0  0  0  0
   66.2985   40.4149   60.0768 C   0  0  0  0  0  0  0  0  0  0  0  0
   66.7859   39.4895   59.2518 N   0  0  0  0  0  0  0  0  0  0  0  0
   67.5749   39.8860   58.2375 C   0  0  0  0  0  0  0  0  0  0  0  0
   68.0456   39.0311   57.4460 O   0  0  0  0  0  0  0  0  0  0  0  0
   67.8976   41.2277   58.0242 C   0  0  0  0  0  0  0  0  0  0  0  0
   68.6675   41.6158   57.0354 C   0  0  0  0  0  0  0  0  0  0  0  0
   67.4050   42.1562   58.8580 N   0  0  0  0  0  0  0  0  0  0  0  0
   66.6180   41.7457   59.8658 C   0  0  0  0  0  0  0  0  0  0  0  0
   66.1222   42.5690   60.6862 O   0  0  0  0  0  0  0  0  0  0  0  0
   68.9569   43.0337   56.8796 C   0  0  0  0  0  0  0  0  0  0  0  0
   69.9744   43.5898   57.6237 C   0  0  0  0  0  0  0  0  0  0  0  0
   70.3006   44.9317   57.5228 C   0  0  0  0  0  0  0  0  0  0  0  0
   69.6070   45.7518   56.6661 C   0  0  0  0  0  0  0  0  0  0  0  0
   68.5707   45.2191   55.8983 C   0  0  0  0  0  0  0  0  0  0  0  0
   68.2746   43.8763   56.0270 C   0  0  0  0  0  0  0  0  0  0  0  0
   67.8774   46.1117   55.0490 N   0  0  0  0  0  0  0  0  0  0  0  0
   68.5574   46.8114   54.0327 C   0  0  0  0  0  0  0  0  0  0  0  0
   68.6443   46.3050   52.7339 C   0  0  0  0  0  0  0  0  0  0  0  0
   69.2801   46.9705   51.7161 C   0  0  0  0  0  0  0  0  0  0  0  0
   69.8579   48.1903   51.9874 C   0  0  0  0  0  0  0  0  0  0  0  0
   70.5078   48.9090   51.0258 F   0  0  0  0  0  0  0  0  0  0  0  0
   69.8070   48.7428   53.2486 C   0  0  0  0  0  0  0  0  0  0  0  0
   69.1509   48.0324   54.2520 C   0  0  0  0  0  0  0  0  0  0  0  0
   65.8481   37.8159   62.2020 C   0  0  0  0  0  0  0  0  0  0  0  0
   65.3741   36.5623   62.0960 N   0  0  0  0  0  0  0  0  0  0  0  0
   64.4892   36.5674   61.0820 C   0  0  0  0  0  0  0  0  0  0  0  0
   64.4001   37.8002   60.5510 N   0  0  0  0  0  0  0  0  0  0  0  0
   65.2285   38.5733   61.2300 C   0  0  0  0  0  0  0  0  0  0  0  0
   66.5609   39.6794   63.6847 C   0  0  0  0  0  0  0  0  0  0  0  0
   66.8618   38.2747   63.2021 C   0  0  0  0  0  0  0  0  0  0  0  0
   68.2315   38.2448   62.5879 C   0  0  0  0  0  0  0  0  0  0  0  0
   66.8756   37.3787   64.4239 C   0  0  0  0  0  0  0  0  0  0  0  0
 30 31  1  0
 31 32  1  0
 31 33  1  0
 31 25  1  0
 25 26  1  0
 25 29  2  0
 26 27  1  0
 27 28  2  0
 28 29  1  0
 29  1  1  0
  1  2  2  0
  2  3  1  0
  2  9  1  0
  3  4  1  0
  4  5  2  0
  4  6  1  0
  6  7  2  0
  6  8  1  0
  7 11  1  0
 11 12  2  0
 11 16  1  0
 12 13  1  0
 13 14  2  0
 14 15  1  0
 15 17  1  0
 15 16  2  0
 17 18  1  0
 18 19  2  0
 18 24  1  0
 19 20  1  0
 20 21  2  0
 21 22  1  0
 21 23  1  0
 23 24  2  0
  8  9  1  0
  9 10  2  0
M  CHG  1  28   1
M  END
>  <minimizedAffinity>  (58) 
-9.47780

$$$$
data/reference_output_2/data/smiles/164194.pdb
     RDKit          3D

 31 34  0  0  0  0  0  0  0  0999 V2000
   71.9715   47.6451   58.7723 C   0  0  0  0  0  0  0  0  0  0  0  0
   73.0263   48.5153   58.6132 C   0  0  0  0  0  0  0  0  0  0  0  0
   72.9907   49.5386   57.6691 C   0  0  0  0  0  0  0  0  0  0  0  0
   71.8682   49.7042   56.8521 C   0  0  0  0  0  0  0  0  0  0  0  0
   70.8155   48.8571   56.9903 C   0  0  0  0  0  0  0  0  0  0  0  0
   70.8754   47.8231   57.9594 C   0  0  0  0  0  0  0  0  0  0  0  0
   70.8050   42.8640   58.9514 N   0  0  0  0  0  0  0  0  0  0  0  0
   71.7695   43.2814   58.0337 C   0  0  0  0  0  0  0  0  0  0  0  0
   72.2787   44.7012   58.1882 C   0  0  0  0  0  0  0  0  0  0  0  0
   72.0853   45.2144   59.4986 N   0  0  0  0  0  0  0  0  0  0  0  0
   71.9511   46.5712   59.7638 C   0  0  0  0  0  0  0  0  0  0  0  0
   71.7907   46.9596   60.9749 O   0  0  0  0  0  0  0  0  0  0  0  0
   72.0023   44.2584   60.5971 C   0  0  0  0  0  0  0  0  0  0  0  0
   70.8403   43.3250   60.2908 C   0  0  0  0  0  0  0  0  0  0  0  0
   69.2452   42.5254   58.4102 S   0  0  0  0  0  0  0  0  0  0  0  0
   68.8465   43.5343   57.3295 O   0  0  0  0  0  0  0  0  0  0  0  0
   68.2173   42.7511   59.5104 O   0  0  0  0  0  0  0  0  0  0  0  0
   67.8847   40.8632   56.7262 C   0  0  0  0  0  0  0  0  0  0  0  0
   68.9690   40.9325   57.7493 C   0  0  0  0  0  0  0  0  0  0  0  0
   69.5686   48.9570   56.1786 C   0  0  0  0  0  0  0  0  0  0  0  0
   69.8038   48.6665   54.7595 C   0  0  0  0  0  0  0  0  0  0  0  0
   70.7395   49.4222   54.1140 N   0  0  0  0  0  0  0  0  0  0  0  0
   70.9954   49.2892   52.8409 N   0  0  0  0  0  0  0  0  0  0  0  0
   70.3162   48.3677   52.1053 C   0  0  0  0  0  0  0  0  0  0  0  0
   70.5552   48.2369   50.8874 O   0  0  0  0  0  0  0  0  0  0  0  0
   69.3495   47.5571   52.6831 C   0  0  0  0  0  0  0  0  0  0  0  0
   68.6652   46.6040   51.9638 C   0  0  0  0  0  0  0  0  0  0  0  0
   67.7253   45.7878   52.5492 C   0  0  0  0  0  0  0  0  0  0  0  0
   67.4882   45.9649   53.9171 C   0  0  0  0  0  0  0  0  0  0  0  0
   68.1743   46.9088   54.5970 C   0  0  0  0  0  0  0  0  0  0  0  0
   69.1122   47.7333   54.0360 C   0  0  0  0  0  0  0  0  0  0  0  0
 18 19  1  0
 19 15  1  0
 15 16  2  0
 15 17  2  0
 15  7  1  0
  7  8  1  0
  7 14  1  0
  8  9  1  0
  9 10  1  0
 10 11  1  0
 10 13  1  0
 11 12  2  0
 11  1  1  0
  1  2  2  0
  1  6  1  0
  2  3  1  0
  3  4  2  0
  4  5  1  0
  5 20  1  0
  5  6  2  0
 20 21  1  0
 21 22  2  0
 21 31  1  0
 22 23  1  0
 23 24  1  0
 24 25  2  0
 24 26  1  0
 26 27  1  0
 26 31  2  0
 27 28  2  0
 28 29  1  0
 29 30  2  0
 30 31  1  0
 13 14  1  0
M  END
>  <minimizedAffinity>  (59) 
-9.46958

$$$$
data/200k_reference_output/data/smiles/18729.pdb
     RDKit          3D

 32 36  0  0  0  0  0  0  0  0999 V2000
   71.8003   46.2575   59.0605 C   0  0  0  0  0  0  0  0  0  0  0  0
   72.8365   47.1408   58.8381 C   0  0  0  0  0  0  0  0  0  0  0  0
   72.6736   48.2623   58.0526 C   0  0  0  0  0  0  0  0  0  0  0  0
   71.4242   48.4762   57.4836 C   0  0  0  0  0  0  0  0  0  0  0  0
   70.3980   47.5974   57.7056 C   0  0  0  0  0  0  0  0  0  0  0  0
   70.5639   46.4547   58.5045 C   0  0  0  0  0  0  0  0  0  0  0  0
   71.6387   45.1154   61.1497 O   0  0  0  0  0  0  0  0  0  0  0  0
   71.9956   45.1160   59.9627 C   0  0  0  0  0  0  0  0  0  0  0  0
   72.6260   43.9800   59.4116 N   0  0  0  0  0  0  0  0  0  0  0  0
   73.0583   43.9743   58.0196 C   0  0  0  0  0  0  0  0  0  0  0  0
   72.7026   42.6052   57.4097 C   0  0  0  0  0  0  0  0  0  0  0  0
   71.6958   41.9797   58.2901 N   0  0  0  0  0  0  0  0  0  0  0  0
   72.1860   41.5954   59.5863 C   0  0  0  0  0  0  0  0  0  0  0  0
   72.8433   42.8106   60.2214 C   0  0  0  0  0  0  0  0  0  0  0  0
   70.3707   41.8143   57.8442 C   0  0  0  0  0  0  0  0  0  0  0  0
   69.6515   42.8041   57.2187 C   0  0  0  0  0  0  0  0  0  0  0  0
   68.3407   42.6070   56.7829 C   0  0  0  0  0  0  0  0  0  0  0  0
   67.7297   41.3895   56.9763 C   0  0  0  0  0  0  0  0  0  0  0  0
   68.4706   40.4080   57.6080 C   0  0  0  0  0  0  0  0  0  0  0  0
   69.7501   40.6224   58.0259 N   0  0  0  0  0  0  0  0  0  0  0  0
   69.0615   47.9098   57.1238 C   0  0  0  0  0  0  0  0  0  0  0  0
   68.7476   47.1760   55.8960 C   0  0  0  0  0  0  0  0  0  0  0  0
   68.1375   45.9473   55.9437 N   0  0  0  0  0  0  0  0  0  0  0  0
   67.8521   45.2739   54.8576 N   0  0  0  0  0  0  0  0  0  0  0  0
   68.1291   45.7231   53.6154 C   0  0  0  0  0  0  0  0  0  0  0  0
   67.8288   45.0256   52.6233 O   0  0  0  0  0  0  0  0  0  0  0  0
   68.7433   46.9559   53.5162 C   0  0  0  0  0  0  0  0  0  0  0  0
   69.0465   47.4887   52.2664 C   0  0  0  0  0  0  0  0  0  0  0  0
   69.6469   48.7225   52.1743 C   0  0  0  0  0  0  0  0  0  0  0  0
   69.9576   49.4516   53.3182 C   0  0  0  0  0  0  0  0  0  0  0  0
   69.6636   48.9366   54.5546 C   0  0  0  0  0  0  0  0  0  0  0  0
   69.0537   47.6840   54.6565 C   0  0  0  0  0  0  0  0  0  0  0  0
  7  8  2  0
  8  1  1  0
  8  9  1  0
  1  2  2  0
  1  6  1  0
  2  3  1  0
  3  4  2  0
  4  5  1  0
  5 21  1  0
  5  6  2  0
 21 22  1  0
 22 23  2  0
 22 32  1  0
 23 24  1  0
 24 25  1  0
 25 26  2  0
 25 27  1  0
 27 28  1  0
 27 32  2  0
 28 29  2  0
 29 30  1  0
 30 31  2  0
 31 32  1  0
  9 10  1  0
  9 14  1  0
 10 11  1  0
 11 12  1  0
 12 15  1  0
 12 13  1  0
 15 16  2  0
 15 20  1  0
 16 17  1  0
 17 18  2  0
 18 19  1  0
 19 20  2  0
 13 14  1  0
M  END
>  <minimizedAffinity>  (60) 
-9.44901

$$$$
data/reference_output_2/data/smiles/138087.pdb
     RDKit          3D

 28 30  0  0  0  0  0  0  0  0999 V2000
   68.6477   46.5103   54.1899 C   0  0  0  0  0  0  0  0  0  0  0  0
   68.4113   46.1682   52.8732 C   0  0  0  0  0  0  0  0  0  0  0  0
   68.7754   46.9743   51.8117 C   0  0  0  0  0  0  0  0  0  0  0  0
   69.3978   48.1681   52.0402 C   0  0  0  0  0  0  0  0  0  0  0  0
   69.6566   48.5534   53.3410 C   0  0  0  0  0  0  0  0  0  0  0  0
   69.2782   47.7205   54.3999 C   0  0  0  0  0  0  0  0  0  0  0  0
   70.4483   50.0733   53.6046 S   0  0  0  0  0  0  0  0  0  0  0  0
   71.9272   49.8824   53.6290 O   0  0  0  0  0  0  0  0  0  0  0  0
   70.1157   50.9819   52.4555 O   0  0  0  0  0  0  0  0  0  0  0  0
   69.9575   50.8353   55.0671 N   0  0  0  0  0  0  0  0  0  0  0  0
   69.3792   52.1247   54.8600 C   0  0  0  0  0  0  0  0  0  0  0  0
   68.9671   52.6788   56.2059 C   0  0  0  0  0  0  0  0  0  0  0  0
   69.0929   51.7009   57.2681 N   0  0  0  0  0  0  0  0  0  0  0  0
   68.1230   50.6509   57.1408 C   0  0  0  0  0  0  0  0  0  0  0  0
   70.4552   51.2108   57.3789 C   0  0  0  0  0  0  0  0  0  0  0  0
   71.0471   50.9298   56.0189 C   0  0  0  0  0  0  0  0  0  0  0  0
   68.2521   45.6384   55.2905 C   0  0  0  0  0  0  0  0  0  0  0  0
   68.3066   46.0965   56.4585 O   0  0  0  0  0  0  0  0  0  0  0  0
   67.8226   44.3469   55.1541 O   0  0  0  0  0  0  0  0  0  0  0  0
   68.7807   41.1843   57.7826 C   0  0  0  0  0  0  0  0  0  0  0  0
   69.5573   42.3224   57.7282 C   0  0  0  0  0  0  0  0  0  0  0  0
   69.2413   43.3565   56.8666 C   0  0  0  0  0  0  0  0  0  0  0  0
   68.1497   43.3135   56.0249 C   0  0  0  0  0  0  0  0  0  0  0  0
   67.3734   42.1708   56.0813 C   0  0  0  0  0  0  0  0  0  0  0  0
   67.6889   41.1386   56.9423 C   0  0  0  0  0  0  0  0  0  0  0  0
   70.4662   39.4791   58.4296 C   0  0  0  0  0  0  0  0  0  0  0  0
   69.0958   40.0534   58.7004 C   0  0  0  0  0  0  0  0  0  0  0  0
   68.0836   38.9463   58.4996 C   0  0  0  0  0  0  0  0  0  0  0  0
 26 27  1  0
 27 28  1  0
 27 20  1  0
 20 21  2  0
 20 25  1  0
 21 22  1  0
 22 23  2  0
 23 19  1  0
 23 24  1  0
 19 17  1  0
 17 18  2  0
 17  1  1  0
  1  2  2  0
  1  6  1  0
  2  3  1  0
  3  4  2  0
  4  5  1  0
  5  7  1  0
  5  6  2  0
  7  8  2  0
  7  9  2  0
  7 10  1  0
 10 11  1  0
 10 16  1  0
 11 12  1  0
 12 13  1  0
 13 14  1  0
 13 15  1  0
 15 16  1  0
 24 25  2  0
M  CHG  1  13   1
M  END
>  <minimizedAffinity>  (61) 
-9.44772

$$$$
data/reference_output_2/data/smiles/170868.pdb
     RDKit          3D

 30 33  0  0  0  0  0  0  0  0999 V2000
   72.5834   45.0344   58.1938 O   0  0  0  0  0  0  0  0  0  0  0  0
   71.3463   44.6021   58.0633 C   0  0  0  0  0  0  0  0  0  0  0  0
   71.2320   43.2303   57.8397 N   0  0  0  0  0  0  0  0  0  0  0  0
   70.0753   42.3937   57.7261 C   0  0  0  0  0  0  0  0  0  0  0  0
   70.0770   41.4393   58.9231 C   0  0  0  0  0  0  0  0  0  0  0  0
   71.3040   40.6752   58.8646 N   0  0  0  0  0  0  0  0  0  0  0  0
   72.5394   41.4416   58.8050 C   0  0  0  0  0  0  0  0  0  0  0  0
   72.4997   42.4347   57.6680 C   0  0  0  0  0  0  0  0  0  0  0  0
   71.2547   39.2702   58.8853 C   0  0  0  0  0  0  0  0  0  0  0  0
   70.2492   38.6076   59.5373 C   0  0  0  0  0  0  0  0  0  0  0  0
   70.1903   37.2067   59.5475 C   0  0  0  0  0  0  0  0  0  0  0  0
   71.1716   36.5095   58.8845 C   0  0  0  0  0  0  0  0  0  0  0  0
   71.1852   35.1433   58.8469 F   0  0  0  0  0  0  0  0  0  0  0  0
   72.1959   37.1406   58.2188 C   0  0  0  0  0  0  0  0  0  0  0  0
   72.2167   38.5420   58.2342 C   0  0  0  0  0  0  0  0  0  0  0  0
   70.3183   45.6549   58.1818 C   0  0  0  0  0  0  0  0  0  0  0  0
   69.5792   45.8135   56.9858 N   0  0  0  0  0  0  0  0  0  0  0  0
   68.9832   47.3940   56.6530 S   0  0  0  0  0  0  0  0  0  0  0  0
   69.6775   48.3903   57.5453 O   0  0  0  0  0  0  0  0  0  0  0  0
   67.5094   47.4961   57.0214 O   0  0  0  0  0  0  0  0  0  0  0  0
   69.2293   47.8905   55.0037 C   0  0  0  0  0  0  0  0  0  0  0  0
   69.9949   49.0426   54.7330 C   0  0  0  0  0  0  0  0  0  0  0  0
   70.2583   49.4204   53.4446 C   0  0  0  0  0  0  0  0  0  0  0  0
   69.7990   48.7082   52.3643 C   0  0  0  0  0  0  0  0  0  0  0  0
   69.0483   47.5823   52.6192 C   0  0  0  0  0  0  0  0  0  0  0  0
   68.5640   46.8652   51.5370 C   0  0  0  0  0  0  0  0  0  0  0  0
   67.8165   45.7772   51.7833 N   0  0  0  0  0  0  0  0  0  0  0  0
   67.5260   45.3640   53.0158 C   0  0  0  0  0  0  0  0  0  0  0  0
   67.9986   46.0638   54.0960 C   0  0  0  0  0  0  0  0  0  0  0  0
   68.7770   47.1946   53.9348 C   0  0  0  0  0  0  0  0  0  0  0  0
  1  2  2  0
  2 16  1  0
  2  3  1  0
 16 17  1  0
 17 18  1  0
 18 19  2  0
 18 20  2  0
 18 21  1  0
 21 22  2  0
 21 30  1  0
 22 23  1  0
 23 24  2  0
 24 25  1  0
 25 26  1  0
 25 30  2  0
 26 27  2  0
 27 28  1  0
 28 29  2  0
 29 30  1  0
  3  4  1  0
  3  8  1  0
  4  5  1  0
  5  6  1  0
  6  9  1  0
  6  7  1  0
  9 10  2  0
  9 15  1  0
 10 11  1  0
 11 12  2  0
 12 13  1  0
 12 14  1  0
 14 15  2  0
  7  8  1  0
M  END
>  <minimizedAffinity>  (62) 
-9.43675

$$$$
data/200k_reference_output/data/smiles/7832.pdb
     RDKit          3D

 30 33  0  0  0  0  0  0  0  0999 V2000
   65.4126   39.8165   60.7735 C   0  0  0  0  0  0  0  0  0  0  0  0
   66.3072   40.2646   59.9103 C   0  0  0  0  0  0  0  0  0  0  0  0
   67.0269   39.3843   59.1889 N   0  0  0  0  0  0  0  0  0  0  0  0
   67.9300   39.8770   58.3185 C   0  0  0  0  0  0  0  0  0  0  0  0
   68.6290   39.0724   57.6194 O   0  0  0  0  0  0  0  0  0  0  0  0
   68.1563   41.2093   58.1260 C   0  0  0  0  0  0  0  0  0  0  0  0
   69.0495   41.6925   57.2634 C   0  0  0  0  0  0  0  0  0  0  0  0
   67.4377   42.0931   58.8455 N   0  0  0  0  0  0  0  0  0  0  0  0
   66.5270   41.6318   59.7244 C   0  0  0  0  0  0  0  0  0  0  0  0
   65.8338   42.4294   60.4177 O   0  0  0  0  0  0  0  0  0  0  0  0
   66.3633   38.1491   63.2109 C   0  0  0  0  0  0  0  0  0  0  0  0
   65.5850   37.6343   62.0616 C   0  0  0  0  0  0  0  0  0  0  0  0
   65.1343   36.3923   61.8221 N   0  0  0  0  0  0  0  0  0  0  0  0
   64.4687   36.3528   60.6566 C   0  0  0  0  0  0  0  0  0  0  0  0
   64.4865   37.5893   60.1330 N   0  0  0  0  0  0  0  0  0  0  0  0
   65.1660   38.3815   60.9829 C   0  0  0  0  0  0  0  0  0  0  0  0
   69.2506   43.1420   57.0983 C   0  0  0  0  0  0  0  0  0  0  0  0
   70.1966   43.8048   57.8567 C   0  0  0  0  0  0  0  0  0  0  0  0
   70.3622   45.1549   57.6809 C   0  0  0  0  0  0  0  0  0  0  0  0
   69.6151   45.8792   56.7720 C   0  0  0  0  0  0  0  0  0  0  0  0
   68.6737   45.2121   56.0187 C   0  0  0  0  0  0  0  0  0  0  0  0
   68.5080   43.8611   56.1946 C   0  0  0  0  0  0  0  0  0  0  0  0
   67.9162   45.9419   55.0978 O   0  0  0  0  0  0  0  0  0  0  0  0
   68.5088   46.6491   54.0609 C   0  0  0  0  0  0  0  0  0  0  0  0
   69.0804   47.8669   54.3655 C   0  0  0  0  0  0  0  0  0  0  0  0
   69.6882   48.6338   53.4049 C   0  0  0  0  0  0  0  0  0  0  0  0
   69.7353   48.1890   52.1022 C   0  0  0  0  0  0  0  0  0  0  0  0
   70.3348   48.9303   51.1162 F   0  0  0  0  0  0  0  0  0  0  0  0
   69.1599   46.9708   51.8121 C   0  0  0  0  0  0  0  0  0  0  0  0
   68.5521   46.2039   52.7726 C   0  0  0  0  0  0  0  0  0  0  0  0
 11 12  1  0
 12 13  1  0
 12 16  2  0
 13 14  1  0
 14 15  2  0
 15 16  1  0
 16  1  1  0
  1  2  2  0
  2  3  1  0
  2  9  1  0
  3  4  1  0
  4  5  2  0
  4  6  1  0
  6  7  2  0
  6  8  1  0
  7 17  1  0
 17 18  2  0
 17 22  1  0
 18 19  1  0
 19 20  2  0
 20 21  1  0
 21 23  1  0
 21 22  2  0
 23 24  1  0
 24 25  2  0
 24 30  1  0
 25 26  1  0
 26 27  2  0
 27 28  1  0
 27 29  1  0
 29 30  2  0
  8  9  1  0
  9 10  2  0
M  CHG  1  15   1
M  END
>  <minimizedAffinity>  (63) 
-9.42166

$$$$
data/reference_output_2/data/smiles/179256.pdb
     RDKit          3D

 33 36  0  0  0  0  0  0  0  0999 V2000
   65.6451   40.0290   60.8842 C   0  0  0  0  0  0  0  0  0  0  0  0
   66.4841   40.4965   59.9645 C   0  0  0  0  0  0  0  0  0  0  0  0
   67.0534   39.6138   59.1238 N   0  0  0  0  0  0  0  0  0  0  0  0
   67.9036   40.0891   58.1922 C   0  0  0  0  0  0  0  0  0  0  0  0
   68.4480   39.2932   57.3976 O   0  0  0  0  0  0  0  0  0  0  0  0
   68.2085   41.4339   58.0706 C   0  0  0  0  0  0  0  0  0  0  0  0
   69.0369   41.9181   57.1668 C   0  0  0  0  0  0  0  0  0  0  0  0
   67.6341   42.3119   58.9158 N   0  0  0  0  0  0  0  0  0  0  0  0
   66.7838   41.8464   59.8493 C   0  0  0  0  0  0  0  0  0  0  0  0
   66.2513   42.6793   60.6370 O   0  0  0  0  0  0  0  0  0  0  0  0
   69.3125   43.3519   57.0955 C   0  0  0  0  0  0  0  0  0  0  0  0
   70.3163   43.9154   57.8572 C   0  0  0  0  0  0  0  0  0  0  0  0
   70.5777   45.2785   57.7876 C   0  0  0  0  0  0  0  0  0  0  0  0
   69.8516   46.1097   56.9638 C   0  0  0  0  0  0  0  0  0  0  0  0
   68.8281   45.5616   56.1802 C   0  0  0  0  0  0  0  0  0  0  0  0
   68.6019   44.2080   56.2786 C   0  0  0  0  0  0  0  0  0  0  0  0
   68.0970   46.4098   55.3478 O   0  0  0  0  0  0  0  0  0  0  0  0
   68.5504   46.8952   54.1361 C   0  0  0  0  0  0  0  0  0  0  0  0
   69.3039   48.0499   54.0276 C   0  0  0  0  0  0  0  0  0  0  0  0
   69.7299   48.4895   52.7967 C   0  0  0  0  0  0  0  0  0  0  0  0
   69.4326   47.8127   51.6225 C   0  0  0  0  0  0  0  0  0  0  0  0
   68.6852   46.6676   51.7208 C   0  0  0  0  0  0  0  0  0  0  0  0
   68.2485   46.2135   52.9678 C   0  0  0  0  0  0  0  0  0  0  0  0
   67.5089   45.0912   53.0601 F   0  0  0  0  0  0  0  0  0  0  0  0
   65.9424   37.7011   61.7938 C   0  0  0  0  0  0  0  0  0  0  0  0
   65.3935   36.5021   61.5460 N   0  0  0  0  0  0  0  0  0  0  0  0
   64.4798   36.6287   60.5822 C   0  0  0  0  0  0  0  0  0  0  0  0
   64.4677   37.9368   60.2297 N   0  0  0  0  0  0  0  0  0  0  0  0
   65.3625   38.6116   60.9659 C   0  0  0  0  0  0  0  0  0  0  0  0
   67.0944   36.8036   63.7296 C   0  0  0  0  0  0  0  0  0  0  0  0
   66.9845   37.9767   62.7832 C   0  0  0  0  0  0  0  0  0  0  0  0
   68.3493   38.1809   62.1652 C   0  0  0  0  0  0  0  0  0  0  0  0
   66.5698   39.1829   63.6118 C   0  0  0  0  0  0  0  0  0  0  0  0
 30 31  1  0
 31 32  1  0
 31 33  1  0
 31 25  1  0
 25 26  1  0
 25 29  2  0
 26 27  1  0
 27 28  2  0
 28 29  1  0
 29  1  1  0
  1  2  2  0
  2  3  1  0
  2  9  1  0
  3  4  1  0
  4  5  2  0
  4  6  1  0
  6  7  2  0
  6  8  1  0
  7 11  1  0
 11 12  2  0
 11 16  1  0
 12 13  1  0
 13 14  2  0
 14 15  1  0
 15 17  1  0
 15 16  2  0
 17 18  1  0
 18 19  2  0
 18 23  1  0
 19 20  1  0
 20 21  2  0
 21 22  1  0
 22 23  2  0
 23 24  1  0
  8  9  1  0
  9 10  2  0
M  CHG  1  28   1
M  END
>  <minimizedAffinity>  (64) 
-9.42064

$$$$
data/reference_output_2/data/smiles/149850.pdb
     RDKit          3D

 33 36  0  0  0  0  0  0  0  0999 V2000
   70.7074   44.4832   58.9087 C   0  0  0  0  0  0  0  0  0  0  0  0
   70.7339   45.8149   58.7938 C   0  0  0  0  0  0  0  0  0  0  0  0
   71.4360   46.5286   59.6945 N   0  0  0  0  0  0  0  0  0  0  0  0
   71.4593   47.8660   59.5757 C   0  0  0  0  0  0  0  0  0  0  0  0
   72.1210   48.5236   60.4248 O   0  0  0  0  0  0  0  0  0  0  0  0
   70.7655   48.4860   58.5376 C   0  0  0  0  0  0  0  0  0  0  0  0
   70.7893   49.8045   58.4216 C   0  0  0  0  0  0  0  0  0  0  0  0
   70.0645   47.7898   57.6368 N   0  0  0  0  0  0  0  0  0  0  0  0
   70.0449   46.4426   57.7606 C   0  0  0  0  0  0  0  0  0  0  0  0
   69.3970   45.7591   56.9338 O   0  0  0  0  0  0  0  0  0  0  0  0
   70.0868   50.5135   57.3604 C   0  0  0  0  0  0  0  0  0  0  0  0
   69.2759   51.6072   57.5641 C   0  0  0  0  0  0  0  0  0  0  0  0
   68.6374   52.2342   56.5046 C   0  0  0  0  0  0  0  0  0  0  0  0
   68.8005   51.7789   55.2248 C   0  0  0  0  0  0  0  0  0  0  0  0
   69.6201   50.6690   54.9877 C   0  0  0  0  0  0  0  0  0  0  0  0
   70.2301   50.0773   56.0440 C   0  0  0  0  0  0  0  0  0  0  0  0
   69.7503   50.2149   53.6148 C   0  0  0  0  0  0  0  0  0  0  0  0
   70.1960   50.9925   52.7231 O   0  0  0  0  0  0  0  0  0  0  0  0
   69.3899   48.8812   53.1940 C   0  0  0  0  0  0  0  0  0  0  0  0
   69.7589   48.3535   51.9759 C   0  0  0  0  0  0  0  0  0  0  0  0
   69.4004   47.0534   51.6146 C   0  0  0  0  0  0  0  0  0  0  0  0
   68.6687   46.2678   52.4709 C   0  0  0  0  0  0  0  0  0  0  0  0
   68.2959   46.7841   53.6871 C   0  0  0  0  0  0  0  0  0  0  0  0
   68.6592   48.0772   54.0326 C   0  0  0  0  0  0  0  0  0  0  0  0
   72.6135   43.1199   59.8905 C   0  0  0  0  0  0  0  0  0  0  0  0
   72.8980   42.5919   61.1021 N   0  0  0  0  0  0  0  0  0  0  0  0
   71.8878   42.9023   61.9322 C   0  0  0  0  0  0  0  0  0  0  0  0
   70.9714   43.6300   61.2276 N   0  0  0  0  0  0  0  0  0  0  0  0
   71.4067   43.7716   59.9646 C   0  0  0  0  0  0  0  0  0  0  0  0
   74.5825   41.9981   58.9338 C   0  0  0  0  0  0  0  0  0  0  0  0
   73.4753   42.9990   58.7074 C   0  0  0  0  0  0  0  0  0  0  0  0
   72.7104   42.5609   57.4776 C   0  0  0  0  0  0  0  0  0  0  0  0
   74.1476   44.3489   58.4831 C   0  0  0  0  0  0  0  0  0  0  0  0
 30 31  1  0
 31 32  1  0
 31 33  1  0
 31 25  1  0
 25 26  1  0
 25 29  2  0
 26 27  1  0
 27 28  2  0
 28 29  1  0
 29  1  1  0
  1  2  2  0
  2  3  1  0
  2  9  1  0
  3  4  1  0
  4  5  2  0
  4  6  1  0
  6  7  2  0
  6  8  1  0
  7 11  1  0
 11 12  2  0
 11 16  1  0
 12 13  1  0
 13 14  2  0
 14 15  1  0
 15 17  1  0
 15 16  2  0
 17 18  2  0
 17 19  1  0
 19 20  2  0
 19 24  1  0
 20 21  1  0
 21 22  2  0
 22 23  1  0
 23 24  2  0
  8  9  1  0
  9 10  2  0
M  CHG  1  28   1
M  END
>  <minimizedAffinity>  (65) 
-9.40767

$$$$
data/reference_output_2/data/smiles/106957.pdb
     RDKit          3D

 33 36  0  0  0  0  0  0  0  0999 V2000
   65.6457   40.0705   60.9074 C   0  0  0  0  0  0  0  0  0  0  0  0
   66.5066   40.5914   60.0389 C   0  0  0  0  0  0  0  0  0  0  0  0
   67.0324   39.7818   59.1082 N   0  0  0  0  0  0  0  0  0  0  0  0
   67.9051   40.2803   58.2111 C   0  0  0  0  0  0  0  0  0  0  0  0
   68.4067   39.5411   57.3342 O   0  0  0  0  0  0  0  0  0  0  0  0
   68.2737   41.6266   58.2331 C   0  0  0  0  0  0  0  0  0  0  0  0
   69.1431   42.1164   57.3444 C   0  0  0  0  0  0  0  0  0  0  0  0
   67.7495   42.4354   59.1621 N   0  0  0  0  0  0  0  0  0  0  0  0
   66.8732   41.9407   60.0636 C   0  0  0  0  0  0  0  0  0  0  0  0
   66.3736   42.6644   60.9333 O   0  0  0  0  0  0  0  0  0  0  0  0
   69.5660   43.5026   57.3133 C   0  0  0  0  0  0  0  0  0  0  0  0
   70.6702   43.9687   57.9913 C   0  0  0  0  0  0  0  0  0  0  0  0
   71.0594   45.2934   57.9387 C   0  0  0  0  0  0  0  0  0  0  0  0
   70.3161   46.1860   57.1795 C   0  0  0  0  0  0  0  0  0  0  0  0
   69.1859   45.7509   56.4749 C   0  0  0  0  0  0  0  0  0  0  0  0
   68.8518   44.4179   56.5696 C   0  0  0  0  0  0  0  0  0  0  0  0
   68.4104   46.7100   55.7039 C   0  0  0  0  0  0  0  0  0  0  0  0
   67.6321   47.5098   56.2756 O   0  0  0  0  0  0  0  0  0  0  0  0
   68.5130   46.7653   54.2639 C   0  0  0  0  0  0  0  0  0  0  0  0
   67.8147   45.8680   53.4972 C   0  0  0  0  0  0  0  0  0  0  0  0
   67.8720   45.9077   52.0995 C   0  0  0  0  0  0  0  0  0  0  0  0
   68.6313   46.8472   51.4637 C   0  0  0  0  0  0  0  0  0  0  0  0
   69.3409   47.7564   52.2188 C   0  0  0  0  0  0  0  0  0  0  0  0
   69.2793   47.7128   53.6174 C   0  0  0  0  0  0  0  0  0  0  0  0
   65.6380   37.7614   61.8459 C   0  0  0  0  0  0  0  0  0  0  0  0
   65.1246   36.5947   61.4666 O   0  0  0  0  0  0  0  0  0  0  0  0
   64.4860   36.7135   60.3481 C   0  0  0  0  0  0  0  0  0  0  0  0
   64.5691   37.9903   59.9621 N   0  0  0  0  0  0  0  0  0  0  0  0
   65.2691   38.6511   60.8615 C   0  0  0  0  0  0  0  0  0  0  0  0
   65.9329   37.1747   64.2618 C   0  0  0  0  0  0  0  0  0  0  0  0
   66.4414   37.9930   63.0939 C   0  0  0  0  0  0  0  0  0  0  0  0
   66.6187   39.4400   63.4169 C   0  0  0  0  0  0  0  0  0  0  0  0
   67.8546   37.4479   62.8246 C   0  0  0  0  0  0  0  0  0  0  0  0
 30 31  1  0
 31 32  1  0
 31 33  1  0
 31 25  1  0
 25 26  1  0
 25 29  2  0
 26 27  1  0
 27 28  2  0
 28 29  1  0
 29  1  1  0
  1  2  2  0
  2  3  1  0
  2  9  1  0
  3  4  1  0
  4  5  2  0
  4  6  1  0
  6  7  2  0
  6  8  1  0
  7 11  1  0
 11 12  2  0
 11 16  1  0
 12 13  1  0
 13 14  2  0
 14 15  1  0
 15 17  1  0
 15 16  2  0
 17 18  2  0
 17 19  1  0
 19 20  2  0
 19 24  1  0
 20 21  1  0
 21 22  2  0
 22 23  1  0
 23 24  2  0
  8  9  1  0
  9 10  2  0
M  END
>  <minimizedAffinity>  (66) 
-9.40530

$$$$
data/reference_output_2/data/smiles/98592.pdb
     RDKit          3D

 30 34  0  0  0  0  0  0  0  0999 V2000
   70.0621   43.2579   57.4339 C   0  0  0  0  0  0  0  0  0  0  0  0
   68.7947   42.7754   56.8720 C   0  0  0  0  0  0  0  0  0  0  0  0
   68.2165   41.5340   57.1508 C   0  0  0  0  0  0  0  0  0  0  0  0
   67.0500   41.5229   56.4073 C   0  0  0  0  0  0  0  0  0  0  0  0
   66.9863   42.6916   55.7544 N   0  0  0  0  0  0  0  0  0  0  0  0
   68.0144   43.4556   56.0159 N   0  0  0  0  0  0  0  0  0  0  0  0
   68.2876   44.7649   55.5067 C   0  0  0  0  0  0  0  0  0  0  0  0
   68.2553   45.0208   54.1817 N   0  0  0  0  0  0  0  0  0  0  0  0
   68.4975   46.2102   53.6406 C   0  0  0  0  0  0  0  0  0  0  0  0
   68.8035   47.2639   54.4748 C   0  0  0  0  0  0  0  0  0  0  0  0
   68.8362   46.9958   55.8274 C   0  0  0  0  0  0  0  0  0  0  0  0
   69.1110   47.9317   56.6151 O   0  0  0  0  0  0  0  0  0  0  0  0
   68.5845   45.7793   56.3304 N   0  0  0  0  0  0  0  0  0  0  0  0
   69.0369   48.4964   53.6494 C   0  0  0  0  0  0  0  0  0  0  0  0
   69.3791   47.9106   52.3012 C   0  0  0  0  0  0  0  0  0  0  0  0
   68.5083   46.6758   52.2289 C   0  0  0  0  0  0  0  0  0  0  0  0
   68.7664   40.5225   58.0334 C   0  0  0  0  0  0  0  0  0  0  0  0
   69.9925   40.2837   57.9772 O   0  0  0  0  0  0  0  0  0  0  0  0
   67.9753   39.7941   58.9539 N   0  0  0  0  0  0  0  0  0  0  0  0
   66.5618   39.7473   59.3416 C   0  0  0  0  0  0  0  0  0  0  0  0
   66.7935   38.2735   59.6553 C   0  0  0  0  0  0  0  0  0  0  0  0
   68.2021   38.7565   59.9401 C   0  0  0  0  0  0  0  0  0  0  0  0
   66.0509   37.7520   60.8043 C   0  0  0  0  0  0  0  0  0  0  0  0
   65.0321   36.8506   60.5910 C   0  0  0  0  0  0  0  0  0  0  0  0
   64.2974   36.3273   61.6555 C   0  0  0  0  0  0  0  0  0  0  0  0
   64.5778   36.7038   62.9532 C   0  0  0  0  0  0  0  0  0  0  0  0
   63.8998   36.2301   64.0260 F   0  0  0  0  0  0  0  0  0  0  0  0
   65.6039   37.6140   63.1800 C   0  0  0  0  0  0  0  0  0  0  0  0
   65.9196   38.0172   64.4411 F   0  0  0  0  0  0  0  0  0  0  0  0
   66.3283   38.1268   62.1003 C   0  0  0  0  0  0  0  0  0  0  0  0
  1  2  1  0
  2  3  2  0
  2  6  1  0
  3 17  1  0
  3  4  1  0
 17 18  2  0
 17 19  1  0
 19 20  1  0
 19 22  1  0
 20 21  1  0
 21 23  1  0
 21 22  1  0
 23 24  2  0
 23 30  1  0
 24 25  1  0
 25 26  2  0
 26 27  1  0
 26 28  1  0
 28 29  1  0
 28 30  2  0
  4  5  2  0
  5  6  1  0
  6  7  1  0
  7  8  2  0
  7 13  1  0
  8  9  1  0
  9 10  2  0
  9 16  1  0
 10 11  1  0
 10 14  1  0
 11 12  2  0
 11 13  1  0
 14 15  1  0
 15 16  1  0
M  END
>  <minimizedAffinity>  (67) 
-9.40128

$$$$
data/200k_reference_output/data/smiles/76414.pdb
     RDKit          3D

 30 32  0  0  0  0  0  0  0  0999 V2000
   69.7464   47.3253   57.3938 C   0  0  0  0  0  0  0  0  0  0  0  0
   68.5558   47.2216   57.7625 O   0  0  0  0  0  0  0  0  0  0  0  0
   70.0777   47.9728   56.1751 N   0  0  0  0  0  0  0  0  0  0  0  0
   69.0460   48.5486   55.2989 C   0  0  1  0  0  0  0  0  0  0  0  0
   69.3920   49.9328   54.9316 C   0  0  0  0  0  0  0  0  0  0  0  0
   69.2579   50.7533   55.8936 O   0  0  0  0  0  0  0  0  0  0  0  0
   69.8407   50.5792   53.7559 N   0  0  0  0  0  0  0  0  0  0  0  0
   70.5319   51.8736   53.9000 C   0  0  0  0  0  0  0  0  0  0  0  0
   69.6970   50.1152   52.4459 N   0  0  0  0  0  0  0  0  0  0  0  0
   70.3324   48.8136   52.3656 C   0  0  0  0  0  0  0  0  0  0  0  0
   69.3614   47.7978   52.8700 C   0  0  0  0  0  0  0  0  0  0  0  0
   69.0655   46.9175   51.8265 C   0  0  0  0  0  0  0  0  0  0  0  0
   68.1786   45.8861   52.0529 C   0  0  0  0  0  0  0  0  0  0  0  0
   67.6227   45.7683   53.2997 C   0  0  0  0  0  0  0  0  0  0  0  0
   67.9204   46.6429   54.3289 C   0  0  0  0  0  0  0  0  0  0  0  0
   68.8151   47.6920   54.1163 C   0  0  0  0  0  0  0  0  0  0  0  0
   72.0593   47.5582   58.3412 C   0  0  0  0  0  0  0  0  0  0  0  0
   70.8143   46.7448   58.2672 C   0  0  2  0  0  0  0  0  0  0  0  0
   71.1199   45.3981   57.9127 N   0  0  0  0  0  0  0  0  0  0  0  0
   70.5163   44.2973   58.5431 C   0  0  0  0  0  0  0  0  0  0  0  0
   69.6729   44.4962   59.4448 O   0  0  0  0  0  0  0  0  0  0  0  0
   70.8494   42.9003   58.1686 C   0  0  0  0  0  0  0  0  0  0  0  0
   69.6764   42.1919   57.5702 C   0  0  0  0  0  0  0  0  0  0  0  0
   68.8408   42.8959   56.6951 C   0  0  0  0  0  0  0  0  0  0  0  0
   67.7348   42.3255   56.1117 C   0  0  0  0  0  0  0  0  0  0  0  0
   66.9462   43.0547   55.2604 F   0  0  0  0  0  0  0  0  0  0  0  0
   67.4227   41.0064   56.3903 C   0  0  0  0  0  0  0  0  0  0  0  0
   68.2291   40.2819   57.2531 C   0  0  0  0  0  0  0  0  0  0  0  0
   67.9543   39.0161   57.5472 F   0  0  0  0  0  0  0  0  0  0  0  0
   69.3521   40.8887   57.8337 C   0  0  0  0  0  0  0  0  0  0  0  0
 18 17  1  6
 18 19  1  0
 18  1  1  0
 19 20  1  0
 20 21  2  0
 20 22  1  0
 22 23  1  0
 23 24  2  0
 23 30  1  0
 24 25  1  0
 25 26  1  0
 25 27  2  0
 27 28  1  0
 28 29  1  0
 28 30  2  0
  1  2  2  0
  1  3  1  0
  4  3  1  6
  4  5  1  0
  4 16  1  0
  5  6  2  0
  5  7  1  0
  7  8  1  0
  7  9  1  0
  9 10  1  0
 10 11  1  0
 11 12  1  0
 11 16  2  0
 12 13  2  0
 13 14  1  0
 14 15  2  0
 15 16  1  0
M  END
>  <minimizedAffinity>  (68) 
-9.39670

$$$$
data/reference_output_2/data/smiles/95479.pdb
     RDKit          3D

 32 36  0  0  0  0  0  0  0  0999 V2000
   71.5154   47.4353   58.6972 C   0  0  0  0  0  0  0  0  0  0  0  0
   70.5172   48.0154   57.9470 C   0  0  0  0  0  0  0  0  0  0  0  0
   69.6526   47.3091   57.1512 C   0  0  0  0  0  0  0  0  0  0  0  0
   69.7999   45.9353   57.1073 C   0  0  0  0  0  0  0  0  0  0  0  0
   70.8016   45.3061   57.8559 C   0  0  0  0  0  0  0  0  0  0  0  0
   70.9290   43.9600   57.8066 F   0  0  0  0  0  0  0  0  0  0  0  0
   71.6462   46.0671   58.6418 C   0  0  0  0  0  0  0  0  0  0  0  0
   72.6304   45.4754   59.3787 F   0  0  0  0  0  0  0  0  0  0  0  0
   72.3376   47.9901   60.7706 O   0  0  0  0  0  0  0  0  0  0  0  0
   72.3954   48.2813   59.5238 C   0  0  0  0  0  0  0  0  0  0  0  0
   73.2152   49.3002   59.0323 N   0  0  0  0  0  0  0  0  0  0  0  0
   73.2929   49.6102   57.6414 C   0  0  0  0  0  0  0  0  0  0  0  0
   74.7044   49.2615   57.1752 C   0  0  0  0  0  0  0  0  0  0  0  0
   75.5922   49.2421   58.3751 N   0  0  0  0  0  0  0  0  0  0  0  0
   75.2764   50.4304   59.0877 C   0  0  0  0  0  0  0  0  0  0  0  0
   74.0227   50.0818   59.9339 C   0  0  0  0  0  0  0  0  0  0  0  0
   76.9293   49.0124   57.9745 C   0  0  0  0  0  0  0  0  0  0  0  0
   77.3915   49.4695   56.6525 C   0  0  0  0  0  0  0  0  0  0  0  0
   78.6386   49.2006   55.9659 C   0  0  0  0  0  0  0  0  0  0  0  0
   78.4755   50.5703   56.6325 C   0  0  0  0  0  0  0  0  0  0  0  0
   68.5788   48.0010   56.4003 C   0  0  0  0  0  0  0  0  0  0  0  0
   69.0573   48.2168   55.0120 C   0  0  0  0  0  0  0  0  0  0  0  0
   69.9458   49.2250   54.7584 N   0  0  0  0  0  0  0  0  0  0  0  0
   70.4346   49.4551   53.5678 N   0  0  0  0  0  0  0  0  0  0  0  0
   70.0854   48.7028   52.5234 C   0  0  0  0  0  0  0  0  0  0  0  0
   70.5400   48.8990   51.3602 O   0  0  0  0  0  0  0  0  0  0  0  0
   69.2058   47.6770   52.6837 C   0  0  0  0  0  0  0  0  0  0  0  0
   68.8220   46.8832   51.6110 C   0  0  0  0  0  0  0  0  0  0  0  0
   67.9219   45.8504   51.7909 C   0  0  0  0  0  0  0  0  0  0  0  0
   67.4152   45.6257   53.0534 C   0  0  0  0  0  0  0  0  0  0  0  0
   67.7849   46.4055   54.1414 C   0  0  0  0  0  0  0  0  0  0  0  0
   68.6789   47.4291   53.9610 C   0  0  0  0  0  0  0  0  0  0  0  0
  9 10  2  0
 10  1  1  0
 10 11  1  0
  1  2  2  0
  1  7  1  0
  2  3  1  0
  3 21  1  0
  3  4  2  0
 21 22  1  0
 22 23  2  0
 22 32  1  0
 23 24  1  0
 24 25  1  0
 25 26  2  0
 25 27  1  0
 27 28  1  0
 27 32  2  0
 28 29  2  0
 29 30  1  0
 30 31  2  0
 31 32  1  0
  4  5  1  0
  5  6  1  0
  5  7  2  0
  7  8  1  0
 11 12  1  0
 11 16  1  0
 12 13  1  0
 13 14  1  0
 14 17  1  0
 14 15  1  0
 17 18  1  0
 18 19  1  0
 18 20  1  0
 19 20  1  0
 15 16  1  0
M  CHG  1  14   1
M  END
>  <minimizedAffinity>  (69) 
-9.39559

$$$$
data/200k_reference_output/data/smiles/66482.pdb
     RDKit          3D

 27 28  0  0  0  0  0  0  0  0999 V2000
   69.9391   49.2270   52.5999 S   0  0  0  0  0  0  0  0  0  0  0  0
   71.4266   49.2255   52.9409 O   0  0  0  0  0  0  0  0  0  0  0  0
   69.8490   49.2406   51.0846 O   0  0  0  0  0  0  0  0  0  0  0  0
   69.1817   47.7756   53.1951 C   0  0  0  0  0  0  0  0  0  0  0  0
   68.5360   46.8639   52.3873 C   0  0  0  0  0  0  0  0  0  0  0  0
   68.4916   47.1241   51.0481 F   0  0  0  0  0  0  0  0  0  0  0  0
   67.9448   45.7218   52.8842 C   0  0  0  0  0  0  0  0  0  0  0  0
   67.3055   44.8231   52.0839 F   0  0  0  0  0  0  0  0  0  0  0  0
   67.9742   45.4358   54.2336 C   0  0  0  0  0  0  0  0  0  0  0  0
   67.3907   44.3082   54.7257 F   0  0  0  0  0  0  0  0  0  0  0  0
   68.6171   46.3373   55.0559 C   0  0  0  0  0  0  0  0  0  0  0  0
   68.6498   46.0607   56.3844 F   0  0  0  0  0  0  0  0  0  0  0  0
   69.2086   47.4796   54.5612 C   0  0  0  0  0  0  0  0  0  0  0  0
   69.8402   48.3668   55.3574 F   0  0  0  0  0  0  0  0  0  0  0  0
   69.2669   50.6761   53.1942 N   0  0  0  0  0  0  0  0  0  0  0  0
   71.1699   53.2896   55.9588 C   0  0  0  0  0  0  0  0  0  0  0  0
   69.7957   53.2227   55.9050 C   0  0  0  0  0  0  0  0  0  0  0  0
   69.1668   52.3661   54.9901 C   0  0  0  0  0  0  0  0  0  0  0  0
   69.8652   51.5644   54.1172 C   0  0  0  0  0  0  0  0  0  0  0  0
   71.2665   51.6564   54.1974 C   0  0  0  0  0  0  0  0  0  0  0  0
   71.8852   52.4956   55.0935 C   0  0  0  0  0  0  0  0  0  0  0  0
   73.3223   52.5707   55.1571 N   0  0  0  0  0  0  0  0  0  0  0  0
   74.1223   51.4087   55.3099 C   0  0  0  0  0  0  0  0  0  0  0  0
   75.5423   51.4370   55.3782 N   0  0  0  0  0  0  0  0  0  0  0  0
   73.5509   50.2979   55.3903 O   0  0  0  0  0  0  0  0  0  0  0  0
   72.3723   53.5914   58.0708 C   0  0  0  0  0  0  0  0  0  0  0  0
   71.8557   54.1135   56.8380 O   0  0  0  0  0  0  0  0  0  0  0  0
 26 27  1  0
 27 16  1  0
 16 17  2  0
 16 21  1  0
 17 18  1  0
 18 19  2  0
 19 15  1  0
 19 20  1  0
 15  1  1  0
  1  2  2  0
  1  3  2  0
  1  4  1  0
  4  5  2  0
  4 13  1  0
  5  6  1  0
  5  7  1  0
  7  8  1  0
  7  9  2  0
  9 10  1  0
  9 11  1  0
 11 12  1  0
 11 13  2  0
 13 14  1  0
 20 21  2  0
 21 22  1  0
 22 23  1  0
 23 24  1  0
 23 25  2  0
M  END
>  <minimizedAffinity>  (70) 
-9.38784

$$$$
data/reference_output_2/data/smiles/93550.pdb
     RDKit          3D

 30 33  0  0  0  0  0  0  0  0999 V2000
   65.9714   42.4476   60.5234 O   0  0  0  0  0  0  0  0  0  0  0  0
   66.6314   41.6581   59.7970 C   0  0  0  0  0  0  0  0  0  0  0  0
   67.4794   42.1553   58.8721 N   0  0  0  0  0  0  0  0  0  0  0  0
   68.1733   41.2821   58.1083 C   0  0  0  0  0  0  0  0  0  0  0  0
   69.0085   41.7815   57.1976 C   0  0  0  0  0  0  0  0  0  0  0  0
   67.9977   39.9266   58.2934 C   0  0  0  0  0  0  0  0  0  0  0  0
   68.6606   39.1571   57.5634 O   0  0  0  0  0  0  0  0  0  0  0  0
   67.1487   39.4220   59.2180 N   0  0  0  0  0  0  0  0  0  0  0  0
   66.4534   40.2931   59.9838 C   0  0  0  0  0  0  0  0  0  0  0  0
   65.6146   39.8150   60.8994 C   0  0  0  0  0  0  0  0  0  0  0  0
   69.1781   43.2195   57.0196 C   0  0  0  0  0  0  0  0  0  0  0  0
   70.1129   43.9028   57.7675 C   0  0  0  0  0  0  0  0  0  0  0  0
   70.3270   45.2573   57.6518 C   0  0  0  0  0  0  0  0  0  0  0  0
   69.5897   46.0016   56.7558 C   0  0  0  0  0  0  0  0  0  0  0  0
   68.6479   45.3411   55.9954 C   0  0  0  0  0  0  0  0  0  0  0  0
   68.4437   43.9689   56.1243 C   0  0  0  0  0  0  0  0  0  0  0  0
   67.8995   46.1003   55.0850 O   0  0  0  0  0  0  0  0  0  0  0  0
   68.5145   46.7698   54.0317 C   0  0  0  0  0  0  0  0  0  0  0  0
   69.0521   48.0138   54.2944 C   0  0  0  0  0  0  0  0  0  0  0  0
   69.6708   48.7188   53.2918 C   0  0  0  0  0  0  0  0  0  0  0  0
   69.7498   48.1802   52.0320 C   0  0  0  0  0  0  0  0  0  0  0  0
   70.3742   48.9308   51.0879 F   0  0  0  0  0  0  0  0  0  0  0  0
   69.2149   46.9472   51.7731 C   0  0  0  0  0  0  0  0  0  0  0  0
   68.5936   46.2281   52.7623 C   0  0  0  0  0  0  0  0  0  0  0  0
   65.4133   38.3857   61.1111 C   0  0  0  0  0  0  0  0  0  0  0  0
   64.5448   37.7322   60.2593 C   0  0  0  0  0  0  0  0  0  0  0  0
   64.2875   36.3715   60.3803 C   0  0  0  0  0  0  0  0  0  0  0  0
   64.9394   35.7040   61.3910 C   0  0  0  0  0  0  0  0  0  0  0  0
   65.7838   36.3592   62.2132 N   0  0  0  0  0  0  0  0  0  0  0  0
   66.0390   37.6765   62.1028 C   0  0  0  0  0  0  0  0  0  0  0  0
  1  2  2  0
  2  3  1  0
  2  9  1  0
  3  4  1  0
  4  5  2  0
  4  6  1  0
  5 11  1  0
 11 12  2  0
 11 16  1  0
 12 13  1  0
 13 14  2  0
 14 15  1  0
 15 17  1  0
 15 16  2  0
 17 18  1  0
 18 19  2  0
 18 24  1  0
 19 20  1  0
 20 21  2  0
 21 22  1  0
 21 23  1  0
 23 24  2  0
  6  7  2  0
  6  8  1  0
  8  9  1  0
  9 10  2  0
 10 25  1  0
 25 26  2  0
 25 30  1  0
 26 27  1  0
 27 28  2  0
 28 29  1  0
 29 30  2  0
M  END
>  <minimizedAffinity>  (71) 
-9.38536

$$$$
data/reference_output_2/data/smiles/195908.pdb
     RDKit          3D

 29 31  0  0  0  0  0  0  0  0999 V2000
   72.1293   44.2982   60.3970 N   0  0  0  0  0  0  0  0  0  0  0  0
   72.4002   43.5217   59.2014 C   0  0  0  0  0  0  0  0  0  0  0  0
   71.7789   44.2846   58.0521 C   0  0  0  0  0  0  0  0  0  0  0  0
   70.8038   45.2018   58.7201 C   0  0  1  0  0  0  0  0  0  0  0  0
   69.6773   44.4215   59.0717 O   0  0  0  0  0  0  0  0  0  0  0  0
   71.5522   45.5303   59.9841 C   0  0  0  0  0  0  0  0  0  0  0  0
   71.6775   46.6120   60.5830 O   0  0  0  0  0  0  0  0  0  0  0  0
   72.9364   42.9808   64.3566 C   0  0  0  0  0  0  0  0  0  0  0  0
   73.9112   43.6062   63.6110 C   0  0  0  0  0  0  0  0  0  0  0  0
   73.6399   44.0372   62.3073 C   0  0  0  0  0  0  0  0  0  0  0  0
   72.4098   43.8575   61.7257 C   0  0  0  0  0  0  0  0  0  0  0  0
   71.4382   43.2317   62.4766 C   0  0  0  0  0  0  0  0  0  0  0  0
   71.6973   42.8028   63.7651 C   0  0  0  0  0  0  0  0  0  0  0  0
   72.4093   41.3167   67.7678 C   0  0  0  0  0  0  0  0  0  0  0  0
   72.1611   41.7775   66.3972 C   0  0  0  0  0  0  0  0  0  0  0  0
   71.0492   41.5072   65.8357 O   0  0  0  0  0  0  0  0  0  0  0  0
   73.1490   42.5222   65.6869 N   0  0  0  0  0  0  0  0  0  0  0  0
   70.4361   46.3781   57.9424 C   0  0  0  0  0  0  0  0  0  0  0  0
   71.2454   47.3268   57.8396 O   0  0  0  0  0  0  0  0  0  0  0  0
   69.1719   46.4471   57.3062 N   0  0  0  0  0  0  0  0  0  0  0  0
   68.7069   47.5669   56.5112 C   0  0  0  0  0  0  0  0  0  0  0  0
   68.6914   47.2856   55.0506 C   0  0  0  0  0  0  0  0  0  0  0  0
   67.9738   46.2152   54.5745 C   0  0  0  0  0  0  0  0  0  0  0  0
   67.9270   45.8959   53.2379 C   0  0  0  0  0  0  0  0  0  0  0  0
   67.2095   44.8275   52.7775 F   0  0  0  0  0  0  0  0  0  0  0  0
   68.6296   46.6890   52.3597 C   0  0  0  0  0  0  0  0  0  0  0  0
   69.3599   47.7665   52.7823 C   0  0  0  0  0  0  0  0  0  0  0  0
   70.2427   48.7578   51.6371 Cl  0  0  0  0  0  0  0  0  0  0  0  0
   69.3860   48.0633   54.1512 C   0  0  0  0  0  0  0  0  0  0  0  0
 14 15  1  0
 15 16  2  0
 15 17  1  0
 17  8  1  0
  8  9  2  0
  8 13  1  0
  9 10  1  0
 10 11  2  0
 11  1  1  0
 11 12  1  0
  1  2  1  0
  1  6  1  0
  2  3  1  0
  3  4  1  0
  4  5  1  1
  4 18  1  0
  4  6  1  0
 18 19  2  0
 18 20  1  0
 20 21  1  0
 21 22  1  0
 22 23  2  0
 22 29  1  0
 23 24  1  0
 24 25  1  0
 24 26  2  0
 26 27  1  0
 27 28  1  0
 27 29  2  0
  6  7  2  0
 12 13  2  0
M  END
>  <minimizedAffinity>  (72) 
-9.38532

$$$$
data/200k_reference_output/data/smiles/25421.pdb
     RDKit          3D

 29 32  0  0  0  0  0  0  0  0999 V2000
   67.9766   42.3440   56.5155 C   0  0  0  0  0  0  0  0  0  0  0  0
   67.1010   41.7855   55.7718 O   0  0  0  0  0  0  0  0  0  0  0  0
   68.4390   41.6036   57.6081 N   0  0  0  0  0  0  0  0  0  0  0  0
   67.9354   40.2523   57.8714 C   0  0  0  0  0  0  0  0  0  0  0  0
   69.0288   39.2611   58.0613 C   0  0  0  0  0  0  0  0  0  0  0  0
   70.2348   39.7399   58.6288 N   0  0  0  0  0  0  0  0  0  0  0  0
   70.5876   41.0806   58.3878 C   0  0  0  0  0  0  0  0  0  0  0  0
   69.4151   42.0350   58.5729 C   0  0  0  0  0  0  0  0  0  0  0  0
   69.2664   44.3627   56.7380 O   0  0  0  0  0  0  0  0  0  0  0  0
   68.3923   43.6783   56.1444 C   0  0  0  0  0  0  0  0  0  0  0  0
   67.7755   44.3116   55.0017 N   0  0  0  0  0  0  0  0  0  0  0  0
   68.2022   45.6205   54.6597 C   0  0  0  0  0  0  0  0  0  0  0  0
   68.3679   46.6362   55.5792 C   0  0  0  0  0  0  0  0  0  0  0  0
   68.7909   47.9077   55.1866 C   0  0  0  0  0  0  0  0  0  0  0  0
   69.0540   48.1829   53.8700 C   0  0  0  0  0  0  0  0  0  0  0  0
   69.4620   49.2526   53.1652 N   0  0  0  0  0  0  0  0  0  0  0  0
   69.5463   48.9211   51.8729 C   0  0  0  0  0  0  0  0  0  0  0  0
   69.8971   49.6666   50.9080 O   0  0  0  0  0  0  0  0  0  0  0  0
   69.1989   47.6739   51.7759 O   0  0  0  0  0  0  0  0  0  0  0  0
   68.8914   47.1764   52.9454 C   0  0  0  0  0  0  0  0  0  0  0  0
   68.4732   45.9225   53.3408 C   0  0  0  0  0  0  0  0  0  0  0  0
   71.3522   38.8725   58.3267 C   0  0  0  0  0  0  0  0  0  0  0  0
   71.1388   37.5552   58.9769 C   0  0  0  0  0  0  0  0  0  0  0  0
   70.4103   37.4041   60.1347 C   0  0  0  0  0  0  0  0  0  0  0  0
   70.2430   36.1551   60.6905 C   0  0  0  0  0  0  0  0  0  0  0  0
   70.8027   35.0393   60.0942 C   0  0  0  0  0  0  0  0  0  0  0  0
   70.6030   33.4501   60.7817 Cl  0  0  0  0  0  0  0  0  0  0  0  0
   71.5371   35.1976   58.9266 C   0  0  0  0  0  0  0  0  0  0  0  0
   71.7041   36.4436   58.3725 C   0  0  0  0  0  0  0  0  0  0  0  0
  9 10  2  0
 10 11  1  0
 10  1  1  0
 11 12  1  0
 12 13  2  0
 12 21  1  0
 13 14  1  0
 14 15  2  0
 15 16  1  0
 15 20  1  0
 16 17  1  0
 17 18  2  0
 17 19  1  0
 19 20  1  0
 20 21  2  0
  1  2  2  0
  1  3  1  0
  3  4  1  0
  3  8  1  0
  4  5  1  0
  5  6  1  0
  6 22  1  0
  6  7  1  0
 22 23  1  0
 23 24  2  0
 23 29  1  0
 24 25  1  0
 25 26  2  0
 26 27  1  0
 26 28  1  0
 28 29  2  0
  7  8  1  0
M  CHG  1   6   1
M  END
>  <minimizedAffinity>  (73) 
-9.38344

$$$$
data/reference_output_2/data/smiles/99673.pdb
     RDKit          3D

 30 33  0  0  0  0  0  0  0  0999 V2000
   67.2988   41.7564   55.9861 O   0  0  0  0  0  0  0  0  0  0  0  0
   68.2663   42.1480   56.6882 C   0  0  0  0  0  0  0  0  0  0  0  0
   68.8715   41.1850   57.5322 N   0  0  0  0  0  0  0  0  0  0  0  0
   69.9887   41.5941   58.3574 C   0  0  0  0  0  0  0  0  0  0  0  0
   70.9428   40.4004   58.3959 C   0  0  0  0  0  0  0  0  0  0  0  0
   70.3422   39.2763   59.1704 C   0  0  0  0  0  0  0  0  0  0  0  0
   68.8320   39.2182   58.9700 C   0  0  0  0  0  0  0  0  0  0  0  0
   68.4436   39.8039   57.6265 C   0  0  0  0  0  0  0  0  0  0  0  0
   70.9455   37.9411   58.8605 C   0  0  0  0  0  0  0  0  0  0  0  0
   70.5978   36.8254   59.6243 C   0  0  0  0  0  0  0  0  0  0  0  0
   71.1293   35.5750   59.3975 C   0  0  0  0  0  0  0  0  0  0  0  0
   72.0393   35.3857   58.3872 C   0  0  0  0  0  0  0  0  0  0  0  0
   72.4043   36.4655   57.6131 C   0  0  0  0  0  0  0  0  0  0  0  0
   71.8536   37.7252   57.8605 C   0  0  0  0  0  0  0  0  0  0  0  0
   70.5469   39.5279   60.6168 C   0  0  0  0  0  0  0  0  0  0  0  0
   69.5595   39.6192   61.3740 O   0  0  0  0  0  0  0  0  0  0  0  0
   71.8239   39.6595   61.1183 O   0  0  0  0  0  0  0  0  0  0  0  0
   68.7321   43.5295   56.6254 C   0  0  0  0  0  0  0  0  0  0  0  0
   67.9060   44.4215   55.9653 O   0  0  0  0  0  0  0  0  0  0  0  0
   68.1868   45.2644   54.9333 C   0  0  0  0  0  0  0  0  0  0  0  0
   67.7396   44.9820   53.6417 C   0  0  0  0  0  0  0  0  0  0  0  0
   67.9991   45.8080   52.5702 C   0  0  0  0  0  0  0  0  0  0  0  0
   68.7278   46.9566   52.7750 C   0  0  0  0  0  0  0  0  0  0  0  0
   69.0258   47.8338   51.7400 C   0  0  0  0  0  0  0  0  0  0  0  0
   69.7564   48.9592   52.0199 C   0  0  0  0  0  0  0  0  0  0  0  0
   70.1873   49.2175   53.3039 C   0  0  0  0  0  0  0  0  0  0  0  0
   70.8599   50.2649   53.5323 O   0  0  0  0  0  0  0  0  0  0  0  0
   69.8809   48.3619   54.2466 O   0  0  0  0  0  0  0  0  0  0  0  0
   69.1793   47.2579   54.0421 C   0  0  0  0  0  0  0  0  0  0  0  0
   68.9080   46.4137   55.1097 C   0  0  0  0  0  0  0  0  0  0  0  0
  1  2  2  0
  2 18  1  0
  2  3  1  0
 18 19  1  0
 19 20  1  0
 20 21  2  0
 20 30  1  0
 21 22  1  0
 22 23  2  0
 23 24  1  0
 23 29  1  0
 24 25  2  0
 25 26  1  0
 26 27  2  0
 26 28  1  0
 28 29  1  0
 29 30  2  0
  3  4  1  0
  3  8  1  0
  4  5  1  0
  5  6  1  0
  6 15  1  0
  6  9  1  0
  6  7  1  0
 15 16  2  0
 15 17  1  0
  9 10  2  0
  9 14  1  0
 10 11  1  0
 11 12  2  0
 12 13  1  0
 13 14  2  0
  7  8  1  0
M  END
>  <minimizedAffinity>  (74) 
-9.37538

$$$$
data/200k_reference_output/data/smiles/7092.pdb
     RDKit          3D

 33 38  0  0  0  0  0  0  0  0999 V2000
   71.7000   47.1529   58.9781 C   0  0  0  0  0  0  0  0  0  0  0  0
   70.7626   47.8265   58.1872 C   0  0  0  0  0  0  0  0  0  0  0  0
   69.9254   47.2132   57.2951 C   0  0  0  0  0  0  0  0  0  0  0  0
   70.0229   45.8213   57.1734 C   0  0  0  0  0  0  0  0  0  0  0  0
   70.9289   45.1206   57.9309 C   0  0  0  0  0  0  0  0  0  0  0  0
   71.7541   45.7851   58.8205 C   0  0  0  0  0  0  0  0  0  0  0  0
   72.6537   45.0649   59.5676 F   0  0  0  0  0  0  0  0  0  0  0  0
   72.2031   47.9088   61.1170 O   0  0  0  0  0  0  0  0  0  0  0  0
   72.5569   47.8836   59.9066 C   0  0  0  0  0  0  0  0  0  0  0  0
   73.7395   48.5427   59.4863 N   0  0  0  0  0  0  0  0  0  0  0  0
   74.4124   48.7062   58.2147 C   0  0  0  0  0  0  0  0  0  0  0  0
   75.6767   48.8757   58.9821 C   0  0  0  0  0  0  0  0  0  0  0  0
   74.8001   49.3308   60.0814 C   0  0  0  0  0  0  0  0  0  0  0  0
   76.7449   49.7379   58.4791 C   0  0  0  0  0  0  0  0  0  0  0  0
   77.5899   48.5476   58.3660 N   0  0  0  0  0  0  0  0  0  0  0  0
   78.8262   48.3222   57.7531 C   0  0  0  0  0  0  0  0  0  0  0  0
   79.3412   47.1846   57.8037 O   0  0  0  0  0  0  0  0  0  0  0  0
   76.6012   47.7716   59.1403 C   0  0  0  0  0  0  0  0  0  0  0  0
   79.5460   49.3975   57.0445 C   0  0  0  0  0  0  0  0  0  0  0  0
   80.7467   49.0068   56.1991 C   0  0  0  0  0  0  0  0  0  0  0  0
   79.4605   49.4361   55.5467 C   0  0  0  0  0  0  0  0  0  0  0  0
   68.9322   47.9574   56.4803 C   0  0  0  0  0  0  0  0  0  0  0  0
   69.2653   48.1387   55.0791 C   0  0  0  0  0  0  0  0  0  0  0  0
   70.1484   49.1280   54.7624 N   0  0  0  0  0  0  0  0  0  0  0  0
   70.5764   49.3853   53.5519 N   0  0  0  0  0  0  0  0  0  0  0  0
   70.1535   48.6584   52.5079 C   0  0  0  0  0  0  0  0  0  0  0  0
   70.5522   48.8872   51.3402 O   0  0  0  0  0  0  0  0  0  0  0  0
   69.2571   47.6414   52.7604 C   0  0  0  0  0  0  0  0  0  0  0  0
   68.7663   46.8545   51.7329 C   0  0  0  0  0  0  0  0  0  0  0  0
   67.8616   45.8465   51.9877 C   0  0  0  0  0  0  0  0  0  0  0  0
   67.4217   45.5939   53.2695 C   0  0  0  0  0  0  0  0  0  0  0  0
   67.8835   46.3482   54.3087 C   0  0  0  0  0  0  0  0  0  0  0  0
   68.7960   47.3632   54.0520 C   0  0  0  0  0  0  0  0  0  0  0  0
  8  9  2  0
  9  1  1  0
  9 10  1  0
  1  2  2  0
  1  6  1  0
  2  3  1  0
  3 22  1  0
  3  4  2  0
 22 23  1  0
 23 24  2  0
 23 33  1  0
 24 25  1  0
 25 26  1  0
 26 27  2  0
 26 28  1  0
 28 29  1  0
 28 33  2  0
 29 30  2  0
 30 31  1  0
 31 32  2  0
 32 33  1  0
  4  5  1  0
  5  6  2  0
  6  7  1  0
 10 11  1  0
 10 13  1  0
 11 12  1  0
 12 13  1  0
 12 14  1  0
 12 18  1  0
 14 15  1  0
 15 16  1  0
 15 18  1  0
 16 17  2  0
 16 19  1  0
 19 20  1  0
 19 21  1  0
 20 21  1  0
M  END
>  <minimizedAffinity>  (75) 
-9.36580

$$$$
data/200k_reference_output/data/smiles/6944.pdb
     RDKit          3D

 29 32  0  0  0  0  0  0  0  0999 V2000
   68.7348   39.0504   57.7067 O   0  0  0  0  0  0  0  0  0  0  0  0
   68.0376   39.8860   58.3364 C   0  0  0  0  0  0  0  0  0  0  0  0
   67.1253   39.4035   59.1966 N   0  0  0  0  0  0  0  0  0  0  0  0
   66.3650   40.2734   59.8837 C   0  0  0  0  0  0  0  0  0  0  0  0
   65.4575   39.8225   60.7382 C   0  0  0  0  0  0  0  0  0  0  0  0
   66.5457   41.6380   59.6845 C   0  0  0  0  0  0  0  0  0  0  0  0
   65.8233   42.4320   60.3398 O   0  0  0  0  0  0  0  0  0  0  0  0
   67.4611   42.1091   58.8228 N   0  0  0  0  0  0  0  0  0  0  0  0
   68.2140   41.2369   58.1424 C   0  0  0  0  0  0  0  0  0  0  0  0
   69.1244   41.7190   57.2837 C   0  0  0  0  0  0  0  0  0  0  0  0
   69.2844   43.1601   57.1035 C   0  0  0  0  0  0  0  0  0  0  0  0
   70.2130   43.8587   57.8506 C   0  0  0  0  0  0  0  0  0  0  0  0
   70.3748   45.2259   57.6894 C   0  0  0  0  0  0  0  0  0  0  0  0
   69.5973   45.9130   56.7666 C   0  0  0  0  0  0  0  0  0  0  0  0
   68.6623   45.2372   56.0074 C   0  0  0  0  0  0  0  0  0  0  0  0
   68.5399   43.8929   56.2018 C   0  0  0  0  0  0  0  0  0  0  0  0
   67.8822   45.9414   55.0775 O   0  0  0  0  0  0  0  0  0  0  0  0
   68.5057   46.7240   54.1245 C   0  0  0  0  0  0  0  0  0  0  0  0
   69.0487   47.9651   54.3769 C   0  0  0  0  0  0  0  0  0  0  0  0
   69.6587   48.6968   53.3740 C   0  0  0  0  0  0  0  0  0  0  0  0
   69.7387   48.1996   52.0932 C   0  0  0  0  0  0  0  0  0  0  0  0
   70.3474   48.9491   51.1309 F   0  0  0  0  0  0  0  0  0  0  0  0
   69.2022   46.9647   51.8280 C   0  0  0  0  0  0  0  0  0  0  0  0
   68.5993   46.2506   52.8360 C   0  0  0  0  0  0  0  0  0  0  0  0
   65.3063   38.3734   60.9115 C   0  0  0  0  0  0  0  0  0  0  0  0
   64.5754   37.4854   60.2092 C   0  0  0  0  0  0  0  0  0  0  0  0
   64.5944   36.1981   60.5579 C   0  0  0  0  0  0  0  0  0  0  0  0
   65.3441   35.8104   61.6056 C   0  0  0  0  0  0  0  0  0  0  0  0
   66.0878   37.3869   62.1502 S   0  0  0  0  0  0  0  0  0  0  0  0
  1  2  2  0
  2  3  1  0
  2  9  1  0
  3  4  1  0
  4  5  2  0
  4  6  1  0
  5 25  1  0
 25 26  2  0
 25 29  1  0
 26 27  1  0
 27 28  2  0
 28 29  1  0
  6  7  2  0
  6  8  1  0
  8  9  1  0
  9 10  2  0
 10 11  1  0
 11 12  2  0
 11 16  1  0
 12 13  1  0
 13 14  2  0
 14 15  1  0
 15 17  1  0
 15 16  2  0
 17 18  1  0
 18 19  2  0
 18 24  1  0
 19 20  1  0
 20 21  2  0
 21 22  1  0
 21 23  1  0
 23 24  2  0
M  END
>  <minimizedAffinity>  (76) 
-9.36061

$$$$
data/200k_reference_output/data/smiles/52135.pdb
     RDKit          3D

 31 35  0  0  0  0  0  0  0  0999 V2000
   71.1028   50.0781   56.2396 C   0  0  0  0  0  0  0  0  0  0  0  0
   70.8953   50.2063   54.9121 C   0  0  0  0  0  0  0  0  0  0  0  0
   70.1141   49.3321   54.1728 C   0  0  0  0  0  0  0  0  0  0  0  0
   69.5425   48.2961   54.8618 C   0  0  0  0  0  0  0  0  0  0  0  0
   69.7252   48.1346   56.2321 C   0  0  0  0  0  0  0  0  0  0  0  0
   70.5160   49.0465   56.9570 C   0  0  0  0  0  0  0  0  0  0  0  0
   69.2590   46.9985   56.8547 C   0  0  0  0  0  0  0  0  0  0  0  0
   69.3976   46.7887   58.0974 O   0  0  0  0  0  0  0  0  0  0  0  0
   68.6085   46.0126   56.1493 N   0  0  0  0  0  0  0  0  0  0  0  0
   68.4099   46.1280   54.8487 C   0  0  0  0  0  0  0  0  0  0  0  0
   67.7787   45.1278   54.1209 C   0  0  0  0  0  0  0  0  0  0  0  0
   67.3755   43.9747   54.7557 F   0  0  0  0  0  0  0  0  0  0  0  0
   67.5711   45.2033   52.7752 C   0  0  0  0  0  0  0  0  0  0  0  0
   68.0284   46.3471   52.1371 C   0  0  0  0  0  0  0  0  0  0  0  0
   67.8219   46.4697   50.8097 F   0  0  0  0  0  0  0  0  0  0  0  0
   68.6724   47.3783   52.8317 C   0  0  0  0  0  0  0  0  0  0  0  0
   68.8720   47.2783   54.1716 C   0  0  0  0  0  0  0  0  0  0  0  0
   72.1689   50.9536   56.8967 C   0  0  0  0  0  0  0  0  0  0  0  0
   73.1985   51.4014   55.8786 C   0  0  2  0  0  0  0  0  0  0  0  0
   74.4463   50.8658   56.3409 N   0  0  0  0  0  0  0  0  0  0  0  0
   75.4047   50.0454   55.7752 C   0  0  0  0  0  0  0  0  0  0  0  0
   75.2781   49.5740   54.6064 O   0  0  0  0  0  0  0  0  0  0  0  0
   76.6346   49.6972   56.5798 C   0  0  1  0  0  0  0  0  0  0  0  0
   77.2947   50.8121   57.1632 N   0  0  0  0  0  0  0  0  0  0  0  0
   77.2929   50.5930   58.5700 C   0  0  2  0  0  0  0  0  0  0  0  0
   78.1847   49.4333   58.9049 C   0  0  0  0  0  0  0  0  0  0  0  0
   77.5222   48.2117   58.2950 C   0  0  0  0  0  0  0  0  0  0  0  0
   76.2202   48.7860   57.7405 C   0  0  1  0  0  0  0  0  0  0  0  0
   75.9270   49.8907   58.7655 C   0  0  0  0  0  0  0  0  0  0  0  0
   73.4999   54.0775   55.9149 N   0  0  0  0  0  0  0  0  0  0  0  0
   73.3552   52.8592   55.9070 C   0  0  0  0  0  0  0  0  0  0  0  0
 30 31  3  0
 19 31  1  1
 19 18  1  0
 19 20  1  0
 18  1  1  0
  1  2  2  0
  1  6  1  0
  2  3  1  0
  3  4  2  0
  4  5  1  0
  4 17  1  0
  5  6  2  0
  5  7  1  0
  7  8  2  0
  7  9  1  0
  9 10  1  0
 10 11  1  0
 10 17  2  0
 11 12  1  0
 11 13  2  0
 13 14  1  0
 14 15  1  0
 14 16  2  0
 16 17  1  0
 20 21  1  0
 21 22  2  0
 23 21  1  1
 23 24  1  0
 23 28  1  0
 24 25  1  0
 25 26  1  6
 25 29  1  0
 26 27  1  0
 28 27  1  1
 28 29  1  0
M  CHG  1  24   1
M  END
>  <minimizedAffinity>  (77) 
-9.35492

$$$$
data/reference_output_2/data/smiles/125312.pdb
     RDKit          3D

 33 36  0  0  0  0  0  0  0  0999 V2000
   70.6458   43.9943   59.1816 C   0  0  0  0  0  0  0  0  0  0  0  0
   70.7211   45.2981   58.9517 C   0  0  0  0  0  0  0  0  0  0  0  0
   71.3592   46.1172   59.8078 N   0  0  0  0  0  0  0  0  0  0  0  0
   71.4364   47.4415   59.5759 C   0  0  0  0  0  0  0  0  0  0  0  0
   72.0374   48.2240   60.3770 O   0  0  0  0  0  0  0  0  0  0  0  0
   70.8728   48.0289   58.4625 C   0  0  0  0  0  0  0  0  0  0  0  0
   70.9376   49.3285   58.2163 C   0  0  0  0  0  0  0  0  0  0  0  0
   70.2347   47.2098   57.6064 N   0  0  0  0  0  0  0  0  0  0  0  0
   70.1578   45.8863   57.8388 C   0  0  0  0  0  0  0  0  0  0  0  0
   69.5562   45.1373   57.0267 O   0  0  0  0  0  0  0  0  0  0  0  0
   70.3385   49.9364   57.0374 C   0  0  0  0  0  0  0  0  0  0  0  0
   69.5791   51.0760   57.1666 C   0  0  0  0  0  0  0  0  0  0  0  0
   68.9919   51.6843   56.0601 C   0  0  0  0  0  0  0  0  0  0  0  0
   69.1850   51.1167   54.8028 C   0  0  0  0  0  0  0  0  0  0  0  0
   69.9416   49.9746   54.6410 C   0  0  0  0  0  0  0  0  0  0  0  0
   70.4998   49.4147   55.7712 C   0  0  0  0  0  0  0  0  0  0  0  0
   70.1312   49.3911   53.2905 C   0  0  2  0  0  0  0  0  0  0  0  0
   69.7847   50.3226   52.2851 O   0  0  0  0  0  0  0  0  0  0  0  0
   69.3305   48.1672   53.0868 C   0  0  0  0  0  0  0  0  0  0  0  0
   69.1463   47.6501   51.8214 C   0  0  0  0  0  0  0  0  0  0  0  0
   68.4007   46.5054   51.6035 C   0  0  0  0  0  0  0  0  0  0  0  0
   67.8147   45.8421   52.6530 C   0  0  0  0  0  0  0  0  0  0  0  0
   67.9861   46.3426   53.9342 C   0  0  0  0  0  0  0  0  0  0  0  0
   68.7394   47.4960   54.1293 C   0  0  0  0  0  0  0  0  0  0  0  0
   72.2173   42.4094   60.4182 C   0  0  0  0  0  0  0  0  0  0  0  0
   72.4483   42.1989   61.7256 N   0  0  0  0  0  0  0  0  0  0  0  0
   71.6873   42.9927   62.4711 C   0  0  0  0  0  0  0  0  0  0  0  0
   70.9487   43.7341   61.6397 N   0  0  0  0  0  0  0  0  0  0  0  0
   71.2491   43.4005   60.3631 C   0  0  0  0  0  0  0  0  0  0  0  0
   73.9166   40.7887   59.8113 C   0  0  0  0  0  0  0  0  0  0  0  0
   72.8542   41.7326   59.2882 C   0  0  0  0  0  0  0  0  0  0  0  0
   73.5446   42.6875   58.3382 C   0  0  0  0  0  0  0  0  0  0  0  0
   71.8618   40.8708   58.5089 C   0  0  0  0  0  0  0  0  0  0  0  0
 30 31  1  0
 31 32  1  0
 31 33  1  0
 31 25  1  0
 25 26  1  0
 25 29  2  0
 26 27  1  0
 27 28  2  0
 28 29  1  0
 29  1  1  0
  1  2  2  0
  2  3  1  0
  2  9  1  0
  3  4  1  0
  4  5  2  0
  4  6  1  0
  6  7  2  0
  6  8  1  0
  7 11  1  0
 11 12  2  0
 11 16  1  0
 12 13  1  0
 13 14  2  0
 14 15  1  0
 15 17  1  0
 15 16  2  0
 17 18  1  6
 17 19  1  0
 19 20  2  0
 19 24  1  0
 20 21  1  0
 21 22  2  0
 22 23  1  0
 23 24  2  0
  8  9  1  0
  9 10  2  0
M  CHG  1  28   1
M  END
>  <minimizedAffinity>  (78) 
-9.35419

$$$$
data/200k_reference_output/data/smiles/50658.pdb
     RDKit          3D

 33 36  0  0  0  0  0  0  0  0999 V2000
   65.4759   39.7316   60.9071 C   0  0  0  0  0  0  0  0  0  0  0  0
   66.3103   40.2297   60.0067 C   0  0  0  0  0  0  0  0  0  0  0  0
   66.9883   39.3770   59.2171 N   0  0  0  0  0  0  0  0  0  0  0  0
   67.8406   39.8664   58.2953 C   0  0  0  0  0  0  0  0  0  0  0  0
   68.4885   39.0980   57.5441 O   0  0  0  0  0  0  0  0  0  0  0  0
   68.0504   41.2321   58.1266 C   0  0  0  0  0  0  0  0  0  0  0  0
   68.8881   41.7087   57.2207 C   0  0  0  0  0  0  0  0  0  0  0  0
   67.3718   42.0846   58.9170 N   0  0  0  0  0  0  0  0  0  0  0  0
   66.5176   41.5826   59.8385 C   0  0  0  0  0  0  0  0  0  0  0  0
   65.8851   42.3770   60.5748 O   0  0  0  0  0  0  0  0  0  0  0  0
   69.1252   43.1371   57.0239 C   0  0  0  0  0  0  0  0  0  0  0  0
   70.0759   43.8357   57.7413 C   0  0  0  0  0  0  0  0  0  0  0  0
   70.3191   45.1788   57.5759 C   0  0  0  0  0  0  0  0  0  0  0  0
   69.5555   45.8603   56.6290 C   0  0  0  0  0  0  0  0  0  0  0  0
   68.5968   45.1998   55.8930 C   0  0  0  0  0  0  0  0  0  0  0  0
   68.3903   43.8555   56.0935 C   0  0  0  0  0  0  0  0  0  0  0  0
   67.8570   45.9347   54.9536 O   0  0  0  0  0  0  0  0  0  0  0  0
   68.4884   46.7108   53.9916 C   0  0  0  0  0  0  0  0  0  0  0  0
   68.5926   46.2440   52.6889 C   0  0  0  0  0  0  0  0  0  0  0  0
   69.2114   46.9814   51.6999 C   0  0  0  0  0  0  0  0  0  0  0  0
   69.7492   48.2191   51.9901 C   0  0  0  0  0  0  0  0  0  0  0  0
   70.3648   48.9620   51.0259 F   0  0  0  0  0  0  0  0  0  0  0  0
   69.6487   48.6870   53.2819 C   0  0  0  0  0  0  0  0  0  0  0  0
   69.0240   47.9466   54.2842 C   0  0  0  0  0  0  0  0  0  0  0  0
   66.0079   37.5237   61.9634 C   0  0  0  0  0  0  0  0  0  0  0  0
   65.5766   36.2574   61.8112 N   0  0  0  0  0  0  0  0  0  0  0  0
   64.6356   36.2338   60.8463 C   0  0  0  0  0  0  0  0  0  0  0  0
   64.4541   37.4791   60.3726 N   0  0  0  0  0  0  0  0  0  0  0  0
   65.2878   38.2721   61.0490 C   0  0  0  0  0  0  0  0  0  0  0  0
   68.3725   38.2481   62.2372 C   0  0  0  0  0  0  0  0  0  0  0  0
   67.0404   38.0101   62.9160 C   0  0  0  0  0  0  0  0  0  0  0  0
   66.5843   39.2732   63.6276 C   0  0  0  0  0  0  0  0  0  0  0  0
   67.2538   36.9501   63.9769 C   0  0  0  0  0  0  0  0  0  0  0  0
 30 31  1  0
 31 32  1  0
 31 33  1  0
 31 25  1  0
 25 26  1  0
 25 29  2  0
 26 27  1  0
 27 28  2  0
 28 29  1  0
 29  1  1  0
  1  2  2  0
  2  3  1  0
  2  9  1  0
  3  4  1  0
  4  5  2  0
  4  6  1  0
  6  7  2  0
  6  8  1  0
  7 11  1  0
 11 12  2  0
 11 16  1  0
 12 13  1  0
 13 14  2  0
 14 15  1  0
 15 17  1  0
 15 16  2  0
 17 18  1  0
 18 19  2  0
 18 24  1  0
 19 20  1  0
 20 21  2  0
 21 22  1  0
 21 23  1  0
 23 24  2  0
  8  9  1  0
  9 10  2  0
M  CHG  1  28   1
M  END
>  <minimizedAffinity>  (79) 
-9.35111

$$$$
data/reference_output_2/data/smiles/179306.pdb
     RDKit          3D

 31 35  0  0  0  0  0  0  0  0999 V2000
   71.4040   44.6432   57.6597 N   0  0  0  0  0  0  0  0  0  0  0  0
   70.7441   45.7084   58.3305 C   0  0  0  0  0  0  0  0  0  0  0  0
   69.7818   45.3617   59.0965 O   0  0  0  0  0  0  0  0  0  0  0  0
   67.5344   40.9382   56.0793 C   0  0  0  0  0  0  0  0  0  0  0  0
   68.0297   40.8111   57.5000 C   0  0  1  0  0  0  0  0  0  0  0  0
   68.2947   39.4029   57.8917 C   0  0  0  0  0  0  0  0  0  0  0  0
   67.5305   38.4190   57.8493 O   0  0  0  0  0  0  0  0  0  0  0  0
   69.6359   39.3422   58.3508 N   0  0  0  0  0  0  0  0  0  0  0  0
   70.5061   38.2714   58.8752 C   0  0  0  0  0  0  0  0  0  0  0  0
   71.9551   38.6260   58.5568 C   0  0  0  0  0  0  0  0  0  0  0  0
   72.3640   39.9647   59.1157 C   0  0  0  0  0  0  0  0  0  0  0  0
   71.4642   41.0046   58.5623 C   0  0  0  0  0  0  0  0  0  0  0  0
   71.8606   42.3398   58.3708 C   0  0  0  0  0  0  0  0  0  0  0  0
   70.9953   43.2791   57.8644 C   0  0  0  0  0  0  0  0  0  0  0  0
   69.7149   42.8673   57.5474 C   0  0  0  0  0  0  0  0  0  0  0  0
   69.2997   41.5456   57.7290 C   0  0  0  0  0  0  0  0  0  0  0  0
   70.1867   40.6444   58.2325 C   0  0  0  0  0  0  0  0  0  0  0  0
   71.0899   47.1102   58.2010 C   0  0  0  0  0  0  0  0  0  0  0  0
   72.0552   47.5973   58.8340 O   0  0  0  0  0  0  0  0  0  0  0  0
   70.3499   48.0000   57.3498 N   0  0  0  0  0  0  0  0  0  0  0  0
   70.6521   49.3808   57.2094 C   0  0  0  0  0  0  0  0  0  0  0  0
   69.9241   50.0464   56.1106 C   0  0  0  0  0  0  0  0  0  0  0  0
   70.0540   49.4762   54.7682 C   0  0  0  0  0  0  0  0  0  0  0  0
   70.8951   50.0410   53.8062 C   0  0  0  0  0  0  0  0  0  0  0  0
   70.7491   49.3305   52.6725 N   0  0  0  0  0  0  0  0  0  0  0  0
   69.8601   48.3427   52.8646 C   0  0  0  0  0  0  0  0  0  0  0  0
   69.4193   47.3715   51.9958 C   0  0  0  0  0  0  0  0  0  0  0  0
   68.4969   46.4270   52.4390 C   0  0  0  0  0  0  0  0  0  0  0  0
   68.0495   46.4967   53.7462 C   0  0  0  0  0  0  0  0  0  0  0  0
   68.5133   47.4745   54.5648 C   0  0  0  0  0  0  0  0  0  0  0  0
   69.4234   48.4331   54.1815 C   0  0  0  0  0  0  0  0  0  0  0  0
  5  4  1  6
  5  6  1  0
  5 16  1  0
  6  7  2  0
  6  8  1  0
  8  9  1  0
  8 17  1  0
  9 10  1  0
 10 11  1  0
 11 12  1  0
 12 13  1  0
 12 17  2  0
 13 14  2  0
 14  1  1  0
 14 15  1  0
  1  2  1  0
  2  3  2  0
  2 18  1  0
 18 19  2  0
 18 20  1  0
 20 21  1  0
 21 22  1  0
 22 23  1  0
 23 24  2  0
 23 31  1  0
 24 25  1  0
 25 26  1  0
 26 27  1  0
 26 31  2  0
 27 28  2  0
 28 29  1  0
 29 30  2  0
 30 31  1  0
 15 16  2  0
 16 17  1  0
M  END
>  <minimizedAffinity>  (80) 
-9.34638

$$$$
data/reference_output_2/data/smiles/158600.pdb
     RDKit          3D

 30 33  0  0  0  0  0  0  0  0999 V2000
   68.8228   43.1117   56.7459 C   0  0  0  0  0  0  0  0  0  0  0  0
   67.6950   42.3983   56.3998 C   0  0  0  0  0  0  0  0  0  0  0  0
   67.4709   41.1283   56.8771 C   0  0  0  0  0  0  0  0  0  0  0  0
   68.3872   40.5403   57.7237 C   0  0  0  0  0  0  0  0  0  0  0  0
   69.5197   41.2366   58.0811 C   0  0  0  0  0  0  0  0  0  0  0  0
   69.7219   42.5070   57.5900 C   0  0  0  0  0  0  0  0  0  0  0  0
   70.2853   40.3624   58.9741 C   0  0  0  0  0  0  0  0  0  0  0  0
   71.3835   40.6646   59.5005 O   0  0  0  0  0  0  0  0  0  0  0  0
   69.6255   39.1238   59.1685 N   0  0  0  0  0  0  0  0  0  0  0  0
   68.4331   39.2206   58.3913 C   0  0  0  0  0  0  0  0  0  0  0  0
   67.5538   38.3471   58.2744 O   0  0  0  0  0  0  0  0  0  0  0  0
   68.2473   45.0458   55.1862 N   0  0  0  0  0  0  0  0  0  0  0  0
   69.0347   44.4785   56.2145 C   0  0  0  0  0  0  0  0  0  0  0  0
   69.9678   45.1979   56.6933 O   0  0  0  0  0  0  0  0  0  0  0  0
   69.2488   47.9768   53.1448 C   0  0  0  0  0  0  0  0  0  0  0  0
   69.0412   48.9944   54.0760 C   0  0  0  0  0  0  0  0  0  0  0  0
   68.5802   48.7093   55.3443 C   0  0  0  0  0  0  0  0  0  0  0  0
   68.3398   47.4015   55.6490 C   0  0  0  0  0  0  0  0  0  0  0  0
   68.5380   46.3812   54.7440 C   0  0  0  0  0  0  0  0  0  0  0  0
   68.9905   46.6723   53.5002 C   0  0  0  0  0  0  0  0  0  0  0  0
   70.1109   47.4639   51.0210 O   0  0  0  0  0  0  0  0  0  0  0  0
   69.7350   48.3436   51.8251 C   0  0  0  0  0  0  0  0  0  0  0  0
   69.7889   49.6634   51.4424 O   0  0  0  0  0  0  0  0  0  0  0  0
   70.0456   37.9886   59.9750 C   0  0  0  0  0  0  0  0  0  0  0  0
   70.8964   37.0445   59.2030 C   0  0  0  0  0  0  0  0  0  0  0  0
   71.6399   37.4983   58.1397 C   0  0  0  0  0  0  0  0  0  0  0  0
   72.4369   36.6403   57.4085 C   0  0  0  0  0  0  0  0  0  0  0  0
   72.4726   35.3097   57.7691 C   0  0  0  0  0  0  0  0  0  0  0  0
   71.7454   34.8657   58.8098 N   0  0  0  0  0  0  0  0  0  0  0  0
   70.9646   35.7155   59.5235 C   0  0  0  0  0  0  0  0  0  0  0  0
 21 22  2  0
 22 23  1  0
 22 15  1  0
 15 16  2  0
 15 20  1  0
 16 17  1  0
 17 18  2  0
 18 19  1  0
 19 12  1  0
 19 20  2  0
 12 13  1  0
 13 14  2  0
 13  1  1  0
  1  2  2  0
  1  6  1  0
  2  3  1  0
  3  4  2  0
  4  5  1  0
  4 10  1  0
  5  6  2  0
  5  7  1  0
  7  8  2  0
  7  9  1  0
  9 24  1  0
  9 10  1  0
 24 25  1  0
 25 26  2  0
 25 30  1  0
 26 27  1  0
 27 28  2  0
 28 29  1  0
 29 30  2  0
 10 11  2  0
M  END
>  <minimizedAffinity>  (81) 
-9.34480

$$$$
data/reference_output_2/data/smiles/165512.pdb
     RDKit          3D

 29 32  0  0  0  0  0  0  0  0999 V2000
   70.2506   45.5317   57.5189 C   0  0  0  0  0  0  0  0  0  0  0  0
   71.5310   45.7749   57.9737 C   0  0  0  0  0  0  0  0  0  0  0  0
   72.3538   44.7357   58.3892 C   0  0  0  0  0  0  0  0  0  0  0  0
   71.8720   43.4384   58.3408 C   0  0  0  0  0  0  0  0  0  0  0  0
   70.5935   43.1576   57.8892 C   0  0  0  0  0  0  0  0  0  0  0  0
   69.8176   44.2226   57.4904 C   0  0  0  0  0  0  0  0  0  0  0  0
   70.1276   41.7726   57.8560 C   0  0  0  0  0  0  0  0  0  0  0  0
   68.9618   41.5291   57.4443 O   0  0  0  0  0  0  0  0  0  0  0  0
   70.9556   40.6490   58.2809 C   0  0  0  0  0  0  0  0  0  0  0  0
   70.5129   39.3420   58.2485 C   0  0  0  0  0  0  0  0  0  0  0  0
   71.2984   38.2776   58.6517 C   0  0  0  0  0  0  0  0  0  0  0  0
   72.5878   38.5614   59.1065 C   0  0  0  0  0  0  0  0  0  0  0  0
   73.0162   39.8736   59.1328 C   0  0  0  0  0  0  0  0  0  0  0  0
   72.2326   40.9358   58.7308 C   0  0  0  0  0  0  0  0  0  0  0  0
   72.7159   42.3082   58.7724 C   0  0  0  0  0  0  0  0  0  0  0  0
   73.8666   42.5671   59.1766 O   0  0  0  0  0  0  0  0  0  0  0  0
   69.1969   46.8517   56.9889 S   0  0  0  0  0  0  0  0  0  0  0  0
   68.5571   47.4749   58.1649 O   0  0  0  0  0  0  0  0  0  0  0  0
   70.0505   47.9241   56.3286 O   0  0  0  0  0  0  0  0  0  0  0  0
   68.1138   46.1970   55.8382 N   0  0  0  0  0  0  0  0  0  0  0  0
   69.3246   47.6788   52.6379 C   0  0  0  0  0  0  0  0  0  0  0  0
   68.6589   46.8413   51.7458 C   0  0  0  0  0  0  0  0  0  0  0  0
   67.8421   45.8264   52.1891 C   0  0  0  0  0  0  0  0  0  0  0  0
   67.6702   45.6233   53.5480 C   0  0  0  0  0  0  0  0  0  0  0  0
   68.3160   46.4354   54.4570 C   0  0  0  0  0  0  0  0  0  0  0  0
   69.1277   47.4439   53.9656 C   0  0  0  0  0  0  0  0  0  0  0  0
   71.2721   48.9898   52.6922 O   0  0  0  0  0  0  0  0  0  0  0  0
   70.1808   48.7418   52.1250 C   0  0  0  0  0  0  0  0  0  0  0  0
   69.8412   49.5042   51.0225 O   0  0  0  0  0  0  0  0  0  0  0  0
 27 28  2  0
 28 29  1  0
 28 21  1  0
 21 22  2  0
 21 26  1  0
 22 23  1  0
 23 24  2  0
 24 25  1  0
 25 20  1  0
 25 26  2  0
 20 17  1  0
 17 18  2  0
 17 19  2  0
 17  1  1  0
  1  2  2  0
  1  6  1  0
  2  3  1  0
  3  4  2  0
  4  5  1  0
  4 15  1  0
  5  6  2  0
  5  7  1  0
  7  8  2  0
  7  9  1  0
  9 10  2  0
  9 14  1  0
 10 11  1  0
 11 12  2  0
 12 13  1  0
 13 14  2  0
 14 15  1  0
 15 16  2  0
M  END
>  <minimizedAffinity>  (82) 
-9.34010

$$$$
data/200k_reference_output/data/smiles/75342.pdb
     RDKit          3D

 30 33  0  0  0  0  0  0  0  0999 V2000
   69.3730   43.0061   57.3813 C   0  0  0  0  0  0  0  0  0  0  0  0
   68.7054   43.1166   56.2717 O   0  0  0  0  0  0  0  0  0  0  0  0
   69.8116   44.2063   57.9014 N   0  0  0  0  0  0  0  0  0  0  0  0
   67.3233   38.8373   59.0171 C   0  0  0  0  0  0  0  0  0  0  0  0
   68.5041   39.6172   58.6604 N   0  0  0  0  0  0  0  0  0  0  0  0
   68.4420   40.8642   58.2218 C   0  0  0  0  0  0  0  0  0  0  0  0
   67.3033   41.4076   58.1037 O   0  0  0  0  0  0  0  0  0  0  0  0
   69.5365   41.6539   57.8700 C   0  0  0  0  0  0  0  0  0  0  0  0
   70.7499   41.0293   58.0118 C   0  0  0  0  0  0  0  0  0  0  0  0
   71.9293   41.6941   57.6968 O   0  0  0  0  0  0  0  0  0  0  0  0
   70.8346   39.7226   58.4701 C   0  0  0  0  0  0  0  0  0  0  0  0
   72.0560   39.0999   58.6087 C   0  0  0  0  0  0  0  0  0  0  0  0
   72.1332   37.7990   59.0630 C   0  0  0  0  0  0  0  0  0  0  0  0
   70.9728   37.1041   59.3855 C   0  0  0  0  0  0  0  0  0  0  0  0
   69.7682   37.7044   59.2537 C   0  0  0  0  0  0  0  0  0  0  0  0
   69.7038   39.0103   58.7969 C   0  0  0  0  0  0  0  0  0  0  0  0
   69.6271   45.4835   57.3703 N   0  0  0  0  0  0  0  0  0  0  0  0
   70.1798   46.6085   58.1040 C   0  0  0  0  0  0  0  0  0  0  0  0
   70.7595   46.3161   59.1521 O   0  0  0  0  0  0  0  0  0  0  0  0
   69.9936   47.9238   57.5404 C   0  0  0  0  0  0  0  0  0  0  0  0
   68.9184   48.2330   56.5972 C   0  0  0  0  0  0  0  0  0  0  0  0
   69.1551   48.2412   55.1670 C   0  0  0  0  0  0  0  0  0  0  0  0
   69.8779   49.1969   54.4560 C   0  0  0  0  0  0  0  0  0  0  0  0
   69.8356   48.8973   53.1466 N   0  0  0  0  0  0  0  0  0  0  0  0
   69.1190   47.7880   52.9571 C   0  0  0  0  0  0  0  0  0  0  0  0
   68.8205   47.0909   51.8097 C   0  0  0  0  0  0  0  0  0  0  0  0
   68.0658   45.9305   51.9265 C   0  0  0  0  0  0  0  0  0  0  0  0
   67.6103   45.4566   53.1274 C   0  0  0  0  0  0  0  0  0  0  0  0
   67.9365   46.1933   54.2451 C   0  0  0  0  0  0  0  0  0  0  0  0
   68.6871   47.3606   54.1896 C   0  0  0  0  0  0  0  0  0  0  0  0
  4  5  1  0
  5  6  1  0
  5 16  1  0
  6  7  2  0
  6  8  1  0
  8  1  1  0
  8  9  2  0
  1  2  2  0
  1  3  1  0
  3 17  1  0
 17 18  1  0
 18 19  2  0
 18 20  1  0
 20 21  1  0
 21 22  1  0
 22 23  2  0
 22 30  1  0
 23 24  1  0
 24 25  1  0
 25 26  1  0
 25 30  2  0
 26 27  2  0
 27 28  1  0
 28 29  2  0
 29 30  1  0
  9 10  1  0
  9 11  1  0
 11 12  1  0
 11 16  2  0
 12 13  2  0
 13 14  1  0
 14 15  2  0
 15 16  1  0
M  END
>  <minimizedAffinity>  (83) 
-9.33709

$$$$
data/reference_output_2/data/smiles/179845.pdb
     RDKit          3D

 33 36  0  0  0  0  0  0  0  0999 V2000
   70.7552   44.2889   58.9889 C   0  0  0  0  0  0  0  0  0  0  0  0
   70.7328   45.5997   58.8089 C   0  0  0  0  0  0  0  0  0  0  0  0
   71.3962   46.3814   59.6824 N   0  0  0  0  0  0  0  0  0  0  0  0
   71.3659   47.7117   59.4995 C   0  0  0  0  0  0  0  0  0  0  0  0
   71.9799   48.4604   60.3075 O   0  0  0  0  0  0  0  0  0  0  0  0
   70.6838   48.3174   58.4529 C   0  0  0  0  0  0  0  0  0  0  0  0
   70.6940   49.6525   58.3344 C   0  0  0  0  0  0  0  0  0  0  0  0
   70.0226   47.5405   57.5792 N   0  0  0  0  0  0  0  0  0  0  0  0
   70.0532   46.2085   57.7637 C   0  0  0  0  0  0  0  0  0  0  0  0
   69.4499   45.4529   56.9705 O   0  0  0  0  0  0  0  0  0  0  0  0
   70.0040   50.3208   57.2709 C   0  0  0  0  0  0  0  0  0  0  0  0
   69.2265   51.4310   57.5082 C   0  0  0  0  0  0  0  0  0  0  0  0
   68.5683   52.0485   56.4606 C   0  0  0  0  0  0  0  0  0  0  0  0
   68.6968   51.5386   55.1606 C   0  0  0  0  0  0  0  0  0  0  0  0
   69.4658   50.4355   54.9009 C   0  0  0  0  0  0  0  0  0  0  0  0
   70.1085   49.8494   55.9865 C   0  0  0  0  0  0  0  0  0  0  0  0
   69.6634   49.8666   53.5857 C   0  0  0  0  0  0  0  0  0  0  0  0
   70.3208   50.5595   52.7345 O   0  0  0  0  0  0  0  0  0  0  0  0
   69.1441   48.5566   53.2246 C   0  0  0  0  0  0  0  0  0  0  0  0
   68.4943   47.7981   54.2048 C   0  0  0  0  0  0  0  0  0  0  0  0
   68.0005   46.5371   53.9188 C   0  0  0  0  0  0  0  0  0  0  0  0
   68.1509   46.0228   52.6472 C   0  0  0  0  0  0  0  0  0  0  0  0
   67.6687   44.7720   52.3360 F   0  0  0  0  0  0  0  0  0  0  0  0
   68.7856   46.7405   51.6580 C   0  0  0  0  0  0  0  0  0  0  0  0
   69.2683   47.9972   51.9775 C   0  0  0  0  0  0  0  0  0  0  0  0
   72.7926   43.2537   60.0561 C   0  0  0  0  0  0  0  0  0  0  0  0
   73.1182   42.8250   61.3057 N   0  0  0  0  0  0  0  0  0  0  0  0
   72.0635   43.0277   62.1077 C   0  0  0  0  0  0  0  0  0  0  0  0
   71.0872   43.5725   61.3828 N   0  0  0  0  0  0  0  0  0  0  0  0
   71.5054   43.7184   60.1420 C   0  0  0  0  0  0  0  0  0  0  0  0
   74.4180   41.8908   58.7648 C   0  0  0  0  0  0  0  0  0  0  0  0
   73.7037   43.1963   58.8523 C   0  0  0  0  0  0  0  0  0  0  0  0
   74.5982   44.4083   58.7604 C   0  0  0  0  0  0  0  0  0  0  0  0
 31 32  1  0
 32 33  1  0
 32 26  1  0
 26 27  1  0
 26 30  2  0
 27 28  1  0
 28 29  2  0
 29 30  1  0
 30  1  1  0
  1  2  2  0
  2  3  1  0
  2  9  1  0
  3  4  1  0
  4  5  2  0
  4  6  1  0
  6  7  2  0
  6  8  1  0
  7 11  1  0
 11 12  2  0
 11 16  1  0
 12 13  1  0
 13 14  2  0
 14 15  1  0
 15 17  1  0
 15 16  2  0
 17 18  2  0
 17 19  1  0
 19 20  2  0
 19 25  1  0
 20 21  1  0
 21 22  2  0
 22 23  1  0
 22 24  1  0
 24 25  2  0
  8  9  1  0
  9 10  2  0
M  CHG  1  29   1
M  END
>  <minimizedAffinity>  (84) 
-9.33689

$$$$
data/200k_reference_output/data/smiles/16642.pdb
     RDKit          3D

 25 26  0  0  0  0  0  0  0  0999 V2000
   69.9993   49.0852   52.4735 S   0  0  0  0  0  0  0  0  0  0  0  0
   70.6467   48.6806   51.1763 O   0  0  0  0  0  0  0  0  0  0  0  0
   68.8937   50.0792   52.1752 O   0  0  0  0  0  0  0  0  0  0  0  0
   69.2624   47.7013   53.2616 C   0  0  0  0  0  0  0  0  0  0  0  0
   69.2879   47.4542   54.5949 C   0  0  0  0  0  0  0  0  0  0  0  0
   69.9430   48.2846   55.4121 F   0  0  0  0  0  0  0  0  0  0  0  0
   68.6294   46.3143   55.0635 C   0  0  0  0  0  0  0  0  0  0  0  0
   68.6618   46.0796   56.3952 F   0  0  0  0  0  0  0  0  0  0  0  0
   67.9704   45.4562   54.2116 C   0  0  0  0  0  0  0  0  0  0  0  0
   67.3458   44.3668   54.6821 F   0  0  0  0  0  0  0  0  0  0  0  0
   67.9435   45.7020   52.8592 C   0  0  0  0  0  0  0  0  0  0  0  0
   67.3009   44.8705   51.9982 F   0  0  0  0  0  0  0  0  0  0  0  0
   68.5922   46.8257   52.4068 C   0  0  0  0  0  0  0  0  0  0  0  0
   68.5459   47.0416   51.0511 F   0  0  0  0  0  0  0  0  0  0  0  0
   71.1315   49.7563   53.5689 N   0  0  0  0  0  0  0  0  0  0  0  0
   71.7863   51.5465   55.0759 C   0  0  0  0  0  0  0  0  0  0  0  0
   71.5305   52.6732   55.8084 C   0  0  0  0  0  0  0  0  0  0  0  0
   70.2726   53.2527   55.7941 C   0  0  0  0  0  0  0  0  0  0  0  0
   69.2953   52.6664   55.0291 C   0  0  0  0  0  0  0  0  0  0  0  0
   69.5808   51.5229   54.2945 C   0  0  0  0  0  0  0  0  0  0  0  0
   70.8195   50.9248   54.2877 C   0  0  0  0  0  0  0  0  0  0  0  0
   73.9340   50.3616   53.5617 N   0  0  0  0  0  0  0  0  0  0  0  0
   73.3755   50.8339   55.1096 S   0  0  0  0  0  0  0  0  0  0  0  0
   73.4301   49.6474   56.0242 O   0  0  0  0  0  0  0  0  0  0  0  0
   74.3483   51.8505   55.6765 O   0  0  0  0  0  0  0  0  0  0  0  0
 22 23  1  0
 23 24  2  0
 23 25  2  0
 23 16  1  0
 16 17  2  0
 16 21  1  0
 17 18  1  0
 18 19  2  0
 19 20  1  0
 20 21  2  0
 21 15  1  0
 15  1  1  0
  1  2  2  0
  1  3  2  0
  1  4  1  0
  4  5  2  0
  4 13  1  0
  5  6  1  0
  5  7  1  0
  7  8  1  0
  7  9  2  0
  9 10  1  0
  9 11  1  0
 11 12  1  0
 11 13  2  0
 13 14  1  0
M  END
>  <minimizedAffinity>  (85) 
-9.31579

$$$$
data/reference_output_2/data/smiles/152204.pdb
     RDKit          3D

 31 33  0  0  0  0  0  0  0  0999 V2000
   67.7730   45.4588   52.5951 C   0  0  0  0  0  0  0  0  0  0  0  0
   68.5461   46.7039   52.9252 C   0  0  0  0  0  0  0  0  0  0  0  0
   68.9961   47.5456   51.9353 C   0  0  0  0  0  0  0  0  0  0  0  0
   69.7160   48.6993   52.2669 C   0  0  0  0  0  0  0  0  0  0  0  0
   69.9714   48.9880   53.5889 C   0  0  0  0  0  0  0  0  0  0  0  0
   69.5157   48.1385   54.5475 C   0  0  0  0  0  0  0  0  0  0  0  0
   68.8114   47.0103   54.2312 C   0  0  0  0  0  0  0  0  0  0  0  0
   70.8388   50.4191   54.0725 S   0  0  0  0  0  0  0  0  0  0  0  0
   72.3095   50.0798   53.9340 O   0  0  0  0  0  0  0  0  0  0  0  0
   70.5976   51.5198   53.0650 O   0  0  0  0  0  0  0  0  0  0  0  0
   70.5292   50.9610   55.6486 N   0  0  0  0  0  0  0  0  0  0  0  0
   69.3567   50.7708   56.4136 C   0  0  0  0  0  0  0  0  0  0  0  0
   68.2551   51.5770   56.2427 C   0  0  0  0  0  0  0  0  0  0  0  0
   67.0850   51.3952   56.9761 C   0  0  0  0  0  0  0  0  0  0  0  0
   66.9977   50.3861   57.9078 C   0  0  0  0  0  0  0  0  0  0  0  0
   68.0936   49.5793   58.0809 C   0  0  0  0  0  0  0  0  0  0  0  0
   69.2519   49.7555   57.3581 C   0  0  0  0  0  0  0  0  0  0  0  0
   70.3097   48.9148   57.5856 F   0  0  0  0  0  0  0  0  0  0  0  0
   68.3233   46.0980   55.2903 C   0  0  0  0  0  0  0  0  0  0  0  0
   67.6979   46.6250   56.2350 O   0  0  0  0  0  0  0  0  0  0  0  0
   68.5170   44.7019   55.2976 N   0  0  0  0  0  0  0  0  0  0  0  0
   68.0433   43.8623   56.3177 N   0  0  0  0  0  0  0  0  0  0  0  0
   68.9137   43.0266   57.0645 C   0  0  0  0  0  0  0  0  0  0  0  0
   70.1455   43.1103   56.7242 O   0  0  0  0  0  0  0  0  0  0  0  0
   68.5051   42.1413   58.1238 C   0  0  0  0  0  0  0  0  0  0  0  0
   67.9449   40.9039   57.9374 C   0  0  0  0  0  0  0  0  0  0  0  0
   67.5524   40.0862   58.9939 C   0  0  0  0  0  0  0  0  0  0  0  0
   67.7289   40.5248   60.2957 C   0  0  0  0  0  0  0  0  0  0  0  0
   68.2899   41.7648   60.5142 C   0  0  0  0  0  0  0  0  0  0  0  0
   68.6678   42.5504   59.4332 C   0  0  0  0  0  0  0  0  0  0  0  0
   69.2309   43.7950   59.7267 O   0  0  0  0  0  0  0  0  0  0  0  0
  1  2  1  0
  2  3  2  0
  2  7  1  0
  3  4  1  0
  4  5  2  0
  5  8  1  0
  5  6  1  0
  8  9  2  0
  8 10  2  0
  8 11  1  0
 11 12  1  0
 12 13  2  0
 12 17  1  0
 13 14  1  0
 14 15  2  0
 15 16  1  0
 16 17  2  0
 17 18  1  0
  6  7  2  0
  7 19  1  0
 19 20  2  0
 19 21  1  0
 21 22  1  0
 22 23  1  0
 23 24  2  0
 23 25  1  0
 25 26  2  0
 25 30  1  0
 26 27  1  0
 27 28  2  0
 28 29  1  0
 29 30  2  0
 30 31  1  0
M  END
>  <minimizedAffinity>  (86) 
-9.31542

$$$$
data/200k_reference_output/data/smiles/8261.pdb
     RDKit          3D

 29 31  0  0  0  0  0  0  0  0999 V2000
   70.4968   41.9952   58.6174 C   0  0  0  0  0  0  0  0  0  0  0  0
   69.3819   41.0349   58.2906 C   0  0  2  0  0  0  0  0  0  0  0  0
   68.3263   41.1158   59.1646 O   0  0  0  0  0  0  0  0  0  0  0  0
   67.5703   39.9731   58.9251 C   0  0  0  0  0  0  0  0  0  0  0  0
   68.5165   38.9264   58.4062 C   0  0  0  0  0  0  0  0  0  0  0  0
   69.7685   39.6507   58.3765 N   0  0  0  0  0  0  0  0  0  0  0  0
   71.0610   39.0804   58.4269 C   0  0  0  0  0  0  0  0  0  0  0  0
   72.0492   39.8538   58.3847 O   0  0  0  0  0  0  0  0  0  0  0  0
   71.3375   37.6570   58.5250 C   0  0  0  0  0  0  0  0  0  0  0  0
   72.1337   37.0453   57.5816 C   0  0  0  0  0  0  0  0  0  0  0  0
   72.4214   35.6778   57.6440 C   0  0  0  0  0  0  0  0  0  0  0  0
   71.9102   34.8982   58.6577 C   0  0  0  0  0  0  0  0  0  0  0  0
   72.2514   33.1746   58.7698 Cl  0  0  0  0  0  0  0  0  0  0  0  0
   71.1066   35.5114   59.6094 C   0  0  0  0  0  0  0  0  0  0  0  0
   70.8284   36.8694   59.5383 C   0  0  0  0  0  0  0  0  0  0  0  0
   70.4723   44.4838   58.6187 C   0  0  0  0  0  0  0  0  0  0  0  0
   70.7168   44.5199   59.8693 O   0  0  0  0  0  0  0  0  0  0  0  0
   70.3551   43.2549   57.9548 N   0  0  0  0  0  0  0  0  0  0  0  0
   71.1425   46.6704   58.1941 O   0  0  0  0  0  0  0  0  0  0  0  0
   70.3244   45.7520   57.9188 C   0  0  0  0  0  0  0  0  0  0  0  0
   69.3152   45.9773   56.9619 N   0  0  0  0  0  0  0  0  0  0  0  0
   69.1466   47.2317   56.2517 C   0  0  0  0  0  0  0  0  0  0  0  0
   68.8361   47.0130   54.8290 C   0  0  0  0  0  0  0  0  0  0  0  0
   68.0823   45.9317   54.4152 C   0  0  0  0  0  0  0  0  0  0  0  0
   67.8227   45.7763   53.0710 C   0  0  0  0  0  0  0  0  0  0  0  0
   68.2732   46.6399   52.0994 C   0  0  0  0  0  0  0  0  0  0  0  0
   67.9860   46.4339   50.7851 F   0  0  0  0  0  0  0  0  0  0  0  0
   69.0242   47.7171   52.5191 C   0  0  0  0  0  0  0  0  0  0  0  0
   69.2983   47.8974   53.8561 C   0  0  0  0  0  0  0  0  0  0  0  0
 19 20  2  0
 20 21  1  0
 20 16  1  0
 21 22  1  0
 22 23  1  0
 23 24  2  0
 23 29  1  0
 24 25  1  0
 25 26  2  0
 26 27  1  0
 26 28  1  0
 28 29  2  0
 16 17  2  0
 16 18  1  0
 18  1  1  0
  2  1  1  1
  2  3  1  0
  2  6  1  0
  3  4  1  0
  4  5  1  0
  5  6  1  0
  6  7  1  0
  7  8  2  0
  7  9  1  0
  9 10  2  0
  9 15  1  0
 10 11  1  0
 11 12  2  0
 12 13  1  0
 12 14  1  0
 14 15  2  0
M  END
>  <minimizedAffinity>  (87) 
-9.31268

$$$$
data/200k_reference_output/data/smiles/25227.pdb
     RDKit          3D

 31 34  0  0  0  0  0  0  0  0999 V2000
   69.3501   43.2937   57.2643 C   0  0  0  0  0  0  0  0  0  0  0  0
   68.7264   43.4789   56.1561 O   0  0  0  0  0  0  0  0  0  0  0  0
   69.7370   44.4776   57.9039 N   0  0  0  0  0  0  0  0  0  0  0  0
   68.8303   39.6859   58.2678 N   0  0  0  0  0  0  0  0  0  0  0  0
   68.6122   40.9740   57.8656 C   0  0  0  0  0  0  0  0  0  0  0  0
   67.4020   41.2924   57.6332 O   0  0  0  0  0  0  0  0  0  0  0  0
   69.5667   41.9214   57.6975 C   0  0  0  0  0  0  0  0  0  0  0  0
   70.8861   41.5120   57.9700 C   0  0  0  0  0  0  0  0  0  0  0  0
   71.9259   42.4120   57.8266 O   0  0  0  0  0  0  0  0  0  0  0  0
   71.1115   40.2238   58.3726 C   0  0  0  0  0  0  0  0  0  0  0  0
   72.4199   39.8085   58.6424 C   0  0  0  0  0  0  0  0  0  0  0  0
   72.6878   38.5188   59.0467 C   0  0  0  0  0  0  0  0  0  0  0  0
   71.6588   37.6046   59.1962 C   0  0  0  0  0  0  0  0  0  0  0  0
   70.3630   38.0079   58.9322 C   0  0  0  0  0  0  0  0  0  0  0  0
   70.0923   39.3094   58.5229 C   0  0  0  0  0  0  0  0  0  0  0  0
   67.0537   38.8388   59.7614 C   0  0  0  0  0  0  0  0  0  0  0  0
   67.6941   38.7848   58.4031 C   0  0  0  0  0  0  0  0  0  0  0  0
   69.4763   45.7554   57.3956 N   0  0  0  0  0  0  0  0  0  0  0  0
   70.2776   46.8408   57.9152 C   0  0  0  0  0  0  0  0  0  0  0  0
   71.1162   46.5180   58.7636 O   0  0  0  0  0  0  0  0  0  0  0  0
   70.0947   48.2037   57.4573 C   0  0  0  0  0  0  0  0  0  0  0  0
   68.8861   48.4512   56.6474 C   0  0  0  0  0  0  0  0  0  0  0  0
   69.1302   48.4225   55.2030 C   0  0  0  0  0  0  0  0  0  0  0  0
   69.9676   49.3531   54.5406 C   0  0  0  0  0  0  0  0  0  0  0  0
   70.0689   49.0263   53.2540 N   0  0  0  0  0  0  0  0  0  0  0  0
   69.3378   47.9144   53.0003 C   0  0  0  0  0  0  0  0  0  0  0  0
   69.1023   47.2161   51.8328 C   0  0  0  0  0  0  0  0  0  0  0  0
   68.2671   46.1250   51.8592 C   0  0  0  0  0  0  0  0  0  0  0  0
   67.6844   45.7548   53.0600 C   0  0  0  0  0  0  0  0  0  0  0  0
   67.9254   46.4523   54.2094 C   0  0  0  0  0  0  0  0  0  0  0  0
   68.7543   47.5427   54.2199 C   0  0  0  0  0  0  0  0  0  0  0  0
 16 17  1  0
 17  4  1  0
  4  5  1  0
  4 15  1  0
  5  6  2  0
  5  7  1  0
  7  1  1  0
  7  8  2  0
  1  2  2  0
  1  3  1  0
  3 18  1  0
 18 19  1  0
 19 20  2  0
 19 21  1  0
 21 22  1  0
 22 23  1  0
 23 24  2  0
 23 31  1  0
 24 25  1  0
 25 26  1  0
 26 27  1  0
 26 31  2  0
 27 28  2  0
 28 29  1  0
 29 30  2  0
 30 31  1  0
  8  9  1  0
  8 10  1  0
 10 11  1  0
 10 15  2  0
 11 12  2  0
 12 13  1  0
 13 14  2  0
 14 15  1  0
M  END
>  <minimizedAffinity>  (88) 
-9.31164

$$$$
data/200k_reference_output/data/smiles/27813.pdb
     RDKit          3D

 33 37  0  0  0  0  0  0  0  0999 V2000
   71.6467   38.8825   59.0446 C   0  0  0  0  0  0  0  0  0  0  0  0
   72.5873   39.4900   59.6510 O   0  0  0  0  0  0  0  0  0  0  0  0
   70.3601   39.4431   58.9852 N   0  0  0  0  0  0  0  0  0  0  0  0
   69.3124   38.7498   58.3097 C   0  0  0  0  0  0  0  0  0  0  0  0
   68.2204   39.7445   57.9512 C   0  0  0  0  0  0  0  0  0  0  0  0
   68.6935   41.0613   57.6731 N   0  0  0  0  0  0  0  0  0  0  0  0
   68.0340   41.8684   56.7226 C   0  0  0  0  0  0  0  0  0  0  0  0
   66.9747   41.4217   56.1568 O   0  0  0  0  0  0  0  0  0  0  0  0
   69.8471   41.6444   58.3786 C   0  0  0  0  0  0  0  0  0  0  0  0
   70.0971   40.7101   59.5946 C   0  0  0  0  0  0  0  0  0  0  0  0
   71.4693   36.1006   60.4318 C   0  0  0  0  0  0  0  0  0  0  0  0
   71.9013   36.3746   59.0494 C   0  0  0  0  0  0  0  0  0  0  0  0
   71.9817   37.6037   58.4324 C   0  0  0  0  0  0  0  0  0  0  0  0
   72.4152   37.3755   57.2045 O   0  0  0  0  0  0  0  0  0  0  0  0
   72.6129   36.0932   57.0055 C   0  0  0  0  0  0  0  0  0  0  0  0
   73.0579   35.3506   55.9076 C   0  0  0  0  0  0  0  0  0  0  0  0
   73.1859   33.9752   55.9474 C   0  0  0  0  0  0  0  0  0  0  0  0
   72.8693   33.2877   57.1029 C   0  0  0  0  0  0  0  0  0  0  0  0
   72.4295   34.0138   58.1904 C   0  0  0  0  0  0  0  0  0  0  0  0
   72.3021   35.3845   58.1505 C   0  0  0  0  0  0  0  0  0  0  0  0
   68.5026   43.2176   56.3301 C   0  0  0  0  0  0  0  0  0  0  0  0
   67.6801   43.8326   55.2193 C   0  0  0  0  0  0  0  0  0  0  0  0
   68.1443   45.2284   54.9368 C   0  0  0  0  0  0  0  0  0  0  0  0
   68.4638   45.6497   53.6985 N   0  0  0  0  0  0  0  0  0  0  0  0
   68.8775   46.9210   53.4683 C   0  0  0  0  0  0  0  0  0  0  0  0
   69.2152   47.3809   52.2094 C   0  0  0  0  0  0  0  0  0  0  0  0
   69.6400   48.6674   51.9505 C   0  0  0  0  0  0  0  0  0  0  0  0
   69.7272   49.5271   53.0128 C   0  0  0  0  0  0  0  0  0  0  0  0
   69.3985   49.1080   54.2920 C   0  0  0  0  0  0  0  0  0  0  0  0
   68.9780   47.8139   54.5138 C   0  0  0  0  0  0  0  0  0  0  0  0
   68.6476   47.3769   55.7832 C   0  0  0  0  0  0  0  0  0  0  0  0
   68.7262   48.1620   56.7626 O   0  0  0  0  0  0  0  0  0  0  0  0
   68.2378   46.0888   55.9613 N   0  0  0  0  0  0  0  0  0  0  0  0
 11 12  1  0
 12 13  2  0
 12 20  1  0
 13  1  1  0
 13 14  1  0
  1  2  2  0
  1  3  1  0
  3  4  1  0
  3 10  1  0
  4  5  1  0
  5  6  1  0
  6  7  1  0
  6  9  1  0
  7  8  2  0
  7 21  1  0
 21 22  1  0
 22 23  1  0
 23 24  2  0
 23 33  1  0
 24 25  1  0
 25 26  2  0
 25 30  1  0
 26 27  1  0
 27 28  2  0
 28 29  1  0
 29 30  2  0
 30 31  1  0
 31 32  2  0
 31 33  1  0
  9 10  1  0
 14 15  1  0
 15 16  1  0
 15 20  2  0
 16 17  2  0
 17 18  1  0
 18 19  2  0
 19 20  1  0
M  END
>  <minimizedAffinity>  (89) 
-9.31045

$$$$
data/200k_reference_output/data/smiles/19174.pdb
     RDKit          3D

 28 30  0  0  0  0  0  0  0  0999 V2000
   68.3448   45.9243   54.0441 C   0  0  0  0  0  0  0  0  0  0  0  0
   67.8071   45.5292   52.8395 C   0  0  0  0  0  0  0  0  0  0  0  0
   67.9650   46.3041   51.6961 C   0  0  0  0  0  0  0  0  0  0  0  0
   68.6805   47.4974   51.7860 C   0  0  0  0  0  0  0  0  0  0  0  0
   69.2267   47.9116   52.9801 C   0  0  0  0  0  0  0  0  0  0  0  0
   69.0435   47.1174   54.0693 C   0  0  0  0  0  0  0  0  0  0  0  0
   67.7392   43.8056   55.3241 N   0  0  0  0  0  0  0  0  0  0  0  0
   68.2015   45.1430   55.2636 C   0  0  0  0  0  0  0  0  0  0  0  0
   68.5062   45.6670   56.3732 O   0  0  0  0  0  0  0  0  0  0  0  0
   67.5026   41.6848   56.5877 C   0  0  0  0  0  0  0  0  0  0  0  0
   67.5102   41.0934   55.4773 O   0  0  0  0  0  0  0  0  0  0  0  0
   67.6207   43.0965   56.5315 N   0  0  0  0  0  0  0  0  0  0  0  0
   67.1881   38.4556   61.3229 C   0  0  0  0  0  0  0  0  0  0  0  0
   67.2448   39.3230   60.1149 C   0  0  0  0  0  0  0  0  0  0  0  0
   67.9552   38.8957   59.0038 C   0  0  0  0  0  0  0  0  0  0  0  0
   68.0071   39.6975   57.8891 C   0  0  0  0  0  0  0  0  0  0  0  0
   67.3785   40.9236   57.8205 C   0  0  0  0  0  0  0  0  0  0  0  0
   66.6763   41.3524   58.9096 C   0  0  0  0  0  0  0  0  0  0  0  0
   66.6288   40.5432   60.0258 C   0  0  0  0  0  0  0  0  0  0  0  0
   70.1073   49.3833   53.0849 S   0  0  0  0  0  0  0  0  0  0  0  0
   69.7465   50.3482   51.9663 O   0  0  0  0  0  0  0  0  0  0  0  0
   71.6064   49.1516   52.9671 O   0  0  0  0  0  0  0  0  0  0  0  0
   69.8598   50.2372   54.5612 N   0  0  0  0  0  0  0  0  0  0  0  0
   68.7736   51.1413   54.5406 C   0  0  0  0  0  0  0  0  0  0  0  0
   69.0870   52.5683   54.8095 C   0  0  0  0  0  0  0  0  0  0  0  0
   70.1917   52.7966   55.5925 O   0  0  0  0  0  0  0  0  0  0  0  0
   71.2830   52.2075   54.9570 C   0  0  0  0  0  0  0  0  0  0  0  0
   71.1135   50.7299   55.0021 C   0  0  0  0  0  0  0  0  0  0  0  0
 13 14  1  0
 14 15  2  0
 14 19  1  0
 15 16  1  0
 16 17  2  0
 17 10  1  0
 17 18  1  0
 10 11  2  0
 10 12  1  0
 12  7  1  0
  7  8  1  0
  8  9  2  0
  8  1  1  0
  1  2  2  0
  1  6  1  0
  2  3  1  0
  3  4  2  0
  4  5  1  0
  5 20  1  0
  5  6  2  0
 20 21  2  0
 20 22  2  0
 20 23  1  0
 23 24  1  0
 23 28  1  0
 24 25  1  0
 25 26  1  0
 26 27  1  0
 27 28  1  0
 18 19  2  0
M  END
>  <minimizedAffinity>  (90) 
-9.30948

$$$$
data/reference_output_2/data/smiles/126764.pdb
     RDKit          3D

 31 34  0  0  0  0  0  0  0  0999 V2000
   71.6579   47.1435   58.9457 C   0  0  0  0  0  0  0  0  0  0  0  0
   70.8178   47.9640   58.1776 C   0  0  0  0  0  0  0  0  0  0  0  0
   69.9489   47.4552   57.2593 C   0  0  0  0  0  0  0  0  0  0  0  0
   69.9402   46.0519   57.1229 C   0  0  0  0  0  0  0  0  0  0  0  0
   70.7567   45.2555   57.8689 C   0  0  0  0  0  0  0  0  0  0  0  0
   70.7079   43.9128   57.6962 F   0  0  0  0  0  0  0  0  0  0  0  0
   71.6144   45.7916   58.7779 C   0  0  0  0  0  0  0  0  0  0  0  0
   72.4266   44.9744   59.5198 F   0  0  0  0  0  0  0  0  0  0  0  0
   77.3136   50.1137   56.7187 C   0  0  0  0  0  0  0  0  0  0  0  0
   77.1146   49.9126   58.1790 C   0  0  0  0  0  0  0  0  0  0  0  0
   77.6456   50.6833   59.0218 O   0  0  0  0  0  0  0  0  0  0  0  0
   76.3195   48.8443   58.6719 N   0  0  0  0  0  0  0  0  0  0  0  0
   76.1472   48.6842   60.1000 C   0  0  0  0  0  0  0  0  0  0  0  0
   74.6817   48.8779   60.4060 C   0  0  0  0  0  0  0  0  0  0  0  0
   73.8138   48.2433   59.4345 N   0  0  0  0  0  0  0  0  0  0  0  0
   72.5495   47.7804   59.8792 C   0  0  0  0  0  0  0  0  0  0  0  0
   72.2004   47.9269   61.0985 O   0  0  0  0  0  0  0  0  0  0  0  0
   74.1661   48.0692   58.0508 C   0  0  0  0  0  0  0  0  0  0  0  0
   75.6468   47.8758   57.8317 C   0  0  0  0  0  0  0  0  0  0  0  0
   69.0388   48.2785   56.4223 C   0  0  0  0  0  0  0  0  0  0  0  0
   69.3738   48.3324   55.0103 C   0  0  0  0  0  0  0  0  0  0  0  0
   70.3222   49.2404   54.6195 N   0  0  0  0  0  0  0  0  0  0  0  0
   70.7523   49.3553   53.3868 N   0  0  0  0  0  0  0  0  0  0  0  0
   70.2789   48.5640   52.3805 C   0  0  0  0  0  0  0  0  0  0  0  0
   70.7196   48.7047   51.2027 O   0  0  0  0  0  0  0  0  0  0  0  0
   69.3301   47.6367   52.6961 C   0  0  0  0  0  0  0  0  0  0  0  0
   68.7988   46.8183   51.7231 C   0  0  0  0  0  0  0  0  0  0  0  0
   67.8232   45.8851   52.0206 C   0  0  0  0  0  0  0  0  0  0  0  0
   67.4035   45.8081   53.3396 C   0  0  0  0  0  0  0  0  0  0  0  0
   67.9369   46.6266   54.3095 C   0  0  0  0  0  0  0  0  0  0  0  0
   68.8952   47.5365   53.9987 C   0  0  0  0  0  0  0  0  0  0  0  0
  9 10  1  0
 10 11  2  0
 10 12  1  0
 12 13  1  0
 12 19  1  0
 13 14  1  0
 14 15  1  0
 15 16  1  0
 15 18  1  0
 16 17  2  0
 16  1  1  0
  1  2  2  0
  1  7  1  0
  2  3  1  0
  3 20  1  0
  3  4  2  0
 20 21  1  0
 21 22  2  0
 21 31  1  0
 22 23  1  0
 23 24  1  0
 24 25  2  0
 24 26  1  0
 26 27  1  0
 26 31  2  0
 27 28  2  0
 28 29  1  0
 29 30  2  0
 30 31  1  0
  4  5  1  0
  5  6  1  0
  5  7  2  0
  7  8  1  0
 18 19  1  0
M  END
>  <minimizedAffinity>  (91) 
-9.29303

$$$$
data/200k_reference_output/data/smiles/83310.pdb
     RDKit          3D

 31 35  0  0  0  0  0  0  0  0999 V2000
   69.3395   47.5664   55.9930 N   0  0  0  0  0  0  0  0  0  0  0  0
   69.7265   48.5511   55.2039 N   0  0  0  0  0  0  0  0  0  0  0  0
   69.5061   48.5597   53.8512 C   0  0  0  0  0  0  0  0  0  0  0  0
   68.8481   47.4531   53.3747 C   0  0  0  0  0  0  0  0  0  0  0  0
   68.6043   47.3811   52.0279 C   0  0  0  0  0  0  0  0  0  0  0  0
   67.9512   46.2617   51.5514 C   0  0  0  0  0  0  0  0  0  0  0  0
   67.5360   45.2215   52.3541 C   0  0  0  0  0  0  0  0  0  0  0  0
   67.7851   45.3015   53.7057 C   0  0  0  0  0  0  0  0  0  0  0  0
   68.4351   46.4075   54.2064 C   0  0  0  0  0  0  0  0  0  0  0  0
   68.6918   46.4711   55.5585 C   0  0  0  0  0  0  0  0  0  0  0  0
   68.3419   45.5559   56.3531 O   0  0  0  0  0  0  0  0  0  0  0  0
   69.6048   47.6173   57.4363 C   0  0  0  0  0  0  0  0  0  0  0  0
   71.6049   48.9126   57.2640 O   0  0  0  0  0  0  0  0  0  0  0  0
   71.0545   47.8624   57.6855 C   0  0  0  0  0  0  0  0  0  0  0  0
   71.8397   46.9244   58.3965 N   0  0  0  0  0  0  0  0  0  0  0  0
   73.2416   47.1891   58.6220 C   0  0  0  0  0  0  0  0  0  0  0  0
   73.8782   46.0372   59.3704 C   0  0  0  0  0  0  0  0  0  0  0  0
   73.4723   44.7799   58.6911 C   0  0  0  0  0  0  0  0  0  0  0  0
   74.3975   43.8101   58.3149 C   0  0  0  0  0  0  0  0  0  0  0  0
   73.9843   42.6530   57.6856 C   0  0  0  0  0  0  0  0  0  0  0  0
   72.6330   42.5038   57.4505 C   0  0  0  0  0  0  0  0  0  0  0  0
   71.6962   43.4625   57.8196 C   0  0  0  0  0  0  0  0  0  0  0  0
   72.1298   44.5942   58.4386 C   0  0  0  0  0  0  0  0  0  0  0  0
   71.2207   45.7094   58.8888 C   0  0  0  0  0  0  0  0  0  0  0  0
   69.9393   49.7297   53.0878 C   0  0  0  0  0  0  0  0  0  0  0  0
   70.0506   50.9072   53.9450 C   0  0  0  0  0  0  0  0  0  0  0  0
   71.2063   51.4239   54.4516 C   0  0  0  0  0  0  0  0  0  0  0  0
   71.2129   52.5674   55.2537 C   0  0  0  0  0  0  0  0  0  0  0  0
   70.0440   53.1765   55.5379 N   0  0  0  0  0  0  0  0  0  0  0  0
   68.8766   52.7058   55.0633 C   0  0  0  0  0  0  0  0  0  0  0  0
   68.8678   51.5802   54.2724 C   0  0  0  0  0  0  0  0  0  0  0  0
 13 14  2  0
 14 12  1  0
 14 15  1  0
 12  1  1  0
  1  2  1  0
  1 10  1  0
  2  3  2  0
  3 25  1  0
  3  4  1  0
 25 26  1  0
 26 27  2  0
 26 31  1  0
 27 28  1  0
 28 29  2  0
 29 30  1  0
 30 31  2  0
  4  5  2  0
  4  9  1  0
  5  6  1  0
  6  7  2  0
  7  8  1  0
  8  9  2  0
  9 10  1  0
 10 11  2  0
 15 16  1  0
 15 24  1  0
 16 17  1  0
 17 18  1  0
 18 19  2  0
 18 23  1  0
 19 20  1  0
 20 21  2  0
 21 22  1  0
 22 23  2  0
 23 24  1  0
M  END
>  <minimizedAffinity>  (92) 
-9.28627

$$$$
data/reference_output_2/data/smiles/194443.pdb
     RDKit          3D

 30 34  0  0  0  0  0  0  0  0999 V2000
   72.2409   41.0834   58.1262 O   0  0  0  0  0  0  0  0  0  0  0  0
   70.9950   40.7805   58.1555 C   0  0  0  0  0  0  0  0  0  0  0  0
   70.7293   39.3991   58.3039 N   0  0  0  0  0  0  0  0  0  0  0  0
   70.0082   41.7892   58.0432 N   0  0  0  0  0  0  0  0  0  0  0  0
   70.3835   43.1605   57.8979 C   0  0  0  0  0  0  0  0  0  0  0  0
   69.5458   43.9812   57.0022 C   0  0  0  0  0  0  0  0  0  0  0  0
   68.1608   43.4760   56.7188 C   0  0  0  0  0  0  0  0  0  0  0  0
   68.0536   41.9735   56.7422 C   0  0  0  0  0  0  0  0  0  0  0  0
   68.6011   41.4833   58.0691 C   0  0  0  0  0  0  0  0  0  0  0  0
   71.7715   38.3956   58.4143 C   0  0  1  0  0  0  0  0  0  0  0  0
   72.1136   37.8407   59.7486 C   0  0  0  0  0  0  0  0  0  0  0  0
   71.3332   36.9700   58.8000 C   0  0  2  0  0  0  0  0  0  0  0  0
   72.0581   35.8533   58.1120 C   0  0  0  0  0  0  0  0  0  0  0  0
   72.7269   36.1058   56.9417 C   0  0  0  0  0  0  0  0  0  0  0  0
   73.4041   35.0854   56.2886 C   0  0  0  0  0  0  0  0  0  0  0  0
   73.4200   33.7918   56.8017 C   0  0  0  0  0  0  0  0  0  0  0  0
   72.7424   33.5477   57.9816 C   0  0  0  0  0  0  0  0  0  0  0  0
   72.0627   34.5770   58.6341 C   0  0  0  0  0  0  0  0  0  0  0  0
   67.8032   43.9099   55.4504 O   0  0  0  0  0  0  0  0  0  0  0  0
   68.1885   45.0893   54.8507 C   0  0  0  0  0  0  0  0  0  0  0  0
   68.1115   45.2049   53.4482 C   0  0  0  0  0  0  0  0  0  0  0  0
   68.4748   46.3434   52.7742 C   0  0  0  0  0  0  0  0  0  0  0  0
   68.9427   47.4561   53.4369 C   0  0  0  0  0  0  0  0  0  0  0  0
   69.0267   47.3650   54.8080 C   0  0  0  0  0  0  0  0  0  0  0  0
   68.6561   46.2029   55.4993 C   0  0  0  0  0  0  0  0  0  0  0  0
   69.3266   48.6631   52.7127 C   0  0  0  0  0  0  0  0  0  0  0  0
   69.4730   48.8100   51.3833 N   0  0  0  0  0  0  0  0  0  0  0  0
   69.8310   50.0570   51.1039 N   0  0  0  0  0  0  0  0  0  0  0  0
   69.9211   50.7282   52.2420 N   0  0  0  0  0  0  0  0  0  0  0  0
   69.6125   49.8777   53.2280 N   0  0  0  0  0  0  0  0  0  0  0  0
  1  2  2  0
  2  3  1  0
  2  4  1  0
 10  3  1  1
 10 11  1  0
 10 12  1  0
 11 12  1  0
 12 13  1  6
 13 14  2  0
 13 18  1  0
 14 15  1  0
 15 16  2  0
 16 17  1  0
 17 18  2  0
  4  5  1  0
  4  9  1  0
  5  6  1  0
  6  7  1  0
  7 19  1  0
  7  8  1  0
 19 20  1  0
 20 21  2  0
 20 25  1  0
 21 22  1  0
 22 23  2  0
 23 26  1  0
 23 24  1  0
 26 27  1  0
 26 30  2  0
 27 28  2  0
 28 29  1  0
 29 30  1  0
 24 25  2  0
  8  9  1  0
M  END
>  <minimizedAffinity>  (93) 
-9.27756

$$$$
data/200k_reference_output/data/smiles/39205.pdb
     RDKit          3D

 30 33  0  0  0  0  0  0  0  0999 V2000
   69.0668   39.1726   57.8213 O   0  0  0  0  0  0  0  0  0  0  0  0
   68.2583   39.9317   58.4239 C   0  0  0  0  0  0  0  0  0  0  0  0
   67.3384   39.4314   59.2704 N   0  0  0  0  0  0  0  0  0  0  0  0
   66.5137   40.3079   59.8731 C   0  0  0  0  0  0  0  0  0  0  0  0
   65.6029   39.8108   60.7112 C   0  0  0  0  0  0  0  0  0  0  0  0
   66.6250   41.6590   59.6193 C   0  0  0  0  0  0  0  0  0  0  0  0
   65.8305   42.4450   60.2068 O   0  0  0  0  0  0  0  0  0  0  0  0
   67.5520   42.1423   58.7687 N   0  0  0  0  0  0  0  0  0  0  0  0
   68.3903   41.2908   58.1507 C   0  0  0  0  0  0  0  0  0  0  0  0
   69.2955   41.7704   57.3200 C   0  0  0  0  0  0  0  0  0  0  0  0
   65.5251   38.3786   60.9456 C   0  0  0  0  0  0  0  0  0  0  0  0
   64.6995   37.5724   60.1921 C   0  0  0  0  0  0  0  0  0  0  0  0
   64.6095   36.2096   60.3966 C   0  0  0  0  0  0  0  0  0  0  0  0
   65.3770   35.6521   61.3918 C   0  0  0  0  0  0  0  0  0  0  0  0
   66.1982   36.4546   62.1416 C   0  0  0  0  0  0  0  0  0  0  0  0
   66.2502   37.7787   61.9023 N   0  0  0  0  0  0  0  0  0  0  0  0
   69.3544   43.2307   57.0985 C   0  0  0  0  0  0  0  0  0  0  0  0
   70.2956   43.8911   57.8573 C   0  0  0  0  0  0  0  0  0  0  0  0
   70.4238   45.2581   57.7196 C   0  0  0  0  0  0  0  0  0  0  0  0
   69.6095   45.9322   56.8262 C   0  0  0  0  0  0  0  0  0  0  0  0
   68.6653   45.2623   56.0658 C   0  0  0  0  0  0  0  0  0  0  0  0
   68.5719   43.9002   56.2367 C   0  0  0  0  0  0  0  0  0  0  0  0
   67.8521   45.9594   55.1704 O   0  0  0  0  0  0  0  0  0  0  0  0
   68.4808   46.6897   54.1774 C   0  0  0  0  0  0  0  0  0  0  0  0
   68.5320   46.2019   52.8718 C   0  0  0  0  0  0  0  0  0  0  0  0
   69.1540   46.9099   51.8591 C   0  0  0  0  0  0  0  0  0  0  0  0
   69.7469   48.1362   52.1278 C   0  0  0  0  0  0  0  0  0  0  0  0
   70.3693   48.8756   51.1834 F   0  0  0  0  0  0  0  0  0  0  0  0
   69.6856   48.6003   53.4220 C   0  0  0  0  0  0  0  0  0  0  0  0
   69.0696   47.9058   54.4420 C   0  0  0  0  0  0  0  0  0  0  0  0
  1  2  2  0
  2  3  1  0
  2  9  1  0
  3  4  1  0
  4  5  2  0
  4  6  1  0
  5 11  1  0
 11 12  2  0
 11 16  1  0
 12 13  1  0
 13 14  2  0
 14 15  1  0
 15 16  2  0
  6  7  2  0
  6  8  1  0
  8  9  1  0
  9 10  2  0
 10 17  1  0
 17 18  2  0
 17 22  1  0
 18 19  1  0
 19 20  2  0
 20 21  1  0
 21 23  1  0
 21 22  2  0
 23 24  1  0
 24 25  2  0
 24 30  1  0
 25 26  1  0
 26 27  2  0
 27 28  1  0
 27 29  1  0
 29 30  2  0
M  END
>  <minimizedAffinity>  (94) 
-9.27540

$$$$
data/200k_reference_output/data/smiles/40531.pdb
     RDKit          3D

 28 30  0  0  0  0  0  0  0  0999 V2000
   70.5871   44.0076   58.3397 O   0  0  0  0  0  0  0  0  0  0  0  0
   69.6330   43.9048   57.5010 C   0  0  0  0  0  0  0  0  0  0  0  0
   69.2174   45.1126   56.8949 N   0  0  0  0  0  0  0  0  0  0  0  0
   69.0742   42.5916   57.2510 C   0  0  0  0  0  0  0  0  0  0  0  0
   68.1029   42.3976   56.2894 C   0  0  0  0  0  0  0  0  0  0  0  0
   67.5574   41.1538   56.0365 C   0  0  0  0  0  0  0  0  0  0  0  0
   66.6091   41.0229   55.0814 F   0  0  0  0  0  0  0  0  0  0  0  0
   67.9793   40.0557   56.7538 C   0  0  0  0  0  0  0  0  0  0  0  0
   68.9487   40.2147   57.7224 C   0  0  0  0  0  0  0  0  0  0  0  0
   69.4709   41.4771   57.9474 C   0  0  0  0  0  0  0  0  0  0  0  0
   69.4260   39.0874   58.5057 C   0  0  0  0  0  0  0  0  0  0  0  0
   70.6664   38.5432   58.2828 C   0  0  0  0  0  0  0  0  0  0  0  0
   71.1199   37.4605   59.0379 C   0  0  0  0  0  0  0  0  0  0  0  0
   70.2995   36.9421   60.0178 C   0  0  0  0  0  0  0  0  0  0  0  0
   69.0765   37.5001   60.2168 C   0  0  0  0  0  0  0  0  0  0  0  0
   68.6624   38.5499   59.4689 N   0  0  0  0  0  0  0  0  0  0  0  0
   67.4089   39.0421   59.7492 O   0  0  0  0  0  0  0  0  0  0  0  0
   69.7750   46.3556   57.1576 N   0  0  0  0  0  0  0  0  0  0  0  0
   68.8333   47.5624   56.3770 S   0  0  0  0  0  0  0  0  0  0  0  0
   69.2259   48.9369   56.7583 O   0  0  0  0  0  0  0  0  0  0  0  0
   67.3883   47.3726   56.7860 O   0  0  0  0  0  0  0  0  0  0  0  0
   68.9019   47.3931   54.6270 C   0  0  0  0  0  0  0  0  0  0  0  0
   69.5310   48.3253   53.8261 C   0  0  0  0  0  0  0  0  0  0  0  0
   69.5822   48.1886   52.4562 C   0  0  0  0  0  0  0  0  0  0  0  0
   69.0038   47.1071   51.8250 C   0  0  0  0  0  0  0  0  0  0  0  0
   68.3712   46.1660   52.6100 C   0  0  0  0  0  0  0  0  0  0  0  0
   68.3240   46.3118   53.9927 C   0  0  0  0  0  0  0  0  0  0  0  0
   67.7028   45.3887   54.7681 F   0  0  0  0  0  0  0  0  0  0  0  0
  1  2  2  0
  2  3  1  0
  2  4  1  0
  3 18  1  0
 18 19  1  0
 19 20  2  0
 19 21  2  0
 19 22  1  0
 22 23  2  0
 22 27  1  0
 23 24  1  0
 24 25  2  0
 25 26  1  0
 26 27  2  0
 27 28  1  0
  4  5  2  0
  4 10  1  0
  5  6  1  0
  6  7  1  0
  6  8  2  0
  8  9  1  0
  9 11  1  0
  9 10  2  0
 11 12  2  0
 11 16  1  0
 12 13  1  0
 13 14  2  0
 14 15  1  0
 15 16  2  0
 16 17  1  0
M  CHG  2  16   1  17  -1
M  END
>  <minimizedAffinity>  (95) 
-9.27243

$$$$
data/200k_reference_output/data/smiles/25462.pdb
     RDKit          3D

 30 32  0  0  0  0  0  0  0  0999 V2000
   67.0970   40.6749   55.1613 O   0  0  0  0  0  0  0  0  0  0  0  0
   67.7556   40.7851   56.2370 C   0  0  0  0  0  0  0  0  0  0  0  0
   68.0052   39.6500   57.0632 N   0  0  0  0  0  0  0  0  0  0  0  0
   68.7603   39.8760   58.2604 C   0  0  0  0  0  0  0  0  0  0  0  0
   68.9583   38.8364   58.9657 O   0  0  0  0  0  0  0  0  0  0  0  0
   69.2444   41.1613   58.6215 N   0  0  0  0  0  0  0  0  0  0  0  0
   68.9989   42.3002   57.8029 C   0  0  0  0  0  0  0  0  0  0  0  0
   69.4116   43.4347   58.0998 O   0  0  0  0  0  0  0  0  0  0  0  0
   68.2372   42.1136   56.5801 C   0  0  0  0  0  0  0  0  0  0  0  0
   68.0025   43.1787   55.8059 C   0  0  0  0  0  0  0  0  0  0  0  0
   69.9981   41.3207   59.8408 C   0  0  0  0  0  0  0  0  0  0  0  0
   69.1308   41.5138   61.0242 C   0  0  0  0  0  0  0  0  0  0  0  0
   68.4913   42.7147   61.2974 C   0  0  0  0  0  0  0  0  0  0  0  0
   67.6810   42.9279   62.3830 C   0  0  0  0  0  0  0  0  0  0  0  0
   67.4925   41.8808   63.2551 C   0  0  0  0  0  0  0  0  0  0  0  0
   68.1001   40.6552   63.0436 C   0  0  0  0  0  0  0  0  0  0  0  0
   68.9004   40.4919   61.9456 C   0  0  0  0  0  0  0  0  0  0  0  0
   68.4769   44.4744   56.1474 N   0  0  0  0  0  0  0  0  0  0  0  0
   67.8408   45.6319   55.7057 N   0  0  0  0  0  0  0  0  0  0  0  0
   68.3301   46.3922   54.6135 C   0  0  0  0  0  0  0  0  0  0  0  0
   69.1362   47.5027   54.8581 C   0  0  0  0  0  0  0  0  0  0  0  0
   69.4116   47.7984   56.1507 F   0  0  0  0  0  0  0  0  0  0  0  0
   69.6400   48.2787   53.8333 C   0  0  0  0  0  0  0  0  0  0  0  0
   70.4188   49.3485   54.1278 F   0  0  0  0  0  0  0  0  0  0  0  0
   69.3195   47.9195   52.5418 C   0  0  0  0  0  0  0  0  0  0  0  0
   69.8187   48.6875   51.5350 F   0  0  0  0  0  0  0  0  0  0  0  0
   68.5270   46.8321   52.2341 C   0  0  0  0  0  0  0  0  0  0  0  0
   68.2125   46.4793   50.9661 F   0  0  0  0  0  0  0  0  0  0  0  0
   68.0450   46.0846   53.3008 C   0  0  0  0  0  0  0  0  0  0  0  0
   67.2520   44.9903   53.0550 F   0  0  0  0  0  0  0  0  0  0  0  0
  1  2  2  0
  2  3  1  0
  2  9  1  0
  3  4  1  0
  4  5  2  0
  4  6  1  0
  6 11  1  0
  6  7  1  0
 11 12  1  0
 12 13  2  0
 12 17  1  0
 13 14  1  0
 14 15  2  0
 15 16  1  0
 16 17  2  0
  7  8  2  0
  7  9  1  0
  9 10  2  0
 10 18  1  0
 18 19  1  0
 19 20  1  0
 20 21  2  0
 20 29  1  0
 21 22  1  0
 21 23  1  0
 23 24  1  0
 23 25  2  0
 25 26  1  0
 25 27  1  0
 27 28  1  0
 27 29  2  0
 29 30  1  0
M  END
>  <minimizedAffinity>  (96) 
-9.25872

$$$$
data/reference_output_2/data/smiles/168087.pdb
     RDKit          3D

 31 34  0  0  0  0  0  0  0  0999 V2000
   75.0843   46.1009   64.0144 C   0  0  0  0  0  0  0  0  0  0  0  0
   74.4055   46.5146   62.9408 C   0  0  0  0  0  0  0  0  0  0  0  0
   74.4330   47.8213   62.6321 N   0  0  0  0  0  0  0  0  0  0  0  0
   73.7448   48.2242   61.5480 C   0  0  0  0  0  0  0  0  0  0  0  0
   73.7559   49.4443   61.2378 O   0  0  0  0  0  0  0  0  0  0  0  0
   73.0159   47.3799   60.7404 C   0  0  0  0  0  0  0  0  0  0  0  0
   72.3458   47.8038   59.6774 C   0  0  0  0  0  0  0  0  0  0  0  0
   73.0042   46.0676   61.0740 N   0  0  0  0  0  0  0  0  0  0  0  0
   73.6852   45.6407   62.1542 C   0  0  0  0  0  0  0  0  0  0  0  0
   73.6673   44.4188   62.4541 O   0  0  0  0  0  0  0  0  0  0  0  0
   77.9849   47.1671   63.4598 C   0  0  0  0  0  0  0  0  0  0  0  0
   77.1177   47.4688   64.6286 C   0  0  0  0  0  0  0  0  0  0  0  0
   77.4918   48.2847   65.6532 N   0  0  0  0  0  0  0  0  0  0  0  0
   76.4605   48.3149   66.5131 C   0  0  0  0  0  0  0  0  0  0  0  0
   75.4791   47.5409   66.0316 N   0  0  0  0  0  0  0  0  0  0  0  0
   75.8495   46.9956   64.8607 C   0  0  0  0  0  0  0  0  0  0  0  0
   71.5840   46.8380   58.8549 C   0  0  0  0  0  0  0  0  0  0  0  0
   71.8615   45.5117   58.8265 C   0  0  0  0  0  0  0  0  0  0  0  0
   71.1057   44.6730   58.0331 C   0  0  0  0  0  0  0  0  0  0  0  0
   70.0618   45.1362   57.2572 C   0  0  0  0  0  0  0  0  0  0  0  0
   69.7726   46.4942   57.2818 C   0  0  0  0  0  0  0  0  0  0  0  0
   70.5349   47.3180   58.0777 C   0  0  0  0  0  0  0  0  0  0  0  0
   68.6842   47.0063   56.4932 C   0  0  0  0  0  0  0  0  0  0  0  0
   67.7300   47.5785   57.1127 O   0  0  0  0  0  0  0  0  0  0  0  0
   68.6207   46.9045   55.0507 C   0  0  0  0  0  0  0  0  0  0  0  0
   69.2082   47.9077   54.3002 C   0  0  0  0  0  0  0  0  0  0  0  0
   69.1458   47.8289   52.9245 C   0  0  0  0  0  0  0  0  0  0  0  0
   68.5148   46.7805   52.2935 C   0  0  0  0  0  0  0  0  0  0  0  0
   68.4640   46.7228   50.9421 F   0  0  0  0  0  0  0  0  0  0  0  0
   67.9443   45.8074   53.0672 C   0  0  0  0  0  0  0  0  0  0  0  0
   67.9833   45.8460   54.4473 C   0  0  0  0  0  0  0  0  0  0  0  0
 11 12  1  0
 12 13  1  0
 12 16  2  0
 13 14  1  0
 14 15  2  0
 15 16  1  0
 16  1  1  0
  1  2  2  0
  2  3  1  0
  2  9  1  0
  3  4  1  0
  4  5  2  0
  4  6  1  0
  6  7  2  0
  6  8  1  0
  7 17  1  0
 17 18  2  0
 17 22  1  0
 18 19  1  0
 19 20  2  0
 20 21  1  0
 21 23  1  0
 21 22  2  0
 23 24  2  0
 23 25  1  0
 25 26  2  0
 25 31  1  0
 26 27  1  0
 27 28  2  0
 28 29  1  0
 28 30  1  0
 30 31  2  0
  8  9  1  0
  9 10  2  0
M  CHG  1  15   1
M  END
>  <minimizedAffinity>  (97) 
-9.25475

$$$$
data/200k_reference_output/data/smiles/32476.pdb
     RDKit          3D

 31 34  0  0  0  0  0  0  0  0999 V2000
   72.5246   44.8623   60.4597 N   0  0  0  0  0  0  0  0  0  0  0  0
   72.7921   44.1326   59.2358 C   0  0  0  0  0  0  0  0  0  0  0  0
   72.0349   44.7844   58.1418 C   0  0  0  0  0  0  0  0  0  0  0  0
   71.0098   45.6142   58.8382 C   0  0  1  0  0  0  0  0  0  0  0  0
   69.9110   44.8661   59.2288 O   0  0  0  0  0  0  0  0  0  0  0  0
   71.7238   45.9760   60.1127 C   0  0  0  0  0  0  0  0  0  0  0  0
   71.6488   47.0425   60.7642 O   0  0  0  0  0  0  0  0  0  0  0  0
   74.1827   41.6120   67.2602 O   0  0  0  0  0  0  0  0  0  0  0  0
   73.6442   42.2250   66.2758 C   0  0  0  0  0  0  0  0  0  0  0  0
   72.2906   41.8593   65.8518 C   0  0  0  0  0  0  0  0  0  0  0  0
   72.0220   42.0039   64.4031 C   0  0  0  0  0  0  0  0  0  0  0  0
   72.7797   43.0674   63.7234 C   0  0  0  0  0  0  0  0  0  0  0  0
   72.3629   43.4902   62.4606 C   0  0  0  0  0  0  0  0  0  0  0  0
   73.0043   44.4774   61.7458 C   0  0  0  0  0  0  0  0  0  0  0  0
   74.1071   45.0561   62.3354 C   0  0  0  0  0  0  0  0  0  0  0  0
   74.5280   44.6468   63.5828 C   0  0  0  0  0  0  0  0  0  0  0  0
   73.8789   43.6437   64.3128 C   0  0  0  0  0  0  0  0  0  0  0  0
   74.3522   43.2528   65.5958 N   0  0  0  0  0  0  0  0  0  0  0  0
   70.6206   46.8205   58.0639 C   0  0  0  0  0  0  0  0  0  0  0  0
   71.3910   47.7524   57.8088 O   0  0  0  0  0  0  0  0  0  0  0  0
   69.2769   46.8822   57.5986 N   0  0  0  0  0  0  0  0  0  0  0  0
   68.7225   47.9694   56.8289 C   0  0  0  0  0  0  0  0  0  0  0  0
   68.7083   47.5680   55.3851 C   0  0  0  0  0  0  0  0  0  0  0  0
   69.3436   48.3824   54.4414 C   0  0  0  0  0  0  0  0  0  0  0  0
   69.3802   48.0730   53.1049 C   0  0  0  0  0  0  0  0  0  0  0  0
   70.0090   48.8839   52.1938 F   0  0  0  0  0  0  0  0  0  0  0  0
   68.7777   46.9212   52.6313 C   0  0  0  0  0  0  0  0  0  0  0  0
   68.7867   46.5730   51.3218 F   0  0  0  0  0  0  0  0  0  0  0  0
   68.1520   46.1200   53.5632 C   0  0  0  0  0  0  0  0  0  0  0  0
   67.5454   44.9710   53.1181 F   0  0  0  0  0  0  0  0  0  0  0  0
   68.1100   46.4240   54.9140 C   0  0  0  0  0  0  0  0  0  0  0  0
  8  9  2  0
  9 10  1  0
  9 18  1  0
 10 11  1  0
 11 12  1  0
 12 13  1  0
 12 17  2  0
 13 14  2  0
 14  1  1  0
 14 15  1  0
  1  2  1  0
  1  6  1  0
  2  3  1  0
  3  4  1  0
  4  5  1  1
  4 19  1  0
  4  6  1  0
 19 20  2  0
 19 21  1  0
 21 22  1  0
 22 23  1  0
 23 24  2  0
 23 31  1  0
 24 25  1  0
 25 26  1  0
 25 27  2  0
 27 28  1  0
 27 29  1  0
 29 30  1  0
 29 31  2  0
  6  7  2  0
 15 16  2  0
 16 17  1  0
 17 18  1  0
M  END
>  <minimizedAffinity>  (98) 
-9.25096

$$$$
data/reference_output_2/data/smiles/163251.pdb
     RDKit          3D

 28 31  0  0  0  0  0  0  0  0999 V2000
   69.3836   44.5707   57.1739 C   0  0  0  0  0  0  0  0  0  0  0  0
   68.4833   43.8817   56.3507 N   0  0  0  0  0  0  0  0  0  0  0  0
   68.4179   42.6073   56.7018 C   0  0  0  0  0  0  0  0  0  0  0  0
   67.7149   41.5129   56.2313 C   0  0  0  0  0  0  0  0  0  0  0  0
   67.8730   40.2701   56.8160 C   0  0  0  0  0  0  0  0  0  0  0  0
   68.7302   40.0985   57.8753 C   0  0  0  0  0  0  0  0  0  0  0  0
   69.4245   41.2297   58.3257 C   0  0  0  0  0  0  0  0  0  0  0  0
   69.2718   42.4636   57.7518 C   0  0  0  0  0  0  0  0  0  0  0  0
   69.8578   43.6860   58.0307 N   0  0  0  0  0  0  0  0  0  0  0  0
   70.9048   43.8959   59.3804 S   0  0  0  0  0  0  0  0  0  0  0  0
   71.1523   45.4152   59.4805 O   0  0  0  0  0  0  0  0  0  0  0  0
   70.4139   43.4827   60.6709 O   0  0  0  0  0  0  0  0  0  0  0  0
   72.5231   43.2484   59.0463 C   0  0  0  0  0  0  0  0  0  0  0  0
   73.3599   42.8179   60.0378 C   0  0  0  0  0  0  0  0  0  0  0  0
   74.6233   42.3203   59.7987 C   0  0  0  0  0  0  0  0  0  0  0  0
   75.0248   42.2726   58.4738 C   0  0  0  0  0  0  0  0  0  0  0  0
   74.2110   42.6967   57.4466 C   0  0  0  0  0  0  0  0  0  0  0  0
   72.9661   43.1818   57.7410 C   0  0  0  0  0  0  0  0  0  0  0  0
   69.5154   45.9348   56.9424 N   0  0  0  0  0  0  0  0  0  0  0  0
   67.3479   47.3729   56.5376 O   0  0  0  0  0  0  0  0  0  0  0  0
   68.8116   47.1462   56.0567 S   0  0  0  0  0  0  0  0  0  0  0  0
   69.4425   48.5023   56.3795 O   0  0  0  0  0  0  0  0  0  0  0  0
   68.6527   46.9530   54.3461 C   0  0  0  0  0  0  0  0  0  0  0  0
   69.2969   47.7730   53.4744 C   0  0  0  0  0  0  0  0  0  0  0  0
   69.1902   47.6420   52.1105 C   0  0  0  0  0  0  0  0  0  0  0  0
   68.3994   46.6396   51.6110 C   0  0  0  0  0  0  0  0  0  0  0  0
   67.7298   45.7882   52.4658 C   0  0  0  0  0  0  0  0  0  0  0  0
   67.8589   45.9471   53.8398 C   0  0  0  0  0  0  0  0  0  0  0  0
 20 21  2  0
 21 22  2  0
 21 19  1  0
 21 23  1  0
 19  1  1  0
  1  2  2  0
  1  9  1  0
  2  3  1  0
  3  4  2  0
  3  8  1  0
  4  5  1  0
  5  6  2  0
  6  7  1  0
  7  8  2  0
  8  9  1  0
  9 10  1  0
 10 11  2  0
 10 12  2  0
 10 13  1  0
 13 14  2  0
 13 18  1  0
 14 15  1  0
 15 16  2  0
 16 17  1  0
 17 18  2  0
 23 24  2  0
 23 28  1  0
 24 25  1  0
 25 26  2  0
 26 27  1  0
 27 28  2  0
M  END
>  <minimizedAffinity>  (99) 
-9.24685

$$$$
data/reference_output_2/data/smiles/183497.pdb
     RDKit          3D

 29 32  0  0  0  0  0  0  0  0999 V2000
   69.6065   43.3672   57.5733 C   0  0  0  0  0  0  0  0  0  0  0  0
   68.4443   42.8407   56.8214 C   0  0  0  0  0  0  0  0  0  0  0  0
   67.8294   41.6202   57.0255 C   0  0  0  0  0  0  0  0  0  0  0  0
   66.8030   41.6074   56.0745 C   0  0  0  0  0  0  0  0  0  0  0  0
   66.8547   42.7613   55.3859 N   0  0  0  0  0  0  0  0  0  0  0  0
   67.8441   43.5198   55.8271 N   0  0  0  0  0  0  0  0  0  0  0  0
   68.1705   44.8125   55.3057 C   0  0  0  0  0  0  0  0  0  0  0  0
   68.1048   45.0858   53.9899 N   0  0  0  0  0  0  0  0  0  0  0  0
   68.4140   46.3103   53.4944 C   0  0  0  0  0  0  0  0  0  0  0  0
   68.8120   47.3260   54.3391 C   0  0  0  0  0  0  0  0  0  0  0  0
   68.8797   47.0499   55.6797 C   0  0  0  0  0  0  0  0  0  0  0  0
   69.2422   47.9710   56.4577 O   0  0  0  0  0  0  0  0  0  0  0  0
   68.5581   45.8050   56.1237 N   0  0  0  0  0  0  0  0  0  0  0  0
   69.1339   48.6382   53.7211 C   0  0  0  0  0  0  0  0  0  0  0  0
   70.1120   48.3567   52.5995 C   0  0  0  0  0  0  0  0  0  0  0  0
   69.5911   47.3683   51.6116 C   0  0  0  0  0  0  0  0  0  0  0  0
   68.3486   46.6372   52.0468 C   0  0  0  0  0  0  0  0  0  0  0  0
   68.1534   40.5818   57.9923 C   0  0  0  0  0  0  0  0  0  0  0  0
   68.9823   39.6845   57.7205 O   0  0  0  0  0  0  0  0  0  0  0  0
   67.5305   40.5734   59.2605 N   0  0  0  0  0  0  0  0  0  0  0  0
   67.8420   39.5464   60.2352 C   0  0  0  0  0  0  0  0  0  0  0  0
   66.6327   39.3213   61.1379 C   0  0  0  0  0  0  0  0  0  0  0  0
   66.3269   40.5254   61.9737 C   0  0  0  0  0  0  0  0  0  0  0  0
   66.6661   41.7675   61.1945 C   0  0  0  0  0  0  0  0  0  0  0  0
   66.5569   41.5602   59.6851 C   0  0  0  0  0  0  0  0  0  0  0  0
   67.0604   40.4857   63.3060 C   0  0  0  0  0  0  0  0  0  0  0  0
   68.2355   41.1840   63.1576 F   0  0  0  0  0  0  0  0  0  0  0  0
   66.2238   41.1384   64.2203 F   0  0  0  0  0  0  0  0  0  0  0  0
   67.2698   39.1800   63.6588 F   0  0  0  0  0  0  0  0  0  0  0  0
  1  2  1  0
  2  3  2  0
  2  6  1  0
  3 18  1  0
  3  4  1  0
 18 19  2  0
 18 20  1  0
 20 21  1  0
 20 25  1  0
 21 22  1  0
 22 23  1  0
 23 26  1  0
 23 24  1  0
 26 27  1  0
 26 28  1  0
 26 29  1  0
 24 25  1  0
  4  5  2  0
  5  6  1  0
  6  7  1  0
  7  8  2  0
  7 13  1  0
  8  9  1  0
  9 10  2  0
  9 17  1  0
 10 11  1  0
 10 14  1  0
 11 12  2  0
 11 13  1  0
 14 15  1  0
 15 16  1  0
 16 17  1  0
M  END
>  <minimizedAffinity>  (100) 
-9.24672

$$$$
data/200k_reference_output/data/smiles/28557.pdb
     RDKit          3D

 33 36  0  0  0  0  0  0  0  0999 V2000
   70.7515   44.3944   59.0376 C   0  0  0  0  0  0  0  0  0  0  0  0
   70.7793   45.6953   58.7295 C   0  0  0  0  0  0  0  0  0  0  0  0
   71.4890   46.5459   59.4912 N   0  0  0  0  0  0  0  0  0  0  0  0
   71.5181   47.8579   59.1797 C   0  0  0  0  0  0  0  0  0  0  0  0
   72.1747   48.6740   59.8777 O   0  0  0  0  0  0  0  0  0  0  0  0
   70.8380   48.3802   58.0912 C   0  0  0  0  0  0  0  0  0  0  0  0
   70.8613   49.6645   57.7798 C   0  0  0  0  0  0  0  0  0  0  0  0
   70.1296   47.5217   57.3339 N   0  0  0  0  0  0  0  0  0  0  0  0
   70.0967   46.1993   57.6418 C   0  0  0  0  0  0  0  0  0  0  0  0
   69.4376   45.4199   56.9322 O   0  0  0  0  0  0  0  0  0  0  0  0
   70.1374   50.2144   56.6233 C   0  0  0  0  0  0  0  0  0  0  0  0
   69.4299   51.3660   56.6576 C   0  0  0  0  0  0  0  0  0  0  0  0
   68.7833   51.8018   55.5217 C   0  0  0  0  0  0  0  0  0  0  0  0
   68.8511   51.0662   54.3340 C   0  0  0  0  0  0  0  0  0  0  0  0
   69.5692   49.8893   54.2850 C   0  0  0  0  0  0  0  0  0  0  0  0
   70.1989   49.4861   55.4295 C   0  0  0  0  0  0  0  0  0  0  0  0
   69.6552   49.1242   53.0643 C   0  0  0  0  0  0  0  0  0  0  0  0
   70.4134   49.5940   52.1587 O   0  0  0  0  0  0  0  0  0  0  0  0
   68.9650   47.8854   52.7772 C   0  0  0  0  0  0  0  0  0  0  0  0
   68.5630   47.0379   53.8068 C   0  0  0  0  0  0  0  0  0  0  0  0
   67.9121   45.8551   53.5493 C   0  0  0  0  0  0  0  0  0  0  0  0
   67.6520   45.4998   52.2466 C   0  0  0  0  0  0  0  0  0  0  0  0
   68.0574   46.3523   51.2278 C   0  0  0  0  0  0  0  0  0  0  0  0
   68.6810   47.4802   51.5340 N   0  0  0  0  0  0  0  0  0  0  0  0
   72.6450   43.1741   60.1264 C   0  0  0  0  0  0  0  0  0  0  0  0
   72.9497   42.8166   61.3862 N   0  0  0  0  0  0  0  0  0  0  0  0
   71.9642   43.2485   62.1900 C   0  0  0  0  0  0  0  0  0  0  0  0
   71.0461   43.8742   61.4323 N   0  0  0  0  0  0  0  0  0  0  0  0
   71.4511   43.8365   60.1614 C   0  0  0  0  0  0  0  0  0  0  0  0
   74.5399   41.8619   59.2779 C   0  0  0  0  0  0  0  0  0  0  0  0
   73.4562   42.8981   58.9388 C   0  0  0  0  0  0  0  0  0  0  0  0
   72.7013   42.3554   57.7837 C   0  0  0  0  0  0  0  0  0  0  0  0
   74.2554   44.1559   58.5614 C   0  0  0  0  0  0  0  0  0  0  0  0
 30 31  1  0
 31 32  1  0
 31 33  1  0
 31 25  1  0
 25 26  1  0
 25 29  2  0
 26 27  1  0
 27 28  2  0
 28 29  1  0
 29  1  1  0
  1  2  2  0
  2  3  1  0
  2  9  1  0
  3  4  1  0
  4  5  2  0
  4  6  1  0
  6  7  2  0
  6  8  1  0
  7 11  1  0
 11 12  2  0
 11 16  1  0
 12 13  1  0
 13 14  2  0
 14 15  1  0
 15 17  1  0
 15 16  2  0
 17 18  2  0
 17 19  1  0
 19 20  2  0
 19 24  1  0
 20 21  1  0
 21 22  2  0
 22 23  1  0
 23 24  2  0
  8  9  1  0
  9 10  2  0
M  CHG  1  28   1
M  END
>  <minimizedAffinity>  (101) 
-9.24520

$$$$
data/reference_output_2/data/smiles/89049.pdb
     RDKit          3D

 30 34  0  0  0  0  0  0  0  0999 V2000
   70.7293   46.3196   58.4887 C   0  0  0  0  0  0  0  0  0  0  0  0
   69.8940   46.8999   57.5543 C   0  0  0  0  0  0  0  0  0  0  0  0
   69.8961   48.2301   57.2449 C   0  0  0  0  0  0  0  0  0  0  0  0
   70.8135   49.0188   57.9347 C   0  0  0  0  0  0  0  0  0  0  0  0
   71.6630   48.4775   58.8728 C   0  0  0  0  0  0  0  0  0  0  0  0
   71.6286   47.1063   59.1628 C   0  0  0  0  0  0  0  0  0  0  0  0
   72.4879   46.6490   60.0906 F   0  0  0  0  0  0  0  0  0  0  0  0
   69.6321   44.3564   59.2260 O   0  0  0  0  0  0  0  0  0  0  0  0
   70.6896   44.8990   58.7839 C   0  0  0  0  0  0  0  0  0  0  0  0
   71.8395   44.0826   58.5822 N   0  0  0  0  0  0  0  0  0  0  0  0
   73.1917   44.3233   58.1087 C   0  0  0  0  0  0  0  0  0  0  0  0
   73.6385   43.1514   58.9369 C   0  0  0  0  0  0  0  0  0  0  0  0
   73.9973   43.5661   60.3272 C   0  0  0  0  0  0  0  0  0  0  0  0
   75.4816   43.7658   60.4154 C   0  0  0  0  0  0  0  0  0  0  0  0
   75.9700   44.2007   59.1218 N   0  0  0  0  0  0  0  0  0  0  0  0
   75.9454   43.1237   58.1496 C   0  0  0  0  0  0  0  0  0  0  0  0
   74.6923   42.2997   58.3140 C   0  0  0  0  0  0  0  0  0  0  0  0
   72.2153   42.6915   58.7353 C   0  0  0  0  0  0  0  0  0  0  0  0
   68.9679   48.8046   56.2482 C   0  0  0  0  0  0  0  0  0  0  0  0
   69.3526   48.6506   54.8533 C   0  0  0  0  0  0  0  0  0  0  0  0
   70.2453   49.5641   54.3624 N   0  0  0  0  0  0  0  0  0  0  0  0
   70.6526   49.5645   53.1043 N   0  0  0  0  0  0  0  0  0  0  0  0
   70.2223   48.6651   52.2032 C   0  0  0  0  0  0  0  0  0  0  0  0
   70.6252   48.6828   50.9955 O   0  0  0  0  0  0  0  0  0  0  0  0
   69.3247   47.7143   52.6192 C   0  0  0  0  0  0  0  0  0  0  0  0
   68.8461   46.7509   51.7500 C   0  0  0  0  0  0  0  0  0  0  0  0
   67.9569   45.8037   52.2003 C   0  0  0  0  0  0  0  0  0  0  0  0
   67.5430   45.8134   53.5107 C   0  0  0  0  0  0  0  0  0  0  0  0
   68.0127   46.7727   54.3924 C   0  0  0  0  0  0  0  0  0  0  0  0
   68.9036   47.7267   53.9541 C   0  0  0  0  0  0  0  0  0  0  0  0
  8  9  2  0
  9  1  1  0
  9 10  1  0
  1  2  2  0
  1  6  1  0
  2  3  1  0
  3 19  1  0
  3  4  2  0
 19 20  1  0
 20 21  2  0
 20 30  1  0
 21 22  1  0
 22 23  1  0
 23 24  2  0
 23 25  1  0
 25 26  1  0
 25 30  2  0
 26 27  2  0
 27 28  1  0
 28 29  2  0
 29 30  1  0
  4  5  1  0
  5  6  2  0
  6  7  1  0
 10 11  1  0
 10 18  1  0
 11 12  1  0
 12 13  1  0
 12 17  1  0
 12 18  1  0
 13 14  1  0
 14 15  1  0
 15 16  1  0
 16 17  1  0
M  CHG  1  15   1
M  END
>  <minimizedAffinity>  (102) 
-9.24478

$$$$
data/200k_reference_output/data/smiles/62349.pdb
     RDKit          3D

 28 30  0  0  0  0  0  0  0  0999 V2000
   69.8692   51.0038   53.9250 N   0  0  0  0  0  0  0  0  0  0  0  0
   68.5649   51.1978   54.4651 C   0  0  0  0  0  0  0  0  0  0  0  0
   68.6435   52.6530   54.9255 C   0  0  0  0  0  0  0  0  0  0  0  0
   70.0670   52.7437   55.4489 C   0  0  0  0  0  0  0  0  0  0  0  0
   70.8275   51.5952   54.7686 C   0  0  2  0  0  0  0  0  0  0  0  0
   70.1944   49.6002   53.1072 S   0  0  0  0  0  0  0  0  0  0  0  0
   71.6912   49.3311   53.1762 O   0  0  0  0  0  0  0  0  0  0  0  0
   69.9162   49.8406   51.6192 O   0  0  0  0  0  0  0  0  0  0  0  0
   67.3526   45.3333   52.0648 C   0  0  0  0  0  0  0  0  0  0  0  0
   68.0556   46.2188   53.0129 C   0  0  0  0  0  0  0  0  0  0  0  0
   68.0509   45.9121   54.3560 C   0  0  0  0  0  0  0  0  0  0  0  0
   68.6817   46.6890   55.2989 C   0  0  0  0  0  0  0  0  0  0  0  0
   69.3538   47.8295   54.8908 C   0  0  0  0  0  0  0  0  0  0  0  0
   70.0209   48.6329   55.9409 C   0  0  0  0  0  0  0  0  0  0  0  0
   69.3685   48.1550   53.5292 C   0  0  0  0  0  0  0  0  0  0  0  0
   68.7270   47.3588   52.6006 C   0  0  0  0  0  0  0  0  0  0  0  0
   72.0148   52.2173   54.1187 C   0  0  0  0  0  0  0  0  0  0  0  0
   73.1610   51.3514   54.2738 N   0  0  0  0  0  0  0  0  0  0  0  0
   73.9979   51.2716   55.4121 C   0  0  0  0  0  0  0  0  0  0  0  0
   73.7432   52.0063   56.3894 O   0  0  0  0  0  0  0  0  0  0  0  0
   75.1391   50.3773   55.4977 C   0  0  0  0  0  0  0  0  0  0  0  0
   75.3451   49.5052   54.6274 O   0  0  0  0  0  0  0  0  0  0  0  0
   76.0322   50.4781   56.5644 N   0  0  0  0  0  0  0  0  0  0  0  0
   77.1898   49.6829   56.7933 C   0  0  0  0  0  0  0  0  0  0  0  0
   77.6323   49.9014   58.2254 C   0  0  0  0  0  0  0  0  0  0  0  0
   78.8861   50.7544   58.1747 C   0  0  0  0  0  0  0  0  0  0  0  0
   79.1123   51.0902   56.7195 C   0  0  0  0  0  0  0  0  0  0  0  0
   78.4007   49.9830   56.0156 C   0  0  0  0  0  0  0  0  0  0  0  0
  9 10  1  0
 10 11  2  0
 10 16  1  0
 11 12  1  0
 12 13  2  0
 13 14  1  0
 13 15  1  0
 15  6  1  0
 15 16  2  0
  6  7  2  0
  6  8  2  0
  6  1  1  0
  1  2  1  0
  1  5  1  0
  2  3  1  0
  3  4  1  0
  4  5  1  0
  5 17  1  6
 17 18  1  0
 18 19  1  0
 19 20  2  0
 19 21  1  0
 21 22  2  0
 21 23  1  0
 23 24  1  0
 24 25  1  0
 24 28  1  0
 25 26  1  0
 26 27  1  0
 27 28  1  0
M  END
>  <minimizedAffinity>  (103) 
-9.24318

$$$$
data/200k_reference_output/data/smiles/67283.pdb
     RDKit          3D

 31 34  0  0  0  0  0  0  0  0999 V2000
   71.8880   48.9005   58.3330 C   0  0  0  0  0  0  0  0  0  0  0  0
   73.1487   49.1949   58.2204 O   0  0  0  0  0  0  0  0  0  0  0  0
   70.9662   49.7929   57.7651 N   0  0  0  0  0  0  0  0  0  0  0  0
   71.5040   50.9844   57.0929 C   0  0  0  0  0  0  0  0  0  0  0  0
   70.9389   50.9483   55.6947 C   0  0  0  0  0  0  0  0  0  0  0  0
   70.1358   49.8068   55.3913 N   0  0  0  0  0  0  0  0  0  0  0  0
   70.2078   49.2535   54.0788 C   0  0  0  0  0  0  0  0  0  0  0  0
   70.9561   49.7458   53.1885 O   0  0  0  0  0  0  0  0  0  0  0  0
   69.2388   49.1563   56.3262 C   0  0  0  0  0  0  0  0  0  0  0  0
   69.5682   49.6760   57.7502 C   0  0  0  0  0  0  0  0  0  0  0  0
   69.4252   48.0895   53.6799 C   0  0  0  0  0  0  0  0  0  0  0  0
   69.0643   47.1506   54.6233 C   0  0  0  0  0  0  0  0  0  0  0  0
   68.3131   46.0277   54.2572 C   0  0  0  0  0  0  0  0  0  0  0  0
   67.9552   45.0951   55.1874 F   0  0  0  0  0  0  0  0  0  0  0  0
   67.9267   45.8460   52.9567 C   0  0  0  0  0  0  0  0  0  0  0  0
   67.2036   44.7629   52.6109 F   0  0  0  0  0  0  0  0  0  0  0  0
   68.2773   46.7727   52.0003 C   0  0  0  0  0  0  0  0  0  0  0  0
   67.8816   46.5680   50.7290 F   0  0  0  0  0  0  0  0  0  0  0  0
   69.0199   47.8770   52.3815 C   0  0  0  0  0  0  0  0  0  0  0  0
   69.3767   48.8023   51.4590 F   0  0  0  0  0  0  0  0  0  0  0  0
   71.6637   47.8123   60.3208 O   0  0  0  0  0  0  0  0  0  0  0  0
   71.6114   47.6816   59.0333 C   0  0  0  0  0  0  0  0  0  0  0  0
   71.2976   46.3573   58.5593 C   0  0  0  0  0  0  0  0  0  0  0  0
   69.9613   45.9040   58.3730 C   0  0  0  0  0  0  0  0  0  0  0  0
   69.9759   44.6084   58.0748 N   0  0  0  0  0  0  0  0  0  0  0  0
   71.2313   44.1349   58.0402 C   0  0  0  0  0  0  0  0  0  0  0  0
   71.7376   42.8719   57.7474 C   0  0  0  0  0  0  0  0  0  0  0  0
   73.0885   42.6429   57.7359 C   0  0  0  0  0  0  0  0  0  0  0  0
   73.8977   43.7112   58.0234 C   0  0  0  0  0  0  0  0  0  0  0  0
   73.3954   44.9778   58.3169 C   0  0  0  0  0  0  0  0  0  0  0  0
   72.0318   45.2233   58.3381 C   0  0  0  0  0  0  0  0  0  0  0  0
 21 22  2  0
 22  1  1  0
 22 23  1  0
  1  2  2  0
  1  3  1  0
  3  4  1  0
  3 10  1  0
  4  5  1  0
  5  6  1  0
  6  7  1  0
  6  9  1  0
  7  8  2  0
  7 11  1  0
 11 12  2  0
 11 19  1  0
 12 13  1  0
 13 14  1  0
 13 15  2  0
 15 16  1  0
 15 17  1  0
 17 18  1  0
 17 19  2  0
 19 20  1  0
  9 10  1  0
 23 24  2  0
 23 31  1  0
 24 25  1  0
 25 26  1  0
 26 27  1  0
 26 31  2  0
 27 28  2  0
 28 29  1  0
 29 30  2  0
 30 31  1  0
M  END
>  <minimizedAffinity>  (104) 
-9.24223

$$$$
data/reference_output_2/data/smiles/144713.pdb
     RDKit          3D

 28 31  0  0  0  0  0  0  0  0999 V2000
   69.6793   40.3020   58.8578 N   0  0  0  0  0  0  0  0  0  0  0  0
   68.3956   40.6582   58.2901 C   0  0  0  0  0  0  0  0  0  0  0  0
   68.6894   41.6383   57.1436 C   0  0  0  0  0  0  0  0  0  0  0  0
   69.3551   42.8290   57.6747 C   0  0  0  0  0  0  0  0  0  0  0  0
   69.3573   44.1540   57.2955 C   0  0  0  0  0  0  0  0  0  0  0  0
   70.1805   44.7720   58.2133 N   0  0  0  0  0  0  0  0  0  0  0  0
   70.6410   43.9031   59.0733 N   0  0  0  0  0  0  0  0  0  0  0  0
   70.1627   42.6931   58.7840 C   0  0  0  0  0  0  0  0  0  0  0  0
   70.3744   41.4056   59.4472 C   0  0  0  0  0  0  0  0  0  0  0  0
   71.0869   41.2370   60.4373 O   0  0  0  0  0  0  0  0  0  0  0  0
   72.0518   35.0647   58.8789 C   0  0  0  0  0  0  0  0  0  0  0  0
   71.4221   36.4151   58.8808 C   0  0  0  0  0  0  0  0  0  0  0  0
   71.9314   37.4102   58.0854 C   0  0  0  0  0  0  0  0  0  0  0  0
   71.3571   38.6836   58.0719 C   0  0  0  0  0  0  0  0  0  0  0  0
   70.2639   39.0161   58.8412 C   0  0  0  0  0  0  0  0  0  0  0  0
   69.7711   38.0002   59.6302 C   0  0  0  0  0  0  0  0  0  0  0  0
   70.3370   36.7173   59.6541 C   0  0  0  0  0  0  0  0  0  0  0  0
   68.7020   44.8419   56.2476 N   0  0  0  0  0  0  0  0  0  0  0  0
   68.6103   46.4760   55.8972 S   0  0  0  0  0  0  0  0  0  0  0  0
   69.8857   47.1690   56.4178 O   0  0  0  0  0  0  0  0  0  0  0  0
   67.5116   47.2320   56.6003 O   0  0  0  0  0  0  0  0  0  0  0  0
   68.6402   46.7667   54.1777 C   0  0  0  0  0  0  0  0  0  0  0  0
   67.8637   45.8960   53.4087 C   0  0  0  0  0  0  0  0  0  0  0  0
   67.8034   45.9702   52.0356 C   0  0  0  0  0  0  0  0  0  0  0  0
   68.5359   46.9419   51.3803 C   0  0  0  0  0  0  0  0  0  0  0  0
   69.3028   47.7992   52.1564 C   0  0  0  0  0  0  0  0  0  0  0  0
   70.0119   48.7452   51.4679 F   0  0  0  0  0  0  0  0  0  0  0  0
   69.3515   47.7109   53.5273 C   0  0  0  0  0  0  0  0  0  0  0  0
 11 12  1  0
 12 13  2  0
 12 17  1  0
 13 14  1  0
 14 15  2  0
 15  1  1  0
 15 16  1  0
  1  2  1  0
  1  9  1  0
  2  3  1  0
  3  4  1  0
  4  5  1  0
  4  8  2  0
  5 18  1  0
  5  6  2  0
 18 19  1  0
 19 20  2  0
 19 21  2  0
 19 22  1  0
 22 23  2  0
 22 28  1  0
 23 24  1  0
 24 25  2  0
 25 26  1  0
 26 27  1  0
 26 28  2  0
  6  7  1  0
  7  8  1  0
  8  9  1  0
  9 10  2  0
 16 17  2  0
M  END
>  <minimizedAffinity>  (105) 
-9.21909

$$$$
data/reference_output_2/data/smiles/160615.pdb
     RDKit          3D

 29 32  0  0  0  0  0  0  0  0999 V2000
   71.1735   45.7291   58.6456 C   0  0  0  0  0  0  0  0  0  0  0  0
   70.2147   46.3113   57.7915 C   0  0  0  0  0  0  0  0  0  0  0  0
   69.9877   47.6472   57.7052 C   0  0  0  0  0  0  0  0  0  0  0  0
   70.7444   48.4985   58.5050 C   0  0  0  0  0  0  0  0  0  0  0  0
   71.6887   47.9790   59.3533 C   0  0  0  0  0  0  0  0  0  0  0  0
   71.8992   46.5920   59.4203 C   0  0  0  0  0  0  0  0  0  0  0  0
   72.8144   46.1182   60.2870 F   0  0  0  0  0  0  0  0  0  0  0  0
   69.3379   43.9061   59.8042 O   0  0  0  0  0  0  0  0  0  0  0  0
   70.3563   43.4262   59.2202 C   0  0  0  0  0  0  0  0  0  0  0  0
   71.2790   44.3099   58.6487 N   0  0  0  0  0  0  0  0  0  0  0  0
   70.5247   41.9290   59.1704 C   0  0  0  0  0  0  0  0  0  0  0  0
   69.7678   41.2713   58.1847 N   0  0  0  0  0  0  0  0  0  0  0  0
   69.3026   39.9633   58.4315 C   0  0  0  0  0  0  0  0  0  0  0  0
   68.0358   39.5630   57.7288 C   0  0  0  0  0  0  0  0  0  0  0  0
   67.9963   40.1220   56.4637 O   0  0  0  0  0  0  0  0  0  0  0  0
   67.8445   41.4944   56.6463 C   0  0  0  0  0  0  0  0  0  0  0  0
   68.9823   42.1299   57.3745 C   0  0  0  0  0  0  0  0  0  0  0  0
   68.9674   48.2464   56.7765 C   0  0  0  0  0  0  0  0  0  0  0  0
   68.6595   47.4115   55.6122 C   0  0  0  0  0  0  0  0  0  0  0  0
   67.9761   46.2323   55.7820 N   0  0  0  0  0  0  0  0  0  0  0  0
   67.6590   45.4332   54.7905 N   0  0  0  0  0  0  0  0  0  0  0  0
   68.0240   45.7919   53.5562 C   0  0  0  0  0  0  0  0  0  0  0  0
   67.7342   45.0427   52.5719 O   0  0  0  0  0  0  0  0  0  0  0  0
   68.7267   46.9815   53.2895 C   0  0  0  0  0  0  0  0  0  0  0  0
   69.0503   47.8082   54.3410 C   0  0  0  0  0  0  0  0  0  0  0  0
   69.7913   49.0795   54.1537 C   0  0  0  0  0  0  0  0  0  0  0  0
   70.5789   48.9353   52.8419 C   0  0  0  0  0  0  0  0  0  0  0  0
   69.4909   48.7272   51.7789 C   0  0  0  0  0  0  0  0  0  0  0  0
   69.0933   47.2861   51.8844 C   0  0  0  0  0  0  0  0  0  0  0  0
  8  9  2  0
  9 11  1  0
  9 10  1  0
 11 12  1  0
 12 13  1  0
 12 17  1  0
 13 14  1  0
 14 15  1  0
 15 16  1  0
 16 17  1  0
 10  1  1  0
  1  2  2  0
  1  6  1  0
  2  3  1  0
  3 18  1  0
  3  4  2  0
 18 19  1  0
 19 20  2  0
 19 25  1  0
 20 21  1  0
 21 22  1  0
 22 23  2  0
 22 24  1  0
 24 25  2  0
 24 29  1  0
 25 26  1  0
 26 27  1  0
 27 28  1  0
 28 29  1  0
  4  5  1  0
  5  6  2  0
  6  7  1  0
M  CHG  1  12   1
M  END
>  <minimizedAffinity>  (106) 
-9.20063

$$$$
data/reference_output_2/data/smiles/112878.pdb
     RDKit          3D

 28 30  0  0  0  0  0  0  0  0999 V2000
   68.7972   41.7416   57.0940 C   0  0  0  0  0  0  0  0  0  0  0  0
   68.5644   40.4730   57.5829 C   0  0  0  0  0  0  0  0  0  0  0  0
   69.5053   39.7711   58.3057 C   0  0  0  0  0  0  0  0  0  0  0  0
   70.7450   40.3078   58.5798 C   0  0  0  0  0  0  0  0  0  0  0  0
   70.9907   41.5757   58.0965 C   0  0  0  0  0  0  0  0  0  0  0  0
   70.0400   42.2686   57.3737 C   0  0  0  0  0  0  0  0  0  0  0  0
   71.9510   39.4158   59.5027 S   0  0  0  0  0  0  0  0  0  0  0  0
   71.8811   39.7830   60.9509 O   0  0  0  0  0  0  0  0  0  0  0  0
   73.3124   39.8996   59.0244 O   0  0  0  0  0  0  0  0  0  0  0  0
   71.8907   37.7509   59.2097 N   0  0  0  0  0  0  0  0  0  0  0  0
   72.9064   37.2169   58.3756 C   0  0  0  0  0  0  0  0  0  0  0  0
   72.4829   36.1221   57.4591 C   0  0  0  0  0  0  0  0  0  0  0  0
   72.5203   34.7533   58.0859 C   0  0  0  0  0  0  0  0  0  0  0  0
   72.0840   34.7311   59.5135 C   0  0  0  0  0  0  0  0  0  0  0  0
   70.9111   35.6519   59.7781 C   0  0  0  0  0  0  0  0  0  0  0  0
   71.5167   36.9478   60.3188 C   0  0  0  0  0  0  0  0  0  0  0  0
   67.7834   42.4631   56.3316 C   0  0  0  0  0  0  0  0  0  0  0  0
   66.9139   41.8034   55.7080 O   0  0  0  0  0  0  0  0  0  0  0  0
   67.6908   43.8231   56.2327 O   0  0  0  0  0  0  0  0  0  0  0  0
   68.4342   46.3173   56.4995 N   0  0  0  0  0  0  0  0  0  0  0  0
   68.3571   45.7622   55.1902 C   0  0  0  0  0  0  0  0  0  0  0  0
   67.9905   44.5394   55.0940 N   0  0  0  0  0  0  0  0  0  0  0  0
   68.6948   46.5967   54.0208 C   0  0  0  0  0  0  0  0  0  0  0  0
   69.1873   47.8553   54.2983 C   0  0  0  0  0  0  0  0  0  0  0  0
   69.5418   48.7341   53.2692 C   0  0  0  0  0  0  0  0  0  0  0  0
   69.3940   48.3316   51.9564 C   0  0  0  0  0  0  0  0  0  0  0  0
   68.9006   47.0707   51.7026 C   0  0  0  0  0  0  0  0  0  0  0  0
   68.5474   46.1933   52.7292 C   0  0  0  0  0  0  0  0  0  0  0  0
 20 21  1  0
 21 22  2  0
 21 23  1  0
 22 19  1  0
 19 17  1  0
 17 18  2  0
 17  1  1  0
  1  2  2  0
  1  6  1  0
  2  3  1  0
  3  4  2  0
  4  7  1  0
  4  5  1  0
  7  8  2  0
  7  9  2  0
  7 10  1  0
 10 11  1  0
 10 16  1  0
 11 12  1  0
 12 13  1  0
 13 14  1  0
 14 15  1  0
 15 16  1  0
  5  6  2  0
 23 24  2  0
 23 28  1  0
 24 25  1  0
 25 26  2  0
 26 27  1  0
 27 28  2  0
M  CHG  1  22   1
M  END
>  <minimizedAffinity>  (107) 
-9.19949

$$$$
data/reference_output_2/data/smiles/89341.pdb
     RDKit          3D

 30 32  0  0  0  0  0  0  0  0999 V2000
   69.9938   48.1317   57.2554 C   0  0  0  0  0  0  0  0  0  0  0  0
   70.9760   47.7733   58.0962 C   0  0  0  0  0  0  0  0  0  0  0  0
   71.6698   48.9340   58.3951 N   0  0  0  0  0  0  0  0  0  0  0  0
   71.1254   49.9732   57.7538 C   0  0  0  0  0  0  0  0  0  0  0  0
   71.4415   51.3372   57.7187 C   0  0  0  0  0  0  0  0  0  0  0  0
   70.7074   52.2184   56.9644 C   0  0  0  0  0  0  0  0  0  0  0  0
   69.6356   51.7638   56.2238 C   0  0  0  0  0  0  0  0  0  0  0  0
   68.7211   52.9117   55.2737 Cl  0  0  0  0  0  0  0  0  0  0  0  0
   69.3339   50.4130   56.2686 C   0  0  0  0  0  0  0  0  0  0  0  0
   70.0599   49.5243   57.0177 C   0  0  0  0  0  0  0  0  0  0  0  0
   68.7962   47.1754   56.4713 S   0  0  0  0  0  0  0  0  0  0  0  0
   67.4161   47.4858   57.0564 O   0  0  0  0  0  0  0  0  0  0  0  0
   69.0012   45.7114   56.9232 O   0  0  0  0  0  0  0  0  0  0  0  0
   70.1259   49.1365   51.8295 C   0  0  0  0  0  0  0  0  0  0  0  0
   69.4382   48.1137   52.6293 C   0  0  0  0  0  0  0  0  0  0  0  0
   68.7433   47.1096   52.0140 C   0  0  0  0  0  0  0  0  0  0  0  0
   68.0972   46.1485   52.7318 C   0  0  0  0  0  0  0  0  0  0  0  0
   67.3650   45.0936   51.9714 C   0  0  0  0  0  0  0  0  0  0  0  0
   68.1304   46.1682   54.0893 C   0  0  0  0  0  0  0  0  0  0  0  0
   68.8139   47.1541   54.7589 C   0  0  0  0  0  0  0  0  0  0  0  0
   69.4572   48.1112   54.0308 C   0  0  0  0  0  0  0  0  0  0  0  0
   71.3064   46.4986   58.6912 C   0  0  0  0  0  0  0  0  0  0  0  0
   71.3870   46.4805   59.9765 O   0  0  0  0  0  0  0  0  0  0  0  0
   71.5486   45.2698   58.0826 N   0  0  0  0  0  0  0  0  0  0  0  0
   71.8842   44.0393   58.7684 C   0  0  2  0  0  0  0  0  0  0  0  0
   72.7680   43.1420   57.9194 C   0  0  0  0  0  0  0  0  0  0  0  0
   70.6678   43.2807   59.1292 C   0  0  0  0  0  0  0  0  0  0  0  0
   70.5701   42.0791   58.8051 O   0  0  0  0  0  0  0  0  0  0  0  0
   69.6016   43.8803   59.8347 N   0  0  0  0  0  0  0  0  0  0  0  0
   68.4277   43.1684   60.1893 N   0  0  0  0  0  0  0  0  0  0  0  0
 14 15  1  0
 15 16  2  0
 15 21  1  0
 16 17  1  0
 17 18  1  0
 17 19  2  0
 19 20  1  0
 20 11  1  0
 20 21  2  0
 11 12  2  0
 11 13  2  0
 11  1  1  0
  1  2  2  0
  1 10  1  0
  2 22  1  0
  2  3  1  0
 22 23  2  0
 22 24  1  0
 24 25  1  0
 25 26  1  6
 25 27  1  0
 27 28  2  0
 27 29  1  0
 29 30  1  0
  3  4  1  0
  4  5  1  0
  4 10  2  0
  5  6  2  0
  6  7  1  0
  7  8  1  0
  7  9  2  0
  9 10  1  0
M  END
>  <minimizedAffinity>  (108) 
-9.19798

$$$$
data/200k_reference_output/data/smiles/52974.pdb
     RDKit          3D

 30 33  0  0  0  0  0  0  0  0999 V2000
   69.0300   47.6402   54.7781 C   0  0  0  0  0  0  0  0  0  0  0  0
   69.8440   48.7122   54.7400 N   0  0  0  0  0  0  0  0  0  0  0  0
   70.2749   49.2977   53.6204 C   0  0  0  0  0  0  0  0  0  0  0  0
   69.8593   48.7680   52.4228 C   0  0  0  0  0  0  0  0  0  0  0  0
   70.2904   49.3542   51.2498 O   0  0  0  0  0  0  0  0  0  0  0  0
   69.0281   47.6725   52.4129 C   0  0  0  0  0  0  0  0  0  0  0  0
   68.5922   47.1128   51.2642 N   0  0  0  0  0  0  0  0  0  0  0  0
   67.7891   46.0508   51.2530 C   0  0  0  0  0  0  0  0  0  0  0  0
   67.3423   45.4443   52.4172 C   0  0  0  0  0  0  0  0  0  0  0  0
   67.7582   45.9776   53.6170 C   0  0  0  0  0  0  0  0  0  0  0  0
   68.5885   47.0764   53.5929 C   0  0  0  0  0  0  0  0  0  0  0  0
   70.1910   46.3341   57.6952 N   0  0  0  0  0  0  0  0  0  0  0  0
   69.4383   45.9212   56.5258 C   0  0  0  0  0  0  0  0  0  0  0  0
   68.6099   47.0774   56.0874 C   0  0  1  0  0  0  0  0  0  0  0  0
   68.8125   48.1782   57.1233 C   0  0  0  0  0  0  0  0  0  0  0  0
   69.9918   47.7297   57.9084 C   0  0  0  0  0  0  0  0  0  0  0  0
   70.7447   48.4011   58.6600 O   0  0  0  0  0  0  0  0  0  0  0  0
   70.5303   44.0069   58.3929 C   0  0  0  0  0  0  0  0  0  0  0  0
   71.0048   45.4415   58.4951 C   0  0  0  0  0  0  0  0  0  0  0  0
   71.1712   50.4760   53.6522 C   0  0  0  0  0  0  0  0  0  0  0  0
   70.7953   51.5845   53.2322 O   0  0  0  0  0  0  0  0  0  0  0  0
   72.4794   50.3386   54.1697 N   0  0  0  0  0  0  0  0  0  0  0  0
   73.4555   51.3726   54.2699 C   0  0  0  0  0  0  0  0  0  0  0  0
   73.1889   52.2095   55.4479 C   0  0  0  0  0  0  0  0  0  0  0  0
   72.5870   51.6806   56.5565 C   0  0  0  0  0  0  0  0  0  0  0  0
   72.3457   52.4747   57.6674 C   0  0  0  0  0  0  0  0  0  0  0  0
   72.7084   53.7914   57.6624 C   0  0  0  0  0  0  0  0  0  0  0  0
   72.4667   54.5737   58.7650 F   0  0  0  0  0  0  0  0  0  0  0  0
   73.3157   54.3497   56.5611 C   0  0  0  0  0  0  0  0  0  0  0  0
   73.5515   53.5339   55.4472 C   0  0  0  0  0  0  0  0  0  0  0  0
 18 19  1  0
 19 12  1  0
 12 13  1  0
 12 16  1  0
 13 14  1  0
 14  1  1  6
 14 15  1  0
  1  2  2  0
  1 11  1  0
  2  3  1  0
  3 20  1  0
  3  4  2  0
 20 21  2  0
 20 22  1  0
 22 23  1  0
 23 24  1  0
 24 25  2  0
 24 30  1  0
 25 26  1  0
 26 27  2  0
 27 28  1  0
 27 29  1  0
 29 30  2  0
  4  5  1  0
  4  6  1  0
  6  7  1  0
  6 11  2  0
  7  8  2  0
  8  9  1  0
  9 10  2  0
 10 11  1  0
 15 16  1  0
 16 17  2  0
M  END
>  <minimizedAffinity>  (109) 
-9.19354

$$$$
data/reference_output_2/data/smiles/193244.pdb
     RDKit          3D

 31 34  0  0  0  0  0  0  0  0999 V2000
   71.4403   46.7710   58.8600 C   0  0  0  0  0  0  0  0  0  0  0  0
   70.4717   47.5062   58.1518 C   0  0  0  0  0  0  0  0  0  0  0  0
   69.5977   46.9197   57.3014 C   0  0  0  0  0  0  0  0  0  0  0  0
   69.6963   45.5300   57.1500 C   0  0  0  0  0  0  0  0  0  0  0  0
   70.6185   44.7709   57.8125 C   0  0  0  0  0  0  0  0  0  0  0  0
   71.5080   45.4062   58.6851 C   0  0  0  0  0  0  0  0  0  0  0  0
   72.4371   44.6556   59.3555 F   0  0  0  0  0  0  0  0  0  0  0  0
   74.8894   50.5129   55.5081 C   0  0  0  0  0  0  0  0  0  0  0  0
   74.2935   50.7278   56.8579 C   0  0  0  0  0  0  0  0  0  0  0  0
   73.8224   51.8907   57.0627 O   0  0  0  0  0  0  0  0  0  0  0  0
   74.2481   49.7150   57.8527 N   0  0  0  0  0  0  0  0  0  0  0  0
   73.6306   50.1316   59.0970 C   0  0  0  0  0  0  0  0  0  0  0  0
   74.5131   49.7444   60.2877 C   0  0  0  0  0  0  0  0  0  0  0  0
   74.4851   48.2778   60.5675 C   0  0  0  0  0  0  0  0  0  0  0  0
   73.7122   47.6410   59.4939 N   0  0  0  0  0  0  0  0  0  0  0  0
   72.3631   47.3849   59.7796 C   0  0  0  0  0  0  0  0  0  0  0  0
   71.9091   47.7082   60.9133 O   0  0  0  0  0  0  0  0  0  0  0  0
   74.2678   47.2875   58.2230 C   0  0  0  0  0  0  0  0  0  0  0  0
   74.8148   48.4660   57.4634 C   0  0  0  0  0  0  0  0  0  0  0  0
   68.5577   47.6567   56.5550 C   0  0  0  0  0  0  0  0  0  0  0  0
   69.1019   47.9769   55.2138 C   0  0  0  0  0  0  0  0  0  0  0  0
   70.0635   48.9509   55.1152 N   0  0  0  0  0  0  0  0  0  0  0  0
   70.6466   49.2633   53.9860 N   0  0  0  0  0  0  0  0  0  0  0  0
   70.3182   48.6298   52.8582 C   0  0  0  0  0  0  0  0  0  0  0  0
   70.8837   48.9269   51.7495 O   0  0  0  0  0  0  0  0  0  0  0  0
   69.3606   47.6305   52.8387 C   0  0  0  0  0  0  0  0  0  0  0  0
   69.0176   46.9936   51.6630 C   0  0  0  0  0  0  0  0  0  0  0  0
   68.0402   46.0245   51.7285 C   0  0  0  0  0  0  0  0  0  0  0  0
   67.4375   45.7131   52.9196 C   0  0  0  0  0  0  0  0  0  0  0  0
   67.7856   46.3505   54.0811 C   0  0  0  0  0  0  0  0  0  0  0  0
   68.7591   47.3248   54.0674 C   0  0  0  0  0  0  0  0  0  0  0  0
  8  9  1  0
  9 10  2  0
  9 11  1  0
 11 12  1  0
 11 19  1  0
 12 13  1  0
 13 14  1  0
 14 15  1  0
 15 16  1  0
 15 18  1  0
 16 17  2  0
 16  1  1  0
  1  2  2  0
  1  6  1  0
  2  3  1  0
  3 20  1  0
  3  4  2  0
 20 21  1  0
 21 22  2  0
 21 31  1  0
 22 23  1  0
 23 24  1  0
 24 25  2  0
 24 26  1  0
 26 27  1  0
 26 31  2  0
 27 28  2  0
 28 29  1  0
 29 30  2  0
 30 31  1  0
  4  5  1  0
  5  6  2  0
  6  7  1  0
 18 19  1  0
M  END
>  <minimizedAffinity>  (110) 
-9.19085

$$$$
data/200k_reference_output/data/smiles/43457.pdb
     RDKit          3D

 31 35  0  0  0  0  0  0  0  0999 V2000
   71.0299   50.2830   55.5319 N   0  0  0  0  0  0  0  0  0  0  0  0
   72.3907   50.7097   55.5682 C   0  0  0  0  0  0  0  0  0  0  0  0
   73.0936   49.8865   56.6112 C   0  0  0  0  0  0  0  0  0  0  0  0
   72.1852   49.7463   57.8321 C   0  0  0  0  0  0  0  0  0  0  0  0
   71.1250   50.8258   57.8770 C   0  0  0  0  0  0  0  0  0  0  0  0
   70.2199   50.6495   56.6780 C   0  0  0  0  0  0  0  0  0  0  0  0
   71.5818   48.3870   57.9160 C   0  0  0  0  0  0  0  0  0  0  0  0
   72.1474   47.7834   59.0869 N   0  0  0  0  0  0  0  0  0  0  0  0
   73.0487   48.6776   59.7161 C   0  0  0  0  0  0  0  0  0  0  0  0
   73.8142   48.4941   60.8773 C   0  0  0  0  0  0  0  0  0  0  0  0
   74.6403   49.4964   61.3329 C   0  0  0  0  0  0  0  0  0  0  0  0
   75.3928   49.3429   62.4562 F   0  0  0  0  0  0  0  0  0  0  0  0
   74.6798   50.6712   60.6050 C   0  0  0  0  0  0  0  0  0  0  0  0
   73.9260   50.8449   59.4671 C   0  0  0  0  0  0  0  0  0  0  0  0
   73.9585   51.9878   58.7513 F   0  0  0  0  0  0  0  0  0  0  0  0
   73.0871   49.8329   59.0010 C   0  0  0  0  0  0  0  0  0  0  0  0
   68.4304   46.1085   55.5842 C   0  0  0  0  0  0  0  0  0  0  0  0
   68.4865   46.4740   54.1364 C   0  0  0  0  0  0  0  0  0  0  0  0
   67.8777   45.6846   53.1852 C   0  0  0  0  0  0  0  0  0  0  0  0
   67.9471   46.0481   51.8536 C   0  0  0  0  0  0  0  0  0  0  0  0
   68.6315   47.2005   51.5307 C   0  0  0  0  0  0  0  0  0  0  0  0
   69.2365   47.9839   52.4900 C   0  0  0  0  0  0  0  0  0  0  0  0
   69.9239   49.1374   52.1912 C   0  0  0  0  0  0  0  0  0  0  0  0
   69.9995   49.4871   50.9882 O   0  0  0  0  0  0  0  0  0  0  0  0
   70.5044   49.8782   53.1824 N   0  0  0  0  0  0  0  0  0  0  0  0
   70.4497   49.5449   54.4816 C   0  0  0  0  0  0  0  0  0  0  0  0
   69.7608   48.3899   54.7649 N   0  0  0  0  0  0  0  0  0  0  0  0
   69.1805   47.6419   53.8225 C   0  0  0  0  0  0  0  0  0  0  0  0
   71.8381   46.4305   59.5712 C   0  0  0  0  0  0  0  0  0  0  0  0
   70.9051   45.8153   58.5314 C   0  0  0  0  0  0  0  0  0  0  0  0
   69.7906   45.2289   59.1278 O   0  0  0  0  0  0  0  0  0  0  0  0
 17 18  1  0
 18 19  2  0
 18 28  1  0
 19 20  1  0
 20 21  2  0
 21 22  1  0
 22 23  1  0
 22 28  2  0
 23 24  2  0
 23 25  1  0
 25 26  1  0
 26  1  1  0
 26 27  2  0
  1  2  1  0
  1  6  1  0
  2  3  1  0
  3  4  1  0
  4  5  1  0
  4  7  1  0
  4 16  1  0
  5  6  1  0
  7  8  1  0
  8 29  1  0
  8  9  1  0
 29 30  1  0
 30 31  1  0
  9 10  1  0
  9 16  2  0
 10 11  2  0
 11 12  1  0
 11 13  1  0
 13 14  2  0
 14 15  1  0
 14 16  1  0
 27 28  1  0
M  END
>  <minimizedAffinity>  (111) 
-9.18518

$$$$
data/reference_output_2/data/smiles/167603.pdb
     RDKit          3D

 30 32  0  0  0  0  0  0  0  0999 V2000
   71.0208   43.6526   57.6904 C   0  0  0  0  0  0  0  0  0  0  0  0
   69.8380   43.7797   56.9799 C   0  0  0  0  0  0  0  0  0  0  0  0
   69.2306   44.9993   56.7641 C   0  0  0  0  0  0  0  0  0  0  0  0
   69.7778   46.1676   57.2513 C   0  0  0  0  0  0  0  0  0  0  0  0
   70.9550   46.0570   57.9604 C   0  0  0  0  0  0  0  0  0  0  0  0
   71.5691   44.8169   58.1776 C   0  0  0  0  0  0  0  0  0  0  0  0
   70.9031   41.1867   58.3245 N   0  0  0  0  0  0  0  0  0  0  0  0
   71.6137   42.3327   57.8839 C   0  0  0  0  0  0  0  0  0  0  0  0
   72.8366   42.1715   57.6502 O   0  0  0  0  0  0  0  0  0  0  0  0
   70.7136   38.7838   58.3886 C   0  0  0  0  0  0  0  0  0  0  0  0
   69.4634   38.9296   58.1595 O   0  0  0  0  0  0  0  0  0  0  0  0
   71.5458   39.9322   58.4904 N   0  0  0  0  0  0  0  0  0  0  0  0
   72.6573   33.4574   58.8407 C   0  0  0  0  0  0  0  0  0  0  0  0
   72.1316   34.8426   58.7478 C   0  0  0  0  0  0  0  0  0  0  0  0
   72.6107   35.6583   57.7326 C   0  0  0  0  0  0  0  0  0  0  0  0
   72.1293   36.9436   57.6377 C   0  0  0  0  0  0  0  0  0  0  0  0
   71.1918   37.4164   58.5300 C   0  0  0  0  0  0  0  0  0  0  0  0
   70.6976   36.6161   59.5559 C   0  0  0  0  0  0  0  0  0  0  0  0
   71.1889   35.3286   59.6392 C   0  0  0  0  0  0  0  0  0  0  0  0
   68.9999   47.7126   56.9732 S   0  0  0  0  0  0  0  0  0  0  0  0
   69.4503   48.7377   57.9691 O   0  0  0  0  0  0  0  0  0  0  0  0
   67.5225   47.5855   57.0369 O   0  0  0  0  0  0  0  0  0  0  0  0
   69.4133   48.2590   55.3739 N   0  0  0  0  0  0  0  0  0  0  0  0
   70.2238   49.4594   55.2023 C   0  0  0  0  0  0  0  0  0  0  0  0
   68.9927   47.5808   54.2164 C   0  0  0  0  0  0  0  0  0  0  0  0
   68.0276   46.6042   54.2649 C   0  0  0  0  0  0  0  0  0  0  0  0
   67.6463   45.9666   53.1057 C   0  0  0  0  0  0  0  0  0  0  0  0
   68.2083   46.2802   51.8811 C   0  0  0  0  0  0  0  0  0  0  0  0
   69.1763   47.2589   51.8269 C   0  0  0  0  0  0  0  0  0  0  0  0
   69.5497   47.8931   53.0048 C   0  0  0  0  0  0  0  0  0  0  0  0
 13 14  1  0
 14 15  2  0
 14 19  1  0
 15 16  1  0
 16 17  2  0
 17 10  1  0
 17 18  1  0
 10 11  2  0
 10 12  1  0
 12  7  1  0
  7  8  1  0
  8  9  2  0
  8  1  1  0
  1  2  2  0
  1  6  1  0
  2  3  1  0
  3  4  2  0
  4 20  1  0
  4  5  1  0
 20 21  2  0
 20 22  2  0
 20 23  1  0
 23 24  1  0
 23 25  1  0
 25 26  2  0
 25 30  1  0
 26 27  1  0
 27 28  2  0
 28 29  1  0
 29 30  2  0
  5  6  2  0
 18 19  2  0
M  END
>  <minimizedAffinity>  (112) 
-9.18487

$$$$
data/200k_reference_output/data/smiles/71667.pdb
     RDKit          3D

 30 32  0  0  0  0  0  0  0  0999 V2000
   71.3885   43.7003   57.9223 C   0  0  0  0  0  0  0  0  0  0  0  0
   72.1625   44.7515   58.3657 C   0  0  0  0  0  0  0  0  0  0  0  0
   71.7254   46.0592   58.3102 C   0  0  0  0  0  0  0  0  0  0  0  0
   70.4790   46.3712   57.8011 C   0  0  0  0  0  0  0  0  0  0  0  0
   69.6800   45.3207   57.3480 C   0  0  0  0  0  0  0  0  0  0  0  0
   70.1478   44.0187   57.4173 C   0  0  0  0  0  0  0  0  0  0  0  0
   73.0945   42.1013   57.6494 O   0  0  0  0  0  0  0  0  0  0  0  0
   71.8950   42.3403   58.0024 C   0  0  0  0  0  0  0  0  0  0  0  0
   71.1553   41.2359   58.4490 N   0  0  0  0  0  0  0  0  0  0  0  0
   71.6691   39.9269   58.5181 N   0  0  0  0  0  0  0  0  0  0  0  0
   70.8778   38.7709   58.3701 C   0  0  0  0  0  0  0  0  0  0  0  0
   69.6294   39.0419   58.1639 O   0  0  0  0  0  0  0  0  0  0  0  0
   71.3193   37.3990   58.4275 C   0  0  0  0  0  0  0  0  0  0  0  0
   72.2502   36.9933   57.4820 C   0  0  0  0  0  0  0  0  0  0  0  0
   72.7402   35.7037   57.4470 C   0  0  0  0  0  0  0  0  0  0  0  0
   72.3122   34.7723   58.3624 C   0  0  0  0  0  0  0  0  0  0  0  0
   71.3959   35.1546   59.3003 C   0  0  0  0  0  0  0  0  0  0  0  0
   70.8979   36.4738   59.3322 C   0  0  0  0  0  0  0  0  0  0  0  0
   69.9892   36.8077   60.2823 F   0  0  0  0  0  0  0  0  0  0  0  0
   70.0396   47.7150   57.7492 N   0  0  0  0  0  0  0  0  0  0  0  0
   68.6488   48.2115   56.8632 S   0  0  0  0  0  0  0  0  0  0  0  0
   67.4350   47.5026   57.4281 O   0  0  0  0  0  0  0  0  0  0  0  0
   68.4747   49.7032   56.9453 O   0  0  0  0  0  0  0  0  0  0  0  0
   68.7594   47.7642   55.1866 C   0  0  0  0  0  0  0  0  0  0  0  0
   68.0825   46.6750   54.7251 C   0  0  0  0  0  0  0  0  0  0  0  0
   68.1619   46.3114   53.4012 C   0  0  0  0  0  0  0  0  0  0  0  0
   68.9410   47.0644   52.5308 C   0  0  0  0  0  0  0  0  0  0  0  0
   69.0263   46.7148   51.2248 F   0  0  0  0  0  0  0  0  0  0  0  0
   69.6167   48.1615   53.0202 C   0  0  0  0  0  0  0  0  0  0  0  0
   69.5293   48.5121   54.3344 C   0  0  0  0  0  0  0  0  0  0  0  0
  7  8  2  0
  8  9  1  0
  8  1  1  0
  9 10  1  0
 10 11  1  0
 11 12  2  0
 11 13  1  0
 13 14  2  0
 13 18  1  0
 14 15  1  0
 15 16  2  0
 16 17  1  0
 17 18  2  0
 18 19  1  0
  1  2  2  0
  1  6  1  0
  2  3  1  0
  3  4  2  0
  4 20  1  0
  4  5  1  0
 20 21  1  0
 21 22  2  0
 21 23  2  0
 21 24  1  0
 24 25  2  0
 24 30  1  0
 25 26  1  0
 26 27  2  0
 27 28  1  0
 27 29  1  0
 29 30  2  0
  5  6  2  0
M  END
>  <minimizedAffinity>  (113) 
-9.18277

$$$$
data/200k_reference_output/data/smiles/86598.pdb
     RDKit          3D

 30 33  0  0  0  0  0  0  0  0999 V2000
   71.6017   47.3871   58.9009 C   0  0  0  0  0  0  0  0  0  0  0  0
   70.8221   48.1708   58.0792 C   0  0  0  0  0  0  0  0  0  0  0  0
   69.9405   47.6093   57.1454 C   0  0  0  0  0  0  0  0  0  0  0  0
   69.8552   46.2439   57.0519 C   0  0  0  0  0  0  0  0  0  0  0  0
   70.6370   45.4221   57.8766 C   0  0  0  0  0  0  0  0  0  0  0  0
   71.4896   46.0169   58.7797 C   0  0  0  0  0  0  0  0  0  0  0  0
   72.2806   45.2732   59.6144 F   0  0  0  0  0  0  0  0  0  0  0  0
   77.9783   49.6092   56.9767 C   0  0  0  0  0  0  0  0  0  0  0  0
   77.6724   49.3259   58.3881 C   0  0  0  0  0  0  0  0  0  0  0  0
   78.5952   49.0306   59.1762 O   0  0  0  0  0  0  0  0  0  0  0  0
   76.3362   49.3933   58.8295 N   0  0  0  0  0  0  0  0  0  0  0  0
   75.2359   49.7357   57.9336 C   0  0  0  0  0  0  0  0  0  0  0  0
   74.0917   48.7457   58.1133 C   0  0  0  0  0  0  0  0  0  0  0  0
   73.7113   48.6343   59.5014 N   0  0  0  0  0  0  0  0  0  0  0  0
   72.5134   47.9785   59.8669 C   0  0  0  0  0  0  0  0  0  0  0  0
   72.2124   47.8976   61.0812 O   0  0  0  0  0  0  0  0  0  0  0  0
   74.5629   49.1975   60.5206 C   0  0  0  0  0  0  0  0  0  0  0  0
   76.0229   49.1146   60.2166 C   0  0  0  0  0  0  0  0  0  0  0  0
   69.1538   48.5621   56.2971 C   0  0  0  0  0  0  0  0  0  0  0  0
   69.5410   48.4630   54.8811 C   0  0  0  0  0  0  0  0  0  0  0  0
   70.6057   49.1977   54.4152 N   0  0  0  0  0  0  0  0  0  0  0  0
   70.9698   49.1633   53.1450 N   0  0  0  0  0  0  0  0  0  0  0  0
   70.3217   48.4104   52.2351 C   0  0  0  0  0  0  0  0  0  0  0  0
   70.6763   48.3857   51.0282 O   0  0  0  0  0  0  0  0  0  0  0  0
   69.2278   47.6360   52.6422 C   0  0  0  0  0  0  0  0  0  0  0  0
   68.8779   47.6953   53.9721 C   0  0  0  0  0  0  0  0  0  0  0  0
   67.7411   46.8473   54.3962 C   0  0  0  0  0  0  0  0  0  0  0  0
   67.9719   45.5005   53.6714 C   0  0  0  0  0  0  0  0  0  0  0  0
   67.7145   45.7064   52.2066 C   0  0  0  0  0  0  0  0  0  0  0  0
   68.5125   46.8337   51.6423 C   0  0  0  0  0  0  0  0  0  0  0  0
  8  9  1  0
  9 10  2  0
  9 11  1  0
 11 12  1  0
 11 18  1  0
 12 13  1  0
 13 14  1  0
 14 15  1  0
 14 17  1  0
 15 16  2  0
 15  1  1  0
  1  2  2  0
  1  6  1  0
  2  3  1  0
  3 19  1  0
  3  4  2  0
 19 20  1  0
 20 21  2  0
 20 26  1  0
 21 22  1  0
 22 23  1  0
 23 24  2  0
 23 25  1  0
 25 26  2  0
 25 30  1  0
 26 27  1  0
 27 28  1  0
 28 29  1  0
 29 30  1  0
  4  5  1  0
  5  6  2  0
  6  7  1  0
 17 18  1  0
M  END
>  <minimizedAffinity>  (114) 
-9.18254

$$$$
data/reference_output_2/data/smiles/185537.pdb
     RDKit          3D

 31 34  0  0  0  0  0  0  0  0999 V2000
   71.1873   46.9525   58.4849 C   0  0  0  0  0  0  0  0  0  0  0  0
   71.0385   45.5960   58.4133 C   0  0  0  0  0  0  0  0  0  0  0  0
   71.4586   44.7584   59.4671 C   0  0  0  0  0  0  0  0  0  0  0  0
   72.0322   45.2407   60.6117 C   0  0  0  0  0  0  0  0  0  0  0  0
   72.1768   46.6408   60.6638 C   0  0  0  0  0  0  0  0  0  0  0  0
   71.7671   47.4501   59.6356 C   0  0  0  0  0  0  0  0  0  0  0  0
   72.4735   44.4691   61.7041 N   0  0  0  0  0  0  0  0  0  0  0  0
   71.7337   43.6416   62.5633 C   0  0  0  0  0  0  0  0  0  0  0  0
   70.5045   43.5535   62.3571 O   0  0  0  0  0  0  0  0  0  0  0  0
   72.3417   42.9142   63.6443 N   0  0  0  0  0  0  0  0  0  0  0  0
   71.5930   42.0605   64.5366 C   0  0  0  0  0  0  0  0  0  0  0  0
   72.4119   41.9118   65.7584 C   0  0  0  0  0  0  0  0  0  0  0  0
   72.0873   41.4140   66.9770 C   0  0  0  0  0  0  0  0  0  0  0  0
   73.0230   41.3744   67.9803 C   0  0  0  0  0  0  0  0  0  0  0  0
   74.2836   41.8616   67.6763 C   0  0  0  0  0  0  0  0  0  0  0  0
   74.5821   42.3568   66.4406 N   0  0  0  0  0  0  0  0  0  0  0  0
   73.6700   42.3986   65.4530 C   0  0  0  0  0  0  0  0  0  0  0  0
   73.7014   42.8655   64.0576 C   0  0  0  0  0  0  0  0  0  0  0  0
   69.6479   47.5925   56.5926 N   0  0  0  0  0  0  0  0  0  0  0  0
   70.7641   47.8697   57.4103 C   0  0  0  0  0  0  0  0  0  0  0  0
   71.3958   48.9351   57.1925 O   0  0  0  0  0  0  0  0  0  0  0  0
   69.1951   48.4568   55.5312 C   0  0  0  0  0  0  0  0  0  0  0  0
   69.3807   48.0597   53.0447 C   0  0  0  0  0  0  0  0  0  0  0  0
   69.0257   47.2497   51.9656 C   0  0  0  0  0  0  0  0  0  0  0  0
   68.2276   46.1501   52.1243 C   0  0  0  0  0  0  0  0  0  0  0  0
   67.7494   45.8075   53.3581 C   0  0  0  0  0  0  0  0  0  0  0  0
   68.0919   46.5943   54.4245 C   0  0  0  0  0  0  0  0  0  0  0  0
   68.9118   47.7262   54.2741 C   0  0  0  0  0  0  0  0  0  0  0  0
   69.8479   50.5117   52.4468 N   0  0  0  0  0  0  0  0  0  0  0  0
   70.2090   49.2089   52.8207 C   0  0  0  0  0  0  0  0  0  0  0  0
   71.4799   49.0364   52.9820 O   0  0  0  0  0  0  0  0  0  0  0  0
 29 30  1  0
 30 31  2  0
 30 23  1  0
 23 24  2  0
 23 28  1  0
 24 25  1  0
 25 26  2  0
 26 27  1  0
 27 28  2  0
 28 22  1  0
 22 19  1  0
 19 20  1  0
 20 21  2  0
 20  1  1  0
  1  2  2  0
  1  6  1  0
  2  3  1  0
  3  4  2  0
  4  7  1  0
  4  5  1  0
  7  8  1  0
  8  9  2  0
  8 10  1  0
 10 11  1  0
 10 18  1  0
 11 12  1  0
 12 13  1  0
 12 17  2  0
 13 14  2  0
 14 15  1  0
 15 16  2  0
 16 17  1  0
 17 18  1  0
  5  6  2  0
M  END
>  <minimizedAffinity>  (115) 
-9.17628

$$$$
data/reference_output_2/data/smiles/198908.pdb
     RDKit          3D

 32 35  0  0  0  0  0  0  0  0999 V2000
   70.5476   44.1557   58.8615 C   0  0  0  0  0  0  0  0  0  0  0  0
   70.5888   45.4447   58.5397 C   0  0  0  0  0  0  0  0  0  0  0  0
   71.2841   46.2624   59.3505 N   0  0  0  0  0  0  0  0  0  0  0  0
   71.3239   47.5672   59.0200 C   0  0  0  0  0  0  0  0  0  0  0  0
   71.9652   48.3591   59.7574 O   0  0  0  0  0  0  0  0  0  0  0  0
   70.7012   48.0920   57.9189 C   0  0  0  0  0  0  0  0  0  0  0  0
   70.7329   49.3673   57.5861 C   0  0  0  0  0  0  0  0  0  0  0  0
   70.0073   47.2670   57.1135 N   0  0  0  0  0  0  0  0  0  0  0  0
   69.9510   45.9566   57.4198 C   0  0  0  0  0  0  0  0  0  0  0  0
   69.2987   45.1604   56.6672 O   0  0  0  0  0  0  0  0  0  0  0  0
   70.0374   49.8708   56.3818 C   0  0  0  0  0  0  0  0  0  0  0  0
   69.2616   50.9840   56.4001 C   0  0  0  0  0  0  0  0  0  0  0  0
   68.6541   51.3714   55.2169 C   0  0  0  0  0  0  0  0  0  0  0  0
   68.7992   50.6858   54.0331 C   0  0  0  0  0  0  0  0  0  0  0  0
   69.6016   49.5432   54.0407 C   0  0  0  0  0  0  0  0  0  0  0  0
   70.2164   49.1428   55.2176 C   0  0  0  0  0  0  0  0  0  0  0  0
   69.7473   48.8208   52.7851 C   0  0  0  0  0  0  0  0  0  0  0  0
   70.5908   49.2062   51.9436 O   0  0  0  0  0  0  0  0  0  0  0  0
   68.9332   47.6471   52.4688 C   0  0  0  0  0  0  0  0  0  0  0  0
   68.4362   46.7107   53.3697 C   0  0  0  0  0  0  0  0  0  0  0  0
   67.7260   45.7731   52.6600 C   0  0  0  0  0  0  0  0  0  0  0  0
   67.8146   46.1708   51.3447 C   0  0  0  0  0  0  0  0  0  0  0  0
   68.5236   47.2580   51.2957 O   0  0  0  0  0  0  0  0  0  0  0  0
   72.4597   43.0896   60.0734 C   0  0  0  0  0  0  0  0  0  0  0  0
   72.7894   42.7921   61.3411 N   0  0  0  0  0  0  0  0  0  0  0  0
   71.7644   43.2089   62.1338 C   0  0  0  0  0  0  0  0  0  0  0  0
   70.8181   43.7595   61.3174 N   0  0  0  0  0  0  0  0  0  0  0  0
   71.2377   43.6910   60.0468 C   0  0  0  0  0  0  0  0  0  0  0  0
   74.0290   44.0742   58.5089 C   0  0  0  0  0  0  0  0  0  0  0  0
   73.2864   42.8130   58.8925 C   0  0  0  0  0  0  0  0  0  0  0  0
   74.3523   41.7954   59.2801 C   0  0  0  0  0  0  0  0  0  0  0  0
   72.4803   42.2930   57.7262 C   0  0  0  0  0  0  0  0  0  0  0  0
 29 30  1  0
 30 31  1  0
 30 32  1  0
 30 24  1  0
 24 25  1  0
 24 28  2  0
 25 26  1  0
 26 27  2  0
 27 28  1  0
 28  1  1  0
  1  2  2  0
  2  3  1  0
  2  9  1  0
  3  4  1  0
  4  5  2  0
  4  6  1  0
  6  7  2  0
  6  8  1  0
  7 11  1  0
 11 12  2  0
 11 16  1  0
 12 13  1  0
 13 14  2  0
 14 15  1  0
 15 17  1  0
 15 16  2  0
 17 18  2  0
 17 19  1  0
 19 20  2  0
 19 23  1  0
 20 21  1  0
 21 22  2  0
 22 23  1  0
  8  9  1  0
  9 10  2  0
M  CHG  1  27   1
M  END
>  <minimizedAffinity>  (116) 
-9.17610

$$$$
data/200k_reference_output/data/smiles/10166.pdb
     RDKit          3D

 30 33  0  0  0  0  0  0  0  0999 V2000
   70.6082   49.6214   57.2707 N   0  0  0  0  0  0  0  0  0  0  0  0
   69.3412   50.3886   57.3889 C   0  0  0  0  0  0  0  0  0  0  0  0
   69.5686   51.7958   56.9976 C   0  0  0  0  0  0  0  0  0  0  0  0
   70.7160   51.6180   56.0139 C   0  0  1  0  0  0  0  0  0  0  0  0
   71.4970   50.5051   56.6408 C   0  0  0  0  0  0  0  0  0  0  0  0
   70.5245   45.5253   58.4558 C   0  0  0  0  0  0  0  0  0  0  0  0
   69.8507   45.9647   57.3506 C   0  0  0  0  0  0  0  0  0  0  0  0
   69.9008   47.2937   57.0287 C   0  0  0  0  0  0  0  0  0  0  0  0
   70.5966   48.2695   57.7483 C   0  0  0  0  0  0  0  0  0  0  0  0
   71.2699   47.8181   58.8582 C   0  0  0  0  0  0  0  0  0  0  0  0
   71.9788   48.6878   59.6495 C   0  0  0  0  0  0  0  0  0  0  0  0
   72.6124   48.1900   60.7307 N   0  0  0  0  0  0  0  0  0  0  0  0
   72.5855   46.8976   61.0718 C   0  0  0  0  0  0  0  0  0  0  0  0
   71.8898   46.0670   60.2908 N   0  0  0  0  0  0  0  0  0  0  0  0
   71.2250   46.4511   59.1968 C   0  0  0  0  0  0  0  0  0  0  0  0
   69.4412   43.6488   59.6512 N   0  0  0  0  0  0  0  0  0  0  0  0
   70.4903   44.1192   58.8185 C   0  0  0  0  0  0  0  0  0  0  0  0
   71.3918   43.3651   58.3839 O   0  0  0  0  0  0  0  0  0  0  0  0
   70.1756   51.5056   54.6521 C   0  0  0  0  0  0  0  0  0  0  0  0
   69.5883   50.3227   54.1638 N   0  0  0  0  0  0  0  0  0  0  0  0
   70.1651   49.2478   53.4626 C   0  0  0  0  0  0  0  0  0  0  0  0
   71.3892   49.2938   53.1784 O   0  0  0  0  0  0  0  0  0  0  0  0
   69.3702   48.0686   53.0532 C   0  0  0  0  0  0  0  0  0  0  0  0
   69.0570   47.7754   51.7578 C   0  0  0  0  0  0  0  0  0  0  0  0
   68.2973   46.6341   51.4517 C   0  0  0  0  0  0  0  0  0  0  0  0
   67.8617   45.8019   52.4518 C   0  0  0  0  0  0  0  0  0  0  0  0
   67.1226   44.6922   52.1471 F   0  0  0  0  0  0  0  0  0  0  0  0
   68.1616   46.0709   53.7671 C   0  0  0  0  0  0  0  0  0  0  0  0
   67.7230   45.2348   54.7622 F   0  0  0  0  0  0  0  0  0  0  0  0
   68.9048   47.1922   54.0377 C   0  0  0  0  0  0  0  0  0  0  0  0
 16 17  1  0
 17 18  2  0
 17  6  1  0
  6  7  2  0
  6 15  1  0
  7  8  1  0
  8  9  2  0
  9  1  1  0
  9 10  1  0
  1  2  1  0
  1  5  1  0
  2  3  1  0
  3  4  1  0
  4 19  1  6
  4  5  1  0
 19 20  1  0
 20 21  1  0
 21 22  2  0
 21 23  1  0
 23 24  2  0
 23 30  1  0
 24 25  1  0
 25 26  2  0
 26 27  1  0
 26 28  1  0
 28 29  1  0
 28 30  2  0
 10 11  1  0
 10 15  2  0
 11 12  2  0
 12 13  1  0
 13 14  2  0
 14 15  1  0
M  END
>  <minimizedAffinity>  (117) 
-9.17409

$$$$
data/200k_reference_output/data/smiles/35034.pdb
     RDKit          3D

 28 30  0  0  0  0  0  0  0  0999 V2000
   67.8358   42.0848   56.8331 N   0  0  0  0  0  0  0  0  0  0  0  0
   67.9196   40.6813   56.7617 C   0  0  0  0  0  0  0  0  0  0  0  0
   67.6611   40.1339   55.6709 O   0  0  0  0  0  0  0  0  0  0  0  0
   68.2938   39.8383   57.9052 C   0  0  0  0  0  0  0  0  0  0  0  0
   69.3325   38.9858   57.8548 N   0  0  0  0  0  0  0  0  0  0  0  0
   69.6694   38.2231   58.8930 N   0  0  0  0  0  0  0  0  0  0  0  0
   69.0022   38.2462   60.0613 C   0  0  0  0  0  0  0  0  0  0  0  0
   67.9296   39.1011   60.1656 C   0  0  0  0  0  0  0  0  0  0  0  0
   67.5843   39.8915   59.0858 C   0  0  0  0  0  0  0  0  0  0  0  0
   66.6040   40.6927   59.1392 O   0  0  0  0  0  0  0  0  0  0  0  0
   70.7801   37.3364   58.7847 C   0  0  0  0  0  0  0  0  0  0  0  0
   70.8526   36.1904   59.5300 C   0  0  0  0  0  0  0  0  0  0  0  0
   71.9242   35.3218   59.4340 C   0  0  0  0  0  0  0  0  0  0  0  0
   72.9299   35.6600   58.5476 C   0  0  0  0  0  0  0  0  0  0  0  0
   74.0122   34.8224   58.4243 F   0  0  0  0  0  0  0  0  0  0  0  0
   72.8939   36.8012   57.7816 C   0  0  0  0  0  0  0  0  0  0  0  0
   71.7975   37.6395   57.9149 C   0  0  0  0  0  0  0  0  0  0  0  0
   68.8749   44.5829   56.4975 O   0  0  0  0  0  0  0  0  0  0  0  0
   68.0439   44.1852   55.6122 C   0  0  0  0  0  0  0  0  0  0  0  0
   67.4802   42.8935   55.7486 N   0  0  0  0  0  0  0  0  0  0  0  0
   67.7556   45.0793   54.5608 N   0  0  0  0  0  0  0  0  0  0  0  0
   68.3520   46.3571   54.4812 C   0  0  0  0  0  0  0  0  0  0  0  0
   68.4062   47.2079   55.5598 C   0  0  0  0  0  0  0  0  0  0  0  0
   69.0080   48.4703   55.4384 C   0  0  0  0  0  0  0  0  0  0  0  0
   69.5448   48.8669   54.2515 C   0  0  0  0  0  0  0  0  0  0  0  0
   69.4984   48.0292   53.1669 C   0  0  0  0  0  0  0  0  0  0  0  0
   70.1968   48.5694   51.6581 Cl  0  0  0  0  0  0  0  0  0  0  0  0
   68.8969   46.7726   53.2946 C   0  0  0  0  0  0  0  0  0  0  0  0
 18 19  2  0
 19 20  1  0
 19 21  1  0
 20  1  1  0
  1  2  1  0
  2  3  2  0
  2  4  1  0
  4  5  2  0
  4  9  1  0
  5  6  1  0
  6 11  1  0
  6  7  1  0
 11 12  2  0
 11 17  1  0
 12 13  1  0
 13 14  2  0
 14 15  1  0
 14 16  1  0
 16 17  2  0
  7  8  2  0
  8  9  1  0
  9 10  2  0
 21 22  1  0
 22 23  2  0
 22 28  1  0
 23 24  1  0
 24 25  2  0
 25 26  1  0
 26 27  1  0
 26 28  2  0
M  END
>  <minimizedAffinity>  (118) 
-9.17246

$$$$
data/200k_reference_output/data/smiles/40873.pdb
     RDKit          3D

 33 36  0  0  0  0  0  0  0  0999 V2000
   65.5944   39.9392   60.7686 C   0  0  0  0  0  0  0  0  0  0  0  0
   66.4474   40.4380   59.8766 C   0  0  0  0  0  0  0  0  0  0  0  0
   67.0730   39.6120   59.0188 N   0  0  0  0  0  0  0  0  0  0  0  0
   67.9372   40.1207   58.1147 C   0  0  0  0  0  0  0  0  0  0  0  0
   68.5196   39.3487   57.3155 O   0  0  0  0  0  0  0  0  0  0  0  0
   68.2070   41.4742   58.0394 C   0  0  0  0  0  0  0  0  0  0  0  0
   69.0499   41.9958   57.1624 C   0  0  0  0  0  0  0  0  0  0  0  0
   67.5856   42.3083   58.8944 N   0  0  0  0  0  0  0  0  0  0  0  0
   66.7258   41.7853   59.7899 C   0  0  0  0  0  0  0  0  0  0  0  0
   66.1367   42.5512   60.5959 O   0  0  0  0  0  0  0  0  0  0  0  0
   69.3301   43.4310   57.0872 C   0  0  0  0  0  0  0  0  0  0  0  0
   70.4365   43.9132   57.7896 C   0  0  0  0  0  0  0  0  0  0  0  0
   70.7685   45.2474   57.7709 C   0  0  0  0  0  0  0  0  0  0  0  0
   69.9813   46.1039   57.0391 C   0  0  0  0  0  0  0  0  0  0  0  0
   68.8802   45.6583   56.3334 C   0  0  0  0  0  0  0  0  0  0  0  0
   68.5814   44.3123   56.3781 C   0  0  0  0  0  0  0  0  0  0  0  0
   68.1290   46.5777   55.6149 O   0  0  0  0  0  0  0  0  0  0  0  0
   68.3544   46.6597   54.2384 C   0  0  0  0  0  0  0  0  0  0  0  0
   67.6702   45.8203   53.3774 C   0  0  0  0  0  0  0  0  0  0  0  0
   67.8948   45.9026   52.0110 C   0  0  0  0  0  0  0  0  0  0  0  0
   68.7879   46.8040   51.4811 C   0  0  0  0  0  0  0  0  0  0  0  0
   69.4726   47.6425   52.3328 C   0  0  0  0  0  0  0  0  0  0  0  0
   70.3523   48.5307   51.8109 F   0  0  0  0  0  0  0  0  0  0  0  0
   69.2426   47.5534   53.6812 C   0  0  0  0  0  0  0  0  0  0  0  0
   65.8564   37.6756   61.8042 C   0  0  0  0  0  0  0  0  0  0  0  0
   65.3519   36.4208   61.5976 N   0  0  0  0  0  0  0  0  0  0  0  0
   64.5097   36.4721   60.5670 C   0  0  0  0  0  0  0  0  0  0  0  0
   64.4844   37.7352   60.1343 N   0  0  0  0  0  0  0  0  0  0  0  0
   65.2985   38.5181   60.8643 C   0  0  0  0  0  0  0  0  0  0  0  0
   66.8024   36.9963   63.9608 C   0  0  0  0  0  0  0  0  0  0  0  0
   66.8206   38.0303   62.8517 C   0  0  0  0  0  0  0  0  0  0  0  0
   68.2574   38.0165   62.3084 C   0  0  0  0  0  0  0  0  0  0  0  0
   66.5847   39.3741   63.4691 C   0  0  0  0  0  0  0  0  0  0  0  0
 30 31  1  0
 31 32  1  0
 31 33  1  0
 31 25  1  0
 25 26  1  0
 25 29  2  0
 26 27  1  0
 27 28  2  0
 28 29  1  0
 29  1  1  0
  1  2  2  0
  2  3  1  0
  2  9  1  0
  3  4  1  0
  4  5  2  0
  4  6  1  0
  6  7  2  0
  6  8  1  0
  7 11  1  0
 11 12  2  0
 11 16  1  0
 12 13  1  0
 13 14  2  0
 14 15  1  0
 15 17  1  0
 15 16  2  0
 17 18  1  0
 18 19  2  0
 18 24  1  0
 19 20  1  0
 20 21  2  0
 21 22  1  0
 22 23  1  0
 22 24  2  0
  8  9  1  0
  9 10  2  0
M  CHG  1  28   1
M  END
>  <minimizedAffinity>  (119) 
-9.16871

$$$$
data/200k_reference_output/data/smiles/11282.pdb
     RDKit          3D

 30 32  0  0  0  0  0  0  0  0999 V2000
   67.2389   41.1406   57.8068 C   0  0  0  0  0  0  0  0  0  0  0  0
   66.5082   41.6017   58.8707 C   0  0  0  0  0  0  0  0  0  0  0  0
   66.3698   40.8609   60.0494 C   0  0  0  0  0  0  0  0  0  0  0  0
   66.9637   39.6298   60.1962 C   0  0  0  0  0  0  0  0  0  0  0  0
   67.7039   39.1652   59.1141 C   0  0  0  0  0  0  0  0  0  0  0  0
   67.8347   39.9060   57.9527 C   0  0  0  0  0  0  0  0  0  0  0  0
   67.4030   41.2489   55.4362 O   0  0  0  0  0  0  0  0  0  0  0  0
   67.4176   41.8701   56.5542 C   0  0  0  0  0  0  0  0  0  0  0  0
   67.6126   43.2652   56.4645 N   0  0  0  0  0  0  0  0  0  0  0  0
   67.7809   43.9189   55.2125 N   0  0  0  0  0  0  0  0  0  0  0  0
   68.1629   45.2607   55.1253 C   0  0  0  0  0  0  0  0  0  0  0  0
   68.3420   45.8273   56.2679 O   0  0  0  0  0  0  0  0  0  0  0  0
   68.3718   46.0557   53.9341 C   0  0  0  0  0  0  0  0  0  0  0  0
   69.1835   47.1836   54.0633 C   0  0  0  0  0  0  0  0  0  0  0  0
   69.4582   48.0229   52.9978 C   0  0  0  0  0  0  0  0  0  0  0  0
   68.9340   47.7671   51.7647 C   0  0  0  0  0  0  0  0  0  0  0  0
   68.1410   46.6763   51.6076 C   0  0  0  0  0  0  0  0  0  0  0  0
   67.8713   45.8346   52.6968 C   0  0  0  0  0  0  0  0  0  0  0  0
   67.0672   44.7552   52.4769 O   0  0  0  0  0  0  0  0  0  0  0  0
   66.8285   38.6575   61.6594 S   0  0  0  0  0  0  0  0  0  0  0  0
   67.8783   37.5862   61.6833 O   0  0  0  0  0  0  0  0  0  0  0  0
   67.0575   39.5592   62.8210 O   0  0  0  0  0  0  0  0  0  0  0  0
   65.2592   37.9651   61.7851 N   0  0  0  0  0  0  0  0  0  0  0  0
   64.9201   36.6569   61.3559 C   0  0  0  0  0  0  0  0  0  0  0  0
   65.3622   36.1215   60.1665 C   0  0  0  0  0  0  0  0  0  0  0  0
   64.9958   34.8383   59.8252 C   0  0  0  0  0  0  0  0  0  0  0  0
   64.1979   34.0449   60.6213 C   0  0  0  0  0  0  0  0  0  0  0  0
   63.7529   34.5728   61.8136 C   0  0  0  0  0  0  0  0  0  0  0  0
   64.1123   35.8501   62.1625 C   0  0  0  0  0  0  0  0  0  0  0  0
   63.6789   36.3852   63.3373 F   0  0  0  0  0  0  0  0  0  0  0  0
  7  8  2  0
  8  9  1  0
  8  1  1  0
  9 10  1  0
 10 11  1  0
 11 12  2  0
 11 13  1  0
 13 14  2  0
 13 18  1  0
 14 15  1  0
 15 16  2  0
 16 17  1  0
 17 18  2  0
 18 19  1  0
  1  2  2  0
  1  6  1  0
  2  3  1  0
  3  4  2  0
  4 20  1  0
  4  5  1  0
 20 21  2  0
 20 22  2  0
 20 23  1  0
 23 24  1  0
 24 25  2  0
 24 29  1  0
 25 26  1  0
 26 27  2  0
 27 28  1  0
 28 29  2  0
 29 30  1  0
  5  6  2  0
M  END
>  <minimizedAffinity>  (120) 
-9.16694

$$$$
data/200k_reference_output/data/smiles/83973.pdb
     RDKit          3D

 31 34  0  0  0  0  0  0  0  0999 V2000
   71.5170   47.2418   58.8425 C   0  0  0  0  0  0  0  0  0  0  0  0
   70.5033   47.7985   58.1002 C   0  0  0  0  0  0  0  0  0  0  0  0
   69.7090   46.9820   57.3006 C   0  0  0  0  0  0  0  0  0  0  0  0
   69.9511   45.6278   57.2671 C   0  0  0  0  0  0  0  0  0  0  0  0
   70.9756   45.0621   58.0168 C   0  0  0  0  0  0  0  0  0  0  0  0
   71.7456   45.8747   58.7954 C   0  0  0  0  0  0  0  0  0  0  0  0
   72.7635   45.3510   59.5466 F   0  0  0  0  0  0  0  0  0  0  0  0
   73.1864   52.2875   57.5329 C   0  0  0  0  0  0  0  0  0  0  0  0
   72.9459   52.1818   56.2340 O   0  0  0  0  0  0  0  0  0  0  0  0
   73.8346   51.1918   58.0801 N   0  0  0  0  0  0  0  0  0  0  0  0
   74.1820   50.0756   57.1693 C   0  0  0  0  0  0  0  0  0  0  0  0
   73.6549   48.7591   57.6674 C   0  0  0  0  0  0  0  0  0  0  0  0
   73.4267   48.7843   59.0977 N   0  0  0  0  0  0  0  0  0  0  0  0
   72.3870   48.0488   59.6848 C   0  0  0  0  0  0  0  0  0  0  0  0
   72.1675   48.0544   60.9208 O   0  0  0  0  0  0  0  0  0  0  0  0
   74.3421   49.6188   59.8765 C   0  0  0  0  0  0  0  0  0  0  0  0
   74.1710   51.0879   59.4699 C   0  0  0  0  0  0  0  0  0  0  0  0
   73.6813   54.6322   58.3590 C   0  0  0  0  0  0  0  0  0  0  0  0
   72.7224   53.5284   58.1210 C   0  0  0  0  0  0  0  0  0  0  0  0
   68.6130   47.5598   56.4783 C   0  0  0  0  0  0  0  0  0  0  0  0
   69.1621   47.9248   55.1539 C   0  0  0  0  0  0  0  0  0  0  0  0
   70.1007   48.9131   55.0389 N   0  0  0  0  0  0  0  0  0  0  0  0
   70.6187   49.2694   53.8822 N   0  0  0  0  0  0  0  0  0  0  0  0
   70.2513   48.6773   52.7385 C   0  0  0  0  0  0  0  0  0  0  0  0
   70.7393   49.0065   51.6111 O   0  0  0  0  0  0  0  0  0  0  0  0
   69.3026   47.6578   52.7387 C   0  0  0  0  0  0  0  0  0  0  0  0
   68.9115   47.0389   51.5732 C   0  0  0  0  0  0  0  0  0  0  0  0
   67.9680   46.0375   51.6309 C   0  0  0  0  0  0  0  0  0  0  0  0
   67.4290   45.6667   52.8400 C   0  0  0  0  0  0  0  0  0  0  0  0
   67.8410   46.3084   54.0023 C   0  0  0  0  0  0  0  0  0  0  0  0
   68.7795   47.3110   53.9810 C   0  0  0  0  0  0  0  0  0  0  0  0
 18 19  1  0
 19  8  1  0
  8  9  2  0
  8 10  1  0
 10 11  1  0
 10 17  1  0
 11 12  1  0
 12 13  1  0
 13 14  1  0
 13 16  1  0
 14 15  2  0
 14  1  1  0
  1  2  2  0
  1  6  1  0
  2  3  1  0
  3 20  1  0
  3  4  2  0
 20 21  1  0
 21 22  2  0
 21 31  1  0
 22 23  1  0
 23 24  1  0
 24 25  2  0
 24 26  1  0
 26 27  1  0
 26 31  2  0
 27 28  2  0
 28 29  1  0
 29 30  2  0
 30 31  1  0
  4  5  1  0
  5  6  2  0
  6  7  1  0
 16 17  1  0
M  END
>  <minimizedAffinity>  (121) 
-9.15720

$$$$
data/reference_output_2/data/smiles/88497.pdb
     RDKit          3D

 29 31  0  0  0  0  0  0  0  0999 V2000
   68.7487   46.8300   54.2829 C   0  0  0  0  0  0  0  0  0  0  0  0
   69.4560   47.9764   54.5817 C   0  0  0  0  0  0  0  0  0  0  0  0
   69.8869   48.8860   53.6374 C   0  0  0  0  0  0  0  0  0  0  0  0
   69.5755   48.6066   52.3222 C   0  0  0  0  0  0  0  0  0  0  0  0
   68.8698   47.4748   51.9581 C   0  0  0  0  0  0  0  0  0  0  0  0
   68.4594   46.5899   52.9546 C   0  0  0  0  0  0  0  0  0  0  0  0
   67.5604   45.1334   52.5699 Cl  0  0  0  0  0  0  0  0  0  0  0  0
   68.1435   44.5056   55.0984 N   0  0  0  0  0  0  0  0  0  0  0  0
   68.3127   45.8955   55.3291 C   0  0  0  0  0  0  0  0  0  0  0  0
   68.0699   46.3161   56.4907 O   0  0  0  0  0  0  0  0  0  0  0  0
   69.9193   43.0193   56.5693 O   0  0  0  0  0  0  0  0  0  0  0  0
   68.6779   42.8603   56.8307 C   0  0  0  0  0  0  0  0  0  0  0  0
   67.7290   43.6113   56.0927 N   0  0  0  0  0  0  0  0  0  0  0  0
   68.3326   41.9115   57.8785 C   0  0  0  0  0  0  0  0  0  0  0  0
   68.4013   42.2522   59.2059 C   0  0  0  0  0  0  0  0  0  0  0  0
   68.0584   41.3052   60.1688 C   0  0  0  0  0  0  0  0  0  0  0  0
   67.6557   40.0432   59.8584 C   0  0  0  0  0  0  0  0  0  0  0  0
   67.5855   39.6951   58.5196 C   0  0  0  0  0  0  0  0  0  0  0  0
   67.9227   40.6294   57.5651 C   0  0  0  0  0  0  0  0  0  0  0  0
   67.8430   40.2532   56.2306 O   0  0  0  0  0  0  0  0  0  0  0  0
   70.7769   50.3166   54.0838 S   0  0  0  0  0  0  0  0  0  0  0  0
   72.2458   49.9944   53.8759 O   0  0  0  0  0  0  0  0  0  0  0  0
   70.4617   51.4637   53.1757 O   0  0  0  0  0  0  0  0  0  0  0  0
   70.5748   50.7035   55.7379 N   0  0  0  0  0  0  0  0  0  0  0  0
   69.2713   51.2186   56.0514 C   0  0  0  0  0  0  0  0  0  0  0  0
   69.0589   52.6350   55.5734 C   0  0  0  0  0  0  0  0  0  0  0  0
   70.1222   53.4980   56.2273 C   0  0  0  0  0  0  0  0  0  0  0  0
   71.4648   52.9932   55.7624 C   0  0  0  0  0  0  0  0  0  0  0  0
   71.6192   51.5563   56.2026 C   0  0  0  0  0  0  0  0  0  0  0  0
 11 12  2  0
 12 13  1  0
 12 14  1  0
 13  8  1  0
  8  9  1  0
  9 10  2  0
  9  1  1  0
  1  2  2  0
  1  6  1  0
  2  3  1  0
  3 21  1  0
  3  4  2  0
 21 22  2  0
 21 23  2  0
 21 24  1  0
 24 25  1  0
 24 29  1  0
 25 26  1  0
 26 27  1  0
 27 28  1  0
 28 29  1  0
  4  5  1  0
  5  6  2  0
  6  7  1  0
 14 15  2  0
 14 19  1  0
 15 16  1  0
 16 17  2  0
 17 18  1  0
 18 19  2  0
 19 20  1  0
M  END
>  <minimizedAffinity>  (122) 
-9.13913

$$$$
data/reference_output_2/data/smiles/182778.pdb
     RDKit          3D

 31 35  0  0  0  0  0  0  0  0999 V2000
   71.4609   47.1533   58.8041 C   0  0  0  0  0  0  0  0  0  0  0  0
   70.6253   47.9293   57.9915 C   0  0  0  0  0  0  0  0  0  0  0  0
   69.7486   47.4196   57.0978 C   0  0  0  0  0  0  0  0  0  0  0  0
   69.6637   46.0222   56.9709 C   0  0  0  0  0  0  0  0  0  0  0  0
   70.4623   45.2303   57.7484 C   0  0  0  0  0  0  0  0  0  0  0  0
   71.3589   45.7914   58.6631 C   0  0  0  0  0  0  0  0  0  0  0  0
   72.1050   44.9574   59.3859 F   0  0  0  0  0  0  0  0  0  0  0  0
   72.0441   47.8155   60.9839 O   0  0  0  0  0  0  0  0  0  0  0  0
   72.3844   47.7110   59.7525 C   0  0  0  0  0  0  0  0  0  0  0  0
   73.6986   48.1775   59.4317 N   0  0  0  0  0  0  0  0  0  0  0  0
   74.2092   48.1006   58.0734 C   0  0  0  0  0  0  0  0  0  0  0  0
   75.7389   47.9906   58.1341 C   0  0  0  0  0  0  0  0  0  0  0  0
   76.0672   47.3155   59.3239 N   0  0  0  0  0  0  0  0  0  0  0  0
   75.9709   48.2523   60.4189 C   0  0  0  0  0  0  0  0  0  0  0  0
   74.5495   48.7507   60.4496 C   0  0  0  0  0  0  0  0  0  0  0  0
   77.1657   46.4468   59.3958 C   0  0  0  0  0  0  0  0  0  0  0  0
   76.9506   44.9895   59.4785 C   0  0  0  0  0  0  0  0  0  0  0  0
   75.9679   44.1692   58.7945 C   0  0  0  0  0  0  0  0  0  0  0  0
   75.8247   44.4277   60.2990 C   0  0  0  0  0  0  0  0  0  0  0  0
   68.8313   48.1633   56.2029 C   0  0  0  0  0  0  0  0  0  0  0  0
   69.2933   48.2594   54.8138 C   0  0  0  0  0  0  0  0  0  0  0  0
   70.1965   49.2075   54.4938 N   0  0  0  0  0  0  0  0  0  0  0  0
   70.6073   49.4013   53.2791 N   0  0  0  0  0  0  0  0  0  0  0  0
   70.1408   48.6514   52.2805 C   0  0  0  0  0  0  0  0  0  0  0  0
   70.5450   48.8485   51.1109 O   0  0  0  0  0  0  0  0  0  0  0  0
   69.2232   47.6673   52.5313 C   0  0  0  0  0  0  0  0  0  0  0  0
   68.7498   46.8722   51.5035 C   0  0  0  0  0  0  0  0  0  0  0  0
   67.8482   45.8864   51.7965 C   0  0  0  0  0  0  0  0  0  0  0  0
   67.4014   45.6638   53.0846 C   0  0  0  0  0  0  0  0  0  0  0  0
   67.8742   46.4558   54.0955 C   0  0  0  0  0  0  0  0  0  0  0  0
   68.7817   47.4576   53.8345 C   0  0  0  0  0  0  0  0  0  0  0  0
  8  9  2  0
  9  1  1  0
  9 10  1  0
  1  2  2  0
  1  6  1  0
  2  3  1  0
  3 20  1  0
  3  4  2  0
 20 21  1  0
 21 22  2  0
 21 31  1  0
 22 23  1  0
 23 24  1  0
 24 25  2  0
 24 26  1  0
 26 27  1  0
 26 31  2  0
 27 28  2  0
 28 29  1  0
 29 30  2  0
 30 31  1  0
  4  5  1  0
  5  6  2  0
  6  7  1  0
 10 11  1  0
 10 15  1  0
 11 12  1  0
 12 13  1  0
 13 16  1  0
 13 14  1  0
 16 17  1  0
 17 18  1  0
 17 19  1  0
 18 19  1  0
 14 15  1  0
M  CHG  1  13   1
M  END
>  <minimizedAffinity>  (123) 
-9.13586

$$$$
data/reference_output_2/data/smiles/118039.pdb
     RDKit          3D

 28 30  0  0  0  0  0  0  0  0999 V2000
   71.1577   50.6243   58.1102 C   0  0  0  0  0  0  0  0  0  0  0  0
   70.0582   50.8647   57.0771 C   0  0  1  0  0  0  0  0  0  0  0  0
   68.7501   50.3983   57.6748 C   0  0  0  0  0  0  0  0  0  0  0  0
   68.2452   51.6952   57.0786 C   0  0  0  0  0  0  0  0  0  0  0  0
   69.6205   52.2152   56.9930 N   0  0  0  0  0  0  0  0  0  0  0  0
   70.1273   53.5062   56.8847 C   0  0  0  0  0  0  0  0  0  0  0  0
   69.2604   54.4769   56.8456 O   0  0  0  0  0  0  0  0  0  0  0  0
   71.5060   53.9251   56.8069 C   0  0  0  0  0  0  0  0  0  0  0  0
   72.0684   54.1397   55.5434 C   0  0  0  0  0  0  0  0  0  0  0  0
   73.3752   54.5337   55.3992 C   0  0  0  0  0  0  0  0  0  0  0  0
   74.1545   54.7248   56.5147 C   0  0  0  0  0  0  0  0  0  0  0  0
   73.6344   54.5238   57.7711 C   0  0  0  0  0  0  0  0  0  0  0  0
   74.3732   54.7022   58.9016 F   0  0  0  0  0  0  0  0  0  0  0  0
   72.3022   54.1227   57.9039 C   0  0  0  0  0  0  0  0  0  0  0  0
   70.4573   50.1776   55.8278 C   0  0  0  0  0  0  0  0  0  0  0  0
   71.5065   49.4392   55.8223 O   0  0  0  0  0  0  0  0  0  0  0  0
   69.6966   50.3313   54.6489 N   0  0  0  0  0  0  0  0  0  0  0  0
   70.1108   49.5543   53.1640 S   0  0  0  0  0  0  0  0  0  0  0  0
   71.5813   49.2426   53.1648 O   0  0  0  0  0  0  0  0  0  0  0  0
   69.8167   50.4600   52.0183 O   0  0  0  0  0  0  0  0  0  0  0  0
   69.1969   48.0675   52.9246 C   0  0  0  0  0  0  0  0  0  0  0  0
   68.9375   47.5582   51.6695 C   0  0  0  0  0  0  0  0  0  0  0  0
   68.2080   46.3786   51.5198 C   0  0  0  0  0  0  0  0  0  0  0  0
   67.7195   45.6779   52.6031 C   0  0  0  0  0  0  0  0  0  0  0  0
   67.0133   44.5370   52.4348 F   0  0  0  0  0  0  0  0  0  0  0  0
   67.9911   46.2066   53.8493 C   0  0  0  0  0  0  0  0  0  0  0  0
   68.7080   47.3659   54.0102 C   0  0  0  0  0  0  0  0  0  0  0  0
   68.9298   47.8231   55.2559 F   0  0  0  0  0  0  0  0  0  0  0  0
  2  1  1  1
  2 15  1  0
  2  3  1  0
  2  5  1  0
 15 16  2  0
 15 17  1  0
 17 18  1  0
 18 19  2  0
 18 20  2  0
 18 21  1  0
 21 22  2  0
 21 27  1  0
 22 23  1  0
 23 24  2  0
 24 25  1  0
 24 26  1  0
 26 27  2  0
 27 28  1  0
  3  4  1  0
  4  5  1  0
  5  6  1  0
  6  7  2  0
  6  8  1  0
  8  9  2  0
  8 14  1  0
  9 10  1  0
 10 11  2  0
 11 12  1  0
 12 13  1  0
 12 14  2  0
M  END
>  <minimizedAffinity>  (124) 
-9.13585

$$$$
data/200k_reference_output/data/smiles/48054.pdb
     RDKit          3D

 29 33  0  0  0  0  0  0  0  0999 V2000
   69.4967   46.3086   57.2350 C   0  0  0  0  0  0  0  0  0  0  0  0
   69.2214   45.0380   56.9407 N   0  0  0  0  0  0  0  0  0  0  0  0
   70.0497   44.2415   57.6230 N   0  0  0  0  0  0  0  0  0  0  0  0
   70.8757   44.9985   58.3700 C   0  0  0  0  0  0  0  0  0  0  0  0
   71.9110   44.7563   59.2531 C   0  0  0  0  0  0  0  0  0  0  0  0
   72.5967   45.7658   59.8889 C   0  0  0  0  0  0  0  0  0  0  0  0
   72.2570   47.0732   59.6525 C   0  0  0  0  0  0  0  0  0  0  0  0
   71.2353   47.3327   58.7811 C   0  0  0  0  0  0  0  0  0  0  0  0
   70.5611   46.3180   58.1553 C   0  0  0  0  0  0  0  0  0  0  0  0
   69.0709   48.8837   57.5309 O   0  0  0  0  0  0  0  0  0  0  0  0
   68.7283   47.7192   56.6330 S   0  0  0  0  0  0  0  0  0  0  0  0
   67.2141   47.5828   56.7219 O   0  0  0  0  0  0  0  0  0  0  0  0
   69.1831   48.1670   55.0047 C   0  0  0  0  0  0  0  0  0  0  0  0
   70.0012   49.2469   54.7678 C   0  0  0  0  0  0  0  0  0  0  0  0
   70.3946   49.5557   53.5030 C   0  0  0  0  0  0  0  0  0  0  0  0
   69.9957   48.8108   52.4224 C   0  0  0  0  0  0  0  0  0  0  0  0
   69.1607   47.7093   52.6494 C   0  0  0  0  0  0  0  0  0  0  0  0
   68.7432   46.9658   51.5662 C   0  0  0  0  0  0  0  0  0  0  0  0
   67.9130   45.8921   51.7534 C   0  0  0  0  0  0  0  0  0  0  0  0
   67.5097   45.5759   53.0248 C   0  0  0  0  0  0  0  0  0  0  0  0
   67.9284   46.3201   54.1044 C   0  0  0  0  0  0  0  0  0  0  0  0
   68.7653   47.4049   53.9505 C   0  0  0  0  0  0  0  0  0  0  0  0
   72.9447   48.1891   60.2964 C   0  0  0  0  0  0  0  0  0  0  0  0
   74.2301   48.5191   59.8248 N   0  0  0  0  0  0  0  0  0  0  0  0
   74.9506   49.5517   60.4600 C   0  0  0  0  0  0  0  0  0  0  0  0
   74.9181   50.8813   59.7415 C   0  0  0  0  0  0  0  0  0  0  0  0
   75.2031   50.7318   58.3252 N   0  0  0  0  0  0  0  0  0  0  0  0
   74.4377   49.6901   57.7123 C   0  0  0  0  0  0  0  0  0  0  0  0
   74.4957   48.3924   58.4430 C   0  0  0  0  0  0  0  0  0  0  0  0
 10 11  2  0
 11 12  2  0
 11 13  1  0
 11  1  1  0
 13 14  2  0
 13 22  1  0
 14 15  1  0
 15 16  2  0
 16 17  1  0
 17 18  1  0
 17 22  2  0
 18 19  2  0
 19 20  1  0
 20 21  2  0
 21 22  1  0
  1  2  2  0
  1  9  1  0
  2  3  1  0
  3  4  1  0
  4  5  1  0
  4  9  2  0
  5  6  2  0
  6  7  1  0
  7 23  1  0
  7  8  2  0
 23 24  1  0
 24 25  1  0
 24 29  1  0
 25 26  1  0
 26 27  1  0
 27 28  1  0
 28 29  1  0
  8  9  1  0
M  CHG  2  24   1  27   1
M  END
>  <minimizedAffinity>  (125) 
-9.12361

$$$$
data/reference_output_2/data/smiles/181798.pdb
     RDKit          3D

 32 35  0  0  0  0  0  0  0  0999 V2000
   72.2766   41.5716   59.9702 C   0  0  2  0  0  0  0  0  0  0  0  0
   72.7690   40.1764   59.6589 C   0  0  0  0  0  0  0  0  0  0  0  0
   73.2433   38.8629   59.3529 C   0  0  0  0  0  0  0  0  0  0  0  0
   73.3856   38.4565   59.2514 C   0  0  0  0  0  0  0  0  0  0  0  0
   72.2113   37.3584   58.3990 C   0  0  0  0  0  0  0  0  0  0  0  0
   71.3848   38.1511   58.4048 C   0  0  0  0  0  0  0  0  0  0  0  0
   70.4903   39.0266   58.3958 C   0  0  0  0  0  0  0  0  0  0  0  0
   69.5107   39.9896   58.3637 C   0  0  0  0  0  0  0  0  0  0  0  0
   70.2500   41.3293   58.4084 C   0  0  1  0  0  0  0  0  0  0  0  0
   69.2782   42.4098   58.8869 C   0  0  0  0  0  0  0  0  0  0  0  0
   68.1083   42.6873   59.0393 O   0  0  0  0  0  0  0  0  0  0  0  0
   70.5280   43.0975   59.1383 N   0  0  0  0  0  0  0  0  0  0  0  0
   70.8894   44.3931   58.8731 C   0  0  0  0  0  0  0  0  0  0  0  0
   72.0336   44.9181   59.0695 O   0  0  0  0  0  0  0  0  0  0  0  0
   69.9623   45.3794   58.3154 N   0  0  0  0  0  0  0  0  0  0  0  0
   70.9060   41.7589   59.6550 C   0  0  2  0  0  0  0  0  0  0  0  0
   73.2828   42.4744   59.6008 O   0  0  0  0  0  0  0  0  0  0  0  0
   75.4904   42.2844   58.3745 C   0  0  0  0  0  0  0  0  0  0  0  0
   74.0062   42.3872   58.3775 C   0  0  0  0  0  0  0  0  0  0  0  0
   73.3657   42.4073   57.3187 O   0  0  0  0  0  0  0  0  0  0  0  0
   70.3202   46.7016   58.0426 C   0  0  0  0  0  0  0  0  0  0  0  0
   69.3122   47.5873   57.4060 C   0  0  0  0  0  0  0  0  0  0  0  0
   69.2100   47.5719   55.9294 C   0  0  0  0  0  0  0  0  0  0  0  0
   69.7217   48.5025   55.1077 C   0  0  0  0  0  0  0  0  0  0  0  0
   69.5439   48.4355   53.7200 C   0  0  0  0  0  0  0  0  0  0  0  0
   68.8393   47.4026   53.1498 C   0  0  0  0  0  0  0  0  0  0  0  0
   68.6351   47.3085   51.7456 C   0  0  0  0  0  0  0  0  0  0  0  0
   67.9251   46.2510   51.2894 C   0  0  0  0  0  0  0  0  0  0  0  0
   67.3859   45.2634   52.1219 C   0  0  0  0  0  0  0  0  0  0  0  0
   67.5899   45.3757   53.4434 C   0  0  0  0  0  0  0  0  0  0  0  0
   68.3183   46.4421   53.9873 C   0  0  0  0  0  0  0  0  0  0  0  0
   68.4855   46.5059   55.3467 C   0  0  0  0  0  0  0  0  0  0  0  0
 18 19  1  0
 19 20  2  0
 19 17  1  0
  1 17  1  6
  1  2  1  0
  1 16  1  0
  2  3  3  0
  3  4  1  0
  4  5  2  0
  5  6  1  0
  6  7  3  0
  7  8  1  0
  9  8  1  1
  9 10  1  0
  9 16  1  0
 10 11  2  0
 10 12  1  0
 12 13  1  0
 16 12  1  6
 13 14  2  0
 13 15  1  0
 15 21  1  0
 21 22  1  0
 22 23  1  0
 23 24  2  0
 23 32  1  0
 24 25  1  0
 25 26  2  0
 26 27  1  0
 26 31  1  0
 27 28  2  0
 28 29  1  0
 29 30  2  0
 30 31  1  0
 31 32  2  0
M  END
>  <minimizedAffinity>  (126) 
-9.12255

$$$$
data/reference_output_2/data/smiles/180736.pdb
     RDKit          3D

 30 33  0  0  0  0  0  0  0  0999 V2000
   71.8464   40.7334   58.4885 C   0  0  0  0  0  0  0  0  0  0  0  0
   70.6314   41.2040   58.0673 C   0  0  0  0  0  0  0  0  0  0  0  0
   70.3489   42.5683   57.9962 C   0  0  0  0  0  0  0  0  0  0  0  0
   71.2811   43.5222   58.3472 C   0  0  0  0  0  0  0  0  0  0  0  0
   72.5085   43.0580   58.7717 C   0  0  0  0  0  0  0  0  0  0  0  0
   72.7875   41.7116   58.8422 C   0  0  0  0  0  0  0  0  0  0  0  0
   71.4086   38.3187   57.9914 N   0  0  0  0  0  0  0  0  0  0  0  0
   72.1999   39.3255   58.5837 C   0  0  0  0  0  0  0  0  0  0  0  0
   73.2304   38.9322   59.1989 O   0  0  0  0  0  0  0  0  0  0  0  0
   70.3693   36.7067   59.9998 N   0  0  0  0  0  0  0  0  0  0  0  0
   71.2563   36.1049   59.0671 C   0  0  0  0  0  0  0  0  0  0  0  0
   71.5963   34.7597   59.1482 C   0  0  0  0  0  0  0  0  0  0  0  0
   72.4550   34.2177   58.2271 C   0  0  0  0  0  0  0  0  0  0  0  0
   72.9697   35.0197   57.2295 C   0  0  0  0  0  0  0  0  0  0  0  0
   72.6152   36.3732   57.1642 C   0  0  0  0  0  0  0  0  0  0  0  0
   71.7549   36.9252   58.0839 C   0  0  0  0  0  0  0  0  0  0  0  0
   70.9822   44.9781   58.2595 C   0  0  0  0  0  0  0  0  0  0  0  0
   69.7935   45.2775   57.4913 N   0  0  0  0  0  0  0  0  0  0  0  0
   69.4495   46.5582   56.9950 C   0  0  0  0  0  0  0  0  0  0  0  0
   70.3059   47.5062   56.8204 N   0  0  0  0  0  0  0  0  0  0  0  0
   69.6723   48.6752   56.3122 C   0  0  0  0  0  0  0  0  0  0  0  0
   70.0823   49.8597   56.3347 O   0  0  0  0  0  0  0  0  0  0  0  0
   68.3768   48.1639   55.7325 C   0  0  2  0  0  0  0  0  0  0  0  0
   68.1403   47.0312   56.6111 N   0  0  0  0  0  0  0  0  0  0  0  0
   68.6399   47.7147   54.3490 C   0  0  0  0  0  0  0  0  0  0  0  0
   67.9785   46.6138   53.8579 C   0  0  0  0  0  0  0  0  0  0  0  0
   68.1893   46.1485   52.5576 C   0  0  0  0  0  0  0  0  0  0  0  0
   69.0805   46.8033   51.7437 C   0  0  0  0  0  0  0  0  0  0  0  0
   69.7475   47.8995   52.2139 C   0  0  0  0  0  0  0  0  0  0  0  0
   69.5332   48.3511   53.4943 C   0  0  0  0  0  0  0  0  0  0  0  0
 10 11  1  0
 11 12  2  0
 11 16  1  0
 12 13  1  0
 13 14  2  0
 14 15  1  0
 15 16  2  0
 16  7  1  0
  7  8  1  0
  8  9  2  0
  8  1  1  0
  1  2  2  0
  1  6  1  0
  2  3  1  0
  3  4  2  0
  4 17  1  0
  4  5  1  0
 17 18  1  0
 18 19  1  0
 19 20  2  0
 19 24  1  0
 20 21  1  0
 21 22  2  0
 21 23  1  0
 23 25  1  6
 23 24  1  0
 25 26  2  0
 25 30  1  0
 26 27  1  0
 27 28  2  0
 28 29  1  0
 29 30  2  0
  5  6  2  0
M  CHG  1  20   1
M  END
>  <minimizedAffinity>  (127) 
-9.11836

$$$$
data/reference_output_2/data/smiles/167783.pdb
     RDKit          3D

 33 37  0  0  0  0  0  0  0  0999 V2000
   71.1132   46.4632   58.5892 C   0  0  0  0  0  0  0  0  0  0  0  0
   70.0744   46.7794   57.7459 C   0  0  0  0  0  0  0  0  0  0  0  0
   69.6064   48.0616   57.5204 C   0  0  0  0  0  0  0  0  0  0  0  0
   70.2293   49.0876   58.1880 C   0  0  0  0  0  0  0  0  0  0  0  0
   71.2932   48.8193   59.0594 C   0  0  0  0  0  0  0  0  0  0  0  0
   71.7197   47.5155   59.2480 C   0  0  0  0  0  0  0  0  0  0  0  0
   72.7400   47.2893   60.0880 F   0  0  0  0  0  0  0  0  0  0  0  0
   73.8548   45.3126   58.0915 O   0  0  0  0  0  0  0  0  0  0  0  0
   72.8620   44.6279   58.5350 C   0  0  0  0  0  0  0  0  0  0  0  0
   72.8519   43.2541   58.8671 N   0  0  0  0  0  0  0  0  0  0  0  0
   71.4846   42.7947   58.8956 C   0  0  1  0  0  0  0  0  0  0  0  0
   70.7706   44.0322   59.2647 C   0  0  0  0  0  0  0  0  0  0  0  0
   69.6896   44.1444   59.8791 O   0  0  0  0  0  0  0  0  0  0  0  0
   71.5516   45.1198   58.7855 N   0  0  0  0  0  0  0  0  0  0  0  0
   71.1338   42.3507   57.4878 C   0  0  0  0  0  0  0  0  0  0  0  0
   69.6997   42.0926   57.3221 C   0  0  0  0  0  0  0  0  0  0  0  0
   69.0915   41.0516   57.9687 C   0  0  0  0  0  0  0  0  0  0  0  0
   67.7406   40.8547   57.7762 C   0  0  0  0  0  0  0  0  0  0  0  0
   66.9829   41.6745   56.9523 C   0  0  0  0  0  0  0  0  0  0  0  0
   67.5888   42.7141   56.3067 C   0  0  0  0  0  0  0  0  0  0  0  0
   68.9585   42.9148   56.4995 C   0  0  0  0  0  0  0  0  0  0  0  0
   68.4791   48.2532   56.5618 C   0  0  0  0  0  0  0  0  0  0  0  0
   69.0495   48.4001   55.2103 C   0  0  0  0  0  0  0  0  0  0  0  0
   69.9710   49.3746   54.9702 N   0  0  0  0  0  0  0  0  0  0  0  0
   70.5269   49.5166   53.7840 N   0  0  0  0  0  0  0  0  0  0  0  0
   70.2355   48.7268   52.7366 C   0  0  0  0  0  0  0  0  0  0  0  0
   70.7712   48.8714   51.6155 O   0  0  0  0  0  0  0  0  0  0  0  0
   69.3025   47.7121   52.9118 C   0  0  0  0  0  0  0  0  0  0  0  0
   68.7390   47.5870   54.1526 C   0  0  0  0  0  0  0  0  0  0  0  0
   67.7549   46.5733   54.3307 N   0  0  0  0  0  0  0  0  0  0  0  0
   67.7434   45.4577   53.4101 C   0  0  0  0  0  0  0  0  0  0  0  0
   67.7845   45.9768   51.9833 C   0  0  0  0  0  0  0  0  0  0  0  0
   68.9908   46.8434   51.7782 C   0  0  0  0  0  0  0  0  0  0  0  0
  8  9  2  0
  9 10  1  0
  9 14  1  0
 10 11  1  0
 11 15  1  6
 11 12  1  0
 15 16  1  0
 16 17  2  0
 16 21  1  0
 17 18  1  0
 18 19  2  0
 19 20  1  0
 20 21  2  0
 12 13  2  0
 12 14  1  0
 14  1  1  0
  1  2  2  0
  1  6  1  0
  2  3  1  0
  3 22  1  0
  3  4  2  0
 22 23  1  0
 23 24  2  0
 23 29  1  0
 24 25  1  0
 25 26  1  0
 26 27  2  0
 26 28  1  0
 28 29  2  0
 28 33  1  0
 29 30  1  0
 30 31  1  0
 31 32  1  0
 32 33  1  0
  4  5  1  0
  5  6  2  0
  6  7  1  0
M  END
>  <minimizedAffinity>  (128) 
-9.11613

$$$$
data/200k_reference_output/data/smiles/28463.pdb
     RDKit          3D

 28 30  0  0  0  0  0  0  0  0999 V2000
   68.5556   44.1001   56.6310 N   0  0  0  0  0  0  0  0  0  0  0  0
   67.9869   42.8170   56.6117 C   0  0  0  0  0  0  0  0  0  0  0  0
   67.3648   42.4891   55.5711 O   0  0  0  0  0  0  0  0  0  0  0  0
   68.0751   41.8922   57.6756 N   0  0  0  0  0  0  0  0  0  0  0  0
   67.4588   40.6033   57.5580 C   0  0  0  0  0  0  0  0  0  0  0  0
   68.3310   39.4380   57.8700 C   0  0  0  0  0  0  0  0  0  0  0  0
   69.3564   39.8601   58.8257 N   0  0  0  0  0  0  0  0  0  0  0  0
   68.9940   40.9458   59.7140 C   0  0  0  0  0  0  0  0  0  0  0  0
   68.7746   42.2088   58.8962 C   0  0  0  0  0  0  0  0  0  0  0  0
   70.5817   39.1898   58.8205 C   0  0  0  0  0  0  0  0  0  0  0  0
   71.7377   39.8568   59.1410 C   0  0  0  0  0  0  0  0  0  0  0  0
   72.9738   39.2101   59.1521 C   0  0  0  0  0  0  0  0  0  0  0  0
   73.0428   37.8861   58.8397 C   0  0  0  0  0  0  0  0  0  0  0  0
   74.6176   37.1080   58.8655 Cl  0  0  0  0  0  0  0  0  0  0  0  0
   71.9025   37.2062   58.5178 C   0  0  0  0  0  0  0  0  0  0  0  0
   72.0368   35.5056   58.1226 Cl  0  0  0  0  0  0  0  0  0  0  0  0
   70.6580   37.8580   58.5070 C   0  0  0  0  0  0  0  0  0  0  0  0
   68.5831   47.2609   53.7584 C   0  0  0  0  0  0  0  0  0  0  0  0
   68.0594   46.0333   53.4336 C   0  0  0  0  0  0  0  0  0  0  0  0
   68.0426   44.9822   54.3693 C   0  0  0  0  0  0  0  0  0  0  0  0
   68.5366   45.1053   55.6415 C   0  0  0  0  0  0  0  0  0  0  0  0
   69.0671   46.3728   55.9490 C   0  0  0  0  0  0  0  0  0  0  0  0
   69.0830   47.3955   55.0362 C   0  0  0  0  0  0  0  0  0  0  0  0
   68.6101   48.3200   52.8477 O   0  0  0  0  0  0  0  0  0  0  0  0
   71.3702   48.9758   52.8501 N   0  0  0  0  0  0  0  0  0  0  0  0
   69.9924   48.6654   51.9085 S   0  0  0  0  0  0  0  0  0  0  0  0
   70.2516   47.5053   51.0054 O   0  0  0  0  0  0  0  0  0  0  0  0
   69.7067   49.8953   51.0785 O   0  0  0  0  0  0  0  0  0  0  0  0
 25 26  1  0
 26 27  2  0
 26 28  2  0
 26 24  1  0
 24 18  1  0
 18 19  2  0
 18 23  1  0
 19 20  1  0
 20 21  2  0
 21  1  1  0
 21 22  1  0
  1  2  1  0
  2  3  2  0
  2  4  1  0
  4  5  1  0
  4  9  1  0
  5  6  1  0
  6  7  1  0
  7 10  1  0
  7  8  1  0
 10 11  2  0
 10 17  1  0
 11 12  1  0
 12 13  2  0
 13 14  1  0
 13 15  1  0
 15 16  1  0
 15 17  2  0
  8  9  1  0
 22 23  2  0
M  END
>  <minimizedAffinity>  (129) 
-9.11460

$$$$
data/reference_output_2/data/smiles/194755.pdb
     RDKit          3D

 28 30  0  0  0  0  0  0  0  0999 V2000
   69.7288   44.5094   59.0812 O   0  0  0  0  0  0  0  0  0  0  0  0
   69.5244   44.2008   57.8924 C   0  0  0  0  0  0  0  0  0  0  0  0
   69.7329   45.1597   56.8838 N   0  0  0  0  0  0  0  0  0  0  0  0
   69.0783   42.8702   57.5527 C   0  0  0  0  0  0  0  0  0  0  0  0
   68.1184   42.7199   56.5401 C   0  0  0  0  0  0  0  0  0  0  0  0
   67.6488   41.4848   56.1646 C   0  0  0  0  0  0  0  0  0  0  0  0
   66.7216   41.3958   55.1808 F   0  0  0  0  0  0  0  0  0  0  0  0
   68.1323   40.3440   56.8023 C   0  0  0  0  0  0  0  0  0  0  0  0
   69.0771   40.4366   57.8057 C   0  0  0  0  0  0  0  0  0  0  0  0
   69.5057   41.7131   58.1313 C   0  0  0  0  0  0  0  0  0  0  0  0
   69.5789   39.2448   58.4677 C   0  0  0  0  0  0  0  0  0  0  0  0
   70.8395   38.7440   58.2382 C   0  0  0  0  0  0  0  0  0  0  0  0
   71.3127   37.6049   58.8743 C   0  0  0  0  0  0  0  0  0  0  0  0
   70.4889   36.9427   59.7739 C   0  0  0  0  0  0  0  0  0  0  0  0
   69.2218   37.4264   60.0188 C   0  0  0  0  0  0  0  0  0  0  0  0
   68.7787   38.5738   59.3630 C   0  0  0  0  0  0  0  0  0  0  0  0
   70.1731   46.4750   57.2098 N   0  0  0  0  0  0  0  0  0  0  0  0
   69.0220   47.6390   56.7098 S   0  0  0  0  0  0  0  0  0  0  0  0
   67.6195   47.1112   56.7891 O   0  0  0  0  0  0  0  0  0  0  0  0
   69.0679   48.8690   57.5847 O   0  0  0  0  0  0  0  0  0  0  0  0
   69.3586   48.0542   55.0358 C   0  0  0  0  0  0  0  0  0  0  0  0
   70.0298   49.1994   54.6792 C   0  0  0  0  0  0  0  0  0  0  0  0
   70.3070   49.5437   53.3599 C   0  0  0  0  0  0  0  0  0  0  0  0
   69.8845   48.6900   52.3636 C   0  0  0  0  0  0  0  0  0  0  0  0
   70.1567   49.0265   51.0465 O   0  0  0  0  0  0  0  0  0  0  0  0
   69.2045   47.5293   52.7096 C   0  0  0  0  0  0  0  0  0  0  0  0
   68.9390   47.2023   54.0169 C   0  0  0  0  0  0  0  0  0  0  0  0
   68.2754   46.0645   54.3144 F   0  0  0  0  0  0  0  0  0  0  0  0
  1  2  2  0
  2  3  1  0
  2  4  1  0
  3 17  1  0
 17 18  1  0
 18 19  2  0
 18 20  2  0
 18 21  1  0
 21 22  2  0
 21 27  1  0
 22 23  1  0
 23 24  2  0
 24 25  1  0
 24 26  1  0
 26 27  2  0
 27 28  1  0
  4  5  2  0
  4 10  1  0
  5  6  1  0
  6  7  1  0
  6  8  2  0
  8  9  1  0
  9 11  1  0
  9 10  2  0
 11 12  2  0
 11 16  1  0
 12 13  1  0
 13 14  2  0
 14 15  1  0
 15 16  2  0
M  END
>  <minimizedAffinity>  (130) 
-9.10792

$$$$
data/reference_output_2/data/smiles/115691.pdb
     RDKit          3D

 31 35  0  0  0  0  0  0  0  0999 V2000
   71.4783   48.8989   57.5407 C   0  0  0  0  0  0  0  0  0  0  0  0
   70.0092   48.6836   57.5501 C   0  0  0  0  0  0  0  0  0  0  0  0
   69.0815   49.6407   57.2227 C   0  0  0  0  0  0  0  0  0  0  0  0
   67.8561   48.9588   57.3184 C   0  0  0  0  0  0  0  0  0  0  0  0
   68.1096   47.6921   57.6830 N   0  0  0  0  0  0  0  0  0  0  0  0
   69.4174   47.5119   57.8275 N   0  0  0  0  0  0  0  0  0  0  0  0
   70.0335   46.2838   58.2045 C   0  0  0  0  0  0  0  0  0  0  0  0
   69.7492   45.1224   57.6003 N   0  0  0  0  0  0  0  0  0  0  0  0
   70.3323   43.9306   57.9514 C   0  0  0  0  0  0  0  0  0  0  0  0
   71.2494   43.8894   58.9581 C   0  0  0  0  0  0  0  0  0  0  0  0
   71.5422   45.1138   59.5885 C   0  0  0  0  0  0  0  0  0  0  0  0
   72.3884   45.0801   60.5192 O   0  0  0  0  0  0  0  0  0  0  0  0
   70.9374   46.2462   59.1980 N   0  0  0  0  0  0  0  0  0  0  0  0
   71.7469   42.5192   59.1706 C   0  0  0  0  0  0  0  0  0  0  0  0
   71.2453   41.7546   57.9856 C   0  0  0  0  0  0  0  0  0  0  0  0
   70.1348   42.5605   57.3926 C   0  0  0  0  0  0  0  0  0  0  0  0
   69.2782   51.0338   56.9025 C   0  0  0  0  0  0  0  0  0  0  0  0
   69.4489   51.8332   57.9022 O   0  0  0  0  0  0  0  0  0  0  0  0
   69.3078   51.5761   55.6263 N   0  0  0  0  0  0  0  0  0  0  0  0
   69.5058   53.0503   55.5268 C   0  0  0  0  0  0  0  0  0  0  0  0
   69.2054   50.8844   54.3993 C   0  0  0  0  0  0  0  0  0  0  0  0
   70.2400   49.9112   53.9911 C   0  0  0  0  0  0  0  0  0  0  0  0
   69.9011   48.8585   53.0426 C   0  0  0  0  0  0  0  0  0  0  0  0
   70.3235   48.7293   51.7153 C   0  0  0  0  0  0  0  0  0  0  0  0
   69.8311   47.5826   51.2125 N   0  0  0  0  0  0  0  0  0  0  0  0
   69.1064   46.9560   52.1462 C   0  0  0  0  0  0  0  0  0  0  0  0
   68.4155   45.7742   52.1242 C   0  0  0  0  0  0  0  0  0  0  0  0
   67.7350   45.3277   53.2290 C   0  0  0  0  0  0  0  0  0  0  0  0
   67.7599   46.1031   54.3889 C   0  0  0  0  0  0  0  0  0  0  0  0
   68.4551   47.2936   54.4161 C   0  0  0  0  0  0  0  0  0  0  0  0
   69.1296   47.7189   53.2904 C   0  0  0  0  0  0  0  0  0  0  0  0
  1  2  1  0
  2  3  2  0
  2  6  1  0
  3 17  1  0
  3  4  1  0
 17 18  2  0
 17 19  1  0
 19 20  1  0
 19 21  1  0
 21 22  1  0
 22 23  1  0
 23 24  2  0
 23 31  1  0
 24 25  1  0
 25 26  1  0
 26 27  1  0
 26 31  2  0
 27 28  2  0
 28 29  1  0
 29 30  2  0
 30 31  1  0
  4  5  2  0
  5  6  1  0
  6  7  1  0
  7  8  2  0
  7 13  1  0
  8  9  1  0
  9 10  2  0
  9 16  1  0
 10 11  1  0
 10 14  1  0
 11 12  2  0
 11 13  1  0
 14 15  1  0
 15 16  1  0
M  END
>  <minimizedAffinity>  (131) 
-9.10765

$$$$
data/reference_output_2/data/smiles/119912.pdb
     RDKit          3D

 30 33  0  0  0  0  0  0  0  0999 V2000
   69.7031   38.7187   61.8582 C   0  0  0  0  0  0  0  0  0  0  0  0
   70.0874   38.8589   60.5002 N   0  0  0  0  0  0  0  0  0  0  0  0
   69.9190   40.1113   59.8146 C   0  0  0  0  0  0  0  0  0  0  0  0
   69.1397   40.8967   60.4258 O   0  0  0  0  0  0  0  0  0  0  0  0
   70.5281   40.5579   58.5364 C   0  0  2  0  0  0  0  0  0  0  0  0
   71.9614   40.1033   58.4584 C   0  0  0  0  0  0  0  0  0  0  0  0
   72.0718   38.7317   58.1092 O   0  0  0  0  0  0  0  0  0  0  0  0
   71.5307   37.6379   58.8138 C   0  0  0  0  0  0  0  0  0  0  0  0
   71.9445   36.4120   58.3708 C   0  0  0  0  0  0  0  0  0  0  0  0
   71.4866   35.2432   58.9765 C   0  0  0  0  0  0  0  0  0  0  0  0
   71.9024   34.0309   58.5311 F   0  0  0  0  0  0  0  0  0  0  0  0
   70.6037   35.2805   60.0403 C   0  0  0  0  0  0  0  0  0  0  0  0
   70.2054   36.5304   60.4635 C   0  0  0  0  0  0  0  0  0  0  0  0
   69.3399   36.6390   61.4950 F   0  0  0  0  0  0  0  0  0  0  0  0
   70.6399   37.7029   59.8855 C   0  0  0  0  0  0  0  0  0  0  0  0
   70.4257   41.9956   58.4114 N   0  0  0  0  0  0  0  0  0  0  0  0
   69.5988   42.6205   57.4541 C   0  0  0  0  0  0  0  0  0  0  0  0
   68.9204   41.9249   56.6746 O   0  0  0  0  0  0  0  0  0  0  0  0
   69.5109   44.0743   57.3464 C   0  0  0  0  0  0  0  0  0  0  0  0
   69.9554   44.9804   58.2669 N   0  0  0  0  0  0  0  0  0  0  0  0
   69.6968   46.1882   57.8079 N   0  0  0  0  0  0  0  0  0  0  0  0
   69.0943   46.0858   56.6122 C   0  0  0  0  0  0  0  0  0  0  0  0
   68.9881   44.7914   56.3428 N   0  0  0  0  0  0  0  0  0  0  0  0
   68.6656   47.2647   55.8166 C   0  0  0  0  0  0  0  0  0  0  0  0
   68.5600   46.9991   54.3803 C   0  0  0  0  0  0  0  0  0  0  0  0
   67.7655   46.0133   53.8277 C   0  0  0  0  0  0  0  0  0  0  0  0
   67.7209   45.8246   52.4432 C   0  0  0  0  0  0  0  0  0  0  0  0
   68.4679   46.6161   51.5976 C   0  0  0  0  0  0  0  0  0  0  0  0
   69.2628   47.6010   52.1364 C   0  0  0  0  0  0  0  0  0  0  0  0
   69.2912   47.7689   53.4992 C   0  0  0  0  0  0  0  0  0  0  0  0
  1  2  1  0
  2  3  1  0
  2 15  1  0
  3  4  2  0
  3  5  1  0
  5 16  1  1
  5  6  1  0
 16 17  1  0
 17 18  2  0
 17 19  1  0
 19 20  2  0
 19 23  1  0
 20 21  1  0
 21 22  1  0
 22 24  1  0
 22 23  2  0
 24 25  1  0
 25 26  2  0
 25 30  1  0
 26 27  1  0
 27 28  2  0
 28 29  1  0
 29 30  2  0
  6  7  1  0
  7  8  1  0
  8  9  2  0
  8 15  1  0
  9 10  1  0
 10 11  1  0
 10 12  2  0
 12 13  1  0
 13 14  1  0
 13 15  2  0
M  END
>  <minimizedAffinity>  (132) 
-9.10692

$$$$
data/200k_reference_output/data/smiles/54006.pdb
     RDKit          3D

 30 33  0  0  0  0  0  0  0  0999 V2000
   71.3246   46.4960   59.1498 C   0  0  0  0  0  0  0  0  0  0  0  0
   72.4570   47.3226   59.0584 C   0  0  0  0  0  0  0  0  0  0  0  0
   72.4950   48.4455   58.2924 C   0  0  0  0  0  0  0  0  0  0  0  0
   71.3914   48.8312   57.5531 C   0  0  0  0  0  0  0  0  0  0  0  0
   70.2657   48.0563   57.6098 C   0  0  0  0  0  0  0  0  0  0  0  0
   70.2711   46.9080   58.4112 C   0  0  0  0  0  0  0  0  0  0  0  0
   71.5736   44.0228   59.6153 C   0  0  0  0  0  0  0  0  0  0  0  0
   71.6622   43.7537   58.4049 O   0  0  0  0  0  0  0  0  0  0  0  0
   71.4093   45.3761   59.9721 N   0  0  0  0  0  0  0  0  0  0  0  0
   66.9268   41.5634   62.4248 C   0  0  0  0  0  0  0  0  0  0  0  0
   68.2415   41.8375   63.0201 C   0  0  0  0  0  0  0  0  0  0  0  0
   68.3604   41.6505   64.2696 O   0  0  0  0  0  0  0  0  0  0  0  0
   69.3633   42.2930   62.2817 N   0  0  0  0  0  0  0  0  0  0  0  0
   69.2659   42.5184   60.8546 C   0  0  0  0  0  0  0  0  0  0  0  0
   70.5441   41.9405   60.2541 C   0  0  0  0  0  0  0  0  0  0  0  0
   71.6477   42.9142   60.5990 C   0  0  0  0  0  0  0  0  0  0  0  0
   71.5325   43.4034   62.0217 C   0  0  0  0  0  0  0  0  0  0  0  0
   70.6479   42.5569   62.8896 C   0  0  0  0  0  0  0  0  0  0  0  0
   69.0719   48.4144   56.8441 C   0  0  0  0  0  0  0  0  0  0  0  0
   68.7297   47.5409   55.7224 C   0  0  0  0  0  0  0  0  0  0  0  0
   68.0296   46.3859   55.9790 N   0  0  0  0  0  0  0  0  0  0  0  0
   67.7223   45.5930   54.9841 N   0  0  0  0  0  0  0  0  0  0  0  0
   68.0457   45.8287   53.7172 C   0  0  0  0  0  0  0  0  0  0  0  0
   67.7277   45.0332   52.7924 O   0  0  0  0  0  0  0  0  0  0  0  0
   68.7648   46.9986   53.3904 C   0  0  0  0  0  0  0  0  0  0  0  0
   69.0962   47.8421   54.4225 C   0  0  0  0  0  0  0  0  0  0  0  0
   69.8494   49.1057   54.1677 C   0  0  0  0  0  0  0  0  0  0  0  0
   69.6230   49.5336   52.7242 C   0  0  0  0  0  0  0  0  0  0  0  0
   70.0709   48.3697   51.8533 C   0  0  0  0  0  0  0  0  0  0  0  0
   69.1021   47.2371   51.9725 C   0  0  0  0  0  0  0  0  0  0  0  0
 10 11  1  0
 11 12  2  0
 11 13  1  0
 13 14  1  0
 13 18  1  0
 14 15  1  0
 15 16  1  0
 16  7  1  0
 16 17  1  0
  7  8  2  0
  7  9  1  0
  9  1  1  0
  1  2  2  0
  1  6  1  0
  2  3  1  0
  3  4  2  0
  4  5  1  0
  5 19  1  0
  5  6  2  0
 19 20  1  0
 20 21  2  0
 20 26  1  0
 21 22  1  0
 22 23  1  0
 23 24  2  0
 23 25  1  0
 25 26  2  0
 25 30  1  0
 26 27  1  0
 27 28  1  0
 28 29  1  0
 29 30  1  0
 17 18  1  0
M  END
>  <minimizedAffinity>  (133) 
-9.10324

$$$$
data/reference_output_2/data/smiles/200016.pdb
     RDKit          3D

 31 34  0  0  0  0  0  0  0  0999 V2000
   69.3076   44.3944   57.0326 N   0  0  0  0  0  0  0  0  0  0  0  0
   70.3738   43.6866   57.6589 C   0  0  0  0  0  0  0  0  0  0  0  0
   71.3881   44.3464   57.9909 O   0  0  0  0  0  0  0  0  0  0  0  0
   68.6392   46.4364   55.8627 C   0  0  0  0  0  0  0  0  0  0  0  0
   67.8100   45.7595   55.2055 O   0  0  0  0  0  0  0  0  0  0  0  0
   69.4351   45.7672   56.8195 N   0  0  0  0  0  0  0  0  0  0  0  0
   68.3699   51.1674   57.3659 C   0  0  0  0  0  0  0  0  0  0  0  0
   68.6266   50.1432   56.3139 C   0  0  0  0  0  0  0  0  0  0  0  0
   68.5096   48.8053   56.6063 C   0  0  0  0  0  0  0  0  0  0  0  0
   68.7491   47.8763   55.6159 C   0  0  0  0  0  0  0  0  0  0  0  0
   69.0987   48.3378   54.3641 C   0  0  0  0  0  0  0  0  0  0  0  0
   69.3509   47.4483   53.3253 C   0  0  0  0  0  0  0  0  0  0  0  0
   69.6957   47.9212   52.0857 C   0  0  0  0  0  0  0  0  0  0  0  0
   69.8125   49.2615   51.7930 C   0  0  0  0  0  0  0  0  0  0  0  0
   69.5666   50.1537   52.8093 C   0  0  0  0  0  0  0  0  0  0  0  0
   69.2166   49.6875   54.0674 C   0  0  0  0  0  0  0  0  0  0  0  0
   68.9678   50.5487   55.0839 N   0  0  0  0  0  0  0  0  0  0  0  0
   70.2011   42.2339   57.8690 C   0  0  0  0  0  0  0  0  0  0  0  0
   71.2332   41.6822   58.8342 C   0  0  0  0  0  0  0  0  0  0  0  0
   71.0710   40.2908   59.0783 N   0  0  0  0  0  0  0  0  0  0  0  0
   69.7204   39.8494   58.8218 C   0  0  0  0  0  0  0  0  0  0  0  0
   69.6114   38.3442   59.0235 C   0  0  0  0  0  0  0  0  0  0  0  0
   70.8919   37.8206   59.4188 N   0  0  0  0  0  0  0  0  0  0  0  0
   71.5306   38.4131   60.5737 C   0  0  0  0  0  0  0  0  0  0  0  0
   71.5197   39.9451   60.3970 C   0  0  0  0  0  0  0  0  0  0  0  0
   71.5227   36.7939   58.7115 C   0  0  0  0  0  0  0  0  0  0  0  0
   72.2301   36.9769   57.5254 C   0  0  0  0  0  0  0  0  0  0  0  0
   72.8301   35.9488   56.8311 C   0  0  0  0  0  0  0  0  0  0  0  0
   72.7397   34.6582   57.3165 C   0  0  0  0  0  0  0  0  0  0  0  0
   72.0493   34.4262   58.4875 C   0  0  0  0  0  0  0  0  0  0  0  0
   71.4558   35.4929   59.1618 C   0  0  0  0  0  0  0  0  0  0  0  0
  7  8  1  0
  8  9  2  0
  8 17  1  0
  9 10  1  0
 10  4  1  0
 10 11  2  0
  4  5  2  0
  4  6  1  0
  6  1  1  0
  1  2  1  0
  2  3  2  0
  2 18  1  0
 18 19  1  0
 19 20  1  0
 20 21  1  0
 20 25  1  0
 21 22  1  0
 22 23  1  0
 23 26  1  0
 23 24  1  0
 26 27  2  0
 26 31  1  0
 27 28  1  0
 28 29  2  0
 29 30  1  0
 30 31  2  0
 24 25  1  0
 11 12  1  0
 11 16  1  0
 12 13  2  0
 13 14  1  0
 14 15  2  0
 15 16  1  0
 16 17  2  0
M  CHG  1  20   1
M  END
>  <minimizedAffinity>  (134) 
-9.10276

$$$$
data/reference_output_2/data/smiles/201215.pdb
     RDKit          3D

 31 34  0  0  0  0  0  0  0  0999 V2000
   70.9138   41.7768   58.1127 N   0  0  0  0  0  0  0  0  0  0  0  0
   69.5351   41.6480   57.6999 C   0  0  0  0  0  0  0  0  0  0  0  0
   69.1128   43.0493   57.3269 C   0  0  0  0  0  0  0  0  0  0  0  0
   70.0382   43.9168   58.1595 C   0  0  1  0  0  0  0  0  0  0  0  0
   69.6595   43.8474   59.5060 O   0  0  0  0  0  0  0  0  0  0  0  0
   71.2934   43.1419   58.0363 C   0  0  0  0  0  0  0  0  0  0  0  0
   72.4864   43.5163   57.8929 O   0  0  0  0  0  0  0  0  0  0  0  0
   75.4314   37.7183   60.5062 C   0  0  0  0  0  0  0  0  0  0  0  0
   74.2234   37.4408   59.7814 N   0  0  0  0  0  0  0  0  0  0  0  0
   73.8249   36.1001   59.4907 C   0  0  0  0  0  0  0  0  0  0  0  0
   74.5930   35.1345   59.4363 O   0  0  0  0  0  0  0  0  0  0  0  0
   72.3756   35.9244   59.2476 C   0  0  0  0  0  0  0  0  0  0  0  0
   71.8482   36.9117   58.2519 C   0  0  0  0  0  0  0  0  0  0  0  0
   72.2349   38.2840   58.6284 C   0  0  0  0  0  0  0  0  0  0  0  0
   71.4317   39.3765   58.2371 C   0  0  0  0  0  0  0  0  0  0  0  0
   71.7547   40.6781   58.5260 C   0  0  0  0  0  0  0  0  0  0  0  0
   72.9201   40.8944   59.2295 C   0  0  0  0  0  0  0  0  0  0  0  0
   73.7149   39.8347   59.6190 C   0  0  0  0  0  0  0  0  0  0  0  0
   73.3888   38.5244   59.3288 C   0  0  0  0  0  0  0  0  0  0  0  0
   70.1326   45.2901   57.6652 C   0  0  0  0  0  0  0  0  0  0  0  0
   71.1471   45.9694   57.9524 O   0  0  0  0  0  0  0  0  0  0  0  0
   69.1227   45.8579   56.8860 N   0  0  0  0  0  0  0  0  0  0  0  0
   69.1077   47.2035   56.3495 C   0  0  0  0  0  0  0  0  0  0  0  0
   68.9183   47.1115   54.8795 C   0  0  0  0  0  0  0  0  0  0  0  0
   68.1550   46.0584   54.3785 C   0  0  0  0  0  0  0  0  0  0  0  0
   67.9251   45.8856   53.0229 C   0  0  0  0  0  0  0  0  0  0  0  0
   67.1796   44.8512   52.5743 F   0  0  0  0  0  0  0  0  0  0  0  0
   68.4612   46.7717   52.1376 C   0  0  0  0  0  0  0  0  0  0  0  0
   69.2163   47.8183   52.5913 C   0  0  0  0  0  0  0  0  0  0  0  0
   69.9005   48.9547   51.4344 Cl  0  0  0  0  0  0  0  0  0  0  0  0
   69.4347   47.9735   53.9567 C   0  0  0  0  0  0  0  0  0  0  0  0
  8  9  1  0
  9 10  1  0
  9 19  1  0
 10 11  2  0
 10 12  1  0
 12 13  1  0
 13 14  1  0
 14 15  1  0
 14 19  2  0
 15 16  2  0
 16  1  1  0
 16 17  1  0
  1  2  1  0
  1  6  1  0
  2  3  1  0
  3  4  1  0
  4  5  1  1
  4 20  1  0
  4  6  1  0
 20 21  2  0
 20 22  1  0
 22 23  1  0
 23 24  1  0
 24 25  2  0
 24 31  1  0
 25 26  1  0
 26 27  1  0
 26 28  2  0
 28 29  1  0
 29 30  1  0
 29 31  2  0
  6  7  2  0
 17 18  2  0
 18 19  1  0
M  END
>  <minimizedAffinity>  (135) 
-9.09654

$$$$
data/reference_output_2/data/smiles/105265.pdb
     RDKit          3D

 32 36  0  0  0  0  0  0  0  0999 V2000
   69.2726   39.6279   59.0550 S   0  0  0  0  0  0  0  0  0  0  0  0
   68.3598   39.6604   60.2234 O   0  0  0  0  0  0  0  0  0  0  0  0
   69.0885   38.2686   58.3911 O   0  0  0  0  0  0  0  0  0  0  0  0
   71.2904   39.2064   60.7057 C   0  0  1  0  0  0  0  0  0  0  0  0
   70.8327   37.7600   60.8593 C   0  0  0  0  0  0  0  0  0  0  0  0
   71.3540   37.0131   59.7124 C   0  0  0  0  0  0  0  0  0  0  0  0
   71.4474   35.6249   59.7520 C   0  0  0  0  0  0  0  0  0  0  0  0
   71.9312   34.9160   58.6904 C   0  0  0  0  0  0  0  0  0  0  0  0
   72.3420   35.5658   57.5454 C   0  0  0  0  0  0  0  0  0  0  0  0
   72.2472   36.9409   57.5131 C   0  0  0  0  0  0  0  0  0  0  0  0
   71.7618   37.6612   58.5751 C   0  0  0  0  0  0  0  0  0  0  0  0
   71.7114   39.1460   58.4126 C   0  0  0  0  0  0  0  0  0  0  0  0
   70.9271   39.7710   59.4554 N   0  0  0  0  0  0  0  0  0  0  0  0
   70.9451   41.2879   61.7882 O   0  0  0  0  0  0  0  0  0  0  0  0
   70.8539   40.0355   61.8684 C   0  0  0  0  0  0  0  0  0  0  0  0
   70.3432   39.4826   63.0563 N   0  0  0  0  0  0  0  0  0  0  0  0
   69.9545   40.2744   64.1003 O   0  0  0  0  0  0  0  0  0  0  0  0
   68.7523   40.8180   57.9003 C   0  0  0  0  0  0  0  0  0  0  0  0
   67.7944   40.5110   56.9646 C   0  0  0  0  0  0  0  0  0  0  0  0
   67.4334   41.5058   56.0833 C   0  0  0  0  0  0  0  0  0  0  0  0
   68.0045   42.7590   56.1292 C   0  0  0  0  0  0  0  0  0  0  0  0
   67.8089   43.8590   55.3828 N   0  0  0  0  0  0  0  0  0  0  0  0
   68.6304   44.8119   55.8550 C   0  0  0  0  0  0  0  0  0  0  0  0
   69.3481   44.3466   56.8866 N   0  0  0  0  0  0  0  0  0  0  0  0
   68.9720   43.0691   57.0720 C   0  0  0  0  0  0  0  0  0  0  0  0
   69.3346   42.0670   57.9603 C   0  0  0  0  0  0  0  0  0  0  0  0
   68.7459   46.1673   55.3381 C   0  0  0  0  0  0  0  0  0  0  0  0
   68.5330   46.4199   54.0014 C   0  0  0  0  0  0  0  0  0  0  0  0
   68.6371   47.6989   53.4879 C   0  0  0  0  0  0  0  0  0  0  0  0
   68.9596   48.7534   54.3227 C   0  0  0  0  0  0  0  0  0  0  0  0
   69.1769   48.5220   55.6667 C   0  0  0  0  0  0  0  0  0  0  0  0
   69.0652   47.2371   56.1436 C   0  0  0  0  0  0  0  0  0  0  0  0
 14 15  2  0
 15 16  1  0
  4 15  1  1
 16 17  1  0
  4  5  1  0
  4 13  1  0
  5  6  1  0
  6  7  1  0
  6 11  2  0
  7  8  2  0
  8  9  1  0
  9 10  2  0
 10 11  1  0
 11 12  1  0
 12 13  1  0
 13  1  1  0
  1  2  2  0
  1  3  2  0
  1 18  1  0
 18 19  2  0
 18 26  1  0
 19 20  1  0
 20 21  2  0
 21 22  1  0
 21 25  1  0
 22 23  1  0
 23 27  1  0
 23 24  2  0
 27 28  2  0
 27 32  1  0
 28 29  1  0
 29 30  2  0
 30 31  1  0
 31 32  2  0
 24 25  1  0
 25 26  2  0
M  CHG  1  24   1
M  END
>  <minimizedAffinity>  (136) 
-9.09632

$$$$
data/reference_output_2/data/smiles/130912.pdb
     RDKit          3D

 30 33  0  0  0  0  0  0  0  0999 V2000
   72.0232   45.8962   58.5657 C   0  0  0  0  0  0  0  0  0  0  0  0
   71.9547   47.2676   58.4812 C   0  0  0  0  0  0  0  0  0  0  0  0
   70.8935   47.9146   57.8344 C   0  0  0  0  0  0  0  0  0  0  0  0
   69.8728   47.1994   57.2567 C   0  0  0  0  0  0  0  0  0  0  0  0
   69.9286   45.8169   57.3350 C   0  0  0  0  0  0  0  0  0  0  0  0
   70.9765   45.1877   57.9729 C   0  0  0  0  0  0  0  0  0  0  0  0
   68.5284   47.9671   56.4330 S   0  0  0  0  0  0  0  0  0  0  0  0
   68.6743   49.4732   56.4556 O   0  0  0  0  0  0  0  0  0  0  0  0
   67.2221   47.6068   57.0306 O   0  0  0  0  0  0  0  0  0  0  0  0
   68.6084   47.4739   54.7490 C   0  0  0  0  0  0  0  0  0  0  0  0
   67.8930   46.4083   54.3038 C   0  0  0  0  0  0  0  0  0  0  0  0
   67.9388   46.0019   52.9859 C   0  0  0  0  0  0  0  0  0  0  0  0
   67.2368   44.9490   52.5259 F   0  0  0  0  0  0  0  0  0  0  0  0
   68.7395   46.6963   52.0776 C   0  0  0  0  0  0  0  0  0  0  0  0
   69.4554   47.7746   52.5569 C   0  0  0  0  0  0  0  0  0  0  0  0
   70.2474   48.4713   51.6872 F   0  0  0  0  0  0  0  0  0  0  0  0
   69.4066   48.1785   53.8759 C   0  0  0  0  0  0  0  0  0  0  0  0
   73.1359   45.1893   59.2421 C   0  0  0  0  0  0  0  0  0  0  0  0
   73.8980   45.4474   61.9666 O   0  0  0  0  0  0  0  0  0  0  0  0
   73.0696   44.5238   61.6942 C   0  0  0  0  0  0  0  0  0  0  0  0
   72.6853   44.3912   60.3375 N   0  0  0  0  0  0  0  0  0  0  0  0
   72.5642   43.6637   62.7665 C   0  0  0  0  0  0  0  0  0  0  0  0
   71.3157   43.0946   62.6139 C   0  0  0  0  0  0  0  0  0  0  0  0
   70.7496   42.2888   63.5326 N   0  0  0  0  0  0  0  0  0  0  0  0
   71.3867   41.9877   64.6791 C   0  0  0  0  0  0  0  0  0  0  0  0
   71.0667   41.2307   65.7413 N   0  0  0  0  0  0  0  0  0  0  0  0
   72.0788   41.2877   66.5982 N   0  0  0  0  0  0  0  0  0  0  0  0
   73.0518   42.0815   66.0869 C   0  0  0  0  0  0  0  0  0  0  0  0
   72.6356   42.5455   64.8539 C   0  0  0  0  0  0  0  0  0  0  0  0
   73.2406   43.3805   63.9202 C   0  0  0  0  0  0  0  0  0  0  0  0
 19 20  2  0
 20 21  1  0
 20 22  1  0
 21 18  1  0
 18  1  1  0
  1  2  2  0
  1  6  1  0
  2  3  1  0
  3  4  2  0
  4  7  1  0
  4  5  1  0
  7  8  2  0
  7  9  2  0
  7 10  1  0
 10 11  2  0
 10 17  1  0
 11 12  1  0
 12 13  1  0
 12 14  2  0
 14 15  1  0
 15 16  1  0
 15 17  2  0
  5  6  2  0
 22 23  2  0
 22 30  1  0
 23 24  1  0
 24 25  2  0
 25 26  1  0
 25 29  1  0
 26 27  1  0
 27 28  2  0
 28 29  1  0
 29 30  2  0
M  END
>  <minimizedAffinity>  (137) 
-9.09485

$$$$
data/200k_reference_output/data/smiles/8415.pdb
     RDKit          3D

 31 35  0  0  0  0  0  0  0  0999 V2000
   70.9530   44.0665   57.7497 C   0  0  0  0  0  0  0  0  0  0  0  0
   72.2908   44.2570   57.9998 C   0  0  0  0  0  0  0  0  0  0  0  0
   73.1143   43.2233   58.4172 C   0  0  0  0  0  0  0  0  0  0  0  0
   72.6157   41.9511   58.6025 C   0  0  0  0  0  0  0  0  0  0  0  0
   71.2610   41.7339   58.3560 C   0  0  0  0  0  0  0  0  0  0  0  0
   70.4575   42.8108   57.9313 C   0  0  0  0  0  0  0  0  0  0  0  0
   69.2309   42.3294   57.7742 N   0  0  0  0  0  0  0  0  0  0  0  0
   69.1927   41.0211   58.0686 C   0  0  0  0  0  0  0  0  0  0  0  0
   68.1050   40.1395   58.0372 C   0  0  0  0  0  0  0  0  0  0  0  0
   68.2933   38.8270   58.3885 C   0  0  0  0  0  0  0  0  0  0  0  0
   69.5552   38.4375   58.7567 C   0  0  0  0  0  0  0  0  0  0  0  0
   70.6307   39.3123   58.7846 C   0  0  0  0  0  0  0  0  0  0  0  0
   70.4607   40.6252   58.4375 C   0  0  0  0  0  0  0  0  0  0  0  0
   73.6641   41.0656   59.0351 C   0  0  0  0  0  0  0  0  0  0  0  0
   73.6958   39.8582   59.3231 O   0  0  0  0  0  0  0  0  0  0  0  0
   74.8740   41.8480   59.1179 N   0  0  0  0  0  0  0  0  0  0  0  0
   74.5316   43.1589   58.7404 C   0  0  0  0  0  0  0  0  0  0  0  0
   75.2699   44.2036   58.6581 O   0  0  0  0  0  0  0  0  0  0  0  0
   69.1278   45.1158   56.2972 N   0  0  0  0  0  0  0  0  0  0  0  0
   70.1118   45.1734   57.3086 C   0  0  0  0  0  0  0  0  0  0  0  0
   70.2528   46.3045   57.8679 O   0  0  0  0  0  0  0  0  0  0  0  0
   68.2881   46.2299   55.8808 C   0  0  0  0  0  0  0  0  0  0  0  0
   69.3940   47.7989   52.5811 C   0  0  0  0  0  0  0  0  0  0  0  0
   68.6659   47.0128   51.7303 C   0  0  0  0  0  0  0  0  0  0  0  0
   67.8467   46.0039   52.1828 C   0  0  0  0  0  0  0  0  0  0  0  0
   67.7411   45.7582   53.5235 C   0  0  0  0  0  0  0  0  0  0  0  0
   68.4669   46.5393   54.4284 C   0  0  0  0  0  0  0  0  0  0  0  0
   69.2756   47.5378   53.9556 C   0  0  0  0  0  0  0  0  0  0  0  0
   69.7702   49.6734   51.0067 N   0  0  0  0  0  0  0  0  0  0  0  0
   70.2265   48.8717   52.0734 C   0  0  0  0  0  0  0  0  0  0  0  0
   71.3435   49.0824   52.5814 O   0  0  0  0  0  0  0  0  0  0  0  0
 29 30  1  0
 30 31  2  0
 30 23  1  0
 23 24  2  0
 23 28  1  0
 24 25  1  0
 25 26  2  0
 26 27  1  0
 27 22  1  0
 27 28  2  0
 22 19  1  0
 19 20  1  0
 20 21  2  0
 20  1  1  0
  1  2  2  0
  1  6  1  0
  2  3  1  0
  3  4  2  0
  3 17  1  0
  4  5  1  0
  4 14  1  0
  5  6  2  0
  5 13  1  0
  6  7  1  0
  7  8  1  0
  8  9  1  0
  8 13  2  0
  9 10  2  0
 10 11  1  0
 11 12  2  0
 12 13  1  0
 14 15  2  0
 14 16  1  0
 16 17  1  0
 17 18  2  0
M  END
>  <minimizedAffinity>  (138) 
-9.09473

$$$$
data/reference_output_2/data/smiles/127723.pdb
     RDKit          3D

 27 29  0  0  0  0  0  0  0  0999 V2000
   66.4069   42.5110   55.9848 O   0  0  0  0  0  0  0  0  0  0  0  0
   67.4868   42.1544   56.5331 C   0  0  0  0  0  0  0  0  0  0  0  0
   67.7810   40.8921   57.1521 N   0  0  0  0  0  0  0  0  0  0  0  0
   69.1271   40.9018   57.6502 C   0  0  0  0  0  0  0  0  0  0  0  0
   69.8697   39.9352   58.3068 C   0  0  0  0  0  0  0  0  0  0  0  0
   71.1855   40.2020   58.6791 C   0  0  0  0  0  0  0  0  0  0  0  0
   71.7613   41.4247   58.4011 C   0  0  0  0  0  0  0  0  0  0  0  0
   70.9807   42.3480   57.7488 C   0  0  0  0  0  0  0  0  0  0  0  0
   69.6783   42.1293   57.3604 C   0  0  0  0  0  0  0  0  0  0  0  0
   68.6751   42.9522   56.6545 C   0  0  0  0  0  0  0  0  0  0  0  0
   68.8139   44.1451   56.2087 N   0  0  0  0  0  0  0  0  0  0  0  0
   73.4209   41.7327   58.8645 S   0  0  0  0  0  0  0  0  0  0  0  0
   73.4146   42.7276   59.9791 O   0  0  0  0  0  0  0  0  0  0  0  0
   74.1171   40.4782   59.3051 O   0  0  0  0  0  0  0  0  0  0  0  0
   74.2452   42.4074   57.5622 O   0  0  0  0  0  0  0  0  0  0  0  0
   67.8545   44.8857   55.5285 N   0  0  0  0  0  0  0  0  0  0  0  0
   68.2531   45.8412   54.5800 C   0  0  0  0  0  0  0  0  0  0  0  0
   67.9247   45.7137   53.2490 C   0  0  0  0  0  0  0  0  0  0  0  0
   67.2223   44.6381   52.8170 F   0  0  0  0  0  0  0  0  0  0  0  0
   68.2972   46.6669   52.3066 C   0  0  0  0  0  0  0  0  0  0  0  0
   67.9735   46.5440   50.9964 F   0  0  0  0  0  0  0  0  0  0  0  0
   69.0066   47.7579   52.7018 C   0  0  0  0  0  0  0  0  0  0  0  0
   69.3998   48.7304   51.8123 F   0  0  0  0  0  0  0  0  0  0  0  0
   69.3475   47.9122   54.0149 C   0  0  0  0  0  0  0  0  0  0  0  0
   70.0500   48.9999   54.3969 F   0  0  0  0  0  0  0  0  0  0  0  0
   68.9668   46.9468   54.9540 C   0  0  0  0  0  0  0  0  0  0  0  0
   69.3083   47.1090   56.2449 F   0  0  0  0  0  0  0  0  0  0  0  0
  1  2  2  0
  2  3  1  0
  2 10  1  0
  3  4  1  0
  4  5  2  0
  4  9  1  0
  5  6  1  0
  6  7  2  0
  7 12  1  0
  7  8  1  0
 12 13  2  0
 12 14  2  0
 12 15  1  0
  8  9  2  0
  9 10  1  0
 10 11  2  0
 11 16  1  0
 16 17  1  0
 17 18  2  0
 17 26  1  0
 18 19  1  0
 18 20  1  0
 20 21  1  0
 20 22  2  0
 22 23  1  0
 22 24  1  0
 24 25  1  0
 24 26  2  0
 26 27  1  0
M  CHG  1  15  -1
M  END
>  <minimizedAffinity>  (139) 
-9.08658

$$$$
data/reference_output_2/data/smiles/200477.pdb
     RDKit          3D

 30 33  0  0  0  0  0  0  0  0999 V2000
   71.9411   46.5359   59.3540 C   0  0  0  0  0  0  0  0  0  0  0  0
   71.0794   47.2135   58.5281 C   0  0  0  0  0  0  0  0  0  0  0  0
   70.1641   46.5815   57.6837 C   0  0  0  0  0  0  0  0  0  0  0  0
   70.1485   45.2240   57.7020 C   0  0  0  0  0  0  0  0  0  0  0  0
   71.0157   44.5031   58.5355 C   0  0  0  0  0  0  0  0  0  0  0  0
   71.9023   45.1727   59.3526 C   0  0  0  0  0  0  0  0  0  0  0  0
   72.7617   44.4889   60.1773 F   0  0  0  0  0  0  0  0  0  0  0  0
   75.8014   49.4058   60.0214 C   0  0  2  0  0  0  0  0  0  0  0  0
   76.1427   49.1608   58.6148 C   0  0  0  0  0  0  0  0  0  0  0  0
   75.2495   48.2472   57.8539 C   0  0  0  0  0  0  0  0  0  0  0  0
   74.7163   47.0799   58.6127 C   0  0  0  0  0  0  0  0  0  0  0  0
   74.1865   47.5635   59.8538 N   0  0  0  0  0  0  0  0  0  0  0  0
   72.8564   47.2956   60.1987 C   0  0  0  0  0  0  0  0  0  0  0  0
   72.4139   47.7316   61.2978 O   0  0  0  0  0  0  0  0  0  0  0  0
   75.0458   48.3153   60.7161 C   0  0  0  0  0  0  0  0  0  0  0  0
   74.8959   51.6161   59.0926 N   0  0  0  0  0  0  0  0  0  0  0  0
   75.0085   50.6562   60.1352 C   0  0  0  0  0  0  0  0  0  0  0  0
   74.3994   50.8914   61.2012 O   0  0  0  0  0  0  0  0  0  0  0  0
   69.3128   47.4640   56.8506 C   0  0  0  0  0  0  0  0  0  0  0  0
   68.7733   46.7601   55.6688 C   0  0  0  0  0  0  0  0  0  0  0  0
   68.1449   45.5513   55.7660 N   0  0  0  0  0  0  0  0  0  0  0  0
   67.6720   44.8897   54.7340 N   0  0  0  0  0  0  0  0  0  0  0  0
   67.7906   45.3962   53.4781 C   0  0  0  0  0  0  0  0  0  0  0  0
   67.3238   44.7273   52.5203 O   0  0  0  0  0  0  0  0  0  0  0  0
   68.4066   46.6035   53.2863 C   0  0  0  0  0  0  0  0  0  0  0  0
   68.8907   47.2683   54.4079 C   0  0  0  0  0  0  0  0  0  0  0  0
   69.4915   48.5248   54.1841 N   0  0  0  0  0  0  0  0  0  0  0  0
   70.1953   48.8558   52.9730 C   0  0  0  0  0  0  0  0  0  0  0  0
   70.0062   47.7807   51.9486 C   0  0  0  0  0  0  0  0  0  0  0  0
   68.5914   47.2179   51.9369 C   0  0  0  0  0  0  0  0  0  0  0  0
 16 17  1  0
 17 18  2  0
  8 17  1  6
  8  9  1  0
  8 15  1  0
  9 10  1  0
 10 11  1  0
 11 12  1  0
 12 13  1  0
 12 15  1  0
 13 14  2  0
 13  1  1  0
  1  2  2  0
  1  6  1  0
  2  3  1  0
  3 19  1  0
  3  4  2  0
 19 20  1  0
 20 21  2  0
 20 26  1  0
 21 22  1  0
 22 23  1  0
 23 24  2  0
 23 25  1  0
 25 26  2  0
 25 30  1  0
 26 27  1  0
 27 28  1  0
 28 29  1  0
 29 30  1  0
  4  5  1  0
  5  6  2  0
  6  7  1  0
M  END
>  <minimizedAffinity>  (140) 
-9.08567

$$$$
data/reference_output_2/data/smiles/89988.pdb
     RDKit          3D

 29 33  0  0  0  0  0  0  0  0999 V2000
   71.1248   42.8292   59.6768 C   0  0  0  0  0  0  0  0  0  0  0  0
   70.7467   41.4857   59.2385 N   0  0  0  0  0  0  0  0  0  0  0  0
   71.5146   40.3833   59.3042 C   0  0  0  0  0  0  0  0  0  0  0  0
   70.8124   39.3131   58.7963 C   0  0  0  0  0  0  0  0  0  0  0  0
   69.6069   39.7806   58.4203 N   0  0  0  0  0  0  0  0  0  0  0  0
   69.5795   41.0954   58.6931 C   0  0  0  0  0  0  0  0  0  0  0  0
   68.2589   41.6789   58.2965 C   0  0  0  0  0  0  0  0  0  0  0  0
   67.6801   40.6175   57.3843 C   0  0  0  0  0  0  0  0  0  0  0  0
   68.3286   39.3490   57.8294 C   0  0  0  0  0  0  0  0  0  0  0  0
   71.2325   37.9289   58.6725 C   0  0  0  0  0  0  0  0  0  0  0  0
   72.0892   37.4808   57.6899 C   0  0  0  0  0  0  0  0  0  0  0  0
   72.4591   36.1387   57.6087 C   0  0  0  0  0  0  0  0  0  0  0  0
   71.9885   35.2027   58.5037 C   0  0  0  0  0  0  0  0  0  0  0  0
   71.1317   35.6341   59.4909 C   0  0  0  0  0  0  0  0  0  0  0  0
   70.7662   36.9588   59.5707 C   0  0  0  0  0  0  0  0  0  0  0  0
   71.4609   43.6796   57.4979 O   0  0  0  0  0  0  0  0  0  0  0  0
   70.8483   43.7969   58.5890 C   0  0  0  0  0  0  0  0  0  0  0  0
   69.9279   44.8574   58.7007 N   0  0  0  0  0  0  0  0  0  0  0  0
   69.6727   45.7856   57.6369 C   0  0  0  0  0  0  0  0  0  0  0  0
   69.3139   45.7102   56.4282 N   0  0  0  0  0  0  0  0  0  0  0  0
   69.1459   46.7177   55.6458 C   0  0  0  0  0  0  0  0  0  0  0  0
   69.3820   47.9836   56.1888 C   0  0  0  0  0  0  0  0  0  0  0  0
   69.8374   47.6036   57.8210 S   0  0  0  0  0  0  0  0  0  0  0  0
   68.7225   46.5943   54.2249 C   0  0  0  0  0  0  0  0  0  0  0  0
   67.8561   45.6298   53.7938 C   0  0  0  0  0  0  0  0  0  0  0  0
   67.4669   45.5226   52.4688 C   0  0  0  0  0  0  0  0  0  0  0  0
   67.9507   46.3954   51.5408 C   0  0  0  0  0  0  0  0  0  0  0  0
   68.8240   47.3782   51.9405 C   0  0  0  0  0  0  0  0  0  0  0  0
   69.2052   47.4775   53.2619 C   0  0  0  0  0  0  0  0  0  0  0  0
 16 17  2  0
 17  1  1  0
 17 18  1  0
  1  2  1  0
  2  3  1  0
  2  6  2  0
  3  4  2  0
  4 10  1  0
  4  5  1  0
 10 11  2  0
 10 15  1  0
 11 12  1  0
 12 13  2  0
 13 14  1  0
 14 15  2  0
  5  6  1  0
  5  9  1  0
  6  7  1  0
  7  8  1  0
  8  9  1  0
 18 19  1  0
 19 20  2  0
 19 23  1  0
 20 21  1  0
 21 24  1  0
 21 22  2  0
 24 25  2  0
 24 29  1  0
 25 26  1  0
 26 27  2  0
 27 28  1  0
 28 29  2  0
 22 23  1  0
M  CHG  1   2   1
M  END
>  <minimizedAffinity>  (141) 
-9.08448

$$$$
data/reference_output_2/data/smiles/125243.pdb
     RDKit          3D

 31 34  0  0  0  0  0  0  0  0999 V2000
   73.1223   47.9358   57.8657 N   0  0  0  0  0  0  0  0  0  0  0  0
   73.0316   46.7849   58.7848 C   0  0  0  0  0  0  0  0  0  0  0  0
   71.6245   46.2509   58.6510 C   0  0  0  0  0  0  0  0  0  0  0  0
   70.7325   47.2142   58.0502 N   0  0  0  0  0  0  0  0  0  0  0  0
   69.6938   46.7495   57.2070 C   0  0  0  0  0  0  0  0  0  0  0  0
   69.5652   45.5166   56.9978 O   0  0  0  0  0  0  0  0  0  0  0  0
   70.8631   48.6235   58.2819 C   0  0  0  0  0  0  0  0  0  0  0  0
   72.3094   48.9546   58.5437 C   0  0  0  0  0  0  0  0  0  0  0  0
   74.5038   48.3785   57.7879 C   0  0  0  0  0  0  0  0  0  0  0  0
   75.3636   50.6003   57.6278 O   0  0  0  0  0  0  0  0  0  0  0  0
   74.5043   49.7705   57.1959 C   0  0  0  0  0  0  0  0  0  0  0  0
   73.6118   50.1803   56.2002 N   0  0  0  0  0  0  0  0  0  0  0  0
   73.5531   51.4630   55.6104 C   0  0  0  0  0  0  0  0  0  0  0  0
   73.0126   52.4969   56.3989 C   0  0  0  0  0  0  0  0  0  0  0  0
   72.8799   53.7939   55.9910 C   0  0  0  0  0  0  0  0  0  0  0  0
   73.3054   54.1110   54.7154 C   0  0  0  0  0  0  0  0  0  0  0  0
   73.8406   53.1315   53.9091 C   0  0  0  0  0  0  0  0  0  0  0  0
   74.2679   53.4156   52.6482 F   0  0  0  0  0  0  0  0  0  0  0  0
   73.9566   51.8202   54.3681 C   0  0  0  0  0  0  0  0  0  0  0  0
   68.7282   47.6691   56.5463 C   0  0  0  0  0  0  0  0  0  0  0  0
   69.2354   47.9980   55.2258 C   0  0  0  0  0  0  0  0  0  0  0  0
   70.1608   48.9714   55.1015 N   0  0  0  0  0  0  0  0  0  0  0  0
   70.6484   49.2954   53.9212 N   0  0  0  0  0  0  0  0  0  0  0  0
   70.2616   48.6895   52.7917 C   0  0  0  0  0  0  0  0  0  0  0  0
   70.7454   49.0158   51.6545 O   0  0  0  0  0  0  0  0  0  0  0  0
   69.3195   47.6823   52.8286 C   0  0  0  0  0  0  0  0  0  0  0  0
   68.8957   47.0358   51.6837 C   0  0  0  0  0  0  0  0  0  0  0  0
   67.9484   46.0462   51.8309 C   0  0  0  0  0  0  0  0  0  0  0  0
   67.4389   45.7105   53.0834 C   0  0  0  0  0  0  0  0  0  0  0  0
   67.8767   46.3674   54.1983 C   0  0  0  0  0  0  0  0  0  0  0  0
   68.8115   47.3510   54.0916 C   0  0  0  0  0  0  0  0  0  0  0  0
 10 11  2  0
 11  9  1  0
 11 12  1  0
  9  1  1  0
  1  2  1  0
  1  8  1  0
  2  3  1  0
  3  4  1  0
  4  5  1  0
  4  7  1  0
  5  6  2  0
  5 20  1  0
 20 21  1  0
 21 22  2  0
 21 31  1  0
 22 23  1  0
 23 24  1  0
 24 25  2  0
 24 26  1  0
 26 27  1  0
 26 31  2  0
 27 28  2  0
 28 29  1  0
 29 30  2  0
 30 31  1  0
  7  8  1  0
 12 13  1  0
 13 14  2  0
 13 19  1  0
 14 15  1  0
 15 16  2  0
 16 17  1  0
 17 18  1  0
 17 19  2  0
M  CHG  1   1   1
M  END
>  <minimizedAffinity>  (142) 
-9.08110

$$$$
data/reference_output_2/data/smiles/102141.pdb
     RDKit          3D

 31 36  0  0  0  0  0  0  0  0999 V2000
   75.5731   35.4863   53.9604 N   0  0  0  0  0  0  0  0  0  0  0  0
   75.6191   35.0361   55.2195 C   0  0  0  0  0  0  0  0  0  0  0  0
   74.4954   34.3156   55.4861 N   0  0  0  0  0  0  0  0  0  0  0  0
   73.7593   34.3301   54.3672 C   0  0  0  0  0  0  0  0  0  0  0  0
   72.5391   33.7586   54.0819 C   0  0  0  0  0  0  0  0  0  0  0  0
   72.0022   33.9342   52.8226 C   0  0  0  0  0  0  0  0  0  0  0  0
   72.6464   34.6610   51.8412 C   0  0  0  0  0  0  0  0  0  0  0  0
   73.8707   35.2267   52.1462 C   0  0  0  0  0  0  0  0  0  0  0  0
   74.4328   35.0710   53.3898 C   0  0  0  0  0  0  0  0  0  0  0  0
   76.5695   36.2885   53.2936 C   0  0  0  0  0  0  0  0  0  0  0  0
   79.1669   33.8697   47.8501 C   0  0  0  0  0  0  0  0  0  0  0  0
   78.4440   35.0195   47.6086 C   0  0  0  0  0  0  0  0  0  0  0  0
   77.8029   35.7085   48.6180 C   0  0  0  0  0  0  0  0  0  0  0  0
   77.8589   35.2669   49.9292 C   0  0  0  0  0  0  0  0  0  0  0  0
   77.2359   35.9323   50.9223 N   0  0  0  0  0  0  0  0  0  0  0  0
   77.2667   35.5356   52.2082 C   0  0  0  0  0  0  0  0  0  0  0  0
   77.9822   34.3871   52.4844 C   0  0  0  0  0  0  0  0  0  0  0  0
   78.6308   33.6838   51.4891 C   0  0  0  0  0  0  0  0  0  0  0  0
   78.5834   34.1155   50.1678 C   0  0  0  0  0  0  0  0  0  0  0  0
   79.2237   33.4286   49.1562 C   0  0  0  0  0  0  0  0  0  0  0  0
   74.1340   33.6659   56.7185 C   0  0  0  0  0  0  0  0  0  0  0  0
   73.1672   34.4338   57.5398 C   0  0  0  0  0  0  0  0  0  0  0  0
   72.4823   33.7925   58.5417 C   0  0  0  0  0  0  0  0  0  0  0  0
   71.5578   34.4825   59.3367 C   0  0  0  0  0  0  0  0  0  0  0  0
   71.3333   35.8215   59.1099 C   0  0  0  0  0  0  0  0  0  0  0  0
   70.4234   36.5443   59.8771 C   0  0  0  0  0  0  0  0  0  0  0  0
   70.2112   37.8846   59.6375 C   0  0  0  0  0  0  0  0  0  0  0  0
   70.9012   38.5265   58.6308 C   0  0  0  0  0  0  0  0  0  0  0  0
   71.7942   37.7815   57.8910 C   0  0  0  0  0  0  0  0  0  0  0  0
   72.0378   36.4387   58.0964 C   0  0  0  0  0  0  0  0  0  0  0  0
   72.9227   35.7409   57.3476 N   0  0  0  0  0  0  0  0  0  0  0  0
 11 12  2  0
 11 20  1  0
 12 13  1  0
 13 14  2  0
 14 15  1  0
 14 19  1  0
 15 16  2  0
 16 10  1  0
 16 17  1  0
 10  1  1  0
  1  2  1  0
  1  9  1  0
  2  3  2  0
  3 21  1  0
  3  4  1  0
 21 22  1  0
 22 23  2  0
 22 31  1  0
 23 24  1  0
 24 25  2  0
 25 26  1  0
 25 30  1  0
 26 27  2  0
 27 28  1  0
 28 29  2  0
 29 30  1  0
 30 31  2  0
  4  5  1  0
  4  9  2  0
  5  6  2  0
  6  7  1  0
  7  8  2  0
  8  9  1  0
 17 18  2  0
 18 19  1  0
 19 20  2  0
M  CHG  1   3   1
M  END
>  <minimizedAffinity>  (143) 
-9.07811

$$$$
data/reference_output_2/data/smiles/200037.pdb
     RDKit          3D

 31 34  0  0  0  0  0  0  0  0999 V2000
   70.7636   44.1212   58.5107 C   0  0  0  0  0  0  0  0  0  0  0  0
   69.6372   43.2180   58.1383 C   0  0  0  0  0  0  0  0  0  0  0  0
   70.0677   41.8788   57.6115 C   0  0  0  0  0  0  0  0  0  0  0  0
   71.2489   41.4258   58.2230 N   0  0  0  0  0  0  0  0  0  0  0  0
   72.3787   42.2516   58.0357 C   0  0  0  0  0  0  0  0  0  0  0  0
   72.1028   43.7255   58.0502 C   0  0  0  0  0  0  0  0  0  0  0  0
   71.1263   46.4418   58.4117 O   0  0  0  0  0  0  0  0  0  0  0  0
   70.4456   45.4875   57.9586 C   0  0  0  0  0  0  0  0  0  0  0  0
   69.4557   45.6987   57.0001 N   0  0  0  0  0  0  0  0  0  0  0  0
   69.1815   47.0178   56.4936 C   0  0  0  0  0  0  0  0  0  0  0  0
   68.8957   46.9258   55.0492 C   0  0  0  0  0  0  0  0  0  0  0  0
   69.2505   47.8290   54.0983 C   0  0  0  0  0  0  0  0  0  0  0  0
   68.9501   47.6563   52.7560 C   0  0  0  0  0  0  0  0  0  0  0  0
   68.2614   46.5164   52.3659 C   0  0  0  0  0  0  0  0  0  0  0  0
   67.9513   46.3094   51.0769 F   0  0  0  0  0  0  0  0  0  0  0  0
   67.8824   45.5718   53.3057 C   0  0  0  0  0  0  0  0  0  0  0  0
   68.2034   45.7866   54.6344 C   0  0  0  0  0  0  0  0  0  0  0  0
   71.1431   40.5247   59.6313 S   0  0  0  0  0  0  0  0  0  0  0  0
   69.9115   40.8497   60.4249 O   0  0  0  0  0  0  0  0  0  0  0  0
   72.3232   40.8865   60.5259 O   0  0  0  0  0  0  0  0  0  0  0  0
   71.2161   38.7937   59.4107 C   0  0  0  0  0  0  0  0  0  0  0  0
   70.6976   37.9052   60.3265 C   0  0  0  0  0  0  0  0  0  0  0  0
   70.7919   36.5481   60.0952 C   0  0  0  0  0  0  0  0  0  0  0  0
   71.3960   36.0947   58.9643 C   0  0  0  0  0  0  0  0  0  0  0  0
   71.9278   36.9712   58.0230 C   0  0  0  0  0  0  0  0  0  0  0  0
   71.8251   38.3190   58.2696 C   0  0  0  0  0  0  0  0  0  0  0  0
   72.5774   36.6874   56.8165 O   0  0  0  0  0  0  0  0  0  0  0  0
   73.0889   35.4202   56.4560 C   0  0  0  0  0  0  0  0  0  0  0  0
   73.5706   34.6792   57.6688 C   0  0  0  0  0  0  0  0  0  0  0  0
   72.4795   33.8735   58.3322 C   0  0  0  0  0  0  0  0  0  0  0  0
   71.4385   34.7003   58.8267 O   0  0  0  0  0  0  0  0  0  0  0  0
  7  8  2  0
  8  9  1  0
  8  1  1  0
  9 10  1  0
 10 11  1  0
 11 12  2  0
 11 17  1  0
 12 13  1  0
 13 14  2  0
 14 15  1  0
 14 16  1  0
 16 17  2  0
  1  2  1  0
  1  6  1  0
  2  3  1  0
  3  4  1  0
  4 18  1  0
  4  5  1  0
 18 19  2  0
 18 20  2  0
 18 21  1  0
 21 22  2  0
 21 26  1  0
 22 23  1  0
 23 24  2  0
 24 25  1  0
 24 31  1  0
 25 26  2  0
 25 27  1  0
 27 28  1  0
 28 29  1  0
 29 30  1  0
 30 31  1  0
  5  6  1  0
M  END
>  <minimizedAffinity>  (144) 
-9.07685

$$$$
data/200k_reference_output/data/smiles/3369.pdb
     RDKit          3D

 29 32  0  0  0  0  0  0  0  0999 V2000
   69.0934   44.6661   56.7014 C   0  0  0  0  0  0  0  0  0  0  0  0
   68.1019   44.3779   55.8400 N   0  0  0  0  0  0  0  0  0  0  0  0
   67.7716   43.0846   55.9323 N   0  0  0  0  0  0  0  0  0  0  0  0
   68.5342   42.4864   56.8544 C   0  0  0  0  0  0  0  0  0  0  0  0
   69.3670   43.4684   57.3432 C   0  0  0  0  0  0  0  0  0  0  0  0
   70.3653   43.1904   58.3899 C   0  0  0  0  0  0  0  0  0  0  0  0
   70.0653   41.9656   59.1850 C   0  0  0  0  0  0  0  0  0  0  0  0
   69.5975   40.8537   58.3928 N   0  0  0  0  0  0  0  0  0  0  0  0
   68.6383   41.1341   57.3824 C   0  0  0  0  0  0  0  0  0  0  0  0
   67.8933   40.2002   56.9615 O   0  0  0  0  0  0  0  0  0  0  0  0
   70.0867   39.5247   58.6227 C   0  0  0  0  0  0  0  0  0  0  0  0
   69.3771   38.6251   59.3899 C   0  0  0  0  0  0  0  0  0  0  0  0
   69.8056   37.3381   59.6388 C   0  0  0  0  0  0  0  0  0  0  0  0
   70.9990   36.9057   59.1061 C   0  0  0  0  0  0  0  0  0  0  0  0
   71.4448   35.5236   59.3827 C   0  0  0  0  0  0  0  0  0  0  0  0
   71.7320   37.7882   58.3316 C   0  0  0  0  0  0  0  0  0  0  0  0
   71.2821   39.0858   58.0906 C   0  0  0  0  0  0  0  0  0  0  0  0
   69.6991   45.9289   56.8836 N   0  0  0  0  0  0  0  0  0  0  0  0
   68.9140   47.3914   56.4679 S   0  0  0  0  0  0  0  0  0  0  0  0
   69.4118   48.5301   57.3438 O   0  0  0  0  0  0  0  0  0  0  0  0
   67.4334   47.3154   56.6975 O   0  0  0  0  0  0  0  0  0  0  0  0
   68.8025   47.2660   52.4603 C   0  0  0  0  0  0  0  0  0  0  0  0
   69.5705   48.3245   52.0850 C   0  0  0  0  0  0  0  0  0  0  0  0
   70.1450   49.1088   53.0726 C   0  0  0  0  0  0  0  0  0  0  0  0
   69.9591   48.8452   54.4093 C   0  0  0  0  0  0  0  0  0  0  0  0
   69.1843   47.7770   54.7877 C   0  0  0  0  0  0  0  0  0  0  0  0
   68.6036   46.9837   53.8154 C   0  0  0  0  0  0  0  0  0  0  0  0
   67.4010   45.4026   51.8583 C   0  0  0  0  0  0  0  0  0  0  0  0
   68.2291   46.4833   51.4606 O   0  0  0  0  0  0  0  0  0  0  0  0
 28 29  1  0
 29 22  1  0
 22 23  2  0
 22 27  1  0
 23 24  1  0
 24 25  2  0
 25 26  1  0
 26 19  1  0
 26 27  2  0
 19 20  2  0
 19 21  2  0
 19 18  1  0
 18  1  1  0
  1  2  2  0
  1  5  1  0
  2  3  1  0
  3  4  1  0
  4  5  2  0
  4  9  1  0
  5  6  1  0
  6  7  1  0
  7  8  1  0
  8 11  1  0
  8  9  1  0
 11 12  2  0
 11 17  1  0
 12 13  1  0
 13 14  2  0
 14 15  1  0
 14 16  1  0
 16 17  2  0
  9 10  2  0
M  END
>  <minimizedAffinity>  (145) 
-9.07627

$$$$
data/200k_reference_output/data/smiles/2991.pdb
     RDKit          3D

 32 35  0  0  0  0  0  0  0  0999 V2000
   70.5025   45.2505   57.8289 N   0  0  0  0  0  0  0  0  0  0  0  0
   69.5409   45.6418   56.9738 C   0  0  0  0  0  0  0  0  0  0  0  0
   68.9720   44.7221   56.3245 O   0  0  0  0  0  0  0  0  0  0  0  0
   69.1634   46.9468   56.7781 C   0  0  0  0  0  0  0  0  0  0  0  0
   69.8175   47.8800   57.5076 N   0  0  0  0  0  0  0  0  0  0  0  0
   70.7861   47.5554   58.3796 C   0  0  0  0  0  0  0  0  0  0  0  0
   71.4081   48.5606   59.0916 C   0  0  0  0  0  0  0  0  0  0  0  0
   72.4048   48.2744   59.9979 C   0  0  0  0  0  0  0  0  0  0  0  0
   72.7561   46.9545   60.1677 C   0  0  0  0  0  0  0  0  0  0  0  0
   72.1253   45.9378   59.4466 C   0  0  0  0  0  0  0  0  0  0  0  0
   71.1288   46.2100   58.5369 C   0  0  0  0  0  0  0  0  0  0  0  0
   70.8693   43.8613   57.9928 C   0  0  0  0  0  0  0  0  0  0  0  0
   69.5497   41.7570   58.4955 N   0  0  0  0  0  0  0  0  0  0  0  0
   69.8560   43.1161   58.8041 C   0  0  0  0  0  0  0  0  0  0  0  0
   69.2511   43.6332   59.7599 O   0  0  0  0  0  0  0  0  0  0  0  0
   68.1394   39.7779   58.8426 C   0  0  0  0  0  0  0  0  0  0  0  0
   68.6559   39.3441   57.7531 O   0  0  0  0  0  0  0  0  0  0  0  0
   68.5909   41.0501   59.2637 N   0  0  0  0  0  0  0  0  0  0  0  0
   64.2733   36.5779   61.6740 C   0  0  0  0  0  0  0  0  0  0  0  0
   65.2830   37.3769   60.9458 C   0  0  0  0  0  0  0  0  0  0  0  0
   64.9913   38.7011   60.6195 C   0  0  0  0  0  0  0  0  0  0  0  0
   65.9287   39.4424   59.9444 C   0  0  0  0  0  0  0  0  0  0  0  0
   67.1558   38.9673   59.5607 C   0  0  0  0  0  0  0  0  0  0  0  0
   67.4320   37.6415   59.8948 C   0  0  0  0  0  0  0  0  0  0  0  0
   66.4975   36.8822   60.5746 C   0  0  0  0  0  0  0  0  0  0  0  0
   68.0820   47.3657   55.8241 C   0  0  0  0  0  0  0  0  0  0  0  0
   68.4976   47.2841   54.4123 C   0  0  0  0  0  0  0  0  0  0  0  0
   67.9778   46.3370   53.5619 C   0  0  0  0  0  0  0  0  0  0  0  0
   68.3555   46.2514   52.2291 C   0  0  0  0  0  0  0  0  0  0  0  0
   69.2850   47.1596   51.7674 C   0  0  0  0  0  0  0  0  0  0  0  0
   69.8282   48.1176   52.5763 C   0  0  0  0  0  0  0  0  0  0  0  0
   69.4199   48.1693   53.9177 C   0  0  0  0  0  0  0  0  0  0  0  0
 19 20  1  0
 20 21  2  0
 20 25  1  0
 21 22  1  0
 22 23  2  0
 23 16  1  0
 23 24  1  0
 16 17  2  0
 16 18  1  0
 18 13  1  0
 13 14  1  0
 14 15  2  0
 14 12  1  0
 12  1  1  0
  1  2  1  0
  1 11  1  0
  2  3  2  0
  2  4  1  0
  4 26  1  0
  4  5  2  0
 26 27  1  0
 27 28  2  0
 27 32  1  0
 28 29  1  0
 29 30  2  0
 30 31  1  0
 31 32  2  0
  5  6  1  0
  6  7  1  0
  6 11  2  0
  7  8  2  0
  8  9  1  0
  9 10  2  0
 10 11  1  0
 24 25  2  0
M  END
>  <minimizedAffinity>  (146) 
-9.07431

$$$$
data/reference_output_2/data/smiles/150785.pdb
     RDKit          3D

 30 32  0  0  0  0  0  0  0  0999 V2000
   70.4949   49.1806   57.2360 C   0  0  0  0  0  0  0  0  0  0  0  0
   71.6502   50.1813   57.2389 C   0  0  0  0  0  0  0  0  0  0  0  0
   71.6071   50.8077   55.8591 C   0  0  0  0  0  0  0  0  0  0  0  0
   70.3479   50.6001   55.1925 N   0  0  0  0  0  0  0  0  0  0  0  0
   69.1951   50.7921   55.9657 C   0  0  0  0  0  0  0  0  0  0  0  0
   69.2469   49.9924   57.2669 C   0  0  0  0  0  0  0  0  0  0  0  0
   71.1355   48.2382   59.3272 O   0  0  0  0  0  0  0  0  0  0  0  0
   70.6057   48.1007   58.1989 C   0  0  0  0  0  0  0  0  0  0  0  0
   70.0939   46.8248   57.8669 N   0  0  0  0  0  0  0  0  0  0  0  0
   70.1034   45.6980   58.6768 N   0  0  0  0  0  0  0  0  0  0  0  0
   70.9313   44.6280   58.3302 C   0  0  0  0  0  0  0  0  0  0  0  0
   70.3868   43.3767   58.1359 C   0  0  0  0  0  0  0  0  0  0  0  0
   69.0337   43.1818   58.2788 F   0  0  0  0  0  0  0  0  0  0  0  0
   71.1618   42.2902   57.7976 C   0  0  0  0  0  0  0  0  0  0  0  0
   70.6357   41.0714   57.6119 F   0  0  0  0  0  0  0  0  0  0  0  0
   72.5111   42.4676   57.6535 C   0  0  0  0  0  0  0  0  0  0  0  0
   73.0983   43.6938   57.8359 C   0  0  0  0  0  0  0  0  0  0  0  0
   74.4303   43.8528   57.6885 F   0  0  0  0  0  0  0  0  0  0  0  0
   72.2779   44.7816   58.1801 C   0  0  0  0  0  0  0  0  0  0  0  0
   72.9239   45.9595   58.3366 F   0  0  0  0  0  0  0  0  0  0  0  0
   70.3385   49.8115   53.7709 S   0  0  0  0  0  0  0  0  0  0  0  0
   71.7935   49.5312   53.3677 O   0  0  0  0  0  0  0  0  0  0  0  0
   69.8856   50.7883   52.6765 O   0  0  0  0  0  0  0  0  0  0  0  0
   69.4816   48.3673   53.4941 C   0  0  0  0  0  0  0  0  0  0  0  0
   68.6896   47.6511   54.3293 C   0  0  0  0  0  0  0  0  0  0  0  0
   68.0149   46.4874   53.9905 C   0  0  0  0  0  0  0  0  0  0  0  0
   68.1404   46.0021   52.7158 C   0  0  0  0  0  0  0  0  0  0  0  0
   68.9392   46.6960   51.8194 C   0  0  0  0  0  0  0  0  0  0  0  0
   69.5931   47.8442   52.1882 C   0  0  0  0  0  0  0  0  0  0  0  0
   70.3524   48.4490   51.2373 F   0  0  0  0  0  0  0  0  0  0  0  0
  7  8  2  0
  8  9  1  0
  8  1  1  0
  9 10  1  0
 10 11  1  0
 11 12  2  0
 11 19  1  0
 12 13  1  0
 12 14  1  0
 14 15  1  0
 14 16  2  0
 16 17  1  0
 17 18  1  0
 17 19  2  0
 19 20  1  0
  1  2  1  0
  1  6  1  0
  2  3  1  0
  3  4  1  0
  4 21  1  0
  4  5  1  0
 21 22  2  0
 21 23  2  0
 21 24  1  0
 24 25  2  0
 24 29  1  0
 25 26  1  0
 26 27  2  0
 27 28  1  0
 28 29  2  0
 29 30  1  0
  5  6  1  0
M  END
>  <minimizedAffinity>  (147) 
-9.07235

$$$$
data/reference_output_2/data/smiles/109793.pdb
     RDKit          3D

 32 36  0  0  0  0  0  0  0  0999 V2000
   71.9282   46.7755   59.3704 C   0  0  0  0  0  0  0  0  0  0  0  0
   71.0296   47.5436   58.6308 C   0  0  0  0  0  0  0  0  0  0  0  0
   70.1919   46.9737   57.7309 C   0  0  0  0  0  0  0  0  0  0  0  0
   70.2715   45.5831   57.5785 C   0  0  0  0  0  0  0  0  0  0  0  0
   71.1372   44.7925   58.2827 C   0  0  0  0  0  0  0  0  0  0  0  0
   71.9718   45.4099   59.1876 C   0  0  0  0  0  0  0  0  0  0  0  0
   72.8422   44.6631   59.9040 F   0  0  0  0  0  0  0  0  0  0  0  0
   72.3978   47.7425   61.4613 O   0  0  0  0  0  0  0  0  0  0  0  0
   72.8123   47.4109   60.3255 C   0  0  0  0  0  0  0  0  0  0  0  0
   74.1557   47.6688   59.9971 N   0  0  0  0  0  0  0  0  0  0  0  0
   75.0872   48.3025   60.9092 C   0  0  0  0  0  0  0  0  0  0  0  0
   75.8221   49.3408   60.0851 C   0  0  0  0  0  0  0  0  0  0  0  0
   76.7016   48.6233   59.1793 N   0  0  0  0  0  0  0  0  0  0  0  0
   76.1943   47.3314   58.8372 C   0  0  0  0  0  0  0  0  0  0  0  0
   74.6852   47.3031   58.6951 C   0  0  0  0  0  0  0  0  0  0  0  0
   77.0503   49.4386   58.0274 C   0  0  0  0  0  0  0  0  0  0  0  0
   77.7507   50.7015   58.5334 C   0  0  0  0  0  0  0  0  0  0  0  0
   79.1016   50.1853   59.0379 C   0  0  0  0  0  0  0  0  0  0  0  0
   79.1703   48.7194   58.6056 C   0  0  0  0  0  0  0  0  0  0  0  0
   78.2474   48.7648   57.3802 C   0  0  0  0  0  0  0  0  0  0  0  0
   69.2002   47.6468   56.8792 C   0  0  0  0  0  0  0  0  0  0  0  0
   68.7326   46.9045   55.7160 C   0  0  0  0  0  0  0  0  0  0  0  0
   68.1437   45.7004   55.8407 N   0  0  0  0  0  0  0  0  0  0  0  0
   67.7268   44.9998   54.7936 N   0  0  0  0  0  0  0  0  0  0  0  0
   67.8537   45.4269   53.5273 C   0  0  0  0  0  0  0  0  0  0  0  0
   67.4560   44.7576   52.5377 O   0  0  0  0  0  0  0  0  0  0  0  0
   68.4502   46.6549   53.3294 C   0  0  0  0  0  0  0  0  0  0  0  0
   68.8832   47.3823   54.4316 C   0  0  0  0  0  0  0  0  0  0  0  0
   69.4773   48.6664   54.1864 N   0  0  0  0  0  0  0  0  0  0  0  0
   70.2217   48.9387   53.0011 C   0  0  0  0  0  0  0  0  0  0  0  0
   70.0479   47.8667   51.9749 C   0  0  0  0  0  0  0  0  0  0  0  0
   68.6550   47.2451   51.9909 C   0  0  0  0  0  0  0  0  0  0  0  0
  8  9  2  0
  9  1  1  0
  9 10  1  0
  1  2  2  0
  1  6  1  0
  2  3  1  0
  3 21  1  0
  3  4  2  0
 21 22  1  0
 22 23  2  0
 22 28  1  0
 23 24  1  0
 24 25  1  0
 25 26  2  0
 25 27  1  0
 27 28  2  0
 27 32  1  0
 28 29  1  0
 29 30  1  0
 30 31  1  0
 31 32  1  0
  4  5  1  0
  5  6  2  0
  6  7  1  0
 10 11  1  0
 10 15  1  0
 11 12  1  0
 12 13  1  0
 13 16  1  0
 13 14  1  0
 16 17  1  0
 16 20  1  0
 17 18  1  0
 18 19  1  0
 19 20  1  0
 14 15  1  0
M  CHG  1  13   1
M  END
>  <minimizedAffinity>  (148) 
-9.06926

$$$$
data/200k_reference_output/data/smiles/5276.pdb
     RDKit          3D

 30 33  0  0  0  0  0  0  0  0999 V2000
   70.9304   44.9832   57.1602 N   0  0  0  0  0  0  0  0  0  0  0  0
   70.2201   45.8927   57.9790 C   0  0  0  0  0  0  0  0  0  0  0  0
   69.7772   45.3915   59.0697 O   0  0  0  0  0  0  0  0  0  0  0  0
   73.4885   44.1818   57.8900 C   0  0  0  0  0  0  0  0  0  0  0  0
   72.3676   43.1993   57.9283 C   0  0  0  0  0  0  0  0  0  0  0  0
   72.5826   41.8770   58.3277 C   0  0  0  0  0  0  0  0  0  0  0  0
   71.5246   40.9880   58.3541 C   0  0  0  0  0  0  0  0  0  0  0  0
   71.4045   39.6444   58.6920 C   0  0  0  0  0  0  0  0  0  0  0  0
   70.1286   39.2963   58.5287 N   0  0  0  0  0  0  0  0  0  0  0  0
   69.4025   40.3236   58.1063 N   0  0  0  0  0  0  0  0  0  0  0  0
   70.2531   41.3833   57.9919 C   0  0  0  0  0  0  0  0  0  0  0  0
   70.0857   42.6959   57.6057 C   0  0  0  0  0  0  0  0  0  0  0  0
   71.1156   43.6064   57.5675 C   0  0  0  0  0  0  0  0  0  0  0  0
   68.0008   40.4076   57.8018 C   0  0  0  0  0  0  0  0  0  0  0  0
   67.7130   41.1055   56.4967 C   0  0  0  0  0  0  0  0  0  0  0  0
   67.7461   40.1141   55.4980 O   0  0  0  0  0  0  0  0  0  0  0  0
   69.9798   47.3086   57.6532 C   0  0  0  0  0  0  0  0  0  0  0  0
   70.8276   48.2544   57.9362 C   0  0  0  0  0  0  0  0  0  0  0  0
   70.6432   49.6476   57.6422 N   0  0  0  0  0  0  0  0  0  0  0  0
   69.3905   49.9355   56.9810 C   0  0  0  0  0  0  0  0  0  0  0  0
   69.2719   50.9091   56.2061 O   0  0  0  0  0  0  0  0  0  0  0  0
   68.2784   49.0092   57.2831 C   0  0  0  0  0  0  0  0  0  0  0  0
   68.7124   47.6065   56.9747 C   0  0  1  0  0  0  0  0  0  0  0  0
   68.7686   47.4515   55.4932 C   0  0  0  0  0  0  0  0  0  0  0  0
   69.4780   48.2878   54.6783 C   0  0  0  0  0  0  0  0  0  0  0  0
   69.5135   48.1269   53.2913 C   0  0  0  0  0  0  0  0  0  0  0  0
   68.8193   47.0969   52.6939 C   0  0  0  0  0  0  0  0  0  0  0  0
   68.8540   46.9385   51.3309 F   0  0  0  0  0  0  0  0  0  0  0  0
   68.1009   46.2461   53.4957 C   0  0  0  0  0  0  0  0  0  0  0  0
   68.0756   46.4177   54.8521 C   0  0  0  0  0  0  0  0  0  0  0  0
  4  5  1  0
  5  6  2  0
  5 13  1  0
  6  7  1  0
  7  8  1  0
  7 11  2  0
  8  9  2  0
  9 10  1  0
 10 14  1  0
 10 11  1  0
 14 15  1  0
 15 16  1  0
 11 12  1  0
 12 13  2  0
 13  1  1  0
  1  2  1  0
  2  3  2  0
  2 17  1  0
 17 18  2  0
 17 23  1  0
 18 19  1  0
 19 20  1  0
 20 21  2  0
 20 22  1  0
 22 23  1  0
 23 24  1  6
 24 25  2  0
 24 30  1  0
 25 26  1  0
 26 27  2  0
 27 28  1  0
 27 29  1  0
 29 30  2  0
M  END
>  <minimizedAffinity>  (149) 
-9.06374

$$$$
data/200k_reference_output/data/smiles/33919.pdb
     RDKit          3D

 31 34  0  0  0  0  0  0  0  0999 V2000
   71.0728   40.2763   58.3268 N   0  0  0  0  0  0  0  0  0  0  0  0
   69.9858   41.2218   58.1464 C   0  0  0  0  0  0  0  0  0  0  0  0
   70.4359   42.4223   57.3916 C   0  0  0  0  0  0  0  0  0  0  0  0
   71.4669   43.1829   58.1592 C   0  0  0  0  0  0  0  0  0  0  0  0
   71.9291   42.3274   59.3088 C   0  0  0  0  0  0  0  0  0  0  0  0
   72.2720   40.9356   58.8020 C   0  0  0  0  0  0  0  0  0  0  0  0
   70.6576   39.0353   59.4428 S   0  0  0  0  0  0  0  0  0  0  0  0
   71.0674   39.3691   60.8287 O   0  0  0  0  0  0  0  0  0  0  0  0
   69.1478   38.9172   59.4224 O   0  0  0  0  0  0  0  0  0  0  0  0
   72.8351   33.6428   57.6713 C   0  0  0  0  0  0  0  0  0  0  0  0
   72.3106   34.9745   58.0904 C   0  0  0  0  0  0  0  0  0  0  0  0
   72.6044   36.1338   57.4039 C   0  0  0  0  0  0  0  0  0  0  0  0
   72.1011   37.3507   57.8203 C   0  0  0  0  0  0  0  0  0  0  0  0
   71.2889   37.4759   58.9282 C   0  0  0  0  0  0  0  0  0  0  0  0
   70.9959   36.3162   59.6136 C   0  0  0  0  0  0  0  0  0  0  0  0
   71.4991   35.1020   59.1961 C   0  0  0  0  0  0  0  0  0  0  0  0
   70.9883   44.5191   58.5795 C   0  0  0  0  0  0  0  0  0  0  0  0
   70.6702   44.7128   59.7940 O   0  0  0  0  0  0  0  0  0  0  0  0
   70.8547   45.5963   57.7169 O   0  0  0  0  0  0  0  0  0  0  0  0
   69.6447   46.0276   57.1982 C   0  0  0  0  0  0  0  0  0  0  0  0
   69.5202   47.3841   56.7099 C   0  0  0  0  0  0  0  0  0  0  0  0
   69.6681   48.3089   57.6136 O   0  0  0  0  0  0  0  0  0  0  0  0
   69.2658   47.8713   55.4231 N   0  0  0  0  0  0  0  0  0  0  0  0
   69.4667   49.2672   54.9449 C   0  0  0  0  0  0  0  0  0  0  0  0
   70.0737   48.9701   53.5756 C   0  0  0  0  0  0  0  0  0  0  0  0
   69.2614   47.8143   53.1029 C   0  0  0  0  0  0  0  0  0  0  0  0
   68.9517   47.3884   51.8382 C   0  0  0  0  0  0  0  0  0  0  0  0
   68.1339   46.2829   51.7245 C   0  0  0  0  0  0  0  0  0  0  0  0
   67.6564   45.6420   52.8497 C   0  0  0  0  0  0  0  0  0  0  0  0
   67.9868   46.0948   54.1106 C   0  0  0  0  0  0  0  0  0  0  0  0
   68.8093   47.2085   54.2505 C   0  0  0  0  0  0  0  0  0  0  0  0
 10 11  1  0
 11 12  2  0
 11 16  1  0
 12 13  1  0
 13 14  2  0
 14  7  1  0
 14 15  1  0
  7  8  2  0
  7  9  2  0
  7  1  1  0
  1  2  1  0
  1  6  1  0
  2  3  1  0
  3  4  1  0
  4 17  1  0
  4  5  1  0
 17 18  2  0
 17 19  1  0
 19 20  1  0
 20 21  1  0
 21 22  2  0
 21 23  1  0
 23 24  1  0
 23 31  1  0
 24 25  1  0
 25 26  1  0
 26 27  1  0
 26 31  2  0
 27 28  2  0
 28 29  1  0
 29 30  2  0
 30 31  1  0
  5  6  1  0
 15 16  2  0
M  END
>  <minimizedAffinity>  (150) 
-9.06155

$$$$
data/reference_output_2/data/smiles/124821.pdb
     RDKit          3D

 30 32  0  0  0  0  0  0  0  0999 V2000
   68.5655   46.2347   54.2754 C   0  0  0  0  0  0  0  0  0  0  0  0
   68.0810   45.8753   53.0402 C   0  0  0  0  0  0  0  0  0  0  0  0
   68.2485   46.6951   51.9236 C   0  0  0  0  0  0  0  0  0  0  0  0
   68.9278   47.9043   52.0879 C   0  0  0  0  0  0  0  0  0  0  0  0
   69.4219   48.2853   53.3177 C   0  0  0  0  0  0  0  0  0  0  0  0
   69.2312   47.4353   54.4041 C   0  0  0  0  0  0  0  0  0  0  0  0
   67.9499   44.0325   55.3601 N   0  0  0  0  0  0  0  0  0  0  0  0
   68.3788   45.3630   55.4252 C   0  0  0  0  0  0  0  0  0  0  0  0
   68.6181   45.8272   56.5862 O   0  0  0  0  0  0  0  0  0  0  0  0
   67.4857   41.8947   56.5167 C   0  0  0  0  0  0  0  0  0  0  0  0
   67.3425   41.3766   55.3788 O   0  0  0  0  0  0  0  0  0  0  0  0
   67.8007   43.2675   56.5475 N   0  0  0  0  0  0  0  0  0  0  0  0
   67.0608   39.3546   59.9429 C   0  0  0  0  0  0  0  0  0  0  0  0
   66.4351   40.5839   59.9058 C   0  0  0  0  0  0  0  0  0  0  0  0
   66.5674   41.4168   58.7958 C   0  0  0  0  0  0  0  0  0  0  0  0
   67.3193   41.0553   57.6994 C   0  0  0  0  0  0  0  0  0  0  0  0
   67.9352   39.8218   57.7599 C   0  0  0  0  0  0  0  0  0  0  0  0
   67.8139   38.9873   58.8499 C   0  0  0  0  0  0  0  0  0  0  0  0
   65.5169   37.9759   61.3149 C   0  0  0  0  0  0  0  0  0  0  0  0
   66.9237   38.4586   61.1270 C   0  0  0  0  0  0  0  0  0  0  0  0
   70.2664   49.8119   53.4687 S   0  0  0  0  0  0  0  0  0  0  0  0
   69.9147   50.6597   52.2903 O   0  0  0  0  0  0  0  0  0  0  0  0
   71.7522   49.5536   53.4060 O   0  0  0  0  0  0  0  0  0  0  0  0
   69.8324   50.5160   54.9390 N   0  0  0  0  0  0  0  0  0  0  0  0
   68.8137   51.5043   54.8671 C   0  0  0  0  0  0  0  0  0  0  0  0
   68.1560   51.5636   56.2482 C   0  0  0  0  0  0  0  0  0  0  0  0
   68.8313   50.7321   57.1994 N   0  0  0  0  0  0  0  0  0  0  0  0
   68.3607   49.3943   57.0889 C   0  0  0  0  0  0  0  0  0  0  0  0
   70.2480   50.8874   57.2454 C   0  0  0  0  0  0  0  0  0  0  0  0
   70.8805   50.8025   55.8499 C   0  0  0  0  0  0  0  0  0  0  0  0
 19 20  1  0
 20 13  1  0
 13 14  2  0
 13 18  1  0
 14 15  1  0
 15 16  2  0
 16 10  1  0
 16 17  1  0
 10 11  2  0
 10 12  1  0
 12  7  1  0
  7  8  1  0
  8  9  2  0
  8  1  1  0
  1  2  2  0
  1  6  1  0
  2  3  1  0
  3  4  2  0
  4  5  1  0
  5 21  1  0
  5  6  2  0
 21 22  2  0
 21 23  2  0
 21 24  1  0
 24 25  1  0
 24 30  1  0
 25 26  1  0
 26 27  1  0
 27 28  1  0
 27 29  1  0
 29 30  1  0
 17 18  2  0
M  CHG  1  27   1
M  END
>  <minimizedAffinity>  (151) 
-9.06065

$$$$
data/200k_reference_output/data/smiles/45762.pdb
     RDKit          3D

 30 33  0  0  0  0  0  0  0  0999 V2000
   71.7924   47.5511   58.8321 C   0  0  0  0  0  0  0  0  0  0  0  0
   70.9589   48.3113   57.9957 C   0  0  0  0  0  0  0  0  0  0  0  0
   69.9669   47.7640   57.2285 C   0  0  0  0  0  0  0  0  0  0  0  0
   69.7888   46.3932   57.2899 C   0  0  0  0  0  0  0  0  0  0  0  0
   70.5918   45.6210   58.1002 C   0  0  0  0  0  0  0  0  0  0  0  0
   71.5829   46.1905   58.8641 C   0  0  0  0  0  0  0  0  0  0  0  0
   72.3937   45.4574   59.6765 F   0  0  0  0  0  0  0  0  0  0  0  0
   75.9083   48.1499   60.4919 C   0  0  0  0  0  0  0  0  0  0  0  0
   75.0978   49.2631   59.8179 C   0  0  0  0  0  0  0  0  0  0  0  0
   74.5686   50.1537   60.8984 C   0  0  0  0  0  0  0  0  0  0  0  0
   76.0404   49.9849   58.9275 C   0  0  0  0  0  0  0  0  0  0  0  0
   77.1160   50.4228   59.4254 O   0  0  0  0  0  0  0  0  0  0  0  0
   75.8224   50.2207   57.5489 N   0  0  0  0  0  0  0  0  0  0  0  0
   74.5970   49.7344   56.9277 C   0  0  0  0  0  0  0  0  0  0  0  0
   74.2520   48.4259   57.6429 C   0  0  0  0  0  0  0  0  0  0  0  0
   74.0457   48.6249   59.0554 N   0  0  0  0  0  0  0  0  0  0  0  0
   72.8318   48.1893   59.6277 C   0  0  0  0  0  0  0  0  0  0  0  0
   72.6356   48.3541   60.8537 O   0  0  0  0  0  0  0  0  0  0  0  0
   69.1241   48.6309   56.3835 C   0  0  0  0  0  0  0  0  0  0  0  0
   69.4671   48.6370   54.9531 C   0  0  0  0  0  0  0  0  0  0  0  0
   70.3937   49.5028   54.4387 N   0  0  0  0  0  0  0  0  0  0  0  0
   70.7258   49.4878   53.1565 N   0  0  0  0  0  0  0  0  0  0  0  0
   70.1820   48.6259   52.2586 C   0  0  0  0  0  0  0  0  0  0  0  0
   70.5657   48.6915   51.0575 O   0  0  0  0  0  0  0  0  0  0  0  0
   69.2455   47.7364   52.7215 C   0  0  0  0  0  0  0  0  0  0  0  0
   68.9001   47.7565   54.0731 C   0  0  0  0  0  0  0  0  0  0  0  0
   67.9053   46.8420   54.5176 N   0  0  0  0  0  0  0  0  0  0  0  0
   67.8514   45.5521   53.8645 C   0  0  0  0  0  0  0  0  0  0  0  0
   67.7506   45.7477   52.3925 C   0  0  0  0  0  0  0  0  0  0  0  0
   68.6260   46.7806   51.7884 C   0  0  0  0  0  0  0  0  0  0  0  0
  8  9  1  0
  9 10  1  0
  9 11  1  0
  9 16  1  0
 11 12  2  0
 11 13  1  0
 13 14  1  0
 14 15  1  0
 15 16  1  0
 16 17  1  0
 17 18  2  0
 17  1  1  0
  1  2  2  0
  1  6  1  0
  2  3  1  0
  3 19  1  0
  3  4  2  0
 19 20  1  0
 20 21  2  0
 20 26  1  0
 21 22  1  0
 22 23  1  0
 23 24  2  0
 23 25  1  0
 25 26  2  0
 25 30  1  0
 26 27  1  0
 27 28  1  0
 28 29  1  0
 29 30  1  0
  4  5  1  0
  5  6  2  0
  6  7  1  0
M  END
>  <minimizedAffinity>  (152) 
-9.05685

$$$$
data/reference_output_2/data/smiles/134694.pdb
     RDKit          3D

 31 34  0  0  0  0  0  0  0  0999 V2000
   73.0443   45.7623   58.6866 N   0  0  0  0  0  0  0  0  0  0  0  0
   72.8554   44.4030   58.1494 C   0  0  0  0  0  0  0  0  0  0  0  0
   71.4276   44.4587   57.6149 C   0  0  0  0  0  0  0  0  0  0  0  0
   70.6928   45.3836   58.5272 C   0  0  1  0  0  0  0  0  0  0  0  0
   69.7985   44.7144   59.3461 O   0  0  0  0  0  0  0  0  0  0  0  0
   71.7838   46.0862   59.2655 C   0  0  0  0  0  0  0  0  0  0  0  0
   71.6807   46.8621   60.2564 O   0  0  0  0  0  0  0  0  0  0  0  0
   78.5379   50.9140   57.5522 O   0  0  0  0  0  0  0  0  0  0  0  0
   77.8058   49.9415   57.3614 C   0  0  0  0  0  0  0  0  0  0  0  0
   76.8592   49.8717   56.2329 C   0  0  0  0  0  0  0  0  0  0  0  0
   75.4797   49.6093   56.7595 C   0  0  0  0  0  0  0  0  0  0  0  0
   75.4861   48.4137   57.6355 C   0  0  0  0  0  0  0  0  0  0  0  0
   74.3341   47.6403   57.7814 C   0  0  0  0  0  0  0  0  0  0  0  0
   74.2362   46.5202   58.5702 C   0  0  0  0  0  0  0  0  0  0  0  0
   75.3821   46.1518   59.2660 C   0  0  0  0  0  0  0  0  0  0  0  0
   76.5332   46.9003   59.1391 C   0  0  0  0  0  0  0  0  0  0  0  0
   76.5945   48.0136   58.3393 C   0  0  0  0  0  0  0  0  0  0  0  0
   77.8044   48.7821   58.2154 N   0  0  0  0  0  0  0  0  0  0  0  0
   70.0331   46.4476   57.7341 C   0  0  0  0  0  0  0  0  0  0  0  0
   70.4268   47.6346   57.9944 O   0  0  0  0  0  0  0  0  0  0  0  0
   69.0370   46.2457   56.7571 N   0  0  0  0  0  0  0  0  0  0  0  0
   68.4761   47.4451   56.1157 C   0  0  0  0  0  0  0  0  0  0  0  0
   68.5745   47.1790   54.6331 C   0  0  0  0  0  0  0  0  0  0  0  0
   67.8316   46.1521   54.0726 C   0  0  0  0  0  0  0  0  0  0  0  0
   67.9047   45.8929   52.7391 C   0  0  0  0  0  0  0  0  0  0  0  0
   67.1470   44.8632   52.2380 F   0  0  0  0  0  0  0  0  0  0  0  0
   68.7127   46.6384   51.9179 C   0  0  0  0  0  0  0  0  0  0  0  0
   69.4584   47.6678   52.4789 C   0  0  0  0  0  0  0  0  0  0  0  0
   70.2521   48.3885   51.6310 F   0  0  0  0  0  0  0  0  0  0  0  0
   69.3842   47.9332   53.8409 C   0  0  0  0  0  0  0  0  0  0  0  0
   70.1444   48.9601   54.3282 F   0  0  0  0  0  0  0  0  0  0  0  0
  8  9  2  0
  9 10  1  0
  9 18  1  0
 10 11  1  0
 11 12  1  0
 12 13  1  0
 12 17  2  0
 13 14  2  0
 14  1  1  0
 14 15  1  0
  1  2  1  0
  1  6  1  0
  2  3  1  0
  3  4  1  0
  4  5  1  1
  4 19  1  0
  4  6  1  0
 19 20  2  0
 19 21  1  0
 21 22  1  0
 22 23  1  0
 23 24  2  0
 23 30  1  0
 24 25  1  0
 25 26  1  0
 25 27  2  0
 27 28  1  0
 28 29  1  0
 28 30  2  0
 30 31  1  0
  6  7  2  0
 15 16  2  0
 16 17  1  0
 17 18  1  0
M  END
>  <minimizedAffinity>  (153) 
-9.05156

$$$$
data/200k_reference_output/data/smiles/22677.pdb
     RDKit          3D

 31 34  0  0  0  0  0  0  0  0999 V2000
   69.4275   41.7293   58.1827 C   0  0  2  0  0  0  0  0  0  0  0  0
   69.8787   40.3876   58.4072 C   0  0  0  0  0  0  0  0  0  0  0  0
   70.2298   39.3583   58.5602 C   0  0  0  0  0  0  0  0  0  0  0  0
   70.7015   38.0436   58.7470 C   0  0  0  0  0  0  0  0  0  0  0  0
   72.1110   38.1923   58.9527 C   0  0  0  0  0  0  0  0  0  0  0  0
   72.4166   39.5729   58.8862 C   0  0  0  0  0  0  0  0  0  0  0  0
   72.6406   40.6654   58.8263 C   0  0  0  0  0  0  0  0  0  0  0  0
   72.9150   42.0487   58.7732 C   0  0  0  0  0  0  0  0  0  0  0  0
   71.5951   42.8163   58.7870 C   0  0  1  0  0  0  0  0  0  0  0  0
   71.7165   44.1132   58.0805 C   0  0  0  0  0  0  0  0  0  0  0  0
   72.5941   44.9997   58.0468 O   0  0  0  0  0  0  0  0  0  0  0  0
   70.4342   43.8680   57.5042 N   0  0  0  0  0  0  0  0  0  0  0  0
   69.4039   44.7371   56.9738 C   0  0  0  0  0  0  0  0  0  0  0  0
   68.3847   44.2057   56.5032 O   0  0  0  0  0  0  0  0  0  0  0  0
   69.5838   46.1140   57.0038 N   0  0  0  0  0  0  0  0  0  0  0  0
   70.6734   42.4916   57.6715 C   0  0  2  0  0  0  0  0  0  0  0  0
   68.9102   42.3246   59.3275 O   0  0  0  0  0  0  0  0  0  0  0  0
   67.5901   41.6052   61.3414 C   0  0  0  0  0  0  0  0  0  0  0  0
   67.7009   42.0941   59.9235 C   0  0  0  0  0  0  0  0  0  0  0  0
   66.6508   42.2898   59.2919 O   0  0  0  0  0  0  0  0  0  0  0  0
   68.6726   47.1157   56.5183 C   0  0  0  0  0  0  0  0  0  0  0  0
   69.0459   47.6832   55.2288 C   0  0  0  0  0  0  0  0  0  0  0  0
   69.8895   48.8118   55.2216 C   0  0  0  0  0  0  0  0  0  0  0  0
   70.3799   49.3605   54.0606 C   0  0  0  0  0  0  0  0  0  0  0  0
   70.0674   48.8301   52.8386 C   0  0  0  0  0  0  0  0  0  0  0  0
   69.2455   47.7320   52.8094 C   0  0  0  0  0  0  0  0  0  0  0  0
   68.8942   47.2251   51.5783 C   0  0  0  0  0  0  0  0  0  0  0  0
   68.0375   46.1563   51.4929 C   0  0  0  0  0  0  0  0  0  0  0  0
   67.5487   45.6149   52.6472 C   0  0  0  0  0  0  0  0  0  0  0  0
   67.9004   46.1183   53.8563 C   0  0  0  0  0  0  0  0  0  0  0  0
   68.7485   47.1767   53.9931 C   0  0  0  0  0  0  0  0  0  0  0  0
 18 19  1  0
 19 20  2  0
 19 17  1  0
  1 17  1  1
  1  2  1  0
  1 16  1  0
  2  3  3  0
  3  4  1  0
  4  5  2  0
  5  6  1  0
  6  7  3  0
  7  8  1  0
  9  8  1  6
  9 10  1  0
  9 16  1  0
 10 11  2  0
 10 12  1  0
 12 13  1  0
 16 12  1  1
 13 14  2  0
 13 15  1  0
 15 21  1  0
 21 22  1  0
 22 23  2  0
 22 31  1  0
 23 24  1  0
 24 25  2  0
 25 26  1  0
 26 27  1  0
 26 31  2  0
 27 28  2  0
 28 29  1  0
 29 30  2  0
 30 31  1  0
M  END
>  <minimizedAffinity>  (154) 
-9.05097

$$$$
data/200k_reference_output/data/smiles/33620.pdb
     RDKit          3D

 25 26  0  0  0  0  0  0  0  0999 V2000
   74.4338   50.2276   54.4650 O   0  0  0  0  0  0  0  0  0  0  0  0
   73.7450   51.2524   54.3665 C   0  0  0  0  0  0  0  0  0  0  0  0
   72.3931   51.1475   54.0279 N   0  0  0  0  0  0  0  0  0  0  0  0
   71.6222   50.0554   53.7645 N   0  0  0  0  0  0  0  0  0  0  0  0
   70.2439   49.9005   53.5890 C   0  0  0  0  0  0  0  0  0  0  0  0
   69.5234   50.9188   53.6779 O   0  0  0  0  0  0  0  0  0  0  0  0
   69.5918   48.6047   53.3050 C   0  0  0  0  0  0  0  0  0  0  0  0
   68.8533   47.8992   54.2193 C   0  0  0  0  0  0  0  0  0  0  0  0
   68.2617   46.6798   53.8905 C   0  0  0  0  0  0  0  0  0  0  0  0
   68.3961   46.1339   52.6332 C   0  0  0  0  0  0  0  0  0  0  0  0
   69.1357   46.8362   51.7107 C   0  0  0  0  0  0  0  0  0  0  0  0
   69.7140   48.0419   52.0529 C   0  0  0  0  0  0  0  0  0  0  0  0
   70.4673   48.7518   51.1072 O   0  0  0  0  0  0  0  0  0  0  0  0
   74.3736   52.6200   54.6135 C   0  0  0  0  0  0  0  0  0  0  0  0
   73.5412   53.3511   55.6648 C   0  0  0  0  0  0  0  0  0  0  0  0
   72.4404   52.5182   56.1107 N   0  0  0  0  0  0  0  0  0  0  0  0
   71.1374   53.0182   56.3360 C   0  0  0  0  0  0  0  0  0  0  0  0
   70.9505   54.2433   56.1337 O   0  0  0  0  0  0  0  0  0  0  0  0
   70.0218   52.1963   56.7831 C   0  0  0  0  0  0  0  0  0  0  0  0
   70.2420   51.1637   57.6721 C   0  0  0  0  0  0  0  0  0  0  0  0
   69.2164   50.3573   58.1239 C   0  0  0  0  0  0  0  0  0  0  0  0
   67.9186   50.5553   57.6990 C   0  0  0  0  0  0  0  0  0  0  0  0
   66.4849   49.4480   58.3153 Br  0  0  0  0  0  0  0  0  0  0  0  0
   67.6783   51.5816   56.8113 C   0  0  0  0  0  0  0  0  0  0  0  0
   68.7237   52.3798   56.3698 C   0  0  0  0  0  0  0  0  0  0  0  0
  1  2  2  0
  2 14  1  0
  2  3  1  0
 14 15  1  0
 15 16  1  0
 16 17  1  0
 17 18  2  0
 17 19  1  0
 19 20  2  0
 19 25  1  0
 20 21  1  0
 21 22  2  0
 22 23  1  0
 22 24  1  0
 24 25  2  0
  3  4  1  0
  4  5  1  0
  5  6  2  0
  5  7  1  0
  7  8  2  0
  7 12  1  0
  8  9  1  0
  9 10  2  0
 10 11  1  0
 11 12  2  0
 12 13  1  0
M  END
>  <minimizedAffinity>  (155) 
-9.04850

$$$$
data/reference_output_2/data/smiles/163278.pdb
     RDKit          3D

 32 36  0  0  0  0  0  0  0  0999 V2000
   69.3596   51.5341   55.4875 C   0  0  0  0  0  0  0  0  0  0  0  0
   68.3098   51.3087   56.3517 C   0  0  0  0  0  0  0  0  0  0  0  0
   68.5151   51.1584   57.7062 C   0  0  0  0  0  0  0  0  0  0  0  0
   69.8131   51.2409   58.1866 C   0  0  0  0  0  0  0  0  0  0  0  0
   70.0173   51.0829   59.5189 F   0  0  0  0  0  0  0  0  0  0  0  0
   70.8927   51.4631   57.3756 C   0  0  0  0  0  0  0  0  0  0  0  0
   70.6330   51.6082   56.0068 C   0  0  0  0  0  0  0  0  0  0  0  0
   72.2616   51.5672   57.8168 C   0  0  0  0  0  0  0  0  0  0  0  0
   72.8533   52.6630   57.6265 O   0  0  0  0  0  0  0  0  0  0  0  0
   72.9145   50.4987   58.4366 N   0  0  0  0  0  0  0  0  0  0  0  0
   74.3064   50.7160   58.8498 C   0  0  0  0  0  0  0  0  0  0  0  0
   74.4048   50.4882   60.3453 C   0  0  0  0  0  0  0  0  0  0  0  0
   73.8099   49.1497   60.6571 C   0  0  0  0  0  0  0  0  0  0  0  0
   74.2580   48.4616   61.7904 C   0  0  0  0  0  0  0  0  0  0  0  0
   73.7795   47.2214   62.1256 C   0  0  0  0  0  0  0  0  0  0  0  0
   72.8352   46.6676   61.2999 C   0  0  0  0  0  0  0  0  0  0  0  0
   72.3495   47.2914   60.1633 C   0  0  0  0  0  0  0  0  0  0  0  0
   72.8683   48.5509   59.8756 C   0  0  0  0  0  0  0  0  0  0  0  0
   72.2541   49.2682   58.7019 C   0  0  2  0  0  0  0  0  0  0  0  0
   72.1139   48.3006   57.5907 C   0  0  0  0  0  0  0  0  0  0  0  0
   71.1161   47.3092   58.0627 N   0  0  0  0  0  0  0  0  0  0  0  0
   71.4318   46.5988   59.2648 C   0  0  0  0  0  0  0  0  0  0  0  0
   70.9630   45.4803   59.5268 O   0  0  0  0  0  0  0  0  0  0  0  0
   69.1154   51.6929   54.0305 C   0  0  0  0  0  0  0  0  0  0  0  0
   68.7251   46.7855   53.7854 C   0  0  0  0  0  0  0  0  0  0  0  0
   69.1636   48.0651   53.1664 C   0  0  0  0  0  0  0  0  0  0  0  0
   68.9365   49.2313   53.8737 C   0  0  0  0  0  0  0  0  0  0  0  0
   69.3376   50.4114   53.3106 C   0  0  0  0  0  0  0  0  0  0  0  0
   69.9323   50.4015   52.1032 N   0  0  0  0  0  0  0  0  0  0  0  0
   70.1449   49.2806   51.4350 N   0  0  0  0  0  0  0  0  0  0  0  0
   69.7797   48.0782   51.9218 C   0  0  0  0  0  0  0  0  0  0  0  0
   69.9834   47.0154   51.2848 O   0  0  0  0  0  0  0  0  0  0  0  0
 25 26  1  0
 26 27  2  0
 26 31  1  0
 27 28  1  0
 28 24  1  0
 28 29  2  0
 24  1  1  0
  1  2  2  0
  1  7  1  0
  2  3  1  0
  3  4  2  0
  4  5  1  0
  4  6  1  0
  6  8  1  0
  6  7  2  0
  8  9  2  0
  8 10  1  0
 10 11  1  0
 10 19  1  0
 11 12  1  0
 12 13  1  0
 13 14  2  0
 13 18  1  0
 14 15  1  0
 15 16  2  0
 16 17  1  0
 17 18  2  0
 17 22  1  0
 18 19  1  0
 19 20  1  6
 20 21  1  0
 21 22  1  0
 22 23  2  0
 29 30  1  0
 30 31  1  0
 31 32  2  0
M  END
>  <minimizedAffinity>  (156) 
-9.04760

$$$$
data/reference_output_2/data/smiles/130898.pdb
     RDKit          3D

 31 34  0  0  0  0  0  0  0  0999 V2000
   69.3199   41.3446   57.9768 C   0  0  0  0  0  0  0  0  0  0  0  0
   68.2936   40.9452   57.1648 C   0  0  0  0  0  0  0  0  0  0  0  0
   67.7087   41.8085   56.2344 C   0  0  0  0  0  0  0  0  0  0  0  0
   68.1463   43.1070   56.0956 C   0  0  0  0  0  0  0  0  0  0  0  0
   67.7924   44.1451   55.3104 N   0  0  0  0  0  0  0  0  0  0  0  0
   68.5600   45.2133   55.5862 C   0  0  0  0  0  0  0  0  0  0  0  0
   69.3987   44.8283   56.5543 N   0  0  0  0  0  0  0  0  0  0  0  0
   69.1787   43.5326   56.9006 C   0  0  0  0  0  0  0  0  0  0  0  0
   69.7455   42.6724   57.8134 C   0  0  0  0  0  0  0  0  0  0  0  0
   68.4446   46.5350   54.9083 C   0  0  1  0  0  0  0  0  0  0  0  0
   69.2757   47.6021   55.5509 C   0  0  0  0  0  0  0  0  0  0  0  0
   69.3039   48.6609   54.4396 C   0  0  2  0  0  0  0  0  0  0  0  0
   68.2259   49.5331   54.6774 O   0  0  0  0  0  0  0  0  0  0  0  0
   68.9786   47.8321   53.2359 C   0  0  2  0  0  0  0  0  0  0  0  0
   68.9310   46.5047   53.6154 O   0  0  0  0  0  0  0  0  0  0  0  0
   69.9631   48.0489   52.1030 C   0  0  0  0  0  0  0  0  0  0  0  0
   69.6958   47.1754   51.0496 O   0  0  0  0  0  0  0  0  0  0  0  0
   69.3812   40.2268   60.0644 O   0  0  0  0  0  0  0  0  0  0  0  0
   69.9760   40.4935   58.9716 C   0  0  0  0  0  0  0  0  0  0  0  0
   71.2446   39.9562   58.7623 N   0  0  0  0  0  0  0  0  0  0  0  0
   71.9729   39.0975   59.6912 C   0  0  0  0  0  0  0  0  0  0  0  0
   71.8676   37.6708   59.3028 C   0  0  0  0  0  0  0  0  0  0  0  0
   71.1525   36.7512   60.0271 C   0  0  0  0  0  0  0  0  0  0  0  0
   71.0743   35.4153   59.6149 C   0  0  0  0  0  0  0  0  0  0  0  0
   71.7102   35.0135   58.4857 C   0  0  0  0  0  0  0  0  0  0  0  0
   72.4377   35.9130   57.7359 C   0  0  0  0  0  0  0  0  0  0  0  0
   72.5085   37.2249   58.1507 C   0  0  0  0  0  0  0  0  0  0  0  0
   73.1223   35.4393   56.5055 C   0  0  0  0  0  0  0  0  0  0  0  0
   72.8715   34.1288   56.2373 F   0  0  0  0  0  0  0  0  0  0  0  0
   72.6481   36.2172   55.4554 F   0  0  0  0  0  0  0  0  0  0  0  0
   74.4833   35.6166   56.5517 F   0  0  0  0  0  0  0  0  0  0  0  0
 18 19  2  0
 19 20  1  0
 19  1  1  0
 20 21  1  0
 21 22  1  0
 22 23  2  0
 22 27  1  0
 23 24  1  0
 24 25  2  0
 25 26  1  0
 26 28  1  0
 26 27  2  0
 28 29  1  0
 28 30  1  0
 28 31  1  0
  1  2  2  0
  1  9  1  0
  2  3  1  0
  3  4  2  0
  4  5  1  0
  4  8  1  0
  5  6  1  0
 10  6  1  1
  6  7  2  0
 10 11  1  0
 10 15  1  0
 11 12  1  0
 12 13  1  1
 12 14  1  0
 14 16  1  6
 14 15  1  0
 16 17  1  0
  7  8  1  0
  8  9  2  0
M  CHG  1   7   1
M  END
>  <minimizedAffinity>  (157) 
-9.04198

$$$$
data/reference_output_2/data/smiles/180823.pdb
     RDKit          3D

 30 33  0  0  0  0  0  0  0  0999 V2000
   69.6244   39.2150   62.2307 C   0  0  0  0  0  0  0  0  0  0  0  0
   69.8693   39.1379   60.8102 N   0  0  0  0  0  0  0  0  0  0  0  0
   69.6617   40.3382   60.0311 C   0  0  0  0  0  0  0  0  0  0  0  0
   69.0040   41.2227   60.5782 O   0  0  0  0  0  0  0  0  0  0  0  0
   70.1969   40.5262   58.6468 C   0  0  2  0  0  0  0  0  0  0  0  0
   71.6004   40.0013   58.5426 C   0  0  0  0  0  0  0  0  0  0  0  0
   71.7172   38.5500   58.2864 C   0  0  0  0  0  0  0  0  0  0  0  0
   71.1002   37.6460   59.2409 C   0  0  0  0  0  0  0  0  0  0  0  0
   71.4280   36.3362   58.9162 C   0  0  0  0  0  0  0  0  0  0  0  0
   70.9563   35.2939   59.6781 C   0  0  0  0  0  0  0  0  0  0  0  0
   71.2697   33.9956   59.3716 F   0  0  0  0  0  0  0  0  0  0  0  0
   70.1416   35.5461   60.7876 C   0  0  0  0  0  0  0  0  0  0  0  0
   69.8089   36.8338   61.1231 C   0  0  0  0  0  0  0  0  0  0  0  0
   69.0319   37.1477   62.1655 F   0  0  0  0  0  0  0  0  0  0  0  0
   70.2935   37.8603   60.3444 C   0  0  0  0  0  0  0  0  0  0  0  0
   70.1395   41.9280   58.3738 N   0  0  0  0  0  0  0  0  0  0  0  0
   69.3704   42.5311   57.3470 C   0  0  0  0  0  0  0  0  0  0  0  0
   68.6904   41.7492   56.6314 O   0  0  0  0  0  0  0  0  0  0  0  0
   69.3469   43.9720   57.1092 C   0  0  0  0  0  0  0  0  0  0  0  0
   70.1117   44.8679   57.7574 N   0  0  0  0  0  0  0  0  0  0  0  0
   69.8789   46.0858   57.3392 N   0  0  0  0  0  0  0  0  0  0  0  0
   68.9255   45.9854   56.3791 C   0  0  0  0  0  0  0  0  0  0  0  0
   68.6097   44.6625   56.2525 N   0  0  0  0  0  0  0  0  0  0  0  0
   68.3820   47.1368   55.6531 C   0  0  0  0  0  0  0  0  0  0  0  0
   68.4499   46.9985   54.1804 C   0  0  0  0  0  0  0  0  0  0  0  0
   69.2817   47.7926   53.4461 C   0  0  0  0  0  0  0  0  0  0  0  0
   69.3266   47.6396   52.0594 C   0  0  0  0  0  0  0  0  0  0  0  0
   68.5539   46.7110   51.4113 C   0  0  0  0  0  0  0  0  0  0  0  0
   67.7150   45.9099   52.1501 C   0  0  0  0  0  0  0  0  0  0  0  0
   67.6699   46.0618   53.5387 C   0  0  0  0  0  0  0  0  0  0  0  0
  1  2  1  0
  2  3  1  0
  2 15  1  0
  3  4  2  0
  3  5  1  0
  5 16  1  1
  5  6  1  0
 16 17  1  0
 17 18  2  0
 17 19  1  0
 19 20  2  0
 19 23  1  0
 20 21  1  0
 21 22  1  0
 22 24  1  0
 22 23  2  0
 24 25  1  0
 25 26  2  0
 25 30  1  0
 26 27  1  0
 27 28  2  0
 28 29  1  0
 29 30  2  0
  6  7  1  0
  7  8  1  0
  8  9  2  0
  8 15  1  0
  9 10  1  0
 10 11  1  0
 10 12  2  0
 12 13  1  0
 13 14  1  0
 13 15  2  0
M  END
>  <minimizedAffinity>  (158) 
-9.04087

$$$$
data/reference_output_2/data/smiles/132155.pdb
     RDKit          3D

 29 32  0  0  0  0  0  0  0  0999 V2000
   68.9790   44.2410   56.6784 C   0  0  0  0  0  0  0  0  0  0  0  0
   67.9185   43.9011   55.8563 N   0  0  0  0  0  0  0  0  0  0  0  0
   67.6690   42.6233   55.9507 N   0  0  0  0  0  0  0  0  0  0  0  0
   68.5362   42.0483   56.8284 C   0  0  0  0  0  0  0  0  0  0  0  0
   69.3543   43.0523   57.2824 C   0  0  0  0  0  0  0  0  0  0  0  0
   70.4346   42.7343   58.2232 C   0  0  0  0  0  0  0  0  0  0  0  0
   70.3504   41.4670   58.9759 C   0  0  0  0  0  0  0  0  0  0  0  0
   69.6948   40.3748   58.2850 N   0  0  0  0  0  0  0  0  0  0  0  0
   68.6988   40.6952   57.3227 C   0  0  0  0  0  0  0  0  0  0  0  0
   67.9271   39.7833   56.8772 O   0  0  0  0  0  0  0  0  0  0  0  0
   69.4964   45.5547   56.7808 N   0  0  0  0  0  0  0  0  0  0  0  0
   68.9515   46.9880   56.0857 S   0  0  0  0  0  0  0  0  0  0  0  0
   69.7086   48.1838   56.5982 O   0  0  0  0  0  0  0  0  0  0  0  0
   67.5063   47.2197   56.6146 O   0  0  0  0  0  0  0  0  0  0  0  0
   67.1510   45.1488   51.5016 C   0  0  0  0  0  0  0  0  0  0  0  0
   67.9872   46.1358   52.2629 C   0  0  0  0  0  0  0  0  0  0  0  0
   68.7028   47.0890   51.5799 C   0  0  0  0  0  0  0  0  0  0  0  0
   69.4651   47.9891   52.2734 C   0  0  0  0  0  0  0  0  0  0  0  0
   69.5178   47.9421   53.6512 C   0  0  0  0  0  0  0  0  0  0  0  0
   70.2974   48.8672   54.2957 F   0  0  0  0  0  0  0  0  0  0  0  0
   68.8105   46.9968   54.3645 C   0  0  0  0  0  0  0  0  0  0  0  0
   68.0497   46.1001   53.6471 C   0  0  0  0  0  0  0  0  0  0  0  0
   70.0828   39.0315   58.6383 C   0  0  0  0  0  0  0  0  0  0  0  0
   71.4683   38.6388   58.3104 C   0  0  0  0  0  0  0  0  0  0  0  0
   72.5683   39.1878   59.1419 C   0  0  0  0  0  0  0  0  0  0  0  0
   72.6651   38.5194   60.5038 C   0  0  0  0  0  0  0  0  0  0  0  0
   71.5852   37.5688   60.5956 N   0  0  0  0  0  0  0  0  0  0  0  0
   71.6791   36.5285   59.6130 C   0  0  0  0  0  0  0  0  0  0  0  0
   71.5068   37.1163   58.2391 C   0  0  0  0  0  0  0  0  0  0  0  0
 15 16  1  0
 16 17  2  0
 16 22  1  0
 17 18  1  0
 18 19  2  0
 19 20  1  0
 19 21  1  0
 21 12  1  0
 21 22  2  0
 12 13  2  0
 12 14  2  0
 12 11  1  0
 11  1  1  0
  1  2  2  0
  1  5  1  0
  2  3  1  0
  3  4  1  0
  4  5  2  0
  4  9  1  0
  5  6  1  0
  6  7  1  0
  7  8  1  0
  8 23  1  0
  8  9  1  0
 23 24  1  0
 24 25  1  0
 24 29  1  0
 25 26  1  0
 26 27  1  0
 27 28  1  0
 28 29  1  0
  9 10  2  0
M  CHG  1  27   1
M  END
>  <minimizedAffinity>  (159) 
-9.03905

$$$$
data/200k_reference_output/data/smiles/34752.pdb
     RDKit          3D

 31 34  0  0  0  0  0  0  0  0999 V2000
   72.4052   44.6563   60.4693 N   0  0  0  0  0  0  0  0  0  0  0  0
   72.6097   43.8115   59.2791 C   0  0  0  0  0  0  0  0  0  0  0  0
   72.0193   44.6338   58.1570 C   0  0  0  0  0  0  0  0  0  0  0  0
   70.9375   45.4050   58.8623 C   0  0  1  0  0  0  0  0  0  0  0  0
   69.8872   44.6165   59.2494 O   0  0  0  0  0  0  0  0  0  0  0  0
   71.6954   45.8195   60.0941 C   0  0  0  0  0  0  0  0  0  0  0  0
   71.7295   46.9157   60.6898 O   0  0  0  0  0  0  0  0  0  0  0  0
   74.0353   41.6322   67.3442 O   0  0  0  0  0  0  0  0  0  0  0  0
   73.5095   42.1662   66.3504 C   0  0  0  0  0  0  0  0  0  0  0  0
   72.1521   41.7355   65.9283 C   0  0  0  0  0  0  0  0  0  0  0  0
   71.9250   41.8772   64.4702 C   0  0  0  0  0  0  0  0  0  0  0  0
   72.6742   42.9339   63.7838 C   0  0  0  0  0  0  0  0  0  0  0  0
   72.2381   43.3147   62.5015 C   0  0  0  0  0  0  0  0  0  0  0  0
   72.8744   44.2886   61.7702 C   0  0  0  0  0  0  0  0  0  0  0  0
   73.9686   44.8815   62.3496 C   0  0  0  0  0  0  0  0  0  0  0  0
   74.4186   44.5242   63.6128 C   0  0  0  0  0  0  0  0  0  0  0  0
   73.7676   43.5365   64.3471 C   0  0  0  0  0  0  0  0  0  0  0  0
   74.2237   43.1748   65.6474 N   0  0  0  0  0  0  0  0  0  0  0  0
   70.5169   46.6155   58.1185 C   0  0  0  0  0  0  0  0  0  0  0  0
   71.2579   47.5972   57.9172 O   0  0  0  0  0  0  0  0  0  0  0  0
   69.1931   46.6714   57.5980 N   0  0  0  0  0  0  0  0  0  0  0  0
   68.7361   47.8532   56.8538 C   0  0  0  0  0  0  0  0  0  0  0  0
   68.6978   47.5051   55.4084 C   0  0  0  0  0  0  0  0  0  0  0  0
   68.1351   46.3199   54.9754 C   0  0  0  0  0  0  0  0  0  0  0  0
   68.0968   45.9951   53.6292 C   0  0  0  0  0  0  0  0  0  0  0  0
   68.6172   46.8369   52.6644 C   0  0  0  0  0  0  0  0  0  0  0  0
   68.5709   46.5019   51.3485 F   0  0  0  0  0  0  0  0  0  0  0  0
   69.1794   48.0208   53.0948 C   0  0  0  0  0  0  0  0  0  0  0  0
   69.8491   49.1121   51.8821 Cl  0  0  0  0  0  0  0  0  0  0  0  0
   69.2187   48.3520   54.4532 C   0  0  0  0  0  0  0  0  0  0  0  0
   69.7746   49.5198   54.8663 F   0  0  0  0  0  0  0  0  0  0  0  0
  8  9  2  0
  9 10  1  0
  9 18  1  0
 10 11  1  0
 11 12  1  0
 12 13  1  0
 12 17  2  0
 13 14  2  0
 14  1  1  0
 14 15  1  0
  1  2  1  0
  1  6  1  0
  2  3  1  0
  3  4  1  0
  4  5  1  1
  4 19  1  0
  4  6  1  0
 19 20  2  0
 19 21  1  0
 21 22  1  0
 22 23  1  0
 23 24  2  0
 23 30  1  0
 24 25  1  0
 25 26  2  0
 26 27  1  0
 26 28  1  0
 28 29  1  0
 28 30  2  0
 30 31  1  0
  6  7  2  0
 15 16  2  0
 16 17  1  0
 17 18  1  0
M  END
>  <minimizedAffinity>  (160) 
-9.03729

$$$$
data/reference_output_2/data/smiles/121926.pdb
     RDKit          3D

 32 35  0  0  0  0  0  0  0  0999 V2000
   70.9540   44.5328   59.1054 C   0  0  0  0  0  0  0  0  0  0  0  0
   70.8507   45.8320   58.9179 C   0  0  0  0  0  0  0  0  0  0  0  0
   71.5543   46.6258   59.7481 N   0  0  0  0  0  0  0  0  0  0  0  0
   71.4577   47.9546   59.5612 C   0  0  0  0  0  0  0  0  0  0  0  0
   72.0984   48.7177   60.3143 O   0  0  0  0  0  0  0  0  0  0  0  0
   70.6848   48.5402   58.5734 C   0  0  0  0  0  0  0  0  0  0  0  0
   70.5896   49.8269   58.3879 C   0  0  0  0  0  0  0  0  0  0  0  0
   69.9961   47.7339   57.7623 N   0  0  0  0  0  0  0  0  0  0  0  0
   70.0656   46.3986   57.9167 C   0  0  0  0  0  0  0  0  0  0  0  0
   69.4228   45.6057   57.1601 O   0  0  0  0  0  0  0  0  0  0  0  0
   69.7525   50.3801   57.3238 C   0  0  0  0  0  0  0  0  0  0  0  0
   68.6030   51.0710   57.5426 C   0  0  0  0  0  0  0  0  0  0  0  0
   67.8884   51.5416   56.4676 C   0  0  0  0  0  0  0  0  0  0  0  0
   68.2875   51.3463   55.1633 C   0  0  0  0  0  0  0  0  0  0  0  0
   69.4636   50.6398   54.9369 C   0  0  0  0  0  0  0  0  0  0  0  0
   70.1736   50.1714   56.0278 C   0  0  0  0  0  0  0  0  0  0  0  0
   69.8994   50.4078   53.5665 C   0  0  0  0  0  0  0  0  0  0  0  0
   70.4711   51.3318   52.9493 O   0  0  0  0  0  0  0  0  0  0  0  0
   69.6865   49.1400   52.9056 C   0  0  0  0  0  0  0  0  0  0  0  0
   68.9440   48.0346   53.2713 C   0  0  0  0  0  0  0  0  0  0  0  0
   69.0233   47.0454   52.3076 C   0  0  0  0  0  0  0  0  0  0  0  0
   69.8173   47.5414   51.3472 N   0  0  0  0  0  0  0  0  0  0  0  0
   70.2261   48.7699   51.6659 C   0  0  0  0  0  0  0  0  0  0  0  0
   73.0253   43.3774   59.9110 C   0  0  0  0  0  0  0  0  0  0  0  0
   73.5202   42.9252   61.1006 N   0  0  0  0  0  0  0  0  0  0  0  0
   72.5908   43.2206   62.0341 C   0  0  0  0  0  0  0  0  0  0  0  0
   71.5426   43.8355   61.4674 N   0  0  0  0  0  0  0  0  0  0  0  0
   71.7883   43.9421   60.1631 C   0  0  0  0  0  0  0  0  0  0  0  0
   72.7465   42.6823   57.5293 C   0  0  0  0  0  0  0  0  0  0  0  0
   73.6697   43.2918   58.5825 C   0  0  0  0  0  0  0  0  0  0  0  0
   74.1293   44.6208   58.0840 C   0  0  0  0  0  0  0  0  0  0  0  0
   74.8886   42.3760   58.6203 C   0  0  0  0  0  0  0  0  0  0  0  0
 29 30  1  0
 30 31  1  0
 30 32  1  0
 30 24  1  0
 24 25  1  0
 24 28  2  0
 25 26  1  0
 26 27  2  0
 27 28  1  0
 28  1  1  0
  1  2  2  0
  2  3  1  0
  2  9  1  0
  3  4  1  0
  4  5  2  0
  4  6  1  0
  6  7  2  0
  6  8  1  0
  7 11  1  0
 11 12  2  0
 11 16  1  0
 12 13  1  0
 13 14  2  0
 14 15  1  0
 15 17  1  0
 15 16  2  0
 17 18  2  0
 17 19  1  0
 19 20  1  0
 19 23  2  0
 20 21  2  0
 21 22  1  0
 22 23  1  0
  8  9  1  0
  9 10  2  0
M  CHG  1  27   1
M  END
>  <minimizedAffinity>  (161) 
-9.03395

$$$$
data/reference_output_2/data/smiles/102279.pdb
     RDKit          3D

 26 28  0  0  0  0  0  0  0  0999 V2000
   70.3358   44.2497   57.7098 C   0  0  0  0  0  0  0  0  0  0  0  0
   69.4714   44.9756   56.8509 C   0  0  0  0  0  0  0  0  0  0  0  0
   69.5428   46.2769   57.0858 N   0  0  0  0  0  0  0  0  0  0  0  0
   70.4279   46.4483   58.0757 C   0  0  0  0  0  0  0  0  0  0  0  0
   70.8799   47.6102   58.7088 C   0  0  0  0  0  0  0  0  0  0  0  0
   71.8083   47.5934   59.7163 C   0  0  0  0  0  0  0  0  0  0  0  0
   72.2954   46.3794   60.0982 C   0  0  0  0  0  0  0  0  0  0  0  0
   73.5909   46.2329   61.4869 Br  0  0  0  0  0  0  0  0  0  0  0  0
   71.8557   45.2268   59.4823 C   0  0  0  0  0  0  0  0  0  0  0  0
   70.9132   45.2155   58.4581 C   0  0  0  0  0  0  0  0  0  0  0  0
   71.8841   42.2584   57.6655 C   0  0  0  0  0  0  0  0  0  0  0  0
   70.4454   42.8319   57.6188 C   0  0  0  0  0  0  0  0  0  0  0  0
   69.5822   41.9993   57.5493 N   0  0  0  0  0  0  0  0  0  0  0  0
   68.2965   41.9371   57.4857 N   0  0  0  0  0  0  0  0  0  0  0  0
   67.5924   41.6983   56.2349 C   0  0  0  0  0  0  0  0  0  0  0  0
   66.9473   42.7019   55.7664 N   0  0  0  0  0  0  0  0  0  0  0  0
   67.6346   40.4315   55.5986 N   0  0  0  0  0  0  0  0  0  0  0  0
   68.6761   47.4705   56.2400 S   0  0  0  0  0  0  0  0  0  0  0  0
   69.4326   48.7853   56.3361 O   0  0  0  0  0  0  0  0  0  0  0  0
   67.2891   47.6386   56.8166 O   0  0  0  0  0  0  0  0  0  0  0  0
   68.5365   47.0285   54.5564 C   0  0  0  0  0  0  0  0  0  0  0  0
   69.2454   47.7870   53.6109 C   0  0  0  0  0  0  0  0  0  0  0  0
   69.2096   47.4975   52.2647 C   0  0  0  0  0  0  0  0  0  0  0  0
   68.4553   46.4317   51.8367 C   0  0  0  0  0  0  0  0  0  0  0  0
   67.7643   45.6942   52.7635 C   0  0  0  0  0  0  0  0  0  0  0  0
   67.7919   45.9722   54.1020 C   0  0  0  0  0  0  0  0  0  0  0  0
 11 12  1  0
 12 13  2  0
 12  1  1  0
 13 14  1  0
 14 15  1  0
 15 16  2  0
 15 17  1  0
  1  2  2  0
  1 10  1  0
  2  3  1  0
  3 18  1  0
  3  4  1  0
 18 19  2  0
 18 20  2  0
 18 21  1  0
 21 22  2  0
 21 26  1  0
 22 23  1  0
 23 24  2  0
 24 25  1  0
 25 26  2  0
  4  5  1  0
  4 10  2  0
  5  6  2  0
  6  7  1  0
  7  8  1  0
  7  9  2  0
  9 10  1  0
M  CHG  1  16   1
M  END
>  <minimizedAffinity>  (162) 
-9.03342

$$$$
data/reference_output_2/data/smiles/165673.pdb
     RDKit          3D

 29 31  0  0  0  0  0  0  0  0999 V2000
   69.7393   47.3616   57.4171 C   0  0  0  0  0  0  0  0  0  0  0  0
   68.5381   47.2716   57.7726 O   0  0  0  0  0  0  0  0  0  0  0  0
   70.0255   47.9903   56.1864 N   0  0  0  0  0  0  0  0  0  0  0  0
   68.9305   48.4990   55.3935 C   0  0  1  0  0  0  0  0  0  0  0  0
   69.1268   49.9398   55.0509 C   0  0  0  0  0  0  0  0  0  0  0  0
   68.4446   50.7594   55.7223 O   0  0  0  0  0  0  0  0  0  0  0  0
   69.9559   50.5820   54.0909 N   0  0  0  0  0  0  0  0  0  0  0  0
   70.1848   52.0143   54.2313 C   0  0  0  0  0  0  0  0  0  0  0  0
   70.5761   49.9422   53.0083 N   0  0  0  0  0  0  0  0  0  0  0  0
   70.3681   48.7717   52.4985 C   0  0  0  0  0  0  0  0  0  0  0  0
   69.3793   47.7899   52.9610 C   0  0  0  0  0  0  0  0  0  0  0  0
   69.0990   46.9043   51.9224 C   0  0  0  0  0  0  0  0  0  0  0  0
   68.1941   45.8804   52.1019 C   0  0  0  0  0  0  0  0  0  0  0  0
   67.5614   45.7354   53.3286 C   0  0  0  0  0  0  0  0  0  0  0  0
   67.8592   46.6315   54.3469 C   0  0  0  0  0  0  0  0  0  0  0  0
   68.7594   47.6576   54.1815 C   0  0  0  0  0  0  0  0  0  0  0  0
   71.9500   47.7640   58.4245 C   0  0  0  0  0  0  0  0  0  0  0  0
   70.7886   46.8049   58.3087 C   0  0  2  0  0  0  0  0  0  0  0  0
   71.1829   45.4821   57.9359 N   0  0  0  0  0  0  0  0  0  0  0  0
   70.6532   44.2928   58.4487 C   0  0  0  0  0  0  0  0  0  0  0  0
   69.7478   44.3662   59.3164 O   0  0  0  0  0  0  0  0  0  0  0  0
   71.0929   42.9355   58.0325 C   0  0  0  0  0  0  0  0  0  0  0  0
   69.9432   42.0592   57.7083 C   0  0  0  0  0  0  0  0  0  0  0  0
   69.8924   40.7989   58.2567 C   0  0  0  0  0  0  0  0  0  0  0  0
   68.8394   39.9558   57.9783 C   0  0  0  0  0  0  0  0  0  0  0  0
   67.8339   40.3891   57.1414 C   0  0  0  0  0  0  0  0  0  0  0  0
   67.8711   41.6509   56.5844 C   0  0  0  0  0  0  0  0  0  0  0  0
   66.5627   42.1763   55.5148 Cl  0  0  0  0  0  0  0  0  0  0  0  0
   68.9343   42.4813   56.8749 C   0  0  0  0  0  0  0  0  0  0  0  0
 18 17  1  6
 18 19  1  0
 18  1  1  0
 19 20  1  0
 20 21  2  0
 20 22  1  0
 22 23  1  0
 23 24  2  0
 23 29  1  0
 24 25  1  0
 25 26  2  0
 26 27  1  0
 27 28  1  0
 27 29  2  0
  1  2  2  0
  1  3  1  0
  4  3  1  6
  4  5  1  0
  4 16  1  0
  5  6  2  0
  5  7  1  0
  7  8  1  0
  7  9  1  0
  9 10  2  0
 10 11  1  0
 11 12  1  0
 11 16  2  0
 12 13  2  0
 13 14  1  0
 14 15  2  0
 15 16  1  0
M  END
>  <minimizedAffinity>  (163) 
-9.02689

$$$$
data/reference_output_2/data/smiles/88117.pdb
     RDKit          3D

 30 34  0  0  0  0  0  0  0  0999 V2000
   71.6482   47.1247   59.0514 C   0  0  0  0  0  0  0  0  0  0  0  0
   70.6582   47.6995   58.3017 C   0  0  0  0  0  0  0  0  0  0  0  0
   69.8686   46.9566   57.4078 C   0  0  0  0  0  0  0  0  0  0  0  0
   70.1273   45.6215   57.3121 C   0  0  0  0  0  0  0  0  0  0  0  0
   71.1275   45.0261   58.0657 C   0  0  0  0  0  0  0  0  0  0  0  0
   71.8775   45.7811   58.9258 C   0  0  0  0  0  0  0  0  0  0  0  0
   72.8414   45.1730   59.6444 F   0  0  0  0  0  0  0  0  0  0  0  0
   72.2381   47.8892   61.1874 O   0  0  0  0  0  0  0  0  0  0  0  0
   72.4170   47.9808   59.9477 C   0  0  0  0  0  0  0  0  0  0  0  0
   73.3661   48.9228   59.4900 N   0  0  0  0  0  0  0  0  0  0  0  0
   74.1932   49.8271   60.2580 C   0  0  0  0  0  0  0  0  0  0  0  0
   75.4989   49.8484   59.5362 C   0  0  0  0  0  0  0  0  0  0  0  0
   75.2360   49.1371   58.2275 C   0  0  1  0  0  0  0  0  0  0  0  0
   76.0091   49.7609   57.1295 C   0  0  0  0  0  0  0  0  0  0  0  0
   77.3067   48.9646   57.1478 C   0  0  0  0  0  0  0  0  0  0  0  0
   77.2067   48.0107   58.2144 N   0  0  0  0  0  0  0  0  0  0  0  0
   75.7658   47.7261   58.2314 C   0  0  0  0  0  0  0  0  0  0  0  0
   73.7411   49.2086   58.0921 C   0  0  0  0  0  0  0  0  0  0  0  0
   68.8078   47.6769   56.6612 C   0  0  0  0  0  0  0  0  0  0  0  0
   69.2485   48.0103   55.2723 C   0  0  0  0  0  0  0  0  0  0  0  0
   70.1574   49.0249   55.1604 N   0  0  0  0  0  0  0  0  0  0  0  0
   70.6194   49.3360   53.9759 N   0  0  0  0  0  0  0  0  0  0  0  0
   70.2548   48.7167   52.8567 C   0  0  0  0  0  0  0  0  0  0  0  0
   70.7254   49.0478   51.7414 O   0  0  0  0  0  0  0  0  0  0  0  0
   69.3424   47.6908   52.9198 C   0  0  0  0  0  0  0  0  0  0  0  0
   68.9313   47.0336   51.7816 C   0  0  0  0  0  0  0  0  0  0  0  0
   68.0122   46.0262   51.8881 C   0  0  0  0  0  0  0  0  0  0  0  0
   67.4971   45.6676   53.1187 C   0  0  0  0  0  0  0  0  0  0  0  0
   67.9067   46.3251   54.2656 C   0  0  0  0  0  0  0  0  0  0  0  0
   68.8317   47.3384   54.1742 C   0  0  0  0  0  0  0  0  0  0  0  0
  8  9  2  0
  9  1  1  0
  9 10  1  0
  1  2  2  0
  1  6  1  0
  2  3  1  0
  3 19  1  0
  3  4  2  0
 19 20  1  0
 20 21  2  0
 20 30  1  0
 21 22  1  0
 22 23  1  0
 23 24  2  0
 23 25  1  0
 25 26  1  0
 25 30  2  0
 26 27  2  0
 27 28  1  0
 28 29  2  0
 29 30  1  0
  4  5  1  0
  5  6  2  0
  6  7  1  0
 10 11  1  0
 10 18  1  0
 11 12  1  0
 13 12  1  1
 13 14  1  0
 13 17  1  0
 13 18  1  0
 14 15  1  0
 15 16  1  0
 16 17  1  0
M  CHG  1  16   1
M  END
>  <minimizedAffinity>  (164) 
-9.02614

$$$$
data/reference_output_2/data/smiles/195945.pdb
     RDKit          3D

 29 32  0  0  0  0  0  0  0  0999 V2000
   69.7334   43.4407   57.4664 C   0  0  0  0  0  0  0  0  0  0  0  0
   68.5152   42.8992   56.7859 C   0  0  0  0  0  0  0  0  0  0  0  0
   67.9228   41.6838   57.0626 C   0  0  0  0  0  0  0  0  0  0  0  0
   66.8497   41.6203   56.1971 C   0  0  0  0  0  0  0  0  0  0  0  0
   66.8371   42.7585   55.4607 N   0  0  0  0  0  0  0  0  0  0  0  0
   67.8440   43.5405   55.8097 N   0  0  0  0  0  0  0  0  0  0  0  0
   68.1801   44.8213   55.2742 C   0  0  0  0  0  0  0  0  0  0  0  0
   68.2009   45.0676   53.9548 N   0  0  0  0  0  0  0  0  0  0  0  0
   68.5190   46.2838   53.4221 C   0  0  0  0  0  0  0  0  0  0  0  0
   68.8380   47.3308   54.2537 C   0  0  0  0  0  0  0  0  0  0  0  0
   68.8137   47.0682   55.6057 C   0  0  0  0  0  0  0  0  0  0  0  0
   69.1043   48.0176   56.3818 O   0  0  0  0  0  0  0  0  0  0  0  0
   68.4940   45.8509   56.0808 N   0  0  0  0  0  0  0  0  0  0  0  0
   69.1533   48.5456   53.4317 C   0  0  0  0  0  0  0  0  0  0  0  0
   69.6508   47.8655   52.1440 C   0  0  0  0  0  0  0  0  0  0  0  0
   68.6007   46.7864   52.0274 C   0  0  0  0  0  0  0  0  0  0  0  0
   68.3442   40.6758   58.0613 C   0  0  0  0  0  0  0  0  0  0  0  0
   69.2740   39.9013   57.8074 O   0  0  0  0  0  0  0  0  0  0  0  0
   67.6604   40.6347   59.2838 N   0  0  0  0  0  0  0  0  0  0  0  0
   66.5644   41.5192   59.6314 C   0  0  0  0  0  0  0  0  0  0  0  0
   66.6235   41.9420   61.0846 C   0  0  0  0  0  0  0  0  0  0  0  0
   68.0378   41.7876   61.5490 C   0  0  2  0  0  0  0  0  0  0  0  0
   68.4451   40.3394   61.5473 C   0  0  0  0  0  0  0  0  0  0  0  0
   68.0495   39.6604   60.2787 C   0  0  1  0  0  0  0  0  0  0  0  0
   66.8973   38.7002   60.4444 C   0  0  0  0  0  0  0  0  0  0  0  0
   68.2713   42.4106   62.9067 C   0  0  0  0  0  0  0  0  0  0  0  0
   67.4626   41.7347   63.8243 F   0  0  0  0  0  0  0  0  0  0  0  0
   67.8351   43.7172   62.9069 F   0  0  0  0  0  0  0  0  0  0  0  0
   69.5776   42.3623   63.3011 F   0  0  0  0  0  0  0  0  0  0  0  0
  1  2  1  0
  2  3  2  0
  2  6  1  0
  3 17  1  0
  3  4  1  0
 17 18  2  0
 17 19  1  0
 19 20  1  0
 19 24  1  0
 20 21  1  0
 21 22  1  0
 22 26  1  1
 22 23  1  0
 26 27  1  0
 26 28  1  0
 26 29  1  0
 23 24  1  0
 24 25  1  1
  4  5  2  0
  5  6  1  0
  6  7  1  0
  7  8  2  0
  7 13  1  0
  8  9  1  0
  9 10  2  0
  9 16  1  0
 10 11  1  0
 10 14  1  0
 11 12  2  0
 11 13  1  0
 14 15  1  0
 15 16  1  0
M  END
>  <minimizedAffinity>  (165) 
-9.02549

$$$$
data/reference_output_2/data/smiles/146167.pdb
     RDKit          3D

 30 34  0  0  0  0  0  0  0  0999 V2000
   70.2958   42.1310   58.5457 N   0  0  0  0  0  0  0  0  0  0  0  0
   70.8910   43.0839   59.4618 C   0  0  0  0  0  0  0  0  0  0  0  0
   71.3406   44.3365   58.7790 C   0  0  0  0  0  0  0  0  0  0  0  0
   70.3919   44.9018   57.8137 C   0  0  0  0  0  0  0  0  0  0  0  0
   70.1648   46.1160   57.2732 N   0  0  0  0  0  0  0  0  0  0  0  0
   69.1379   46.0736   56.4056 C   0  0  0  0  0  0  0  0  0  0  0  0
   68.6953   44.8047   56.3864 N   0  0  0  0  0  0  0  0  0  0  0  0
   69.4504   44.0821   57.2395 C   0  0  0  0  0  0  0  0  0  0  0  0
   69.3883   42.6712   57.6006 C   0  0  0  0  0  0  0  0  0  0  0  0
   68.5312   41.9423   57.0716 O   0  0  0  0  0  0  0  0  0  0  0  0
   69.1836   37.9768   60.8283 C   0  0  0  0  0  0  0  0  0  0  0  0
   70.0636   38.5948   59.8597 N   0  0  0  0  0  0  0  0  0  0  0  0
   69.9139   39.9960   59.6526 C   0  0  0  0  0  0  0  0  0  0  0  0
   69.0992   40.5448   60.4365 O   0  0  0  0  0  0  0  0  0  0  0  0
   70.6279   40.7684   58.6285 C   0  0  2  0  0  0  0  0  0  0  0  0
   72.1262   40.5359   58.8863 C   0  0  0  0  0  0  0  0  0  0  0  0
   72.5540   39.3320   58.2287 O   0  0  0  0  0  0  0  0  0  0  0  0
   72.1130   38.0204   58.4931 C   0  0  0  0  0  0  0  0  0  0  0  0
   72.9093   37.0546   57.9470 C   0  0  0  0  0  0  0  0  0  0  0  0
   72.5692   35.7166   58.1444 C   0  0  0  0  0  0  0  0  0  0  0  0
   71.4541   35.3643   58.8752 C   0  0  0  0  0  0  0  0  0  0  0  0
   70.6568   36.3490   59.4227 C   0  0  0  0  0  0  0  0  0  0  0  0
   70.9864   37.6752   59.2311 C   0  0  0  0  0  0  0  0  0  0  0  0
   68.6289   47.2501   55.6340 C   0  0  0  0  0  0  0  0  0  0  0  0
   68.5350   46.9552   54.1919 C   0  0  0  0  0  0  0  0  0  0  0  0
   69.2841   47.6995   53.3111 C   0  0  0  0  0  0  0  0  0  0  0  0
   69.2243   47.4546   51.9564 C   0  0  0  0  0  0  0  0  0  0  0  0
   68.3861   46.4337   51.4967 C   0  0  0  0  0  0  0  0  0  0  0  0
   67.6262   45.6758   52.3674 C   0  0  0  0  0  0  0  0  0  0  0  0
   67.7004   45.9372   53.7199 C   0  0  0  0  0  0  0  0  0  0  0  0
 11 12  1  0
 12 13  1  0
 12 23  1  0
 13 14  2  0
 13 15  1  0
 15  1  1  1
 15 16  1  0
  1  2  1  0
  1  9  1  0
  2  3  1  0
  3  4  1  0
  4  5  1  0
  4  8  2  0
  5  6  1  0
  6 24  1  0
  6  7  2  0
 24 25  1  0
 25 26  2  0
 25 30  1  0
 26 27  1  0
 27 28  2  0
 28 29  1  0
 29 30  2  0
  7  8  1  0
  8  9  1  0
  9 10  2  0
 16 17  1  0
 17 18  1  0
 18 19  2  0
 18 23  1  0
 19 20  1  0
 20 21  2  0
 21 22  1  0
 22 23  2  0
M  CHG  1   7   1
M  END
>  <minimizedAffinity>  (166) 
-9.02527

$$$$
data/200k_reference_output/data/smiles/41717.pdb
     RDKit          3D

 29 31  0  0  0  0  0  0  0  0999 V2000
   69.1978   47.8413   52.8985 C   0  0  0  0  0  0  0  0  0  0  0  0
   68.6029   47.4168   51.7290 C   0  0  0  0  0  0  0  0  0  0  0  0
   67.8692   46.2380   51.7166 C   0  0  0  0  0  0  0  0  0  0  0  0
   67.7502   45.5126   52.8845 C   0  0  0  0  0  0  0  0  0  0  0  0
   68.3219   45.8970   54.0602 C   0  0  0  0  0  0  0  0  0  0  0  0
   69.0498   47.0814   54.0378 C   0  0  0  0  0  0  0  0  0  0  0  0
   70.1192   49.3280   52.8944 S   0  0  0  0  0  0  0  0  0  0  0  0
   71.5942   49.0679   52.8632 O   0  0  0  0  0  0  0  0  0  0  0  0
   69.8045   50.1363   51.6436 O   0  0  0  0  0  0  0  0  0  0  0  0
   69.0437   51.5768   53.9484 C   0  0  0  0  0  0  0  0  0  0  0  0
   69.6485   50.2853   54.2349 N   0  0  0  0  0  0  0  0  0  0  0  0
   69.8227   49.8753   55.5845 C   0  0  0  0  0  0  0  0  0  0  0  0
   68.7802   49.7205   56.4647 C   0  0  0  0  0  0  0  0  0  0  0  0
   69.0066   49.3184   57.7673 C   0  0  0  0  0  0  0  0  0  0  0  0
   70.2777   49.0563   58.2408 C   0  0  0  0  0  0  0  0  0  0  0  0
   71.3235   49.2111   57.3605 C   0  0  0  0  0  0  0  0  0  0  0  0
   71.0924   49.6112   56.0658 C   0  0  0  0  0  0  0  0  0  0  0  0
   68.2127   45.1465   55.3095 C   0  0  0  0  0  0  0  0  0  0  0  0
   68.5066   45.7067   56.3969 O   0  0  0  0  0  0  0  0  0  0  0  0
   67.7890   43.8010   55.3813 N   0  0  0  0  0  0  0  0  0  0  0  0
   67.6856   43.0840   56.5868 N   0  0  0  0  0  0  0  0  0  0  0  0
   67.5498   41.6800   56.6375 C   0  0  0  0  0  0  0  0  0  0  0  0
   67.5226   41.0692   55.5355 O   0  0  0  0  0  0  0  0  0  0  0  0
   67.4427   40.9184   57.8733 C   0  0  0  0  0  0  0  0  0  0  0  0
   66.6974   41.3970   58.9314 C   0  0  0  0  0  0  0  0  0  0  0  0
   66.5829   40.6848   60.1219 C   0  0  0  0  0  0  0  0  0  0  0  0
   67.1928   39.5008   60.2925 N   0  0  0  0  0  0  0  0  0  0  0  0
   67.9242   39.0254   59.2631 C   0  0  0  0  0  0  0  0  0  0  0  0
   68.0558   39.7070   58.0748 C   0  0  0  0  0  0  0  0  0  0  0  0
 10 11  1  0
 11 12  1  0
 11  7  1  0
 12 13  2  0
 12 17  1  0
 13 14  1  0
 14 15  2  0
 15 16  1  0
 16 17  2  0
  7  8  2  0
  7  9  2  0
  7  1  1  0
  1  2  2  0
  1  6  1  0
  2  3  1  0
  3  4  2  0
  4  5  1  0
  5 18  1  0
  5  6  2  0
 18 19  2  0
 18 20  1  0
 20 21  1  0
 21 22  1  0
 22 23  2  0
 22 24  1  0
 24 25  2  0
 24 29  1  0
 25 26  1  0
 26 27  2  0
 27 28  1  0
 28 29  2  0
M  END
>  <minimizedAffinity>  (167) 
-9.02389

$$$$
data/200k_reference_output/data/smiles/5249.pdb
     RDKit          3D

 30 33  0  0  0  0  0  0  0  0999 V2000
   70.6666   50.0715   57.7317 N   0  0  0  0  0  0  0  0  0  0  0  0
   71.8511   50.8980   57.7895 C   0  0  0  0  0  0  0  0  0  0  0  0
   71.5250   52.2055   57.0857 C   0  0  0  0  0  0  0  0  0  0  0  0
   70.2490   51.8513   56.3492 C   0  0  2  0  0  0  0  0  0  0  0  0
   69.5793   50.9515   57.3413 C   0  0  0  0  0  0  0  0  0  0  0  0
   70.5157   45.8977   58.3736 C   0  0  0  0  0  0  0  0  0  0  0  0
   69.8314   46.5332   57.3520 C   0  0  0  0  0  0  0  0  0  0  0  0
   69.8796   47.8934   57.1619 C   0  0  0  0  0  0  0  0  0  0  0  0
   70.6353   48.6903   58.0090 C   0  0  0  0  0  0  0  0  0  0  0  0
   71.3163   48.0713   59.0268 C   0  0  0  0  0  0  0  0  0  0  0  0
   72.0630   48.8178   59.8945 C   0  0  0  0  0  0  0  0  0  0  0  0
   72.7061   48.1446   60.8850 N   0  0  0  0  0  0  0  0  0  0  0  0
   72.6486   46.8250   61.0525 C   0  0  0  0  0  0  0  0  0  0  0  0
   71.9248   46.0844   60.2175 N   0  0  0  0  0  0  0  0  0  0  0  0
   71.2659   46.6954   59.2157 C   0  0  0  0  0  0  0  0  0  0  0  0
   69.5380   43.8775   59.4640 N   0  0  0  0  0  0  0  0  0  0  0  0
   70.4374   44.4538   58.5401 C   0  0  0  0  0  0  0  0  0  0  0  0
   71.1734   43.7139   57.8568 O   0  0  0  0  0  0  0  0  0  0  0  0
   70.6542   51.1689   55.0726 C   0  0  0  0  0  0  0  0  0  0  0  0
   69.7821   50.1005   54.6858 N   0  0  0  0  0  0  0  0  0  0  0  0
   70.2541   49.1930   53.7046 C   0  0  0  0  0  0  0  0  0  0  0  0
   71.4179   49.3358   53.1910 O   0  0  0  0  0  0  0  0  0  0  0  0
   69.4537   48.0718   53.2367 C   0  0  0  0  0  0  0  0  0  0  0  0
   69.1738   47.8365   51.9165 C   0  0  0  0  0  0  0  0  0  0  0  0
   68.4020   46.7521   51.4944 C   0  0  0  0  0  0  0  0  0  0  0  0
   67.9006   45.8854   52.4320 C   0  0  0  0  0  0  0  0  0  0  0  0
   67.1529   44.8357   52.0145 F   0  0  0  0  0  0  0  0  0  0  0  0
   68.1560   46.0796   53.7829 C   0  0  0  0  0  0  0  0  0  0  0  0
   67.6412   45.1996   54.6664 F   0  0  0  0  0  0  0  0  0  0  0  0
   68.9172   47.1557   54.1487 C   0  0  0  0  0  0  0  0  0  0  0  0
 16 17  1  0
 17 18  2  0
 17  6  1  0
  6  7  2  0
  6 15  1  0
  7  8  1  0
  8  9  2  0
  9  1  1  0
  9 10  1  0
  1  2  1  0
  1  5  1  0
  2  3  1  0
  3  4  1  0
  4 19  1  6
  4  5  1  0
 19 20  1  0
 20 21  1  0
 21 22  2  0
 21 23  1  0
 23 24  2  0
 23 30  1  0
 24 25  1  0
 25 26  2  0
 26 27  1  0
 26 28  1  0
 28 29  1  0
 28 30  2  0
 10 11  1  0
 10 15  2  0
 11 12  2  0
 12 13  1  0
 13 14  2  0
 14 15  1  0
M  END
>  <minimizedAffinity>  (168) 
-9.02114

$$$$
data/reference_output_2/data/smiles/171764.pdb
     RDKit          3D

 31 35  0  0  0  0  0  0  0  0999 V2000
   69.9039   43.4741   57.4618 C   0  0  0  0  0  0  0  0  0  0  0  0
   68.6539   42.8693   56.8915 C   0  0  0  0  0  0  0  0  0  0  0  0
   68.1157   41.6495   57.2407 C   0  0  0  0  0  0  0  0  0  0  0  0
   66.9714   41.5310   56.4483 C   0  0  0  0  0  0  0  0  0  0  0  0
   66.8902   42.6288   55.7040 N   0  0  0  0  0  0  0  0  0  0  0  0
   67.8901   43.4540   55.9494 N   0  0  0  0  0  0  0  0  0  0  0  0
   68.1428   44.7304   55.3465 C   0  0  0  0  0  0  0  0  0  0  0  0
   68.4878   45.8002   56.0820 N   0  0  0  0  0  0  0  0  0  0  0  0
   68.7330   47.0190   55.5374 C   0  0  0  0  0  0  0  0  0  0  0  0
   68.6323   47.1973   54.1783 C   0  0  0  0  0  0  0  0  0  0  0  0
   68.2783   46.0947   53.4289 C   0  0  0  0  0  0  0  0  0  0  0  0
   68.1865   46.2635   52.1802 O   0  0  0  0  0  0  0  0  0  0  0  0
   68.0454   44.9074   54.0171 N   0  0  0  0  0  0  0  0  0  0  0  0
   68.9607   48.6309   53.8405 C   0  0  0  0  0  0  0  0  0  0  0  0
   69.8954   48.9651   55.0156 C   0  0  0  0  0  0  0  0  0  0  0  0
   69.1131   48.3179   56.1347 C   0  0  0  0  0  0  0  0  0  0  0  0
   68.6114   40.6816   58.2176 C   0  0  0  0  0  0  0  0  0  0  0  0
   69.4196   39.7984   57.8201 O   0  0  0  0  0  0  0  0  0  0  0  0
   68.1930   40.7414   59.5674 N   0  0  0  0  0  0  0  0  0  0  0  0
   67.2728   41.7655   59.9711 C   0  0  0  0  0  0  0  0  0  0  0  0
   66.3384   41.3371   61.0617 C   0  0  0  0  0  0  0  0  0  0  0  0
   66.2823   39.8317   61.2055 C   0  0  0  0  0  0  0  0  0  0  0  0
   67.6532   39.3219   61.5063 C   0  0  0  0  0  0  0  0  0  0  0  0
   68.6869   39.7875   60.5200 C   0  0  0  0  0  0  0  0  0  0  0  0
   65.6093   39.1764   60.0413 C   0  0  0  0  0  0  0  0  0  0  0  0
   65.2376   37.7776   60.3436 C   0  0  0  0  0  0  0  0  0  0  0  0
   65.4861   36.7662   59.4430 C   0  0  0  0  0  0  0  0  0  0  0  0
   65.1241   35.4647   59.7562 C   0  0  0  0  0  0  0  0  0  0  0  0
   64.5193   35.1423   60.9511 C   0  0  0  0  0  0  0  0  0  0  0  0
   64.2683   36.1530   61.8591 C   0  0  0  0  0  0  0  0  0  0  0  0
   64.6241   37.4519   61.5569 C   0  0  0  0  0  0  0  0  0  0  0  0
  1  2  1  0
  2  3  2  0
  2  6  1  0
  3 17  1  0
  3  4  1  0
 17 18  2  0
 17 19  1  0
 19 20  1  0
 19 24  1  0
 20 21  1  0
 21 22  1  0
 22 25  1  0
 22 23  1  0
 25 26  1  0
 26 27  2  0
 26 31  1  0
 27 28  1  0
 28 29  2  0
 29 30  1  0
 30 31  2  0
 23 24  1  0
  4  5  2  0
  5  6  1  0
  6  7  1  0
  7  8  2  0
  7 13  1  0
  8  9  1  0
  9 10  2  0
  9 16  1  0
 10 11  1  0
 10 14  1  0
 11 12  2  0
 11 13  1  0
 14 15  1  0
 15 16  1  0
M  END
>  <minimizedAffinity>  (169) 
-9.01940

$$$$
data/200k_reference_output/data/smiles/59270.pdb
     RDKit          3D

 30 34  0  0  0  0  0  0  0  0999 V2000
   68.9384   41.1895   57.6347 C   0  0  0  0  0  0  0  0  0  0  0  0
   67.8930   40.9554   56.7961 C   0  0  0  0  0  0  0  0  0  0  0  0
   67.4087   41.9762   55.9583 C   0  0  0  0  0  0  0  0  0  0  0  0
   67.9698   43.2288   55.9591 C   0  0  0  0  0  0  0  0  0  0  0  0
   67.7122   44.3700   55.2759 N   0  0  0  0  0  0  0  0  0  0  0  0
   68.5561   45.3443   55.6411 C   0  0  0  0  0  0  0  0  0  0  0  0
   69.3582   44.7677   56.5838 N   0  0  0  0  0  0  0  0  0  0  0  0
   69.0136   43.4828   56.7881 C   0  0  0  0  0  0  0  0  0  0  0  0
   69.4888   42.4788   57.6115 C   0  0  0  0  0  0  0  0  0  0  0  0
   68.6560   46.7260   55.1828 C   0  0  0  0  0  0  0  0  0  0  0  0
   68.5787   47.7681   56.0981 C   0  0  0  0  0  0  0  0  0  0  0  0
   68.4007   47.4450   57.4555 N   0  0  0  0  0  0  0  0  0  0  0  0
   68.6704   49.0947   55.6977 C   0  0  0  0  0  0  0  0  0  0  0  0
   68.5940   50.1301   56.6095 C   0  0  0  0  0  0  0  0  0  0  0  0
   68.4255   49.8020   57.9045 F   0  0  0  0  0  0  0  0  0  0  0  0
   68.6871   51.4652   56.2122 C   0  0  0  0  0  0  0  0  0  0  0  0
   68.8596   51.7436   54.8722 C   0  0  0  0  0  0  0  0  0  0  0  0
   68.9608   53.0064   54.3835 F   0  0  0  0  0  0  0  0  0  0  0  0
   68.9372   50.7147   53.9523 C   0  0  0  0  0  0  0  0  0  0  0  0
   68.8427   49.3844   54.3635 C   0  0  0  0  0  0  0  0  0  0  0  0
   68.9165   48.3725   53.4873 N   0  0  0  0  0  0  0  0  0  0  0  0
   68.8275   47.0575   53.8675 C   0  0  0  0  0  0  0  0  0  0  0  0
   68.9033   46.1664   53.0098 O   0  0  0  0  0  0  0  0  0  0  0  0
   71.6955   36.8676   58.7089 C   0  0  0  0  0  0  0  0  0  0  0  0
   70.8750   37.9987   58.4038 N   0  0  0  0  0  0  0  0  0  0  0  0
   69.7217   37.9748   59.2928 C   0  0  0  0  0  0  0  0  0  0  0  0
   68.6825   38.9813   58.7878 C   0  0  0  0  0  0  0  0  0  0  0  0
   69.4505   40.2010   58.4841 N   0  0  0  0  0  0  0  0  0  0  0  0
   70.7259   40.2957   59.1044 C   0  0  0  0  0  0  0  0  0  0  0  0
   71.6283   39.2168   58.5264 C   0  0  0  0  0  0  0  0  0  0  0  0
 24 25  1  0
 25 26  1  0
 25 30  1  0
 26 27  1  0
 27 28  1  0
 28  1  1  0
 28 29  1  0
  1  2  2  0
  1  9  1  0
  2  3  1  0
  3  4  2  0
  4  5  1  0
  4  8  1  0
  5  6  1  0
  6 10  1  0
  6  7  2  0
 10 11  2  0
 10 22  1  0
 11 12  1  0
 11 13  1  0
 13 14  2  0
 13 20  1  0
 14 15  1  0
 14 16  1  0
 16 17  2  0
 17 18  1  0
 17 19  1  0
 19 20  2  0
 20 21  1  0
 21 22  1  0
 22 23  2  0
  7  8  1  0
  8  9  2  0
 29 30  1  0
M  CHG  2   7   1  25   1
M  END
>  <minimizedAffinity>  (170) 
-9.01917

$$$$
data/200k_reference_output/data/smiles/28964.pdb
     RDKit          3D

 29 32  0  0  0  0  0  0  0  0999 V2000
   67.8619   42.4534   56.5394 C   0  0  0  0  0  0  0  0  0  0  0  0
   66.8131   42.0265   56.0224 O   0  0  0  0  0  0  0  0  0  0  0  0
   68.5679   41.6434   57.4529 N   0  0  0  0  0  0  0  0  0  0  0  0
   68.0619   40.3001   57.7902 C   0  0  0  0  0  0  0  0  0  0  0  0
   69.1918   39.3034   57.6568 C   0  0  0  0  0  0  0  0  0  0  0  0
   70.3313   39.6914   58.4749 N   0  0  0  0  0  0  0  0  0  0  0  0
   70.2509   40.9674   59.1123 C   0  0  0  0  0  0  0  0  0  0  0  0
   69.7954   42.0412   58.1132 C   0  0  0  0  0  0  0  0  0  0  0  0
   71.4180   38.7903   58.5756 C   0  0  0  0  0  0  0  0  0  0  0  0
   72.5488   39.0775   59.3149 C   0  0  0  0  0  0  0  0  0  0  0  0
   73.6192   38.1891   59.4154 C   0  0  0  0  0  0  0  0  0  0  0  0
   73.5707   36.9755   58.7632 C   0  0  0  0  0  0  0  0  0  0  0  0
   74.6093   36.0977   58.8499 F   0  0  0  0  0  0  0  0  0  0  0  0
   72.4512   36.6753   58.0240 C   0  0  0  0  0  0  0  0  0  0  0  0
   72.4305   35.4685   57.3902 F   0  0  0  0  0  0  0  0  0  0  0  0
   71.4052   37.5645   57.9368 C   0  0  0  0  0  0  0  0  0  0  0  0
   69.3589   44.2417   56.9061 O   0  0  0  0  0  0  0  0  0  0  0  0
   68.4073   43.7956   56.2311 C   0  0  0  0  0  0  0  0  0  0  0  0
   67.8674   44.5718   55.1902 N   0  0  0  0  0  0  0  0  0  0  0  0
   68.2932   45.8627   54.7936 C   0  0  0  0  0  0  0  0  0  0  0  0
   68.4797   46.9467   55.5976 C   0  0  0  0  0  0  0  0  0  0  0  0
   68.8977   48.1869   55.1298 C   0  0  0  0  0  0  0  0  0  0  0  0
   69.1333   48.3223   53.7855 C   0  0  0  0  0  0  0  0  0  0  0  0
   69.5414   49.3723   53.0159 N   0  0  0  0  0  0  0  0  0  0  0  0
   69.6124   48.9572   51.7332 C   0  0  0  0  0  0  0  0  0  0  0  0
   69.9617   49.7104   50.7903 O   0  0  0  0  0  0  0  0  0  0  0  0
   69.2643   47.6956   51.6903 O   0  0  0  0  0  0  0  0  0  0  0  0
   68.9657   47.2742   52.9117 C   0  0  0  0  0  0  0  0  0  0  0  0
   68.5527   46.0743   53.4291 C   0  0  0  0  0  0  0  0  0  0  0  0
 17 18  2  0
 18 19  1  0
 18  1  1  0
 19 20  1  0
 20 21  2  0
 20 29  1  0
 21 22  1  0
 22 23  2  0
 23 24  1  0
 23 28  1  0
 24 25  1  0
 25 26  2  0
 25 27  1  0
 27 28  1  0
 28 29  2  0
  1  2  2  0
  1  3  1  0
  3  4  1  0
  3  8  1  0
  4  5  1  0
  5  6  1  0
  6  9  1  0
  6  7  1  0
  9 10  2  0
  9 16  1  0
 10 11  1  0
 11 12  2  0
 12 13  1  0
 12 14  1  0
 14 15  1  0
 14 16  2  0
  7  8  1  0
M  END
>  <minimizedAffinity>  (171) 
-9.01375

$$$$
data/200k_reference_output/data/smiles/47860.pdb
     RDKit          3D

 30 33  0  0  0  0  0  0  0  0999 V2000
   71.4070   46.7258   58.9133 C   0  0  0  0  0  0  0  0  0  0  0  0
   70.6659   47.6017   58.1428 C   0  0  0  0  0  0  0  0  0  0  0  0
   69.8041   47.2313   57.1559 C   0  0  0  0  0  0  0  0  0  0  0  0
   69.6955   45.8398   56.9436 C   0  0  0  0  0  0  0  0  0  0  0  0
   70.4115   44.9340   57.6844 C   0  0  0  0  0  0  0  0  0  0  0  0
   71.2770   45.3772   58.6804 C   0  0  0  0  0  0  0  0  0  0  0  0
   72.0028   44.4977   59.4339 F   0  0  0  0  0  0  0  0  0  0  0  0
   76.4022   44.0557   58.8194 C   0  0  0  0  0  0  0  0  0  0  0  0
   76.2413   44.9048   60.0124 C   0  0  0  0  0  0  0  0  0  0  0  0
   76.4041   44.4054   61.1458 O   0  0  0  0  0  0  0  0  0  0  0  0
   75.9062   46.2680   59.8764 N   0  0  0  0  0  0  0  0  0  0  0  0
   75.7145   46.8465   58.5514 C   0  0  0  0  0  0  0  0  0  0  0  0
   74.2798   47.2835   58.4541 C   0  0  0  0  0  0  0  0  0  0  0  0
   73.6704   47.5054   59.7387 N   0  0  0  0  0  0  0  0  0  0  0  0
   72.3031   47.2422   59.9438 C   0  0  0  0  0  0  0  0  0  0  0  0
   71.7382   47.4392   61.0756 O   0  0  0  0  0  0  0  0  0  0  0  0
   74.4645   47.9893   60.8402 C   0  0  0  0  0  0  0  0  0  0  0  0
   75.7297   47.1699   61.0034 C   0  0  0  0  0  0  0  0  0  0  0  0
   68.9947   48.1459   56.3006 C   0  0  0  0  0  0  0  0  0  0  0  0
   69.3883   48.1933   54.9027 C   0  0  0  0  0  0  0  0  0  0  0  0
   70.3497   49.0980   54.5420 N   0  0  0  0  0  0  0  0  0  0  0  0
   70.7691   49.2855   53.3235 N   0  0  0  0  0  0  0  0  0  0  0  0
   70.2529   48.5658   52.3089 C   0  0  0  0  0  0  0  0  0  0  0  0
   70.6631   48.7503   51.1167 O   0  0  0  0  0  0  0  0  0  0  0  0
   69.2828   47.6275   52.5535 C   0  0  0  0  0  0  0  0  0  0  0  0
   68.7493   46.8678   51.5418 C   0  0  0  0  0  0  0  0  0  0  0  0
   67.7960   45.9340   51.8347 C   0  0  0  0  0  0  0  0  0  0  0  0
   67.3843   45.7703   53.1536 C   0  0  0  0  0  0  0  0  0  0  0  0
   67.9126   46.5266   54.1739 C   0  0  0  0  0  0  0  0  0  0  0  0
   68.8620   47.4577   53.8790 C   0  0  0  0  0  0  0  0  0  0  0  0
  8  9  1  0
  9 10  2  0
  9 11  1  0
 11 12  1  0
 11 18  1  0
 12 13  1  0
 13 14  1  0
 14 15  1  0
 14 17  1  0
 15 16  2  0
 15  1  1  0
  1  2  2  0
  1  6  1  0
  2  3  1  0
  3 19  1  0
  3  4  2  0
 19 20  1  0
 20 21  2  0
 20 30  1  0
 21 22  1  0
 22 23  1  0
 23 24  2  0
 23 25  1  0
 25 26  1  0
 25 30  2  0
 26 27  2  0
 27 28  1  0
 28 29  2  0
 29 30  1  0
  4  5  1  0
  5  6  2  0
  6  7  1  0
 17 18  1  0
M  END
>  <minimizedAffinity>  (172) 
-9.01258

$$$$
data/reference_output_2/data/smiles/124896.pdb
     RDKit          3D

 31 35  0  0  0  0  0  0  0  0999 V2000
   70.2375   47.2512   57.7747 C   0  0  0  0  0  0  0  0  0  0  0  0
   70.9751   46.0645   57.7988 N   0  0  0  0  0  0  0  0  0  0  0  0
   70.7265   44.8881   58.5528 C   0  0  0  0  0  0  0  0  0  0  0  0
   69.7293   44.8463   59.2914 O   0  0  0  0  0  0  0  0  0  0  0  0
   71.6365   43.7446   58.4593 C   0  0  0  0  0  0  0  0  0  0  0  0
   72.9754   44.0900   57.8193 C   0  0  0  0  0  0  0  0  0  0  0  0
   73.6536   42.7720   57.4655 C   0  0  0  0  0  0  0  0  0  0  0  0
   73.2396   41.7012   58.3522 N   0  0  0  0  0  0  0  0  0  0  0  0
   71.8289   41.3380   58.2017 C   0  0  0  0  0  0  0  0  0  0  0  0
   71.0574   42.5775   57.7152 C   0  0  0  0  0  0  0  0  0  0  0  0
   74.0917   41.0619   59.2792 C   0  0  0  0  0  0  0  0  0  0  0  0
   75.3716   41.5176   59.5094 C   0  0  0  0  0  0  0  0  0  0  0  0
   76.2072   40.8711   60.4301 C   0  0  0  0  0  0  0  0  0  0  0  0
   75.8063   39.8071   61.1104 N   0  0  0  0  0  0  0  0  0  0  0  0
   74.5637   39.3484   60.9011 C   0  0  0  0  0  0  0  0  0  0  0  0
   73.7030   39.9555   60.0003 C   0  0  0  0  0  0  0  0  0  0  0  0
   68.9683   47.4019   57.0373 C   0  0  0  0  0  0  0  0  0  0  0  0
   69.7755   49.9455   50.6920 O   0  0  0  0  0  0  0  0  0  0  0  0
   69.7409   49.7808   51.9485 C   0  0  0  0  0  0  0  0  0  0  0  0
   70.1212   50.8180   52.8452 N   0  0  0  0  0  0  0  0  0  0  0  0
   69.3868   50.8108   54.1061 C   0  0  0  0  0  0  0  0  0  0  0  0
   69.7456   49.4728   54.7976 C   0  0  0  0  0  0  0  0  0  0  0  0
   69.2980   48.3985   53.9234 C   0  0  0  0  0  0  0  0  0  0  0  0
   69.3089   48.5106   52.5427 C   0  0  0  0  0  0  0  0  0  0  0  0
   68.9337   47.5019   51.6822 C   0  0  0  0  0  0  0  0  0  0  0  0
   68.5256   46.3179   52.2267 C   0  0  0  0  0  0  0  0  0  0  0  0
   68.5046   46.1783   53.6116 C   0  0  0  0  0  0  0  0  0  0  0  0
   68.1586   45.1032   54.3401 N   0  0  0  0  0  0  0  0  0  0  0  0
   68.3061   45.4133   55.6264 C   0  0  0  0  0  0  0  0  0  0  0  0
   68.7683   46.7502   55.7587 C   0  0  0  0  0  0  0  0  0  0  0  0
   68.8804   47.1901   54.4724 C   0  0  0  0  0  0  0  0  0  0  0  0
 18 19  2  0
 19 20  1  0
 19 24  1  0
 20 21  1  0
 21 22  1  0
 22 23  1  0
 23 24  2  0
 23 31  1  0
 24 25  1  0
 25 26  2  0
 26 27  1  0
 27 28  1  0
 27 31  2  0
 28 29  1  0
 29 30  2  0
 30 17  1  0
 30 31  1  0
 17  1  1  0
  1  2  1  0
  2  3  1  0
  3  4  2  0
  3  5  1  0
  5  6  1  0
  5 10  1  0
  6  7  1  0
  7  8  1  0
  8 11  1  0
  8  9  1  0
 11 12  2  0
 11 16  1  0
 12 13  1  0
 13 14  2  0
 14 15  1  0
 15 16  2  0
  9 10  1  0
M  END
>  <minimizedAffinity>  (173) 
-9.01232

$$$$
data/reference_output_2/data/smiles/123275.pdb
     RDKit          3D

 29 32  0  0  0  0  0  0  0  0999 V2000
   68.8306   46.7026   55.6382 C   0  0  1  0  0  0  0  0  0  0  0  0
   68.3690   47.8158   56.4766 C   0  0  0  0  0  0  0  0  0  0  0  0
   67.1955   47.5537   56.9684 O   0  0  0  0  0  0  0  0  0  0  0  0
   68.9759   49.0267   56.7913 N   0  0  0  0  0  0  0  0  0  0  0  0
   70.2442   49.5454   56.3638 C   0  0  0  0  0  0  0  0  0  0  0  0
   69.9179   50.7252   55.4692 C   0  0  0  0  0  0  0  0  0  0  0  0
   69.3387   51.7913   56.3286 C   0  0  0  0  0  0  0  0  0  0  0  0
   68.2549   52.4075   55.6723 O   0  0  0  0  0  0  0  0  0  0  0  0
   68.8277   51.3144   57.6594 C   0  0  0  0  0  0  0  0  0  0  0  0
   68.2586   49.9432   57.6847 C   0  0  0  0  0  0  0  0  0  0  0  0
   67.5811   44.2262   54.9295 O   0  0  0  0  0  0  0  0  0  0  0  0
   68.3909   44.2300   55.8772 C   0  0  0  0  0  0  0  0  0  0  0  0
   69.0128   45.4397   56.2375 N   0  0  0  0  0  0  0  0  0  0  0  0
   68.6632   42.9860   56.5761 C   0  0  0  0  0  0  0  0  0  0  0  0
   69.7800   42.6574   57.3388 C   0  0  0  0  0  0  0  0  0  0  0  0
   69.6707   41.3781   57.8415 C   0  0  0  0  0  0  0  0  0  0  0  0
   70.4619   40.5624   58.6380 C   0  0  0  0  0  0  0  0  0  0  0  0
   70.0863   39.2834   58.9922 C   0  0  0  0  0  0  0  0  0  0  0  0
   71.0805   38.2493   59.9975 Cl  0  0  0  0  0  0  0  0  0  0  0  0
   68.8689   38.8334   58.5158 C   0  0  0  0  0  0  0  0  0  0  0  0
   68.0750   39.6428   57.7193 C   0  0  0  0  0  0  0  0  0  0  0  0
   68.4584   40.9179   57.3716 C   0  0  0  0  0  0  0  0  0  0  0  0
   67.8819   41.8777   56.6298 N   0  0  0  0  0  0  0  0  0  0  0  0
   68.0689   46.6852   54.3363 C   0  0  0  0  0  0  0  0  0  0  0  0
   68.8604   47.1472   53.1866 C   0  0  0  0  0  0  0  0  0  0  0  0
   68.8604   46.5621   51.9529 C   0  0  0  0  0  0  0  0  0  0  0  0
   69.6990   47.2615   51.1764 N   0  0  0  0  0  0  0  0  0  0  0  0
   70.2305   48.2730   51.8807 C   0  0  0  0  0  0  0  0  0  0  0  0
   69.7042   48.1873   53.1138 N   0  0  0  0  0  0  0  0  0  0  0  0
 11 12  2  0
 12 13  1  0
 12 14  1  0
 13  1  1  0
  1 24  1  6
  1  2  1  0
 24 25  1  0
 25 26  2  0
 25 29  1  0
 26 27  1  0
 27 28  1  0
 28 29  2  0
  2  3  2  0
  2  4  1  0
  4  5  1  0
  4 10  1  0
  5  6  1  0
  6  7  1  0
  7  8  1  0
  7  9  1  0
  9 10  1  0
 14 15  2  0
 14 23  1  0
 15 16  1  0
 16 17  2  0
 16 22  1  0
 17 18  1  0
 18 19  1  0
 18 20  2  0
 20 21  1  0
 21 22  2  0
 22 23  1  0
M  CHG  1  29   1
M  END
>  <minimizedAffinity>  (174) 
-9.00649

$$$$
data/200k_reference_output/data/smiles/8150.pdb
     RDKit          3D

 31 34  0  0  0  0  0  0  0  0999 V2000
   69.9982   49.9181   58.0684 C   0  0  0  0  0  0  0  0  0  0  0  0
   70.7988   49.0204   57.1502 C   0  0  2  0  0  0  0  0  0  0  0  0
   69.9759   48.3879   56.0598 C   0  0  0  0  0  0  0  0  0  0  0  0
   69.4041   47.1148   56.4342 N   0  0  0  0  0  0  0  0  0  0  0  0
   68.7639   46.2227   55.5877 C   0  0  0  0  0  0  0  0  0  0  0  0
   68.2908   45.1477   56.0301 O   0  0  0  0  0  0  0  0  0  0  0  0
   69.5449   46.7774   57.8570 C   0  0  0  0  0  0  0  0  0  0  0  0
   71.0362   46.7830   58.1488 C   0  0  0  0  0  0  0  0  0  0  0  0
   71.6212   48.0824   57.8884 N   0  0  0  0  0  0  0  0  0  0  0  0
   72.9440   48.4150   58.3298 C   0  0  0  0  0  0  0  0  0  0  0  0
   73.2999   49.5888   58.0657 O   0  0  0  0  0  0  0  0  0  0  0  0
   68.5802   46.4410   54.1372 C   0  0  0  0  0  0  0  0  0  0  0  0
   69.2243   47.4590   53.4826 C   0  0  0  0  0  0  0  0  0  0  0  0
   69.0310   47.6120   52.1384 C   0  0  0  0  0  0  0  0  0  0  0  0
   68.2022   46.7703   51.4100 C   0  0  0  0  0  0  0  0  0  0  0  0
   67.5598   45.7477   52.0872 C   0  0  0  0  0  0  0  0  0  0  0  0
   67.7502   45.5891   53.4384 C   0  0  0  0  0  0  0  0  0  0  0  0
   73.7905   47.4918   59.0144 C   0  0  0  0  0  0  0  0  0  0  0  0
   74.1631   46.4492   58.3709 O   0  0  0  0  0  0  0  0  0  0  0  0
   74.2994   47.5811   60.3769 C   0  0  0  0  0  0  0  0  0  0  0  0
   75.6423   47.6883   60.6591 C   0  0  0  0  0  0  0  0  0  0  0  0
   76.0831   47.7814   61.9634 C   0  0  0  0  0  0  0  0  0  0  0  0
   75.2474   47.7760   63.0512 C   0  0  0  0  0  0  0  0  0  0  0  0
   73.8975   47.6678   62.7435 C   0  0  0  0  0  0  0  0  0  0  0  0
   73.4427   47.5741   61.4578 C   0  0  0  0  0  0  0  0  0  0  0  0
   72.0560   47.4657   61.2167 O   0  0  0  0  0  0  0  0  0  0  0  0
   75.7130   47.8661   64.4283 C   0  0  0  0  0  0  0  0  0  0  0  0
   76.9049   48.4526   64.8290 C   0  0  0  0  0  0  0  0  0  0  0  0
   76.9810   48.3571   66.1929 C   0  0  0  0  0  0  0  0  0  0  0  0
   75.8804   47.7341   66.6367 N   0  0  0  0  0  0  0  0  0  0  0  0
   75.1436   47.4534   65.5602 N   0  0  0  0  0  0  0  0  0  0  0  0
  2  1  1  1
  2  3  1  0
  2  9  1  0
  3  4  1  0
  4  5  1  0
  4  7  1  0
  5  6  2  0
  5 12  1  0
 12 13  2  0
 12 17  1  0
 13 14  1  0
 14 15  2  0
 15 16  1  0
 16 17  2  0
  7  8  1  0
  8  9  1  0
  9 10  1  0
 10 11  2  0
 10 18  1  0
 18 19  2  0
 18 20  1  0
 20 21  2  0
 20 25  1  0
 21 22  1  0
 22 23  2  0
 23 27  1  0
 23 24  1  0
 27 28  1  0
 27 31  2  0
 28 29  2  0
 29 30  1  0
 30 31  1  0
 24 25  2  0
 25 26  1  0
M  END
>  <minimizedAffinity>  (175) 
-9.00632

$$$$
data/reference_output_2/data/smiles/97488.pdb
     RDKit          3D

 31 33  0  0  0  0  0  0  0  0999 V2000
   70.2226   48.7954   58.5384 C   0  0  0  0  0  0  0  0  0  0  0  0
   69.4603   49.1906   57.3777 C   0  0  0  0  0  0  0  0  0  0  0  0
   68.5920   50.1536   57.6411 O   0  0  0  0  0  0  0  0  0  0  0  0
   71.0852   50.4606   55.2345 C   0  0  0  0  0  0  0  0  0  0  0  0
   70.1584   49.3241   54.9911 C   0  0  0  0  0  0  0  0  0  0  0  0
   69.4178   48.7809   55.9991 C   0  0  0  0  0  0  0  0  0  0  0  0
   68.6115   47.7284   55.6270 N   0  0  0  0  0  0  0  0  0  0  0  0
   67.8311   47.1375   56.6030 O   0  0  0  0  0  0  0  0  0  0  0  0
   68.5290   47.2416   54.3919 C   0  0  0  0  0  0  0  0  0  0  0  0
   67.7272   46.1679   54.0732 C   0  0  0  0  0  0  0  0  0  0  0  0
   67.6672   45.6512   52.7947 C   0  0  0  0  0  0  0  0  0  0  0  0
   68.4195   46.2006   51.7772 C   0  0  0  0  0  0  0  0  0  0  0  0
   69.2202   47.2792   52.1058 C   0  0  0  0  0  0  0  0  0  0  0  0
   69.2831   47.8037   53.3998 C   0  0  0  0  0  0  0  0  0  0  0  0
   70.0794   48.8326   53.7183 N   0  0  0  0  0  0  0  0  0  0  0  0
   70.8304   49.3897   52.7171 O   0  0  0  0  0  0  0  0  0  0  0  0
   71.1994   47.7014   58.1741 C   0  0  0  0  0  0  0  0  0  0  0  0
   72.3515   47.9721   57.8345 O   0  0  0  0  0  0  0  0  0  0  0  0
   70.7570   46.3238   58.2327 C   0  0  0  0  0  0  0  0  0  0  0  0
   70.5639   45.7591   59.3726 O   0  0  0  0  0  0  0  0  0  0  0  0
   70.5116   45.5048   57.1043 N   0  0  0  0  0  0  0  0  0  0  0  0
   70.0876   44.1660   57.2862 C   0  0  0  0  0  0  0  0  0  0  0  0
   70.7987   43.2690   58.0766 C   0  0  0  0  0  0  0  0  0  0  0  0
   70.3283   41.9898   58.2076 C   0  0  0  0  0  0  0  0  0  0  0  0
   69.1712   41.5660   57.5771 C   0  0  0  0  0  0  0  0  0  0  0  0
   68.4680   42.4577   56.7963 C   0  0  0  0  0  0  0  0  0  0  0  0
   68.9324   43.7379   56.6610 C   0  0  0  0  0  0  0  0  0  0  0  0
   67.2064   42.0524   56.0878 C   0  0  0  0  0  0  0  0  0  0  0  0
   66.9594   43.0668   55.1640 F   0  0  0  0  0  0  0  0  0  0  0  0
   66.1902   42.0478   57.0218 F   0  0  0  0  0  0  0  0  0  0  0  0
   67.3423   40.8385   55.4722 F   0  0  0  0  0  0  0  0  0  0  0  0
  4  5  1  0
  5  6  2  0
  5 15  1  0
  6  2  1  0
  6  7  1  0
  2  3  2  0
  2  1  1  0
  1 17  1  0
 17 18  2  0
 17 19  1  0
 19 20  2  0
 19 21  1  0
 21 22  1  0
 22 23  2  0
 22 27  1  0
 23 24  1  0
 24 25  2  0
 25 26  1  0
 26 28  1  0
 26 27  2  0
 28 29  1  0
 28 30  1  0
 28 31  1  0
  7  8  1  0
  7  9  2  0
  9 10  1  0
  9 14  1  0
 10 11  2  0
 11 12  1  0
 12 13  2  0
 13 14  1  0
 14 15  2  0
 15 16  1  0
M  CHG  4   7   1   8  -1  15   1  16  -1
M  END
>  <minimizedAffinity>  (176) 
-9.00120

$$$$
data/200k_reference_output/data/smiles/38502.pdb
     RDKit          3D

 29 32  0  0  0  0  0  0  0  0999 V2000
   69.1122   48.5126   55.5743 N   0  0  0  0  0  0  0  0  0  0  0  0
   68.9712   48.6586   54.3405 C   0  0  0  0  0  0  0  0  0  0  0  0
   68.6287   47.5729   53.5839 C   0  0  0  0  0  0  0  0  0  0  0  0
   68.1076   46.4951   54.2194 C   0  0  0  0  0  0  0  0  0  0  0  0
   67.7455   45.3977   53.4380 C   0  0  0  0  0  0  0  0  0  0  0  0
   67.9123   45.4288   52.0754 C   0  0  0  0  0  0  0  0  0  0  0  0
   68.4359   46.5409   51.4616 C   0  0  0  0  0  0  0  0  0  0  0  0
   68.8082   47.6480   52.2092 C   0  0  0  0  0  0  0  0  0  0  0  0
   69.2826   48.7553   51.6342 N   0  0  0  0  0  0  0  0  0  0  0  0
   69.5902   49.7978   52.4081 C   0  0  0  0  0  0  0  0  0  0  0  0
   70.0429   50.8868   51.9181 O   0  0  0  0  0  0  0  0  0  0  0  0
   69.4558   49.7958   53.7359 N   0  0  0  0  0  0  0  0  0  0  0  0
   69.7699   50.8810   54.5684 C   0  0  0  0  0  0  0  0  0  0  0  0
   68.7911   51.7758   54.8946 C   0  0  0  0  0  0  0  0  0  0  0  0
   69.0678   52.8689   55.7221 C   0  0  0  0  0  0  0  0  0  0  0  0
   70.3720   53.0112   56.1989 C   0  0  0  0  0  0  0  0  0  0  0  0
   71.3686   52.1155   55.8778 C   0  0  0  0  0  0  0  0  0  0  0  0
   71.0363   51.0414   55.0466 C   0  0  0  0  0  0  0  0  0  0  0  0
   68.9974   47.2263   56.6032 S   0  0  0  0  0  0  0  0  0  0  0  0
   68.2000   46.0094   56.2701 O   0  0  0  0  0  0  0  0  0  0  0  0
   67.8820   47.8339   57.5534 O   0  0  0  0  0  0  0  0  0  0  0  0
   72.2392   46.9434   59.7859 C   0  0  0  0  0  0  0  0  0  0  0  0
   71.6622   45.7909   59.2580 C   0  0  0  0  0  0  0  0  0  0  0  0
   70.6771   45.8124   58.3122 C   0  0  0  0  0  0  0  0  0  0  0  0
   70.2184   47.0102   57.8434 C   0  0  0  0  0  0  0  0  0  0  0  0
   70.7869   48.1564   58.3630 C   0  0  0  0  0  0  0  0  0  0  0  0
   71.7832   48.1561   59.3196 C   0  0  0  0  0  0  0  0  0  0  0  0
   73.5459   47.9710   61.5402 C   0  0  0  0  0  0  0  0  0  0  0  0
   73.2315   46.8776   60.7405 O   0  0  0  0  0  0  0  0  0  0  0  0
 28 29  1  0
 29 22  1  0
 22 23  2  0
 22 27  1  0
 23 24  1  0
 24 25  2  0
 25 19  1  0
 25 26  1  0
 19 20  2  0
 19 21  2  0
 19  1  1  0
  1  2  2  0
  2  3  1  0
  2 12  1  0
  3  4  2  0
  3  8  1  0
  4  5  1  0
  5  6  2  0
  6  7  1  0
  7  8  2  0
  8  9  1  0
  9 10  1  0
 10 11  2  0
 10 12  1  0
 12 13  1  0
 13 14  2  0
 13 18  1  0
 14 15  1  0
 15 16  2  0
 16 17  1  0
 17 18  2  0
 26 27  2  0
M  END
>  <minimizedAffinity>  (177) 
-9.00110

$$$$
data/200k_reference_output/data/smiles/75099.pdb
     RDKit          3D

 31 33  0  0  0  0  0  0  0  0999 V2000
   69.7573   47.3702   57.4540 C   0  0  0  0  0  0  0  0  0  0  0  0
   68.5654   47.2576   57.8246 O   0  0  0  0  0  0  0  0  0  0  0  0
   70.0002   48.0618   56.2409 N   0  0  0  0  0  0  0  0  0  0  0  0
   68.9151   48.6096   55.4757 C   0  0  1  0  0  0  0  0  0  0  0  0
   69.1397   50.0379   55.1265 C   0  0  0  0  0  0  0  0  0  0  0  0
   68.4376   50.8795   55.7351 O   0  0  0  0  0  0  0  0  0  0  0  0
   70.0424   50.6124   54.1918 N   0  0  0  0  0  0  0  0  0  0  0  0
   70.3236   52.0178   54.3230 C   0  0  0  0  0  0  0  0  0  0  0  0
   70.7186   49.9845   53.1295 N   0  0  0  0  0  0  0  0  0  0  0  0
   70.4537   48.8037   52.6450 C   0  0  0  0  0  0  0  0  0  0  0  0
   69.4294   47.8543   53.0540 C   0  0  0  0  0  0  0  0  0  0  0  0
   69.1571   46.9651   52.0189 C   0  0  0  0  0  0  0  0  0  0  0  0
   68.2093   45.9923   52.2273 C   0  0  0  0  0  0  0  0  0  0  0  0
   67.5447   45.9015   53.4383 C   0  0  0  0  0  0  0  0  0  0  0  0
   67.8250   46.7951   54.4650 C   0  0  0  0  0  0  0  0  0  0  0  0
   68.7728   47.7712   54.2620 C   0  0  0  0  0  0  0  0  0  0  0  0
   72.0959   47.7197   57.9685 C   0  0  0  0  0  0  0  0  0  0  0  0
   70.8809   46.8165   58.2233 C   0  0  2  0  0  0  0  0  0  0  0  0
   71.1803   45.4462   57.8677 N   0  0  0  0  0  0  0  0  0  0  0  0
   70.5360   44.3337   58.4921 C   0  0  0  0  0  0  0  0  0  0  0  0
   69.6856   44.6112   59.3776 O   0  0  0  0  0  0  0  0  0  0  0  0
   70.8515   42.9318   58.1183 C   0  0  1  0  0  0  0  0  0  0  0  0
   71.2379   42.2540   59.2766 O   0  0  0  0  0  0  0  0  0  0  0  0
   69.6914   42.2209   57.5571 C   0  0  0  0  0  0  0  0  0  0  0  0
   68.8298   42.8645   56.7069 C   0  0  0  0  0  0  0  0  0  0  0  0
   67.7222   42.2285   56.1551 C   0  0  0  0  0  0  0  0  0  0  0  0
   66.8931   42.9015   55.3180 F   0  0  0  0  0  0  0  0  0  0  0  0
   67.4752   40.9244   56.4635 C   0  0  0  0  0  0  0  0  0  0  0  0
   68.3411   40.2595   57.3242 C   0  0  0  0  0  0  0  0  0  0  0  0
   68.0788   38.9779   57.6132 F   0  0  0  0  0  0  0  0  0  0  0  0
   69.4434   40.9037   57.8698 C   0  0  0  0  0  0  0  0  0  0  0  0
 18 17  1  6
 18 19  1  0
 18  1  1  0
 19 20  1  0
 20 21  2  0
 20 22  1  0
 22 23  1  1
 22 24  1  0
 24 25  2  0
 24 31  1  0
 25 26  1  0
 26 27  1  0
 26 28  2  0
 28 29  1  0
 29 30  1  0
 29 31  2  0
  1  2  2  0
  1  3  1  0
  4  3  1  6
  4  5  1  0
  4 16  1  0
  5  6  2  0
  5  7  1  0
  7  8  1  0
  7  9  1  0
  9 10  2  0
 10 11  1  0
 11 12  1  0
 11 16  2  0
 12 13  2  0
 13 14  1  0
 14 15  2  0
 15 16  1  0
M  END
>  <minimizedAffinity>  (178) 
-8.99981

$$$$
data/reference_output_2/data/smiles/196643.pdb
     RDKit          3D

 32 35  0  0  0  0  0  0  0  0999 V2000
   70.6935   44.5393   58.9247 C   0  0  0  0  0  0  0  0  0  0  0  0
   70.6771   45.8520   58.7708 C   0  0  0  0  0  0  0  0  0  0  0  0
   71.3754   46.6600   59.5925 N   0  0  0  0  0  0  0  0  0  0  0  0
   71.3736   47.9920   59.4551 C   0  0  0  0  0  0  0  0  0  0  0  0
   72.0415   48.7165   60.2472 O   0  0  0  0  0  0  0  0  0  0  0  0
   70.6351   48.6006   58.4377 C   0  0  0  0  0  0  0  0  0  0  0  0
   70.6176   49.9061   58.2843 C   0  0  0  0  0  0  0  0  0  0  0  0
   69.9349   47.8021   57.6131 N   0  0  0  0  0  0  0  0  0  0  0  0
   69.9544   46.4699   57.7734 C   0  0  0  0  0  0  0  0  0  0  0  0
   69.2770   45.7554   56.9685 O   0  0  0  0  0  0  0  0  0  0  0  0
   69.8292   50.4846   57.2042 C   0  0  0  0  0  0  0  0  0  0  0  0
   68.8510   51.4107   57.3972 C   0  0  0  0  0  0  0  0  0  0  0  0
   68.1619   51.8966   56.3090 C   0  0  0  0  0  0  0  0  0  0  0  0
   68.4450   51.4615   55.0383 C   0  0  0  0  0  0  0  0  0  0  0  0
   69.4467   50.5049   54.7884 C   0  0  0  0  0  0  0  0  0  0  0  0
   70.1037   50.0535   55.9065 C   0  0  0  0  0  0  0  0  0  0  0  0
   69.7192   50.1054   53.4263 C   0  0  0  0  0  0  0  0  0  0  0  0
   70.2271   50.9557   52.6532 O   0  0  0  0  0  0  0  0  0  0  0  0
   69.4339   48.7871   52.9238 C   0  0  0  0  0  0  0  0  0  0  0  0
   68.7924   47.7559   53.6346 C   0  0  0  0  0  0  0  0  0  0  0  0
   68.7156   46.6384   52.8637 C   0  0  0  0  0  0  0  0  0  0  0  0
   69.3049   46.9509   51.6697 C   0  0  0  0  0  0  0  0  0  0  0  0
   69.7277   48.2478   51.7336 N   0  0  0  0  0  0  0  0  0  0  0  0
   72.6860   43.2879   59.7669 C   0  0  0  0  0  0  0  0  0  0  0  0
   73.1278   42.7983   60.9375 N   0  0  0  0  0  0  0  0  0  0  0  0
   72.2060   43.0879   61.8901 C   0  0  0  0  0  0  0  0  0  0  0  0
   71.1839   43.7650   61.2920 N   0  0  0  0  0  0  0  0  0  0  0  0
   71.4612   43.8992   59.9829 C   0  0  0  0  0  0  0  0  0  0  0  0
   72.5133   42.6363   57.3879 C   0  0  0  0  0  0  0  0  0  0  0  0
   73.3998   43.1792   58.4864 C   0  0  0  0  0  0  0  0  0  0  0  0
   74.5924   42.2623   58.6397 C   0  0  0  0  0  0  0  0  0  0  0  0
   73.9454   44.5247   58.0348 C   0  0  0  0  0  0  0  0  0  0  0  0
 29 30  1  0
 30 31  1  0
 30 32  1  0
 30 24  1  0
 24 25  1  0
 24 28  2  0
 25 26  1  0
 26 27  2  0
 27 28  1  0
 28  1  1  0
  1  2  2  0
  2  3  1  0
  2  9  1  0
  3  4  1  0
  4  5  2  0
  4  6  1  0
  6  7  2  0
  6  8  1  0
  7 11  1  0
 11 12  2  0
 11 16  1  0
 12 13  1  0
 13 14  2  0
 14 15  1  0
 15 17  1  0
 15 16  2  0
 17 18  2  0
 17 19  1  0
 19 20  2  0
 19 23  1  0
 20 21  1  0
 21 22  2  0
 22 23  1  0
  8  9  1  0
  9 10  2  0
M  CHG  1  27   1
M  END
>  <minimizedAffinity>  (179) 
-8.98767

$$$$
data/200k_reference_output/data/smiles/37560.pdb
     RDKit          3D

 30 34  0  0  0  0  0  0  0  0999 V2000
   70.6829   50.1942   56.5818 C   0  0  0  0  0  0  0  0  0  0  0  0
   69.7785   49.2909   57.0444 C   0  0  0  0  0  0  0  0  0  0  0  0
   69.1522   48.4074   56.1577 C   0  0  0  0  0  0  0  0  0  0  0  0
   69.4669   48.4696   54.8107 C   0  0  0  0  0  0  0  0  0  0  0  0
   70.3946   49.4022   54.3646 C   0  0  0  0  0  0  0  0  0  0  0  0
   71.0144   50.2731   55.2316 C   0  0  0  0  0  0  0  0  0  0  0  0
   70.7271   49.4884   53.0577 N   0  0  0  0  0  0  0  0  0  0  0  0
   70.1364   48.6494   52.2097 C   0  0  0  0  0  0  0  0  0  0  0  0
   70.4516   48.7348   50.9848 O   0  0  0  0  0  0  0  0  0  0  0  0
   69.2229   47.7172   52.5812 C   0  0  0  0  0  0  0  0  0  0  0  0
   68.6825   46.9038   51.6324 C   0  0  0  0  0  0  0  0  0  0  0  0
   67.7553   45.9534   52.0259 C   0  0  0  0  0  0  0  0  0  0  0  0
   67.2227   45.1426   51.0562 F   0  0  0  0  0  0  0  0  0  0  0  0
   67.3993   45.8462   53.3522 C   0  0  0  0  0  0  0  0  0  0  0  0
   67.9507   46.6744   54.3198 C   0  0  0  0  0  0  0  0  0  0  0  0
   68.8670   47.6136   53.9239 C   0  0  0  0  0  0  0  0  0  0  0  0
   71.3505   51.1327   57.4849 C   0  0  0  0  0  0  0  0  0  0  0  0
   72.0778   50.4547   58.6157 C   0  0  1  0  0  0  0  0  0  0  0  0
   72.4209   49.1056   58.1975 N   0  0  0  0  0  0  0  0  0  0  0  0
   72.2431   47.9693   59.0654 C   0  0  0  0  0  0  0  0  0  0  0  0
   71.7697   48.1904   60.2047 O   0  0  0  0  0  0  0  0  0  0  0  0
   72.6311   46.6626   58.5397 C   0  0  1  0  0  0  0  0  0  0  0  0
   73.9591   46.5957   58.0161 N   0  0  0  0  0  0  0  0  0  0  0  0
   74.6541   45.5269   58.6982 C   0  0  2  0  0  0  0  0  0  0  0  0
   74.0152   44.2000   58.3543 C   0  0  0  0  0  0  0  0  0  0  0  0
   72.6280   44.2921   58.9612 C   0  0  0  0  0  0  0  0  0  0  0  0
   72.6099   45.6463   59.6354 C   0  0  1  0  0  0  0  0  0  0  0  0
   74.0698   45.7271   60.1123 C   0  0  0  0  0  0  0  0  0  0  0  0
   74.3904   51.7384   58.7887 N   0  0  0  0  0  0  0  0  0  0  0  0
   73.3910   51.1715   58.7095 C   0  0  0  0  0  0  0  0  0  0  0  0
 29 30  3  0
 18 30  1  6
 18 17  1  0
 18 19  1  0
 17  1  1  0
  1  2  2  0
  1  6  1  0
  2  3  1  0
  3  4  2  0
  4  5  1  0
  4 16  1  0
  5  6  2  0
  5  7  1  0
  7  8  1  0
  8  9  2  0
  8 10  1  0
 10 11  1  0
 10 16  2  0
 11 12  2  0
 12 13  1  0
 12 14  1  0
 14 15  2  0
 15 16  1  0
 19 20  1  0
 20 21  2  0
 22 20  1  1
 22 23  1  0
 22 27  1  0
 23 24  1  0
 24 25  1  6
 24 28  1  0
 25 26  1  0
 27 26  1  6
 27 28  1  0
M  CHG  1  23   1
M  END
>  <minimizedAffinity>  (180) 
-8.98604

$$$$
data/200k_reference_output/data/smiles/35843.pdb
     RDKit          3D

 28 31  0  0  0  0  0  0  0  0999 V2000
   70.9235   44.6408   58.3998 C   0  0  2  0  0  0  0  0  0  0  0  0
   70.6706   44.4583   59.7599 O   0  0  0  0  0  0  0  0  0  0  0  0
   70.3774   43.4023   57.7064 C   0  0  0  0  0  0  0  0  0  0  0  0
   71.3417   42.3287   58.2141 C   0  0  0  0  0  0  0  0  0  0  0  0
   72.5934   43.0711   58.4065 N   0  0  0  0  0  0  0  0  0  0  0  0
   72.3656   44.4618   58.1870 C   0  0  0  0  0  0  0  0  0  0  0  0
   73.2920   45.2467   57.8837 O   0  0  0  0  0  0  0  0  0  0  0  0
   73.8406   42.4484   58.7640 C   0  0  0  0  0  0  0  0  0  0  0  0
   73.9245   41.5362   59.8029 C   0  0  0  0  0  0  0  0  0  0  0  0
   75.0890   40.9164   60.1818 C   0  0  0  0  0  0  0  0  0  0  0  0
   76.2547   41.2059   59.4983 C   0  0  0  0  0  0  0  0  0  0  0  0
   77.5288   40.7771   59.6214 N   0  0  0  0  0  0  0  0  0  0  0  0
   78.2456   41.3881   58.6947 N   0  0  0  0  0  0  0  0  0  0  0  0
   77.4931   42.2140   57.9548 C   0  0  0  0  0  0  0  0  0  0  0  0
   76.2039   42.1122   58.4551 C   0  0  0  0  0  0  0  0  0  0  0  0
   75.0105   42.7302   58.0883 C   0  0  0  0  0  0  0  0  0  0  0  0
   70.7284   46.9567   58.4528 O   0  0  0  0  0  0  0  0  0  0  0  0
   70.3460   45.8759   57.9456 C   0  0  0  0  0  0  0  0  0  0  0  0
   69.3638   45.9276   56.9505 N   0  0  0  0  0  0  0  0  0  0  0  0
   68.7177   47.0799   56.4130 C   0  0  0  0  0  0  0  0  0  0  0  0
   68.6697   46.9733   54.9396 C   0  0  0  0  0  0  0  0  0  0  0  0
   67.9504   45.9469   54.3313 C   0  0  0  0  0  0  0  0  0  0  0  0
   67.8698   45.8124   52.9771 C   0  0  0  0  0  0  0  0  0  0  0  0
   67.1685   44.8103   52.4126 F   0  0  0  0  0  0  0  0  0  0  0  0
   68.5142   46.7117   52.1606 C   0  0  0  0  0  0  0  0  0  0  0  0
   69.2332   47.7354   52.7372 C   0  0  0  0  0  0  0  0  0  0  0  0
   70.0601   48.8906   51.6900 Cl  0  0  0  0  0  0  0  0  0  0  0  0
   69.3073   47.8623   54.1125 C   0  0  0  0  0  0  0  0  0  0  0  0
 17 18  2  0
 18 19  1  0
 19 20  1  0
 20 21  1  0
 21 22  2  0
 21 28  1  0
 22 23  1  0
 23 24  1  0
 23 25  2  0
 25 26  1  0
 26 27  1  0
 26 28  2  0
  1 18  1  0
  1  2  1  1
  1  3  1  0
  1  6  1  0
  3  4  1  0
  4  5  1  0
  5  8  1  0
  5  6  1  0
  8  9  2  0
  8 16  1  0
  9 10  1  0
 10 11  2  0
 11 12  1  0
 11 15  1  0
 12 13  1  0
 13 14  2  0
 14 15  1  0
 15 16  2  0
  6  7  2  0
M  END
>  <minimizedAffinity>  (181) 
-8.98481

$$$$
data/reference_output_2/data/smiles/136098.pdb
     RDKit          3D

 33 37  0  0  0  0  0  0  0  0999 V2000
   72.0503   48.3405   59.2468 C   0  0  0  0  0  0  0  0  0  0  0  0
   70.8011   48.2990   58.6147 C   0  0  0  0  0  0  0  0  0  0  0  0
   70.3672   49.2116   57.7015 C   0  0  0  0  0  0  0  0  0  0  0  0
   71.2696   50.2499   57.4028 C   0  0  0  0  0  0  0  0  0  0  0  0
   72.5017   50.3130   58.0085 C   0  0  0  0  0  0  0  0  0  0  0  0
   72.9017   49.3702   58.9285 C   0  0  0  0  0  0  0  0  0  0  0  0
   74.1121   49.4204   59.5406 F   0  0  0  0  0  0  0  0  0  0  0  0
   72.3221   47.6312   61.4386 O   0  0  0  0  0  0  0  0  0  0  0  0
   72.3866   47.3231   60.2292 C   0  0  0  0  0  0  0  0  0  0  0  0
   72.7772   46.0360   59.8524 N   0  0  0  0  0  0  0  0  0  0  0  0
   73.0964   45.0542   60.8953 C   0  0  0  0  0  0  0  0  0  0  0  0
   74.5991   44.8513   60.8159 C   0  0  0  0  0  0  0  0  0  0  0  0
   75.0909   45.5053   59.6172 N   0  0  0  0  0  0  0  0  0  0  0  0
   74.3952   45.0404   58.4337 C   0  0  0  0  0  0  0  0  0  0  0  0
   72.9362   45.5439   58.4964 C   0  0  1  0  0  0  0  0  0  0  0  0
   72.1121   44.3748   58.1737 C   0  0  0  0  0  0  0  0  0  0  0  0
   70.7535   44.5434   58.0236 C   0  0  0  0  0  0  0  0  0  0  0  0
   69.9074   43.4890   57.6911 C   0  0  0  0  0  0  0  0  0  0  0  0
   70.4540   42.2393   57.5094 C   0  0  0  0  0  0  0  0  0  0  0  0
   71.8067   42.0462   57.6549 C   0  0  0  0  0  0  0  0  0  0  0  0
   72.6294   43.1042   57.9839 C   0  0  0  0  0  0  0  0  0  0  0  0
   69.0356   49.2086   57.0441 C   0  0  0  0  0  0  0  0  0  0  0  0
   68.8076   48.1239   56.1008 C   0  0  0  0  0  0  0  0  0  0  0  0
   68.2811   46.9411   56.5492 N   0  0  0  0  0  0  0  0  0  0  0  0
   68.0055   45.9353   55.7398 N   0  0  0  0  0  0  0  0  0  0  0  0
   68.2186   45.9927   54.4164 C   0  0  0  0  0  0  0  0  0  0  0  0
   67.9597   45.0462   53.6429 O   0  0  0  0  0  0  0  0  0  0  0  0
   68.7560   47.1592   53.8584 C   0  0  0  0  0  0  0  0  0  0  0  0
   69.0284   48.1836   54.7499 C   0  0  0  0  0  0  0  0  0  0  0  0
   69.6258   49.3669   54.2363 N   0  0  0  0  0  0  0  0  0  0  0  0
   69.5714   49.5896   52.8084 C   0  0  0  0  0  0  0  0  0  0  0  0
   70.0902   48.2834   52.1805 C   0  0  0  0  0  0  0  0  0  0  0  0
   69.0039   47.2519   52.3947 C   0  0  0  0  0  0  0  0  0  0  0  0
  8  9  2  0
  9  1  1  0
  9 10  1  0
  1  2  2  0
  1  6  1  0
  2  3  1  0
  3 22  1  0
  3  4  2  0
 22 23  1  0
 23 24  2  0
 23 29  1  0
 24 25  1  0
 25 26  1  0
 26 27  2  0
 26 28  1  0
 28 29  2  0
 28 33  1  0
 29 30  1  0
 30 31  1  0
 31 32  1  0
 32 33  1  0
  4  5  1  0
  5  6  2  0
  6  7  1  0
 10 11  1  0
 10 15  1  0
 11 12  1  0
 12 13  1  0
 13 14  1  0
 14 15  1  0
 15 16  1  1
 16 17  2  0
 16 21  1  0
 17 18  1  0
 18 19  2  0
 19 20  1  0
 20 21  2  0
M  CHG  1  13   1
M  END
>  <minimizedAffinity>  (182) 
-8.97988

$$$$
data/reference_output_2/data/smiles/93430.pdb
     RDKit          3D

 32 35  0  0  0  0  0  0  0  0999 V2000
   65.5955   40.0452   60.8811 C   0  0  0  0  0  0  0  0  0  0  0  0
   66.4399   40.4906   59.9592 C   0  0  0  0  0  0  0  0  0  0  0  0
   67.0292   39.6019   59.1649 N   0  0  0  0  0  0  0  0  0  0  0  0
   67.8874   40.0449   58.2268 C   0  0  0  0  0  0  0  0  0  0  0  0
   68.4757   39.2684   57.4465 O   0  0  0  0  0  0  0  0  0  0  0  0
   68.1646   41.3995   58.0752 C   0  0  0  0  0  0  0  0  0  0  0  0
   68.9989   41.8622   57.1667 C   0  0  0  0  0  0  0  0  0  0  0  0
   67.5705   42.2941   58.8757 N   0  0  0  0  0  0  0  0  0  0  0  0
   66.7149   41.8407   59.8099 C   0  0  0  0  0  0  0  0  0  0  0  0
   66.1304   42.6457   60.5893 O   0  0  0  0  0  0  0  0  0  0  0  0
   69.2548   43.3152   57.0527 C   0  0  0  0  0  0  0  0  0  0  0  0
   70.3032   43.8327   57.7806 C   0  0  0  0  0  0  0  0  0  0  0  0
   70.5673   45.2019   57.6902 C   0  0  0  0  0  0  0  0  0  0  0  0
   69.8045   46.0270   56.8965 C   0  0  0  0  0  0  0  0  0  0  0  0
   68.7601   45.5043   56.1720 C   0  0  0  0  0  0  0  0  0  0  0  0
   68.5014   44.1321   56.2667 C   0  0  0  0  0  0  0  0  0  0  0  0
   68.0067   46.3536   55.3796 O   0  0  0  0  0  0  0  0  0  0  0  0
   68.3532   46.6584   54.0667 C   0  0  0  0  0  0  0  0  0  0  0  0
   67.8417   45.9094   53.0356 C   0  0  0  0  0  0  0  0  0  0  0  0
   68.1896   46.2173   51.7332 C   0  0  0  0  0  0  0  0  0  0  0  0
   69.0434   47.2623   51.4210 C   0  0  0  0  0  0  0  0  0  0  0  0
   69.5501   48.0052   52.4475 C   0  0  0  0  0  0  0  0  0  0  0  0
   69.2059   47.7015   53.7467 C   0  0  0  0  0  0  0  0  0  0  0  0
   65.9380   37.8477   61.9958 C   0  0  0  0  0  0  0  0  0  0  0  0
   65.4463   36.6058   61.8547 N   0  0  0  0  0  0  0  0  0  0  0  0
   64.5479   36.6204   60.8396 C   0  0  0  0  0  0  0  0  0  0  0  0
   64.4531   37.8588   60.3211 N   0  0  0  0  0  0  0  0  0  0  0  0
   65.3087   38.6106   61.0338 C   0  0  0  0  0  0  0  0  0  0  0  0
   67.0136   37.2255   64.0991 C   0  0  0  0  0  0  0  0  0  0  0  0
   66.9384   38.2504   62.9867 C   0  0  0  0  0  0  0  0  0  0  0  0
   66.5783   39.5839   63.6306 C   0  0  0  0  0  0  0  0  0  0  0  0
   68.3309   38.3598   62.4103 C   0  0  0  0  0  0  0  0  0  0  0  0
 29 30  1  0
 30 31  1  0
 30 32  1  0
 30 24  1  0
 24 25  1  0
 24 28  2  0
 25 26  1  0
 26 27  2  0
 27 28  1  0
 28  1  1  0
  1  2  2  0
  2  3  1  0
  2  9  1  0
  3  4  1  0
  4  5  2  0
  4  6  1  0
  6  7  2  0
  6  8  1  0
  7 11  1  0
 11 12  2  0
 11 16  1  0
 12 13  1  0
 13 14  2  0
 14 15  1  0
 15 17  1  0
 15 16  2  0
 17 18  1  0
 18 19  2  0
 18 23  1  0
 19 20  1  0
 20 21  2  0
 21 22  1  0
 22 23  2  0
  8  9  1  0
  9 10  2  0
M  CHG  1  27   1
M  END
>  <minimizedAffinity>  (183) 
-8.97923

$$$$
data/reference_output_2/data/smiles/152498.pdb
     RDKit          3D

 30 33  0  0  0  0  0  0  0  0999 V2000
   68.0571   45.1096   54.8304 C   0  0  0  0  0  0  0  0  0  0  0  0
   68.0183   45.4434   53.4905 C   0  0  0  0  0  0  0  0  0  0  0  0
   68.3603   46.7004   53.0320 C   0  0  0  0  0  0  0  0  0  0  0  0
   68.7641   47.6971   53.9126 C   0  0  0  0  0  0  0  0  0  0  0  0
   69.0938   48.9143   53.4543 N   0  0  0  0  0  0  0  0  0  0  0  0
   69.4835   49.8744   54.3149 C   0  0  0  0  0  0  0  0  0  0  0  0
   69.5275   49.5740   55.6096 N   0  0  0  0  0  0  0  0  0  0  0  0
   69.2025   48.3519   56.1239 C   0  0  0  0  0  0  0  0  0  0  0  0
   69.2629   48.1204   57.3672 O   0  0  0  0  0  0  0  0  0  0  0  0
   68.8022   47.3643   55.2499 C   0  0  0  0  0  0  0  0  0  0  0  0
   68.4590   46.1041   55.7028 C   0  0  0  0  0  0  0  0  0  0  0  0
   69.9119   50.4453   56.7047 C   0  0  0  0  0  0  0  0  0  0  0  0
   68.8574   51.5181   56.8869 C   0  0  0  0  0  0  0  0  0  0  0  0
   68.4501   52.1129   55.5522 C   0  0  0  0  0  0  0  0  0  0  0  0
   69.6126   52.2699   54.6273 C   0  0  0  0  0  0  0  0  0  0  0  0
   69.8160   51.1597   53.6560 C   0  0  0  0  0  0  0  0  0  0  0  0
   68.3352   43.1264   56.3174 C   0  0  0  0  0  0  0  0  0  0  0  0
   69.2605   43.7455   56.9033 O   0  0  0  0  0  0  0  0  0  0  0  0
   67.6939   43.7977   55.2474 N   0  0  0  0  0  0  0  0  0  0  0  0
   67.2956   41.0682   55.9157 O   0  0  0  0  0  0  0  0  0  0  0  0
   67.9439   41.7713   56.7310 C   0  0  0  0  0  0  0  0  0  0  0  0
   68.2558   41.2310   57.9833 N   0  0  0  0  0  0  0  0  0  0  0  0
   67.8761   39.8927   58.4055 C   0  0  0  0  0  0  0  0  0  0  0  0
   69.0618   39.0509   58.6833 C   0  0  0  0  0  0  0  0  0  0  0  0
   68.9891   37.9696   59.5619 C   0  0  0  0  0  0  0  0  0  0  0  0
   70.1030   37.1961   59.8092 C   0  0  0  0  0  0  0  0  0  0  0  0
   71.3110   37.4575   59.2069 C   0  0  0  0  0  0  0  0  0  0  0  0
   72.3734   36.6646   59.4853 F   0  0  0  0  0  0  0  0  0  0  0  0
   71.4014   38.5329   58.3270 C   0  0  0  0  0  0  0  0  0  0  0  0
   70.2804   39.2880   58.0963 C   0  0  0  0  0  0  0  0  0  0  0  0
 20 21  2  0
 21 22  1  0
 21 17  1  0
 22 23  1  0
 23 24  1  0
 24 25  2  0
 24 30  1  0
 25 26  1  0
 26 27  2  0
 27 28  1  0
 27 29  1  0
 29 30  2  0
 17 18  2  0
 17 19  1  0
 19  1  1  0
  1  2  2  0
  1 11  1  0
  2  3  1  0
  3  4  2  0
  4  5  1  0
  4 10  1  0
  5  6  2  0
  6  7  1  0
  6 16  1  0
  7  8  1  0
  7 12  1  0
  8  9  2  0
  8 10  1  0
 10 11  2  0
 12 13  1  0
 13 14  1  0
 14 15  1  0
 15 16  1  0
M  END
>  <minimizedAffinity>  (184) 
-8.97865

$$$$
data/reference_output_2/data/smiles/160015.pdb
     RDKit          3D

 28 30  0  0  0  0  0  0  0  0999 V2000
   68.4243   46.7608   53.9402 C   0  0  0  0  0  0  0  0  0  0  0  0
   68.5447   46.4489   52.6012 C   0  0  0  0  0  0  0  0  0  0  0  0
   69.3490   47.1722   51.7425 C   0  0  0  0  0  0  0  0  0  0  0  0
   70.0496   48.2416   52.2616 C   0  0  0  0  0  0  0  0  0  0  0  0
   69.9745   48.6097   53.5991 C   0  0  0  0  0  0  0  0  0  0  0  0
   69.1515   47.8411   54.3953 C   0  0  0  0  0  0  0  0  0  0  0  0
   70.7312   49.7502   54.1200 C   0  0  0  0  0  0  0  0  0  0  0  0
   71.9042   49.8877   53.6360 O   0  0  0  0  0  0  0  0  0  0  0  0
   70.2085   50.6350   55.0847 N   0  0  0  0  0  0  0  0  0  0  0  0
   70.8575   51.7830   55.6666 C   0  0  0  0  0  0  0  0  0  0  0  0
   69.7567   52.5999   56.3326 C   0  0  1  0  0  0  0  0  0  0  0  0
   69.9051   53.9543   56.0894 O   0  0  0  0  0  0  0  0  0  0  0  0
   68.5117   52.0401   55.6422 C   0  0  1  0  0  0  0  0  0  0  0  0
   68.5490   52.5152   54.3450 F   0  0  0  0  0  0  0  0  0  0  0  0
   68.8986   50.5523   55.6809 C   0  0  0  0  0  0  0  0  0  0  0  0
   67.6061   46.0086   54.7732 O   0  0  0  0  0  0  0  0  0  0  0  0
   70.0154   44.7680   57.2825 C   0  0  0  0  0  0  0  0  0  0  0  0
   69.3483   45.5766   56.4093 C   0  0  0  0  0  0  0  0  0  0  0  0
   68.2733   45.1452   55.6663 C   0  0  0  0  0  0  0  0  0  0  0  0
   67.8930   43.8659   55.8355 N   0  0  0  0  0  0  0  0  0  0  0  0
   68.5134   43.0326   56.6778 C   0  0  0  0  0  0  0  0  0  0  0  0
   69.5851   43.4581   57.4207 C   0  0  0  0  0  0  0  0  0  0  0  0
   68.0340   41.6411   56.8045 C   0  0  0  0  0  0  0  0  0  0  0  0
   69.0427   40.8552   57.3593 F   0  0  0  0  0  0  0  0  0  0  0  0
   67.7457   41.1166   55.5456 F   0  0  0  0  0  0  0  0  0  0  0  0
   66.9133   41.6496   57.6121 F   0  0  0  0  0  0  0  0  0  0  0  0
   70.8827   45.3536   59.4781 N   0  0  0  0  0  0  0  0  0  0  0  0
   71.1741   45.1869   58.0960 C   0  0  0  0  0  0  0  0  0  0  0  0
 27 28  1  0
 28 17  1  0
 17 18  2  0
 17 22  1  0
 18 19  1  0
 19 16  1  0
 19 20  2  0
 16  1  1  0
  1  2  2  0
  1  6  1  0
  2  3  1  0
  3  4  2  0
  4  5  1  0
  5  7  1  0
  5  6  2  0
  7  8  2  0
  7  9  1  0
  9 10  1  0
  9 15  1  0
 10 11  1  0
 11 12  1  6
 11 13  1  0
 13 14  1  6
 13 15  1  0
 20 21  1  0
 21 23  1  0
 21 22  2  0
 23 24  1  0
 23 25  1  0
 23 26  1  0
M  CHG  1  27   1
M  END
>  <minimizedAffinity>  (185) 
-8.97535

$$$$
data/reference_output_2/data/smiles/173627.pdb
     RDKit          3D

 32 34  0  0  0  0  0  0  0  0999 V2000
   70.2755   42.5291   58.6127 C   0  0  1  0  0  0  0  0  0  0  0  0
   69.8222   43.1613   59.8910 C   0  0  0  0  0  0  0  0  0  0  0  0
   68.6267   43.3801   60.1676 O   0  0  0  0  0  0  0  0  0  0  0  0
   70.8249   43.5213   60.8225 N   0  0  0  0  0  0  0  0  0  0  0  0
   72.1281   42.8921   60.8848 C   0  0  0  0  0  0  0  0  0  0  0  0
   72.4564   42.1740   59.5869 C   0  0  0  0  0  0  0  0  0  0  0  0
   71.2849   41.5950   58.9945 N   0  0  0  0  0  0  0  0  0  0  0  0
   71.1507   40.2146   58.8203 C   0  0  0  0  0  0  0  0  0  0  0  0
   70.0862   39.8204   58.2760 O   0  0  0  0  0  0  0  0  0  0  0  0
   72.1089   39.2449   59.2069 N   0  0  0  0  0  0  0  0  0  0  0  0
   71.9714   37.8551   59.0287 C   0  0  0  0  0  0  0  0  0  0  0  0
   72.5327   37.2917   57.8652 C   0  0  0  0  0  0  0  0  0  0  0  0
   72.4685   35.9520   57.5739 C   0  0  0  0  0  0  0  0  0  0  0  0
   73.0709   35.3936   56.3372 C   0  0  0  0  0  0  0  0  0  0  0  0
   71.8190   35.1190   58.4705 C   0  0  0  0  0  0  0  0  0  0  0  0
   71.2506   35.6048   59.6239 C   0  0  0  0  0  0  0  0  0  0  0  0
   70.5630   34.7017   60.5668 C   0  0  0  0  0  0  0  0  0  0  0  0
   71.3538   36.9796   59.8575 C   0  0  0  0  0  0  0  0  0  0  0  0
   69.1677   42.0592   57.7633 C   0  0  0  0  0  0  0  0  0  0  0  0
   69.3032   44.4673   56.9261 N   0  0  0  0  0  0  0  0  0  0  0  0
   68.7566   43.1653   56.8174 C   0  0  0  0  0  0  0  0  0  0  0  0
   67.9163   42.9597   55.9075 O   0  0  0  0  0  0  0  0  0  0  0  0
   68.2276   46.4367   53.9295 C   0  0  0  0  0  0  0  0  0  0  0  0
   68.2500   47.7139   54.4369 C   0  0  0  0  0  0  0  0  0  0  0  0
   68.6187   47.9100   55.7586 C   0  0  0  0  0  0  0  0  0  0  0  0
   68.9634   46.8162   56.5615 C   0  0  0  0  0  0  0  0  0  0  0  0
   68.9426   45.5330   56.0579 C   0  0  0  0  0  0  0  0  0  0  0  0
   68.5777   45.3631   54.7574 C   0  0  0  0  0  0  0  0  0  0  0  0
   67.8415   46.2310   52.5482 C   0  0  0  0  0  0  0  0  0  0  0  0
   66.9593   45.3817   52.2864 O   0  0  0  0  0  0  0  0  0  0  0  0
   69.7299   47.4058   51.4971 C   0  0  0  0  0  0  0  0  0  0  0  0
   68.3970   46.9291   51.4860 O   0  0  0  0  0  0  0  0  0  0  0  0
 31 32  1  0
 32 29  1  0
 29 30  2  0
 29 23  1  0
 23 24  2  0
 23 28  1  0
 24 25  1  0
 25 26  2  0
 26 27  1  0
 27 20  1  0
 27 28  2  0
 20 21  1  0
 21 22  2  0
 21 19  1  0
  1 19  1  1
  1  2  1  0
  1  7  1  0
  2  3  2  0
  2  4  1  0
  4  5  1  0
  5  6  1  0
  6  7  1  0
  7  8  1  0
  8  9  2  0
  8 10  1  0
 10 11  1  0
 11 12  2  0
 11 18  1  0
 12 13  1  0
 13 14  1  0
 13 15  2  0
 15 16  1  0
 16 17  1  0
 16 18  2  0
M  END
>  <minimizedAffinity>  (186) 
-8.97070

$$$$
data/200k_reference_output/data/smiles/11058.pdb
     RDKit          3D

 29 32  0  0  0  0  0  0  0  0999 V2000
   70.8153   45.0475   58.0240 C   0  0  0  0  0  0  0  0  0  0  0  0
   72.1841   45.4332   58.1325 C   0  0  0  0  0  0  0  0  0  0  0  0
   73.3131   44.9297   58.0791 C   0  0  0  0  0  0  0  0  0  0  0  0
   73.1521   43.3997   57.8107 C   0  0  0  0  0  0  0  0  0  0  0  0
   74.4006   42.7855   57.7472 F   0  0  0  0  0  0  0  0  0  0  0  0
   72.1306   43.0768   57.7278 C   0  0  0  0  0  0  0  0  0  0  0  0
   70.6870   43.5727   57.7688 C   0  0  0  0  0  0  0  0  0  0  0  0
   69.6775   42.9176   57.6034 F   0  0  0  0  0  0  0  0  0  0  0  0
   71.8369   41.5178   58.1418 C   0  0  0  0  0  0  0  0  0  0  0  0
   71.6226   40.3946   58.4561 C   0  0  0  0  0  0  0  0  0  0  0  0
   71.3604   38.9824   58.8258 C   0  0  0  0  0  0  0  0  0  0  0  0
   70.4762   38.7002   59.8057 C   0  0  0  0  0  0  0  0  0  0  0  0
   70.1964   37.4115   60.1795 N   0  0  0  0  0  0  0  0  0  0  0  0
   70.8608   36.4500   59.5063 C   0  0  0  0  0  0  0  0  0  0  0  0
   70.7974   35.1170   59.6394 N   0  0  0  0  0  0  0  0  0  0  0  0
   71.6167   34.5456   58.7679 N   0  0  0  0  0  0  0  0  0  0  0  0
   72.2302   35.5283   58.0507 C   0  0  0  0  0  0  0  0  0  0  0  0
   71.7514   36.7247   58.5183 C   0  0  0  0  0  0  0  0  0  0  0  0
   72.0524   38.0382   58.1209 C   0  0  0  0  0  0  0  0  0  0  0  0
   69.7141   45.8141   58.1764 N   0  0  0  0  0  0  0  0  0  0  0  0
   68.1773   47.9041   57.7489 O   0  0  0  0  0  0  0  0  0  0  0  0
   69.2689   47.1103   57.0807 S   0  0  0  0  0  0  0  0  0  0  0  0
   70.4492   48.0345   56.8865 O   0  0  0  0  0  0  0  0  0  0  0  0
   68.7536   46.5398   55.5356 C   0  0  0  0  0  0  0  0  0  0  0  0
   68.9123   47.3012   54.3517 C   0  0  0  0  0  0  0  0  0  0  0  0
   68.4800   46.8141   53.1523 C   0  0  0  0  0  0  0  0  0  0  0  0
   67.8860   45.5968   53.0405 C   0  0  0  0  0  0  0  0  0  0  0  0
   67.7257   44.8430   54.2097 C   0  0  0  0  0  0  0  0  0  0  0  0
   68.1663   45.3613   55.3595 N   0  0  0  0  0  0  0  0  0  0  0  0
 21 22  2  0
 22 23  2  0
 22 20  1  0
 22 24  1  0
 20  1  1  0
  1  2  2  0
  1  7  1  0
  2  3  1  0
  3  4  2  0
  4  5  1  0
  4  6  1  0
  6  9  1  0
  6  7  2  0
  9 10  3  0
 10 11  1  0
 11 12  2  0
 11 19  1  0
 12 13  1  0
 13 14  2  0
 14 15  1  0
 14 18  1  0
 15 16  1  0
 16 17  2  0
 17 18  1  0
 18 19  2  0
  7  8  1  0
 24 25  2  0
 24 29  1  0
 25 26  1  0
 26 27  2  0
 27 28  1  0
 28 29  2  0
M  END
>  <minimizedAffinity>  (187) 
-8.95767

$$$$
data/200k_reference_output/data/smiles/3965.pdb
     RDKit          3D

 31 35  0  0  0  0  0  0  0  0999 V2000
   68.0919   44.6615   55.1416 C   0  0  0  0  0  0  0  0  0  0  0  0
   68.4934   45.9566   55.3907 C   0  0  0  0  0  0  0  0  0  0  0  0
   68.4422   46.9638   54.4512 C   0  0  0  0  0  0  0  0  0  0  0  0
   67.9631   46.6555   53.1954 C   0  0  0  0  0  0  0  0  0  0  0  0
   67.5628   45.3480   52.9576 C   0  0  0  0  0  0  0  0  0  0  0  0
   67.6294   44.3907   53.9067 N   0  0  0  0  0  0  0  0  0  0  0  0
   68.8771   48.3321   54.7492 C   0  0  0  0  0  0  0  0  0  0  0  0
   69.3670   49.2232   53.8084 C   0  0  0  0  0  0  0  0  0  0  0  0
   69.6816   50.4165   54.4177 C   0  0  0  0  0  0  0  0  0  0  0  0
   69.3835   50.2596   55.7502 C   0  0  0  0  0  0  0  0  0  0  0  0
   68.8978   48.9797   55.9043 N   0  0  0  0  0  0  0  0  0  0  0  0
   69.6319   51.3513   56.6961 C   0  0  2  0  0  0  0  0  0  0  0  0
   71.0687   51.2869   57.2491 C   0  0  0  0  0  0  0  0  0  0  0  0
   70.8937   50.1909   58.2786 C   0  0  0  0  0  0  0  0  0  0  0  0
   69.5780   50.3482   58.8167 N   0  0  0  0  0  0  0  0  0  0  0  0
   68.8283   51.2118   57.9694 C   0  0  0  0  0  0  0  0  0  0  0  0
   69.5029   52.7016   56.0801 C   0  0  0  0  0  0  0  0  0  0  0  0
   70.3642   52.7655   54.9180 N   0  0  0  0  0  0  0  0  0  0  0  0
   70.1949   51.7119   53.9625 C   0  0  0  0  0  0  0  0  0  0  0  0
   70.4769   51.8831   52.7652 O   0  0  0  0  0  0  0  0  0  0  0  0
   67.3829   42.4918   56.1570 C   0  0  0  0  0  0  0  0  0  0  0  0
   66.5765   42.3546   55.1916 O   0  0  0  0  0  0  0  0  0  0  0  0
   68.1675   43.6587   56.1545 N   0  0  0  0  0  0  0  0  0  0  0  0
   67.6250   38.3017   60.1424 C   0  0  0  0  0  0  0  0  0  0  0  0
   67.5576   39.3885   59.1179 C   0  0  0  0  0  0  0  0  0  0  0  0
   68.1889   39.2730   57.8960 C   0  0  0  0  0  0  0  0  0  0  0  0
   68.1277   40.2756   56.9508 C   0  0  0  0  0  0  0  0  0  0  0  0
   67.4317   41.4471   57.1742 C   0  0  0  0  0  0  0  0  0  0  0  0
   66.8043   41.5550   58.3959 C   0  0  0  0  0  0  0  0  0  0  0  0
   66.8606   40.5552   59.3490 C   0  0  0  0  0  0  0  0  0  0  0  0
   66.1584   40.7147   60.6714 C   0  0  0  0  0  0  0  0  0  0  0  0
 24 25  1  0
 25 26  2  0
 25 30  1  0
 26 27  1  0
 27 28  2  0
 28 21  1  0
 28 29  1  0
 21 22  2  0
 21 23  1  0
 23  1  1  0
  1  2  2  0
  1  6  1  0
  2  3  1  0
  3  7  1  0
  3  4  2  0
  7  8  2  0
  7 11  1  0
  8  9  1  0
  9 10  2  0
  9 19  1  0
 10 11  1  0
 12 10  1  0
 12 13  1  1
 12 16  1  0
 12 17  1  0
 13 14  1  0
 14 15  1  0
 15 16  1  0
 17 18  1  0
 18 19  1  0
 19 20  2  0
  4  5  1  0
  5  6  2  0
 29 30  2  0
 30 31  1  0
M  CHG  1  15   1
M  END
>  <minimizedAffinity>  (188) 
-8.95747

$$$$
data/reference_output_2/data/smiles/89361.pdb
     RDKit          3D

 29 32  0  0  0  0  0  0  0  0999 V2000
   69.1173   41.3237   57.9218 C   0  0  0  0  0  0  0  0  0  0  0  0
   68.0679   40.9236   57.0866 C   0  0  0  0  0  0  0  0  0  0  0  0
   67.5141   41.7729   56.1542 C   0  0  0  0  0  0  0  0  0  0  0  0
   67.9703   43.0644   55.9993 C   0  0  0  0  0  0  0  0  0  0  0  0
   67.6416   44.1003   55.2004 N   0  0  0  0  0  0  0  0  0  0  0  0
   68.4229   45.1609   55.4685 C   0  0  0  0  0  0  0  0  0  0  0  0
   69.2427   44.7604   56.4522 N   0  0  0  0  0  0  0  0  0  0  0  0
   69.0025   43.4855   56.8078 C   0  0  0  0  0  0  0  0  0  0  0  0
   69.5551   42.6162   57.7481 C   0  0  0  0  0  0  0  0  0  0  0  0
   68.3524   46.4821   54.7889 C   0  0  1  0  0  0  0  0  0  0  0  0
   69.3144   47.4242   55.4949 C   0  0  0  0  0  0  0  0  0  0  0  0
   69.3629   48.5545   54.4585 C   0  0  2  0  0  0  0  0  0  0  0  0
   68.3495   49.4503   54.8289 O   0  0  0  0  0  0  0  0  0  0  0  0
   68.9556   47.8148   53.1981 C   0  0  2  0  0  0  0  0  0  0  0  0
   68.8688   46.4619   53.5214 O   0  0  0  0  0  0  0  0  0  0  0  0
   69.9670   48.0628   52.0988 C   0  0  0  0  0  0  0  0  0  0  0  0
   69.9472   46.9622   51.2393 O   0  0  0  0  0  0  0  0  0  0  0  0
   68.9212   39.9801   59.8191 O   0  0  0  0  0  0  0  0  0  0  0  0
   69.6634   40.3822   58.8907 C   0  0  0  0  0  0  0  0  0  0  0  0
   70.9888   39.8959   58.8426 N   0  0  0  0  0  0  0  0  0  0  0  0
   71.5848   38.9641   59.7775 C   0  0  0  0  0  0  0  0  0  0  0  0
   71.7157   37.5816   59.2207 C   0  0  0  0  0  0  0  0  0  0  0  0
   72.2424   37.3962   57.9546 C   0  0  0  0  0  0  0  0  0  0  0  0
   72.3592   36.1238   57.4299 C   0  0  0  0  0  0  0  0  0  0  0  0
   73.0314   35.9104   55.8206 Cl  0  0  0  0  0  0  0  0  0  0  0  0
   71.9476   35.0264   58.1711 C   0  0  0  0  0  0  0  0  0  0  0  0
   71.4189   35.2161   59.4436 C   0  0  0  0  0  0  0  0  0  0  0  0
   70.9219   33.7791   60.3164 Cl  0  0  0  0  0  0  0  0  0  0  0  0
   71.3075   36.4809   59.9523 C   0  0  0  0  0  0  0  0  0  0  0  0
 18 19  2  0
 19 20  1  0
 19  1  1  0
 20 21  1  0
 21 22  1  0
 22 23  2  0
 22 29  1  0
 23 24  1  0
 24 25  1  0
 24 26  2  0
 26 27  1  0
 27 28  1  0
 27 29  2  0
  1  2  2  0
  1  9  1  0
  2  3  1  0
  3  4  2  0
  4  5  1  0
  4  8  1  0
  5  6  1  0
 10  6  1  1
  6  7  2  0
 10 11  1  0
 10 15  1  0
 11 12  1  0
 12 13  1  1
 12 14  1  0
 14 16  1  6
 14 15  1  0
 16 17  1  0
  7  8  1  0
  8  9  2  0
M  CHG  1   7   1
M  END
>  <minimizedAffinity>  (189) 
-8.94556

$$$$
data/reference_output_2/data/smiles/180863.pdb
     RDKit          3D

 30 33  0  0  0  0  0  0  0  0999 V2000
   71.0602   44.3984   58.4639 C   0  0  0  0  0  0  0  0  0  0  0  0
   71.1762   45.7503   58.7118 C   0  0  0  0  0  0  0  0  0  0  0  0
   70.4611   46.6987   58.0132 C   0  0  0  0  0  0  0  0  0  0  0  0
   69.5844   46.3124   57.0197 C   0  0  0  0  0  0  0  0  0  0  0  0
   69.4782   44.9608   56.7823 C   0  0  0  0  0  0  0  0  0  0  0  0
   70.1931   44.0680   57.4850 N   0  0  0  0  0  0  0  0  0  0  0  0
   68.6703   47.5032   56.1205 S   0  0  0  0  0  0  0  0  0  0  0  0
   69.3501   48.8291   56.3374 O   0  0  0  0  0  0  0  0  0  0  0  0
   67.2835   47.5296   56.6389 O   0  0  0  0  0  0  0  0  0  0  0  0
   68.6426   47.1816   54.4098 C   0  0  0  0  0  0  0  0  0  0  0  0
   67.8684   46.1997   53.8359 C   0  0  0  0  0  0  0  0  0  0  0  0
   67.9122   46.0218   52.4760 C   0  0  0  0  0  0  0  0  0  0  0  0
   67.1725   45.0691   51.8303 F   0  0  0  0  0  0  0  0  0  0  0  0
   68.7115   46.8018   51.6569 C   0  0  0  0  0  0  0  0  0  0  0  0
   69.4949   47.7907   52.2182 C   0  0  0  0  0  0  0  0  0  0  0  0
   70.2988   48.5816   51.4329 F   0  0  0  0  0  0  0  0  0  0  0  0
   69.4354   47.9513   53.5858 C   0  0  0  0  0  0  0  0  0  0  0  0
   71.8368   43.3689   59.2272 C   0  0  0  0  0  0  0  0  0  0  0  0
   70.9692   43.9647   61.7892 O   0  0  0  0  0  0  0  0  0  0  0  0
   70.4464   42.9351   61.2810 C   0  0  0  0  0  0  0  0  0  0  0  0
   70.8633   42.5997   59.9798 N   0  0  0  0  0  0  0  0  0  0  0  0
   69.4638   42.1691   62.0458 C   0  0  0  0  0  0  0  0  0  0  0  0
   68.4933   42.6202   62.9066 C   0  0  0  0  0  0  0  0  0  0  0  0
   67.7778   41.5678   63.4282 C   0  0  0  0  0  0  0  0  0  0  0  0
   66.7215   41.4160   64.3132 C   0  0  0  0  0  0  0  0  0  0  0  0
   66.2338   40.1975   64.6276 N   0  0  0  0  0  0  0  0  0  0  0  0
   66.7747   39.0943   64.0770 C   0  0  0  0  0  0  0  0  0  0  0  0
   67.8258   39.1905   63.1911 C   0  0  0  0  0  0  0  0  0  0  0  0
   68.3385   40.4273   62.8575 C   0  0  0  0  0  0  0  0  0  0  0  0
   69.3419   40.8371   62.0391 N   0  0  0  0  0  0  0  0  0  0  0  0
 19 20  2  0
 20 21  1  0
 20 22  1  0
 21 18  1  0
 18  1  1  0
  1  2  2  0
  1  6  1  0
  2  3  1  0
  3  4  2  0
  4  7  1  0
  4  5  1  0
  7  8  2  0
  7  9  2  0
  7 10  1  0
 10 11  2  0
 10 17  1  0
 11 12  1  0
 12 13  1  0
 12 14  2  0
 14 15  1  0
 15 16  1  0
 15 17  2  0
  5  6  2  0
 22 23  2  0
 22 30  1  0
 23 24  1  0
 24 25  2  0
 24 29  1  0
 25 26  1  0
 26 27  2  0
 27 28  1  0
 28 29  2  0
 29 30  1  0
M  END
>  <minimizedAffinity>  (190) 
-8.94459

$$$$
data/reference_output_2/data/smiles/112759.pdb
     RDKit          3D

 28 31  0  0  0  0  0  0  0  0999 V2000
   69.1925   49.6492   55.8455 C   0  0  1  0  0  0  0  0  0  0  0  0
   68.2540   50.4694   56.7300 C   0  0  0  0  0  0  0  0  0  0  0  0
   69.0266   51.7043   57.1963 C   0  0  0  0  0  0  0  0  0  0  0  0
   69.1618   52.5983   55.9774 C   0  0  0  0  0  0  0  0  0  0  0  0
   69.0826   51.7671   54.7144 C   0  0  0  0  0  0  0  0  0  0  0  0
   69.8156   50.5379   54.8970 N   0  0  0  0  0  0  0  0  0  0  0  0
   71.4226   49.5222   56.7246 O   0  0  0  0  0  0  0  0  0  0  0  0
   70.2345   49.0967   56.7511 C   0  0  0  0  0  0  0  0  0  0  0  0
   69.9330   48.0683   57.6815 N   0  0  0  0  0  0  0  0  0  0  0  0
   70.8699   47.4905   58.5769 C   0  0  0  0  0  0  0  0  0  0  0  0
   71.3324   46.1856   58.3934 C   0  0  0  0  0  0  0  0  0  0  0  0
   72.2426   45.6207   59.2605 C   0  0  0  0  0  0  0  0  0  0  0  0
   72.7312   46.3194   60.3430 C   0  0  0  0  0  0  0  0  0  0  0  0
   72.2915   47.6078   60.5480 C   0  0  0  0  0  0  0  0  0  0  0  0
   71.3672   48.1753   59.6617 C   0  0  0  0  0  0  0  0  0  0  0  0
   72.9283   48.0714   61.6813 O   0  0  0  0  0  0  0  0  0  0  0  0
   74.0745   47.2818   61.9326 C   0  0  0  0  0  0  0  0  0  0  0  0
   73.6398   46.0320   61.3781 O   0  0  0  0  0  0  0  0  0  0  0  0
   70.2148   49.7773   53.4183 S   0  0  0  0  0  0  0  0  0  0  0  0
   71.6882   49.4912   53.4114 O   0  0  0  0  0  0  0  0  0  0  0  0
   69.9573   50.7877   52.3129 O   0  0  0  0  0  0  0  0  0  0  0  0
   69.3213   48.3213   53.1330 C   0  0  0  0  0  0  0  0  0  0  0  0
   68.7042   47.6436   54.1544 C   0  0  0  0  0  0  0  0  0  0  0  0
   67.9897   46.4829   53.9375 C   0  0  0  0  0  0  0  0  0  0  0  0
   67.8759   45.9684   52.6755 C   0  0  0  0  0  0  0  0  0  0  0  0
   67.1710   44.8141   52.4245 F   0  0  0  0  0  0  0  0  0  0  0  0
   68.4844   46.6267   51.6322 C   0  0  0  0  0  0  0  0  0  0  0  0
   69.2071   47.8046   51.8633 C   0  0  0  0  0  0  0  0  0  0  0  0
  7  8  2  0
  8  9  1  0
  1  8  1  1
  9 10  1  0
 10 11  2  0
 10 15  1  0
 11 12  1  0
 12 13  2  0
 13 14  1  0
 13 18  1  0
 14 15  2  0
 14 16  1  0
 16 17  1  0
 17 18  1  0
  1  2  1  0
  1  6  1  0
  2  3  1  0
  3  4  1  0
  4  5  1  0
  5  6  1  0
  6 19  1  0
 19 20  2  0
 19 21  2  0
 19 22  1  0
 22 23  2  0
 22 28  1  0
 23 24  1  0
 24 25  2  0
 25 26  1  0
 25 27  1  0
 27 28  2  0
M  END
>  <minimizedAffinity>  (191) 
-8.94275

$$$$
data/reference_output_2/data/smiles/173313.pdb
     RDKit          3D

 32 35  0  0  0  0  0  0  0  0999 V2000
   70.8872   44.2549   58.8691 C   0  0  0  0  0  0  0  0  0  0  0  0
   70.8038   45.5678   58.7342 C   0  0  0  0  0  0  0  0  0  0  0  0
   71.4471   46.3791   59.5938 N   0  0  0  0  0  0  0  0  0  0  0  0
   71.3550   47.7183   59.4448 C   0  0  0  0  0  0  0  0  0  0  0  0
   71.9673   48.4688   60.2630 O   0  0  0  0  0  0  0  0  0  0  0  0
   70.6179   48.3163   58.4366 C   0  0  0  0  0  0  0  0  0  0  0  0
   70.5367   49.6484   58.3024 C   0  0  0  0  0  0  0  0  0  0  0  0
   69.9795   47.4965   57.5849 N   0  0  0  0  0  0  0  0  0  0  0  0
   70.0668   46.1530   57.7250 C   0  0  0  0  0  0  0  0  0  0  0  0
   69.4569   45.4047   56.9112 O   0  0  0  0  0  0  0  0  0  0  0  0
   69.7603   50.2603   57.2394 C   0  0  0  0  0  0  0  0  0  0  0  0
   68.6704   51.0630   57.4514 C   0  0  0  0  0  0  0  0  0  0  0  0
   67.9655   51.6230   56.3767 C   0  0  0  0  0  0  0  0  0  0  0  0
   68.3447   51.3842   55.0886 C   0  0  0  0  0  0  0  0  0  0  0  0
   69.4447   50.5756   54.8577 C   0  0  0  0  0  0  0  0  0  0  0  0
   70.1251   50.0345   55.9177 C   0  0  0  0  0  0  0  0  0  0  0  0
   69.8223   50.3240   53.4637 C   0  0  0  0  0  0  0  0  0  0  0  0
   70.2974   51.2717   52.7455 O   0  0  0  0  0  0  0  0  0  0  0  0
   69.6866   49.0282   52.8272 C   0  0  0  0  0  0  0  0  0  0  0  0
   68.9669   47.9158   53.2284 C   0  0  0  0  0  0  0  0  0  0  0  0
   69.1582   46.9453   52.2646 C   0  0  0  0  0  0  0  0  0  0  0  0
   69.9385   47.4418   51.3492 O   0  0  0  0  0  0  0  0  0  0  0  0
   70.2831   48.6618   51.6245 C   0  0  0  0  0  0  0  0  0  0  0  0
   72.9359   43.1275   59.8269 C   0  0  0  0  0  0  0  0  0  0  0  0
   73.2833   42.5634   61.0228 N   0  0  0  0  0  0  0  0  0  0  0  0
   72.2244   42.6854   61.8304 C   0  0  0  0  0  0  0  0  0  0  0  0
   71.2296   43.3149   61.1509 N   0  0  0  0  0  0  0  0  0  0  0  0
   71.6464   43.5983   59.9088 C   0  0  0  0  0  0  0  0  0  0  0  0
   73.1669   42.7376   57.3655 C   0  0  0  0  0  0  0  0  0  0  0  0
   73.8083   43.2287   58.6409 C   0  0  0  0  0  0  0  0  0  0  0  0
   74.4056   44.6136   58.4656 C   0  0  0  0  0  0  0  0  0  0  0  0
   75.0205   42.2983   58.8390 C   0  0  0  0  0  0  0  0  0  0  0  0
 29 30  1  0
 30 31  1  0
 30 32  1  0
 30 24  1  0
 24 25  1  0
 24 28  2  0
 25 26  1  0
 26 27  2  0
 27 28  1  0
 28  1  1  0
  1  2  2  0
  2  3  1  0
  2  9  1  0
  3  4  1  0
  4  5  2  0
  4  6  1  0
  6  7  2  0
  6  8  1  0
  7 11  1  0
 11 12  2  0
 11 16  1  0
 12 13  1  0
 13 14  2  0
 14 15  1  0
 15 17  1  0
 15 16  2  0
 17 18  2  0
 17 19  1  0
 19 20  1  0
 19 23  2  0
 20 21  2  0
 21 22  1  0
 22 23  1  0
  8  9  1  0
  9 10  2  0
M  CHG  1  27   1
M  END
>  <minimizedAffinity>  (192) 
-8.94005

$$$$
data/200k_reference_output/data/smiles/2462.pdb
     RDKit          3D

 30 32  0  0  0  0  0  0  0  0999 V2000
   71.4051   43.7448   57.8756 C   0  0  0  0  0  0  0  0  0  0  0  0
   70.1548   44.0243   57.4343 C   0  0  0  0  0  0  0  0  0  0  0  0
   69.6956   45.3301   57.3775 C   0  0  0  0  0  0  0  0  0  0  0  0
   70.4760   46.3969   57.7637 C   0  0  0  0  0  0  0  0  0  0  0  0
   71.7417   46.0928   58.2089 C   0  0  0  0  0  0  0  0  0  0  0  0
   72.2177   44.8096   58.2735 C   0  0  0  0  0  0  0  0  0  0  0  0
   73.2274   42.2154   57.7402 O   0  0  0  0  0  0  0  0  0  0  0  0
   71.9888   42.4140   57.9760 C   0  0  0  0  0  0  0  0  0  0  0  0
   71.1923   41.3028   58.3397 N   0  0  0  0  0  0  0  0  0  0  0  0
   71.7640   40.0001   58.4384 N   0  0  0  0  0  0  0  0  0  0  0  0
   70.8644   38.9090   58.3440 C   0  0  0  0  0  0  0  0  0  0  0  0
   69.6267   39.1264   58.1801 O   0  0  0  0  0  0  0  0  0  0  0  0
   71.2898   37.5276   58.4247 C   0  0  0  0  0  0  0  0  0  0  0  0
   72.1812   37.0415   57.5044 C   0  0  0  0  0  0  0  0  0  0  0  0
   72.6005   35.7183   57.5659 C   0  0  0  0  0  0  0  0  0  0  0  0
   72.1299   34.8818   58.5474 C   0  0  0  0  0  0  0  0  0  0  0  0
   71.2395   35.3738   59.4645 C   0  0  0  0  0  0  0  0  0  0  0  0
   70.8197   36.6860   59.4075 C   0  0  0  0  0  0  0  0  0  0  0  0
   69.9045   37.1414   60.3731 O   0  0  0  0  0  0  0  0  0  0  0  0
   70.0097   47.7377   57.7078 N   0  0  0  0  0  0  0  0  0  0  0  0
   68.5923   48.2303   56.8643 S   0  0  0  0  0  0  0  0  0  0  0  0
   68.3898   49.7071   57.0017 O   0  0  0  0  0  0  0  0  0  0  0  0
   67.4108   47.4888   57.4027 O   0  0  0  0  0  0  0  0  0  0  0  0
   68.7780   47.7998   55.1595 C   0  0  0  0  0  0  0  0  0  0  0  0
   69.5620   48.5653   54.3409 C   0  0  0  0  0  0  0  0  0  0  0  0
   69.7090   48.2266   52.9983 C   0  0  0  0  0  0  0  0  0  0  0  0
   69.0444   47.1095   52.5400 C   0  0  0  0  0  0  0  0  0  0  0  0
   69.1604   46.7443   51.2431 F   0  0  0  0  0  0  0  0  0  0  0  0
   68.2645   46.3553   53.3767 C   0  0  0  0  0  0  0  0  0  0  0  0
   68.1103   46.6822   54.7129 C   0  0  0  0  0  0  0  0  0  0  0  0
  7  8  2  0
  8  9  1  0
  8  1  1  0
  9 10  1  0
 10 11  1  0
 11 12  2  0
 11 13  1  0
 13 14  2  0
 13 18  1  0
 14 15  1  0
 15 16  2  0
 16 17  1  0
 17 18  2  0
 18 19  1  0
  1  2  2  0
  1  6  1  0
  2  3  1  0
  3  4  2  0
  4 20  1  0
  4  5  1  0
 20 21  1  0
 21 22  2  0
 21 23  2  0
 21 24  1  0
 24 25  2  0
 24 30  1  0
 25 26  1  0
 26 27  2  0
 27 28  1  0
 27 29  1  0
 29 30  2  0
  5  6  2  0
M  END
>  <minimizedAffinity>  (193) 
-8.93952

$$$$
data/reference_output_2/data/smiles/97470.pdb
     RDKit          3D

 29 31  0  0  0  0  0  0  0  0999 V2000
   69.8408   45.4274   59.1012 O   0  0  0  0  0  0  0  0  0  0  0  0
   70.5241   45.9620   58.1986 C   0  0  0  0  0  0  0  0  0  0  0  0
   71.9176   46.3647   58.5395 C   0  0  0  0  0  0  0  0  0  0  0  0
   71.8599   47.4382   59.5908 C   0  0  0  0  0  0  0  0  0  0  0  0
   71.0105   48.5343   59.2492 N   0  0  0  0  0  0  0  0  0  0  0  0
   71.3662   49.4865   58.2408 C   0  0  0  0  0  0  0  0  0  0  0  0
   72.5858   49.5231   57.8096 N   0  0  0  0  0  0  0  0  0  0  0  0
   72.7241   50.7685   56.5960 S   0  0  0  0  0  0  0  0  0  0  0  0
   73.6519   51.8429   57.0086 O   0  0  0  0  0  0  0  0  0  0  0  0
   73.0717   50.1595   55.2757 O   0  0  0  0  0  0  0  0  0  0  0  0
   71.0477   51.2460   56.6940 C   0  0  0  0  0  0  0  0  0  0  0  0
   70.3786   52.2146   56.0028 C   0  0  0  0  0  0  0  0  0  0  0  0
   69.0317   52.4239   56.2460 C   0  0  0  0  0  0  0  0  0  0  0  0
   68.4448   51.6187   57.1924 C   0  0  0  0  0  0  0  0  0  0  0  0
   69.1224   50.6586   57.8720 C   0  0  0  0  0  0  0  0  0  0  0  0
   70.4855   50.4337   57.6395 C   0  0  0  0  0  0  0  0  0  0  0  0
   69.9468   46.1267   57.0014 O   0  0  0  0  0  0  0  0  0  0  0  0
   69.0921   46.9897   56.4092 C   0  0  0  0  0  0  0  0  0  0  0  0
   68.8919   46.9427   54.9545 C   0  0  0  0  0  0  0  0  0  0  0  0
   69.3024   47.9676   54.1438 C   0  0  0  0  0  0  0  0  0  0  0  0
   70.0005   49.0498   54.5931 F   0  0  0  0  0  0  0  0  0  0  0  0
   69.0805   47.9626   52.7614 C   0  0  0  0  0  0  0  0  0  0  0  0
   69.4925   48.9843   51.9815 F   0  0  0  0  0  0  0  0  0  0  0  0
   68.4281   46.8870   52.2118 C   0  0  0  0  0  0  0  0  0  0  0  0
   68.1674   46.7942   50.8841 F   0  0  0  0  0  0  0  0  0  0  0  0
   68.0135   45.8566   53.0113 C   0  0  0  0  0  0  0  0  0  0  0  0
   67.3617   44.7778   52.4704 F   0  0  0  0  0  0  0  0  0  0  0  0
   68.2343   45.8723   54.3536 C   0  0  0  0  0  0  0  0  0  0  0  0
   67.8430   44.8687   55.2011 F   0  0  0  0  0  0  0  0  0  0  0  0
  1  2  2  0
  2  3  1  0
  2 17  1  0
  3  4  1  0
  4  5  1  0
  5  6  1  0
  6  7  2  0
  6 16  1  0
  7  8  1  0
  8  9  2  0
  8 10  2  0
  8 11  1  0
 11 12  1  0
 11 16  2  0
 12 13  2  0
 13 14  1  0
 14 15  2  0
 15 16  1  0
 17 18  1  0
 18 19  1  0
 19 20  2  0
 19 28  1  0
 20 21  1  0
 20 22  1  0
 22 23  1  0
 22 24  2  0
 24 25  1  0
 24 26  1  0
 26 27  1  0
 26 28  2  0
 28 29  1  0
M  CHG  1   7   1
M  END
>  <minimizedAffinity>  (194) 
-8.93952

$$$$
data/reference_output_2/data/smiles/178873.pdb
     RDKit          3D

 27 29  0  0  0  0  0  0  0  0999 V2000
   69.0388   41.9385   57.0455 C   0  0  2  0  0  0  0  0  0  0  0  0
   67.5710   41.5693   56.9751 C   0  0  0  0  0  0  0  0  0  0  0  0
   67.0745   41.5000   58.3802 C   0  0  0  0  0  0  0  0  0  0  0  0
   68.2949   41.7223   59.1991 C   0  0  0  0  0  0  0  0  0  0  0  0
   68.3173   42.0003   60.4482 O   0  0  0  0  0  0  0  0  0  0  0  0
   69.4473   41.5758   58.3780 N   0  0  0  0  0  0  0  0  0  0  0  0
   70.0013   44.1042   57.4202 O   0  0  0  0  0  0  0  0  0  0  0  0
   69.1006   43.4326   56.8564 C   0  0  0  0  0  0  0  0  0  0  0  0
   68.1457   44.0999   56.0418 N   0  0  0  0  0  0  0  0  0  0  0  0
   68.1533   45.4789   55.8303 N   0  0  0  0  0  0  0  0  0  0  0  0
   68.3167   46.0319   54.5318 C   0  0  0  0  0  0  0  0  0  0  0  0
   67.7453   45.3364   53.4814 C   0  0  0  0  0  0  0  0  0  0  0  0
   67.8925   45.8540   52.2143 C   0  0  0  0  0  0  0  0  0  0  0  0
   68.5844   47.0252   52.0001 C   0  0  0  0  0  0  0  0  0  0  0  0
   69.1591   47.7250   53.0515 C   0  0  0  0  0  0  0  0  0  0  0  0
   69.0139   47.2062   54.3366 C   0  0  0  0  0  0  0  0  0  0  0  0
   71.0086   41.0622   58.9335 S   0  0  0  0  0  0  0  0  0  0  0  0
   72.0963   41.4928   57.9859 O   0  0  0  0  0  0  0  0  0  0  0  0
   71.3251   41.6412   60.2701 O   0  0  0  0  0  0  0  0  0  0  0  0
   71.0722   39.3204   59.0289 C   0  0  0  0  0  0  0  0  0  0  0  0
   70.4443   38.6219   60.0440 C   0  0  0  0  0  0  0  0  0  0  0  0
   70.4915   37.2491   60.1228 C   0  0  0  0  0  0  0  0  0  0  0  0
   71.1704   36.5044   59.1892 C   0  0  0  0  0  0  0  0  0  0  0  0
   71.2457   34.7478   59.2681 Cl  0  0  0  0  0  0  0  0  0  0  0  0
   71.7984   37.2053   58.1739 C   0  0  0  0  0  0  0  0  0  0  0  0
   72.6649   36.2707   56.9798 Cl  0  0  0  0  0  0  0  0  0  0  0  0
   71.7554   38.5782   58.0877 C   0  0  0  0  0  0  0  0  0  0  0  0
  7  8  2  0
  8  9  1  0
  1  8  1  1
  9 10  1  0
 10 11  1  0
 11 12  2  0
 11 16  1  0
 12 13  1  0
 13 14  2  0
 14 15  1  0
 15 16  2  0
  1  2  1  0
  1  6  1  0
  2  3  1  0
  3  4  1  0
  4  5  2  0
  4  6  1  0
  6 17  1  0
 17 18  2  0
 17 19  2  0
 17 20  1  0
 20 21  2  0
 20 27  1  0
 21 22  1  0
 22 23  2  0
 23 24  1  0
 23 25  1  0
 25 26  1  0
 25 27  2  0
M  END
>  <minimizedAffinity>  (195) 
-8.93029

$$$$
data/200k_reference_output/data/smiles/74795.pdb
     RDKit          3D

 29 31  0  0  0  0  0  0  0  0999 V2000
   68.4213   45.9881   54.2183 C   0  0  0  0  0  0  0  0  0  0  0  0
   67.7891   45.4949   53.0958 C   0  0  0  0  0  0  0  0  0  0  0  0
   67.8398   46.1668   51.8702 C   0  0  0  0  0  0  0  0  0  0  0  0
   68.5377   47.3520   51.7750 C   0  0  0  0  0  0  0  0  0  0  0  0
   69.1793   47.8707   52.8782 C   0  0  0  0  0  0  0  0  0  0  0  0
   69.1049   47.1685   54.0890 C   0  0  0  0  0  0  0  0  0  0  0  0
   68.0470   43.8654   55.5810 N   0  0  0  0  0  0  0  0  0  0  0  0
   68.3332   45.2459   55.4682 C   0  0  0  0  0  0  0  0  0  0  0  0
   68.5203   45.8507   56.5630 O   0  0  0  0  0  0  0  0  0  0  0  0
   66.7580   41.5194   55.5672 C   0  0  0  0  0  0  0  0  0  0  0  0
   67.3527   42.0516   56.8186 C   0  0  0  0  0  0  0  0  0  0  0  0
   67.9693   43.1846   56.7996 N   0  0  0  0  0  0  0  0  0  0  0  0
   67.2191   41.2682   58.0384 C   0  0  0  0  0  0  0  0  0  0  0  0
   66.3986   41.6834   59.0631 C   0  0  0  0  0  0  0  0  0  0  0  0
   66.2616   40.9452   60.2338 C   0  0  0  0  0  0  0  0  0  0  0  0
   66.9521   39.7565   60.4094 C   0  0  0  0  0  0  0  0  0  0  0  0
   67.7741   39.3388   59.3842 C   0  0  0  0  0  0  0  0  0  0  0  0
   68.6549   37.8422   59.5844 Cl  0  0  0  0  0  0  0  0  0  0  0  0
   67.9060   40.0749   58.2256 C   0  0  0  0  0  0  0  0  0  0  0  0
   68.7138   39.6807   57.1999 F   0  0  0  0  0  0  0  0  0  0  0  0
   70.0796   49.3676   52.8242 S   0  0  0  0  0  0  0  0  0  0  0  0
   71.5512   48.9893   52.7297 O   0  0  0  0  0  0  0  0  0  0  0  0
   69.7469   50.0539   51.5322 O   0  0  0  0  0  0  0  0  0  0  0  0
   69.8592   50.3647   54.1451 N   0  0  0  0  0  0  0  0  0  0  0  0
   68.7853   51.2557   54.1256 C   0  0  0  0  0  0  0  0  0  0  0  0
   68.9461   52.5044   54.9349 C   0  0  0  0  0  0  0  0  0  0  0  0
   69.6712   52.2778   56.1201 O   0  0  0  0  0  0  0  0  0  0  0  0
   70.9590   51.9066   55.6924 C   0  0  0  0  0  0  0  0  0  0  0  0
   70.9235   50.5627   55.0246 C   0  0  0  0  0  0  0  0  0  0  0  0
 10 11  1  0
 11 12  2  0
 11 13  1  0
 12  7  1  0
  7  8  1  0
  8  9  2  0
  8  1  1  0
  1  2  2  0
  1  6  1  0
  2  3  1  0
  3  4  2  0
  4  5  1  0
  5 21  1  0
  5  6  2  0
 21 22  2  0
 21 23  2  0
 21 24  1  0
 24 25  1  0
 24 29  1  0
 25 26  1  0
 26 27  1  0
 27 28  1  0
 28 29  1  0
 13 14  2  0
 13 19  1  0
 14 15  1  0
 15 16  2  0
 16 17  1  0
 17 18  1  0
 17 19  2  0
 19 20  1  0
M  END
>  <minimizedAffinity>  (196) 
-8.92995

$$$$
data/reference_output_2/data/smiles/168886.pdb
     RDKit          3D

 28 31  0  0  0  0  0  0  0  0999 V2000
   68.8734   45.7831   56.1084 C   0  0  0  0  0  0  0  0  0  0  0  0
   68.7805   44.4094   56.1478 C   0  0  0  0  0  0  0  0  0  0  0  0
   69.5020   43.6377   57.0306 C   0  0  0  0  0  0  0  0  0  0  0  0
   70.3782   44.2517   57.9412 C   0  0  0  0  0  0  0  0  0  0  0  0
   70.4693   45.6225   57.9006 C   0  0  0  0  0  0  0  0  0  0  0  0
   69.7293   46.4010   56.9966 C   0  0  0  0  0  0  0  0  0  0  0  0
   68.1551   46.5340   55.2297 O   0  0  0  0  0  0  0  0  0  0  0  0
   71.3338   50.5055   53.6298 O   0  0  0  0  0  0  0  0  0  0  0  0
   70.5628   49.5160   53.3527 C   0  0  0  0  0  0  0  0  0  0  0  0
   70.2803   49.1091   52.1067 N   0  0  0  0  0  0  0  0  0  0  0  0
   69.4449   48.0508   52.1888 C   0  0  0  0  0  0  0  0  0  0  0  0
   68.8606   47.2754   51.2296 N   0  0  0  0  0  0  0  0  0  0  0  0
   68.0512   46.2635   51.5838 C   0  0  0  0  0  0  0  0  0  0  0  0
   67.8121   46.0114   52.9192 C   0  0  0  0  0  0  0  0  0  0  0  0
   68.3818   46.7694   53.9106 C   0  0  0  0  0  0  0  0  0  0  0  0
   69.2231   47.8208   53.5171 C   0  0  0  0  0  0  0  0  0  0  0  0
   69.9179   48.7299   54.2137 N   0  0  0  0  0  0  0  0  0  0  0  0
   71.1009   43.4251   58.8103 N   0  0  0  0  0  0  0  0  0  0  0  0
   72.3649   42.3516   58.4566 S   0  0  0  0  0  0  0  0  0  0  0  0
   72.8498   42.5402   57.0413 O   0  0  0  0  0  0  0  0  0  0  0  0
   73.5497   42.5237   59.3670 O   0  0  0  0  0  0  0  0  0  0  0  0
   71.8627   40.6612   58.5591 C   0  0  0  0  0  0  0  0  0  0  0  0
   72.7951   39.7037   58.8883 C   0  0  0  0  0  0  0  0  0  0  0  0
   72.3999   38.3924   58.9668 C   0  0  0  0  0  0  0  0  0  0  0  0
   71.1073   37.9791   58.7316 C   0  0  0  0  0  0  0  0  0  0  0  0
   70.7302   36.6691   58.8136 F   0  0  0  0  0  0  0  0  0  0  0  0
   70.2056   38.9751   58.4048 C   0  0  0  0  0  0  0  0  0  0  0  0
   70.5679   40.2903   58.3177 C   0  0  0  0  0  0  0  0  0  0  0  0
  8  9  2  0
  9 10  1  0
  9 17  1  0
 10 11  1  0
 11 12  2  0
 11 16  1  0
 12 13  1  0
 13 14  2  0
 14 15  1  0
 15  7  1  0
 15 16  2  0
  7  1  1  0
  1  2  2  0
  1  6  1  0
  2  3  1  0
  3  4  2  0
  4 18  1  0
  4  5  1  0
 18 19  1  0
 19 20  2  0
 19 21  2  0
 19 22  1  0
 22 23  2  0
 22 28  1  0
 23 24  1  0
 24 25  2  0
 25 26  1  0
 25 27  1  0
 27 28  2  0
  5  6  2  0
 16 17  1  0
M  CHG  1  10   1
M  END
>  <minimizedAffinity>  (197) 
-8.92770

$$$$
data/200k_reference_output/data/smiles/84639.pdb
     RDKit          3D

 33 36  0  0  0  0  0  0  0  0999 V2000
   71.6381   47.5651   59.4038 C   0  0  2  0  0  0  0  0  0  0  0  0
   72.9788   48.3066   59.5434 C   0  0  0  0  0  0  0  0  0  0  0  0
   73.7187   47.7757   58.3189 C   0  0  2  0  0  0  0  0  0  0  0  0
   73.1417   48.3921   57.1381 N   0  0  0  0  0  0  0  0  0  0  0  0
   73.3286   46.3321   58.3331 C   0  0  0  0  0  0  0  0  0  0  0  0
   71.9780   46.3071   58.8090 N   0  0  0  0  0  0  0  0  0  0  0  0
   71.1123   45.1887   58.7078 C   0  0  0  0  0  0  0  0  0  0  0  0
   69.9246   45.2449   59.1647 O   0  0  0  0  0  0  0  0  0  0  0  0
   71.5564   43.9763   58.0900 N   0  0  0  0  0  0  0  0  0  0  0  0
   70.7308   42.8296   57.9635 C   0  0  0  0  0  0  0  0  0  0  0  0
   70.9208   41.5916   58.5386 C   0  0  0  0  0  0  0  0  0  0  0  0
   69.9065   40.7658   58.1722 N   0  0  0  0  0  0  0  0  0  0  0  0
   69.7674   39.4082   58.5734 C   0  0  0  0  0  0  0  0  0  0  0  0
   70.7224   38.7963   59.4250 N   0  0  0  0  0  0  0  0  0  0  0  0
   68.7895   38.7288   58.1775 O   0  0  0  0  0  0  0  0  0  0  0  0
   69.0518   41.4284   57.3678 C   0  0  0  0  0  0  0  0  0  0  0  0
   67.8827   41.0788   56.7255 C   0  0  0  0  0  0  0  0  0  0  0  0
   67.1998   41.9884   55.9452 C   0  0  0  0  0  0  0  0  0  0  0  0
   67.7304   43.2552   55.8339 C   0  0  0  0  0  0  0  0  0  0  0  0
   68.8955   43.6486   56.4580 C   0  0  0  0  0  0  0  0  0  0  0  0
   69.5498   42.7061   57.2314 C   0  0  0  0  0  0  0  0  0  0  0  0
   70.0247   47.9299   57.4600 N   0  0  0  0  0  0  0  0  0  0  0  0
   70.8052   48.4386   58.5146 C   0  0  0  0  0  0  0  0  0  0  0  0
   70.8244   49.6660   58.7394 O   0  0  0  0  0  0  0  0  0  0  0  0
   69.1829   48.5987   56.5401 C   0  0  0  0  0  0  0  0  0  0  0  0
   69.6386   50.2945   54.6870 C   0  0  0  0  0  0  0  0  0  0  0  0
   69.7307   48.9023   55.1961 C   0  0  2  0  0  0  0  0  0  0  0  0
   69.1788   47.9240   54.1936 C   0  0  0  0  0  0  0  0  0  0  0  0
   68.3380   46.9043   54.5885 C   0  0  0  0  0  0  0  0  0  0  0  0
   67.8370   46.0013   53.6717 C   0  0  0  0  0  0  0  0  0  0  0  0
   68.1765   46.1131   52.3395 C   0  0  0  0  0  0  0  0  0  0  0  0
   69.0171   47.1283   51.9285 C   0  0  0  0  0  0  0  0  0  0  0  0
   69.5089   48.0246   52.8651 C   0  0  0  0  0  0  0  0  0  0  0  0
 27 26  1  6
 27 25  1  0
 27 28  1  0
 25 22  1  0
 22 23  1  0
 23 24  2  0
  1 23  1  6
  1  2  1  0
  1  6  1  0
  2  3  1  0
  3  4  1  6
  3  5  1  0
  5  6  1  0
  6  7  1  0
  7  8  2  0
  7  9  1  0
  9 10  1  0
 10 11  2  0
 10 21  1  0
 11 12  1  0
 12 13  1  0
 12 16  1  0
 13 14  1  0
 13 15  2  0
 16 17  1  0
 16 21  2  0
 17 18  2  0
 18 19  1  0
 19 20  2  0
 20 21  1  0
 28 29  2  0
 28 33  1  0
 29 30  1  0
 30 31  2  0
 31 32  1  0
 32 33  2  0
M  CHG  1   4   1
M  END
>  <minimizedAffinity>  (198) 
-8.92295

$$$$
data/200k_reference_output/data/smiles/16093.pdb
     RDKit          3D

 31 35  0  0  0  0  0  0  0  0999 V2000
   70.7583   51.8520   55.7525 N   0  0  0  0  0  0  0  0  0  0  0  0
   69.9836   52.2841   54.6575 C   0  0  0  0  0  0  0  0  0  0  0  0
   69.1372   51.0719   54.2102 C   0  0  0  0  0  0  0  0  0  0  0  0
   70.0980   50.0749   53.6997 C   0  0  0  0  0  0  0  0  0  0  0  0
   70.9951   49.6369   54.8296 C   0  0  0  0  0  0  0  0  0  0  0  0
   70.7358   50.4853   56.0500 C   0  0  0  0  0  0  0  0  0  0  0  0
   69.5922   48.9306   53.0288 N   0  0  0  0  0  0  0  0  0  0  0  0
   69.5893   48.7505   51.6807 C   0  0  0  0  0  0  0  0  0  0  0  0
   70.0419   49.5937   50.8635 O   0  0  0  0  0  0  0  0  0  0  0  0
   69.0464   47.5706   51.3609 N   0  0  0  0  0  0  0  0  0  0  0  0
   68.6809   46.9519   52.5213 C   0  0  0  0  0  0  0  0  0  0  0  0
   68.0797   45.7177   52.7559 C   0  0  0  0  0  0  0  0  0  0  0  0
   67.8369   45.3749   54.0685 C   0  0  0  0  0  0  0  0  0  0  0  0
   68.1918   46.2527   55.0989 C   0  0  0  0  0  0  0  0  0  0  0  0
   68.7747   47.4456   54.8469 C   0  0  0  0  0  0  0  0  0  0  0  0
   69.0306   47.8153   53.5298 C   0  0  0  0  0  0  0  0  0  0  0  0
   71.8695   52.6263   56.0844 C   0  0  0  0  0  0  0  0  0  0  0  0
   73.0278   52.4135   55.1485 C   0  0  0  0  0  0  0  0  0  0  0  0
   74.3182   50.2656   54.1508 O   0  0  0  0  0  0  0  0  0  0  0  0
   74.7565   50.6315   55.2696 C   0  0  0  0  0  0  0  0  0  0  0  0
   74.1161   51.7602   55.8478 N   0  0  0  0  0  0  0  0  0  0  0  0
   75.8413   49.9666   55.9576 C   0  0  0  0  0  0  0  0  0  0  0  0
   75.6598   49.4365   57.2200 C   0  0  0  0  0  0  0  0  0  0  0  0
   76.6709   48.7943   57.9232 C   0  0  0  0  0  0  0  0  0  0  0  0
   77.9025   48.6874   57.3249 C   0  0  0  0  0  0  0  0  0  0  0  0
   78.8772   48.0536   58.0430 N   0  0  0  0  0  0  0  0  0  0  0  0
   80.1186   47.9103   57.5238 C   0  0  0  0  0  0  0  0  0  0  0  0
   80.3692   48.4146   56.2703 C   0  0  0  0  0  0  0  0  0  0  0  0
   79.3851   49.0521   55.5503 C   0  0  0  0  0  0  0  0  0  0  0  0
   78.1216   49.2029   56.0687 C   0  0  0  0  0  0  0  0  0  0  0  0
   77.0835   49.8460   55.3790 C   0  0  0  0  0  0  0  0  0  0  0  0
 19 20  2  0
 20 21  1  0
 20 22  1  0
 21 18  1  0
 18 17  1  0
 17  1  1  0
  1  2  1  0
  1  6  1  0
  2  3  1  0
  3  4  1  0
  4  7  1  0
  4  5  1  0
  7  8  1  0
  7 16  1  0
  8  9  2  0
  8 10  1  0
 10 11  1  0
 11 12  1  0
 11 16  2  0
 12 13  2  0
 13 14  1  0
 14 15  2  0
 15 16  1  0
  5  6  1  0
 22 23  2  0
 22 31  1  0
 23 24  1  0
 24 25  2  0
 25 26  1  0
 25 30  1  0
 26 27  2  0
 27 28  1  0
 28 29  2  0
 29 30  1  0
 30 31  2  0
M  CHG  1   1   1
M  END
>  <minimizedAffinity>  (199) 
-8.92140

$$$$
data/200k_reference_output/data/smiles/8733.pdb
     RDKit          3D

 32 35  0  0  0  0  0  0  0  0999 V2000
   74.3627   33.6818   55.5326 O   0  0  0  0  0  0  0  0  0  0  0  0
   73.7542   34.7896   55.6357 C   0  0  0  0  0  0  0  0  0  0  0  0
   73.8886   35.6785   54.5362 N   0  0  0  0  0  0  0  0  0  0  0  0
   74.6568   35.3622   53.3787 C   0  0  0  0  0  0  0  0  0  0  0  0
   74.0166   34.7339   52.3331 C   0  0  0  0  0  0  0  0  0  0  0  0
   74.7024   34.3945   51.1717 C   0  0  0  0  0  0  0  0  0  0  0  0
   76.0458   34.6692   51.0118 C   0  0  0  0  0  0  0  0  0  0  0  0
   76.6770   35.3017   52.0716 C   0  0  0  0  0  0  0  0  0  0  0  0
   75.9945   35.6369   53.2229 C   0  0  0  0  0  0  0  0  0  0  0  0
   76.7473   34.3231   49.8255 N   0  0  0  0  0  0  0  0  0  0  0  0
   77.5501   35.3019   49.1832 C   0  0  0  0  0  0  0  0  0  0  0  0
   77.6545   36.4788   49.6465 O   0  0  0  0  0  0  0  0  0  0  0  0
   78.2908   35.0049   47.9658 C   0  0  0  0  0  0  0  0  0  0  0  0
   77.6686   34.7454   46.7667 C   0  0  0  0  0  0  0  0  0  0  0  0
   78.3590   34.4648   45.6132 C   0  0  0  0  0  0  0  0  0  0  0  0
   79.7398   34.4420   45.6579 C   0  0  0  0  0  0  0  0  0  0  0  0
   80.3674   34.7046   46.8714 C   0  0  0  0  0  0  0  0  0  0  0  0
   79.6446   34.9724   47.9628 N   0  0  0  0  0  0  0  0  0  0  0  0
   72.9810   35.0710   56.8384 C   0  0  0  0  0  0  0  0  0  0  0  0
   72.6028   34.0887   57.7292 C   0  0  0  0  0  0  0  0  0  0  0  0
   71.8585   34.4377   58.8665 C   0  0  0  0  0  0  0  0  0  0  0  0
   71.4906   35.7430   59.1243 C   0  0  0  0  0  0  0  0  0  0  0  0
   71.8721   36.7249   58.2317 C   0  0  0  0  0  0  0  0  0  0  0  0
   72.6076   36.3627   57.1100 C   0  0  0  0  0  0  0  0  0  0  0  0
   71.5220   38.1346   58.4322 C   0  0  0  0  0  0  0  0  0  0  0  0
   70.2392   38.5749   58.1739 C   0  0  0  0  0  0  0  0  0  0  0  0
   69.9240   39.8763   58.3611 N   0  0  0  0  0  0  0  0  0  0  0  0
   70.8660   40.7378   58.8002 C   0  0  0  0  0  0  0  0  0  0  0  0
   70.5682   41.9501   58.9731 O   0  0  0  0  0  0  0  0  0  0  0  0
   72.1262   40.3676   59.0669 N   0  0  0  0  0  0  0  0  0  0  0  0
   72.4373   39.0634   58.8787 C   0  0  0  0  0  0  0  0  0  0  0  0
   73.6072   38.6236   59.1061 O   0  0  0  0  0  0  0  0  0  0  0  0
  1  2  2  0
  2  3  1  0
  2 19  1  0
  3  4  1  0
  4  5  2  0
  4  9  1  0
  5  6  1  0
  6  7  2  0
  7 10  1  0
  7  8  1  0
 10 11  1  0
 11 12  2  0
 11 13  1  0
 13 14  2  0
 13 18  1  0
 14 15  1  0
 15 16  2  0
 16 17  1  0
 17 18  2  0
  8  9  2  0
 19 20  2  0
 19 24  1  0
 20 21  1  0
 21 22  2  0
 22 23  1  0
 23 25  1  0
 23 24  2  0
 25 26  2  0
 25 31  1  0
 26 27  1  0
 27 28  1  0
 28 29  2  0
 28 30  1  0
 30 31  1  0
 31 32  2  0
M  END
>  <minimizedAffinity>  (200) 
-8.92000

$$$$
data/200k_reference_output/data/smiles/20284.pdb
     RDKit          3D

 29 32  0  0  0  0  0  0  0  0999 V2000
   67.9973   45.5961   54.0372 C   0  0  0  0  0  0  0  0  0  0  0  0
   68.2529   45.8943   52.6907 C   0  0  0  0  0  0  0  0  0  0  0  0
   68.9098   47.0456   52.3213 C   0  0  0  0  0  0  0  0  0  0  0  0
   69.3554   47.9715   53.2432 C   0  0  0  0  0  0  0  0  0  0  0  0
   69.1091   47.6868   54.5700 C   0  0  0  0  0  0  0  0  0  0  0  0
   68.4441   46.5226   54.9465 C   0  0  0  0  0  0  0  0  0  0  0  0
   70.1802   49.4264   52.7165 S   0  0  0  0  0  0  0  0  0  0  0  0
   71.6715   49.1202   52.7555 O   0  0  0  0  0  0  0  0  0  0  0  0
   69.8246   49.7557   51.2907 O   0  0  0  0  0  0  0  0  0  0  0  0
   69.8579   50.7552   53.7864 C   0  0  0  0  0  0  0  0  0  0  0  0
   68.5783   51.1755   54.0295 C   0  0  0  0  0  0  0  0  0  0  0  0
   68.3456   52.2474   54.8965 C   0  0  0  0  0  0  0  0  0  0  0  0
   69.4033   52.8835   55.5067 C   0  0  0  0  0  0  0  0  0  0  0  0
   70.6850   52.4729   55.2732 C   0  0  0  0  0  0  0  0  0  0  0  0
   70.8960   51.4011   54.4045 C   0  0  0  0  0  0  0  0  0  0  0  0
   67.2720   44.3502   54.4000 C   0  0  0  0  0  0  0  0  0  0  0  0
   71.4454   37.2432   58.7677 N   0  0  0  0  0  0  0  0  0  0  0  0
   71.0188   38.5835   58.5434 C   0  0  0  0  0  0  0  0  0  0  0  0
   69.6827   38.8688   58.3424 C   0  0  0  0  0  0  0  0  0  0  0  0
   69.2119   40.1424   58.1217 C   0  0  0  0  0  0  0  0  0  0  0  0
   70.1270   41.1695   58.1023 C   0  0  0  0  0  0  0  0  0  0  0  0
   71.4609   40.8890   58.3021 C   0  0  0  0  0  0  0  0  0  0  0  0
   71.8940   39.6257   58.5174 N   0  0  0  0  0  0  0  0  0  0  0  0
   69.3595   42.4168   57.8465 C   0  0  0  0  0  0  0  0  0  0  0  0
   68.1814   41.9151   57.2033 N   0  0  0  0  0  0  0  0  0  0  0  0
   67.5055   42.4959   56.1264 C   0  0  0  0  0  0  0  0  0  0  0  0
   66.4814   41.9318   55.6809 O   0  0  0  0  0  0  0  0  0  0  0  0
   67.9224   43.7089   55.5015 N   0  0  0  0  0  0  0  0  0  0  0  0
   67.8351   40.7003   57.8799 C   0  0  0  0  0  0  0  0  0  0  0  0
 17 18  1  0
 18 19  2  0
 18 23  1  0
 19 20  1  0
 20 21  2  0
 20 29  1  0
 21 22  1  0
 21 24  1  0
 22 23  2  0
 24 25  1  0
 25 26  1  0
 25 29  1  0
 26 27  2  0
 26 28  1  0
 28 16  1  0
 16  1  1  0
  1  2  2  0
  1  6  1  0
  2  3  1  0
  3  4  2  0
  4  7  1  0
  4  5  1  0
  7  8  2  0
  7  9  2  0
  7 10  1  0
 10 11  2  0
 10 15  1  0
 11 12  1  0
 12 13  2  0
 13 14  1  0
 14 15  2  0
  5  6  2  0
M  END
>  <minimizedAffinity>  (201) 
-8.91870

$$$$
data/200k_reference_output/data/smiles/61800.pdb
     RDKit          3D

 28 30  0  0  0  0  0  0  0  0999 V2000
   68.6933   46.4160   55.4221 C   0  0  0  0  0  0  0  0  0  0  0  0
   67.9336   45.3498   55.1293 N   0  0  0  0  0  0  0  0  0  0  0  0
   67.5152   45.0928   53.8854 C   0  0  0  0  0  0  0  0  0  0  0  0
   67.8553   45.9225   52.8557 C   0  0  0  0  0  0  0  0  0  0  0  0
   67.3433   45.6462   51.2117 Cl  0  0  0  0  0  0  0  0  0  0  0  0
   68.6390   47.0354   53.1113 C   0  0  0  0  0  0  0  0  0  0  0  0
   69.0138   47.9075   52.1176 C   0  0  0  0  0  0  0  0  0  0  0  0
   69.8003   49.0073   52.4288 C   0  0  0  0  0  0  0  0  0  0  0  0
   70.2159   49.2460   53.7203 C   0  0  0  0  0  0  0  0  0  0  0  0
   69.8305   48.3640   54.6975 C   0  0  0  0  0  0  0  0  0  0  0  0
   69.0444   47.2548   54.4117 C   0  0  0  0  0  0  0  0  0  0  0  0
   69.6296   44.3971   56.9727 N   0  0  0  0  0  0  0  0  0  0  0  0
   69.5664   45.7162   57.4790 C   0  0  0  0  0  0  0  0  0  0  0  0
   70.0067   45.9321   58.8093 N   0  0  0  0  0  0  0  0  0  0  0  0
   69.1232   46.6672   56.7420 N   0  0  0  0  0  0  0  0  0  0  0  0
   71.2013   50.6244   54.1095 S   0  0  0  0  0  0  0  0  0  0  0  0
   72.6403   50.2540   53.8569 O   0  0  0  0  0  0  0  0  0  0  0  0
   70.9078   51.8039   53.2479 O   0  0  0  0  0  0  0  0  0  0  0  0
   70.9770   51.0064   55.7976 N   0  0  0  0  0  0  0  0  0  0  0  0
   69.7283   50.8604   56.4567 C   0  0  0  0  0  0  0  0  0  0  0  0
   68.6198   51.5079   55.9355 C   0  0  0  0  0  0  0  0  0  0  0  0
   67.4211   51.3920   56.5860 C   0  0  0  0  0  0  0  0  0  0  0  0
   67.2607   50.6589   57.7376 C   0  0  0  0  0  0  0  0  0  0  0  0
   68.3660   50.0283   58.2324 C   0  0  0  0  0  0  0  0  0  0  0  0
   69.6124   50.1158   57.6063 C   0  0  0  0  0  0  0  0  0  0  0  0
   70.7296   49.3714   58.2114 C   0  0  0  0  0  0  0  0  0  0  0  0
   70.8587   49.3790   59.4661 O   0  0  0  0  0  0  0  0  0  0  0  0
   71.6580   48.6539   57.4940 O   0  0  0  0  0  0  0  0  0  0  0  0
 12 13  1  0
 13 14  1  0
 13 15  2  0
 15  1  1  0
  1  2  2  0
  1 11  1  0
  2  3  1  0
  3  4  2  0
  4  5  1  0
  4  6  1  0
  6  7  1  0
  6 11  2  0
  7  8  2  0
  8  9  1  0
  9 16  1  0
  9 10  2  0
 16 17  2  0
 16 18  2  0
 16 19  1  0
 19 20  1  0
 20 21  2  0
 20 25  1  0
 21 22  1  0
 22 23  2  0
 23 24  1  0
 24 25  2  0
 25 26  1  0
 26 27  2  0
 26 28  1  0
 10 11  1  0
M  CHG  1  15   1
M  END
>  <minimizedAffinity>  (202) 
-8.91630

$$$$
data/200k_reference_output/data/smiles/76586.pdb
     RDKit          3D

 29 32  0  0  0  0  0  0  0  0999 V2000
   67.6343   42.3800   56.9438 C   0  0  0  0  0  0  0  0  0  0  0  0
   66.3774   42.2737   56.9721 O   0  0  0  0  0  0  0  0  0  0  0  0
   68.3958   41.4362   57.6217 N   0  0  0  0  0  0  0  0  0  0  0  0
   69.8289   41.5297   57.6231 C   0  0  0  0  0  0  0  0  0  0  0  0
   70.4754   40.4866   58.5069 C   0  0  0  0  0  0  0  0  0  0  0  0
   69.8875   39.1975   58.3883 N   0  0  0  0  0  0  0  0  0  0  0  0
   68.5132   39.0296   58.0059 C   0  0  0  0  0  0  0  0  0  0  0  0
   67.7847   40.3403   58.3263 C   0  0  0  0  0  0  0  0  0  0  0  0
   70.6352   37.9984   58.6542 C   0  0  0  0  0  0  0  0  0  0  0  0
   70.2305   37.1362   59.6220 C   0  0  0  0  0  0  0  0  0  0  0  0
   70.9348   35.9606   59.9165 C   0  0  0  0  0  0  0  0  0  0  0  0
   72.0604   35.6935   59.1942 C   0  0  0  0  0  0  0  0  0  0  0  0
   72.9416   34.2052   59.5755 Cl  0  0  0  0  0  0  0  0  0  0  0  0
   72.5026   36.5310   58.2125 C   0  0  0  0  0  0  0  0  0  0  0  0
   71.7792   37.6795   57.9553 C   0  0  0  0  0  0  0  0  0  0  0  0
   67.5110   44.0670   55.0756 N   0  0  0  0  0  0  0  0  0  0  0  0
   68.1826   43.5122   56.1813 C   0  0  0  0  0  0  0  0  0  0  0  0
   69.2817   44.0074   56.5183 O   0  0  0  0  0  0  0  0  0  0  0  0
   69.8320   50.4707   51.4663 O   0  0  0  0  0  0  0  0  0  0  0  0
   69.7670   49.4390   52.1258 C   0  0  0  0  0  0  0  0  0  0  0  0
   70.3551   49.3797   53.5052 C   0  0  0  0  0  0  0  0  0  0  0  0
   69.5375   48.5554   54.4231 C   0  0  0  0  0  0  0  0  0  0  0  0
   68.9199   47.3427   53.8456 C   0  0  0  0  0  0  0  0  0  0  0  0
   68.5205   46.2971   54.6997 C   0  0  0  0  0  0  0  0  0  0  0  0
   67.9308   45.1526   54.2628 C   0  0  0  0  0  0  0  0  0  0  0  0
   67.7369   45.0737   52.8705 C   0  0  0  0  0  0  0  0  0  0  0  0
   68.1224   46.0892   52.0293 C   0  0  0  0  0  0  0  0  0  0  0  0
   68.7203   47.2407   52.4988 C   0  0  0  0  0  0  0  0  0  0  0  0
   69.1332   48.2787   51.5955 N   0  0  0  0  0  0  0  0  0  0  0  0
 19 20  2  0
 20 21  1  0
 20 29  1  0
 21 22  1  0
 22 23  1  0
 23 24  1  0
 23 28  2  0
 24 25  2  0
 25 16  1  0
 25 26  1  0
 16 17  1  0
 17 18  2  0
 17  1  1  0
  1  2  2  0
  1  3  1  0
  3  4  1  0
  3  8  1  0
  4  5  1  0
  5  6  1  0
  6  9  1  0
  6  7  1  0
  9 10  2  0
  9 15  1  0
 10 11  1  0
 11 12  2  0
 12 13  1  0
 12 14  1  0
 14 15  2  0
  7  8  1  0
 26 27  2  0
 27 28  1  0
 28 29  1  0
M  END
>  <minimizedAffinity>  (203) 
-8.91574

$$$$
data/200k_reference_output/data/smiles/67866.pdb
     RDKit          3D

 28 31  0  0  0  0  0  0  0  0999 V2000
   70.8820   44.6930   58.0269 C   0  0  0  0  0  0  0  0  0  0  0  0
   69.9676   45.5553   57.5125 C   0  0  0  0  0  0  0  0  0  0  0  0
   69.9796   46.9377   57.7148 C   0  0  0  0  0  0  0  0  0  0  0  0
   71.0052   47.4217   58.4935 C   0  0  0  0  0  0  0  0  0  0  0  0
   71.1024   49.1423   58.8173 Cl  0  0  0  0  0  0  0  0  0  0  0  0
   71.9741   46.5747   59.0470 C   0  0  0  0  0  0  0  0  0  0  0  0
   71.8925   45.2151   58.8002 C   0  0  0  0  0  0  0  0  0  0  0  0
   72.8281   44.3843   59.3610 F   0  0  0  0  0  0  0  0  0  0  0  0
   68.8874   41.9759   57.2718 C   0  0  1  0  0  0  0  0  0  0  0  0
   69.6505   43.0617   56.9791 O   0  0  0  0  0  0  0  0  0  0  0  0
   70.7891   43.2197   57.7287 C   0  0  2  0  0  0  0  0  0  0  0  0
   70.7598   42.3590   58.9319 C   0  0  2  0  0  0  0  0  0  0  0  0
   70.9772   41.0278   58.5011 O   0  0  0  0  0  0  0  0  0  0  0  0
   69.4315   42.4508   59.6170 C   0  0  1  0  0  0  0  0  0  0  0  0
   69.1368   43.7886   59.8736 O   0  0  0  0  0  0  0  0  0  0  0  0
   68.3884   41.9054   58.6862 C   0  0  2  0  0  0  0  0  0  0  0  0
   68.2049   40.5562   59.0693 O   0  0  0  0  0  0  0  0  0  0  0  0
   67.5716   43.4220   55.8581 O   0  0  0  0  0  0  0  0  0  0  0  0
   67.6097   42.1221   56.4168 C   0  0  0  0  0  0  0  0  0  0  0  0
   68.9224   47.7556   57.0825 C   0  0  0  0  0  0  0  0  0  0  0  0
   68.8840   47.6187   55.5909 C   0  0  0  0  0  0  0  0  0  0  0  0
   69.5408   48.4756   54.7391 C   0  0  0  0  0  0  0  0  0  0  0  0
   69.5052   48.3250   53.3705 C   0  0  0  0  0  0  0  0  0  0  0  0
   68.7850   47.2743   52.7895 C   0  0  0  0  0  0  0  0  0  0  0  0
   68.1269   46.4135   53.6061 C   0  0  0  0  0  0  0  0  0  0  0  0
   68.1840   46.5942   54.9951 C   0  0  0  0  0  0  0  0  0  0  0  0
   67.6166   45.6164   52.4832 C   0  0  0  0  0  0  0  0  0  0  0  0
   68.3282   46.5457   51.5864 C   0  0  0  0  0  0  0  0  0  0  0  0
 18 19  1  0
  9 19  1  6
  9 10  1  0
  9 16  1  0
 10 11  1  0
 11  1  1  1
 11 12  1  0
  1  2  2  0
  1  7  1  0
  2  3  1  0
  3 20  1  0
  3  4  2  0
 20 21  1  0
 21 22  2  0
 21 26  1  0
 22 23  1  0
 23 24  2  0
 24 25  1  0
 24 28  1  0
 25 26  2  0
 25 27  1  0
 27 28  1  0
  4  5  1  0
  4  6  1  0
  6  7  2  0
  7  8  1  0
 12 13  1  6
 12 14  1  0
 14 15  1  6
 14 16  1  0
 16 17  1  1
M  END
>  <minimizedAffinity>  (204) 
-8.91528

$$$$
data/reference_output_2/data/smiles/188530.pdb
     RDKit          3D

 30 34  0  0  0  0  0  0  0  0999 V2000
   69.1538   41.2902   57.7286 C   0  0  0  0  0  0  0  0  0  0  0  0
   68.0612   41.0223   56.8990 C   0  0  0  0  0  0  0  0  0  0  0  0
   67.5107   41.9754   56.0584 C   0  0  0  0  0  0  0  0  0  0  0  0
   68.0278   43.2387   56.0088 C   0  0  0  0  0  0  0  0  0  0  0  0
   67.7374   44.3717   55.3200 N   0  0  0  0  0  0  0  0  0  0  0  0
   68.5816   45.3469   55.6634 C   0  0  0  0  0  0  0  0  0  0  0  0
   69.4167   44.8069   56.5869 N   0  0  0  0  0  0  0  0  0  0  0  0
   69.1018   43.5107   56.8216 C   0  0  0  0  0  0  0  0  0  0  0  0
   69.6646   42.5590   57.6734 C   0  0  0  0  0  0  0  0  0  0  0  0
   68.6632   46.7387   55.1921 C   0  0  0  0  0  0  0  0  0  0  0  0
   68.5895   47.7867   56.1067 C   0  0  0  0  0  0  0  0  0  0  0  0
   68.4358   47.4545   57.4885 N   0  0  0  0  0  0  0  0  0  0  0  0
   68.6600   49.1119   55.7340 C   0  0  0  0  0  0  0  0  0  0  0  0
   68.5869   50.1446   56.6450 C   0  0  0  0  0  0  0  0  0  0  0  0
   68.6582   51.4645   56.2556 C   0  0  0  0  0  0  0  0  0  0  0  0
   68.5881   52.4921   57.1349 F   0  0  0  0  0  0  0  0  0  0  0  0
   68.8058   51.7497   54.9166 C   0  0  0  0  0  0  0  0  0  0  0  0
   68.8816   53.0369   54.4812 F   0  0  0  0  0  0  0  0  0  0  0  0
   68.8798   50.7181   53.9945 C   0  0  0  0  0  0  0  0  0  0  0  0
   68.8083   49.3828   54.3904 C   0  0  0  0  0  0  0  0  0  0  0  0
   68.8787   48.3819   53.5020 N   0  0  0  0  0  0  0  0  0  0  0  0
   68.8103   47.0665   53.8737 C   0  0  0  0  0  0  0  0  0  0  0  0
   68.8816   46.1598   53.0047 O   0  0  0  0  0  0  0  0  0  0  0  0
   72.0536   37.3007   58.0908 C   0  0  0  0  0  0  0  0  0  0  0  0
   71.3355   38.1007   59.0820 N   0  0  0  0  0  0  0  0  0  0  0  0
   71.8180   39.4156   59.0511 C   0  0  0  0  0  0  0  0  0  0  0  0
   70.8335   40.5052   59.4097 C   0  0  0  0  0  0  0  0  0  0  0  0
   69.6728   40.2842   58.5874 N   0  0  0  0  0  0  0  0  0  0  0  0
   69.0597   38.9894   58.7119 C   0  0  0  0  0  0  0  0  0  0  0  0
   69.9548   37.8684   59.0824 C   0  0  0  0  0  0  0  0  0  0  0  0
 24 25  1  0
 25 26  1  0
 25 30  1  0
 26 27  1  0
 27 28  1  0
 28  1  1  0
 28 29  1  0
  1  2  2  0
  1  9  1  0
  2  3  1  0
  3  4  2  0
  4  5  1  0
  4  8  1  0
  5  6  1  0
  6 10  1  0
  6  7  2  0
 10 11  2  0
 10 22  1  0
 11 12  1  0
 11 13  1  0
 13 14  2  0
 13 20  1  0
 14 15  1  0
 15 16  1  0
 15 17  2  0
 17 18  1  0
 17 19  1  0
 19 20  2  0
 20 21  1  0
 21 22  1  0
 22 23  2  0
  7  8  1  0
  8  9  2  0
 29 30  1  0
M  CHG  2   7   1  25   1
M  END
>  <minimizedAffinity>  (205) 
-8.91368

$$$$
data/200k_reference_output/data/smiles/1172.pdb
     RDKit          3D

 28 31  0  0  0  0  0  0  0  0999 V2000
   70.8233   45.8902   58.1306 C   0  0  0  0  0  0  0  0  0  0  0  0
   69.9705   46.5395   57.2768 C   0  0  0  0  0  0  0  0  0  0  0  0
   69.7952   47.9086   57.2108 C   0  0  0  0  0  0  0  0  0  0  0  0
   70.5603   48.6543   58.0946 C   0  0  0  0  0  0  0  0  0  0  0  0
   71.4340   48.0987   58.9783 C   0  0  0  0  0  0  0  0  0  0  0  0
   71.5572   46.7272   58.9879 C   0  0  0  0  0  0  0  0  0  0  0  0
   72.7818   45.9309   60.2252 Br  0  0  0  0  0  0  0  0  0  0  0  0
   69.3599   44.0495   59.7274 O   0  0  0  0  0  0  0  0  0  0  0  0
   70.3046   43.6209   59.0388 C   0  0  0  0  0  0  0  0  0  0  0  0
   71.0410   44.5187   58.2405 N   0  0  0  0  0  0  0  0  0  0  0  0
   70.6519   42.1452   59.0645 C   0  0  1  0  0  0  0  0  0  0  0  0
   71.7650   41.9439   58.0668 C   0  0  0  0  0  0  0  0  0  0  0  0
   72.8575   41.2553   58.8504 C   0  0  0  0  0  0  0  0  0  0  0  0
   72.7176   41.8050   60.1664 N   0  0  0  0  0  0  0  0  0  0  0  0
   71.2832   41.7660   60.3694 C   0  0  0  0  0  0  0  0  0  0  0  0
   68.8603   48.5793   56.2914 C   0  0  0  0  0  0  0  0  0  0  0  0
   69.2657   48.5544   54.9184 N   0  0  0  0  0  0  0  0  0  0  0  0
   70.1195   49.4953   54.4675 C   0  0  0  0  0  0  0  0  0  0  0  0
   70.5618   50.3920   55.2645 O   0  0  0  0  0  0  0  0  0  0  0  0
   70.5689   49.5856   53.2040 N   0  0  0  0  0  0  0  0  0  0  0  0
   70.1803   48.7116   52.2806 C   0  0  0  0  0  0  0  0  0  0  0  0
   70.5601   48.7350   51.0863 O   0  0  0  0  0  0  0  0  0  0  0  0
   69.2993   47.7151   52.6716 C   0  0  0  0  0  0  0  0  0  0  0  0
   68.8485   46.7955   51.7525 C   0  0  0  0  0  0  0  0  0  0  0  0
   67.9615   45.8298   52.1526 C   0  0  0  0  0  0  0  0  0  0  0  0
   67.5215   45.7722   53.4572 C   0  0  0  0  0  0  0  0  0  0  0  0
   67.9767   46.6952   54.3732 C   0  0  0  0  0  0  0  0  0  0  0  0
   68.8553   47.6547   53.9937 C   0  0  0  0  0  0  0  0  0  0  0  0
  8  9  2  0
  9 10  1  0
 11  9  1  1
 10  1  1  0
  1  2  2  0
  1  6  1  0
  2  3  1  0
  3 16  1  0
  3  4  2  0
 16 17  1  0
 17 18  1  0
 17 28  1  0
 18 19  2  0
 18 20  1  0
 20 21  1  0
 21 22  2  0
 21 23  1  0
 23 24  1  0
 23 28  2  0
 24 25  2  0
 25 26  1  0
 26 27  2  0
 27 28  1  0
  4  5  1  0
  5  6  2  0
  6  7  1  0
 11 12  1  0
 11 15  1  0
 12 13  1  0
 13 14  1  0
 14 15  1  0
M  CHG  1  14   1
M  END
>  <minimizedAffinity>  (206) 
-8.91134

$$$$
data/200k_reference_output/data/smiles/48397.pdb
     RDKit          3D

 30 32  0  0  0  0  0  0  0  0999 V2000
   68.4652   38.4190   59.7765 N   0  0  0  0  0  0  0  0  0  0  0  0
   67.8366   38.4924   61.0806 C   0  0  0  0  0  0  0  0  0  0  0  0
   67.5027   39.9751   61.2754 C   0  0  0  0  0  0  0  0  0  0  0  0
   67.6535   40.5730   59.8909 C   0  0  0  0  0  0  0  0  0  0  0  0
   67.7019   39.3546   59.0349 C   0  0  1  0  0  0  0  0  0  0  0  0
   70.1189   38.6946   59.9390 S   0  0  0  0  0  0  0  0  0  0  0  0
   70.5445   38.5923   61.3985 O   0  0  0  0  0  0  0  0  0  0  0  0
   70.5842   40.0348   59.4664 O   0  0  0  0  0  0  0  0  0  0  0  0
   73.1666   34.2923   57.0506 C   0  0  0  0  0  0  0  0  0  0  0  0
   72.4210   35.3760   57.7584 C   0  0  0  0  0  0  0  0  0  0  0  0
   71.6952   35.1102   58.8991 C   0  0  0  0  0  0  0  0  0  0  0  0
   70.9963   36.1023   59.5700 C   0  0  0  0  0  0  0  0  0  0  0  0
   70.9983   37.4066   59.1223 C   0  0  0  0  0  0  0  0  0  0  0  0
   71.7314   37.6617   57.9750 C   0  0  0  0  0  0  0  0  0  0  0  0
   72.4262   36.6771   57.3061 C   0  0  0  0  0  0  0  0  0  0  0  0
   68.1133   39.5833   57.6304 C   0  0  0  0  0  0  0  0  0  0  0  0
   68.4414   40.9827   57.4190 N   0  0  0  0  0  0  0  0  0  0  0  0
   67.8987   41.7787   56.3904 C   0  0  0  0  0  0  0  0  0  0  0  0
   67.0812   41.3089   55.5804 O   0  0  0  0  0  0  0  0  0  0  0  0
   68.3216   43.1820   56.2986 C   0  0  0  0  0  0  0  0  0  0  0  0
   69.0492   43.6604   57.1910 O   0  0  0  0  0  0  0  0  0  0  0  0
   67.9362   44.0182   55.2359 N   0  0  0  0  0  0  0  0  0  0  0  0
   68.2548   45.3632   55.0113 C   0  0  0  0  0  0  0  0  0  0  0  0
   68.7467   46.2444   55.9345 C   0  0  0  0  0  0  0  0  0  0  0  0
   69.0384   47.5791   55.6170 C   0  0  0  0  0  0  0  0  0  0  0  0
   68.8430   48.0676   54.3578 C   0  0  0  0  0  0  0  0  0  0  0  0
   69.1067   49.3433   53.9973 F   0  0  0  0  0  0  0  0  0  0  0  0
   68.3480   47.2001   53.4085 C   0  0  0  0  0  0  0  0  0  0  0  0
   68.0656   45.8937   53.7304 C   0  0  0  0  0  0  0  0  0  0  0  0
   67.5844   45.0902   52.7627 F   0  0  0  0  0  0  0  0  0  0  0  0
  9 10  1  0
 10 11  2  0
 10 15  1  0
 11 12  1  0
 12 13  2  0
 13  6  1  0
 13 14  1  0
  6  7  2  0
  6  8  2  0
  6  1  1  0
  1  2  1  0
  1  5  1  0
  2  3  1  0
  3  4  1  0
  4  5  1  0
  5 16  1  6
 16 17  1  0
 17 18  1  0
 18 19  2  0
 18 20  1  0
 20 21  2  0
 20 22  1  0
 22 23  1  0
 23 24  2  0
 23 29  1  0
 24 25  1  0
 25 26  2  0
 26 27  1  0
 26 28  1  0
 28 29  2  0
 29 30  1  0
 14 15  2  0
M  END
>  <minimizedAffinity>  (207) 
-8.90745

$$$$
data/reference_output_2/data/smiles/92976.pdb
     RDKit          3D

 28 30  0  0  0  0  0  0  0  0999 V2000
   68.2822   46.4939   54.6966 C   0  0  0  0  0  0  0  0  0  0  0  0
   67.8778   45.5685   53.7711 C   0  0  0  0  0  0  0  0  0  0  0  0
   68.0788   45.7787   52.4086 C   0  0  0  0  0  0  0  0  0  0  0  0
   68.6988   46.9496   51.9635 C   0  0  0  0  0  0  0  0  0  0  0  0
   69.0996   47.8720   52.8828 C   0  0  0  0  0  0  0  0  0  0  0  0
   68.8857   47.6270   54.2211 C   0  0  0  0  0  0  0  0  0  0  0  0
   69.7384   49.1647   52.4996 C   0  0  0  0  0  0  0  0  0  0  0  0
   70.1027   49.2731   51.3165 O   0  0  0  0  0  0  0  0  0  0  0  0
   69.8852   50.1492   53.5095 N   0  0  0  0  0  0  0  0  0  0  0  0
   69.4200   50.0218   54.8654 C   0  0  0  0  0  0  0  0  0  0  0  0
   70.6155   50.5954   55.6326 C   0  0  1  0  0  0  0  0  0  0  0  0
   71.6290   49.6642   55.5683 O   0  0  0  0  0  0  0  0  0  0  0  0
   70.9182   51.8284   54.8100 C   0  0  2  0  0  0  0  0  0  0  0  0
   70.0001   52.7916   55.2413 F   0  0  0  0  0  0  0  0  0  0  0  0
   70.5444   51.4197   53.3991 C   0  0  0  0  0  0  0  0  0  0  0  0
   68.0897   46.3085   56.0766 O   0  0  0  0  0  0  0  0  0  0  0  0
   71.0241   46.4112   58.2646 C   0  0  0  0  0  0  0  0  0  0  0  0
   69.9366   46.8356   57.4912 C   0  0  0  0  0  0  0  0  0  0  0  0
   69.1871   45.8868   56.8520 C   0  0  0  0  0  0  0  0  0  0  0  0
   69.5193   44.5942   56.9861 N   0  0  0  0  0  0  0  0  0  0  0  0
   70.5480   44.1672   57.7155 C   0  0  0  0  0  0  0  0  0  0  0  0
   71.3378   45.0856   58.3833 C   0  0  0  0  0  0  0  0  0  0  0  0
   70.9107   42.7275   57.8554 C   0  0  0  0  0  0  0  0  0  0  0  0
   71.1356   42.3642   59.1677 F   0  0  0  0  0  0  0  0  0  0  0  0
   72.0852   42.4657   57.1531 F   0  0  0  0  0  0  0  0  0  0  0  0
   69.9341   41.9339   57.2890 F   0  0  0  0  0  0  0  0  0  0  0  0
   71.5451   47.2936   60.3984 N   0  0  0  0  0  0  0  0  0  0  0  0
   71.8340   47.4301   58.9604 C   0  0  0  0  0  0  0  0  0  0  0  0
 27 28  1  0
 28 17  1  0
 17 18  2  0
 17 22  1  0
 18 19  1  0
 19 16  1  0
 19 20  2  0
 16  1  1  0
  1  2  2  0
  1  6  1  0
  2  3  1  0
  3  4  2  0
  4  5  1  0
  5  7  1  0
  5  6  2  0
  7  8  2  0
  7  9  1  0
  9 10  1  0
  9 15  1  0
 10 11  1  0
 11 12  1  6
 11 13  1  0
 13 14  1  1
 13 15  1  0
 20 21  1  0
 21 23  1  0
 21 22  2  0
 23 24  1  0
 23 25  1  0
 23 26  1  0
M  CHG  1  27   1
M  END
>  <minimizedAffinity>  (208) 
-8.90393

$$$$
data/200k_reference_output/data/smiles/86417.pdb
     RDKit          3D

 32 36  0  0  0  0  0  0  0  0999 V2000
   71.6041   47.1175   59.1012 C   0  0  0  0  0  0  0  0  0  0  0  0
   71.7144   45.7908   58.6816 C   0  0  0  0  0  0  0  0  0  0  0  0
   70.8387   45.2461   57.7702 C   0  0  0  0  0  0  0  0  0  0  0  0
   69.8147   45.9933   57.2342 C   0  0  0  0  0  0  0  0  0  0  0  0
   69.6772   47.3162   57.6320 C   0  0  0  0  0  0  0  0  0  0  0  0
   70.5664   47.8395   58.5462 C   0  0  0  0  0  0  0  0  0  0  0  0
   72.2630   47.5997   61.2742 O   0  0  0  0  0  0  0  0  0  0  0  0
   72.5307   47.7062   60.0561 C   0  0  0  0  0  0  0  0  0  0  0  0
   73.6890   48.3724   59.6076 N   0  0  0  0  0  0  0  0  0  0  0  0
   74.6392   48.9823   60.5211 C   0  0  0  0  0  0  0  0  0  0  0  0
   74.7626   50.4475   60.2157 C   0  0  0  0  0  0  0  0  0  0  0  0
   74.3295   50.7357   58.8939 N   0  0  0  0  0  0  0  0  0  0  0  0
   74.5384   49.7812   57.8260 C   0  0  0  0  0  0  0  0  0  0  0  0
   73.9153   48.4438   58.1711 C   0  0  0  0  0  0  0  0  0  0  0  0
   73.6796   51.9796   58.5645 C   0  0  0  0  0  0  0  0  0  0  0  0
   72.4243   52.0247   58.0062 C   0  0  0  0  0  0  0  0  0  0  0  0
   71.8562   53.2668   57.6996 C   0  0  0  0  0  0  0  0  0  0  0  0
   72.5367   54.4335   57.9493 C   0  0  0  0  0  0  0  0  0  0  0  0
   73.7846   54.3370   58.5071 C   0  0  0  0  0  0  0  0  0  0  0  0
   74.3048   53.1432   58.7897 N   0  0  0  0  0  0  0  0  0  0  0  0
   68.3834   48.3253   56.9629 S   0  0  0  0  0  0  0  0  0  0  0  0
   67.0804   47.6104   56.9589 O   0  0  0  0  0  0  0  0  0  0  0  0
   68.3568   49.5717   57.7757 O   0  0  0  0  0  0  0  0  0  0  0  0
   68.8621   48.7053   55.3502 N   0  0  0  0  0  0  0  0  0  0  0  0
   69.4297   49.9736   54.9310 C   0  0  0  0  0  0  0  0  0  0  0  0
   70.3770   49.5577   53.8285 C   0  0  0  0  0  0  0  0  0  0  0  0
   69.6798   48.3573   53.2649 C   0  0  0  0  0  0  0  0  0  0  0  0
   69.7949   47.7197   52.0493 C   0  0  0  0  0  0  0  0  0  0  0  0
   69.0367   46.6217   51.7683 C   0  0  0  0  0  0  0  0  0  0  0  0
   68.1328   46.1145   52.6862 C   0  0  0  0  0  0  0  0  0  0  0  0
   68.0249   46.7649   53.9072 C   0  0  0  0  0  0  0  0  0  0  0  0
   68.7848   47.8732   54.2007 C   0  0  0  0  0  0  0  0  0  0  0  0
  7  8  2  0
  8  1  1  0
  8  9  1  0
  1  2  2  0
  1  6  1  0
  2  3  1  0
  3  4  2  0
  4  5  1  0
  5 21  1  0
  5  6  2  0
 21 22  2  0
 21 23  2  0
 21 24  1  0
 24 25  1  0
 24 32  1  0
 25 26  1  0
 26 27  1  0
 27 28  1  0
 27 32  2  0
 28 29  2  0
 29 30  1  0
 30 31  2  0
 31 32  1  0
  9 10  1  0
  9 14  1  0
 10 11  1  0
 11 12  1  0
 12 15  1  0
 12 13  1  0
 15 16  2  0
 15 20  1  0
 16 17  1  0
 17 18  2  0
 18 19  1  0
 19 20  2  0
 13 14  1  0
M  END
>  <minimizedAffinity>  (209) 
-8.90236

$$$$
data/200k_reference_output/data/smiles/63324.pdb
     RDKit          3D

 27 29  0  0  0  0  0  0  0  0999 V2000
   69.7000   44.7278   59.3442 O   0  0  0  0  0  0  0  0  0  0  0  0
   70.4671   44.6102   58.3582 C   0  0  0  0  0  0  0  0  0  0  0  0
   70.6461   45.6879   57.4528 N   0  0  0  0  0  0  0  0  0  0  0  0
   71.1972   43.3100   58.1496 C   0  0  0  0  0  0  0  0  0  0  0  0
   70.2144   42.2826   57.8659 N   0  0  0  0  0  0  0  0  0  0  0  0
   69.1274   42.5483   57.0947 C   0  0  0  0  0  0  0  0  0  0  0  0
   68.1756   41.6030   56.8037 C   0  0  0  0  0  0  0  0  0  0  0  0
   68.2924   40.3248   57.2940 C   0  0  0  0  0  0  0  0  0  0  0  0
   69.3960   40.0483   58.0790 C   0  0  0  0  0  0  0  0  0  0  0  0
   69.5721   38.4200   58.7209 Cl  0  0  0  0  0  0  0  0  0  0  0  0
   70.3246   41.0327   58.3422 C   0  0  0  0  0  0  0  0  0  0  0  0
   71.3292   40.7768   59.0581 O   0  0  0  0  0  0  0  0  0  0  0  0
   67.0014   41.9208   55.9620 C   0  0  0  0  0  0  0  0  0  0  0  0
   67.1162   43.1380   55.3213 F   0  0  0  0  0  0  0  0  0  0  0  0
   65.8306   42.0005   56.7233 F   0  0  0  0  0  0  0  0  0  0  0  0
   66.7657   40.9220   55.0267 F   0  0  0  0  0  0  0  0  0  0  0  0
   70.0079   46.9585   57.5417 C   0  0  0  0  0  0  0  0  0  0  0  0
   69.1390   47.3536   56.3830 C   0  0  1  0  0  0  0  0  0  0  0  0
   69.7242   48.5390   55.6612 C   0  0  0  0  0  0  0  0  0  0  0  0
   69.8750   48.3384   54.2883 O   0  0  0  0  0  0  0  0  0  0  0  0
   69.1246   47.4573   53.5315 C   0  0  0  0  0  0  0  0  0  0  0  0
   68.9651   47.6404   52.1536 C   0  0  0  0  0  0  0  0  0  0  0  0
   68.2003   46.7128   51.4776 C   0  0  0  0  0  0  0  0  0  0  0  0
   67.6259   45.6542   52.1617 C   0  0  0  0  0  0  0  0  0  0  0  0
   67.7828   45.4784   53.5046 C   0  0  0  0  0  0  0  0  0  0  0  0
   68.5451   46.3958   54.1965 C   0  0  0  0  0  0  0  0  0  0  0  0
   68.7667   46.3091   55.5605 O   0  0  0  0  0  0  0  0  0  0  0  0
  1  2  2  0
  2  4  1  0
  2  3  1  0
  4  5  1  0
  5  6  1  0
  5 11  1  0
  6  7  2  0
  7 13  1  0
  7  8  1  0
 13 14  1  0
 13 15  1  0
 13 16  1  0
  8  9  2  0
  9 10  1  0
  9 11  1  0
 11 12  2  0
  3 17  1  0
 18 17  1  1
 18 19  1  0
 18 27  1  0
 19 20  1  0
 20 21  1  0
 21 22  2  0
 21 26  1  0
 22 23  1  0
 23 24  2  0
 24 25  1  0
 25 26  2  0
 26 27  1  0
M  END
>  <minimizedAffinity>  (210) 
-8.89949

$$$$
data/200k_reference_output/data/smiles/7422.pdb
     RDKit          3D

 30 33  0  0  0  0  0  0  0  0999 V2000
   68.2522   43.5932   56.0098 C   0  0  0  0  0  0  0  0  0  0  0  0
   67.1977   42.7464   55.6522 C   0  0  0  0  0  0  0  0  0  0  0  0
   67.1106   41.4841   56.0989 N   0  0  0  0  0  0  0  0  0  0  0  0
   68.0210   40.9363   56.9186 C   0  0  0  0  0  0  0  0  0  0  0  0
   67.9306   39.6324   57.3802 C   0  0  0  0  0  0  0  0  0  0  0  0
   68.8985   39.1045   58.2306 C   0  0  0  0  0  0  0  0  0  0  0  0
   69.9730   39.8707   58.6331 C   0  0  0  0  0  0  0  0  0  0  0  0
   70.0469   41.1810   58.1595 C   0  0  0  0  0  0  0  0  0  0  0  0
   69.0880   41.7041   57.3171 C   0  0  0  0  0  0  0  0  0  0  0  0
   69.1770   43.0237   56.8488 C   0  0  0  0  0  0  0  0  0  0  0  0
   70.1561   43.6860   57.2308 O   0  0  0  0  0  0  0  0  0  0  0  0
   68.2362   45.3872   54.1808 N   0  0  0  0  0  0  0  0  0  0  0  0
   68.2949   44.9539   55.4959 C   0  0  0  0  0  0  0  0  0  0  0  0
   68.3999   45.8644   56.3759 O   0  0  0  0  0  0  0  0  0  0  0  0
   68.2526   46.7221   53.6367 C   0  0  2  0  0  0  0  0  0  0  0  0
   68.5758   46.7202   52.1785 C   0  0  0  0  0  0  0  0  0  0  0  0
   69.3051   49.0274   53.6482 C   0  0  0  0  0  0  0  0  0  0  0  0
   69.2270   47.6769   54.3042 C   0  0  0  0  0  0  0  0  0  0  0  0
   71.2185   39.2385   59.7078 S   0  0  0  0  0  0  0  0  0  0  0  0
   72.5420   39.7564   59.2722 O   0  0  0  0  0  0  0  0  0  0  0  0
   70.8688   39.7074   61.0907 O   0  0  0  0  0  0  0  0  0  0  0  0
   71.1454   37.5269   59.6410 N   0  0  0  0  0  0  0  0  0  0  0  0
   70.4262   36.6911   60.5825 C   0  0  0  0  0  0  0  0  0  0  0  0
   71.0294   35.3212   60.4603 C   0  0  0  0  0  0  0  0  0  0  0  0
   71.6965   35.3483   59.1501 C   0  0  0  0  0  0  0  0  0  0  0  0
   72.2161   34.3036   58.4132 C   0  0  0  0  0  0  0  0  0  0  0  0
   72.8088   34.5419   57.1922 C   0  0  0  0  0  0  0  0  0  0  0  0
   72.8620   35.8432   56.7403 C   0  0  0  0  0  0  0  0  0  0  0  0
   72.3432   36.8785   57.4749 C   0  0  0  0  0  0  0  0  0  0  0  0
   71.7480   36.6579   58.6956 C   0  0  0  0  0  0  0  0  0  0  0  0
 17 18  1  0
 18 15  1  0
 15 16  1  6
 15 12  1  0
 12 13  1  0
 13 14  2  0
 13  1  1  0
  1  2  2  0
  1 10  1  0
  2  3  1  0
  3  4  1  0
  4  5  1  0
  4  9  2  0
  5  6  2  0
  6  7  1  0
  7 19  1  0
  7  8  2  0
 19 20  2  0
 19 21  2  0
 19 22  1  0
 22 23  1  0
 22 30  1  0
 23 24  1  0
 24 25  1  0
 25 26  1  0
 25 30  2  0
 26 27  2  0
 27 28  1  0
 28 29  2  0
 29 30  1  0
  8  9  1  0
  9 10  1  0
 10 11  2  0
M  END
>  <minimizedAffinity>  (211) 
-8.89862

$$$$
data/reference_output_2/data/smiles/160297.pdb
     RDKit          3D

 29 31  0  0  0  0  0  0  0  0999 V2000
   69.6613   49.0686   53.4643 C   0  0  0  0  0  0  0  0  0  0  0  0
   69.5527   49.1592   52.0519 C   0  0  0  0  0  0  0  0  0  0  0  0
   69.9604   50.1846   51.4615 O   0  0  0  0  0  0  0  0  0  0  0  0
   69.0347   48.1952   51.3492 O   0  0  0  0  0  0  0  0  0  0  0  0
   68.5901   47.1031   51.8918 C   0  0  0  0  0  0  0  0  0  0  0  0
   68.0582   46.1324   51.0525 O   0  0  0  0  0  0  0  0  0  0  0  0
   68.6438   46.9111   53.2545 C   0  0  0  0  0  0  0  0  0  0  0  0
   68.1586   45.7541   53.7841 C   0  0  0  0  0  0  0  0  0  0  0  0
   68.1999   45.5669   55.1446 C   0  0  0  0  0  0  0  0  0  0  0  0
   68.7246   46.5502   55.9262 C   0  0  0  0  0  0  0  0  0  0  0  0
   69.2362   47.7642   55.4193 C   0  0  0  0  0  0  0  0  0  0  0  0
   69.1994   47.9393   54.0681 C   0  0  0  0  0  0  0  0  0  0  0  0
   69.6187   48.7662   56.3811 C   0  0  0  0  0  0  0  0  0  0  0  0
   68.6783   49.7543   56.6956 C   0  0  0  0  0  0  0  0  0  0  0  0
   68.9754   50.8146   57.5063 C   0  0  0  0  0  0  0  0  0  0  0  0
   70.2462   50.9123   58.0304 C   0  0  0  0  0  0  0  0  0  0  0  0
   71.2114   49.9688   57.7539 C   0  0  0  0  0  0  0  0  0  0  0  0
   70.8710   48.8974   56.9209 C   0  0  0  0  0  0  0  0  0  0  0  0
   72.5652   50.1230   58.3453 C   0  0  0  0  0  0  0  0  0  0  0  0
   72.9434   51.4566   58.3322 F   0  0  0  0  0  0  0  0  0  0  0  0
   72.6117   49.5791   59.6121 F   0  0  0  0  0  0  0  0  0  0  0  0
   73.4595   49.3794   57.5699 F   0  0  0  0  0  0  0  0  0  0  0  0
   71.7591   50.2194   54.1729 N   0  0  0  0  0  0  0  0  0  0  0  0
   70.3158   50.1705   54.1059 C   0  0  0  0  0  0  0  0  0  0  0  0
   69.6994   51.1090   54.6264 O   0  0  0  0  0  0  0  0  0  0  0  0
   72.4664   51.2908   54.8070 C   0  0  0  0  0  0  0  0  0  0  0  0
   74.4017   50.0922   53.9892 O   0  0  0  0  0  0  0  0  0  0  0  0
   73.9226   51.0061   54.7263 C   0  0  0  0  0  0  0  0  0  0  0  0
   74.8378   51.7389   55.4664 O   0  0  0  0  0  0  0  0  0  0  0  0
 27 28  2  0
 28 29  1  0
 28 26  1  0
 26 23  1  0
 23 24  1  0
 24 25  2  0
 24  1  1  0
  1  2  1  0
  1 12  2  0
  2  3  2  0
  2  4  1  0
  4  5  1  0
  5  6  1  0
  5  7  2  0
  7  8  1  0
  7 12  1  0
  8  9  2  0
  9 10  1  0
 10 11  2  0
 11 13  1  0
 11 12  1  0
 13 14  2  0
 13 18  1  0
 14 15  1  0
 15 16  2  0
 16 17  1  0
 17 19  1  0
 17 18  2  0
 19 20  1  0
 19 21  1  0
 19 22  1  0
M  END
>  <minimizedAffinity>  (212) 
-8.89594

$$$$
data/reference_output_2/data/smiles/134117.pdb
     RDKit          3D

 26 27  0  0  0  0  0  0  0  0999 V2000
   69.0406   47.7394   56.8225 S   0  0  0  0  0  0  0  0  0  0  0  0
   69.2563   48.8979   57.7219 O   0  0  0  0  0  0  0  0  0  0  0  0
   67.6157   47.2905   56.9709 O   0  0  0  0  0  0  0  0  0  0  0  0
   70.0353   46.4088   57.4438 C   0  0  0  0  0  0  0  0  0  0  0  0
   69.6628   45.1953   57.1495 C   0  0  0  0  0  0  0  0  0  0  0  0
   70.2479   43.9337   57.4938 C   0  0  0  0  0  0  0  0  0  0  0  0
   71.5576   43.9865   58.0133 C   0  0  0  0  0  0  0  0  0  0  0  0
   72.2598   42.9010   58.4405 C   0  0  0  0  0  0  0  0  0  0  0  0
   71.6877   41.6625   58.3756 C   0  0  0  0  0  0  0  0  0  0  0  0
   70.4238   41.5723   57.8788 C   0  0  0  0  0  0  0  0  0  0  0  0
   69.6947   42.6860   57.4377 C   0  0  0  0  0  0  0  0  0  0  0  0
   68.3440   42.4055   56.9348 C   0  0  0  0  0  0  0  0  0  0  0  0
   68.3826   41.1192   56.3053 F   0  0  0  0  0  0  0  0  0  0  0  0
   68.0849   43.2340   55.8540 F   0  0  0  0  0  0  0  0  0  0  0  0
   67.3660   42.2605   57.8539 F   0  0  0  0  0  0  0  0  0  0  0  0
   69.4411   48.0780   55.1848 N   0  0  0  0  0  0  0  0  0  0  0  0
   69.0977   47.7702   52.8299 C   0  0  0  0  0  0  0  0  0  0  0  0
   68.5711   47.0307   51.8022 C   0  0  0  0  0  0  0  0  0  0  0  0
   67.8578   45.8606   52.0091 C   0  0  0  0  0  0  0  0  0  0  0  0
   67.6887   45.4531   53.3201 C   0  0  0  0  0  0  0  0  0  0  0  0
   68.2016   46.1680   54.3697 C   0  0  0  0  0  0  0  0  0  0  0  0
   68.9024   47.3228   54.1198 C   0  0  0  0  0  0  0  0  0  0  0  0
   69.3607   50.6122   53.2109 N   0  0  0  0  0  0  0  0  0  0  0  0
   69.9722   49.2184   52.4534 S   0  0  0  0  0  0  0  0  0  0  0  0
   71.4098   48.9942   52.9050 O   0  0  0  0  0  0  0  0  0  0  0  0
   70.0304   49.3827   50.9656 O   0  0  0  0  0  0  0  0  0  0  0  0
 23 24  1  0
 24 25  2  0
 24 26  2  0
 24 17  1  0
 17 18  2  0
 17 22  1  0
 18 19  1  0
 19 20  2  0
 20 21  1  0
 21 22  2  0
 22 16  1  0
 16  1  1  0
  1  2  2  0
  1  3  2  0
  1  4  1  0
  4  5  2  0
  5  6  1  0
  6  7  2  0
  6 11  1  0
  7  8  1  0
  8  9  2  0
  9 10  1  0
 10 11  2  0
 11 12  1  0
 12 13  1  0
 12 14  1  0
 12 15  1  0
M  END
>  <minimizedAffinity>  (213) 
-8.89555

$$$$
data/200k_reference_output/data/smiles/78315.pdb
     RDKit          3D

 31 34  0  0  0  0  0  0  0  0999 V2000
   73.4424   35.4730   56.0723 C   0  0  0  0  0  0  0  0  0  0  0  0
   72.7327   35.6091   54.8777 C   0  0  0  0  0  0  0  0  0  0  0  0
   73.3562   35.5949   53.7147 O   0  0  0  0  0  0  0  0  0  0  0  0
   74.6450   35.4620   53.5481 C   0  0  0  0  0  0  0  0  0  0  0  0
   75.2543   35.4424   52.3184 C   0  0  0  0  0  0  0  0  0  0  0  0
   76.6064   35.2919   52.1306 C   0  0  0  0  0  0  0  0  0  0  0  0
   77.3760   35.1598   53.3019 C   0  0  0  0  0  0  0  0  0  0  0  0
   76.7689   35.1803   54.5370 C   0  0  0  0  0  0  0  0  0  0  0  0
   75.4058   35.3281   54.7094 C   0  0  0  0  0  0  0  0  0  0  0  0
   74.7969   35.3361   55.9465 C   0  0  0  0  0  0  0  0  0  0  0  0
   75.5165   35.2128   57.0058 O   0  0  0  0  0  0  0  0  0  0  0  0
   71.1795   35.4077   59.6829 C   0  0  0  0  0  0  0  0  0  0  0  0
   71.4053   36.5651   58.9654 C   0  0  0  0  0  0  0  0  0  0  0  0
   72.1541   36.5513   57.8374 C   0  0  0  0  0  0  0  0  0  0  0  0
   72.7319   35.3800   57.3342 C   0  0  0  0  0  0  0  0  0  0  0  0
   72.5164   34.2229   58.0368 C   0  0  0  0  0  0  0  0  0  0  0  0
   71.7373   34.2237   59.2227 C   0  0  0  0  0  0  0  0  0  0  0  0
   70.3298   35.4879   60.8331 N   0  0  0  0  0  0  0  0  0  0  0  0
   70.4557   37.3887   62.9649 C   0  0  0  0  0  0  0  0  0  0  0  0
   71.0647   35.8011   62.3635 S   0  0  0  0  0  0  0  0  0  0  0  0
   72.5642   35.9611   62.1945 O   0  0  0  0  0  0  0  0  0  0  0  0
   70.7082   34.7350   63.3292 O   0  0  0  0  0  0  0  0  0  0  0  0
   77.2098   35.1920   50.8421 C   0  0  0  0  0  0  0  0  0  0  0  0
   77.7310   35.0887   49.7274 C   0  0  0  0  0  0  0  0  0  0  0  0
   78.3140   34.9694   48.4209 C   0  0  0  0  0  0  0  0  0  0  0  0
   79.6786   34.9201   48.2488 C   0  0  0  0  0  0  0  0  0  0  0  0
   80.2281   34.8045   46.9729 C   0  0  0  0  0  0  0  0  0  0  0  0
   79.4492   34.7395   45.8909 N   0  0  0  0  0  0  0  0  0  0  0  0
   78.1225   34.7856   46.0152 C   0  0  0  0  0  0  0  0  0  0  0  0
   77.3993   34.7246   45.0007 O   0  0  0  0  0  0  0  0  0  0  0  0
   77.5394   34.9008   47.2764 C   0  0  0  0  0  0  0  0  0  0  0  0
 19 20  1  0
 20 21  2  0
 20 22  2  0
 20 18  1  0
 18 12  1  0
 12 13  2  0
 12 17  1  0
 13 14  1  0
 14 15  2  0
 15  1  1  0
 15 16  1  0
  1  2  2  0
  1 10  1  0
  2  3  1  0
  3  4  1  0
  4  5  2  0
  4  9  1  0
  5  6  1  0
  6 23  1  0
  6  7  2  0
 23 24  3  0
 24 25  1  0
 25 26  1  0
 25 31  2  0
 26 27  2  0
 27 28  1  0
 28 29  1  0
 29 30  2  0
 29 31  1  0
  7  8  1  0
  8  9  2  0
  9 10  1  0
 10 11  2  0
 16 17  2  0
M  END
>  <minimizedAffinity>  (214) 
-8.89456

$$$$
data/200k_reference_output/data/smiles/9781.pdb
     RDKit          3D

 30 33  0  0  0  0  0  0  0  0999 V2000
   71.4377   51.3481   58.3430 C   0  0  0  0  0  0  0  0  0  0  0  0
   72.3382   50.2919   57.6897 C   0  0  1  0  0  0  0  0  0  0  0  0
   73.7372   50.5849   58.1082 C   0  0  0  0  0  0  0  0  0  0  0  0
   73.9547   50.2560   59.5679 C   0  0  0  0  0  0  0  0  0  0  0  0
   73.3374   48.9548   59.9277 C   0  0  0  0  0  0  0  0  0  0  0  0
   73.8383   48.3089   61.0368 C   0  0  0  0  0  0  0  0  0  0  0  0
   73.3146   47.0827   61.4327 C   0  0  0  0  0  0  0  0  0  0  0  0
   73.8102   46.4514   62.5227 F   0  0  0  0  0  0  0  0  0  0  0  0
   72.2737   46.5213   60.6865 C   0  0  0  0  0  0  0  0  0  0  0  0
   71.7716   47.1657   59.5788 C   0  0  0  0  0  0  0  0  0  0  0  0
   70.7366   46.6026   58.8422 C   0  0  0  0  0  0  0  0  0  0  0  0
   70.2349   45.3964   59.2471 O   0  0  0  0  0  0  0  0  0  0  0  0
   70.2308   47.2327   57.7426 C   0  0  0  0  0  0  0  0  0  0  0  0
   70.8281   48.4682   57.4232 C   0  0  0  0  0  0  0  0  0  0  0  0
   70.4033   49.0904   56.4240 O   0  0  0  0  0  0  0  0  0  0  0  0
   71.8243   49.0098   58.1336 N   0  0  0  0  0  0  0  0  0  0  0  0
   72.3170   48.3833   59.2138 C   0  0  0  0  0  0  0  0  0  0  0  0
   69.1493   46.7396   56.8967 C   0  0  0  0  0  0  0  0  0  0  0  0
   67.9891   47.2876   57.0088 O   0  0  0  0  0  0  0  0  0  0  0  0
   69.2197   45.7163   55.9512 N   0  0  0  0  0  0  0  0  0  0  0  0
   68.1048   45.2491   55.1244 C   0  0  0  0  0  0  0  0  0  0  0  0
   68.1927   45.8472   53.7551 C   0  0  0  0  0  0  0  0  0  0  0  0
   67.5101   45.3850   52.6614 C   0  0  0  0  0  0  0  0  0  0  0  0
   67.6552   45.9883   51.4107 C   0  0  0  0  0  0  0  0  0  0  0  0
   68.4899   47.0692   51.2361 C   0  0  0  0  0  0  0  0  0  0  0  0
   69.2020   47.5662   52.3346 C   0  0  0  0  0  0  0  0  0  0  0  0
   69.0344   46.9473   53.5501 C   0  0  0  0  0  0  0  0  0  0  0  0
   70.0850   48.7072   52.1514 C   0  0  0  0  0  0  0  0  0  0  0  0
   69.9706   49.5425   51.0191 N   0  0  0  0  0  0  0  0  0  0  0  0
   70.9646   48.9694   52.9975 O   0  0  0  0  0  0  0  0  0  0  0  0
  2  1  1  1
  2  3  1  0
  2 16  1  0
  3  4  1  0
  4  5  1  0
  5  6  1  0
  5 17  2  0
  6  7  2  0
  7  8  1  0
  7  9  1  0
  9 10  2  0
 10 11  1  0
 10 17  1  0
 11 12  1  0
 11 13  2  0
 13 18  1  0
 13 14  1  0
 18 19  2  0
 18 20  1  0
 20 21  1  0
 21 22  1  0
 22 23  2  0
 22 27  1  0
 23 24  1  0
 24 25  2  0
 25 26  1  0
 26 28  1  0
 26 27  2  0
 28 29  1  0
 28 30  2  0
 14 15  2  0
 14 16  1  0
 16 17  1  0
M  END
>  <minimizedAffinity>  (215) 
-8.89394

$$$$
data/200k_reference_output/data/smiles/82524.pdb
     RDKit          3D

 26 27  0  0  0  0  0  0  0  0999 V2000
   68.4501   42.8972   56.5841 C   0  0  0  0  0  0  0  0  0  0  0  0
   67.0564   41.9412   56.0150 S   0  0  0  0  0  0  0  0  0  0  0  0
   68.6274   44.1052   56.1832 N   0  0  0  0  0  0  0  0  0  0  0  0
   69.4236   42.3799   57.5078 N   0  0  0  0  0  0  0  0  0  0  0  0
   73.0106   44.5271   58.3113 C   0  0  0  0  0  0  0  0  0  0  0  0
   73.0284   43.2648   57.7226 C   0  0  0  0  0  0  0  0  0  0  0  0
   71.8636   42.5725   57.4596 C   0  0  0  0  0  0  0  0  0  0  0  0
   70.6155   43.0929   57.7638 C   0  0  0  0  0  0  0  0  0  0  0  0
   70.6022   44.3610   58.3527 C   0  0  0  0  0  0  0  0  0  0  0  0
   71.7695   45.0373   58.6085 C   0  0  0  0  0  0  0  0  0  0  0  0
   74.5007   46.9355   57.9293 N   0  0  0  0  0  0  0  0  0  0  0  0
   74.4686   45.3932   58.6823 S   0  0  0  0  0  0  0  0  0  0  0  0
   74.5000   45.5925   60.1858 O   0  0  0  0  0  0  0  0  0  0  0  0
   75.6309   44.5213   58.3243 O   0  0  0  0  0  0  0  0  0  0  0  0
   67.7740   44.7375   55.2942 N   0  0  0  0  0  0  0  0  0  0  0  0
   68.1924   45.7659   54.3830 C   0  0  0  0  0  0  0  0  0  0  0  0
   67.8672   45.6581   53.0535 C   0  0  0  0  0  0  0  0  0  0  0  0
   67.1470   44.5653   52.6330 F   0  0  0  0  0  0  0  0  0  0  0  0
   68.2750   46.6482   52.1874 C   0  0  0  0  0  0  0  0  0  0  0  0
   67.9658   46.5769   50.8583 F   0  0  0  0  0  0  0  0  0  0  0  0
   69.0023   47.7407   52.6202 C   0  0  0  0  0  0  0  0  0  0  0  0
   69.4176   48.7317   51.7598 F   0  0  0  0  0  0  0  0  0  0  0  0
   69.3276   47.8430   53.9544 C   0  0  0  0  0  0  0  0  0  0  0  0
   70.0388   48.9056   54.3981 F   0  0  0  0  0  0  0  0  0  0  0  0
   68.9167   46.8534   54.8276 C   0  0  0  0  0  0  0  0  0  0  0  0
   69.1854   46.9012   56.1599 F   0  0  0  0  0  0  0  0  0  0  0  0
 11 12  1  0
 12 13  2  0
 12 14  2  0
 12  5  1  0
  5  6  2  0
  5 10  1  0
  6  7  1  0
  7  8  2  0
  8  4  1  0
  8  9  1  0
  4  1  1  0
  1  2  1  0
  1  3  2  0
  3 15  1  0
 15 16  1  0
 16 17  2  0
 16 25  1  0
 17 18  1  0
 17 19  1  0
 19 20  1  0
 19 21  2  0
 21 22  1  0
 21 23  1  0
 23 24  1  0
 23 25  2  0
 25 26  1  0
  9 10  2  0
M  CHG  1   3   1
M  END
>  <minimizedAffinity>  (216) 
-8.88815

$$$$
data/200k_reference_output/data/smiles/51068.pdb
     RDKit          3D

 32 37  0  0  0  0  0  0  0  0999 V2000
   76.0251   34.6038   55.7600 C   0  0  0  0  0  0  0  0  0  0  0  0
   70.9477   35.9839   59.8543 C   0  0  0  0  0  0  0  0  0  0  0  0
   70.6335   37.2922   59.5502 C   0  0  0  0  0  0  0  0  0  0  0  0
   71.1546   37.8969   58.4018 C   0  0  0  0  0  0  0  0  0  0  0  0
   71.9895   37.1578   57.5813 C   0  0  0  0  0  0  0  0  0  0  0  0
   72.3155   35.8531   57.8664 C   0  0  0  0  0  0  0  0  0  0  0  0
   71.8006   35.2813   58.9852 C   0  0  0  0  0  0  0  0  0  0  0  0
   72.1075   33.9064   59.3404 C   0  0  0  0  0  0  0  0  0  0  0  0
   72.6830   33.0276   58.3088 C   0  0  0  0  0  0  0  0  0  0  0  0
   72.9302   33.6244   56.9683 C   0  0  2  0  0  0  0  0  0  0  0  0
   74.2361   33.1394   56.3757 C   0  0  0  0  0  0  0  0  0  0  0  0
   75.2731   34.0316   56.8635 N   0  0  2  0  0  0  0  0  0  0  0  0
   74.6113   35.1046   57.5972 C   0  0  0  0  0  0  0  0  0  0  0  0
   73.1998   35.1021   56.9871 C   0  0  2  0  0  0  0  0  0  0  0  0
   69.1573   35.6873   61.4576 C   0  0  0  0  0  0  0  0  0  0  0  0
   70.4427   35.3702   60.9867 O   0  0  0  0  0  0  0  0  0  0  0  0
   75.2278   35.2344   54.6938 C   0  0  0  0  0  0  0  0  0  0  0  0
   75.5283   34.9824   53.3311 N   0  0  0  0  0  0  0  0  0  0  0  0
   74.7525   34.1256   52.5912 C   0  0  0  0  0  0  0  0  0  0  0  0
   73.7839   33.5379   53.1862 O   0  0  0  0  0  0  0  0  0  0  0  0
   74.9574   33.8795   51.2931 N   0  0  0  0  0  0  0  0  0  0  0  0
   75.9616   34.4886   50.6751 C   0  0  0  0  0  0  0  0  0  0  0  0
   76.7866   35.3679   51.3616 C   0  0  0  0  0  0  0  0  0  0  0  0
   77.7147   35.8636   50.5104 N   0  0  0  0  0  0  0  0  0  0  0  0
   77.5331   35.3432   49.2785 C   0  0  0  0  0  0  0  0  0  0  0  0
   78.1436   35.4797   48.0651 C   0  0  0  0  0  0  0  0  0  0  0  0
   77.6849   34.7867   46.9758 C   0  0  0  0  0  0  0  0  0  0  0  0
   76.5814   33.9187   47.0744 C   0  0  0  0  0  0  0  0  0  0  0  0
   75.9674   33.7793   48.2882 C   0  0  0  0  0  0  0  0  0  0  0  0
   76.4463   34.4887   49.3746 C   0  0  0  0  0  0  0  0  0  0  0  0
   76.5343   35.5871   52.6981 C   0  0  0  0  0  0  0  0  0  0  0  0
   77.3175   36.3981   53.2788 O   0  0  0  0  0  0  0  0  0  0  0  0
 15 16  1  0
 16  2  1  0
  2  3  2  0
  2  7  1  0
  3  4  1  0
  4  5  2  0
  5  6  1  0
  6  7  2  0
  6 14  1  0
  7  8  1  0
  8  9  1  0
 10  9  1  1
 10 11  1  0
 10 14  1  0
 11 12  1  0
 12  1  1  6
 12 13  1  0
  1 17  1  0
 17 18  1  0
 18 19  1  0
 18 31  1  0
 19 20  2  0
 19 21  1  0
 21 22  1  0
 22 23  2  0
 22 30  1  0
 23 24  1  0
 23 31  1  0
 24 25  1  0
 25 26  1  0
 25 30  2  0
 26 27  2  0
 27 28  1  0
 28 29  2  0
 29 30  1  0
 31 32  2  0
 14 13  1  1
M  CHG  1  12   1
M  END
>  <minimizedAffinity>  (217) 
-8.88683

$$$$
data/reference_output_2/data/smiles/154906.pdb
     RDKit          3D

 30 33  0  0  0  0  0  0  0  0999 V2000
   70.3242   43.4165   58.1859 C   0  0  0  0  0  0  0  0  0  0  0  0
   69.2235   42.6473   57.8752 C   0  0  0  0  0  0  0  0  0  0  0  0
   69.2667   41.2625   57.9075 C   0  0  0  0  0  0  0  0  0  0  0  0
   70.4204   40.5900   58.2542 C   0  0  0  0  0  0  0  0  0  0  0  0
   70.5124   39.2115   58.3014 C   0  0  0  0  0  0  0  0  0  0  0  0
   69.4920   38.5121   58.0130 O   0  0  0  0  0  0  0  0  0  0  0  0
   71.6437   38.5648   58.6411 N   0  0  0  0  0  0  0  0  0  0  0  0
   72.6948   39.3535   58.9368 C   0  0  0  0  0  0  0  0  0  0  0  0
   73.7729   38.7753   59.2599 O   0  0  0  0  0  0  0  0  0  0  0  0
   72.6428   40.6982   58.9023 N   0  0  0  0  0  0  0  0  0  0  0  0
   71.5213   41.3615   58.5651 C   0  0  0  0  0  0  0  0  0  0  0  0
   71.4786   42.7575   58.5329 C   0  0  0  0  0  0  0  0  0  0  0  0
   71.7237   37.1420   58.6844 C   0  0  0  0  0  0  0  0  0  0  0  0
   71.1941   36.4554   59.7575 C   0  0  0  0  0  0  0  0  0  0  0  0
   71.2589   35.0694   59.8221 C   0  0  0  0  0  0  0  0  0  0  0  0
   71.8533   34.3282   58.8212 C   0  0  0  0  0  0  0  0  0  0  0  0
   71.9275   32.9716   58.8650 F   0  0  0  0  0  0  0  0  0  0  0  0
   72.3856   35.0053   57.7432 C   0  0  0  0  0  0  0  0  0  0  0  0
   72.3129   36.3856   57.6929 C   0  0  0  0  0  0  0  0  0  0  0  0
   70.5256   45.6017   59.1138 O   0  0  0  0  0  0  0  0  0  0  0  0
   70.2095   44.8784   58.1319 C   0  0  0  0  0  0  0  0  0  0  0  0
   69.7375   45.5432   56.9745 N   0  0  0  0  0  0  0  0  0  0  0  0
   69.6251   46.9870   56.9291 C   0  0  0  0  0  0  0  0  0  0  0  0
   68.5762   47.5083   56.0320 C   0  0  0  0  0  0  0  0  0  0  0  0
   68.7921   47.4315   54.6482 N   0  0  0  0  0  0  0  0  0  0  0  0
   67.8186   46.7350   53.8855 C   0  0  0  0  0  0  0  0  0  0  0  0
   68.4441   46.1965   52.6427 C   0  0  0  0  0  0  0  0  0  0  0  0
   69.4985   47.0339   52.0346 C   0  0  0  0  0  0  0  0  0  0  0  0
   69.6188   48.4259   52.5588 C   0  0  0  0  0  0  0  0  0  0  0  0
   69.1830   48.6212   53.9657 C   0  0  0  0  0  0  0  0  0  0  0  0
 20 21  2  0
 21 22  1  0
 21  1  1  0
 22 23  1  0
 23 24  1  0
 24 25  1  0
 25 26  1  0
 25 30  1  0
 26 27  1  0
 27 28  1  0
 28 29  1  0
 29 30  1  0
  1  2  2  0
  1 12  1  0
  2  3  1  0
  3  4  2  0
  4  5  1  0
  4 11  1  0
  5  6  2  0
  5  7  1  0
  7 13  1  0
  7  8  1  0
 13 14  2  0
 13 19  1  0
 14 15  1  0
 15 16  2  0
 16 17  1  0
 16 18  1  0
 18 19  2  0
  8  9  2  0
  8 10  1  0
 10 11  1  0
 11 12  2  0
M  CHG  1  25   1
M  END
>  <minimizedAffinity>  (218) 
-8.88403

$$$$
data/200k_reference_output/data/smiles/39644.pdb
     RDKit          3D

 32 35  0  0  0  0  0  0  0  0999 V2000
   68.8381   48.1932   55.4572 N   0  0  0  0  0  0  0  0  0  0  0  0
   69.5434   49.4365   55.2507 C   0  0  0  0  0  0  0  0  0  0  0  0
   69.8611   50.3024   56.0931 O   0  0  0  0  0  0  0  0  0  0  0  0
   69.8649   49.5656   53.8198 C   0  0  0  0  0  0  0  0  0  0  0  0
   70.4905   50.5403   53.2460 N   0  0  0  0  0  0  0  0  0  0  0  0
   69.3193   48.3525   53.2134 C   0  0  0  0  0  0  0  0  0  0  0  0
   69.3091   47.9061   51.9013 C   0  0  0  0  0  0  0  0  0  0  0  0
   68.7244   46.7028   51.5460 C   0  0  0  0  0  0  0  0  0  0  0  0
   68.1321   45.9162   52.5094 C   0  0  0  0  0  0  0  0  0  0  0  0
   68.1400   46.3600   53.8161 C   0  0  0  0  0  0  0  0  0  0  0  0
   68.7272   47.5707   54.1830 C   0  0  0  0  0  0  0  0  0  0  0  0
   70.9388   51.6320   54.0355 N   0  0  0  0  0  0  0  0  0  0  0  0
   72.2384   51.6863   54.5662 C   0  0  0  0  0  0  0  0  0  0  0  0
   72.9883   50.6952   54.2946 O   0  0  0  0  0  0  0  0  0  0  0  0
   72.8175   52.7223   55.3737 C   0  0  0  0  0  0  0  0  0  0  0  0
   72.6862   52.6656   56.7599 C   0  0  0  0  0  0  0  0  0  0  0  0
   73.2179   53.6291   57.5905 C   0  0  0  0  0  0  0  0  0  0  0  0
   73.9094   54.6965   57.0623 C   0  0  0  0  0  0  0  0  0  0  0  0
   74.0540   54.7803   55.7101 C   0  0  0  0  0  0  0  0  0  0  0  0
   73.5060   53.7923   54.8867 C   0  0  0  0  0  0  0  0  0  0  0  0
   73.7153   53.9805   53.5367 O   0  0  0  0  0  0  0  0  0  0  0  0
   68.3611   47.7269   56.7465 C   0  0  0  0  0  0  0  0  0  0  0  0
   69.3221   45.3864   56.9845 N   0  0  0  0  0  0  0  0  0  0  0  0
   69.3719   46.7489   57.3260 C   0  0  0  0  0  0  0  0  0  0  0  0
   70.2513   47.1620   58.1111 O   0  0  0  0  0  0  0  0  0  0  0  0
   72.6209   41.0341   58.7967 C   0  0  0  0  0  0  0  0  0  0  0  0
   71.7849   42.1756   58.3338 C   0  0  0  0  0  0  0  0  0  0  0  0
   72.2257   43.4741   58.4060 C   0  0  0  0  0  0  0  0  0  0  0  0
   71.4497   44.5615   57.9739 C   0  0  0  0  0  0  0  0  0  0  0  0
   70.1994   44.3814   57.4527 C   0  0  0  0  0  0  0  0  0  0  0  0
   69.7675   43.0456   57.3870 C   0  0  0  0  0  0  0  0  0  0  0  0
   70.5265   41.9837   57.8085 C   0  0  0  0  0  0  0  0  0  0  0  0
 26 27  1  0
 27 28  2  0
 27 32  1  0
 28 29  1  0
 29 30  2  0
 30 23  1  0
 30 31  1  0
 23 24  1  0
 24 25  2  0
 24 22  1  0
 22  1  1  0
  1  2  1  0
  1 11  1  0
  2  3  2  0
  2  4  1  0
  4  5  2  0
  4  6  1  0
  5 12  1  0
 12 13  1  0
 13 14  2  0
 13 15  1  0
 15 16  2  0
 15 20  1  0
 16 17  1  0
 17 18  2  0
 18 19  1  0
 19 20  2  0
 20 21  1  0
  6  7  1  0
  6 11  2  0
  7  8  2  0
  8  9  1  0
  9 10  2  0
 10 11  1  0
 31 32  2  0
M  END
>  <minimizedAffinity>  (219) 
-8.87831

$$$$
data/200k_reference_output/data/smiles/80975.pdb
     RDKit          3D

 30 33  0  0  0  0  0  0  0  0999 V2000
   70.9321   49.8124   57.8284 N   0  0  0  0  0  0  0  0  0  0  0  0
   70.2602   50.9454   58.4598 C   0  0  0  0  0  0  0  0  0  0  0  0
   69.9546   51.8680   57.2641 C   0  0  0  0  0  0  0  0  0  0  0  0
   71.1412   51.6779   56.3773 C   0  0  1  0  0  0  0  0  0  0  0  0
   71.7541   50.4096   56.8134 C   0  0  0  0  0  0  0  0  0  0  0  0
   70.6192   45.6765   58.5281 C   0  0  0  0  0  0  0  0  0  0  0  0
   69.9841   46.2493   57.4546 C   0  0  0  0  0  0  0  0  0  0  0  0
   70.0947   47.5953   57.2293 C   0  0  0  0  0  0  0  0  0  0  0  0
   70.8508   48.4199   58.0788 C   0  0  0  0  0  0  0  0  0  0  0  0
   71.4874   47.8468   59.1539 C   0  0  0  0  0  0  0  0  0  0  0  0
   72.2502   48.5953   60.0260 C   0  0  0  0  0  0  0  0  0  0  0  0
   72.8438   47.9787   61.0470 N   0  0  0  0  0  0  0  0  0  0  0  0
   72.7169   46.6476   61.2449 C   0  0  0  0  0  0  0  0  0  0  0  0
   71.9872   45.8756   60.4263 N   0  0  0  0  0  0  0  0  0  0  0  0
   71.3647   46.4685   59.3720 C   0  0  0  0  0  0  0  0  0  0  0  0
   69.5115   43.7295   59.6556 N   0  0  0  0  0  0  0  0  0  0  0  0
   70.5203   44.2297   58.7998 C   0  0  0  0  0  0  0  0  0  0  0  0
   71.3344   43.4379   58.2681 O   0  0  0  0  0  0  0  0  0  0  0  0
   70.8032   51.7679   54.9105 C   0  0  0  0  0  0  0  0  0  0  0  0
   69.9764   50.6652   54.4687 N   0  0  0  0  0  0  0  0  0  0  0  0
   70.5040   49.5834   53.7367 C   0  0  0  0  0  0  0  0  0  0  0  0
   71.7748   49.6031   53.4706 O   0  0  0  0  0  0  0  0  0  0  0  0
   69.7606   48.4384   53.2482 C   0  0  0  0  0  0  0  0  0  0  0  0
   69.0127   47.6886   54.1778 C   0  0  0  0  0  0  0  0  0  0  0  0
   68.2764   46.6058   53.7662 C   0  0  0  0  0  0  0  0  0  0  0  0
   67.5518   45.8728   54.6442 F   0  0  0  0  0  0  0  0  0  0  0  0
   68.2661   46.2462   52.4428 C   0  0  0  0  0  0  0  0  0  0  0  0
   68.9825   46.9525   51.5137 C   0  0  0  0  0  0  0  0  0  0  0  0
   69.7412   48.0685   51.9333 C   0  0  0  0  0  0  0  0  0  0  0  0
   70.4461   48.7431   51.0179 F   0  0  0  0  0  0  0  0  0  0  0  0
 16 17  1  0
 17 18  2  0
 17  6  1  0
  6  7  2  0
  6 15  1  0
  7  8  1  0
  8  9  2  0
  9  1  1  0
  9 10  1  0
  1  2  1  0
  1  5  1  0
  2  3  1  0
  3  4  1  0
  4 19  1  6
  4  5  1  0
 19 20  1  0
 20 21  1  0
 21 22  2  0
 21 23  1  0
 23 24  2  0
 23 29  1  0
 24 25  1  0
 25 26  1  0
 25 27  2  0
 27 28  1  0
 28 29  2  0
 29 30  1  0
 10 11  1  0
 10 15  2  0
 11 12  2  0
 12 13  1  0
 13 14  2  0
 14 15  1  0
M  END
>  <minimizedAffinity>  (220) 
-8.87807

$$$$
data/reference_output_2/data/smiles/88440.pdb
     RDKit          3D

 30 33  0  0  0  0  0  0  0  0999 V2000
   71.5481   47.0258   58.9078 C   0  0  0  0  0  0  0  0  0  0  0  0
   70.5360   47.6664   58.1862 C   0  0  0  0  0  0  0  0  0  0  0  0
   69.7129   46.9716   57.3340 C   0  0  0  0  0  0  0  0  0  0  0  0
   69.9048   45.6122   57.1995 C   0  0  0  0  0  0  0  0  0  0  0  0
   70.8934   44.9324   57.8921 C   0  0  0  0  0  0  0  0  0  0  0  0
   71.6977   45.6793   58.7391 C   0  0  0  0  0  0  0  0  0  0  0  0
   72.6637   45.0250   59.4153 F   0  0  0  0  0  0  0  0  0  0  0  0
   72.0746   47.8353   61.0043 O   0  0  0  0  0  0  0  0  0  0  0  0
   72.4227   47.7900   59.7826 C   0  0  0  0  0  0  0  0  0  0  0  0
   73.5581   48.4188   59.2830 N   0  0  0  0  0  0  0  0  0  0  0  0
   74.4247   49.1587   60.1580 C   0  0  0  0  0  0  0  0  0  0  0  0
   74.5947   50.5893   59.6030 C   0  0  0  0  0  0  0  0  0  0  0  0
   73.6294   50.7302   58.5479 N   0  0  0  0  0  0  0  0  0  0  0  0
   74.0072   49.8624   57.4695 C   0  0  0  0  0  0  0  0  0  0  0  0
   73.8815   48.3826   57.8889 C   0  0  0  0  0  0  0  0  0  0  0  0
   73.2603   52.0467   58.1957 C   0  0  0  0  0  0  0  0  0  0  0  0
   71.7484   52.1548   58.1364 C   0  0  0  0  0  0  0  0  0  0  0  0
   71.1230   51.0880   58.7348 O   0  0  0  0  0  0  0  0  0  0  0  0
   68.6482   47.6170   56.5403 C   0  0  0  0  0  0  0  0  0  0  0  0
   69.2061   47.9737   55.2061 C   0  0  0  0  0  0  0  0  0  0  0  0
   70.1411   48.9642   55.1166 N   0  0  0  0  0  0  0  0  0  0  0  0
   70.6479   49.2894   53.9466 N   0  0  0  0  0  0  0  0  0  0  0  0
   70.2822   48.6830   52.8098 C   0  0  0  0  0  0  0  0  0  0  0  0
   70.7710   48.9961   51.6868 O   0  0  0  0  0  0  0  0  0  0  0  0
   69.3490   47.6827   52.8373 C   0  0  0  0  0  0  0  0  0  0  0  0
   68.9367   47.0193   51.7078 C   0  0  0  0  0  0  0  0  0  0  0  0
   67.9961   46.0146   51.7879 C   0  0  0  0  0  0  0  0  0  0  0  0
   67.4666   45.6738   53.0034 C   0  0  0  0  0  0  0  0  0  0  0  0
   67.8580   46.3229   54.1737 C   0  0  0  0  0  0  0  0  0  0  0  0
   68.8025   47.3236   54.0598 C   0  0  0  0  0  0  0  0  0  0  0  0
  8  9  2  0
  9  1  1  0
  9 10  1  0
  1  2  2  0
  1  6  1  0
  2  3  1  0
  3 19  1  0
  3  4  2  0
 19 20  1  0
 20 21  2  0
 20 30  1  0
 21 22  1  0
 22 23  1  0
 23 24  2  0
 23 25  1  0
 25 26  1  0
 25 30  2  0
 26 27  2  0
 27 28  1  0
 28 29  2  0
 29 30  1  0
  4  5  1  0
  5  6  2  0
  6  7  1  0
 10 11  1  0
 10 15  1  0
 11 12  1  0
 12 13  1  0
 13 16  1  0
 13 14  1  0
 16 17  1  0
 17 18  1  0
 14 15  1  0
M  CHG  1  13   1
M  END
>  <minimizedAffinity>  (221) 
-8.87081

$$$$
data/reference_output_2/data/smiles/195952.pdb
     RDKit          3D

 32 35  0  0  0  0  0  0  0  0999 V2000
   72.3140   49.2233   57.7647 C   0  0  0  0  0  0  0  0  0  0  0  0
   71.1569   49.5642   56.9921 N   0  0  0  0  0  0  0  0  0  0  0  0
   69.8651   49.8021   57.5730 C   0  0  0  0  0  0  0  0  0  0  0  0
   69.5242   49.7586   58.7826 O   0  0  0  0  0  0  0  0  0  0  0  0
   68.9553   50.1132   56.5271 N   0  0  0  0  0  0  0  0  0  0  0  0
   69.5655   49.6960   55.2950 C   0  0  2  0  0  0  0  0  0  0  0  0
   69.1785   50.7237   54.2417 C   0  0  0  0  0  0  0  0  0  0  0  0
   69.7841   50.4199   52.9159 C   0  0  0  0  0  0  0  0  0  0  0  0
   69.7594   48.9869   52.5044 C   0  0  0  0  0  0  0  0  0  0  0  0
   69.1815   48.0578   53.4883 C   0  0  0  0  0  0  0  0  0  0  0  0
   68.7276   46.8156   53.0222 C   0  0  0  0  0  0  0  0  0  0  0  0
   68.1822   45.9101   53.8961 C   0  0  0  0  0  0  0  0  0  0  0  0
   68.0844   46.2257   55.2210 C   0  0  0  0  0  0  0  0  0  0  0  0
   68.5376   47.4628   55.6705 C   0  0  0  0  0  0  0  0  0  0  0  0
   69.0886   48.3897   54.8205 C   0  0  0  0  0  0  0  0  0  0  0  0
   71.0018   49.7390   55.5856 C   0  0  0  0  0  0  0  0  0  0  0  0
   71.9949   49.8975   54.8049 O   0  0  0  0  0  0  0  0  0  0  0  0
   72.1183   46.7561   58.2754 N   0  0  0  0  0  0  0  0  0  0  0  0
   72.0403   48.1330   58.7284 C   0  0  0  0  0  0  0  0  0  0  0  0
   71.7403   48.3357   59.9299 O   0  0  0  0  0  0  0  0  0  0  0  0
   71.8556   45.7110   59.1999 C   0  0  0  0  0  0  0  0  0  0  0  0
   70.9688   43.7517   57.8005 N   0  0  0  0  0  0  0  0  0  0  0  0
   70.8025   44.8025   58.7353 C   0  0  0  0  0  0  0  0  0  0  0  0
   69.6068   44.9403   59.1941 O   0  0  0  0  0  0  0  0  0  0  0  0
   68.4333   39.4701   57.9673 C   0  0  0  0  0  0  0  0  0  0  0  0
   68.5940   40.8600   57.4736 C   0  0  0  0  0  0  0  0  0  0  0  0
   67.6557   41.4001   56.6194 C   0  0  0  0  0  0  0  0  0  0  0  0
   67.8006   42.6984   56.1548 C   0  0  0  0  0  0  0  0  0  0  0  0
   68.9089   43.4492   56.5656 C   0  0  0  0  0  0  0  0  0  0  0  0
   69.8498   42.9195   57.4178 C   0  0  0  0  0  0  0  0  0  0  0  0
   69.6841   41.6333   57.8620 C   0  0  0  0  0  0  0  0  0  0  0  0
   70.6756   41.0293   58.7805 C   0  0  0  0  0  0  0  0  0  0  0  0
 25 26  1  0
 26 27  2  0
 26 31  1  0
 27 28  1  0
 28 29  2  0
 29 30  1  0
 30 22  1  0
 30 31  2  0
 22 23  1  0
 23 24  2  0
 23 21  1  0
 21 18  1  0
 18 19  1  0
 19 20  2  0
 19  1  1  0
  1  2  1  0
  2  3  1  0
  2 16  1  0
  3  4  2  0
  3  5  1  0
  5  6  1  0
  6  7  1  6
  6 15  1  0
  6 16  1  0
  7  8  1  0
  8  9  1  0
  9 10  1  0
 10 11  2  0
 10 15  1  0
 11 12  1  0
 12 13  2  0
 13 14  1  0
 14 15  2  0
 16 17  2  0
 31 32  1  0
M  END
>  <minimizedAffinity>  (222) 
-8.87045

$$$$
data/reference_output_2/data/smiles/102562.pdb
     RDKit          3D

 30 34  0  0  0  0  0  0  0  0999 V2000
   68.8551   43.4350   59.8101 O   0  0  0  0  0  0  0  0  0  0  0  0
   68.5321   42.2304   60.0389 C   0  0  0  0  0  0  0  0  0  0  0  0
   68.3440   41.7307   61.3474 N   0  0  0  0  0  0  0  0  0  0  0  0
   67.9937   40.3568   61.2506 C   0  0  0  0  0  0  0  0  0  0  0  0
   67.7008   39.3922   62.2286 C   0  0  0  0  0  0  0  0  0  0  0  0
   67.3844   38.1011   61.8652 C   0  0  0  0  0  0  0  0  0  0  0  0
   67.3567   37.7555   60.5184 C   0  0  0  0  0  0  0  0  0  0  0  0
   67.6377   38.6754   59.5465 C   0  0  0  0  0  0  0  0  0  0  0  0
   67.6127   38.3478   58.2208 F   0  0  0  0  0  0  0  0  0  0  0  0
   67.9547   39.9768   59.9419 C   0  0  0  0  0  0  0  0  0  0  0  0
   68.2910   41.1349   59.0945 C   0  0  0  0  0  0  0  0  0  0  0  0
   67.1868   41.5149   58.1558 C   0  0  0  0  0  0  0  0  0  0  0  0
   67.6705   41.9211   56.7805 C   0  0  0  0  0  0  0  0  0  0  0  0
   68.8462   42.7096   56.9481 N   0  0  0  0  0  0  0  0  0  0  0  0
   70.0039   42.0337   57.4889 C   0  0  0  0  0  0  0  0  0  0  0  0
   69.6097   40.8970   58.3959 C   0  0  0  0  0  0  0  0  0  0  0  0
   68.9363   44.0768   56.6242 C   0  0  0  0  0  0  0  0  0  0  0  0
   68.3340   44.5572   55.4864 N   0  0  0  0  0  0  0  0  0  0  0  0
   68.3796   45.8370   55.1168 C   0  0  0  0  0  0  0  0  0  0  0  0
   69.0648   46.7276   55.9124 C   0  0  0  0  0  0  0  0  0  0  0  0
   69.6954   46.2945   57.0789 C   0  0  0  0  0  0  0  0  0  0  0  0
   70.3239   47.1090   57.8102 O   0  0  0  0  0  0  0  0  0  0  0  0
   69.5908   44.9818   57.3645 N   0  0  0  0  0  0  0  0  0  0  0  0
   69.1042   48.1499   55.4896 C   0  0  0  0  0  0  0  0  0  0  0  0
   69.2291   48.3481   54.0138 C   0  0  0  0  0  0  0  0  0  0  0  0
   68.8475   47.1579   53.1842 C   0  0  0  0  0  0  0  0  0  0  0  0
   67.7418   46.3750   53.8986 C   0  0  0  0  0  0  0  0  0  0  0  0
   68.4715   42.4346   62.6057 C   0  0  0  0  0  0  0  0  0  0  0  0
   69.8309   42.3032   63.2243 C   0  0  0  0  0  0  0  0  0  0  0  0
   69.6577   41.5554   64.4095 O   0  0  0  0  0  0  0  0  0  0  0  0
  1  2  2  0
  2  3  1  0
  2 11  1  0
  3 28  1  0
  3  4  1  0
 28 29  1  0
 29 30  1  0
  4  5  2  0
  4 10  1  0
  5  6  1  0
  6  7  2  0
  7  8  1  0
  8  9  1  0
  8 10  2  0
 10 11  1  0
 11 12  1  0
 11 16  1  0
 12 13  1  0
 13 14  1  0
 14 17  1  0
 14 15  1  0
 17 18  2  0
 17 23  1  0
 18 19  1  0
 19 20  2  0
 19 27  1  0
 20 21  1  0
 20 24  1  0
 21 22  2  0
 21 23  1  0
 24 25  1  0
 25 26  1  0
 26 27  1  0
 15 16  1  0
M  END
>  <minimizedAffinity>  (223) 
-8.86539

$$$$
data/200k_reference_output/data/smiles/83804.pdb
     RDKit          3D

 33 37  0  0  0  0  0  0  0  0999 V2000
   71.0732   48.0259   58.1787 N   0  0  0  0  0  0  0  0  0  0  0  0
   71.5187   49.1057   57.3690 C   0  0  0  0  0  0  0  0  0  0  0  0
   72.4815   49.8712   57.7014 O   0  0  0  0  0  0  0  0  0  0  0  0
   70.7380   49.1745   56.1852 N   0  0  0  0  0  0  0  0  0  0  0  0
   69.5734   48.3434   56.4288 C   0  0  0  0  0  0  0  0  0  0  0  0
   70.0010   47.4152   57.4869 C   0  0  0  0  0  0  0  0  0  0  0  0
   69.5065   46.2982   57.7244 O   0  0  0  0  0  0  0  0  0  0  0  0
   69.1132   47.6088   55.2395 C   0  0  0  0  0  0  0  0  0  0  0  0
   69.4599   48.1548   54.0078 C   0  0  0  0  0  0  0  0  0  0  0  0
   69.0900   47.5605   52.8139 C   0  0  0  0  0  0  0  0  0  0  0  0
   68.3624   46.4021   52.8766 C   0  0  0  0  0  0  0  0  0  0  0  0
   68.0145   45.8551   54.0856 C   0  0  0  0  0  0  0  0  0  0  0  0
   68.3842   46.4494   55.2838 C   0  0  0  0  0  0  0  0  0  0  0  0
   68.4907   49.2526   56.8685 C   0  0  0  0  0  0  0  0  0  0  0  0
   67.4609   48.8648   57.6782 C   0  0  0  0  0  0  0  0  0  0  0  0
   66.4819   49.7954   58.0381 C   0  0  0  0  0  0  0  0  0  0  0  0
   66.5187   51.1011   57.6011 C   0  0  0  0  0  0  0  0  0  0  0  0
   67.5600   51.4801   56.7871 C   0  0  0  0  0  0  0  0  0  0  0  0
   68.5255   50.5598   56.4327 C   0  0  0  0  0  0  0  0  0  0  0  0
   71.6375   47.6447   59.4835 C   0  0  0  0  0  0  0  0  0  0  0  0
   72.2982   45.5227   60.2397 O   0  0  0  0  0  0  0  0  0  0  0  0
   72.4213   46.4086   59.3556 C   0  0  0  0  0  0  0  0  0  0  0  0
   73.3221   46.1306   58.2937 N   0  0  0  0  0  0  0  0  0  0  0  0
   74.0548   44.8913   58.2404 C   0  0  0  0  0  0  0  0  0  0  0  0
   73.4923   43.7234   57.7727 C   0  0  0  0  0  0  0  0  0  0  0  0
   74.2315   42.5524   57.7400 C   0  0  0  0  0  0  0  0  0  0  0  0
   75.5498   42.5037   58.1682 C   0  0  0  0  0  0  0  0  0  0  0  0
   76.4861   41.5318   58.2496 N   0  0  0  0  0  0  0  0  0  0  0  0
   77.6261   42.0523   58.7545 C   0  0  0  0  0  0  0  0  0  0  0  0
   78.7059   41.4168   58.9635 O   0  0  0  0  0  0  0  0  0  0  0  0
   77.3669   43.3501   58.9778 N   0  0  0  0  0  0  0  0  0  0  0  0
   76.1124   43.6781   58.6370 C   0  0  0  0  0  0  0  0  0  0  0  0
   75.3628   44.8362   58.6640 C   0  0  0  0  0  0  0  0  0  0  0  0
 21 22  2  0
 22 20  1  0
 22 23  1  0
 20  1  1  0
  1  2  1  0
  1  6  1  0
  2  3  2  0
  2  4  1  0
  4  5  1  0
  5  8  1  0
  5 14  1  0
  5  6  1  0
  8  9  2  0
  8 13  1  0
  9 10  1  0
 10 11  2  0
 11 12  1  0
 12 13  2  0
 14 15  2  0
 14 19  1  0
 15 16  1  0
 16 17  2  0
 17 18  1  0
 18 19  2  0
  6  7  2  0
 23 24  1  0
 24 25  2  0
 24 33  1  0
 25 26  1  0
 26 27  2  0
 27 28  1  0
 27 32  1  0
 28 29  1  0
 29 30  2  0
 29 31  1  0
 31 32  1  0
 32 33  2  0
M  CHG  1  28   1
M  END
>  <minimizedAffinity>  (224) 
-8.86243

$$$$
data/reference_output_2/data/smiles/140979.pdb
     RDKit          3D

 30 33  0  0  0  0  0  0  0  0999 V2000
   71.4268   46.8346   58.1843 C   0  0  0  0  0  0  0  0  0  0  0  0
   72.6020   46.8765   58.6721 O   0  0  0  0  0  0  0  0  0  0  0  0
   70.8766   47.9342   57.4724 N   0  0  0  0  0  0  0  0  0  0  0  0
   71.6614   49.1102   57.2916 C   0  0  0  0  0  0  0  0  0  0  0  0
   71.4022   49.8245   55.9988 C   0  0  0  0  0  0  0  0  0  0  0  0
   70.0868   49.6747   55.4890 N   0  0  0  0  0  0  0  0  0  0  0  0
   69.1099   49.1494   56.3633 C   0  0  0  0  0  0  0  0  0  0  0  0
   69.5372   47.8431   56.9501 C   0  0  0  0  0  0  0  0  0  0  0  0
   69.6647   43.5918   58.2098 C   0  0  0  0  0  0  0  0  0  0  0  0
   70.3844   44.5638   57.5318 C   0  0  0  0  0  0  0  0  0  0  0  0
   70.6969   45.5919   58.4039 C   0  0  0  0  0  0  0  0  0  0  0  0
   70.1597   45.2166   59.5904 N   0  0  0  0  0  0  0  0  0  0  0  0
   69.5655   44.0576   59.4627 N   0  0  0  0  0  0  0  0  0  0  0  0
   67.7684   41.0314   56.1918 C   0  0  0  0  0  0  0  0  0  0  0  0
   68.1037   39.8804   56.9338 C   0  0  0  0  0  0  0  0  0  0  0  0
   68.9060   39.9542   58.0282 C   0  0  0  0  0  0  0  0  0  0  0  0
   69.4025   41.1636   58.4223 C   0  0  0  0  0  0  0  0  0  0  0  0
   69.1088   42.3356   57.7335 C   0  0  0  0  0  0  0  0  0  0  0  0
   68.2949   42.2268   56.6325 C   0  0  0  0  0  0  0  0  0  0  0  0
   65.8326   41.6589   54.8321 C   0  0  0  0  0  0  0  0  0  0  0  0
   66.9539   40.8876   55.0976 O   0  0  0  0  0  0  0  0  0  0  0  0
   69.9376   49.2889   53.8528 S   0  0  0  0  0  0  0  0  0  0  0  0
   69.1501   50.4048   53.1815 O   0  0  0  0  0  0  0  0  0  0  0  0
   71.3070   49.3013   53.2242 O   0  0  0  0  0  0  0  0  0  0  0  0
   69.1225   47.8002   53.5113 C   0  0  0  0  0  0  0  0  0  0  0  0
   68.8628   47.4221   52.2158 C   0  0  0  0  0  0  0  0  0  0  0  0
   68.2186   46.2463   51.9236 C   0  0  0  0  0  0  0  0  0  0  0  0
   67.8191   45.4182   52.9385 C   0  0  0  0  0  0  0  0  0  0  0  0
   68.0495   45.7390   54.2587 C   0  0  0  0  0  0  0  0  0  0  0  0
   68.7000   46.9314   54.5035 C   0  0  0  0  0  0  0  0  0  0  0  0
 20 21  1  0
 21 14  1  0
 14 15  2  0
 14 19  1  0
 15 16  1  0
 16 17  2  0
 17 18  1  0
 18  9  1  0
 18 19  2  0
  9 10  1  0
  9 13  2  0
 10 11  2  0
 11  1  1  0
 11 12  1  0
  1  2  2  0
  1  3  1  0
  3  4  1  0
  3  8  1  0
  4  5  1  0
  5  6  1  0
  6 22  1  0
  6  7  1  0
 22 23  2  0
 22 24  2  0
 22 25  1  0
 25 26  2  0
 25 30  1  0
 26 27  1  0
 27 28  2  0
 28 29  1  0
 29 30  2  0
  7  8  1  0
 12 13  1  0
M  END
>  <minimizedAffinity>  (225) 
-8.86156

$$$$
data/reference_output_2/data/smiles/139505.pdb
     RDKit          3D

 29 32  0  0  0  0  0  0  0  0999 V2000
   69.8472   50.7031   53.1685 C   0  0  0  0  0  0  0  0  0  0  0  0
   69.8267   50.9017   51.8421 N   0  0  0  0  0  0  0  0  0  0  0  0
   69.5387   49.7813   51.2064 N   0  0  0  0  0  0  0  0  0  0  0  0
   69.3657   48.8241   52.1376 C   0  0  0  0  0  0  0  0  0  0  0  0
   69.0565   47.4941   52.0355 C   0  0  0  0  0  0  0  0  0  0  0  0
   68.9284   46.6848   53.1730 C   0  0  0  0  0  0  0  0  0  0  0  0
   69.1097   47.2083   54.4233 C   0  0  0  0  0  0  0  0  0  0  0  0
   69.4220   48.5600   54.4848 C   0  0  0  0  0  0  0  0  0  0  0  0
   69.5511   49.3654   53.3955 C   0  0  0  0  0  0  0  0  0  0  0  0
   71.6742   53.1248   55.3801 C   0  0  0  0  0  0  0  0  0  0  0  0
   70.6460   53.6164   56.1900 C   0  0  0  0  0  0  0  0  0  0  0  0
   69.3685   53.1374   55.9888 C   0  0  0  0  0  0  0  0  0  0  0  0
   69.1092   52.1952   55.0121 C   0  0  0  0  0  0  0  0  0  0  0  0
   70.1265   51.6958   54.1963 C   0  0  0  0  0  0  0  0  0  0  0  0
   71.3970   52.1849   54.4103 C   0  0  0  0  0  0  0  0  0  0  0  0
   73.7281   53.5709   57.2433 N   0  0  0  0  0  0  0  0  0  0  0  0
   73.3239   53.6768   55.5654 S   0  0  0  0  0  0  0  0  0  0  0  0
   74.2458   52.7042   54.8433 O   0  0  0  0  0  0  0  0  0  0  0  0
   73.5054   55.0622   55.0325 O   0  0  0  0  0  0  0  0  0  0  0  0
   68.9978   46.4472   55.6569 C   0  0  0  0  0  0  0  0  0  0  0  0
   68.0175   45.6643   55.8070 O   0  0  0  0  0  0  0  0  0  0  0  0
   69.9232   46.5256   56.7122 N   0  0  0  0  0  0  0  0  0  0  0  0
   69.8495   45.7884   57.9534 C   0  0  0  0  0  0  0  0  0  0  0  0
   70.5804   44.5140   57.9536 C   0  0  0  0  0  0  0  0  0  0  0  0
   71.9190   44.3501   58.1621 C   0  0  0  0  0  0  0  0  0  0  0  0
   72.5529   43.1106   58.1446 C   0  0  0  0  0  0  0  0  0  0  0  0
   71.7918   41.9863   57.9050 C   0  0  0  0  0  0  0  0  0  0  0  0
   70.4285   42.1007   57.6879 C   0  0  0  0  0  0  0  0  0  0  0  0
   69.8490   43.3478   57.7151 C   0  0  0  0  0  0  0  0  0  0  0  0
 16 17  1  0
 17 18  2  0
 17 19  2  0
 17 10  1  0
 10 11  2  0
 10 15  1  0
 11 12  1  0
 12 13  2  0
 13 14  1  0
 14  1  1  0
 14 15  2  0
  1  2  2  0
  1  9  1  0
  2  3  1  0
  3  4  1  0
  4  5  1  0
  4  9  2  0
  5  6  2  0
  6  7  1  0
  7 20  1  0
  7  8  2  0
 20 21  2  0
 20 22  1  0
 22 23  1  0
 23 24  1  0
 24 25  2  0
 24 29  1  0
 25 26  1  0
 26 27  2  0
 27 28  1  0
 28 29  2  0
  8  9  1  0
M  END
>  <minimizedAffinity>  (226) 
-8.86054

$$$$
data/200k_reference_output/data/smiles/53762.pdb
     RDKit          3D

 32 36  0  0  0  0  0  0  0  0999 V2000
   70.9574   49.5764   57.3269 C   0  0  0  0  0  0  0  0  0  0  0  0
   70.2232   48.4211   57.6763 C   0  0  0  0  0  0  0  0  0  0  0  0
   69.4986   47.8056   56.6759 C   0  0  0  0  0  0  0  0  0  0  0  0
   69.4193   48.2000   55.3498 C   0  0  0  0  0  0  0  0  0  0  0  0
   70.1496   49.3177   55.0392 C   0  0  0  0  0  0  0  0  0  0  0  0
   70.8552   49.9364   56.0171 C   0  0  0  0  0  0  0  0  0  0  0  0
   70.1520   49.5843   53.6466 C   0  0  0  0  0  0  0  0  0  0  0  0
   70.8256   50.5637   53.2887 O   0  0  0  0  0  0  0  0  0  0  0  0
   69.4611   48.7910   52.7276 N   0  0  0  0  0  0  0  0  0  0  0  0
   68.7527   47.6713   53.2139 C   0  0  0  0  0  0  0  0  0  0  0  0
   68.2707   46.6879   52.3700 C   0  0  0  0  0  0  0  0  0  0  0  0
   68.2929   46.9766   50.9878 F   0  0  0  0  0  0  0  0  0  0  0  0
   67.7981   45.5196   52.7887 C   0  0  0  0  0  0  0  0  0  0  0  0
   67.4440   44.5476   51.9196 F   0  0  0  0  0  0  0  0  0  0  0  0
   67.7288   45.1733   54.1728 C   0  0  0  0  0  0  0  0  0  0  0  0
   67.2601   44.0230   54.6082 F   0  0  0  0  0  0  0  0  0  0  0  0
   68.2217   46.1807   55.0246 C   0  0  0  0  0  0  0  0  0  0  0  0
   68.7103   47.3438   54.5545 C   0  0  0  0  0  0  0  0  0  0  0  0
   71.8382   50.2717   58.2354 C   0  0  0  0  0  0  0  0  0  0  0  0
   73.0311   49.7590   58.9038 C   0  0  1  0  0  0  0  0  0  0  0  0
   72.8742   48.4990   59.5709 N   0  0  0  0  0  0  0  0  0  0  0  0
   72.7261   47.5506   60.5026 C   0  0  0  0  0  0  0  0  0  0  0  0
   72.5656   47.8402   61.6765 O   0  0  0  0  0  0  0  0  0  0  0  0
   72.7838   46.1088   60.0815 C   0  0  1  0  0  0  0  0  0  0  0  0
   71.8323   45.2425   60.6448 N   0  0  0  0  0  0  0  0  0  0  0  0
   71.6377   44.2307   59.5817 C   0  0  2  0  0  0  0  0  0  0  0  0
   72.9292   43.6283   59.1458 C   0  0  0  0  0  0  0  0  0  0  0  0
   73.6752   44.6796   58.3534 C   0  0  0  0  0  0  0  0  0  0  0  0
   72.7974   45.8905   58.5987 C   0  0  1  0  0  0  0  0  0  0  0  0
   71.4081   45.2104   58.4284 C   0  0  0  0  0  0  0  0  0  0  0  0
   75.2243   49.2283   57.1731 N   0  0  0  0  0  0  0  0  0  0  0  0
   74.1170   49.5008   58.0544 C   0  0  0  0  0  0  0  0  0  0  0  0
 31 32  3  0
 20 32  1  6
 20 19  1  0
 20 21  1  0
 19  1  1  0
  1  2  2  0
  1  6  1  0
  2  3  1  0
  3  4  2  0
  4  5  1  0
  4 18  1  0
  5  6  2  0
  5  7  1  0
  7  8  2  0
  7  9  1  0
  9 10  1  0
 10 11  1  0
 10 18  2  0
 11 12  1  0
 11 13  2  0
 13 14  1  0
 13 15  1  0
 15 16  1  0
 15 17  2  0
 17 18  1  0
 21 22  1  0
 22 23  2  0
 24 22  1  6
 24 25  1  0
 24 29  1  0
 25 26  1  0
 26 27  1  6
 26 30  1  0
 27 28  1  0
 29 28  1  1
 29 30  1  0
M  CHG  1  25   1
M  END
>  <minimizedAffinity>  (227) 
-8.85976

$$$$
data/reference_output_2/data/smiles/167367.pdb
     RDKit          3D

 27 28  0  0  0  0  0  0  0  0999 V2000
   69.1162   47.8635   56.8568 S   0  0  0  0  0  0  0  0  0  0  0  0
   67.6793   47.4654   57.1193 O   0  0  0  0  0  0  0  0  0  0  0  0
   69.3544   49.1189   57.6432 O   0  0  0  0  0  0  0  0  0  0  0  0
   70.1156   46.5781   57.4721 C   0  0  0  0  0  0  0  0  0  0  0  0
   70.9162   46.7333   58.4977 C   0  0  0  0  0  0  0  0  0  0  0  0
   71.7651   45.6872   59.0406 C   0  0  0  0  0  0  0  0  0  0  0  0
   72.3359   45.7254   60.2891 C   0  0  0  0  0  0  0  0  0  0  0  0
   73.1435   44.6779   60.7447 C   0  0  0  0  0  0  0  0  0  0  0  0
   73.3922   43.5767   59.9548 C   0  0  0  0  0  0  0  0  0  0  0  0
   72.8279   43.5235   58.6984 C   0  0  0  0  0  0  0  0  0  0  0  0
   72.0365   44.5701   58.2769 C   0  0  0  0  0  0  0  0  0  0  0  0
   73.1064   42.3290   57.8592 C   0  0  0  0  0  0  0  0  0  0  0  0
   73.6451   42.7658   56.6571 F   0  0  0  0  0  0  0  0  0  0  0  0
   74.0720   41.5885   58.5139 F   0  0  0  0  0  0  0  0  0  0  0  0
   71.9743   41.5661   57.6618 F   0  0  0  0  0  0  0  0  0  0  0  0
   69.3859   48.1603   55.1866 N   0  0  0  0  0  0  0  0  0  0  0  0
   69.0088   47.7375   52.8239 C   0  0  0  0  0  0  0  0  0  0  0  0
   68.4984   47.0101   51.7917 C   0  0  0  0  0  0  0  0  0  0  0  0
   67.7838   45.8692   52.0795 C   0  0  0  0  0  0  0  0  0  0  0  0
   67.2554   45.1124   51.0837 F   0  0  0  0  0  0  0  0  0  0  0  0
   67.5893   45.4684   53.3985 C   0  0  0  0  0  0  0  0  0  0  0  0
   68.1306   46.2449   54.4054 C   0  0  0  0  0  0  0  0  0  0  0  0
   68.8421   47.3793   54.1532 C   0  0  0  0  0  0  0  0  0  0  0  0
   69.2267   50.5516   53.2940 N   0  0  0  0  0  0  0  0  0  0  0  0
   69.9164   49.1851   52.4907 S   0  0  0  0  0  0  0  0  0  0  0  0
   71.3398   48.9715   52.9720 O   0  0  0  0  0  0  0  0  0  0  0  0
   69.9924   49.3812   51.0137 O   0  0  0  0  0  0  0  0  0  0  0  0
 24 25  1  0
 25 26  2  0
 25 27  2  0
 25 17  1  0
 17 18  2  0
 17 23  1  0
 18 19  1  0
 19 20  1  0
 19 21  2  0
 21 22  1  0
 22 23  2  0
 23 16  1  0
 16  1  1  0
  1  2  2  0
  1  3  2  0
  1  4  1  0
  4  5  2  0
  5  6  1  0
  6  7  2  0
  6 11  1  0
  7  8  1  0
  8  9  2  0
  9 10  1  0
 10 12  1  0
 10 11  2  0
 12 13  1  0
 12 14  1  0
 12 15  1  0
M  END
>  <minimizedAffinity>  (228) 
-8.85926

$$$$
data/200k_reference_output/data/smiles/23998.pdb
     RDKit          3D

 31 34  0  0  0  0  0  0  0  0999 V2000
   71.1105   45.3576   59.9124 O   0  0  0  0  0  0  0  0  0  0  0  0
   70.8188   44.8996   58.7811 C   0  0  0  0  0  0  0  0  0  0  0  0
   70.6845   43.4934   58.6424 N   0  0  0  0  0  0  0  0  0  0  0  0
   70.8782   42.6120   59.7700 C   0  0  0  0  0  0  0  0  0  0  0  0
   70.4187   41.2055   59.3954 C   0  0  0  0  0  0  0  0  0  0  0  0
   69.1220   41.3460   58.7938 N   0  0  0  0  0  0  0  0  0  0  0  0
   69.0328   42.1406   57.5895 C   0  0  0  0  0  0  0  0  0  0  0  0
   70.3498   42.8956   57.3676 C   0  0  0  0  0  0  0  0  0  0  0  0
   67.9745   40.7397   59.3681 C   0  0  0  0  0  0  0  0  0  0  0  0
   67.1490   41.3829   60.2613 C   0  0  0  0  0  0  0  0  0  0  0  0
   66.0275   40.7890   60.8046 C   0  0  0  0  0  0  0  0  0  0  0  0
   65.7255   39.5063   60.4382 C   0  0  0  0  0  0  0  0  0  0  0  0
   66.5493   38.8563   59.5441 C   0  0  0  0  0  0  0  0  0  0  0  0
   66.2435   37.5832   59.1849 F   0  0  0  0  0  0  0  0  0  0  0  0
   67.6591   39.4269   58.9988 C   0  0  0  0  0  0  0  0  0  0  0  0
   68.4627   38.7503   58.1166 F   0  0  0  0  0  0  0  0  0  0  0  0
   70.6336   45.8381   57.6748 C   0  0  0  0  0  0  0  0  0  0  0  0
   69.2861   45.8577   57.1593 N   0  0  0  0  0  0  0  0  0  0  0  0
   68.7923   47.4528   56.7797 S   0  0  0  0  0  0  0  0  0  0  0  0
   69.5580   48.3903   57.7070 O   0  0  0  0  0  0  0  0  0  0  0  0
   67.3445   47.6890   57.1228 O   0  0  0  0  0  0  0  0  0  0  0  0
   69.1573   47.9334   55.1520 C   0  0  0  0  0  0  0  0  0  0  0  0
   69.9387   49.0711   54.9076 C   0  0  0  0  0  0  0  0  0  0  0  0
   70.2793   49.4598   53.6378 C   0  0  0  0  0  0  0  0  0  0  0  0
   69.8654   48.7477   52.5483 C   0  0  0  0  0  0  0  0  0  0  0  0
   69.0957   47.6266   52.7529 C   0  0  0  0  0  0  0  0  0  0  0  0
   68.6625   46.9055   51.6614 C   0  0  0  0  0  0  0  0  0  0  0  0
   67.8960   45.8059   51.8284 N   0  0  0  0  0  0  0  0  0  0  0  0
   67.5598   45.4252   53.0781 C   0  0  0  0  0  0  0  0  0  0  0  0
   67.9603   46.1021   54.2091 C   0  0  0  0  0  0  0  0  0  0  0  0
   68.7461   47.2277   54.0487 C   0  0  0  0  0  0  0  0  0  0  0  0
  1  2  2  0
  2 17  1  0
  2  3  1  0
 17 18  1  0
 18 19  1  0
 19 20  2  0
 19 21  2  0
 19 22  1  0
 22 23  2  0
 22 31  1  0
 23 24  1  0
 24 25  2  0
 25 26  1  0
 26 27  1  0
 26 31  2  0
 27 28  2  0
 28 29  1  0
 29 30  2  0
 30 31  1  0
  3  4  1  0
  3  8  1  0
  4  5  1  0
  5  6  1  0
  6  9  1  0
  6  7  1  0
  9 10  2  0
  9 15  1  0
 10 11  1  0
 11 12  2  0
 12 13  1  0
 13 14  1  0
 13 15  2  0
 15 16  1  0
  7  8  1  0
M  END
>  <minimizedAffinity>  (229) 
-8.85923

$$$$
data/reference_output_2/data/smiles/191723.pdb
     RDKit          3D

 30 33  0  0  0  0  0  0  0  0999 V2000
   69.9475   50.8797   54.1138 C   0  0  0  0  0  0  0  0  0  0  0  0
   68.7804   51.1544   53.6457 O   0  0  0  0  0  0  0  0  0  0  0  0
   70.3826   51.7238   55.1278 N   0  0  0  0  0  0  0  0  0  0  0  0
   71.5997   51.6216   55.9009 C   0  0  0  0  0  0  0  0  0  0  0  0
   71.1010   51.5769   57.3764 C   0  0  0  0  0  0  0  0  0  0  0  0
   69.6704   51.2713   57.3370 N   0  0  0  0  0  0  0  0  0  0  0  0
   69.1563   50.0111   57.7075 C   0  0  0  0  0  0  0  0  0  0  0  0
   67.9338   49.7220   57.6593 O   0  0  0  0  0  0  0  0  0  0  0  0
   68.8181   52.3606   56.8615 C   0  0  0  0  0  0  0  0  0  0  0  0
   69.5200   52.8508   55.5777 C   0  0  0  0  0  0  0  0  0  0  0  0
   70.0298   48.9291   58.1843 C   0  0  0  0  0  0  0  0  0  0  0  0
   70.9578   49.0965   59.1723 C   0  0  0  0  0  0  0  0  0  0  0  0
   71.7424   48.0442   59.5582 C   0  0  0  0  0  0  0  0  0  0  0  0
   72.6834   48.1911   60.5489 F   0  0  0  0  0  0  0  0  0  0  0  0
   71.6206   46.8037   58.9706 C   0  0  0  0  0  0  0  0  0  0  0  0
   72.3912   45.7378   59.3397 F   0  0  0  0  0  0  0  0  0  0  0  0
   70.6714   46.6625   57.9691 C   0  0  0  0  0  0  0  0  0  0  0  0
   70.5215   45.4543   57.3543 F   0  0  0  0  0  0  0  0  0  0  0  0
   69.8689   47.6998   57.5602 C   0  0  0  0  0  0  0  0  0  0  0  0
   71.9293   49.8040   53.6658 O   0  0  0  0  0  0  0  0  0  0  0  0
   70.6433   49.7609   53.5573 C   0  0  0  0  0  0  0  0  0  0  0  0
   70.1233   48.5937   52.8914 C   0  0  0  0  0  0  0  0  0  0  0  0
   70.2828   48.3120   51.5152 C   0  0  0  0  0  0  0  0  0  0  0  0
   69.5674   47.2434   51.1769 N   0  0  0  0  0  0  0  0  0  0  0  0
   68.9200   46.7780   52.2775 C   0  0  0  0  0  0  0  0  0  0  0  0
   68.1032   45.6950   52.4813 C   0  0  0  0  0  0  0  0  0  0  0  0
   67.6000   45.3993   53.7505 C   0  0  0  0  0  0  0  0  0  0  0  0
   67.9404   46.2133   54.7942 C   0  0  0  0  0  0  0  0  0  0  0  0
   68.7619   47.3005   54.5905 C   0  0  0  0  0  0  0  0  0  0  0  0
   69.2698   47.6213   53.3443 C   0  0  0  0  0  0  0  0  0  0  0  0
 20 21  2  0
 21  1  1  0
 21 22  1  0
  1  2  2  0
  1  3  1  0
  3  4  1  0
  3 10  1  0
  4  5  1  0
  5  6  1  0
  6  7  1  0
  6  9  1  0
  7  8  2  0
  7 11  1  0
 11 12  2  0
 11 19  1  0
 12 13  1  0
 13 14  1  0
 13 15  2  0
 15 16  1  0
 15 17  1  0
 17 18  1  0
 17 19  2  0
  9 10  1  0
 22 23  2  0
 22 30  1  0
 23 24  1  0
 24 25  1  0
 25 26  1  0
 25 30  2  0
 26 27  2  0
 27 28  1  0
 28 29  2  0
 29 30  1  0
M  END
>  <minimizedAffinity>  (230) 
-8.85852

$$$$
data/200k_reference_output/data/smiles/44740.pdb
     RDKit          3D

 31 34  0  0  0  0  0  0  0  0999 V2000
   69.8507   46.9151   56.8701 N   0  0  0  0  0  0  0  0  0  0  0  0
   70.6576   46.7418   58.0006 C   0  0  0  0  0  0  0  0  0  0  0  0
   70.9481   47.7759   58.6883 O   0  0  0  0  0  0  0  0  0  0  0  0
   71.1698   45.4244   58.4055 C   0  0  0  0  0  0  0  0  0  0  0  0
   72.2810   45.3189   59.2095 C   0  0  0  0  0  0  0  0  0  0  0  0
   72.7608   44.1013   59.6352 C   0  0  0  0  0  0  0  0  0  0  0  0
   72.1244   42.9422   59.2578 C   0  0  0  0  0  0  0  0  0  0  0  0
   71.0100   43.0147   58.4518 C   0  0  0  0  0  0  0  0  0  0  0  0
   70.3640   41.8411   58.0657 C   0  0  0  0  0  0  0  0  0  0  0  0
   70.7618   40.7133   58.4288 O   0  0  0  0  0  0  0  0  0  0  0  0
   69.2519   41.9277   57.2600 C   0  0  0  0  0  0  0  0  0  0  0  0
   68.5713   40.7903   56.8293 C   0  0  0  0  0  0  0  0  0  0  0  0
   67.4554   40.8762   56.0037 C   0  0  0  0  0  0  0  0  0  0  0  0
   66.9869   42.1053   55.5855 C   0  0  0  0  0  0  0  0  0  0  0  0
   67.6732   43.2363   56.0196 C   0  0  0  0  0  0  0  0  0  0  0  0
   68.7868   43.1595   56.8430 C   0  0  0  0  0  0  0  0  0  0  0  0
   69.4562   44.2550   57.2547 N   0  0  0  0  0  0  0  0  0  0  0  0
   70.5348   44.2616   58.0294 C   0  0  0  0  0  0  0  0  0  0  0  0
   69.4017   48.2170   56.4565 C   0  0  2  0  0  0  0  0  0  0  0  0
   68.0801   48.5858   56.9886 C   0  0  0  0  0  0  0  0  0  0  0  0
   67.2979   47.5962   57.3226 O   0  0  0  0  0  0  0  0  0  0  0  0
   68.4090   50.9840   57.5396 C   0  0  0  0  0  0  0  0  0  0  0  0
   67.6241   49.8472   57.1410 O   0  0  0  0  0  0  0  0  0  0  0  0
   69.6340   48.4788   55.0115 C   0  0  0  0  0  0  0  0  0  0  0  0
   68.9774   47.5696   54.0735 C   0  0  0  0  0  0  0  0  0  0  0  0
   68.1887   46.5190   54.5270 C   0  0  0  0  0  0  0  0  0  0  0  0
   67.5289   45.6534   53.7048 C   0  0  0  0  0  0  0  0  0  0  0  0
   67.6488   45.8286   52.3126 C   0  0  0  0  0  0  0  0  0  0  0  0
   66.9764   44.9540   51.4528 O   0  0  0  0  0  0  0  0  0  0  0  0
   68.4196   46.8560   51.8304 C   0  0  0  0  0  0  0  0  0  0  0  0
   69.0787   47.7194   52.7225 C   0  0  0  0  0  0  0  0  0  0  0  0
 22 23  1  0
 23 20  1  0
 20 21  2  0
 20 19  1  0
 19 24  1  6
 19  1  1  0
 24 25  1  0
 25 26  2  0
 25 31  1  0
 26 27  1  0
 27 28  2  0
 28 29  1  0
 28 30  1  0
 30 31  2  0
  1  2  1  0
  2  3  2  0
  2  4  1  0
  4  5  2  0
  4 18  1  0
  5  6  1  0
  6  7  2  0
  7  8  1  0
  8  9  1  0
  8 18  2  0
  9 10  2  0
  9 11  1  0
 11 12  1  0
 11 16  2  0
 12 13  2  0
 13 14  1  0
 14 15  2  0
 15 16  1  0
 16 17  1  0
 17 18  1  0
M  END
>  <minimizedAffinity>  (231) 
-8.85605

$$$$
data/reference_output_2/data/smiles/149278.pdb
     RDKit          3D

 30 33  0  0  0  0  0  0  0  0999 V2000
   73.8327   47.8735   58.6091 N   0  0  0  0  0  0  0  0  0  0  0  0
   75.2120   47.9567   58.0876 C   0  0  0  0  0  0  0  0  0  0  0  0
   75.4179   49.4026   57.5842 C   0  0  0  0  0  0  0  0  0  0  0  0
   74.1245   49.9500   57.2120 N   0  0  0  0  0  0  0  0  0  0  0  0
   73.8089   50.1958   55.8530 C   0  0  0  0  0  0  0  0  0  0  0  0
   74.6569   49.9434   54.9521 O   0  0  0  0  0  0  0  0  0  0  0  0
   73.1968   50.2194   58.2916 C   0  0  0  0  0  0  0  0  0  0  0  0
   73.3849   49.0580   59.2793 C   0  0  0  0  0  0  0  0  0  0  0  0
   70.6888   43.1343   57.8868 C   0  0  0  0  0  0  0  0  0  0  0  0
   71.5237   44.3488   58.0732 C   0  0  0  0  0  0  0  0  0  0  0  0
   72.8987   44.3309   57.9794 C   0  0  0  0  0  0  0  0  0  0  0  0
   73.6666   45.4890   58.1579 C   0  0  0  0  0  0  0  0  0  0  0  0
   73.0694   46.6966   58.4374 C   0  0  0  0  0  0  0  0  0  0  0  0
   71.6987   46.7032   58.5298 C   0  0  0  0  0  0  0  0  0  0  0  0
   70.9206   45.5548   58.3532 C   0  0  0  0  0  0  0  0  0  0  0  0
   72.5099   50.7436   55.4302 C   0  0  0  0  0  0  0  0  0  0  0  0
   72.0976   50.2547   54.1642 N   0  0  0  0  0  0  0  0  0  0  0  0
   70.4690   50.4196   53.7864 S   0  0  0  0  0  0  0  0  0  0  0  0
   69.7078   50.9020   54.9902 O   0  0  0  0  0  0  0  0  0  0  0  0
   70.2749   51.4306   52.6966 O   0  0  0  0  0  0  0  0  0  0  0  0
   69.7843   48.8569   53.3317 C   0  0  0  0  0  0  0  0  0  0  0  0
   69.7479   48.4351   52.0126 C   0  0  0  0  0  0  0  0  0  0  0  0
   69.2287   47.2371   51.6158 C   0  0  0  0  0  0  0  0  0  0  0  0
   68.7095   46.3944   52.5772 C   0  0  0  0  0  0  0  0  0  0  0  0
   68.7179   46.7595   53.9016 C   0  0  0  0  0  0  0  0  0  0  0  0
   68.1893   45.8893   54.8322 C   0  0  0  0  0  0  0  0  0  0  0  0
   68.2075   46.2669   56.1347 N   0  0  0  0  0  0  0  0  0  0  0  0
   68.7287   47.4627   56.5056 C   0  0  0  0  0  0  0  0  0  0  0  0
   69.2616   48.3452   55.5845 C   0  0  0  0  0  0  0  0  0  0  0  0
   69.2570   47.9891   54.2617 C   0  0  0  0  0  0  0  0  0  0  0  0
  9 10  1  0
 10 11  2  0
 10 15  1  0
 11 12  1  0
 12 13  2  0
 13  1  1  0
 13 14  1  0
  1  2  1  0
  1  8  1  0
  2  3  1  0
  3  4  1  0
  4  5  1  0
  4  7  1  0
  5  6  2  0
  5 16  1  0
 16 17  1  0
 17 18  1  0
 18 19  2  0
 18 20  2  0
 18 21  1  0
 21 22  2  0
 21 30  1  0
 22 23  1  0
 23 24  2  0
 24 25  1  0
 25 26  1  0
 25 30  2  0
 26 27  2  0
 27 28  1  0
 28 29  2  0
 29 30  1  0
  7  8  1  0
 14 15  2  0
M  END
>  <minimizedAffinity>  (232) 
-8.85270

$$$$
data/reference_output_2/data/smiles/106950.pdb
     RDKit          3D

 31 34  0  0  0  0  0  0  0  0999 V2000
   74.2546   50.4009   56.5444 C   0  0  0  0  0  0  0  0  0  0  0  0
   74.6471   49.1639   57.1944 C   0  0  0  0  0  0  0  0  0  0  0  0
   75.9076   48.8553   56.8749 O   0  0  0  0  0  0  0  0  0  0  0  0
   73.9931   48.2749   58.0491 N   0  0  0  0  0  0  0  0  0  0  0  0
   74.7795   47.0992   58.5137 C   0  0  0  0  0  0  0  0  0  0  0  0
   74.0689   45.8263   58.2488 C   0  0  0  0  0  0  0  0  0  0  0  0
   72.6511   45.9505   58.5864 N   0  0  0  0  0  0  0  0  0  0  0  0
   72.2650   47.1215   59.3184 C   0  0  0  0  0  0  0  0  0  0  0  0
   72.6316   48.3892   58.5157 C   0  0  0  0  0  0  0  0  0  0  0  0
   71.7718   44.9068   58.1661 C   0  0  0  0  0  0  0  0  0  0  0  0
   72.2317   43.5974   58.1129 C   0  0  0  0  0  0  0  0  0  0  0  0
   71.4324   42.5509   57.7118 C   0  0  0  0  0  0  0  0  0  0  0  0
   70.1262   42.7935   57.3491 C   0  0  0  0  0  0  0  0  0  0  0  0
   69.3339   41.7574   56.9524 F   0  0  0  0  0  0  0  0  0  0  0  0
   69.6172   44.0705   57.3832 C   0  0  0  0  0  0  0  0  0  0  0  0
   70.4638   45.1001   57.7945 C   0  0  0  0  0  0  0  0  0  0  0  0
   73.3438   50.3288   53.9084 O   0  0  0  0  0  0  0  0  0  0  0  0
   72.4922   50.5944   54.8064 C   0  0  0  0  0  0  0  0  0  0  0  0
   72.9086   50.6476   56.1986 N   0  0  0  0  0  0  0  0  0  0  0  0
   71.0951   50.8452   54.4126 C   0  0  0  0  0  0  0  0  0  0  0  0
   70.3270   49.6137   54.4249 N   0  0  0  0  0  0  0  0  0  0  0  0
   69.9535   49.0533   55.6015 C   0  0  0  0  0  0  0  0  0  0  0  0
   69.2177   47.8921   55.6056 C   0  0  0  0  0  0  0  0  0  0  0  0
   68.8484   47.2831   54.4122 C   0  0  0  0  0  0  0  0  0  0  0  0
   68.1128   46.1231   54.3542 C   0  0  0  0  0  0  0  0  0  0  0  0
   67.7915   45.5877   53.1356 C   0  0  0  0  0  0  0  0  0  0  0  0
   68.1806   46.1732   51.9433 C   0  0  0  0  0  0  0  0  0  0  0  0
   68.9177   47.3350   52.0019 C   0  0  0  0  0  0  0  0  0  0  0  0
   69.2468   47.8840   53.2460 C   0  0  0  0  0  0  0  0  0  0  0  0
   69.9835   49.0455   53.2762 C   0  0  0  0  0  0  0  0  0  0  0  0
   70.3518   49.5969   52.1771 O   0  0  0  0  0  0  0  0  0  0  0  0
 17 18  2  0
 18 20  1  0
 18 19  1  0
 20 21  1  0
 21 22  1  0
 21 30  1  0
 22 23  2  0
 23 24  1  0
 24 25  2  0
 24 29  1  0
 25 26  1  0
 26 27  2  0
 27 28  1  0
 28 29  2  0
 29 30  1  0
 30 31  2  0
 19  1  1  0
  1  2  1  0
  2  3  2  0
  2  4  1  0
  4  5  1  0
  4  9  1  0
  5  6  1  0
  6  7  1  0
  7 10  1  0
  7  8  1  0
 10 11  2  0
 10 16  1  0
 11 12  1  0
 12 13  2  0
 13 14  1  0
 13 15  1  0
 15 16  2  0
  8  9  1  0
M  END
>  <minimizedAffinity>  (233) 
-8.85150

$$$$
data/reference_output_2/data/smiles/132550.pdb
     RDKit          3D

 29 32  0  0  0  0  0  0  0  0999 V2000
   70.8749   43.3467   59.0413 C   0  0  0  0  0  0  0  0  0  0  0  0
   72.0137   42.7932   58.2238 C   0  0  0  0  0  0  0  0  0  0  0  0
   72.0097   41.2905   58.4320 C   0  0  0  0  0  0  0  0  0  0  0  0
   70.7539   40.6884   58.1111 N   0  0  0  0  0  0  0  0  0  0  0  0
   69.7365   41.5777   57.6612 C   0  0  0  0  0  0  0  0  0  0  0  0
   69.5765   42.8312   58.4575 C   0  0  0  0  0  0  0  0  0  0  0  0
   71.3864   45.4397   59.9140 O   0  0  0  0  0  0  0  0  0  0  0  0
   70.8101   44.8275   59.0013 C   0  0  0  0  0  0  0  0  0  0  0  0
   70.1391   45.5459   57.9960 N   0  0  0  0  0  0  0  0  0  0  0  0
   70.0070   46.9590   57.8337 C   0  0  0  0  0  0  0  0  0  0  0  0
   68.9610   47.4636   56.8984 C   0  0  1  0  0  0  0  0  0  0  0  0
   69.2497   48.6974   56.1609 C   0  0  0  0  0  0  0  0  0  0  0  0
   69.3818   48.5297   54.7598 O   0  0  0  0  0  0  0  0  0  0  0  0
   68.8301   47.4524   54.0901 C   0  0  0  0  0  0  0  0  0  0  0  0
   68.8126   47.4425   52.7131 C   0  0  0  0  0  0  0  0  0  0  0  0
   68.2575   46.3598   52.0222 C   0  0  0  0  0  0  0  0  0  0  0  0
   67.7349   45.3168   52.7154 C   0  0  0  0  0  0  0  0  0  0  0  0
   67.7581   45.3364   54.1215 C   0  0  0  0  0  0  0  0  0  0  0  0
   68.3008   46.3954   54.7979 C   0  0  0  0  0  0  0  0  0  0  0  0
   68.3283   46.4235   56.1615 O   0  0  0  0  0  0  0  0  0  0  0  0
   70.2333   39.4897   59.1992 S   0  0  0  0  0  0  0  0  0  0  0  0
   70.6379   39.9163   60.5893 O   0  0  0  0  0  0  0  0  0  0  0  0
   68.7503   39.3412   59.2002 O   0  0  0  0  0  0  0  0  0  0  0  0
   70.9481   37.9186   58.8834 C   0  0  0  0  0  0  0  0  0  0  0  0
   71.8329   37.7511   57.8402 C   0  0  0  0  0  0  0  0  0  0  0  0
   72.3884   36.5221   57.5972 C   0  0  0  0  0  0  0  0  0  0  0  0
   72.1117   35.4045   58.3538 C   0  0  0  0  0  0  0  0  0  0  0  0
   71.2226   35.5924   59.3964 C   0  0  0  0  0  0  0  0  0  0  0  0
   70.6541   36.8179   59.6550 C   0  0  0  0  0  0  0  0  0  0  0  0
  7  8  2  0
  8  9  1  0
  8  1  1  0
  9 10  1  0
 11 10  1  6
 11 12  1  0
 11 20  1  0
 12 13  1  0
 13 14  1  0
 14 15  2  0
 14 19  1  0
 15 16  1  0
 16 17  2  0
 17 18  1  0
 18 19  2  0
 19 20  1  0
  1  2  1  0
  1  6  1  0
  2  3  1  0
  3  4  1  0
  4 21  1  0
  4  5  1  0
 21 22  2  0
 21 23  2  0
 21 24  1  0
 24 25  2  0
 24 29  1  0
 25 26  1  0
 26 27  2  0
 27 28  1  0
 28 29  2  0
  5  6  1  0
M  END
>  <minimizedAffinity>  (234) 
-8.85138

$$$$
data/200k_reference_output/data/smiles/17810.pdb
     RDKit          3D

 31 34  0  0  0  0  0  0  0  0999 V2000
   71.2438   38.0737   59.8525 N   0  0  0  0  0  0  0  0  0  0  0  0
   70.8718   37.0439   60.7250 C   0  0  0  0  0  0  0  0  0  0  0  0
   71.2370   35.7402   60.4546 N   0  0  0  0  0  0  0  0  0  0  0  0
   71.9618   35.4524   59.3504 C   0  0  0  0  0  0  0  0  0  0  0  0
   72.1179   34.0966   58.8516 C   0  0  0  0  0  0  0  0  0  0  0  0
   72.6215   33.8563   57.5946 C   0  0  0  0  0  0  0  0  0  0  0  0
   73.0664   34.8418   56.6378 C   0  0  0  0  0  0  0  0  0  0  0  0
   72.8703   36.1595   57.3144 C   0  0  0  0  0  0  0  0  0  0  0  0
   72.3867   36.3814   58.4728 C   0  0  0  0  0  0  0  0  0  0  0  0
   71.9562   37.7052   58.8277 C   0  0  0  0  0  0  0  0  0  0  0  0
   72.3268   38.6575   57.9821 O   0  0  0  0  0  0  0  0  0  0  0  0
   73.1311   34.8819   55.4434 C   0  0  0  0  0  0  0  0  0  0  0  0
   73.1952   34.9160   54.2171 C   0  0  0  0  0  0  0  0  0  0  0  0
   73.2565   34.9692   52.5291 C   0  0  0  0  0  0  0  0  0  0  0  0
   74.6797   35.1857   52.4248 C   0  0  0  0  0  0  0  0  0  0  0  0
   75.4484   35.9856   53.1400 C   0  0  0  0  0  0  0  0  0  0  0  0
   76.8499   36.1188   53.0695 C   0  0  0  0  0  0  0  0  0  0  0  0
   77.4725   35.3085   52.1351 C   0  0  0  0  0  0  0  0  0  0  0  0
   76.7210   34.4720   51.3865 C   0  0  0  0  0  0  0  0  0  0  0  0
   75.3953   34.3263   51.4297 C   0  0  0  0  0  0  0  0  0  0  0  0
   70.6316   39.3420   59.9305 C   0  0  0  0  0  0  0  0  0  0  0  0
   67.8427   40.9606   56.9711 C   0  0  0  0  0  0  0  0  0  0  0  0
   67.8599   39.6793   57.4167 C   0  0  0  0  0  0  0  0  0  0  0  0
   68.7415   39.0957   58.3577 C   0  0  0  0  0  0  0  0  0  0  0  0
   69.6354   39.7950   58.8689 C   0  0  0  0  0  0  0  0  0  0  0  0
   69.8277   41.1817   58.5903 C   0  0  0  0  0  0  0  0  0  0  0  0
   68.9812   41.7021   57.7087 C   0  0  0  0  0  0  0  0  0  0  0  0
   66.3174   41.0964   54.6239 N   0  0  0  0  0  0  0  0  0  0  0  0
   66.8869   41.9543   56.0096 S   0  0  0  0  0  0  0  0  0  0  0  0
   67.4245   43.2868   55.6051 O   0  0  0  0  0  0  0  0  0  0  0  0
   65.6007   42.2645   56.9404 O   0  0  0  0  0  0  0  0  0  0  0  0
 28 29  1  0
 29 30  2  0
 29 31  2  0
 29 22  1  0
 22 23  2  0
 22 27  1  0
 23 24  1  0
 24 25  2  0
 25 21  1  0
 25 26  1  0
 21  1  1  0
  1  2  1  0
  1 10  1  0
  2  3  2  0
  3  4  1  0
  4  5  2  0
  4  9  1  0
  5  6  1  0
  6  7  2  0
  7 12  1  0
  7  8  1  0
 12 13  3  0
 13 14  1  0
 14 15  1  0
 15 16  2  0
 15 20  1  0
 16 17  1  0
 17 18  2  0
 18 19  1  0
 19 20  2  0
  8  9  2  0
  9 10  1  0
 10 11  2  0
 26 27  2  0
M  END
>  <minimizedAffinity>  (235) 
-8.85118

$$$$
data/200k_reference_output/data/smiles/60579.pdb
     RDKit          3D

 30 32  0  0  0  0  0  0  0  0999 V2000
   68.6144   43.2040   57.0184 N   0  0  0  0  0  0  0  0  0  0  0  0
   69.5006   42.4046   57.7719 C   0  0  0  0  0  0  0  0  0  0  0  0
   70.6407   42.8768   58.0113 O   0  0  0  0  0  0  0  0  0  0  0  0
   69.1616   41.0771   58.2778 C   0  0  0  0  0  0  0  0  0  0  0  0
   70.0180   40.0431   58.2495 N   0  0  0  0  0  0  0  0  0  0  0  0
   69.7340   38.8287   58.7023 N   0  0  0  0  0  0  0  0  0  0  0  0
   68.5142   38.5855   59.2327 C   0  0  0  0  0  0  0  0  0  0  0  0
   67.5787   39.5889   59.2995 C   0  0  0  0  0  0  0  0  0  0  0  0
   67.9165   40.8332   58.8174 C   0  0  0  0  0  0  0  0  0  0  0  0
   67.0757   41.7944   58.8613 O   0  0  0  0  0  0  0  0  0  0  0  0
   70.6379   37.7529   58.6669 C   0  0  0  0  0  0  0  0  0  0  0  0
   71.6756   37.7507   57.7748 C   0  0  0  0  0  0  0  0  0  0  0  0
   72.5807   36.6774   57.7369 C   0  0  0  0  0  0  0  0  0  0  0  0
   72.4382   35.6082   58.5980 C   0  0  0  0  0  0  0  0  0  0  0  0
   73.3281   34.5676   58.5507 F   0  0  0  0  0  0  0  0  0  0  0  0
   71.3965   35.6217   59.4861 C   0  0  0  0  0  0  0  0  0  0  0  0
   70.4925   36.6960   59.5224 C   0  0  0  0  0  0  0  0  0  0  0  0
   67.4926   44.2675   54.7835 O   0  0  0  0  0  0  0  0  0  0  0  0
   68.3353   45.0071   55.3654 C   0  0  0  0  0  0  0  0  0  0  0  0
   68.9352   44.4791   56.5310 N   0  0  0  0  0  0  0  0  0  0  0  0
   68.6425   46.3417   54.8173 C   0  0  0  0  0  0  0  0  0  0  0  0
   68.6460   46.5870   53.4631 C   0  0  0  0  0  0  0  0  0  0  0  0
   68.9447   47.8704   52.9939 C   0  0  0  0  0  0  0  0  0  0  0  0
   69.2384   48.9164   53.8379 C   0  0  0  0  0  0  0  0  0  0  0  0
   69.2320   48.6604   55.1913 C   0  0  0  0  0  0  0  0  0  0  0  0
   68.9381   47.3964   55.6551 C   0  0  0  0  0  0  0  0  0  0  0  0
   69.5460   50.2554   53.2656 C   0  0  0  0  0  0  0  0  0  0  0  0
   69.5846   50.2073   51.8864 F   0  0  0  0  0  0  0  0  0  0  0  0
   68.5260   51.1036   53.6849 F   0  0  0  0  0  0  0  0  0  0  0  0
   70.7194   50.7490   53.7494 F   0  0  0  0  0  0  0  0  0  0  0  0
 18 19  2  0
 19 20  1  0
 19 21  1  0
 20  1  1  0
  1  2  1  0
  2  3  2  0
  2  4  1  0
  4  5  2  0
  4  9  1  0
  5  6  1  0
  6 11  1  0
  6  7  1  0
 11 12  2  0
 11 17  1  0
 12 13  1  0
 13 14  2  0
 14 15  1  0
 14 16  1  0
 16 17  2  0
  7  8  2  0
  8  9  1  0
  9 10  2  0
 21 22  2  0
 21 26  1  0
 22 23  1  0
 23 24  2  0
 24 27  1  0
 24 25  1  0
 27 28  1  0
 27 29  1  0
 27 30  1  0
 25 26  2  0
M  END
>  <minimizedAffinity>  (236) 
-8.85107

$$$$
data/reference_output_2/data/smiles/185656.pdb
     RDKit          3D

 31 34  0  0  0  0  0  0  0  0999 V2000
   71.7243   41.4828   58.2189 C   0  0  1  0  0  0  0  0  0  0  0  0
   71.6765   40.0886   58.4168 C   0  0  0  0  0  0  0  0  0  0  0  0
   71.6135   38.8126   58.6093 C   0  0  0  0  0  0  0  0  0  0  0  0
   71.5483   37.5154   58.8210 C   0  0  0  0  0  0  0  0  0  0  0  0
   70.1934   37.1770   59.5386 C   0  0  0  0  0  0  0  0  0  0  0  0
   69.6988   38.3522   59.6058 C   0  0  0  0  0  0  0  0  0  0  0  0
   69.2114   39.4710   59.6547 C   0  0  0  0  0  0  0  0  0  0  0  0
   68.6838   40.7368   59.7000 C   0  0  0  0  0  0  0  0  0  0  0  0
   69.3306   41.1088   58.3347 C   0  0  1  0  0  0  0  0  0  0  0  0
   68.8439   41.8863   57.3053 C   0  0  0  0  0  0  0  0  0  0  0  0
   68.0087   41.7883   56.3656 O   0  0  0  0  0  0  0  0  0  0  0  0
   69.7287   43.0545   57.6954 N   0  0  0  0  0  0  0  0  0  0  0  0
   69.4760   44.3748   57.2575 C   0  0  0  0  0  0  0  0  0  0  0  0
   69.9438   45.3786   57.9365 O   0  0  0  0  0  0  0  0  0  0  0  0
   68.7142   44.7351   56.1016 N   0  0  0  0  0  0  0  0  0  0  0  0
   70.3777   42.1597   58.5514 C   0  0  2  0  0  0  0  0  0  0  0  0
   72.7169   42.1824   58.8799 O   0  0  0  0  0  0  0  0  0  0  0  0
   75.1496   42.5482   58.2310 C   0  0  0  0  0  0  0  0  0  0  0  0
   73.7175   42.8620   58.1846 C   0  0  0  0  0  0  0  0  0  0  0  0
   73.3867   43.8306   57.4484 O   0  0  0  0  0  0  0  0  0  0  0  0
   68.3822   46.1179   55.7941 C   0  0  0  0  0  0  0  0  0  0  0  0
   68.3478   46.2561   54.3682 C   0  0  0  0  0  0  0  0  0  0  0  0
   67.7996   45.4832   53.3629 C   0  0  0  0  0  0  0  0  0  0  0  0
   67.8032   45.6947   52.0602 C   0  0  0  0  0  0  0  0  0  0  0  0
   68.4021   46.8344   51.4179 C   0  0  0  0  0  0  0  0  0  0  0  0
   68.9617   47.6294   52.4497 C   0  0  0  0  0  0  0  0  0  0  0  0
   69.6246   48.7792   51.8567 C   0  0  0  0  0  0  0  0  0  0  0  0
   70.2514   49.6535   52.7157 C   0  0  0  0  0  0  0  0  0  0  0  0
   70.2406   49.4067   54.0590 C   0  0  0  0  0  0  0  0  0  0  0  0
   69.6142   48.3235   54.5880 C   0  0  0  0  0  0  0  0  0  0  0  0
   68.9722   47.4408   53.7017 C   0  0  0  0  0  0  0  0  0  0  0  0
 18 19  1  0
 19 20  2  0
 19 17  1  0
  1 17  1  1
  1  2  1  0
  1 16  1  0
  2  3  3  0
  3  4  1  0
  4  5  2  0
  5  6  1  0
  6  7  3  0
  7  8  1  0
  9  8  1  1
  9 10  1  0
  9 16  1  0
 10 11  2  0
 10 12  1  0
 12 13  1  0
 16 12  1  6
 13 14  2  0
 13 15  1  0
 15 21  1  0
 21 22  1  0
 22 23  2  0
 22 31  1  0
 23 24  1  0
 24 25  2  0
 25 26  1  0
 26 27  1  0
 26 31  2  0
 27 28  2  0
 28 29  1  0
 29 30  2  0
 30 31  1  0
M  END
>  <minimizedAffinity>  (237) 
-8.85091

$$$$
data/200k_reference_output/data/smiles/16415.pdb
     RDKit          3D

 28 31  0  0  0  0  0  0  0  0999 V2000
   70.9038   44.5348   58.4777 C   0  0  2  0  0  0  0  0  0  0  0  0
   70.8747   44.4772   59.8698 O   0  0  0  0  0  0  0  0  0  0  0  0
   70.3673   43.2870   57.8798 C   0  0  0  0  0  0  0  0  0  0  0  0
   71.5093   42.2996   57.8400 C   0  0  0  0  0  0  0  0  0  0  0  0
   72.6871   43.0632   58.2223 N   0  0  0  0  0  0  0  0  0  0  0  0
   72.3626   44.4418   58.1202 C   0  0  0  0  0  0  0  0  0  0  0  0
   73.1676   45.3334   57.7976 O   0  0  0  0  0  0  0  0  0  0  0  0
   73.9296   42.4885   58.6272 C   0  0  0  0  0  0  0  0  0  0  0  0
   74.0050   41.5209   59.6098 C   0  0  0  0  0  0  0  0  0  0  0  0
   75.2177   40.9750   59.9969 C   0  0  0  0  0  0  0  0  0  0  0  0
   76.4051   41.3708   59.4187 C   0  0  0  0  0  0  0  0  0  0  0  0
   77.7025   41.0114   59.6027 N   0  0  0  0  0  0  0  0  0  0  0  0
   78.5010   41.7171   58.7612 C   0  0  0  0  0  0  0  0  0  0  0  0
   77.6636   42.5395   58.0368 C   0  0  0  0  0  0  0  0  0  0  0  0
   76.3530   42.3340   58.4358 C   0  0  0  0  0  0  0  0  0  0  0  0
   75.1331   42.8724   58.0588 C   0  0  0  0  0  0  0  0  0  0  0  0
   70.5504   46.8263   58.5532 O   0  0  0  0  0  0  0  0  0  0  0  0
   70.2751   45.7676   57.9432 C   0  0  0  0  0  0  0  0  0  0  0  0
   69.4237   45.7691   56.8272 N   0  0  0  0  0  0  0  0  0  0  0  0
   68.8119   46.9486   56.3007 C   0  0  0  0  0  0  0  0  0  0  0  0
   68.6915   46.8724   54.8317 C   0  0  0  0  0  0  0  0  0  0  0  0
   67.9857   45.8647   54.2470 C   0  0  0  0  0  0  0  0  0  0  0  0
   67.8810   45.8299   52.8796 C   0  0  0  0  0  0  0  0  0  0  0  0
   67.1772   44.8222   52.3183 F   0  0  0  0  0  0  0  0  0  0  0  0
   68.4677   46.7817   52.0976 C   0  0  0  0  0  0  0  0  0  0  0  0
   69.1864   47.8046   52.7220 C   0  0  0  0  0  0  0  0  0  0  0  0
   69.9272   49.0071   51.7064 Cl  0  0  0  0  0  0  0  0  0  0  0  0
   69.3016   47.8555   54.0929 C   0  0  0  0  0  0  0  0  0  0  0  0
 17 18  2  0
 18 19  1  0
 19 20  1  0
 20 21  1  0
 21 22  2  0
 21 28  1  0
 22 23  1  0
 23 24  1  0
 23 25  2  0
 25 26  1  0
 26 27  1  0
 26 28  2  0
  1 18  1  0
  1  2  1  1
  1  3  1  0
  1  6  1  0
  3  4  1  0
  4  5  1  0
  5  8  1  0
  5  6  1  0
  8  9  2  0
  8 16  1  0
  9 10  1  0
 10 11  2  0
 11 12  1  0
 11 15  1  0
 12 13  1  0
 13 14  2  0
 14 15  1  0
 15 16  2  0
  6  7  2  0
M  END
>  <minimizedAffinity>  (238) 
-8.85050

$$$$
data/reference_output_2/data/smiles/194208.pdb
     RDKit          3D

 32 36  0  0  0  0  0  0  0  0999 V2000
   72.5935   51.2656   56.0881 C   0  0  0  0  0  0  0  0  0  0  0  0
   71.4434   50.8641   55.4000 C   0  0  0  0  0  0  0  0  0  0  0  0
   70.4442   51.7497   55.0893 C   0  0  0  0  0  0  0  0  0  0  0  0
   70.5531   53.0957   55.4578 C   0  0  0  0  0  0  0  0  0  0  0  0
   71.6691   53.4898   56.1273 C   0  0  0  0  0  0  0  0  0  0  0  0
   72.6686   52.5949   56.4367 C   0  0  0  0  0  0  0  0  0  0  0  0
   73.7440   53.0882   57.1063 F   0  0  0  0  0  0  0  0  0  0  0  0
   74.3873   49.9683   55.4654 O   0  0  0  0  0  0  0  0  0  0  0  0
   73.6563   50.3250   56.4188 C   0  0  0  0  0  0  0  0  0  0  0  0
   73.8867   49.8229   57.7034 N   0  0  0  0  0  0  0  0  0  0  0  0
   74.9722   48.8902   57.9269 C   0  0  0  0  0  0  0  0  0  0  0  0
   74.2566   47.5459   58.2062 C   0  0  0  0  0  0  0  0  0  0  0  0
   73.2801   47.7254   59.2559 N   0  0  0  0  0  0  0  0  0  0  0  0
   72.4582   46.6802   59.7082 C   0  0  0  0  0  0  0  0  0  0  0  0
   71.6012   47.0152   60.6233 O   0  0  0  0  0  0  0  0  0  0  0  0
   73.1543   49.0641   59.8756 C   0  0  0  0  0  0  0  0  0  0  0  0
   73.1063   50.1657   58.8729 C   0  0  0  0  0  0  0  0  0  0  0  0
   72.4205   45.2844   59.3061 C   0  0  0  0  0  0  0  0  0  0  0  0
   71.3237   45.0397   58.2192 C   0  0  0  0  0  0  0  0  0  0  0  0
   71.3721   44.3105   59.4991 C   0  0  0  0  0  0  0  0  0  0  0  0
   69.1976   51.4147   54.3478 C   0  0  0  0  0  0  0  0  0  0  0  0
   69.3287   50.2178   53.4997 C   0  0  0  0  0  0  0  0  0  0  0  0
   69.8201   50.3870   52.2330 N   0  0  0  0  0  0  0  0  0  0  0  0
   70.0175   49.3804   51.4023 N   0  0  0  0  0  0  0  0  0  0  0  0
   69.7516   48.1045   51.7304 C   0  0  0  0  0  0  0  0  0  0  0  0
   69.9411   47.1481   50.9404 O   0  0  0  0  0  0  0  0  0  0  0  0
   69.2547   47.8603   52.9879 C   0  0  0  0  0  0  0  0  0  0  0  0
   68.9624   46.5804   53.3519 C   0  0  0  0  0  0  0  0  0  0  0  0
   68.4537   46.3489   54.6079 C   0  0  0  0  0  0  0  0  0  0  0  0
   68.2395   47.3855   55.4847 C   0  0  0  0  0  0  0  0  0  0  0  0
   68.5445   48.6688   55.0891 C   0  0  0  0  0  0  0  0  0  0  0  0
   69.0532   48.9306   53.8479 C   0  0  0  0  0  0  0  0  0  0  0  0
  8  9  2  0
  9  1  1  0
  9 10  1  0
  1  2  2  0
  1  6  1  0
  2  3  1  0
  3 21  1  0
  3  4  2  0
 21 22  1  0
 22 23  2  0
 22 32  1  0
 23 24  1  0
 24 25  1  0
 25 26  2  0
 25 27  1  0
 27 28  1  0
 27 32  2  0
 28 29  2  0
 29 30  1  0
 30 31  2  0
 31 32  1  0
  4  5  1  0
  5  6  2  0
  6  7  1  0
 10 11  1  0
 10 17  1  0
 11 12  1  0
 12 13  1  0
 13 14  1  0
 13 16  1  0
 14 15  2  0
 14 18  1  0
 18 19  1  0
 18 20  1  0
 19 20  1  0
 16 17  1  0
M  END
>  <minimizedAffinity>  (239) 
-8.85040

$$$$
data/200k_reference_output/data/smiles/870.pdb
     RDKit          3D

 31 35  0  0  0  0  0  0  0  0999 V2000
   70.5283   42.0881   58.9480 N   0  0  0  0  0  0  0  0  0  0  0  0
   70.9563   43.0415   59.9188 C   0  0  0  0  0  0  0  0  0  0  0  0
   71.5561   44.2703   59.2871 C   0  0  0  0  0  0  0  0  0  0  0  0
   70.6768   44.8589   58.2666 C   0  0  0  0  0  0  0  0  0  0  0  0
   70.5224   46.1495   57.7456 C   0  0  0  0  0  0  0  0  0  0  0  0
   69.5642   46.1132   56.8097 N   0  0  0  0  0  0  0  0  0  0  0  0
   69.1420   44.8654   56.7496 N   0  0  0  0  0  0  0  0  0  0  0  0
   69.7746   44.0646   57.6026 C   0  0  0  0  0  0  0  0  0  0  0  0
   69.6766   42.6224   57.9346 C   0  0  0  0  0  0  0  0  0  0  0  0
   68.8405   41.9221   57.3060 O   0  0  0  0  0  0  0  0  0  0  0  0
   69.5007   37.9026   61.1757 C   0  0  0  0  0  0  0  0  0  0  0  0
   70.2995   38.5092   60.1038 N   0  0  0  0  0  0  0  0  0  0  0  0
   70.1604   39.9171   59.9560 C   0  0  0  0  0  0  0  0  0  0  0  0
   69.3872   40.4897   60.7642 O   0  0  0  0  0  0  0  0  0  0  0  0
   70.8694   40.7204   58.9178 C   0  0  2  0  0  0  0  0  0  0  0  0
   72.3291   40.4066   59.0526 C   0  0  0  0  0  0  0  0  0  0  0  0
   72.6393   39.2378   58.2889 O   0  0  0  0  0  0  0  0  0  0  0  0
   72.1885   37.9310   58.5152 C   0  0  0  0  0  0  0  0  0  0  0  0
   72.8867   36.9615   57.8480 C   0  0  0  0  0  0  0  0  0  0  0  0
   72.4957   35.6572   58.0271 C   0  0  0  0  0  0  0  0  0  0  0  0
   71.4369   35.3027   58.8449 C   0  0  0  0  0  0  0  0  0  0  0  0
   70.7343   36.2809   59.5165 C   0  0  0  0  0  0  0  0  0  0  0  0
   71.1192   37.5949   59.3438 C   0  0  0  0  0  0  0  0  0  0  0  0
   69.1040   47.2477   56.0310 C   0  0  0  0  0  0  0  0  0  0  0  0
   68.7435   46.9059   54.6564 C   0  0  0  0  0  0  0  0  0  0  0  0
   69.2362   47.7130   53.6324 C   0  0  0  0  0  0  0  0  0  0  0  0
   68.9023   47.3983   52.3319 C   0  0  0  0  0  0  0  0  0  0  0  0
   68.0920   46.2984   52.0768 C   0  0  0  0  0  0  0  0  0  0  0  0
   67.7455   45.9615   50.8141 F   0  0  0  0  0  0  0  0  0  0  0  0
   67.6014   45.4948   53.0919 C   0  0  0  0  0  0  0  0  0  0  0  0
   67.9406   45.8172   54.3890 C   0  0  0  0  0  0  0  0  0  0  0  0
 11 12  1  0
 12 13  1  0
 12 23  1  0
 13 14  2  0
 13 15  1  0
 15  1  1  1
 15 16  1  0
  1  2  1  0
  1  9  1  0
  2  3  1  0
  3  4  1  0
  4  5  2  0
  4  8  1  0
  5  6  1  0
  6 24  1  0
  6  7  1  0
 24 25  1  0
 25 26  2  0
 25 31  1  0
 26 27  1  0
 27 28  2  0
 28 29  1  0
 28 30  1  0
 30 31  2  0
  7  8  2  0
  8  9  1  0
  9 10  2  0
 16 17  1  0
 17 18  1  0
 18 19  2  0
 18 23  1  0
 19 20  1  0
 20 21  2  0
 21 22  1  0
 22 23  2  0
M  END
>  <minimizedAffinity>  (240) 
-8.84780

$$$$
data/reference_output_2/data/smiles/160623.pdb
     RDKit          3D

 29 30  0  0  0  0  0  0  0  0999 V2000
   70.6121   51.2113   55.7112 C   0  0  2  0  0  0  0  0  0  0  0  0
   68.8248   52.0078   57.1196 C   0  0  0  0  0  0  0  0  0  0  0  0
   69.7609   52.4045   55.9461 C   0  0  0  0  0  0  0  0  0  0  0  0
   68.8224   52.6418   54.8199 C   0  0  0  0  0  0  0  0  0  0  0  0
   70.4488   53.6421   56.4510 C   0  0  0  0  0  0  0  0  0  0  0  0
   69.8476   50.0997   55.1154 N   0  0  0  0  0  0  0  0  0  0  0  0
   70.3051   49.3362   54.0206 C   0  0  0  0  0  0  0  0  0  0  0  0
   71.4209   49.6415   53.5529 O   0  0  0  0  0  0  0  0  0  0  0  0
   69.5647   48.2375   53.4206 C   0  0  0  0  0  0  0  0  0  0  0  0
   69.6170   47.8941   52.0912 C   0  0  0  0  0  0  0  0  0  0  0  0
   68.8842   46.8356   51.5818 C   0  0  0  0  0  0  0  0  0  0  0  0
   68.0750   46.0938   52.4094 C   0  0  0  0  0  0  0  0  0  0  0  0
   67.1237   44.7422   51.8276 Cl  0  0  0  0  0  0  0  0  0  0  0  0
   67.9985   46.4048   53.7310 C   0  0  0  0  0  0  0  0  0  0  0  0
   68.7334   47.4571   54.2112 C   0  0  0  0  0  0  0  0  0  0  0  0
   71.5318   50.7989   56.6844 N   0  0  0  0  0  0  0  0  0  0  0  0
   72.9573   50.9405   56.6338 C   0  0  0  0  0  0  0  0  0  0  0  0
   73.6466   49.9295   56.4915 N   0  0  0  0  0  0  0  0  0  0  0  0
   74.9609   49.6540   56.4167 C   0  0  0  0  0  0  0  0  0  0  0  0
   75.7808   49.3141   57.4300 C   0  0  0  0  0  0  0  0  0  0  0  0
   77.1497   49.0782   57.2545 C   0  0  0  0  0  0  0  0  0  0  0  0
   77.6850   49.1953   55.9908 C   0  0  0  0  0  0  0  0  0  0  0  0
   76.8951   49.5272   54.9815 N   0  0  0  0  0  0  0  0  0  0  0  0
   75.5892   49.7477   55.1853 C   0  0  0  0  0  0  0  0  0  0  0  0
   73.5944   52.1938   56.5545 N   0  0  0  0  0  0  0  0  0  0  0  0
   73.8327   53.0192   55.1349 S   0  0  0  0  0  0  0  0  0  0  0  0
   73.5610   52.1987   53.6513 N   0  0  0  0  0  0  0  0  0  0  0  0
   73.6737   54.5057   55.0959 O   0  0  0  0  0  0  0  0  0  0  0  0
   75.4049   53.0342   55.0596 O   0  0  0  0  0  0  0  0  0  0  0  0
  2  3  1  0
  3  4  1  0
  3  5  1  0
  3  1  1  0
  1  6  1  1
  1 16  1  0
  6  7  1  0
  7  8  2  0
  7  9  1  0
  9 10  2  0
  9 15  1  0
 10 11  1  0
 11 12  2  0
 12 13  1  0
 12 14  1  0
 14 15  2  0
 16 17  1  0
 17 18  2  0
 17 25  1  0
 18 19  1  0
 19 20  2  0
 19 24  1  0
 20 21  1  0
 21 22  2  0
 22 23  1  0
 23 24  2  0
 25 26  1  0
 26 27  1  0
 26 28  2  0
 26 29  2  0
M  CHG  1  18   1
M  END
>  <minimizedAffinity>  (241) 
-8.84710

$$$$
data/reference_output_2/data/smiles/171352.pdb
     RDKit          3D

 29 32  0  0  0  0  0  0  0  0999 V2000
   71.0977   50.2947   54.8637 S   0  0  0  0  0  0  0  0  0  0  0  0
   70.8580   51.7300   54.4592 O   0  0  0  0  0  0  0  0  0  0  0  0
   72.5808   50.0771   54.7895 O   0  0  0  0  0  0  0  0  0  0  0  0
   66.8030   45.0461   50.8402 O   0  0  0  0  0  0  0  0  0  0  0  0
   67.3743   45.7717   51.6914 C   0  0  0  0  0  0  0  0  0  0  0  0
   67.1582   45.6393   53.0107 N   0  0  0  0  0  0  0  0  0  0  0  0
   67.8216   46.4682   53.8350 C   0  0  0  0  0  0  0  0  0  0  0  0
   67.6416   46.3718   55.0771 O   0  0  0  0  0  0  0  0  0  0  0  0
   68.6961   47.4268   53.3982 C   0  0  0  0  0  0  0  0  0  0  0  0
   69.3823   48.2849   54.2595 C   0  0  0  0  0  0  0  0  0  0  0  0
   70.2532   49.2368   53.7897 C   0  0  0  0  0  0  0  0  0  0  0  0
   70.4546   49.3493   52.4363 C   0  0  0  0  0  0  0  0  0  0  0  0
   69.7798   48.5029   51.5567 C   0  0  0  0  0  0  0  0  0  0  0  0
   68.9056   47.5486   52.0418 C   0  0  0  0  0  0  0  0  0  0  0  0
   68.2342   46.7088   51.2032 N   0  0  0  0  0  0  0  0  0  0  0  0
   70.5875   50.1389   56.4905 N   0  0  0  0  0  0  0  0  0  0  0  0
   70.7806   49.0016   57.2811 C   0  0  0  0  0  0  0  0  0  0  0  0
   69.8542   47.9909   57.2605 C   0  0  0  0  0  0  0  0  0  0  0  0
   70.0331   46.8462   58.0478 C   0  0  0  0  0  0  0  0  0  0  0  0
   71.1416   46.7038   58.8629 C   0  0  0  0  0  0  0  0  0  0  0  0
   72.0613   47.7305   58.8694 C   0  0  0  0  0  0  0  0  0  0  0  0
   71.8857   48.8756   58.0847 C   0  0  0  0  0  0  0  0  0  0  0  0
   71.2831   45.5542   59.6272 O   0  0  0  0  0  0  0  0  0  0  0  0
   71.5009   44.3110   59.0020 C   0  0  0  0  0  0  0  0  0  0  0  0
   72.6585   44.0936   58.2850 C   0  0  0  0  0  0  0  0  0  0  0  0
   72.8888   42.8752   57.6642 C   0  0  0  0  0  0  0  0  0  0  0  0
   71.9441   41.8748   57.7679 C   0  0  0  0  0  0  0  0  0  0  0  0
   70.7780   42.0596   58.4740 C   0  0  0  0  0  0  0  0  0  0  0  0
   70.5793   43.2963   59.0863 C   0  0  0  0  0  0  0  0  0  0  0  0
  4  5  2  0
  5  6  1  0
  5 15  1  0
  6  7  1  0
  7  8  2  0
  7  9  1  0
  9 10  1  0
  9 14  2  0
 10 11  2  0
 11  1  1  0
 11 12  1  0
  1  2  2  0
  1  3  2  0
  1 16  1  0
 16 17  1  0
 17 18  2  0
 17 22  1  0
 18 19  1  0
 19 20  2  0
 20 23  1  0
 20 21  1  0
 23 24  1  0
 24 25  2  0
 24 29  1  0
 25 26  1  0
 26 27  2  0
 27 28  1  0
 28 29  2  0
 21 22  2  0
 12 13  2  0
 13 14  1  0
 14 15  1  0
M  END
>  <minimizedAffinity>  (242) 
-8.84603

$$$$
data/200k_reference_output/data/smiles/58767.pdb
     RDKit          3D

 29 32  0  0  0  0  0  0  0  0999 V2000
   71.7675   46.6317   59.5275 C   0  0  0  0  0  0  0  0  0  0  0  0
   71.0860   45.6603   58.6528 C   0  0  0  0  0  0  0  0  0  0  0  0
   71.3256   44.2801   58.7276 C   0  0  0  0  0  0  0  0  0  0  0  0
   70.6745   43.4043   57.9001 C   0  0  0  0  0  0  0  0  0  0  0  0
   69.7751   43.8905   56.9860 C   0  0  0  0  0  0  0  0  0  0  0  0
   69.5138   45.2685   56.8871 C   0  0  0  0  0  0  0  0  0  0  0  0
   70.1835   46.1250   57.7315 C   0  0  0  0  0  0  0  0  0  0  0  0
   70.9236   41.9949   57.9809 C   0  0  0  0  0  0  0  0  0  0  0  0
   72.0869   41.5634   57.7853 O   0  0  0  0  0  0  0  0  0  0  0  0
   69.9074   41.0519   58.2773 N   0  0  0  0  0  0  0  0  0  0  0  0
   69.7868   39.6168   58.4378 C   0  0  0  0  0  0  0  0  0  0  0  0
   68.3042   39.6922   58.1713 C   0  0  0  0  0  0  0  0  0  0  0  0
   67.3982   38.9992   59.1274 C   0  0  0  0  0  0  0  0  0  0  0  0
   67.9804   39.4720   56.8399 O   0  0  0  0  0  0  0  0  0  0  0  0
   68.4908   41.1444   58.5588 C   0  0  0  0  0  0  0  0  0  0  0  0
   69.9728   47.5140   57.6168 N   0  0  0  0  0  0  0  0  0  0  0  0
   68.7220   48.2603   56.7125 S   0  0  0  0  0  0  0  0  0  0  0  0
   68.4537   49.6371   57.2682 O   0  0  0  0  0  0  0  0  0  0  0  0
   67.4313   47.4765   56.8798 O   0  0  0  0  0  0  0  0  0  0  0  0
   69.1048   48.3978   55.0259 C   0  0  0  0  0  0  0  0  0  0  0  0
   69.8907   49.4705   54.6254 C   0  0  0  0  0  0  0  0  0  0  0  0
   70.2591   49.6214   53.3308 C   0  0  0  0  0  0  0  0  0  0  0  0
   69.8680   48.7124   52.3522 C   0  0  0  0  0  0  0  0  0  0  0  0
   69.0932   47.6466   52.7158 C   0  0  0  0  0  0  0  0  0  0  0  0
   68.6743   46.7441   51.7762 C   0  0  0  0  0  0  0  0  0  0  0  0
   67.8731   45.6838   52.1590 C   0  0  0  0  0  0  0  0  0  0  0  0
   67.5190   45.5702   53.4931 C   0  0  0  0  0  0  0  0  0  0  0  0
   67.9594   46.4840   54.3727 N   0  0  0  0  0  0  0  0  0  0  0  0
   68.7286   47.5133   54.0469 C   0  0  0  0  0  0  0  0  0  0  0  0
  1  2  1  0
  2  3  2  0
  2  7  1  0
  3  4  1  0
  4  8  1  0
  4  5  2  0
  8  9  2  0
  8 10  1  0
 10 11  1  0
 10 15  1  0
 11 12  1  0
 12 13  1  0
 12 14  1  0
 12 15  1  0
  5  6  1  0
  6  7  2  0
  7 16  1  0
 16 17  1  0
 17 18  2  0
 17 19  2  0
 17 20  1  0
 20 21  2  0
 20 29  1  0
 21 22  1  0
 22 23  2  0
 23 24  1  0
 24 25  1  0
 24 29  2  0
 25 26  2  0
 26 27  1  0
 27 28  2  0
 28 29  1  0
M  END
>  <minimizedAffinity>  (243) 
-8.84560

$$$$
data/200k_reference_output/data/smiles/70223.pdb
     RDKit          3D

 31 34  0  0  0  0  0  0  0  0999 V2000
   71.1264   44.1973   58.0672 C   0  0  0  0  0  0  0  0  0  0  0  0
   70.0968   44.8649   57.4403 C   0  0  0  0  0  0  0  0  0  0  0  0
   69.9963   46.2281   57.4271 C   0  0  0  0  0  0  0  0  0  0  0  0
   70.9792   46.9724   58.0776 C   0  0  0  0  0  0  0  0  0  0  0  0
   72.0085   46.3427   58.7070 C   0  0  0  0  0  0  0  0  0  0  0  0
   72.0867   44.9407   58.7031 C   0  0  0  0  0  0  0  0  0  0  0  0
   73.1436   44.4044   59.3533 F   0  0  0  0  0  0  0  0  0  0  0  0
   67.6023   41.0485   56.4451 C   0  0  0  0  0  0  0  0  0  0  0  0
   67.9434   40.2161   55.5183 O   0  0  0  0  0  0  0  0  0  0  0  0
   68.2752   40.9596   57.6895 N   0  0  0  0  0  0  0  0  0  0  0  0
   69.3086   39.9425   57.8332 C   0  0  0  0  0  0  0  0  0  0  0  0
   70.4883   40.4777   58.6356 C   0  0  0  0  0  0  0  0  0  0  0  0
   70.3043   41.9090   58.7190 N   0  0  0  0  0  0  0  0  0  0  0  0
   71.1960   42.7675   58.0627 C   0  0  0  0  0  0  0  0  0  0  0  0
   72.1522   42.2450   57.4020 O   0  0  0  0  0  0  0  0  0  0  0  0
   69.1570   42.3535   59.5039 C   0  0  0  0  0  0  0  0  0  0  0  0
   67.9291   41.8494   58.7691 C   0  0  0  0  0  0  0  0  0  0  0  0
   65.8746   41.7528   54.8117 C   0  0  0  0  0  0  0  0  0  0  0  0
   66.5358   42.0352   56.1448 C   0  0  0  0  0  0  0  0  0  0  0  0
   68.9060   46.9660   56.7574 C   0  0  0  0  0  0  0  0  0  0  0  0
   68.5948   46.4954   55.4002 C   0  0  0  0  0  0  0  0  0  0  0  0
   68.0143   45.2537   55.2754 N   0  0  0  0  0  0  0  0  0  0  0  0
   67.6626   44.7510   54.1152 N   0  0  0  0  0  0  0  0  0  0  0  0
   67.8457   45.4148   52.9801 C   0  0  0  0  0  0  0  0  0  0  0  0
   67.4959   44.9033   51.8813 O   0  0  0  0  0  0  0  0  0  0  0  0
   68.4310   46.6801   53.0448 C   0  0  0  0  0  0  0  0  0  0  0  0
   68.8013   47.2022   54.2691 C   0  0  0  0  0  0  0  0  0  0  0  0
   69.4544   48.5291   54.2774 C   0  0  0  0  0  0  0  0  0  0  0  0
   70.3888   48.6339   53.0797 C   0  0  0  0  0  0  0  0  0  0  0  0
   69.7542   48.3508   51.7731 C   0  0  0  0  0  0  0  0  0  0  0  0
   68.6006   47.4002   51.7824 C   0  0  0  0  0  0  0  0  0  0  0  0
 18 19  1  0
 19  8  1  0
  8  9  2  0
  8 10  1  0
 10 11  1  0
 10 17  1  0
 11 12  1  0
 12 13  1  0
 13 14  1  0
 13 16  1  0
 14 15  2  0
 14  1  1  0
  1  2  2  0
  1  6  1  0
  2  3  1  0
  3 20  1  0
  3  4  2  0
 20 21  1  0
 21 22  2  0
 21 27  1  0
 22 23  1  0
 23 24  1  0
 24 25  2  0
 24 26  1  0
 26 27  2  0
 26 31  1  0
 27 28  1  0
 28 29  1  0
 29 30  1  0
 30 31  1  0
  4  5  1  0
  5  6  2  0
  6  7  1  0
 16 17  1  0
M  END
>  <minimizedAffinity>  (244) 
-8.84156

$$$$
data/200k_reference_output/data/smiles/87247.pdb
     RDKit          3D

 28 30  0  0  0  0  0  0  0  0999 V2000
   69.3336   47.0575   56.7507 C   0  0  0  0  0  0  0  0  0  0  0  0
   69.8893   48.2295   57.2812 C   0  0  0  0  0  0  0  0  0  0  0  0
   69.3311   49.3903   56.8606 F   0  0  0  0  0  0  0  0  0  0  0  0
   70.9227   48.2076   58.1609 C   0  0  0  0  0  0  0  0  0  0  0  0
   71.4564   46.9998   58.5577 C   0  0  0  0  0  0  0  0  0  0  0  0
   70.9377   45.8279   58.0585 C   0  0  0  0  0  0  0  0  0  0  0  0
   69.8711   45.8757   57.1516 C   0  0  0  0  0  0  0  0  0  0  0  0
   69.4043   44.6706   56.7242 F   0  0  0  0  0  0  0  0  0  0  0  0
   67.0705   47.5112   56.2218 O   0  0  0  0  0  0  0  0  0  0  0  0
   68.2160   47.1268   55.8306 C   0  0  0  0  0  0  0  0  0  0  0  0
   68.3426   46.7644   54.4300 C   0  0  0  0  0  0  0  0  0  0  0  0
   67.8509   45.6796   53.7365 C   0  0  0  0  0  0  0  0  0  0  0  0
   68.2465   45.7371   52.4607 N   0  0  0  0  0  0  0  0  0  0  0  0
   68.9959   46.8378   52.2795 C   0  0  0  0  0  0  0  0  0  0  0  0
   69.6450   47.4008   51.2443 N   0  0  0  0  0  0  0  0  0  0  0  0
   70.3500   48.5409   51.3126 C   0  0  0  0  0  0  0  0  0  0  0  0
   70.4293   49.1865   52.4841 N   0  0  0  0  0  0  0  0  0  0  0  0
   69.7903   48.6632   53.5727 C   0  0  0  0  0  0  0  0  0  0  0  0
   69.0733   47.4950   53.4849 C   0  0  0  0  0  0  0  0  0  0  0  0
   71.4694   44.5805   58.4581 N   0  0  0  0  0  0  0  0  0  0  0  0
   70.8039   43.6997   59.7621 S   0  0  0  0  0  0  0  0  0  0  0  0
   71.2873   44.2484   61.0691 O   0  0  0  0  0  0  0  0  0  0  0  0
   69.2769   43.7712   59.7163 O   0  0  0  0  0  0  0  0  0  0  0  0
   71.2926   42.0022   59.6248 C   0  0  0  0  0  0  0  0  0  0  0  0
   71.2645   41.6208   58.1589 C   0  0  0  0  0  0  0  0  0  0  0  0
   70.1243   42.0890   57.5443 F   0  0  0  0  0  0  0  0  0  0  0  0
   71.3879   40.2442   58.0527 F   0  0  0  0  0  0  0  0  0  0  0  0
   72.3406   42.1712   57.5110 F   0  0  0  0  0  0  0  0  0  0  0  0
  9 10  2  0
 10  1  1  0
 10 11  1  0
  1  2  2  0
  1  7  1  0
  2  3  1  0
  2  4  1  0
  4  5  2  0
  5  6  1  0
  6 20  1  0
  6  7  2  0
 20 21  1  0
 21 22  2  0
 21 23  2  0
 21 24  1  0
 24 25  1  0
 25 26  1  0
 25 27  1  0
 25 28  1  0
  7  8  1  0
 11 12  2  0
 11 19  1  0
 12 13  1  0
 13 14  1  0
 14 15  1  0
 14 19  2  0
 15 16  2  0
 16 17  1  0
 17 18  2  0
 18 19  1  0
M  END
>  <minimizedAffinity>  (245) 
-8.84034

$$$$
data/200k_reference_output/data/smiles/57383.pdb
     RDKit          3D

 33 38  0  0  0  0  0  0  0  0999 V2000
   72.1372   36.0931   58.4738 C   0  0  0  0  0  0  0  0  0  0  0  0
   72.1238   35.2378   59.5346 C   0  0  0  0  0  0  0  0  0  0  0  0
   72.4507   33.8934   59.4020 C   0  0  0  0  0  0  0  0  0  0  0  0
   72.8063   33.3950   58.1562 C   0  0  0  0  0  0  0  0  0  0  0  0
   72.8309   34.2291   57.0638 C   0  0  0  0  0  0  0  0  0  0  0  0
   73.1299   34.0698   55.7540 N   0  0  0  0  0  0  0  0  0  0  0  0
   73.0011   35.2341   55.0913 C   0  0  0  0  0  0  0  0  0  0  0  0
   72.6091   36.1346   56.0381 N   0  0  0  0  0  0  0  0  0  0  0  0
   72.5046   35.5374   57.2352 C   0  0  0  0  0  0  0  0  0  0  0  0
   72.6787   38.3713   58.5032 O   0  0  0  0  0  0  0  0  0  0  0  0
   71.7861   37.5105   58.5000 C   0  0  0  0  0  0  0  0  0  0  0  0
   70.4055   37.8966   58.5223 N   0  0  0  0  0  0  0  0  0  0  0  0
   69.9288   39.2450   58.5309 C   0  0  2  0  0  0  0  0  0  0  0  0
   69.8253   39.8223   59.9353 C   0  0  0  0  0  0  0  0  0  0  0  0
   68.6995   40.7585   60.0148 N   0  0  2  0  0  0  0  0  0  0  0  0
   67.5039   39.9331   60.1556 C   0  0  0  0  0  0  0  0  0  0  0  0
   67.5147   38.8759   59.0703 C   0  0  0  0  0  0  0  0  0  0  0  0
   68.5124   39.2696   57.9661 C   0  0  1  0  0  0  0  0  0  0  0  0
   68.1930   40.6944   57.6049 C   0  0  0  0  0  0  0  0  0  0  0  0
   68.5863   41.5475   58.7941 C   0  0  0  0  0  0  0  0  0  0  0  0
   73.2236   35.5374   53.6522 C   0  0  0  0  0  0  0  0  0  0  0  0
   74.4775   34.9943   53.2754 N   0  0  0  0  0  0  0  0  0  0  0  0
   74.4724   33.8302   52.5049 C   0  0  0  0  0  0  0  0  0  0  0  0
   75.8476   33.4546   52.0403 C   0  0  0  0  0  0  0  0  0  0  0  0
   76.4557   34.6346   51.4992 N   0  0  0  0  0  0  0  0  0  0  0  0
   76.6582   35.7347   52.4542 C   0  0  0  0  0  0  0  0  0  0  0  0
   75.6474   35.6837   53.5604 C   0  0  0  0  0  0  0  0  0  0  0  0
   76.8353   34.7989   50.1446 C   0  0  0  0  0  0  0  0  0  0  0  0
   76.2121   34.0246   49.1826 C   0  0  0  0  0  0  0  0  0  0  0  0
   76.5667   34.1633   47.8564 C   0  0  0  0  0  0  0  0  0  0  0  0
   77.5357   35.0668   47.4902 C   0  0  0  0  0  0  0  0  0  0  0  0
   78.1401   35.8241   48.4706 C   0  0  0  0  0  0  0  0  0  0  0  0
   77.8022   35.7035   49.8017 C   0  0  0  0  0  0  0  0  0  0  0  0
 10 11  2  0
 11 12  1  0
 11  1  1  0
 13 12  1  1
 13 14  1  0
 13 18  1  0
 15 14  1  6
 15 16  1  0
 15 20  1  0
 16 17  1  0
 18 17  1  1
 18 19  1  0
 19 20  1  0
  1  2  1  0
  1  9  2  0
  2  3  2  0
  3  4  1  0
  4  5  2  0
  5  6  1  0
  5  9  1  0
  6  7  1  0
  7 21  1  0
  7  8  2  0
 21 22  1  0
 22 23  1  0
 22 27  1  0
 23 24  1  0
 24 25  1  0
 25 28  1  0
 25 26  1  0
 28 29  2  0
 28 33  1  0
 29 30  1  0
 30 31  2  0
 31 32  1  0
 32 33  2  0
 26 27  1  0
  8  9  1  0
M  CHG  3   8   1  15   1  22   1
M  END
>  <minimizedAffinity>  (246) 
-8.83907

$$$$
data/reference_output_2/data/smiles/116841.pdb
     RDKit          3D

 29 32  0  0  0  0  0  0  0  0999 V2000
   70.7611   46.1086   58.1706 C   0  0  0  0  0  0  0  0  0  0  0  0
   69.8434   46.8847   57.4754 C   0  0  0  0  0  0  0  0  0  0  0  0
   70.0565   48.1889   57.0923 C   0  0  0  0  0  0  0  0  0  0  0  0
   71.2457   48.7965   57.4026 C   0  0  0  0  0  0  0  0  0  0  0  0
   72.1799   48.0550   58.0925 C   0  0  0  0  0  0  0  0  0  0  0  0
   71.9465   46.7275   58.4747 C   0  0  0  0  0  0  0  0  0  0  0  0
   72.9135   46.0608   59.1584 F   0  0  0  0  0  0  0  0  0  0  0  0
   70.8832   43.5698   57.8963 N   0  0  0  0  0  0  0  0  0  0  0  0
   70.4324   44.7407   58.5120 C   0  0  0  0  0  0  0  0  0  0  0  0
   69.6287   44.5597   59.4961 O   0  0  0  0  0  0  0  0  0  0  0  0
   72.7092   41.6538   58.9771 N   0  0  0  0  0  0  0  0  0  0  0  0
   71.5864   41.2256   58.1426 C   0  0  1  0  0  0  0  0  0  0  0  0
   71.1102   39.8767   58.5686 C   0  0  0  0  0  0  0  0  0  0  0  0
   69.6433   39.7959   58.8560 C   0  0  0  0  0  0  0  0  0  0  0  0
   68.7893   40.4698   57.8122 C   0  0  0  0  0  0  0  0  0  0  0  0
   69.3254   41.8233   57.4250 C   0  0  0  0  0  0  0  0  0  0  0  0
   70.4969   42.2291   58.3138 C   0  0  2  0  0  0  0  0  0  0  0  0
   68.9785   48.8893   56.3239 C   0  0  0  0  0  0  0  0  0  0  0  0
   69.3287   48.8262   54.8990 C   0  0  0  0  0  0  0  0  0  0  0  0
   70.1073   49.7948   54.3548 N   0  0  0  0  0  0  0  0  0  0  0  0
   70.5052   49.7978   53.0968 N   0  0  0  0  0  0  0  0  0  0  0  0
   70.1386   48.8050   52.2871 C   0  0  0  0  0  0  0  0  0  0  0  0
   70.5019   48.7786   51.0850 O   0  0  0  0  0  0  0  0  0  0  0  0
   69.3406   47.7591   52.7407 C   0  0  0  0  0  0  0  0  0  0  0  0
   68.9419   47.8016   54.0843 C   0  0  0  0  0  0  0  0  0  0  0  0
   68.0909   46.7934   54.5918 N   0  0  0  0  0  0  0  0  0  0  0  0
   67.8843   45.5962   53.7879 C   0  0  0  0  0  0  0  0  0  0  0  0
   67.7131   45.9932   52.3290 C   0  0  0  0  0  0  0  0  0  0  0  0
   68.9612   46.6620   51.8348 C   0  0  0  0  0  0  0  0  0  0  0  0
 12 11  1  1
 12 13  1  0
 12 17  1  0
 13 14  1  0
 14 15  1  0
 15 16  1  0
 16 17  1  0
 17  8  1  6
  8  9  1  0
  9 10  2  0
  9  1  1  0
  1  2  2  0
  1  6  1  0
  2  3  1  0
  3 18  1  0
  3  4  2  0
 18 19  1  0
 19 20  2  0
 19 25  1  0
 20 21  1  0
 21 22  1  0
 22 23  2  0
 22 24  1  0
 24 25  2  0
 24 29  1  0
 25 26  1  0
 26 27  1  0
 27 28  1  0
 28 29  1  0
  4  5  1  0
  5  6  2  0
  6  7  1  0
M  CHG  1  11   1
M  END
>  <minimizedAffinity>  (247) 
-8.83310

$$$$
data/reference_output_2/data/smiles/127374.pdb
     RDKit          3D

 29 31  0  0  0  0  0  0  0  0999 V2000
   70.6326   46.5383   57.8165 C   0  0  0  0  0  0  0  0  0  0  0  0
   71.3665   46.8228   58.9585 C   0  0  0  0  0  0  0  0  0  0  0  0
   71.7759   45.8394   59.8323 C   0  0  0  0  0  0  0  0  0  0  0  0
   71.4507   44.5348   59.5680 C   0  0  0  0  0  0  0  0  0  0  0  0
   70.7071   44.1695   58.4224 C   0  0  0  0  0  0  0  0  0  0  0  0
   70.3299   45.2167   57.5899 C   0  0  0  0  0  0  0  0  0  0  0  0
   70.4400   42.7717   58.1894 C   0  0  0  0  0  0  0  0  0  0  0  0
   71.0011   42.2947   57.1140 O   0  0  0  0  0  0  0  0  0  0  0  0
   69.6894   41.8649   58.9118 N   0  0  0  0  0  0  0  0  0  0  0  0
   68.9473   41.9944   60.1407 C   0  0  0  0  0  0  0  0  0  0  0  0
   67.4975   41.9846   59.7528 C   0  0  0  0  0  0  0  0  0  0  0  0
   67.1482   40.6526   59.1453 C   0  0  0  0  0  0  0  0  0  0  0  0
   68.0444   40.3459   57.9913 C   0  0  2  0  0  0  0  0  0  0  0  0
   69.5131   40.4624   58.3686 C   0  0  0  0  0  0  0  0  0  0  0  0
   67.7740   41.2030   56.7940 C   0  0  0  0  0  0  0  0  0  0  0  0
   67.6848   40.5295   55.5358 N   0  0  0  0  0  0  0  0  0  0  0  0
   67.6283   42.4375   56.8548 O   0  0  0  0  0  0  0  0  0  0  0  0
   70.2156   47.6393   57.0201 N   0  0  0  0  0  0  0  0  0  0  0  0
   68.7557   47.8470   56.2133 S   0  0  0  0  0  0  0  0  0  0  0  0
   68.3846   49.3281   56.2527 O   0  0  0  0  0  0  0  0  0  0  0  0
   67.6409   47.1172   56.9515 O   0  0  0  0  0  0  0  0  0  0  0  0
   70.1932   49.2747   53.9362 C   0  0  0  0  0  0  0  0  0  0  0  0
   69.3662   48.0909   53.5872 C   0  0  0  0  0  0  0  0  0  0  0  0
   69.2857   47.7109   52.2544 C   0  0  0  0  0  0  0  0  0  0  0  0
   68.5459   46.6196   51.8486 C   0  0  0  0  0  0  0  0  0  0  0  0
   67.8787   45.9084   52.8265 C   0  0  0  0  0  0  0  0  0  0  0  0
   67.1341   44.8256   52.4888 F   0  0  0  0  0  0  0  0  0  0  0  0
   67.9477   46.2717   54.1519 C   0  0  0  0  0  0  0  0  0  0  0  0
   68.7032   47.3836   54.5518 C   0  0  0  0  0  0  0  0  0  0  0  0
 22 23  1  0
 23 24  2  0
 23 29  1  0
 24 25  1  0
 25 26  2  0
 26 27  1  0
 26 28  1  0
 28 29  2  0
 29 19  1  0
 19 20  2  0
 19 21  2  0
 19 18  1  0
 18  1  1  0
  1  2  2  0
  1  6  1  0
  2  3  1  0
  3  4  2  0
  4  5  1  0
  5  7  1  0
  5  6  2  0
  7  8  2  0
  7  9  1  0
  9 10  1  0
  9 14  1  0
 10 11  1  0
 11 12  1  0
 12 13  1  0
 13 15  1  6
 13 14  1  0
 15 16  1  0
 15 17  2  0
M  END
>  <minimizedAffinity>  (248) 
-8.83253

$$$$
data/reference_output_2/data/smiles/176496.pdb
     RDKit          3D

 29 31  0  0  0  0  0  0  0  0999 V2000
   73.4567   46.2917   58.3619 C   0  0  0  0  0  0  0  0  0  0  0  0
   72.5357   46.5523   59.5037 C   0  0  2  0  0  0  0  0  0  0  0  0
   71.5107   45.5369   59.5186 N   0  0  0  0  0  0  0  0  0  0  0  0
   70.5394   45.9495   58.5742 C   0  0  0  0  0  0  0  0  0  0  0  0
   69.6913   45.2137   58.0143 O   0  0  0  0  0  0  0  0  0  0  0  0
   70.6569   47.3749   58.3333 N   0  0  0  0  0  0  0  0  0  0  0  0
   71.7513   47.7742   59.1884 C   0  0  0  0  0  0  0  0  0  0  0  0
   71.9487   48.9607   59.5615 O   0  0  0  0  0  0  0  0  0  0  0  0
   73.2221   46.6883   60.8078 C   0  0  0  0  0  0  0  0  0  0  0  0
   73.4335   45.5914   61.6195 C   0  0  0  0  0  0  0  0  0  0  0  0
   74.0747   45.7239   62.8357 C   0  0  0  0  0  0  0  0  0  0  0  0
   74.5316   46.9393   63.2994 C   0  0  0  0  0  0  0  0  0  0  0  0
   74.3203   48.0388   62.4893 C   0  0  0  0  0  0  0  0  0  0  0  0
   73.6794   47.9035   61.2744 C   0  0  0  0  0  0  0  0  0  0  0  0
   75.3449   47.1157   64.8404 S   0  0  0  0  0  0  0  0  0  0  0  0
   75.9384   45.5636   65.3161 N   0  0  0  0  0  0  0  0  0  0  0  0
   76.5366   48.0127   64.6754 O   0  0  0  0  0  0  0  0  0  0  0  0
   74.3841   47.6344   65.8533 O   0  0  0  0  0  0  0  0  0  0  0  0
   69.9136   48.1778   57.4461 C   0  0  0  0  0  0  0  0  0  0  0  0
   68.8276   47.6664   56.6452 C   0  0  0  0  0  0  0  0  0  0  0  0
   67.7306   47.4422   57.3600 O   0  0  0  0  0  0  0  0  0  0  0  0
   68.7263   47.3659   55.2449 C   0  0  0  0  0  0  0  0  0  0  0  0
   69.3169   48.2150   54.2897 C   0  0  0  0  0  0  0  0  0  0  0  0
   69.2524   47.9820   52.9573 C   0  0  0  0  0  0  0  0  0  0  0  0
   68.6029   46.8968   52.4400 C   0  0  0  0  0  0  0  0  0  0  0  0
   68.5225   46.6414   51.1191 F   0  0  0  0  0  0  0  0  0  0  0  0
   68.0102   46.0391   53.3360 C   0  0  0  0  0  0  0  0  0  0  0  0
   67.3551   44.9499   52.8517 F   0  0  0  0  0  0  0  0  0  0  0  0
   68.0797   46.2853   54.7179 C   0  0  0  0  0  0  0  0  0  0  0  0
  2  1  1  6
  2  9  1  0
  2  3  1  0
  2  7  1  0
  9 10  2  0
  9 14  1  0
 10 11  1  0
 11 12  2  0
 12 15  1  0
 12 13  1  0
 15 16  1  0
 15 17  2  0
 15 18  2  0
 13 14  2  0
  3  4  1  0
  4  5  2  0
  4  6  1  0
  6 19  1  0
  6  7  1  0
 19 20  1  0
 20 21  2  0
 20 22  1  0
 22 23  2  0
 22 29  1  0
 23 24  1  0
 24 25  2  0
 25 26  1  0
 25 27  1  0
 27 28  1  0
 27 29  2  0
  7  8  2  0
M  END
>  <minimizedAffinity>  (249) 
-8.83012

$$$$
data/reference_output_2/data/smiles/127585.pdb
     RDKit          3D

 31 34  0  0  0  0  0  0  0  0999 V2000
   70.0221   38.7760   60.2832 S   0  0  0  0  0  0  0  0  0  0  0  0
   68.8085   38.1749   60.9715 O   0  0  0  0  0  0  0  0  0  0  0  0
   70.9506   39.1991   61.3885 O   0  0  0  0  0  0  0  0  0  0  0  0
   69.5594   40.0933   59.3853 N   0  0  0  0  0  0  0  0  0  0  0  0
   68.4667   40.0534   58.5332 C   0  0  0  0  0  0  0  0  0  0  0  0
   68.3595   41.2220   57.6325 C   0  0  0  0  0  0  0  0  0  0  0  0
   67.3540   41.2713   56.6549 C   0  0  0  0  0  0  0  0  0  0  0  0
   67.2226   42.3416   55.8077 C   0  0  0  0  0  0  0  0  0  0  0  0
   68.0831   43.4300   55.8779 C   0  0  0  0  0  0  0  0  0  0  0  0
   69.0610   43.3865   56.8236 C   0  0  0  0  0  0  0  0  0  0  0  0
   69.2009   42.2970   57.6935 C   0  0  0  0  0  0  0  0  0  0  0  0
   70.2904   42.3170   58.6978 C   0  0  0  0  0  0  0  0  0  0  0  0
   70.0384   41.3497   59.8266 C   0  0  1  0  0  0  0  0  0  0  0  0
   68.9760   41.9779   60.6737 C   0  0  0  0  0  0  0  0  0  0  0  0
   68.4078   41.3646   61.6192 O   0  0  0  0  0  0  0  0  0  0  0  0
   68.5530   43.3182   60.4459 N   0  0  0  0  0  0  0  0  0  0  0  0
   67.5850   43.8925   61.2096 O   0  0  0  0  0  0  0  0  0  0  0  0
   72.3003   35.6854   57.7824 C   0  0  0  0  0  0  0  0  0  0  0  0
   71.5488   35.2967   58.8758 C   0  0  0  0  0  0  0  0  0  0  0  0
   70.8478   36.2031   59.6568 C   0  0  0  0  0  0  0  0  0  0  0  0
   70.8723   37.5394   59.3708 C   0  0  0  0  0  0  0  0  0  0  0  0
   71.6159   37.9443   58.2831 C   0  0  0  0  0  0  0  0  0  0  0  0
   72.3141   37.0380   57.5073 C   0  0  0  0  0  0  0  0  0  0  0  0
   73.1764   33.5636   57.4176 O   0  0  0  0  0  0  0  0  0  0  0  0
   73.0604   34.7364   56.9720 C   0  0  0  0  0  0  0  0  0  0  0  0
   73.6782   35.0423   55.7153 C   0  0  0  0  0  0  0  0  0  0  0  0
   75.0454   35.0166   55.5832 C   0  0  0  0  0  0  0  0  0  0  0  0
   75.6448   35.2870   54.3416 C   0  0  0  0  0  0  0  0  0  0  0  0
   74.8462   35.5795   53.2568 C   0  0  0  0  0  0  0  0  0  0  0  0
   73.4796   35.6078   53.3777 C   0  0  0  0  0  0  0  0  0  0  0  0
   72.9254   35.3374   54.6106 C   0  0  0  0  0  0  0  0  0  0  0  0
 24 25  2  0
 25 26  1  0
 25 18  1  0
 26 27  2  0
 26 31  1  0
 27 28  1  0
 28 29  2  0
 29 30  1  0
 30 31  2  0
 18 19  2  0
 18 23  1  0
 19 20  1  0
 20 21  2  0
 21  1  1  0
 21 22  1  0
  1  2  2  0
  1  3  2  0
  1  4  1  0
  4  5  1  0
  4 13  1  0
  5  6  1  0
  6  7  2  0
  6 11  1  0
  7  8  1  0
  8  9  2  0
  9 10  1  0
 10 11  2  0
 11 12  1  0
 12 13  1  0
 13 14  1  1
 14 15  2  0
 14 16  1  0
 16 17  1  0
 22 23  2  0
M  END
>  <minimizedAffinity>  (250) 
-8.82082

$$$$
data/reference_output_2/data/smiles/130650.pdb
     RDKit          3D

 32 35  0  0  0  0  0  0  0  0999 V2000
   70.9269   48.8454   58.2275 C   0  0  0  0  0  0  0  0  0  0  0  0
   72.0816   49.5845   58.1932 C   0  0  0  0  0  0  0  0  0  0  0  0
   72.0378   50.8868   57.7179 C   0  0  0  0  0  0  0  0  0  0  0  0
   70.8351   51.4314   57.2829 C   0  0  0  0  0  0  0  0  0  0  0  0
   69.6808   50.7071   57.3116 C   0  0  0  0  0  0  0  0  0  0  0  0
   69.7461   49.4188   57.7863 C   0  0  0  0  0  0  0  0  0  0  0  0
   68.3338   51.0774   56.9135 C   0  0  0  0  0  0  0  0  0  0  0  0
   68.1718   51.6855   55.5656 C   0  0  0  0  0  0  0  0  0  0  0  0
   69.4451   52.1568   55.1024 N   0  0  0  0  0  0  0  0  0  0  0  0
   69.9949   51.4960   53.9794 C   0  0  0  0  0  0  0  0  0  0  0  0
   71.1044   51.8283   53.4932 O   0  0  0  0  0  0  0  0  0  0  0  0
   70.2056   53.2399   55.6840 C   0  0  0  0  0  0  0  0  0  0  0  0
   71.0571   52.8027   56.8335 C   0  0  0  0  0  0  0  0  0  0  0  0
   71.4165   45.2439   58.6816 C   0  0  1  0  0  0  0  0  0  0  0  0
   70.4343   46.2954   58.1366 C   0  0  0  0  0  0  0  0  0  0  0  0
   70.9824   47.5044   58.7185 N   0  0  0  0  0  0  0  0  0  0  0  0
   71.6138   47.0824   59.9248 C   0  0  0  0  0  0  0  0  0  0  0  0
   72.1418   47.8754   60.7558 O   0  0  0  0  0  0  0  0  0  0  0  0
   71.5396   45.6787   60.0068 O   0  0  0  0  0  0  0  0  0  0  0  0
   70.8926   43.8657   58.5068 C   0  0  0  0  0  0  0  0  0  0  0  0
   67.9038   42.7598   56.2586 C   0  0  0  0  0  0  0  0  0  0  0  0
   69.0923   42.7015   57.1604 C   0  0  0  0  0  0  0  0  0  0  0  0
   69.4842   41.5518   57.4646 O   0  0  0  0  0  0  0  0  0  0  0  0
   69.7467   43.8343   57.6497 N   0  0  0  0  0  0  0  0  0  0  0  0
   69.2889   50.4571   53.4068 O   0  0  0  0  0  0  0  0  0  0  0  0
   69.9400   49.3405   52.8189 C   0  0  0  0  0  0  0  0  0  0  0  0
   69.2382   48.1003   53.2293 C   0  0  0  0  0  0  0  0  0  0  0  0
   68.9974   47.8404   54.5582 C   0  0  0  0  0  0  0  0  0  0  0  0
   68.3452   46.6935   54.9970 C   0  0  0  0  0  0  0  0  0  0  0  0
   67.9266   45.7811   54.0274 C   0  0  0  0  0  0  0  0  0  0  0  0
   68.1487   46.0053   52.7028 C   0  0  0  0  0  0  0  0  0  0  0  0
   68.7970   47.1509   52.3075 C   0  0  0  0  0  0  0  0  0  0  0  0
 21 22  1  0
 22 23  2  0
 22 24  1  0
 24 20  1  0
 14 20  1  1
 14 15  1  0
 14 19  1  0
 15 16  1  0
 16  1  1  0
 16 17  1  0
  1  2  2  0
  1  6  1  0
  2  3  1  0
  3  4  2  0
  4  5  1  0
  4 13  1  0
  5  6  2  0
  5  7  1  0
  7  8  1  0
  8  9  1  0
  9 10  1  0
  9 12  1  0
 10 11  2  0
 10 25  1  0
 25 26  1  0
 26 27  1  0
 27 28  2  0
 27 32  1  0
 28 29  1  0
 29 30  2  0
 30 31  1  0
 31 32  2  0
 12 13  1  0
 17 18  2  0
 17 19  1  0
M  END
>  <minimizedAffinity>  (251) 
-8.82077

$$$$
data/200k_reference_output/data/smiles/57388.pdb
     RDKit          3D

 30 34  0  0  0  0  0  0  0  0999 V2000
   71.8996   48.9544   59.0096 C   0  0  0  0  0  0  0  0  0  0  0  0
   70.9535   48.3686   58.1646 C   0  0  0  0  0  0  0  0  0  0  0  0
   70.2200   49.0596   57.2426 C   0  0  0  0  0  0  0  0  0  0  0  0
   70.4709   50.4380   57.1793 C   0  0  0  0  0  0  0  0  0  0  0  0
   71.3940   51.0564   57.9919 C   0  0  0  0  0  0  0  0  0  0  0  0
   72.1110   50.3049   58.9120 C   0  0  0  0  0  0  0  0  0  0  0  0
   73.0223   50.9509   59.7067 F   0  0  0  0  0  0  0  0  0  0  0  0
   72.0061   47.6349   60.9606 O   0  0  0  0  0  0  0  0  0  0  0  0
   72.6407   48.1567   59.9759 C   0  0  0  0  0  0  0  0  0  0  0  0
   74.0521   47.9672   59.8249 N   0  0  0  0  0  0  0  0  0  0  0  0
   74.9847   47.2386   60.6551 C   0  0  0  0  0  0  0  0  0  0  0  0
   75.9459   47.2053   59.5250 C   0  0  0  0  0  0  0  0  0  0  0  0
   75.1165   48.3311   58.9616 C   0  0  0  0  0  0  0  0  0  0  0  0
   74.8640   48.2098   57.4746 C   0  0  0  0  0  0  0  0  0  0  0  0
   74.7501   49.5945   56.8934 C   0  0  0  0  0  0  0  0  0  0  0  0
   76.0522   50.2457   56.8891 N   0  0  0  0  0  0  0  0  0  0  0  0
   76.7470   50.0179   58.1420 C   0  0  0  0  0  0  0  0  0  0  0  0
   75.7764   49.6676   59.2631 C   0  0  0  0  0  0  0  0  0  0  0  0
   69.1977   48.4376   56.3657 C   0  0  0  0  0  0  0  0  0  0  0  0
   69.5277   48.4429   54.9430 C   0  0  0  0  0  0  0  0  0  0  0  0
   70.4218   49.3736   54.4742 N   0  0  0  0  0  0  0  0  0  0  0  0
   70.7397   49.4737   53.1978 N   0  0  0  0  0  0  0  0  0  0  0  0
   70.2248   48.6839   52.2440 C   0  0  0  0  0  0  0  0  0  0  0  0
   70.5242   48.7802   51.0421 O   0  0  0  0  0  0  0  0  0  0  0  0
   69.3164   47.7168   52.6246 C   0  0  0  0  0  0  0  0  0  0  0  0
   68.7634   46.8669   51.6737 C   0  0  0  0  0  0  0  0  0  0  0  0
   67.8749   45.9065   52.0643 C   0  0  0  0  0  0  0  0  0  0  0  0
   67.5533   45.8096   53.3990 C   0  0  0  0  0  0  0  0  0  0  0  0
   68.1150   46.6677   54.3346 C   0  0  0  0  0  0  0  0  0  0  0  0
   69.0038   47.6341   53.9678 C   0  0  0  0  0  0  0  0  0  0  0  0
  8  9  2  0
  9  1  1  0
  9 10  1  0
  1  2  2  0
  1  6  1  0
  2  3  1  0
  3 19  1  0
  3  4  2  0
 19 20  1  0
 20 21  2  0
 20 30  1  0
 21 22  1  0
 22 23  1  0
 23 24  2  0
 23 25  1  0
 25 26  1  0
 25 30  2  0
 26 27  2  0
 27 28  1  0
 28 29  2  0
 29 30  1  0
  4  5  1  0
  5  6  2  0
  6  7  1  0
 10 11  1  0
 10 13  1  0
 11 12  1  0
 12 13  1  0
 13 14  1  0
 13 18  1  0
 14 15  1  0
 15 16  1  0
 16 17  1  0
 17 18  1  0
M  CHG  1  16   1
M  END
>  <minimizedAffinity>  (252) 
-8.81927

$$$$
data/reference_output_2/data/smiles/170105.pdb
     RDKit          3D

 25 26  0  0  0  0  0  0  0  0999 V2000
   67.5889   43.3464   56.1441 N   0  0  0  0  0  0  0  0  0  0  0  0
   68.3574   45.9879   56.3042 O   0  0  0  0  0  0  0  0  0  0  0  0
   68.2451   45.5075   55.1502 C   0  0  0  0  0  0  0  0  0  0  0  0
   67.8500   44.1463   55.0490 N   0  0  0  0  0  0  0  0  0  0  0  0
   68.4993   46.2770   53.9475 C   0  0  0  0  0  0  0  0  0  0  0  0
   68.0893   45.9309   52.6820 C   0  0  0  0  0  0  0  0  0  0  0  0
   68.3810   46.7387   51.5744 C   0  0  0  0  0  0  0  0  0  0  0  0
   69.0927   47.9087   51.7303 C   0  0  0  0  0  0  0  0  0  0  0  0
   69.5212   48.2847   53.0064 C   0  0  0  0  0  0  0  0  0  0  0  0
   69.2199   47.4741   54.0665 C   0  0  0  0  0  0  0  0  0  0  0  0
   70.2574   49.4873   53.2000 N   0  0  0  0  0  0  0  0  0  0  0  0
   69.6949   50.5994   53.3001 O   0  0  0  0  0  0  0  0  0  0  0  0
   71.6269   49.4069   53.2774 O   0  0  0  0  0  0  0  0  0  0  0  0
   68.3545   42.4748   56.8812 C   0  0  0  0  0  0  0  0  0  0  0  0
   67.4782   41.2287   57.6360 S   0  0  0  0  0  0  0  0  0  0  0  0
   69.7329   42.3747   57.1220 N   0  0  0  0  0  0  0  0  0  0  0  0
   70.5484   43.2801   57.8074 C   0  0  0  0  0  0  0  0  0  0  0  0
   70.0208   44.3104   58.2795 O   0  0  0  0  0  0  0  0  0  0  0  0
   71.9939   43.1009   58.0103 C   0  0  0  0  0  0  0  0  0  0  0  0
   72.9054   44.1059   57.8401 C   0  0  0  0  0  0  0  0  0  0  0  0
   74.2681   43.9093   58.0379 C   0  0  0  0  0  0  0  0  0  0  0  0
   74.7394   42.6764   58.4159 C   0  0  0  0  0  0  0  0  0  0  0  0
   76.6269   42.4139   58.6883 Br  0  0  0  0  0  0  0  0  0  0  0  0
   73.8372   41.6586   58.5903 C   0  0  0  0  0  0  0  0  0  0  0  0
   72.4768   41.8702   58.3883 C   0  0  0  0  0  0  0  0  0  0  0  0
  2  3  2  0
  3  4  1  0
  3  5  1  0
  4  1  1  0
  1 14  1  0
 14 15  2  0
 14 16  1  0
 16 17  1  0
 17 18  2  0
 17 19  1  0
 19 20  2  0
 19 25  1  0
 20 21  1  0
 21 22  2  0
 22 23  1  0
 22 24  1  0
 24 25  2  0
  5  6  2  0
  5 10  1  0
  6  7  1  0
  7  8  2  0
  8  9  1  0
  9 11  1  0
  9 10  2  0
 11 12  2  0
 11 13  1  0
M  CHG  2  11   1  13  -1
M  END
>  <minimizedAffinity>  (253) 
-8.81899

$$$$
data/200k_reference_output/data/smiles/51605.pdb
     RDKit          3D

 31 34  0  0  0  0  0  0  0  0999 V2000
   69.6190   49.7253   57.4279 C   0  0  0  0  0  0  0  0  0  0  0  0
   70.5032   48.9445   57.8472 O   0  0  0  0  0  0  0  0  0  0  0  0
   69.8565   51.1183   57.5104 N   0  0  0  0  0  0  0  0  0  0  0  0
   71.1064   51.6228   58.0796 C   0  0  0  0  0  0  0  0  0  0  0  0
   71.5777   52.8314   57.3359 C   0  0  0  0  0  0  0  0  0  0  0  0
   71.0380   52.9203   55.9266 C   0  0  2  0  0  0  0  0  0  0  0  0
   69.5443   52.8890   55.8973 C   0  0  1  0  0  0  0  0  0  0  0  0
   69.2437   52.1623   54.6260 C   0  0  0  0  0  0  0  0  0  0  0  0
   70.4737   51.3827   54.3581 C   0  0  0  0  0  0  0  0  0  0  0  0
   70.8901   50.3628   53.5922 N   0  0  0  0  0  0  0  0  0  0  0  0
   72.1676   50.1960   53.8844 N   0  0  0  0  0  0  0  0  0  0  0  0
   72.5525   51.0786   54.8046 C   0  0  0  0  0  0  0  0  0  0  0  0
   71.5005   51.8193   55.1034 N   0  0  0  0  0  0  0  0  0  0  0  0
   68.9329   52.1339   57.0592 C   0  0  0  0  0  0  0  0  0  0  0  0
   73.9400   51.1447   55.3424 C   0  0  0  0  0  0  0  0  0  0  0  0
   74.7399   50.3068   54.5789 F   0  0  0  0  0  0  0  0  0  0  0  0
   74.4265   52.4245   55.4155 F   0  0  0  0  0  0  0  0  0  0  0  0
   73.9909   50.6282   56.6335 F   0  0  0  0  0  0  0  0  0  0  0  0
   68.3848   49.1278   56.8744 C   0  0  0  0  0  0  0  0  0  0  0  0
   69.1260   46.8591   57.3708 N   0  0  0  0  0  0  0  0  0  0  0  0
   68.6102   47.7149   56.3597 C   0  0  2  0  0  0  0  0  0  0  0  0
   69.3900   47.7942   55.0869 C   0  0  0  0  0  0  0  0  0  0  0  0
   68.7672   47.0834   53.9593 C   0  0  0  0  0  0  0  0  0  0  0  0
   68.0434   45.9311   54.1297 C   0  0  0  0  0  0  0  0  0  0  0  0
   67.4655   45.2769   53.0294 C   0  0  0  0  0  0  0  0  0  0  0  0
   66.7618   44.1483   53.2358 F   0  0  0  0  0  0  0  0  0  0  0  0
   67.6221   45.7903   51.7554 C   0  0  0  0  0  0  0  0  0  0  0  0
   67.0802   45.1880   50.6664 F   0  0  0  0  0  0  0  0  0  0  0  0
   68.3395   46.9313   51.5885 C   0  0  0  0  0  0  0  0  0  0  0  0
   68.9022   47.5656   52.6767 C   0  0  0  0  0  0  0  0  0  0  0  0
   69.5979   48.6849   52.4756 F   0  0  0  0  0  0  0  0  0  0  0  0
 21 20  1  1
 21 19  1  0
 21 22  1  0
 19  1  1  0
  1  2  2  0
  1  3  1  0
  3  4  1  0
  3 14  1  0
  4  5  1  0
  6  5  1  1
  6  7  1  0
  6 13  1  0
  7  8  1  6
  7 14  1  0
  8  9  1  0
  9 10  2  0
  9 13  1  0
 10 11  1  0
 11 12  2  0
 12 15  1  0
 12 13  1  0
 15 16  1  0
 15 17  1  0
 15 18  1  0
 22 23  1  0
 23 24  2  0
 23 30  1  0
 24 25  1  0
 25 26  1  0
 25 27  2  0
 27 28  1  0
 27 29  1  0
 29 30  2  0
 30 31  1  0
M  CHG  1  20   1
M  END
>  <minimizedAffinity>  (254) 
-8.81854

$$$$
data/reference_output_2/data/smiles/118396.pdb
     RDKit          3D

 33 37  0  0  0  0  0  0  0  0999 V2000
   67.8789   42.9055   56.1326 C   0  0  0  0  0  0  0  0  0  0  0  0
   66.9741   42.2721   55.4049 N   0  0  0  0  0  0  0  0  0  0  0  0
   66.8809   40.9900   55.7692 N   0  0  0  0  0  0  0  0  0  0  0  0
   67.7448   40.7417   56.7702 C   0  0  0  0  0  0  0  0  0  0  0  0
   68.3821   41.9398   57.0120 C   0  0  0  0  0  0  0  0  0  0  0  0
   69.3398   41.6884   58.1183 C   0  0  0  0  0  0  0  0  0  0  0  0
   69.5468   40.2751   58.0470 N   0  0  0  0  0  0  0  0  0  0  0  0
   70.7506   39.5943   58.2643 C   0  0  0  0  0  0  0  0  0  0  0  0
   71.8061   40.2395   58.5578 O   0  0  0  0  0  0  0  0  0  0  0  0
   70.8758   38.1769   58.1759 N   0  0  0  0  0  0  0  0  0  0  0  0
   68.2796   39.6870   57.7075 C   0  0  0  0  0  0  0  0  0  0  0  0
   72.1256   37.5438   58.4089 C   0  0  0  0  0  0  0  0  0  0  0  0
   72.6307   36.5966   57.5424 C   0  0  0  0  0  0  0  0  0  0  0  0
   73.8426   35.9866   57.7812 C   0  0  0  0  0  0  0  0  0  0  0  0
   74.6054   36.2936   58.8936 C   0  0  0  0  0  0  0  0  0  0  0  0
   74.1102   37.2460   59.7762 C   0  0  0  0  0  0  0  0  0  0  0  0
   72.9008   37.8409   59.5186 C   0  0  0  0  0  0  0  0  0  0  0  0
   68.1814   45.1133   55.0188 C   0  0  0  0  0  0  0  0  0  0  0  0
   67.6008   44.6213   54.0148 O   0  0  0  0  0  0  0  0  0  0  0  0
   68.3428   44.2616   56.1316 N   0  0  0  0  0  0  0  0  0  0  0  0
   69.5140   49.2058   54.7358 C   0  0  0  0  0  0  0  0  0  0  0  0
   69.3809   48.5673   55.9504 C   0  0  0  0  0  0  0  0  0  0  0  0
   68.9492   47.2489   56.0523 C   0  0  0  0  0  0  0  0  0  0  0  0
   68.6271   46.4990   54.9415 C   0  0  0  0  0  0  0  0  0  0  0  0
   68.7579   47.1317   53.7235 C   0  0  0  0  0  0  0  0  0  0  0  0
   69.1852   48.4363   53.6215 C   0  0  0  0  0  0  0  0  0  0  0  0
   70.7267   51.8307   57.3338 C   0  0  0  0  0  0  0  0  0  0  0  0
   70.6957   52.5794   56.1269 N   0  0  0  0  0  0  0  0  0  0  0  0
   69.3794   52.7393   55.5571 C   0  0  0  0  0  0  0  0  0  0  0  0
   69.0873   51.7080   54.4909 C   0  0  0  0  0  0  0  0  0  0  0  0
   69.9429   50.5523   54.5886 N   0  0  0  0  0  0  0  0  0  0  0  0
   71.3756   50.8323   54.5429 C   0  0  0  0  0  0  0  0  0  0  0  0
   71.6811   52.1892   55.1449 C   0  0  0  0  0  0  0  0  0  0  0  0
 27 28  1  0
 28 29  1  0
 28 33  1  0
 29 30  1  0
 30 31  1  0
 31 21  1  0
 31 32  1  0
 21 22  2  0
 21 26  1  0
 22 23  1  0
 23 24  2  0
 24 18  1  0
 24 25  1  0
 18 19  2  0
 18 20  1  0
 20  1  1  0
  1  2  2  0
  1  5  1  0
  2  3  1  0
  3  4  1  0
  4  5  2  0
  4 11  1  0
  5  6  1  0
  6  7  1  0
  7  8  1  0
  7 11  1  0
  8  9  2  0
  8 10  1  0
 10 12  1  0
 12 13  2  0
 12 17  1  0
 13 14  1  0
 14 15  2  0
 15 16  1  0
 16 17  2  0
 25 26  2  0
 32 33  1  0
M  CHG  1  28   1
M  END
>  <minimizedAffinity>  (255) 
-8.81759

$$$$
data/reference_output_2/data/smiles/130808.pdb
     RDKit          3D

 30 33  0  0  0  0  0  0  0  0999 V2000
   69.3476   44.2807   57.0906 C   0  0  0  0  0  0  0  0  0  0  0  0
   68.3343   44.3144   56.2136 N   0  0  0  0  0  0  0  0  0  0  0  0
   67.7355   43.1627   56.2178 N   0  0  0  0  0  0  0  0  0  0  0  0
   68.3340   42.3255   57.1011 C   0  0  0  0  0  0  0  0  0  0  0  0
   69.3363   43.0566   57.6292 N   0  0  0  0  0  0  0  0  0  0  0  0
   70.2705   42.5872   58.6342 C   0  0  0  0  0  0  0  0  0  0  0  0
   70.8428   41.2201   58.2607 C   0  0  0  0  0  0  0  0  0  0  0  0
   69.8788   40.2531   58.5312 N   0  0  1  0  0  0  0  0  0  0  0  0
   68.9163   39.9458   57.5702 C   0  0  0  0  0  0  0  0  0  0  0  0
   67.8599   40.9616   57.3071 C   0  0  0  0  0  0  0  0  0  0  0  0
   70.2563   45.4087   57.3600 C   0  0  0  0  0  0  0  0  0  0  0  0
   69.6089   47.3894   55.5464 O   0  0  0  0  0  0  0  0  0  0  0  0
   69.1635   47.5851   56.7150 C   0  0  0  0  0  0  0  0  0  0  0  0
   69.4725   46.5906   57.6797 N   0  0  0  0  0  0  0  0  0  0  0  0
   68.3856   48.7825   56.9875 C   0  0  0  0  0  0  0  0  0  0  0  0
   67.2487   48.6901   57.7606 C   0  0  0  0  0  0  0  0  0  0  0  0
   66.4557   49.7704   58.0669 C   0  0  0  0  0  0  0  0  0  0  0  0
   66.7807   51.0226   57.5957 C   0  0  0  0  0  0  0  0  0  0  0  0
   67.9116   51.1428   56.8220 C   0  0  0  0  0  0  0  0  0  0  0  0
   68.2357   52.3678   56.3570 F   0  0  0  0  0  0  0  0  0  0  0  0
   68.7068   50.0344   56.5200 C   0  0  0  0  0  0  0  0  0  0  0  0
   70.0815   39.3630   59.6063 C   0  0  0  0  0  0  0  0  0  0  0  0
   70.6766   38.0538   59.2323 C   0  0  0  0  0  0  0  0  0  0  0  0
   70.3276   36.9213   59.9378 C   0  0  0  0  0  0  0  0  0  0  0  0
   70.8680   35.6752   59.6122 C   0  0  0  0  0  0  0  0  0  0  0  0
   70.5182   34.5611   60.3142 F   0  0  0  0  0  0  0  0  0  0  0  0
   71.7660   35.5561   58.5712 C   0  0  0  0  0  0  0  0  0  0  0  0
   72.1280   36.6762   57.8532 C   0  0  0  0  0  0  0  0  0  0  0  0
   73.0196   36.5749   56.8151 F   0  0  0  0  0  0  0  0  0  0  0  0
   71.5769   37.8944   58.1983 C   0  0  0  0  0  0  0  0  0  0  0  0
 12 13  2  0
 13 14  1  0
 13 15  1  0
 14 11  1  0
 11  1  1  0
  1  2  2  0
  1  5  1  0
  2  3  1  0
  3  4  2  0
  4  5  1  0
  4 10  1  0
  5  6  1  0
  6  7  1  0
  7  8  1  0
  8 22  1  6
  8  9  1  0
 22 23  1  0
 23 24  2  0
 23 30  1  0
 24 25  1  0
 25 26  1  0
 25 27  2  0
 27 28  1  0
 28 29  1  0
 28 30  2  0
  9 10  1  0
 15 16  2  0
 15 21  1  0
 16 17  1  0
 17 18  2  0
 18 19  1  0
 19 20  1  0
 19 21  2  0
M  CHG  1   8   1
M  END
>  <minimizedAffinity>  (256) 
-8.81721

$$$$
data/200k_reference_output/data/smiles/56772.pdb
     RDKit          3D

 30 34  0  0  0  0  0  0  0  0999 V2000
   70.7700   50.9985   54.7292 C   0  0  0  0  0  0  0  0  0  0  0  0
   70.4683   50.6387   53.4343 C   0  0  0  0  0  0  0  0  0  0  0  0
   69.8610   49.4650   53.1140 C   0  0  0  0  0  0  0  0  0  0  0  0
   69.5727   49.1459   51.7758 C   0  0  0  0  0  0  0  0  0  0  0  0
   69.9001   49.9741   50.9189 O   0  0  0  0  0  0  0  0  0  0  0  0
   68.9704   47.9868   51.4738 N   0  0  0  0  0  0  0  0  0  0  0  0
   68.6261   47.1022   52.4249 C   0  0  0  0  0  0  0  0  0  0  0  0
   67.9987   45.9084   52.1069 C   0  0  0  0  0  0  0  0  0  0  0  0
   67.6365   44.9959   53.0702 C   0  0  0  0  0  0  0  0  0  0  0  0
   67.8994   45.2665   54.3882 C   0  0  0  0  0  0  0  0  0  0  0  0
   68.5346   46.4769   54.7097 C   0  0  0  0  0  0  0  0  0  0  0  0
   68.9012   47.3961   53.7549 C   0  0  0  0  0  0  0  0  0  0  0  0
   69.5179   48.5707   54.1256 C   0  0  0  0  0  0  0  0  0  0  0  0
   69.8000   48.8831   55.4446 C   0  0  0  0  0  0  0  0  0  0  0  0
   70.4189   50.0891   55.7061 C   0  0  0  0  0  0  0  0  0  0  0  0
   70.7037   50.3456   57.0326 F   0  0  0  0  0  0  0  0  0  0  0  0
   71.3895   52.2923   55.0481 C   0  0  0  0  0  0  0  0  0  0  0  0
   72.8649   52.3736   54.9483 C   0  0  2  0  0  0  0  0  0  0  0  0
   73.6410   51.5999   55.8568 N   0  0  0  0  0  0  0  0  0  0  0  0
   74.4669   50.4841   55.5619 C   0  0  0  0  0  0  0  0  0  0  0  0
   74.5302   50.1366   54.3700 O   0  0  0  0  0  0  0  0  0  0  0  0
   75.2446   49.7192   56.5403 C   0  0  1  0  0  0  0  0  0  0  0  0
   76.4391   50.4669   56.9495 N   0  0  0  0  0  0  0  0  0  0  0  0
   76.6731   49.8442   58.2601 C   0  0  2  0  0  0  0  0  0  0  0  0
   76.6923   48.3641   58.1273 C   0  0  0  0  0  0  0  0  0  0  0  0
   75.2265   47.8908   58.0916 C   0  0  0  0  0  0  0  0  0  0  0  0
   74.5630   49.2392   57.7516 C   0  0  1  0  0  0  0  0  0  0  0  0
   75.2632   50.0654   58.8480 C   0  0  0  0  0  0  0  0  0  0  0  0
   73.5703   54.9165   55.0251 N   0  0  0  0  0  0  0  0  0  0  0  0
   73.2520   53.8083   54.9914 C   0  0  0  0  0  0  0  0  0  0  0  0
 29 30  3  0
 18 30  1  1
 18 17  1  0
 18 19  1  0
 17  1  1  0
  1  2  2  0
  1 15  1  0
  2  3  1  0
  3  4  1  0
  3 13  2  0
  4  5  2  0
  4  6  1  0
  6  7  1  0
  7  8  1  0
  7 12  2  0
  8  9  2  0
  9 10  1  0
 10 11  2  0
 11 12  1  0
 12 13  1  0
 13 14  1  0
 14 15  2  0
 15 16  1  0
 19 20  1  0
 20 21  2  0
 22 20  1  1
 22 23  1  0
 22 27  1  0
 23 24  1  0
 24 25  1  6
 24 28  1  0
 25 26  1  0
 27 26  1  1
 27 28  1  0
M  CHG  1  23   1
M  END
>  <minimizedAffinity>  (257) 
-8.81540

$$$$
data/200k_reference_output/data/smiles/18396.pdb
     RDKit          3D

 28 30  0  0  0  0  0  0  0  0999 V2000
   69.2110   47.6461   55.0716 N   0  0  0  0  0  0  0  0  0  0  0  0
   70.0556   48.6895   54.9383 C   0  0  0  0  0  0  0  0  0  0  0  0
   70.4423   49.2451   53.7237 C   0  0  0  0  0  0  0  0  0  0  0  0
   69.9206   48.6827   52.5795 C   0  0  0  0  0  0  0  0  0  0  0  0
   70.2139   49.1201   51.4396 O   0  0  0  0  0  0  0  0  0  0  0  0
   69.0433   47.6009   52.7026 C   0  0  0  0  0  0  0  0  0  0  0  0
   68.5264   47.0394   51.5532 C   0  0  0  0  0  0  0  0  0  0  0  0
   67.6536   45.9590   51.6443 C   0  0  0  0  0  0  0  0  0  0  0  0
   67.1388   45.3983   50.5326 F   0  0  0  0  0  0  0  0  0  0  0  0
   67.3122   45.4553   52.8904 C   0  0  0  0  0  0  0  0  0  0  0  0
   67.8570   46.0511   54.0230 C   0  0  0  0  0  0  0  0  0  0  0  0
   68.7149   47.1130   53.9558 C   0  0  0  0  0  0  0  0  0  0  0  0
   71.3573   50.3650   53.7293 C   0  0  0  0  0  0  0  0  0  0  0  0
   70.8696   51.5289   53.5250 O   0  0  0  0  0  0  0  0  0  0  0  0
   72.7476   50.3348   53.9367 N   0  0  0  0  0  0  0  0  0  0  0  0
   73.5285   51.5349   53.9135 N   0  0  0  0  0  0  0  0  0  0  0  0
   74.1719   51.7398   55.4997 S   0  0  0  0  0  0  0  0  0  0  0  0
   75.6525   51.4643   55.4348 O   0  0  0  0  0  0  0  0  0  0  0  0
   73.9711   53.1471   55.9530 O   0  0  0  0  0  0  0  0  0  0  0  0
   73.4342   50.6797   56.6544 C   0  0  0  0  0  0  0  0  0  0  0  0
   72.2451   50.9759   57.2730 C   0  0  0  0  0  0  0  0  0  0  0  0
   71.6822   50.1198   58.1833 C   0  0  0  0  0  0  0  0  0  0  0  0
   72.2709   48.9322   58.5210 C   0  0  0  0  0  0  0  0  0  0  0  0
   71.6945   47.9783   59.5018 C   0  0  0  0  0  0  0  0  0  0  0  0
   73.4710   48.6147   57.9096 C   0  0  0  0  0  0  0  0  0  0  0  0
   74.0416   49.4798   56.9876 C   0  0  0  0  0  0  0  0  0  0  0  0
   68.2349   48.3431   57.1325 C   0  0  0  0  0  0  0  0  0  0  0  0
   68.8866   47.1766   56.4216 C   0  0  0  0  0  0  0  0  0  0  0  0
 27 28  1  0
 28  1  1  0
  1  2  1  0
  1 12  1  0
  2  3  2  0
  3 13  1  0
  3  4  1  0
 13 14  2  0
 13 15  1  0
 15 16  1  0
 16 17  1  0
 17 18  2  0
 17 19  2  0
 17 20  1  0
 20 21  2  0
 20 26  1  0
 21 22  1  0
 22 23  2  0
 23 24  1  0
 23 25  1  0
 25 26  2  0
  4  5  2  0
  4  6  1  0
  6  7  1  0
  6 12  2  0
  7  8  2  0
  8  9  1  0
  8 10  1  0
 10 11  2  0
 11 12  1  0
M  END
>  <minimizedAffinity>  (258) 
-8.81085

$$$$
data/reference_output_2/data/smiles/145537.pdb
     RDKit          3D

 28 31  0  0  0  0  0  0  0  0999 V2000
   72.8232   51.3636   54.4597 S   0  0  0  0  0  0  0  0  0  0  0  0
   73.6572   50.2497   53.8240 O   0  0  0  0  0  0  0  0  0  0  0  0
   73.4708   52.6413   54.0235 O   0  0  0  0  0  0  0  0  0  0  0  0
   73.2689   50.2099   58.6458 C   0  0  0  0  0  0  0  0  0  0  0  0
   73.0428   51.5536   58.4640 C   0  0  0  0  0  0  0  0  0  0  0  0
   72.8981   51.9704   57.2081 C   0  0  0  0  0  0  0  0  0  0  0  0
   72.9685   51.1231   56.1746 C   0  0  0  0  0  0  0  0  0  0  0  0
   73.2691   49.5601   56.9947 S   0  0  0  0  0  0  0  0  0  0  0  0
   73.9260   47.2347   63.2586 O   0  0  0  0  0  0  0  0  0  0  0  0
   73.7980   47.9356   62.2008 C   0  0  0  0  0  0  0  0  0  0  0  0
   74.6987   48.9136   61.8799 C   0  0  0  0  0  0  0  0  0  0  0  0
   74.5361   49.6552   60.7309 C   0  0  0  0  0  0  0  0  0  0  0  0
   73.4705   49.4329   59.8833 C   0  0  0  0  0  0  0  0  0  0  0  0
   72.6029   48.4379   60.2618 C   0  0  0  0  0  0  0  0  0  0  0  0
   72.7572   47.7149   61.3764 N   0  0  0  0  0  0  0  0  0  0  0  0
   71.2524   51.1878   53.8264 N   0  0  0  0  0  0  0  0  0  0  0  0
   70.4490   50.0460   53.8995 C   0  0  0  0  0  0  0  0  0  0  0  0
   70.3023   49.1181   52.8963 C   0  0  0  0  0  0  0  0  0  0  0  0
   69.4958   47.9985   53.0815 C   0  0  0  0  0  0  0  0  0  0  0  0
   69.3485   47.0676   52.0754 C   0  0  0  0  0  0  0  0  0  0  0  0
   69.9581   47.2398   50.9693 O   0  0  0  0  0  0  0  0  0  0  0  0
   68.5691   45.9854   52.2536 N   0  0  0  0  0  0  0  0  0  0  0  0
   67.8935   45.7298   53.3834 C   0  0  0  0  0  0  0  0  0  0  0  0
   68.0209   46.6485   54.4186 C   0  0  0  0  0  0  0  0  0  0  0  0
   68.8163   47.7675   54.2574 C   0  0  0  0  0  0  0  0  0  0  0  0
   68.9621   48.7018   55.2739 C   0  0  0  0  0  0  0  0  0  0  0  0
   69.7565   49.8099   55.0979 C   0  0  0  0  0  0  0  0  0  0  0  0
   69.8456   50.6777   56.1432 F   0  0  0  0  0  0  0  0  0  0  0  0
  9 10  2  0
 10 11  1  0
 10 15  1  0
 11 12  2  0
 12 13  1  0
 13  4  1  0
 13 14  2  0
  4  5  2  0
  4  8  1  0
  5  6  1  0
  6  7  2  0
  7  1  1  0
  7  8  1  0
  1  2  2  0
  1  3  2  0
  1 16  1  0
 16 17  1  0
 17 18  2  0
 17 27  1  0
 18 19  1  0
 19 20  1  0
 19 25  2  0
 20 21  2  0
 20 22  1  0
 22 23  1  0
 23 24  2  0
 24 25  1  0
 25 26  1  0
 26 27  2  0
 27 28  1  0
 14 15  1  0
M  END
>  <minimizedAffinity>  (259) 
-8.81075

$$$$
data/200k_reference_output/data/smiles/38473.pdb
     RDKit          3D

 30 33  0  0  0  0  0  0  0  0999 V2000
   71.3288   49.2066   58.6505 C   0  0  0  0  0  0  0  0  0  0  0  0
   70.8131   50.4652   58.8603 C   0  0  0  0  0  0  0  0  0  0  0  0
   69.8653   51.0484   58.0127 C   0  0  0  0  0  0  0  0  0  0  0  0
   69.4446   50.3123   56.9282 C   0  0  0  0  0  0  0  0  0  0  0  0
   69.9221   49.0473   56.6604 C   0  0  0  0  0  0  0  0  0  0  0  0
   70.8466   48.5416   57.5321 C   0  0  0  0  0  0  0  0  0  0  0  0
   69.4499   48.3298   55.5197 N   0  0  0  0  0  0  0  0  0  0  0  0
   68.6299   47.1659   55.5409 C   0  0  0  0  0  0  0  0  0  0  0  0
   68.2192   46.6263   56.6013 O   0  0  0  0  0  0  0  0  0  0  0  0
   68.3683   46.7380   54.1726 C   0  0  0  0  0  0  0  0  0  0  0  0
   67.6403   45.6826   53.6306 C   0  0  0  0  0  0  0  0  0  0  0  0
   67.5529   45.5025   52.2645 C   0  0  0  0  0  0  0  0  0  0  0  0
   68.1863   46.3667   51.3905 C   0  0  0  0  0  0  0  0  0  0  0  0
   68.9033   47.4076   51.9446 C   0  0  0  0  0  0  0  0  0  0  0  0
   69.0029   47.6052   53.3071 C   0  0  0  0  0  0  0  0  0  0  0  0
   69.6830   48.6055   54.1450 C   0  0  0  0  0  0  0  0  0  0  0  0
   70.3628   49.5522   53.7087 O   0  0  0  0  0  0  0  0  0  0  0  0
   71.9947   47.7698   60.6292 N   0  0  0  0  0  0  0  0  0  0  0  0
   72.3167   48.5660   59.5094 C   0  0  0  0  0  0  0  0  0  0  0  0
   73.5219   48.7398   59.2265 O   0  0  0  0  0  0  0  0  0  0  0  0
   74.7158   46.0303   63.3834 C   0  0  0  0  0  0  0  0  0  0  0  0
   74.4071   47.3729   63.3832 C   0  0  0  0  0  0  0  0  0  0  0  0
   73.5205   47.9030   62.4745 C   0  0  0  0  0  0  0  0  0  0  0  0
   72.8825   47.1192   61.5049 C   0  0  0  0  0  0  0  0  0  0  0  0
   73.2076   45.7934   61.5291 C   0  0  0  0  0  0  0  0  0  0  0  0
   74.1093   45.2317   62.4458 C   0  0  0  0  0  0  0  0  0  0  0  0
   75.1482   43.9493   65.3116 N   0  0  0  0  0  0  0  0  0  0  0  0
   75.8293   45.3098   64.5072 S   0  0  0  0  0  0  0  0  0  0  0  0
   76.1540   46.3367   65.5798 O   0  0  0  0  0  0  0  0  0  0  0  0
   77.1124   44.8873   63.8355 O   0  0  0  0  0  0  0  0  0  0  0  0
 27 28  1  0
 28 29  2  0
 28 30  2  0
 28 21  1  0
 21 22  2  0
 21 26  1  0
 22 23  1  0
 23 24  2  0
 24 18  1  0
 24 25  1  0
 18 19  1  0
 19 20  2  0
 19  1  1  0
  1  2  2  0
  1  6  1  0
  2  3  1  0
  3  4  2  0
  4  5  1  0
  5  7  1  0
  5  6  2  0
  7  8  1  0
  7 16  1  0
  8  9  2  0
  8 10  1  0
 10 11  1  0
 10 15  2  0
 11 12  2  0
 12 13  1  0
 13 14  2  0
 14 15  1  0
 15 16  1  0
 16 17  2  0
 25 26  2  0
M  END
>  <minimizedAffinity>  (260) 
-8.80948

$$$$
data/200k_reference_output/data/smiles/59518.pdb
     RDKit          3D

 28 30  0  0  0  0  0  0  0  0999 V2000
   67.2769   41.5504   56.8858 C   0  0  0  0  0  0  0  0  0  0  0  0
   68.1337   40.3512   56.5935 C   0  0  0  0  0  0  0  0  0  0  0  0
   68.3162   39.5104   57.8685 C   0  0  0  0  0  0  0  0  0  0  0  0
   68.9081   40.3832   58.8238 N   0  0  0  0  0  0  0  0  0  0  0  0
   68.0459   41.3971   59.3038 C   0  0  0  0  0  0  0  0  0  0  0  0
   66.9107   41.6246   58.3460 C   0  0  0  0  0  0  0  0  0  0  0  0
   67.4659   43.6371   55.3957 N   0  0  0  0  0  0  0  0  0  0  0  0
   67.9121   42.8093   56.4484 C   0  0  0  0  0  0  0  0  0  0  0  0
   68.9491   43.1935   57.0608 O   0  0  0  0  0  0  0  0  0  0  0  0
   67.0749   44.9587   53.0370 O   0  0  0  0  0  0  0  0  0  0  0  0
   67.9078   45.4719   53.8140 C   0  0  0  0  0  0  0  0  0  0  0  0
   68.1542   44.8292   55.0565 N   0  0  0  0  0  0  0  0  0  0  0  0
   68.5803   46.6930   53.4101 C   0  0  0  0  0  0  0  0  0  0  0  0
   69.0710   46.9071   52.1307 C   0  0  0  0  0  0  0  0  0  0  0  0
   69.7049   48.1223   51.8419 C   0  0  0  0  0  0  0  0  0  0  0  0
   69.8530   49.0886   52.7645 N   0  0  0  0  0  0  0  0  0  0  0  0
   69.3867   48.9045   54.0063 C   0  0  0  0  0  0  0  0  0  0  0  0
   68.7611   47.7117   54.3027 C   0  0  0  0  0  0  0  0  0  0  0  0
   69.8406   39.6068   60.0246 S   0  0  0  0  0  0  0  0  0  0  0  0
   70.8236   40.4941   60.6832 O   0  0  0  0  0  0  0  0  0  0  0  0
   68.9022   39.0682   61.0679 O   0  0  0  0  0  0  0  0  0  0  0  0
   70.6658   38.2333   59.3200 C   0  0  0  0  0  0  0  0  0  0  0  0
   70.4405   36.9734   59.8273 C   0  0  0  0  0  0  0  0  0  0  0  0
   71.0814   35.8827   59.2835 C   0  0  0  0  0  0  0  0  0  0  0  0
   71.9610   35.9870   58.2292 C   0  0  0  0  0  0  0  0  0  0  0  0
   72.7803   34.5982   57.5338 Cl  0  0  0  0  0  0  0  0  0  0  0  0
   72.1664   37.2676   57.7412 C   0  0  0  0  0  0  0  0  0  0  0  0
   71.5385   38.3715   58.2663 C   0  0  0  0  0  0  0  0  0  0  0  0
 10 11  2  0
 11 12  1  0
 11 13  1  0
 12  7  1  0
  7  8  1  0
  8  9  2  0
  8  1  1  0
  1  2  1  0
  1  6  1  0
  2  3  1  0
  3  4  1  0
  4 19  1  0
  4  5  1  0
 19 20  2  0
 19 21  2  0
 19 22  1  0
 22 23  2  0
 22 28  1  0
 23 24  1  0
 24 25  2  0
 25 26  1  0
 25 27  1  0
 27 28  2  0
  5  6  1  0
 13 14  2  0
 13 18  1  0
 14 15  1  0
 15 16  2  0
 16 17  1  0
 17 18  2  0
M  END
>  <minimizedAffinity>  (261) 
-8.80567

$$$$
data/200k_reference_output/data/smiles/13015.pdb
     RDKit          3D

 31 35  0  0  0  0  0  0  0  0999 V2000
   71.0004   47.3848   58.0779 C   0  0  0  0  0  0  0  0  0  0  0  0
   70.2716   46.2006   57.5913 C   0  0  0  0  0  0  0  0  0  0  0  0
   70.4124   44.8957   58.0918 C   0  0  0  0  0  0  0  0  0  0  0  0
   69.5619   44.0896   57.3737 C   0  0  0  0  0  0  0  0  0  0  0  0
   68.9519   44.8804   56.4958 N   0  0  0  0  0  0  0  0  0  0  0  0
   69.3618   46.1432   56.6091 N   0  0  0  0  0  0  0  0  0  0  0  0
   69.4911   42.6429   57.6983 C   0  0  0  0  0  0  0  0  0  0  0  0
   68.7087   41.9151   57.0326 O   0  0  0  0  0  0  0  0  0  0  0  0
   70.2994   42.1174   58.7436 N   0  0  0  0  0  0  0  0  0  0  0  0
   70.6908   43.0719   59.7438 C   0  0  0  0  0  0  0  0  0  0  0  0
   71.2637   44.3357   59.1543 C   0  0  0  0  0  0  0  0  0  0  0  0
   70.6799   40.7719   58.7862 C   0  0  1  0  0  0  0  0  0  0  0  0
   72.1466   40.5060   58.9960 C   0  0  0  0  0  0  0  0  0  0  0  0
   72.5545   39.3554   58.2735 O   0  0  0  0  0  0  0  0  0  0  0  0
   72.1275   38.0428   58.4986 C   0  0  0  0  0  0  0  0  0  0  0  0
   72.9089   37.0875   57.8892 C   0  0  0  0  0  0  0  0  0  0  0  0
   72.5775   35.7607   58.0460 C   0  0  0  0  0  0  0  0  0  0  0  0
   71.4807   35.3702   58.8004 C   0  0  0  0  0  0  0  0  0  0  0  0
   70.6981   36.3203   59.4107 C   0  0  0  0  0  0  0  0  0  0  0  0
   71.0232   37.6463   59.2579 C   0  0  0  0  0  0  0  0  0  0  0  0
   70.1276   38.5507   59.9449 N   0  0  0  0  0  0  0  0  0  0  0  0
   69.2827   37.8997   60.9487 C   0  0  0  0  0  0  0  0  0  0  0  0
   69.9561   39.9516   59.7882 C   0  0  0  0  0  0  0  0  0  0  0  0
   69.1289   40.4727   60.5707 O   0  0  0  0  0  0  0  0  0  0  0  0
   68.9051   47.2844   55.8048 C   0  0  0  0  0  0  0  0  0  0  0  0
   68.6471   46.8655   54.4117 C   0  0  0  0  0  0  0  0  0  0  0  0
   67.8470   45.7869   54.1345 C   0  0  0  0  0  0  0  0  0  0  0  0
   67.6578   45.4646   52.8067 C   0  0  0  0  0  0  0  0  0  0  0  0
   68.2216   46.1608   51.7634 C   0  0  0  0  0  0  0  0  0  0  0  0
   69.0292   47.2503   52.0577 C   0  0  0  0  0  0  0  0  0  0  0  0
   69.2333   47.5933   53.3995 C   0  0  0  0  0  0  0  0  0  0  0  0
  1  2  1  0
  2  3  2  0
  2  6  1  0
  3  4  1  0
  3 11  1  0
  4  5  2  0
  4  7  1  0
  5  6  1  0
  6 25  1  0
 25 26  1  0
 26 27  2  0
 26 31  1  0
 27 28  1  0
 28 29  2  0
 29 30  1  0
 30 31  2  0
  7  8  2  0
  7  9  1  0
 12  9  1  1
  9 10  1  0
 12 13  1  0
 12 23  1  0
 13 14  1  0
 14 15  1  0
 15 16  1  0
 15 20  2  0
 16 17  2  0
 17 18  1  0
 18 19  2  0
 19 20  1  0
 20 21  1  0
 21 22  1  0
 21 23  1  0
 23 24  2  0
 10 11  1  0
M  END
>  <minimizedAffinity>  (262) 
-8.80480

$$$$
data/200k_reference_output/data/smiles/32192.pdb
     RDKit          3D

 30 33  0  0  0  0  0  0  0  0999 V2000
   72.1901   47.7031   58.0168 C   0  0  0  0  0  0  0  0  0  0  0  0
   72.7780   46.5054   58.1337 O   0  0  0  0  0  0  0  0  0  0  0  0
   73.1149   48.7066   57.7569 N   0  0  0  0  0  0  0  0  0  0  0  0
   74.5550   48.3462   57.6592 C   0  0  0  0  0  0  0  0  0  0  0  0
   75.3485   49.3086   56.8434 C   0  0  0  0  0  0  0  0  0  0  0  0
   74.5095   49.9276   55.8419 N   0  0  0  0  0  0  0  0  0  0  0  0
   74.6752   50.2430   54.5508 N   0  0  0  0  0  0  0  0  0  0  0  0
   73.5860   50.8245   54.0691 N   0  0  0  0  0  0  0  0  0  0  0  0
   72.6436   50.9163   55.0446 C   0  0  0  0  0  0  0  0  0  0  0  0
   73.2659   50.3450   56.1243 C   0  0  0  0  0  0  0  0  0  0  0  0
   72.8447   50.0769   57.5414 C   0  0  0  0  0  0  0  0  0  0  0  0
   71.3053   51.4858   54.9503 C   0  0  0  0  0  0  0  0  0  0  0  0
   70.4180   50.9399   54.0482 C   0  0  0  0  0  0  0  0  0  0  0  0
   69.1404   51.4009   53.8801 C   0  0  0  0  0  0  0  0  0  0  0  0
   68.7241   52.4627   54.6504 C   0  0  0  0  0  0  0  0  0  0  0  0
   69.5887   53.0396   55.5701 C   0  0  0  0  0  0  0  0  0  0  0  0
   70.8778   52.5444   55.7134 C   0  0  0  0  0  0  0  0  0  0  0  0
   70.7642   47.6127   58.1902 C   0  0  0  0  0  0  0  0  0  0  0  0
   68.8470   48.9190   57.4762 N   0  0  0  0  0  0  0  0  0  0  0  0
   69.8267   47.9229   57.0951 C   0  0  2  0  0  0  0  0  0  0  0  0
   69.0200   46.7464   56.5773 C   0  0  0  0  0  0  0  0  0  0  0  0
   68.8075   46.6848   55.1478 C   0  0  0  0  0  0  0  0  0  0  0  0
   69.1831   47.7328   54.3046 C   0  0  0  0  0  0  0  0  0  0  0  0
   68.9292   47.6451   52.9578 C   0  0  0  0  0  0  0  0  0  0  0  0
   69.3045   48.6745   52.1714 F   0  0  0  0  0  0  0  0  0  0  0  0
   68.3171   46.5752   52.3656 C   0  0  0  0  0  0  0  0  0  0  0  0
   68.0705   46.5015   51.0322 F   0  0  0  0  0  0  0  0  0  0  0  0
   67.9433   45.5358   53.1882 C   0  0  0  0  0  0  0  0  0  0  0  0
   68.1943   45.6064   54.5634 C   0  0  0  0  0  0  0  0  0  0  0  0
   67.8090   44.4854   55.2598 F   0  0  0  0  0  0  0  0  0  0  0  0
 20 19  1  1
 20 18  1  0
 20 21  1  0
 18  1  1  0
  1  2  2  0
  1  3  1  0
  3  4  1  0
  3 11  1  0
  4  5  1  0
  5  6  1  0
  6  7  1  0
  6 10  1  0
  7  8  2  0
  8  9  1  0
  9 12  1  0
  9 10  2  0
 12 13  2  0
 12 17  1  0
 13 14  1  0
 14 15  2  0
 15 16  1  0
 16 17  2  0
 10 11  1  0
 21 22  1  0
 22 23  2  0
 22 29  1  0
 23 24  1  0
 24 25  1  0
 24 26  2  0
 26 27  1  0
 26 28  1  0
 28 29  2  0
 29 30  1  0
M  CHG  1  19   1
M  END
>  <minimizedAffinity>  (263) 
-8.80052

$$$$
data/reference_output_2/data/smiles/94981.pdb
     RDKit          3D

 30 34  0  0  0  0  0  0  0  0999 V2000
   67.8681   42.6371   56.5305 C   0  0  0  0  0  0  0  0  0  0  0  0
   68.9270   41.8717   56.9466 C   0  0  0  0  0  0  0  0  0  0  0  0
   68.8928   40.9440   57.9739 C   0  0  0  0  0  0  0  0  0  0  0  0
   67.6876   40.7901   58.6190 C   0  0  0  0  0  0  0  0  0  0  0  0
   66.6024   41.5551   58.2153 C   0  0  0  0  0  0  0  0  0  0  0  0
   66.6999   42.4296   57.2206 N   0  0  0  0  0  0  0  0  0  0  0  0
   70.0671   40.1669   58.3568 C   0  0  0  0  0  0  0  0  0  0  0  0
   71.2442   40.6909   58.8366 C   0  0  0  0  0  0  0  0  0  0  0  0
   72.1459   39.6575   59.0994 C   0  0  0  0  0  0  0  0  0  0  0  0
   71.4663   38.5060   58.7596 C   0  0  0  0  0  0  0  0  0  0  0  0
   70.2303   38.8439   58.3207 N   0  0  0  0  0  0  0  0  0  0  0  0
   72.1130   37.1776   58.9010 C   0  0  2  0  0  0  0  0  0  0  0  0
   72.4455   36.5877   57.5491 C   0  0  0  0  0  0  0  0  0  0  0  0
   72.4450   35.1037   57.8472 C   0  0  0  0  0  0  0  0  0  0  0  0
   71.4658   34.8888   58.8699 N   0  0  0  0  0  0  0  0  0  0  0  0
   71.1106   36.1525   59.4404 C   0  0  0  0  0  0  0  0  0  0  0  0
   73.2812   37.1738   59.8308 C   0  0  0  0  0  0  0  0  0  0  0  0
   74.1138   38.3505   59.7492 N   0  0  0  0  0  0  0  0  0  0  0  0
   73.5107   39.6252   59.6130 C   0  0  0  0  0  0  0  0  0  0  0  0
   74.0979   40.6909   59.9112 O   0  0  0  0  0  0  0  0  0  0  0  0
   68.9572   45.2972   56.5542 O   0  0  0  0  0  0  0  0  0  0  0  0
   68.4202   44.8913   55.4948 C   0  0  0  0  0  0  0  0  0  0  0  0
   67.8868   43.5915   55.4825 N   0  0  0  0  0  0  0  0  0  0  0  0
   68.3789   45.7878   54.3410 C   0  0  0  0  0  0  0  0  0  0  0  0
   68.9275   47.0417   54.4563 C   0  0  0  0  0  0  0  0  0  0  0  0
   68.9228   47.9483   53.3941 C   0  0  0  0  0  0  0  0  0  0  0  0
   68.3627   47.5988   52.1976 C   0  0  0  0  0  0  0  0  0  0  0  0
   67.8099   46.3518   52.0623 C   0  0  0  0  0  0  0  0  0  0  0  0
   67.2481   45.9601   50.9083 F   0  0  0  0  0  0  0  0  0  0  0  0
   67.8237   45.4684   53.1231 C   0  0  0  0  0  0  0  0  0  0  0  0
 21 22  2  0
 22 23  1  0
 22 24  1  0
 23  1  1  0
  1  2  2  0
  1  6  1  0
  2  3  1  0
  3  7  1  0
  3  4  2  0
  7  8  2  0
  7 11  1  0
  8  9  1  0
  9 10  2  0
  9 19  1  0
 10 11  1  0
 12 10  1  0
 12 13  1  6
 12 16  1  0
 12 17  1  0
 13 14  1  0
 14 15  1  0
 15 16  1  0
 17 18  1  0
 18 19  1  0
 19 20  2  0
  4  5  1  0
  5  6  2  0
 24 25  2  0
 24 30  1  0
 25 26  1  0
 26 27  2  0
 27 28  1  0
 28 29  1  0
 28 30  2  0
M  CHG  1  15   1
M  END
>  <minimizedAffinity>  (264) 
-8.79641

$$$$
data/reference_output_2/data/smiles/129583.pdb
     RDKit          3D

 30 34  0  0  0  0  0  0  0  0999 V2000
   71.3142   47.1058   58.7568 C   0  0  0  0  0  0  0  0  0  0  0  0
   71.2667   45.7370   58.5333 C   0  0  0  0  0  0  0  0  0  0  0  0
   69.9763   45.5784   57.3746 S   0  0  0  0  0  0  0  0  0  0  0  0
   69.5543   47.3904   57.2426 C   0  0  0  0  0  0  0  0  0  0  0  0
   70.4637   47.8974   58.1112 C   0  0  0  0  0  0  0  0  0  0  0  0
   71.9796   47.7171   60.9221 O   0  0  0  0  0  0  0  0  0  0  0  0
   72.3321   47.6016   59.7256 C   0  0  0  0  0  0  0  0  0  0  0  0
   73.6370   47.9334   59.3437 N   0  0  0  0  0  0  0  0  0  0  0  0
   74.0671   47.8107   57.9790 C   0  0  0  0  0  0  0  0  0  0  0  0
   74.7051   49.1242   57.5034 C   0  0  0  0  0  0  0  0  0  0  0  0
   75.7937   49.3551   58.5128 N   0  0  0  0  0  0  0  0  0  0  0  0
   77.1186   49.2497   58.1351 C   0  0  0  0  0  0  0  0  0  0  0  0
   77.3111   48.9399   56.8673 O   0  0  0  0  0  0  0  0  0  0  0  0
   75.2998   49.6673   59.8065 C   0  0  0  0  0  0  0  0  0  0  0  0
   74.5705   48.4115   60.3421 C   0  0  0  0  0  0  0  0  0  0  0  0
   78.3589   49.4174   58.8767 C   0  0  0  0  0  0  0  0  0  0  0  0
   79.0863   50.7177   58.9753 C   0  0  0  0  0  0  0  0  0  0  0  0
   79.7017   49.5978   58.2617 C   0  0  0  0  0  0  0  0  0  0  0  0
   68.4870   47.8899   56.3573 C   0  0  0  0  0  0  0  0  0  0  0  0
   68.9553   48.0947   54.9737 C   0  0  0  0  0  0  0  0  0  0  0  0
   69.8297   49.1059   54.7522 N   0  0  0  0  0  0  0  0  0  0  0  0
   70.3655   49.3930   53.5910 N   0  0  0  0  0  0  0  0  0  0  0  0
   70.0705   48.6720   52.4972 C   0  0  0  0  0  0  0  0  0  0  0  0
   70.5827   48.9467   51.3901 O   0  0  0  0  0  0  0  0  0  0  0  0
   69.1855   47.6284   52.6596 C   0  0  0  0  0  0  0  0  0  0  0  0
   68.8264   46.8570   51.5912 C   0  0  0  0  0  0  0  0  0  0  0  0
   67.9301   45.8130   51.7252 C   0  0  0  0  0  0  0  0  0  0  0  0
   67.3954   45.5505   52.9504 C   0  0  0  0  0  0  0  0  0  0  0  0
   67.7275   46.3003   54.0564 C   0  0  0  0  0  0  0  0  0  0  0  0
   68.6187   47.3295   53.8970 C   0  0  0  0  0  0  0  0  0  0  0  0
  6  7  2  0
  7  1  1  0
  7  8  1  0
  1  2  2  0
  1  5  1  0
  2  3  1  0
  3  4  1  0
  4 19  1  0
  4  5  2  0
 19 20  1  0
 20 21  2  0
 20 30  1  0
 21 22  1  0
 22 23  1  0
 23 24  2  0
 23 25  1  0
 25 26  1  0
 25 30  2  0
 26 27  2  0
 27 28  1  0
 28 29  2  0
 29 30  1  0
  8  9  1  0
  8 15  1  0
  9 10  1  0
 10 11  1  0
 11 12  1  0
 11 14  1  0
 12 13  2  0
 12 16  1  0
 16 17  1  0
 16 18  1  0
 17 18  1  0
 14 15  1  0
M  END
>  <minimizedAffinity>  (265) 
-8.79381

$$$$
data/reference_output_2/data/smiles/112240.pdb
     RDKit          3D

 29 31  0  0  0  0  0  0  0  0999 V2000
   69.7801   46.1673   57.2110 C   0  0  0  0  0  0  0  0  0  0  0  0
   70.9527   46.0396   57.9244 C   0  0  0  0  0  0  0  0  0  0  0  0
   71.5410   44.8060   58.1456 C   0  0  0  0  0  0  0  0  0  0  0  0
   70.9828   43.6384   57.6637 C   0  0  0  0  0  0  0  0  0  0  0  0
   69.8067   43.7834   56.9502 C   0  0  0  0  0  0  0  0  0  0  0  0
   69.2146   45.0072   56.7244 C   0  0  0  0  0  0  0  0  0  0  0  0
   69.0310   47.7299   56.9271 S   0  0  0  0  0  0  0  0  0  0  0  0
   69.4877   48.6949   58.0129 O   0  0  0  0  0  0  0  0  0  0  0  0
   67.5580   47.5547   57.1192 O   0  0  0  0  0  0  0  0  0  0  0  0
   70.1626   49.5945   55.2954 C   0  0  0  0  0  0  0  0  0  0  0  0
   69.4322   48.3639   55.3992 N   0  0  0  0  0  0  0  0  0  0  0  0
   69.0416   47.6700   54.2261 C   0  0  0  0  0  0  0  0  0  0  0  0
   69.5938   47.9176   52.9883 C   0  0  0  0  0  0  0  0  0  0  0  0
   69.2015   47.2328   51.8577 C   0  0  0  0  0  0  0  0  0  0  0  0
   68.2221   46.2606   51.9424 C   0  0  0  0  0  0  0  0  0  0  0  0
   67.6567   45.9980   53.1729 C   0  0  0  0  0  0  0  0  0  0  0  0
   68.0563   46.6875   54.2964 C   0  0  0  0  0  0  0  0  0  0  0  0
   71.5815   42.3234   57.8823 C   0  0  0  0  0  0  0  0  0  0  0  0
   72.8292   42.2311   57.7694 O   0  0  0  0  0  0  0  0  0  0  0  0
   70.8661   41.1537   58.2087 N   0  0  0  0  0  0  0  0  0  0  0  0
   71.4510   39.8895   58.4172 N   0  0  0  0  0  0  0  0  0  0  0  0
   70.6841   38.7005   58.4290 C   0  0  0  0  0  0  0  0  0  0  0  0
   69.4294   38.8688   58.2383 O   0  0  0  0  0  0  0  0  0  0  0  0
   71.1742   37.3558   58.6320 C   0  0  0  0  0  0  0  0  0  0  0  0
   72.1599   36.8551   57.8126 C   0  0  0  0  0  0  0  0  0  0  0  0
   72.6579   35.5657   57.9763 C   0  0  0  0  0  0  0  0  0  0  0  0
   72.1671   34.7594   58.9725 C   0  0  0  0  0  0  0  0  0  0  0  0
   71.1802   35.2350   59.8062 C   0  0  0  0  0  0  0  0  0  0  0  0
   70.7132   36.5118   59.6162 C   0  0  0  0  0  0  0  0  0  0  0  0
 10 11  1  0
 11 12  1  0
 11  7  1  0
 12 13  2  0
 12 17  1  0
 13 14  1  0
 14 15  2  0
 15 16  1  0
 16 17  2  0
  7  8  2  0
  7  9  2  0
  7  1  1  0
  1  2  2  0
  1  6  1  0
  2  3  1  0
  3  4  2  0
  4 18  1  0
  4  5  1  0
 18 19  2  0
 18 20  1  0
 20 21  1  0
 21 22  1  0
 22 23  2  0
 22 24  1  0
 24 25  2  0
 24 29  1  0
 25 26  1  0
 26 27  2  0
 27 28  1  0
 28 29  2  0
  5  6  2  0
M  END
>  <minimizedAffinity>  (266) 
-8.79129

$$$$
data/200k_reference_output/data/smiles/41248.pdb
     RDKit          3D

 33 37  0  0  0  0  0  0  0  0999 V2000
   68.2647   45.2423   55.8586 O   0  0  0  0  0  0  0  0  0  0  0  0
   68.3434   46.4520   55.6326 C   0  0  0  0  0  0  0  0  0  0  0  0
   68.1944   47.3552   56.7228 N   0  0  0  0  0  0  0  0  0  0  0  0
   68.3407   48.7890   56.6875 C   0  0  0  0  0  0  0  0  0  0  0  0
   67.7943   49.3587   57.8194 C   0  0  0  0  0  0  0  0  0  0  0  0
   67.8645   50.7184   57.9496 C   0  0  0  0  0  0  0  0  0  0  0  0
   68.4820   51.4605   56.9337 C   0  0  0  0  0  0  0  0  0  0  0  0
   68.9956   50.8540   55.8564 N   0  0  0  0  0  0  0  0  0  0  0  0
   68.9535   49.5465   55.6852 C   0  0  0  0  0  0  0  0  0  0  0  0
   69.5942   49.1102   54.4687 N   0  0  0  0  0  0  0  0  0  0  0  0
   70.6485   49.8476   53.9472 C   0  0  0  0  0  0  0  0  0  0  0  0
   71.3277   49.3077   53.0203 O   0  0  0  0  0  0  0  0  0  0  0  0
   69.1289   47.9555   53.7190 C   0  0  0  0  0  0  0  0  0  0  0  0
   69.2670   48.1432   52.3760 C   0  0  0  0  0  0  0  0  0  0  0  0
   68.8730   47.1664   51.4853 C   0  0  0  0  0  0  0  0  0  0  0  0
   68.3253   45.9785   51.9617 C   0  0  0  0  0  0  0  0  0  0  0  0
   68.1924   45.8081   53.3284 C   0  0  0  0  0  0  0  0  0  0  0  0
   68.5913   46.7941   54.2194 C   0  0  0  0  0  0  0  0  0  0  0  0
   70.9886   51.1842   54.4159 C   0  0  0  0  0  0  0  0  0  0  0  0
   72.2920   51.6433   54.0161 N   0  0  0  0  0  0  0  0  0  0  0  0
   72.7407   52.8937   54.5063 C   0  0  0  0  0  0  0  0  0  0  0  0
   73.3360   52.9505   55.8610 C   0  0  0  0  0  0  0  0  0  0  0  0
   73.1618   51.7161   56.5712 N   0  0  0  0  0  0  0  0  0  0  0  0
   72.7985   51.7698   57.9742 C   0  0  0  0  0  0  0  0  0  0  0  0
   72.6404   52.8839   58.5391 O   0  0  0  0  0  0  0  0  0  0  0  0
   73.3622   50.4654   55.8854 C   0  0  0  0  0  0  0  0  0  0  0  0
   73.2514   50.6283   54.4161 C   0  0  0  0  0  0  0  0  0  0  0  0
   72.6238   50.5355   58.7109 C   0  0  0  0  0  0  0  0  0  0  0  0
   73.6586   50.0812   59.5356 C   0  0  0  0  0  0  0  0  0  0  0  0
   73.4436   48.8923   60.2048 C   0  0  0  0  0  0  0  0  0  0  0  0
   72.2656   48.1950   60.0626 C   0  0  0  0  0  0  0  0  0  0  0  0
   71.2542   48.6736   59.2345 C   0  0  0  0  0  0  0  0  0  0  0  0
   71.4515   49.8487   58.5664 C   0  0  0  0  0  0  0  0  0  0  0  0
  1  2  2  0
  2  3  1  0
  2 18  1  0
  3  4  1  0
  4  5  2  0
  4  9  1  0
  5  6  1  0
  6  7  2  0
  7  8  1  0
  8  9  2  0
  9 10  1  0
 10 11  1  0
 10 13  1  0
 11 12  2  0
 11 19  1  0
 19 20  1  0
 20 21  1  0
 20 27  1  0
 21 22  1  0
 22 23  1  0
 23 24  1  0
 23 26  1  0
 24 25  2  0
 24 28  1  0
 28 29  2  0
 28 33  1  0
 29 30  1  0
 30 31  2  0
 31 32  1  0
 32 33  2  0
 26 27  1  0
 13 14  2  0
 13 18  1  0
 14 15  1  0
 15 16  2  0
 16 17  1  0
 17 18  2  0
M  CHG  1  20   1
M  END
>  <minimizedAffinity>  (267) 
-8.79076

$$$$
data/200k_reference_output/data/smiles/12796.pdb
     RDKit          3D

 32 35  0  0  0  0  0  0  0  0999 V2000
   70.2368   45.2747   58.2678 C   0  0  2  0  0  0  0  0  0  0  0  0
   69.6769   45.5200   56.9259 N   0  0  0  0  0  0  0  0  0  0  0  0
   69.2973   46.6305   56.3796 C   0  0  0  0  0  0  0  0  0  0  0  0
   69.2892   47.9125   57.0672 C   0  0  0  0  0  0  0  0  0  0  0  0
   68.2013   48.6560   56.6923 C   0  0  0  0  0  0  0  0  0  0  0  0
   68.0981   49.9232   57.2300 C   0  0  0  0  0  0  0  0  0  0  0  0
   69.0474   50.4055   58.1030 C   0  0  0  0  0  0  0  0  0  0  0  0
   70.1423   49.6528   58.4855 C   0  0  0  0  0  0  0  0  0  0  0  0
   70.2676   48.3887   57.9635 C   0  0  0  0  0  0  0  0  0  0  0  0
   71.3817   47.6560   58.4751 N   0  0  0  0  0  0  0  0  0  0  0  0
   71.4089   46.2057   58.4937 C   0  0  0  0  0  0  0  0  0  0  0  0
   72.5374   45.7055   58.7252 O   0  0  0  0  0  0  0  0  0  0  0  0
   68.7933   46.5151   55.0238 C   0  0  0  0  0  0  0  0  0  0  0  0
   68.0171   45.5317   54.5155 C   0  0  0  0  0  0  0  0  0  0  0  0
   67.6582   45.4776   53.1958 C   0  0  0  0  0  0  0  0  0  0  0  0
   68.0879   46.4539   52.3258 C   0  0  0  0  0  0  0  0  0  0  0  0
   68.8765   47.4667   52.8203 C   0  0  0  0  0  0  0  0  0  0  0  0
   69.2340   47.5136   54.1434 C   0  0  0  0  0  0  0  0  0  0  0  0
   69.8416   42.7843   58.2944 C   0  0  0  0  0  0  0  0  0  0  0  0
   68.6126   43.0212   58.1709 O   0  0  0  0  0  0  0  0  0  0  0  0
   70.6909   43.9200   58.3462 N   0  0  0  0  0  0  0  0  0  0  0  0
   71.4691   37.2345   58.5754 C   0  0  0  0  0  0  0  0  0  0  0  0
   71.0643   38.6758   58.5058 C   0  0  0  0  0  0  0  0  0  0  0  0
   69.7559   39.0454   58.2731 C   0  0  0  0  0  0  0  0  0  0  0  0
   69.3932   40.3738   58.2117 C   0  0  0  0  0  0  0  0  0  0  0  0
   70.3008   41.4017   58.3737 C   0  0  0  0  0  0  0  0  0  0  0  0
   71.6074   41.0360   58.6057 C   0  0  0  0  0  0  0  0  0  0  0  0
   71.9817   39.6915   58.6701 C   0  0  0  0  0  0  0  0  0  0  0  0
   73.3000   39.3225   58.9041 O   0  0  0  0  0  0  0  0  0  0  0  0
   72.4827   48.3978   58.9616 C   0  0  0  0  0  0  0  0  0  0  0  0
   73.5668   48.5904   57.9611 C   0  0  0  0  0  0  0  0  0  0  0  0
   73.2969   48.9765   56.8622 O   0  0  0  0  0  0  0  0  0  0  0  0
 22 23  1  0
 23 24  2  0
 23 28  1  0
 24 25  1  0
 25 26  2  0
 26 19  1  0
 26 27  1  0
 19 20  2  0
 19 21  1  0
  1 21  1  6
  1  2  1  0
  1 11  1  0
  2  3  2  0
  3 13  1  0
  3  4  1  0
 13 14  2  0
 13 18  1  0
 14 15  1  0
 15 16  2  0
 16 17  1  0
 17 18  2  0
  4  5  1  0
  4  9  2  0
  5  6  2  0
  6  7  1  0
  7  8  2  0
  8  9  1  0
  9 10  1  0
 10 30  1  0
 10 11  1  0
 30 31  1  0
 31 32  2  0
 11 12  2  0
 27 28  2  0
 28 29  1  0
M  END
>  <minimizedAffinity>  (268) 
-8.78909

$$$$
data/reference_output_2/data/smiles/195191.pdb
     RDKit          3D

 31 33  0  0  0  0  0  0  0  0999 V2000
   68.0417   42.0296   56.6497 C   0  0  0  0  0  0  0  0  0  0  0  0
   67.5673   41.2748   55.7282 O   0  0  0  0  0  0  0  0  0  0  0  0
   68.1302   41.4364   57.9234 N   0  0  0  0  0  0  0  0  0  0  0  0
   68.6227   42.0723   59.1263 C   0  0  0  0  0  0  0  0  0  0  0  0
   69.8295   41.3217   59.6766 C   0  0  0  0  0  0  0  0  0  0  0  0
   69.9728   40.0344   59.0513 N   0  0  0  0  0  0  0  0  0  0  0  0
   68.8578   39.2184   58.6545 C   0  0  0  0  0  0  0  0  0  0  0  0
   67.7033   40.0365   58.1341 C   0  0  0  0  0  0  0  0  0  0  0  0
   67.7184   44.0121   55.1768 N   0  0  0  0  0  0  0  0  0  0  0  0
   68.4121   43.3634   56.2567 C   0  0  0  0  0  0  0  0  0  0  0  0
   69.3213   44.0333   56.7952 O   0  0  0  0  0  0  0  0  0  0  0  0
   68.9187   47.9570   54.1081 C   0  0  0  0  0  0  0  0  0  0  0  0
   68.5323   47.0382   53.1470 C   0  0  0  0  0  0  0  0  0  0  0  0
   68.1468   45.7645   53.5138 C   0  0  0  0  0  0  0  0  0  0  0  0
   68.1200   45.3305   54.8254 C   0  0  0  0  0  0  0  0  0  0  0  0
   68.5074   46.2567   55.7784 C   0  0  0  0  0  0  0  0  0  0  0  0
   68.8957   47.5350   55.4202 C   0  0  0  0  0  0  0  0  0  0  0  0
   69.3343   49.3110   53.7672 C   0  0  0  0  0  0  0  0  0  0  0  0
   69.5865   49.5630   52.5632 O   0  0  0  0  0  0  0  0  0  0  0  0
   69.1981   51.6874   54.4078 C   0  0  0  0  0  0  0  0  0  0  0  0
   69.4687   50.3250   54.6793 O   0  0  0  0  0  0  0  0  0  0  0  0
   71.2974   39.5194   58.8025 C   0  0  0  0  0  0  0  0  0  0  0  0
   72.6490   40.7317   58.7438 S   0  0  0  0  0  0  0  0  0  0  0  0
   71.5253   38.3754   58.6424 N   0  0  0  0  0  0  0  0  0  0  0  0
   71.7975   37.0997   58.4602 C   0  0  0  0  0  0  0  0  0  0  0  0
   71.3303   36.1082   59.3334 C   0  0  0  0  0  0  0  0  0  0  0  0
   71.5975   34.7825   59.1706 C   0  0  0  0  0  0  0  0  0  0  0  0
   72.3588   34.3737   58.1079 C   0  0  0  0  0  0  0  0  0  0  0  0
   72.6779   32.9376   57.8896 C   0  0  0  0  0  0  0  0  0  0  0  0
   72.8437   35.3095   57.2201 C   0  0  0  0  0  0  0  0  0  0  0  0
   72.5736   36.6336   57.3873 C   0  0  0  0  0  0  0  0  0  0  0  0
 20 21  1  0
 21 18  1  0
 18 19  2  0
 18 12  1  0
 12 13  2  0
 12 17  1  0
 13 14  1  0
 14 15  2  0
 15  9  1  0
 15 16  1  0
  9 10  1  0
 10 11  2  0
 10  1  1  0
  1  2  2  0
  1  3  1  0
  3  4  1  0
  3  8  1  0
  4  5  1  0
  5  6  1  0
  6 22  1  0
  6  7  1  0
 22 23  1  0
 22 24  2  3
 24 25  1  0
 25 26  2  0
 25 31  1  0
 26 27  1  0
 27 28  2  0
 28 29  1  0
 28 30  1  0
 30 31  2  0
  7  8  1  0
 16 17  2  0
M  CHG  1  24   1
M  END
>  <minimizedAffinity>  (269) 
-8.78822

$$$$
data/reference_output_2/data/smiles/131751.pdb
     RDKit          3D

 29 33  0  0  0  0  0  0  0  0999 V2000
   71.4937   37.3568   58.3060 N   0  0  0  0  0  0  0  0  0  0  0  0
   72.3679   36.8926   57.4449 N   0  0  0  0  0  0  0  0  0  0  0  0
   72.8073   35.6108   57.3718 C   0  0  0  0  0  0  0  0  0  0  0  0
   72.2906   34.7455   58.2772 C   0  0  0  0  0  0  0  0  0  0  0  0
   71.3610   35.2069   59.2010 C   0  0  0  0  0  0  0  0  0  0  0  0
   70.9612   36.5248   59.2141 C   0  0  0  0  0  0  0  0  0  0  0  0
   70.1280   36.9922   60.0245 O   0  0  0  0  0  0  0  0  0  0  0  0
   73.8353   35.3635   56.3883 C   0  0  0  0  0  0  0  0  0  0  0  0
   75.1507   35.2233   56.8477 C   0  0  0  0  0  0  0  0  0  0  0  0
   76.1980   35.0037   55.9818 C   0  0  0  0  0  0  0  0  0  0  0  0
   75.9735   34.9160   54.6152 C   0  0  0  0  0  0  0  0  0  0  0  0
   74.7002   35.0562   54.1723 C   0  0  0  0  0  0  0  0  0  0  0  0
   74.5891   34.9895   52.8250 C   0  0  0  0  0  0  0  0  0  0  0  0
   73.3286   35.1581   52.2635 C   0  0  0  0  0  0  0  0  0  0  0  0
   72.2479   35.3856   53.0799 C   0  0  0  0  0  0  0  0  0  0  0  0
   72.3803   35.4499   54.4625 C   0  0  0  0  0  0  0  0  0  0  0  0
   73.6172   35.2813   55.0457 C   0  0  0  0  0  0  0  0  0  0  0  0
   75.9299   34.7381   52.2717 C   0  0  0  0  0  0  0  0  0  0  0  0
   76.8560   34.6918   53.4538 C   0  0  0  0  0  0  0  0  0  0  0  0
   70.2949   41.4463   58.3475 C   0  0  0  0  0  0  0  0  0  0  0  0
   71.6088   41.0749   58.5374 C   0  0  0  0  0  0  0  0  0  0  0  0
   71.9886   39.7474   58.5216 C   0  0  0  0  0  0  0  0  0  0  0  0
   71.0792   38.7286   58.3179 C   0  0  0  0  0  0  0  0  0  0  0  0
   69.7679   39.1138   58.1291 C   0  0  0  0  0  0  0  0  0  0  0  0
   69.3794   40.4368   58.1428 C   0  0  0  0  0  0  0  0  0  0  0  0
   69.1971   43.5210   59.9575 N   0  0  0  0  0  0  0  0  0  0  0  0
   69.7982   43.1343   58.3644 S   0  0  0  0  0  0  0  0  0  0  0  0
   71.0366   43.9491   58.1186 O   0  0  0  0  0  0  0  0  0  0  0  0
   68.7488   43.3725   57.3221 O   0  0  0  0  0  0  0  0  0  0  0  0
 26 27  1  0
 27 28  2  0
 27 29  2  0
 27 20  1  0
 20 21  2  0
 20 25  1  0
 21 22  1  0
 22 23  2  0
 23  1  1  0
 23 24  1  0
  1  2  1  0
  1  6  1  0
  2  3  2  0
  3  8  1  0
  3  4  1  0
  8  9  2  0
  8 17  1  0
  9 10  1  0
 10 11  2  0
 11 12  1  0
 11 19  1  0
 12 13  1  0
 12 17  2  0
 13 14  2  0
 13 18  1  0
 14 15  1  0
 15 16  2  0
 16 17  1  0
 18 19  1  0
  4  5  2  0
  5  6  1  0
  6  7  2  0
 24 25  2  0
M  END
>  <minimizedAffinity>  (270) 
-8.78514

$$$$
data/200k_reference_output/data/smiles/38619.pdb
     RDKit          3D

 30 33  0  0  0  0  0  0  0  0999 V2000
   70.5510   43.9208   59.0213 N   0  0  0  0  0  0  0  0  0  0  0  0
   71.3490   42.8548   59.4907 C   0  0  0  0  0  0  0  0  0  0  0  0
   70.6038   41.5415   59.7185 C   0  0  0  0  0  0  0  0  0  0  0  0
   69.6212   41.3142   58.6430 C   0  0  0  0  0  0  0  0  0  0  0  0
   70.0700   42.1488   57.4525 C   0  0  0  0  0  0  0  0  0  0  0  0
   69.7989   43.5887   57.8278 C   0  0  0  0  0  0  0  0  0  0  0  0
   68.2304   41.8167   58.9546 C   0  0  0  0  0  0  0  0  0  0  0  0
   67.8290   42.5407   59.8682 O   0  0  0  0  0  0  0  0  0  0  0  0
   67.4712   41.2177   57.8815 N   0  0  0  0  0  0  0  0  0  0  0  0
   68.1945   40.0512   57.3698 C   0  0  0  0  0  0  0  0  0  0  0  0
   69.2943   39.9606   58.3133 N   0  0  0  0  0  0  0  0  0  0  0  0
   69.8619   38.7502   58.7399 C   0  0  0  0  0  0  0  0  0  0  0  0
   69.3556   37.9901   59.7620 C   0  0  0  0  0  0  0  0  0  0  0  0
   70.0017   36.8272   60.1203 C   0  0  0  0  0  0  0  0  0  0  0  0
   71.1419   36.3903   59.4943 C   0  0  0  0  0  0  0  0  0  0  0  0
   71.9479   34.8928   59.9779 Cl  0  0  0  0  0  0  0  0  0  0  0  0
   71.6772   37.1419   58.4534 C   0  0  0  0  0  0  0  0  0  0  0  0
   71.0176   38.3028   58.1085 C   0  0  0  0  0  0  0  0  0  0  0  0
   71.1926   45.1663   58.7639 C   0  0  0  0  0  0  0  0  0  0  0  0
   70.3667   46.2805   58.2516 C   0  0  0  0  0  0  0  0  0  0  0  0
   68.0506   47.1879   57.0134 O   0  0  0  0  0  0  0  0  0  0  0  0
   68.9492   46.6955   56.2585 C   0  0  0  0  0  0  0  0  0  0  0  0
   70.1386   46.2251   56.8436 N   0  0  0  0  0  0  0  0  0  0  0  0
   68.6871   46.6485   54.8269 C   0  0  0  0  0  0  0  0  0  0  0  0
   69.1523   47.6463   54.0062 C   0  0  0  0  0  0  0  0  0  0  0  0
   68.9224   47.6355   52.6340 C   0  0  0  0  0  0  0  0  0  0  0  0
   68.2023   46.5843   52.0948 C   0  0  0  0  0  0  0  0  0  0  0  0
   67.9808   46.5788   50.7739 F   0  0  0  0  0  0  0  0  0  0  0  0
   67.7210   45.5676   52.8954 C   0  0  0  0  0  0  0  0  0  0  0  0
   67.9761   45.6206   54.2603 C   0  0  0  0  0  0  0  0  0  0  0  0
 21 22  2  0
 22 23  1  0
 22 24  1  0
 23 20  1  0
 20 19  1  0
 19  1  1  0
  1  2  1  0
  1  6  1  0
  2  3  1  0
  3  4  1  0
  4  5  1  0
  4  7  1  0
  4 11  1  0
  5  6  1  0
  7  8  2  0
  7  9  1  0
  9 10  1  0
 10 11  1  0
 11 12  1  0
 12 13  2  0
 12 18  1  0
 13 14  1  0
 14 15  2  0
 15 16  1  0
 15 17  1  0
 17 18  2  0
 24 25  2  0
 24 30  1  0
 25 26  1  0
 26 27  2  0
 27 28  1  0
 27 29  1  0
 29 30  2  0
M  CHG  1   1   1
M  END
>  <minimizedAffinity>  (271) 
-8.78376

$$$$
data/reference_output_2/data/smiles/129093.pdb
     RDKit          3D

 32 35  0  0  0  0  0  0  0  0999 V2000
   68.0844   46.0166   53.3986 C   0  0  0  0  0  0  0  0  0  0  0  0
   68.4947   47.1966   53.9964 C   0  0  0  0  0  0  0  0  0  0  0  0
   68.9075   47.2687   55.3041 C   0  0  0  0  0  0  0  0  0  0  0  0
   68.8916   46.0646   56.0174 C   0  0  0  0  0  0  0  0  0  0  0  0
   68.4919   44.8841   55.4523 C   0  0  0  0  0  0  0  0  0  0  0  0
   68.1055   44.9269   54.1605 N   0  0  0  0  0  0  0  0  0  0  0  0
   69.3220   48.4748   55.9133 N   0  0  0  0  0  0  0  0  0  0  0  0
   70.2424   48.3957   57.0336 C   0  0  0  0  0  0  0  0  0  0  0  0
   71.0159   49.6961   57.1910 C   0  0  0  0  0  0  0  0  0  0  0  0
   71.2685   50.1680   55.8563 N   0  0  0  0  0  0  0  0  0  0  0  0
   72.5771   50.2379   55.3387 C   0  0  0  0  0  0  0  0  0  0  0  0
   73.7374   49.8600   56.0655 N   0  0  0  0  0  0  0  0  0  0  0  0
   72.7944   50.6583   54.1514 O   0  0  0  0  0  0  0  0  0  0  0  0
   70.1463   50.5693   55.0471 C   0  0  0  0  0  0  0  0  0  0  0  0
   68.9068   49.7982   55.5231 C   0  0  0  0  0  0  0  0  0  0  0  0
   68.4856   43.6283   56.2042 C   0  0  0  0  0  0  0  0  0  0  0  0
   67.5663   42.6274   56.0209 C   0  0  0  0  0  0  0  0  0  0  0  0
   67.6013   41.4486   56.7648 C   0  0  0  0  0  0  0  0  0  0  0  0
   68.5606   41.2239   57.7247 C   0  0  0  0  0  0  0  0  0  0  0  0
   69.4943   42.2257   57.9184 C   0  0  0  0  0  0  0  0  0  0  0  0
   69.4532   43.3879   57.1799 C   0  0  0  0  0  0  0  0  0  0  0  0
   68.5816   40.0431   58.4584 O   0  0  0  0  0  0  0  0  0  0  0  0
   67.4834   39.5315   59.1192 C   0  0  0  0  0  0  0  0  0  0  0  0
   67.1812   38.1996   58.9945 C   0  0  0  0  0  0  0  0  0  0  0  0
   66.1004   37.6098   59.6218 C   0  0  0  0  0  0  0  0  0  0  0  0
   65.2813   38.3845   60.4103 C   0  0  0  0  0  0  0  0  0  0  0  0
   64.1899   37.8595   61.0590 F   0  0  0  0  0  0  0  0  0  0  0  0
   65.5498   39.7264   60.5617 C   0  0  0  0  0  0  0  0  0  0  0  0
   66.6471   40.2922   59.9161 C   0  0  0  0  0  0  0  0  0  0  0  0
   68.2079   46.8836   51.0335 N   0  0  0  0  0  0  0  0  0  0  0  0
   67.6599   46.0140   52.0033 C   0  0  0  0  0  0  0  0  0  0  0  0
   66.7679   45.2009   51.6625 O   0  0  0  0  0  0  0  0  0  0  0  0
 30 31  1  0
 31 32  2  0
 31  1  1  0
  1  2  2  0
  1  6  1  0
  2  3  1  0
  3  7  1  0
  3  4  2  0
  7  8  1  0
  7 15  1  0
  8  9  1  0
  9 10  1  0
 10 11  1  0
 10 14  1  0
 11 12  1  0
 11 13  2  0
 14 15  1  0
  4  5  1  0
  5 16  1  0
  5  6  2  0
 16 17  2  0
 16 21  1  0
 17 18  1  0
 18 19  2  0
 19 22  1  0
 19 20  1  0
 22 23  1  0
 23 24  2  0
 23 29  1  0
 24 25  1  0
 25 26  2  0
 26 27  1  0
 26 28  1  0
 28 29  2  0
 20 21  2  0
M  END
>  <minimizedAffinity>  (272) 
-8.78340

$$$$
data/200k_reference_output/data/smiles/82202.pdb
     RDKit          3D

 29 31  0  0  0  0  0  0  0  0999 V2000
   71.3305   43.1633   59.2172 C   0  0  0  0  0  0  0  0  0  0  0  0
   71.2779   42.2883   60.2877 C   0  0  0  0  0  0  0  0  0  0  0  0
   71.6274   40.9597   60.1480 C   0  0  0  0  0  0  0  0  0  0  0  0
   72.0459   40.4304   58.9441 C   0  0  0  0  0  0  0  0  0  0  0  0
   72.1013   41.2918   57.8710 C   0  0  0  0  0  0  0  0  0  0  0  0
   71.7475   42.6339   58.0167 C   0  0  0  0  0  0  0  0  0  0  0  0
   71.4399   45.2022   60.3646 O   0  0  0  0  0  0  0  0  0  0  0  0
   70.9558   44.5625   59.3929 C   0  0  0  0  0  0  0  0  0  0  0  0
   70.0767   45.2842   58.5512 N   0  0  0  0  0  0  0  0  0  0  0  0
   69.7449   46.6245   58.7558 N   0  0  0  0  0  0  0  0  0  0  0  0
   69.9760   47.5642   57.7277 C   0  0  0  0  0  0  0  0  0  0  0  0
   70.4759   49.0613   58.1229 S   0  0  0  0  0  0  0  0  0  0  0  0
   69.7879   47.2485   56.3439 N   0  0  0  0  0  0  0  0  0  0  0  0
   68.5008   47.0936   55.7754 C   0  0  0  0  0  0  0  0  0  0  0  0
   67.4911   47.2374   56.5050 O   0  0  0  0  0  0  0  0  0  0  0  0
   68.3603   46.7790   54.3975 C   0  0  0  0  0  0  0  0  0  0  0  0
   67.7856   45.7980   53.6940 C   0  0  0  0  0  0  0  0  0  0  0  0
   67.8200   45.7712   52.3550 C   0  0  0  0  0  0  0  0  0  0  0  0
   68.4908   46.8282   51.7190 C   0  0  0  0  0  0  0  0  0  0  0  0
   69.0492   47.8212   53.0690 S   0  0  0  0  0  0  0  0  0  0  0  0
   72.3962   39.0539   58.8479 N   0  0  0  0  0  0  0  0  0  0  0  0
   71.5371   38.0503   58.3622 C   0  0  0  0  0  0  0  0  0  0  0  0
   70.3915   38.4125   57.9953 O   0  0  0  0  0  0  0  0  0  0  0  0
   71.8725   36.6375   58.2555 C   0  0  0  0  0  0  0  0  0  0  0  0
   72.6475   36.1859   57.2074 C   0  0  0  0  0  0  0  0  0  0  0  0
   73.0009   34.8531   57.0513 C   0  0  0  0  0  0  0  0  0  0  0  0
   72.5765   33.9139   57.9658 C   0  0  0  0  0  0  0  0  0  0  0  0
   71.8039   34.3701   59.0104 C   0  0  0  0  0  0  0  0  0  0  0  0
   71.4495   35.6934   59.1694 C   0  0  0  0  0  0  0  0  0  0  0  0
  7  8  2  0
  8  9  1  0
  8  1  1  0
  9 10  1  0
 10 11  1  0
 11 12  2  0
 11 13  1  0
 13 14  1  0
 14 15  2  0
 14 16  1  0
 16 17  2  0
 16 20  1  0
 17 18  1  0
 18 19  2  0
 19 20  1  0
  1  2  2  0
  1  6  1  0
  2  3  1  0
  3  4  2  0
  4 21  1  0
  4  5  1  0
 21 22  1  0
 22 23  2  0
 22 24  1  0
 24 25  2  0
 24 29  1  0
 25 26  1  0
 26 27  2  0
 27 28  1  0
 28 29  2  0
  5  6  2  0
M  END
>  <minimizedAffinity>  (273) 
-8.78305

$$$$
data/reference_output_2/data/smiles/91261.pdb
     RDKit          3D

 30 33  0  0  0  0  0  0  0  0999 V2000
   70.7255   44.4589   57.9239 C   0  0  0  0  0  0  0  0  0  0  0  0
   71.6610   45.1588   58.6981 C   0  0  0  0  0  0  0  0  0  0  0  0
   71.6079   46.5337   58.7830 C   0  0  0  0  0  0  0  0  0  0  0  0
   70.6233   47.1820   58.0915 C   0  0  0  0  0  0  0  0  0  0  0  0
   69.6743   46.5034   57.3097 C   0  0  0  0  0  0  0  0  0  0  0  0
   69.7495   45.1487   57.2446 C   0  0  0  0  0  0  0  0  0  0  0  0
   71.4860   42.5114   56.8814 O   0  0  0  0  0  0  0  0  0  0  0  0
   70.8818   43.0055   57.8983 C   0  0  0  0  0  0  0  0  0  0  0  0
   70.4183   42.1282   58.9056 N   0  0  0  0  0  0  0  0  0  0  0  0
   69.7397   42.6206   60.0599 C   0  0  0  0  0  0  0  0  0  0  0  0
   68.2959   42.2520   60.1413 C   0  0  0  0  0  0  0  0  0  0  0  0
   67.6634   41.7559   58.8997 C   0  0  0  0  0  0  0  0  0  0  0  0
   68.4257   41.0416   57.9782 N   0  0  1  0  0  0  0  0  0  0  0  0
   69.3491   40.0783   58.3952 C   0  0  0  0  0  0  0  0  0  0  0  0
   70.6914   40.7286   58.6454 C   0  0  0  0  0  0  0  0  0  0  0  0
   68.1286   41.1775   56.6020 C   0  0  0  0  0  0  0  0  0  0  0  0
   66.9772   42.1471   56.3463 C   0  0  0  0  0  0  0  0  0  0  0  0
   67.4376   43.3018   55.6887 O   0  0  0  0  0  0  0  0  0  0  0  0
   68.6807   47.2832   56.5818 C   0  0  0  0  0  0  0  0  0  0  0  0
   69.1737   47.6635   55.2654 C   0  0  0  0  0  0  0  0  0  0  0  0
   70.1000   48.6717   55.2038 N   0  0  0  0  0  0  0  0  0  0  0  0
   70.6006   49.1317   54.0883 N   0  0  0  0  0  0  0  0  0  0  0  0
   70.2429   48.6512   52.8973 C   0  0  0  0  0  0  0  0  0  0  0  0
   70.7117   49.0823   51.8241 O   0  0  0  0  0  0  0  0  0  0  0  0
   69.3039   47.6201   52.8447 C   0  0  0  0  0  0  0  0  0  0  0  0
   68.9064   47.0777   51.6487 C   0  0  0  0  0  0  0  0  0  0  0  0
   67.9968   46.0612   51.6167 C   0  0  0  0  0  0  0  0  0  0  0  0
   67.4801   45.5855   52.8207 C   0  0  0  0  0  0  0  0  0  0  0  0
   67.8935   46.1457   54.0078 C   0  0  0  0  0  0  0  0  0  0  0  0
   68.8045   47.1665   54.0489 C   0  0  0  0  0  0  0  0  0  0  0  0
  7  8  2  0
  8  1  1  0
  8  9  1  0
  1  2  2  0
  1  6  1  0
  2  3  1  0
  3  4  2  0
  4  5  1  0
  5 19  1  0
  5  6  2  0
 19 20  1  0
 20 21  2  0
 20 30  1  0
 21 22  1  0
 22 23  1  0
 23 24  2  0
 23 25  1  0
 25 26  1  0
 25 30  2  0
 26 27  2  0
 27 28  1  0
 28 29  2  0
 29 30  1  0
  9 10  1  0
  9 15  1  0
 10 11  1  0
 11 12  1  0
 12 13  1  0
 13 16  1  6
 13 14  1  0
 16 17  1  0
 17 18  1  0
 14 15  1  0
M  CHG  1  13   1
M  END
>  <minimizedAffinity>  (274) 
-8.78286

$$$$
data/reference_output_2/data/smiles/112683.pdb
     RDKit          3D

 30 33  0  0  0  0  0  0  0  0999 V2000
   71.1737   46.4841   58.7643 C   0  0  0  0  0  0  0  0  0  0  0  0
   70.5299   47.4427   58.0256 C   0  0  0  0  0  0  0  0  0  0  0  0
   69.6788   47.1649   56.9430 C   0  0  0  0  0  0  0  0  0  0  0  0
   69.5048   45.8662   56.6349 C   0  0  0  0  0  0  0  0  0  0  0  0
   70.1230   44.8581   57.3387 C   0  0  0  0  0  0  0  0  0  0  0  0
   70.9611   45.1605   58.4074 C   0  0  0  0  0  0  0  0  0  0  0  0
   71.5905   44.2111   59.1296 F   0  0  0  0  0  0  0  0  0  0  0  0
   75.0996   51.4950   59.7215 C   0  0  0  0  0  0  0  0  0  0  0  0
   74.9613   50.4475   58.6776 C   0  0  0  0  0  0  0  0  0  0  0  0
   74.8093   50.8183   57.4916 O   0  0  0  0  0  0  0  0  0  0  0  0
   74.9946   49.0630   58.9652 N   0  0  0  0  0  0  0  0  0  0  0  0
   74.8528   48.1198   57.8897 C   0  0  0  0  0  0  0  0  0  0  0  0
   73.9544   46.9661   58.2471 C   0  0  0  0  0  0  0  0  0  0  0  0
   73.4289   47.0598   59.6112 N   0  0  0  0  0  0  0  0  0  0  0  0
   72.0575   46.8222   59.8630 C   0  0  0  0  0  0  0  0  0  0  0  0
   71.6139   46.9039   61.0196 O   0  0  0  0  0  0  0  0  0  0  0  0
   74.3529   47.3958   60.6490 C   0  0  0  0  0  0  0  0  0  0  0  0
   75.1689   48.6283   60.3376 C   0  0  0  0  0  0  0  0  0  0  0  0
   69.1131   48.3541   56.2570 C   0  0  0  0  0  0  0  0  0  0  0  0
   69.5121   48.3212   54.8379 C   0  0  0  0  0  0  0  0  0  0  0  0
   70.5700   49.0872   54.4210 N   0  0  0  0  0  0  0  0  0  0  0  0
   70.9352   49.1285   53.1632 N   0  0  0  0  0  0  0  0  0  0  0  0
   70.3131   48.4361   52.1928 C   0  0  0  0  0  0  0  0  0  0  0  0
   70.6813   48.4938   51.0006 O   0  0  0  0  0  0  0  0  0  0  0  0
   69.2264   47.6330   52.5396 C   0  0  0  0  0  0  0  0  0  0  0  0
   68.8648   47.6039   53.8537 C   0  0  0  0  0  0  0  0  0  0  0  0
   67.8005   46.7483   54.2258 N   0  0  0  0  0  0  0  0  0  0  0  0
   67.4765   45.6037   53.4406 C   0  0  0  0  0  0  0  0  0  0  0  0
   67.7310   45.7109   51.9880 C   0  0  0  0  0  0  0  0  0  0  0  0
   68.5147   46.8669   51.5059 C   0  0  0  0  0  0  0  0  0  0  0  0
  8  9  1  0
  9 10  2  0
  9 11  1  0
 11 12  1  0
 11 18  1  0
 12 13  1  0
 13 14  1  0
 14 15  1  0
 14 17  1  0
 15 16  2  0
 15  1  1  0
  1  2  2  0
  1  6  1  0
  2  3  1  0
  3 19  1  0
  3  4  2  0
 19 20  1  0
 20 21  2  0
 20 26  1  0
 21 22  1  0
 22 23  1  0
 23 24  2  0
 23 25  1  0
 25 26  2  0
 25 30  1  0
 26 27  1  0
 27 28  1  0
 28 29  1  0
 29 30  1  0
  4  5  1  0
  5  6  2  0
  6  7  1  0
 17 18  1  0
M  END
>  <minimizedAffinity>  (275) 
-8.78122

$$$$
data/reference_output_2/data/smiles/166827.pdb
     RDKit          3D

 30 34  0  0  0  0  0  0  0  0999 V2000
   70.7059   51.2267   55.0946 C   0  0  0  0  0  0  0  0  0  0  0  0
   70.3927   50.2684   56.0247 C   0  0  0  0  0  0  0  0  0  0  0  0
   69.8187   49.0426   55.6435 C   0  0  0  0  0  0  0  0  0  0  0  0
   69.5566   48.7700   54.3230 C   0  0  0  0  0  0  0  0  0  0  0  0
   69.8762   49.7450   53.3842 C   0  0  0  0  0  0  0  0  0  0  0  0
   70.4427   50.9520   53.7720 C   0  0  0  0  0  0  0  0  0  0  0  0
   69.6092   49.4622   52.0657 C   0  0  0  0  0  0  0  0  0  0  0  0
   69.9012   50.3488   51.2190 O   0  0  0  0  0  0  0  0  0  0  0  0
   69.0630   48.3119   51.6400 N   0  0  0  0  0  0  0  0  0  0  0  0
   68.7602   47.3779   52.5645 C   0  0  0  0  0  0  0  0  0  0  0  0
   68.1961   46.1734   52.1861 C   0  0  0  0  0  0  0  0  0  0  0  0
   67.8588   45.1717   53.0763 C   0  0  0  0  0  0  0  0  0  0  0  0
   68.1094   45.4105   54.4147 C   0  0  0  0  0  0  0  0  0  0  0  0
   67.7596   44.3741   55.3227 N   0  0  0  0  0  0  0  0  0  0  0  0
   68.6687   46.5934   54.8375 C   0  0  0  0  0  0  0  0  0  0  0  0
   68.9951   47.5755   53.9307 C   0  0  0  0  0  0  0  0  0  0  0  0
   71.3124   52.5229   55.4923 C   0  0  0  0  0  0  0  0  0  0  0  0
   72.7798   52.5705   55.1381 C   0  0  2  0  0  0  0  0  0  0  0  0
   73.4763   51.7377   56.1133 N   0  0  0  0  0  0  0  0  0  0  0  0
   74.1443   50.5348   55.7757 C   0  0  0  0  0  0  0  0  0  0  0  0
   74.1369   50.1681   54.5733 O   0  0  0  0  0  0  0  0  0  0  0  0
   74.8474   49.7019   56.7894 C   0  0  1  0  0  0  0  0  0  0  0  0
   75.5214   50.5275   57.7764 N   0  0  0  0  0  0  0  0  0  0  0  0
   75.2312   49.8566   59.0312 C   0  0  2  0  0  0  0  0  0  0  0  0
   75.7396   48.4426   58.9668 C   0  0  0  0  0  0  0  0  0  0  0  0
   74.7509   47.6606   58.0968 C   0  0  0  0  0  0  0  0  0  0  0  0
   73.9190   48.7876   57.5425 C   0  0  1  0  0  0  0  0  0  0  0  0
   73.7243   49.6112   58.8292 C   0  0  0  0  0  0  0  0  0  0  0  0
   73.6276   55.0608   55.3239 N   0  0  0  0  0  0  0  0  0  0  0  0
   73.2491   53.9582   55.2302 C   0  0  0  0  0  0  0  0  0  0  0  0
 29 30  3  0
 18 30  1  1
 18 17  1  0
 18 19  1  0
 17  1  1  0
  1  2  2  0
  1  6  1  0
  2  3  1  0
  3  4  2  0
  4  5  1  0
  4 16  1  0
  5  6  2  0
  5  7  1  0
  7  8  2  0
  7  9  1  0
  9 10  1  0
 10 11  1  0
 10 16  2  0
 11 12  2  0
 12 13  1  0
 13 14  1  0
 13 15  2  0
 15 16  1  0
 19 20  1  0
 20 21  2  0
 22 20  1  6
 22 23  1  0
 22 27  1  0
 23 24  1  0
 24 25  1  6
 24 28  1  0
 25 26  1  0
 27 26  1  1
 27 28  1  0
M  CHG  1  23   1
M  END
>  <minimizedAffinity>  (276) 
-8.78098

$$$$
data/reference_output_2/data/smiles/105748.pdb
     RDKit          3D

 30 33  0  0  0  0  0  0  0  0999 V2000
   69.7552   50.2766   53.9562 N   0  0  0  0  0  0  0  0  0  0  0  0
   69.4216   49.3806   55.0130 C   0  0  0  0  0  0  0  0  0  0  0  0
   69.0225   48.1184   54.3790 C   0  0  0  0  0  0  0  0  0  0  0  0
   68.5753   46.9065   54.9572 C   0  0  0  0  0  0  0  0  0  0  0  0
   68.2694   45.8520   54.1591 C   0  0  0  0  0  0  0  0  0  0  0  0
   68.4043   45.9924   52.7969 C   0  0  0  0  0  0  0  0  0  0  0  0
   68.8366   47.1598   52.2101 C   0  0  0  0  0  0  0  0  0  0  0  0
   69.1500   48.2428   53.0317 C   0  0  0  0  0  0  0  0  0  0  0  0
   69.6127   49.5959   52.7285 C   0  0  0  0  0  0  0  0  0  0  0  0
   69.8391   50.0538   51.5678 O   0  0  0  0  0  0  0  0  0  0  0  0
   70.8302   51.7451   58.0958 O   0  0  0  0  0  0  0  0  0  0  0  0
   70.6792   51.9902   56.8709 C   0  0  0  0  0  0  0  0  0  0  0  0
   69.3543   52.3909   56.4021 C   0  0  0  0  0  0  0  0  0  0  0  0
   69.1720   52.4410   54.9240 C   0  0  0  0  0  0  0  0  0  0  0  0
   70.1757   51.6924   54.1261 C   0  0  1  0  0  0  0  0  0  0  0  0
   71.5637   51.7734   54.6410 C   0  0  0  0  0  0  0  0  0  0  0  0
   72.5698   51.7706   53.8542 O   0  0  0  0  0  0  0  0  0  0  0  0
   71.8186   51.8575   56.0309 N   0  0  0  0  0  0  0  0  0  0  0  0
   67.8078   44.5905   54.6992 C   0  0  0  0  0  0  0  0  0  0  0  0
   68.1746   44.2304   56.0106 N   0  0  0  0  0  0  0  0  0  0  0  0
   68.1229   42.9286   56.5230 C   0  0  0  0  0  0  0  0  0  0  0  0
   67.7324   42.0224   55.7832 O   0  0  0  0  0  0  0  0  0  0  0  0
   68.4982   42.5937   57.8615 N   0  0  0  0  0  0  0  0  0  0  0  0
   68.4100   41.2430   58.2658 C   0  0  0  0  0  0  0  0  0  0  0  0
   67.3178   40.6289   58.7949 C   0  0  0  0  0  0  0  0  0  0  0  0
   67.3522   39.2946   59.1639 C   0  0  0  0  0  0  0  0  0  0  0  0
   68.4885   38.5567   59.0041 C   0  0  0  0  0  0  0  0  0  0  0  0
   69.6061   39.1489   58.4729 C   0  0  0  0  0  0  0  0  0  0  0  0
   71.0458   38.1552   58.2883 Cl  0  0  0  0  0  0  0  0  0  0  0  0
   69.5631   40.4647   58.1119 C   0  0  0  0  0  0  0  0  0  0  0  0
 11 12  2  0
 12 13  1  0
 12 18  1  0
 13 14  1  0
 14 15  1  0
 15  1  1  1
 15 16  1  0
  1  2  1  0
  1  9  1  0
  2  3  1  0
  3  4  1  0
  3  8  2  0
  4  5  2  0
  5 19  1  0
  5  6  1  0
 19 20  1  0
 20 21  1  0
 21 22  2  0
 21 23  1  0
 23 24  1  0
 24 25  2  0
 24 30  1  0
 25 26  1  0
 26 27  2  0
 27 28  1  0
 28 29  1  0
 28 30  2  0
  6  7  2  0
  7  8  1  0
  8  9  1  0
  9 10  2  0
 16 17  2  0
 16 18  1  0
M  END
>  <minimizedAffinity>  (277) 
-8.78029

$$$$
data/reference_output_2/data/smiles/116460.pdb
     RDKit          3D

 28 30  0  0  0  0  0  0  0  0999 V2000
   71.3881   42.5071   58.3393 C   0  0  2  0  0  0  0  0  0  0  0  0
   72.8988   42.7314   58.1282 C   0  0  0  0  0  0  0  0  0  0  0  0
   73.3748   44.0294   58.6815 C   0  0  0  0  0  0  0  0  0  0  0  0
   72.3148   45.0432   58.9516 C   0  0  0  0  0  0  0  0  0  0  0  0
   71.1365   44.9192   58.0576 C   0  0  0  0  0  0  0  0  0  0  0  0
   70.4988   46.0056   57.5076 C   0  0  0  0  0  0  0  0  0  0  0  0
   69.4058   45.8672   56.6816 C   0  0  0  0  0  0  0  0  0  0  0  0
   68.9582   44.6052   56.4141 C   0  0  0  0  0  0  0  0  0  0  0  0
   69.5803   43.5257   56.9522 C   0  0  0  0  0  0  0  0  0  0  0  0
   70.6836   43.6338   57.7873 C   0  0  0  0  0  0  0  0  0  0  0  0
   68.6734   47.3181   56.0380 S   0  0  0  0  0  0  0  0  0  0  0  0
   67.2680   47.4290   56.5620 O   0  0  0  0  0  0  0  0  0  0  0  0
   69.4911   48.4904   56.5179 O   0  0  0  0  0  0  0  0  0  0  0  0
   68.7036   47.1927   54.2997 C   0  0  0  0  0  0  0  0  0  0  0  0
   67.9062   46.2692   53.6645 C   0  0  0  0  0  0  0  0  0  0  0  0
   67.9253   46.1634   52.2750 C   0  0  0  0  0  0  0  0  0  0  0  0
   68.7507   46.9925   51.5255 C   0  0  0  0  0  0  0  0  0  0  0  0
   69.5464   47.9148   52.1549 C   0  0  0  0  0  0  0  0  0  0  0  0
   70.3384   48.7088   51.4170 F   0  0  0  0  0  0  0  0  0  0  0  0
   69.5121   48.0023   53.5265 C   0  0  0  0  0  0  0  0  0  0  0  0
   71.1129   42.0037   59.6976 C   0  0  0  0  0  0  0  0  0  0  0  0
   69.1918   42.7416   61.2104 C   0  0  0  0  0  0  0  0  0  0  0  0
   69.9218   43.4057   61.9766 O   0  0  0  0  0  0  0  0  0  0  0  0
   69.7553   42.0496   60.1099 N   0  0  0  0  0  0  0  0  0  0  0  0
   67.4224   42.1933   62.8605 C   0  0  0  0  0  0  0  0  0  0  0  0
   67.7152   42.6681   61.4444 C   0  0  0  0  0  0  0  0  0  0  0  0
   67.0794   41.7650   60.4131 C   0  0  0  0  0  0  0  0  0  0  0  0
   67.1729   43.9284   61.3035 O   0  0  0  0  0  0  0  0  0  0  0  0
 25 26  1  0
 26 27  1  0
 26 28  1  0
 26 22  1  0
 22 23  2  0
 22 24  1  0
 24 21  1  0
  1 21  1  1
  1  2  1  0
  1 10  1  0
  2  3  1  0
  3  4  1  0
  4  5  1  0
  5  6  1  0
  5 10  2  0
  6  7  2  0
  7 11  1  0
  7  8  1  0
 11 12  2  0
 11 13  2  0
 11 14  1  0
 14 15  2  0
 14 20  1  0
 15 16  1  0
 16 17  2  0
 17 18  1  0
 18 19  1  0
 18 20  2  0
  8  9  2  0
  9 10  1  0
M  END
>  <minimizedAffinity>  (278) 
-8.78016

$$$$
data/reference_output_2/data/smiles/107196.pdb
     RDKit          3D

 29 31  0  0  0  0  0  0  0  0999 V2000
   67.3260   41.4475   56.9703 C   0  0  0  0  0  0  0  0  0  0  0  0
   68.1963   40.2982   56.5687 C   0  0  0  0  0  0  0  0  0  0  0  0
   68.5293   39.3751   57.7149 C   0  0  0  0  0  0  0  0  0  0  0  0
   69.0016   40.2206   58.7943 N   0  0  0  0  0  0  0  0  0  0  0  0
   67.8759   40.8772   59.3696 C   0  0  0  0  0  0  0  0  0  0  0  0
   66.8786   41.4143   58.4002 C   0  0  0  0  0  0  0  0  0  0  0  0
   67.5296   43.5839   55.5694 N   0  0  0  0  0  0  0  0  0  0  0  0
   67.9160   42.7735   56.6480 C   0  0  0  0  0  0  0  0  0  0  0  0
   68.8413   43.2337   57.3891 O   0  0  0  0  0  0  0  0  0  0  0  0
   67.9786   45.4797   54.0268 C   0  0  0  0  0  0  0  0  0  0  0  0
   67.3274   44.8786   53.1368 O   0  0  0  0  0  0  0  0  0  0  0  0
   68.0899   44.8367   55.2695 N   0  0  0  0  0  0  0  0  0  0  0  0
   70.2529   50.6980   52.9825 C   0  0  0  0  0  0  0  0  0  0  0  0
   69.6690   49.3404   53.2295 C   0  0  0  0  0  0  0  0  0  0  0  0
   69.2455   48.9703   54.4873 C   0  0  0  0  0  0  0  0  0  0  0  0
   68.7072   47.7191   54.7101 C   0  0  0  0  0  0  0  0  0  0  0  0
   68.5607   46.7799   53.7113 C   0  0  0  0  0  0  0  0  0  0  0  0
   68.9847   47.1531   52.4537 C   0  0  0  0  0  0  0  0  0  0  0  0
   69.5308   48.4146   52.2201 C   0  0  0  0  0  0  0  0  0  0  0  0
   69.7094   39.2405   60.0256 S   0  0  0  0  0  0  0  0  0  0  0  0
   68.6749   38.7041   60.9684 O   0  0  0  0  0  0  0  0  0  0  0  0
   70.6893   40.1369   60.7698 O   0  0  0  0  0  0  0  0  0  0  0  0
   70.6593   37.9731   59.2991 C   0  0  0  0  0  0  0  0  0  0  0  0
   70.5641   36.6515   59.7076 C   0  0  0  0  0  0  0  0  0  0  0  0
   71.3083   35.6531   59.1280 C   0  0  0  0  0  0  0  0  0  0  0  0
   72.1833   35.9204   58.1123 C   0  0  0  0  0  0  0  0  0  0  0  0
   72.9868   34.8623   57.4817 C   0  0  0  0  0  0  0  0  0  0  0  0
   72.2809   37.2383   57.7012 C   0  0  0  0  0  0  0  0  0  0  0  0
   71.5468   38.2423   58.2690 C   0  0  0  0  0  0  0  0  0  0  0  0
 13 14  1  0
 14 15  2  0
 14 19  1  0
 15 16  1  0
 16 17  2  0
 17 10  1  0
 17 18  1  0
 10 11  2  0
 10 12  1  0
 12  7  1  0
  7  8  1  0
  8  9  2  0
  8  1  1  0
  1  2  1  0
  1  6  1  0
  2  3  1  0
  3  4  1  0
  4 20  1  0
  4  5  1  0
 20 21  2  0
 20 22  2  0
 20 23  1  0
 23 24  2  0
 23 29  1  0
 24 25  1  0
 25 26  2  0
 26 27  1  0
 26 28  1  0
 28 29  2  0
  5  6  1  0
 18 19  2  0
M  END
>  <minimizedAffinity>  (279) 
-8.77766

$$$$
data/reference_output_2/data/smiles/90432.pdb
     RDKit          3D

 31 34  0  0  0  0  0  0  0  0999 V2000
   70.8302   46.3298   57.1221 N   0  0  0  0  0  0  0  0  0  0  0  0
   70.5537   45.3619   58.1174 C   0  0  0  0  0  0  0  0  0  0  0  0
   69.7460   45.6859   59.0479 O   0  0  0  0  0  0  0  0  0  0  0  0
   68.2817   51.4477   57.6447 C   0  0  0  0  0  0  0  0  0  0  0  0
   68.9564   50.1130   57.4857 C   0  0  0  0  0  0  0  0  0  0  0  0
   70.0967   49.8065   58.1778 C   0  0  0  0  0  0  0  0  0  0  0  0
   70.6925   48.5731   58.0326 C   0  0  0  0  0  0  0  0  0  0  0  0
   70.1786   47.6104   57.2040 C   0  0  0  0  0  0  0  0  0  0  0  0
   69.0054   47.8956   56.4741 C   0  0  0  0  0  0  0  0  0  0  0  0
   68.4268   49.1524   56.6413 C   0  0  0  0  0  0  0  0  0  0  0  0
   68.5655   46.8795   55.5442 C   0  0  0  0  0  0  0  0  0  0  0  0
   68.1369   45.8054   56.1727 O   0  0  0  0  0  0  0  0  0  0  0  0
   68.4833   46.7672   54.1314 C   0  0  0  0  0  0  0  0  0  0  0  0
   67.7278   45.8626   53.4473 C   0  0  0  0  0  0  0  0  0  0  0  0
   67.7319   45.8600   52.0588 C   0  0  0  0  0  0  0  0  0  0  0  0
   68.4860   46.7539   51.3385 C   0  0  0  0  0  0  0  0  0  0  0  0
   69.2455   47.6611   52.0122 C   0  0  0  0  0  0  0  0  0  0  0  0
   69.2476   47.6712   53.3682 C   0  0  0  0  0  0  0  0  0  0  0  0
   71.1241   44.0320   58.1579 C   0  0  0  0  0  0  0  0  0  0  0  0
   72.3900   43.7426   57.7524 N   0  0  0  0  0  0  0  0  0  0  0  0
   72.6877   42.4548   57.9368 C   0  0  0  0  0  0  0  0  0  0  0  0
   71.5984   41.8995   58.4706 N   0  0  0  0  0  0  0  0  0  0  0  0
   70.6230   42.8478   58.6184 C   0  0  0  0  0  0  0  0  0  0  0  0
   69.3609   42.5415   59.2280 C   0  0  0  0  0  0  0  0  0  0  0  0
   68.3117   42.3748   58.4883 O   0  0  0  0  0  0  0  0  0  0  0  0
   69.2126   42.4136   60.6120 N   0  0  0  0  0  0  0  0  0  0  0  0
   70.3255   42.5730   61.5009 C   0  0  0  0  0  0  0  0  0  0  0  0
   69.9507   42.0842   62.8647 C   0  0  0  0  0  0  0  0  0  0  0  0
   68.8076   42.6394   63.3676 O   0  0  0  0  0  0  0  0  0  0  0  0
   67.8075   42.9179   62.4809 C   0  0  0  0  0  0  0  0  0  0  0  0
   67.9002   42.1175   61.2073 C   0  0  0  0  0  0  0  0  0  0  0  0
  4  5  1  0
  5  6  2  0
  5 10  1  0
  6  7  1  0
  7  8  2  0
  8  1  1  0
  8  9  1  0
  1  2  1  0
  2  3  2  0
  2 19  1  0
 19 20  1  0
 19 23  2  0
 20 21  1  0
 21 22  2  0
 22 23  1  0
 23 24  1  0
 24 25  2  0
 24 26  1  0
 26 27  1  0
 26 31  1  0
 27 28  1  0
 28 29  1  0
 29 30  1  0
 30 31  1  0
  9 11  1  0
  9 10  2  0
 11 12  2  0
 11 13  1  0
 13 14  2  0
 13 18  1  0
 14 15  1  0
 15 16  2  0
 16 17  1  0
 17 18  2  0
M  CHG  1  22   1
M  END
>  <minimizedAffinity>  (280) 
-8.77558

$$$$
data/reference_output_2/data/smiles/98349.pdb
     RDKit          3D

 31 34  0  0  0  0  0  0  0  0999 V2000
   67.8363   45.5774   53.4638 C   0  0  0  0  0  0  0  0  0  0  0  0
   68.0742   45.7682   52.1193 C   0  0  0  0  0  0  0  0  0  0  0  0
   68.6923   46.9247   51.6682 C   0  0  0  0  0  0  0  0  0  0  0  0
   69.0839   47.9062   52.5397 C   0  0  0  0  0  0  0  0  0  0  0  0
   68.8602   47.7411   53.8764 C   0  0  0  0  0  0  0  0  0  0  0  0
   68.2434   46.5847   54.3119 C   0  0  0  0  0  0  0  0  0  0  0  0
   69.3626   48.9146   54.6165 C   0  0  0  0  0  0  0  0  0  0  0  0
   69.9132   49.8338   53.6424 N   0  0  0  0  0  0  0  0  0  0  0  0
   69.7404   49.2126   52.3927 C   0  0  0  0  0  0  0  0  0  0  0  0
   70.0851   49.6715   51.2761 O   0  0  0  0  0  0  0  0  0  0  0  0
   70.5065   51.1196   53.9667 C   0  0  1  0  0  0  0  0  0  0  0  0
   69.5301   52.1048   54.4916 C   0  0  0  0  0  0  0  0  0  0  0  0
   69.4820   52.3210   55.9551 C   0  0  0  0  0  0  0  0  0  0  0  0
   70.5584   51.7012   56.7424 C   0  0  0  0  0  0  0  0  0  0  0  0
   70.3738   51.4732   57.9605 O   0  0  0  0  0  0  0  0  0  0  0  0
   71.7794   51.3727   56.1116 N   0  0  0  0  0  0  0  0  0  0  0  0
   71.7472   50.9658   54.7588 C   0  0  0  0  0  0  0  0  0  0  0  0
   72.7584   50.4678   54.1910 O   0  0  0  0  0  0  0  0  0  0  0  0
   67.1691   44.3539   53.9741 C   0  0  0  0  0  0  0  0  0  0  0  0
   68.1132   42.5266   57.2323 N   0  0  0  0  0  0  0  0  0  0  0  0
   67.4980   42.8347   55.9773 C   0  0  0  0  0  0  0  0  0  0  0  0
   66.6845   42.0063   55.5462 O   0  0  0  0  0  0  0  0  0  0  0  0
   67.7666   43.9935   55.2416 N   0  0  0  0  0  0  0  0  0  0  0  0
   67.0198   37.6944   60.1381 C   0  0  0  0  0  0  0  0  0  0  0  0
   67.3031   38.9520   59.3836 C   0  0  0  0  0  0  0  0  0  0  0  0
   68.2226   38.9876   58.3554 C   0  0  0  0  0  0  0  0  0  0  0  0
   68.4741   40.1600   57.6667 C   0  0  0  0  0  0  0  0  0  0  0  0
   67.8278   41.3424   57.9651 C   0  0  0  0  0  0  0  0  0  0  0  0
   66.9079   41.3095   58.9919 C   0  0  0  0  0  0  0  0  0  0  0  0
   66.6545   40.1302   59.6854 C   0  0  0  0  0  0  0  0  0  0  0  0
   65.4872   40.0985   60.9862 Cl  0  0  0  0  0  0  0  0  0  0  0  0
 24 25  1  0
 25 26  2  0
 25 30  1  0
 26 27  1  0
 27 28  2  0
 28 20  1  0
 28 29  1  0
 20 21  1  0
 21 22  2  0
 21 23  1  0
 23 19  1  0
 19  1  1  0
  1  2  2  0
  1  6  1  0
  2  3  1  0
  3  4  2  0
  4  5  1  0
  4  9  1  0
  5  6  2  0
  5  7  1  0
  7  8  1  0
 11  8  1  1
  8  9  1  0
 11 12  1  0
 11 17  1  0
 12 13  1  0
 13 14  1  0
 14 15  2  0
 14 16  1  0
 16 17  1  0
 17 18  2  0
  9 10  2  0
 29 30  2  0
 30 31  1  0
M  END
>  <minimizedAffinity>  (281) 
-8.77270

$$$$
data/reference_output_2/data/smiles/140691.pdb
     RDKit          3D

 27 28  0  0  0  0  0  0  0  0999 V2000
   69.0040   47.0651   56.5853 S   0  0  0  0  0  0  0  0  0  0  0  0
   67.6880   47.5836   57.0526 O   0  0  0  0  0  0  0  0  0  0  0  0
   69.0295   45.5579   56.5398 O   0  0  0  0  0  0  0  0  0  0  0  0
   70.2203   47.5981   57.7379 C   0  0  0  0  0  0  0  0  0  0  0  0
   71.0883   46.7870   58.2624 C   0  0  0  0  0  0  0  0  0  0  0  0
   72.0930   47.2316   59.2158 C   0  0  0  0  0  0  0  0  0  0  0  0
   73.0506   48.1747   58.8202 C   0  0  0  0  0  0  0  0  0  0  0  0
   74.0350   48.6542   59.6436 C   0  0  0  0  0  0  0  0  0  0  0  0
   74.0744   48.1737   60.9337 C   0  0  0  0  0  0  0  0  0  0  0  0
   73.1545   47.2496   61.3648 C   0  0  0  0  0  0  0  0  0  0  0  0
   72.1749   46.7840   60.5133 C   0  0  0  0  0  0  0  0  0  0  0  0
   75.1223   48.6494   61.9010 C   0  0  0  0  0  0  0  0  0  0  0  0
   74.8901   48.0856   63.1348 F   0  0  0  0  0  0  0  0  0  0  0  0
   75.1308   50.0194   61.9852 F   0  0  0  0  0  0  0  0  0  0  0  0
   76.3405   48.2208   61.4521 F   0  0  0  0  0  0  0  0  0  0  0  0
   69.3243   47.6520   55.0061 N   0  0  0  0  0  0  0  0  0  0  0  0
   68.9425   47.6331   52.5947 C   0  0  0  0  0  0  0  0  0  0  0  0
   68.3690   47.0370   51.4987 C   0  0  0  0  0  0  0  0  0  0  0  0
   67.6154   45.9087   51.6084 C   0  0  0  0  0  0  0  0  0  0  0  0
   67.0481   45.3223   50.5163 F   0  0  0  0  0  0  0  0  0  0  0  0
   67.4133   45.3361   52.8405 C   0  0  0  0  0  0  0  0  0  0  0  0
   67.9928   45.9391   53.9383 C   0  0  0  0  0  0  0  0  0  0  0  0
   68.7560   47.0802   53.8382 C   0  0  0  0  0  0  0  0  0  0  0  0
   69.2406   50.3755   53.3361 N   0  0  0  0  0  0  0  0  0  0  0  0
   69.8998   49.0809   52.3940 S   0  0  0  0  0  0  0  0  0  0  0  0
   71.3156   48.8466   52.8953 O   0  0  0  0  0  0  0  0  0  0  0  0
   69.9095   49.4756   50.9547 O   0  0  0  0  0  0  0  0  0  0  0  0
 24 25  1  0
 25 26  2  0
 25 27  2  0
 25 17  1  0
 17 18  2  0
 17 23  1  0
 18 19  1  0
 19 20  1  0
 19 21  2  0
 21 22  1  0
 22 23  2  0
 23 16  1  0
 16  1  1  0
  1  2  2  0
  1  3  2  0
  1  4  1  0
  4  5  2  0
  5  6  1  0
  6  7  2  0
  6 11  1  0
  7  8  1  0
  8  9  2  0
  9 12  1  0
  9 10  1  0
 12 13  1  0
 12 14  1  0
 12 15  1  0
 10 11  2  0
M  END
>  <minimizedAffinity>  (282) 
-8.77051

$$$$
data/200k_reference_output/data/smiles/77843.pdb
     RDKit          3D

 28 29  0  0  0  0  0  0  0  0999 V2000
   70.8223   50.2122   55.5604 C   0  0  0  0  0  0  0  0  0  0  0  0
   72.0160   49.7401   55.6097 O   0  0  0  0  0  0  0  0  0  0  0  0
   70.0025   49.7225   56.6474 N   0  0  0  0  0  0  0  0  0  0  0  0
   70.5290   48.8380   57.6075 C   0  0  0  0  0  0  0  0  0  0  0  0
   71.2563   49.2487   58.6975 C   0  0  0  0  0  0  0  0  0  0  0  0
   71.7785   48.3317   59.5795 C   0  0  0  0  0  0  0  0  0  0  0  0
   71.6012   46.9645   59.4162 C   0  0  0  0  0  0  0  0  0  0  0  0
   70.8620   46.5502   58.3086 C   0  0  0  0  0  0  0  0  0  0  0  0
   70.3588   47.4858   57.4554 C   0  0  0  0  0  0  0  0  0  0  0  0
   70.6689   45.0732   58.1133 C   0  0  0  0  0  0  0  0  0  0  0  0
   71.9207   44.5472   57.7724 F   0  0  0  0  0  0  0  0  0  0  0  0
   70.1715   44.4463   59.1953 F   0  0  0  0  0  0  0  0  0  0  0  0
   69.8580   44.9096   56.9955 F   0  0  0  0  0  0  0  0  0  0  0  0
   72.1469   45.9831   60.3061 C   0  0  0  0  0  0  0  0  0  0  0  0
   72.5780   45.1726   61.0461 N   0  0  0  0  0  0  0  0  0  0  0  0
   69.9143   52.4271   55.1407 C   0  0  0  0  0  0  0  0  0  0  0  0
   70.4006   51.1232   54.5066 C   0  0  1  0  0  0  0  0  0  0  0  0
   71.5893   51.5275   53.8135 O   0  0  0  0  0  0  0  0  0  0  0  0
   69.4928   50.6003   53.4696 C   0  0  0  0  0  0  0  0  0  0  0  0
   70.0046   49.2213   52.5502 S   0  0  0  0  0  0  0  0  0  0  0  0
   69.8362   49.5473   51.0748 O   0  0  0  0  0  0  0  0  0  0  0  0
   71.4715   48.9919   52.7455 O   0  0  0  0  0  0  0  0  0  0  0  0
   69.1041   47.7797   52.8817 C   0  0  0  0  0  0  0  0  0  0  0  0
   68.6810   46.9453   51.8722 C   0  0  0  0  0  0  0  0  0  0  0  0
   67.9911   45.8120   52.2309 C   0  0  0  0  0  0  0  0  0  0  0  0
   67.7199   45.5005   53.5571 C   0  0  0  0  0  0  0  0  0  0  0  0
   68.1488   46.3465   54.5879 C   0  0  0  0  0  0  0  0  0  0  0  0
   68.8364   47.4773   54.2158 C   0  0  0  0  0  0  0  0  0  0  0  0
 17 16  1  1
 17 18  1  0
 17 19  1  0
 17  1  1  0
 19 20  1  0
 20 21  2  0
 20 22  2  0
 20 23  1  0
 23 24  2  0
 23 28  1  0
 24 25  1  0
 25 26  2  0
 26 27  1  0
 27 28  2  0
  1  2  2  0
  1  3  1  0
  3  4  1  0
  4  5  2  0
  4  9  1  0
  5  6  1  0
  6  7  2  0
  7 14  1  0
  7  8  1  0
 14 15  3  0
  8 10  1  0
  8  9  2  0
 10 11  1  0
 10 12  1  0
 10 13  1  0
M  END
>  <minimizedAffinity>  (283) 
-8.77036

$$$$
data/200k_reference_output/data/smiles/44662.pdb
     RDKit          3D

 32 35  0  0  0  0  0  0  0  0999 V2000
   70.7457   44.3543   58.9863 C   0  0  0  0  0  0  0  0  0  0  0  0
   70.7587   45.6769   58.8537 C   0  0  0  0  0  0  0  0  0  0  0  0
   71.4286   46.4379   59.7394 N   0  0  0  0  0  0  0  0  0  0  0  0
   71.4217   47.7740   59.5772 C   0  0  0  0  0  0  0  0  0  0  0  0
   72.0415   48.4954   60.3953 O   0  0  0  0  0  0  0  0  0  0  0  0
   70.7531   48.3724   58.5365 C   0  0  0  0  0  0  0  0  0  0  0  0
   70.7686   49.6825   58.4092 C   0  0  0  0  0  0  0  0  0  0  0  0
   70.0788   47.6334   57.6408 N   0  0  0  0  0  0  0  0  0  0  0  0
   70.0869   46.2981   57.8060 C   0  0  0  0  0  0  0  0  0  0  0  0
   69.4775   45.5432   57.0079 O   0  0  0  0  0  0  0  0  0  0  0  0
   70.0806   50.3841   57.3290 C   0  0  0  0  0  0  0  0  0  0  0  0
   69.2258   51.4043   57.6348 C   0  0  0  0  0  0  0  0  0  0  0  0
   68.5615   52.0832   56.6136 C   0  0  0  0  0  0  0  0  0  0  0  0
   68.7580   51.7370   55.3156 C   0  0  0  0  0  0  0  0  0  0  0  0
   69.6250   50.6973   54.9484 C   0  0  0  0  0  0  0  0  0  0  0  0
   70.2589   50.0561   55.9946 C   0  0  0  0  0  0  0  0  0  0  0  0
   69.8237   50.3687   53.5561 C   0  0  0  0  0  0  0  0  0  0  0  0
   70.2189   51.2207   52.7368 O   0  0  0  0  0  0  0  0  0  0  0  0
   69.5612   48.9998   53.0495 C   0  0  0  0  0  0  0  0  0  0  0  0
   69.9067   48.4441   51.8885 C   0  0  0  0  0  0  0  0  0  0  0  0
   69.5595   47.1880   51.6008 C   0  0  0  0  0  0  0  0  0  0  0  0
   68.8196   46.5078   52.5844 C   0  0  0  0  0  0  0  0  0  0  0  0
   68.6684   47.7386   53.8841 S   0  0  0  0  0  0  0  0  0  0  0  0
   72.6924   43.1352   59.9479 C   0  0  0  0  0  0  0  0  0  0  0  0
   73.0523   42.6639   61.1580 N   0  0  0  0  0  0  0  0  0  0  0  0
   72.0867   42.9478   62.0320 C   0  0  0  0  0  0  0  0  0  0  0  0
   71.1037   43.6048   61.3755 N   0  0  0  0  0  0  0  0  0  0  0  0
   71.4683   43.7202   60.1085 C   0  0  0  0  0  0  0  0  0  0  0  0
   74.1357   44.3396   58.3579 C   0  0  0  0  0  0  0  0  0  0  0  0
   73.5089   43.0112   58.7234 C   0  0  0  0  0  0  0  0  0  0  0  0
   72.6991   42.5550   57.5274 C   0  0  0  0  0  0  0  0  0  0  0  0
   74.5846   41.9796   58.9955 C   0  0  0  0  0  0  0  0  0  0  0  0
 29 30  1  0
 30 31  1  0
 30 32  1  0
 30 24  1  0
 24 25  1  0
 24 28  2  0
 25 26  1  0
 26 27  2  0
 27 28  1  0
 28  1  1  0
  1  2  2  0
  2  3  1  0
  2  9  1  0
  3  4  1  0
  4  5  2  0
  4  6  1  0
  6  7  2  0
  6  8  1  0
  7 11  1  0
 11 12  2  0
 11 16  1  0
 12 13  1  0
 13 14  2  0
 14 15  1  0
 15 17  1  0
 15 16  2  0
 17 18  2  0
 17 19  1  0
 19 20  2  0
 19 23  1  0
 20 21  1  0
 21 22  2  0
 22 23  1  0
  8  9  1  0
  9 10  2  0
M  CHG  1  27   1
M  END
>  <minimizedAffinity>  (284) 
-8.77001

$$$$
data/reference_output_2/data/smiles/98199.pdb
     RDKit          3D

 28 30  0  0  0  0  0  0  0  0999 V2000
   73.1648   51.5999   54.8530 C   0  0  0  0  0  0  0  0  0  0  0  0
   70.7030   51.5625   53.5740 O   0  0  0  0  0  0  0  0  0  0  0  0
   71.0667   50.4465   54.0398 C   0  0  0  0  0  0  0  0  0  0  0  0
   72.3236   50.4346   54.7015 N   0  0  0  0  0  0  0  0  0  0  0  0
   70.2068   49.2801   53.8769 C   0  0  0  0  0  0  0  0  0  0  0  0
   69.7442   48.6269   55.0027 C   0  0  0  0  0  0  0  0  0  0  0  0
   68.9275   47.5173   54.9362 C   0  0  0  0  0  0  0  0  0  0  0  0
   68.5428   47.0204   53.6857 C   0  0  0  0  0  0  0  0  0  0  0  0
   67.7273   45.9134   53.5786 C   0  0  0  0  0  0  0  0  0  0  0  0
   67.3625   45.4436   52.3192 C   0  0  0  0  0  0  0  0  0  0  0  0
   67.8288   46.1020   51.2002 C   0  0  0  0  0  0  0  0  0  0  0  0
   68.6208   47.1767   51.3489 N   0  0  0  0  0  0  0  0  0  0  0  0
   68.9909   47.6544   52.5515 C   0  0  0  0  0  0  0  0  0  0  0  0
   69.8203   48.7784   52.6744 C   0  0  0  0  0  0  0  0  0  0  0  0
   73.2883   52.0449   56.2992 C   0  0  0  0  0  0  0  0  0  0  0  0
   71.9905   53.1810   56.7264 S   0  0  0  0  0  0  0  0  0  0  0  0
   72.4017   53.8860   57.9882 O   0  0  0  0  0  0  0  0  0  0  0  0
   71.8104   54.2078   55.6390 O   0  0  0  0  0  0  0  0  0  0  0  0
   70.5239   52.2969   57.0375 C   0  0  0  0  0  0  0  0  0  0  0  0
   70.4712   51.2936   57.9943 C   0  0  0  0  0  0  0  0  0  0  0  0
   69.3149   50.5847   58.2522 C   0  0  0  0  0  0  0  0  0  0  0  0
   68.1573   50.8632   57.5463 C   0  0  0  0  0  0  0  0  0  0  0  0
   68.2394   51.8664   56.6009 C   0  0  0  0  0  0  0  0  0  0  0  0
   69.3837   52.5443   56.3698 N   0  0  0  0  0  0  0  0  0  0  0  0
   66.8881   50.1200   57.7946 C   0  0  0  0  0  0  0  0  0  0  0  0
   67.0151   48.8899   57.2101 F   0  0  0  0  0  0  0  0  0  0  0  0
   65.7875   50.8237   57.3470 F   0  0  0  0  0  0  0  0  0  0  0  0
   66.7183   49.9241   59.1585 F   0  0  0  0  0  0  0  0  0  0  0  0
  2  3  2  0
  3  4  1  0
  3  5  1  0
  4  1  1  0
  1 15  1  0
 15 16  1  0
 16 17  2  0
 16 18  2  0
 16 19  1  0
 19 20  2  0
 19 24  1  0
 20 21  1  0
 21 22  2  0
 22 25  1  0
 22 23  1  0
 25 26  1  0
 25 27  1  0
 25 28  1  0
 23 24  2  0
  5  6  2  0
  5 14  1  0
  6  7  1  0
  7  8  2  0
  8  9  1  0
  8 13  1  0
  9 10  2  0
 10 11  1  0
 11 12  2  0
 12 13  1  0
 13 14  2  0
M  END
>  <minimizedAffinity>  (285) 
-8.76980

$$$$
data/200k_reference_output/data/smiles/47018.pdb
     RDKit          3D

 29 31  0  0  0  0  0  0  0  0999 V2000
   71.8054   48.5537   58.4965 C   0  0  0  0  0  0  0  0  0  0  0  0
   71.7042   49.8574   57.7840 C   0  0  1  0  0  0  0  0  0  0  0  0
   70.6132   50.7611   58.3174 C   0  0  0  0  0  0  0  0  0  0  0  0
   71.6504   51.8732   58.3579 C   0  0  0  0  0  0  0  0  0  0  0  0
   72.6710   50.8238   58.2599 N   0  0  0  0  0  0  0  0  0  0  0  0
   74.0583   50.8378   58.5437 C   0  0  0  0  0  0  0  0  0  0  0  0
   74.6327   51.8798   58.9528 O   0  0  0  0  0  0  0  0  0  0  0  0
   71.6559   49.7577   56.2842 C   0  0  0  0  0  0  0  0  0  0  0  0
   72.7292   49.8717   55.6579 O   0  0  0  0  0  0  0  0  0  0  0  0
   70.4529   49.5460   55.5915 N   0  0  0  0  0  0  0  0  0  0  0  0
   70.2435   49.4331   53.9147 S   0  0  0  0  0  0  0  0  0  0  0  0
   71.6015   49.4028   53.2504 O   0  0  0  0  0  0  0  0  0  0  0  0
   69.5432   50.6353   53.3336 O   0  0  0  0  0  0  0  0  0  0  0  0
   69.2982   48.0414   53.4392 C   0  0  0  0  0  0  0  0  0  0  0  0
   69.2305   47.6965   52.0778 C   0  0  0  0  0  0  0  0  0  0  0  0
   68.5099   46.6083   51.6666 C   0  0  0  0  0  0  0  0  0  0  0  0
   67.8200   45.7960   52.5346 C   0  0  0  0  0  0  0  0  0  0  0  0
   67.8809   46.1275   53.8665 C   0  0  0  0  0  0  0  0  0  0  0  0
   68.6082   47.2280   54.2926 C   0  0  0  0  0  0  0  0  0  0  0  0
   68.6123   47.5734   56.0114 Cl  0  0  0  0  0  0  0  0  0  0  0  0
   74.8404   49.5686   58.3427 C   0  0  0  0  0  0  0  0  0  0  0  0
   76.2146   49.9416   57.9224 C   0  0  0  0  0  0  0  0  0  0  0  0
   77.1590   50.3181   58.8685 C   0  0  0  0  0  0  0  0  0  0  0  0
   78.4295   50.6671   58.4736 C   0  0  0  0  0  0  0  0  0  0  0  0
   79.3525   51.0392   59.4225 F   0  0  0  0  0  0  0  0  0  0  0  0
   78.7662   50.6444   57.1384 C   0  0  0  0  0  0  0  0  0  0  0  0
   77.8224   50.2688   56.2071 C   0  0  0  0  0  0  0  0  0  0  0  0
   76.5481   49.9171   56.5823 C   0  0  0  0  0  0  0  0  0  0  0  0
   75.6134   49.5470   55.6766 F   0  0  0  0  0  0  0  0  0  0  0  0
  2  1  1  1
  2  8  1  0
  2  3  1  0
  2  5  1  0
  8  9  2  0
  8 10  1  0
 10 11  1  0
 11 12  2  0
 11 13  2  0
 11 14  1  0
 14 15  2  0
 14 19  1  0
 15 16  1  0
 16 17  2  0
 17 18  1  0
 18 19  2  0
 19 20  1  0
  3  4  1  0
  4  5  1  0
  5  6  1  0
  6  7  2  0
  6 21  1  0
 21 22  1  0
 22 23  2  0
 22 28  1  0
 23 24  1  0
 24 25  1  0
 24 26  2  0
 26 27  1  0
 27 28  2  0
 28 29  1  0
M  END
>  <minimizedAffinity>  (286) 
-8.76857

$$$$
data/reference_output_2/data/smiles/120721.pdb
     RDKit          3D

 28 30  0  0  0  0  0  0  0  0999 V2000
   70.2531   44.0856   57.6689 C   0  0  0  0  0  0  0  0  0  0  0  0
   69.0746   43.3674   57.0862 C   0  0  0  0  0  0  0  0  0  0  0  0
   68.9098   42.0833   57.4036 C   0  0  0  0  0  0  0  0  0  0  0  0
   67.7707   41.3555   56.8518 C   0  0  0  0  0  0  0  0  0  0  0  0
   66.9433   41.8900   56.0925 O   0  0  0  0  0  0  0  0  0  0  0  0
   67.6027   39.9831   57.1973 N   0  0  0  0  0  0  0  0  0  0  0  0
   68.5102   39.2934   58.0650 C   0  0  0  0  0  0  0  0  0  0  0  0
   68.3215   38.0878   58.3475 O   0  0  0  0  0  0  0  0  0  0  0  0
   69.6331   39.9560   58.6260 N   0  0  0  0  0  0  0  0  0  0  0  0
   69.8107   41.3488   58.2816 C   0  0  0  0  0  0  0  0  0  0  0  0
   70.7932   42.0039   58.7485 O   0  0  0  0  0  0  0  0  0  0  0  0
   70.6367   39.3516   59.4539 C   0  0  0  0  0  0  0  0  0  0  0  0
   70.2717   38.3061   60.3838 C   0  0  0  0  0  0  0  0  0  0  0  0
   71.1525   37.0825   60.3951 C   0  0  0  0  0  0  0  0  0  0  0  0
   71.3899   36.5681   58.9991 C   0  0  0  0  0  0  0  0  0  0  0  0
   71.7341   37.6166   58.0187 C   0  0  0  0  0  0  0  0  0  0  0  0
   71.8167   38.9641   58.6105 C   0  0  0  0  0  0  0  0  0  0  0  0
   68.1949   44.0820   56.2265 N   0  0  0  0  0  0  0  0  0  0  0  0
   68.6435   44.9307   55.2222 N   0  0  0  0  0  0  0  0  0  0  0  0
   68.3679   46.3279   55.1858 C   0  0  0  0  0  0  0  0  0  0  0  0
   67.6814   46.8426   56.1069 O   0  0  0  0  0  0  0  0  0  0  0  0
   68.8752   47.1664   54.0920 C   0  0  0  0  0  0  0  0  0  0  0  0
   69.6170   48.2779   54.3518 C   0  0  0  0  0  0  0  0  0  0  0  0
   70.1149   49.0953   53.3331 C   0  0  0  0  0  0  0  0  0  0  0  0
   69.8520   48.7725   52.0207 C   0  0  0  0  0  0  0  0  0  0  0  0
   69.1001   47.6468   51.7438 C   0  0  0  0  0  0  0  0  0  0  0  0
   68.6106   46.8425   52.7803 C   0  0  0  0  0  0  0  0  0  0  0  0
   67.6668   45.4293   52.4356 Cl  0  0  0  0  0  0  0  0  0  0  0  0
  1  2  1  0
  2 18  1  0
  2  3  2  0
 18 19  1  0
 19 20  1  0
 20 21  2  0
 20 22  1  0
 22 23  2  0
 22 27  1  0
 23 24  1  0
 24 25  2  0
 25 26  1  0
 26 27  2  0
 27 28  1  0
  3  4  1  0
  3 10  1  0
  4  5  2  0
  4  6  1  0
  6  7  1  0
  7  8  2  0
  7  9  1  0
  9 12  1  0
  9 10  1  0
 12 13  1  0
 12 17  1  0
 13 14  1  0
 14 15  1  0
 15 16  1  0
 16 17  1  0
 10 11  2  0
M  END
>  <minimizedAffinity>  (287) 
-8.76812

$$$$
data/reference_output_2/data/smiles/144063.pdb
     RDKit          3D

 30 33  0  0  0  0  0  0  0  0999 V2000
   71.7799   42.3159   58.0579 N   0  0  0  0  0  0  0  0  0  0  0  0
   71.2671   43.5091   57.7288 C   0  0  0  0  0  0  0  0  0  0  0  0
   69.9085   43.7209   57.4286 C   0  0  0  0  0  0  0  0  0  0  0  0
   69.1379   42.5950   57.5005 C   0  0  0  0  0  0  0  0  0  0  0  0
   67.9223   42.6511   57.2577 O   0  0  0  0  0  0  0  0  0  0  0  0
   69.6699   41.3425   57.8448 C   0  0  0  0  0  0  0  0  0  0  0  0
   68.8598   40.2271   57.9077 C   0  0  0  0  0  0  0  0  0  0  0  0
   67.5404   40.3540   57.6316 F   0  0  0  0  0  0  0  0  0  0  0  0
   69.3637   38.9886   58.2449 C   0  0  0  0  0  0  0  0  0  0  0  0
   70.7120   38.8345   58.5326 C   0  0  0  0  0  0  0  0  0  0  0  0
   71.5063   39.9574   58.4647 C   0  0  0  0  0  0  0  0  0  0  0  0
   71.0119   41.2146   58.1255 C   0  0  0  0  0  0  0  0  0  0  0  0
   71.2377   37.5581   58.8828 N   0  0  0  0  0  0  0  0  0  0  0  0
   72.2197   36.9596   57.9650 C   0  0  0  0  0  0  0  0  0  0  0  0
   72.5468   35.5491   58.3689 C   0  0  0  0  0  0  0  0  0  0  0  0
   71.3078   34.9499   58.6942 O   0  0  0  0  0  0  0  0  0  0  0  0
   71.0123   35.3638   59.9909 C   0  0  0  0  0  0  0  0  0  0  0  0
   70.8400   36.8622   60.0748 C   0  0  0  0  0  0  0  0  0  0  0  0
   69.4696   45.0597   57.0884 C   0  0  0  0  0  0  0  0  0  0  0  0
   69.8151   46.0500   57.8352 O   0  0  0  0  0  0  0  0  0  0  0  0
   68.6778   45.3916   55.9865 N   0  0  0  0  0  0  0  0  0  0  0  0
   68.2459   46.7724   55.6769 C   0  0  0  0  0  0  0  0  0  0  0  0
   68.7478   47.1889   54.3419 C   0  0  0  0  0  0  0  0  0  0  0  0
   68.5416   46.4845   53.1801 C   0  0  0  0  0  0  0  0  0  0  0  0
   69.0494   46.9205   51.9492 C   0  0  0  0  0  0  0  0  0  0  0  0
   69.7791   48.0780   51.8536 C   0  0  0  0  0  0  0  0  0  0  0  0
   69.9966   48.7954   53.0005 C   0  0  0  0  0  0  0  0  0  0  0  0
   69.4985   48.3673   54.2077 C   0  0  0  0  0  0  0  0  0  0  0  0
   73.9661   43.4329   57.8866 C   0  0  0  0  0  0  0  0  0  0  0  0
   73.2053   42.2229   58.3530 C   0  0  0  0  0  0  0  0  0  0  0  0
 29 30  1  0
 30  1  1  0
  1  2  1  0
  1 12  1  0
  2  3  2  0
  3 19  1  0
  3  4  1  0
 19 20  2  0
 19 21  1  0
 21 22  1  0
 22 23  1  0
 23 24  2  0
 23 28  1  0
 24 25  1  0
 25 26  2  0
 26 27  1  0
 27 28  2  0
  4  5  2  0
  4  6  1  0
  6  7  1  0
  6 12  2  0
  7  8  1  0
  7  9  2  0
  9 10  1  0
 10 13  1  0
 10 11  2  0
 13 14  1  0
 13 18  1  0
 14 15  1  0
 15 16  1  0
 16 17  1  0
 17 18  1  0
 11 12  1  0
M  END
>  <minimizedAffinity>  (288) 
-8.76551

$$$$
data/reference_output_2/data/smiles/109179.pdb
     RDKit          3D

 29 32  0  0  0  0  0  0  0  0999 V2000
   72.0222   43.2153   58.6336 C   0  0  0  0  0  0  0  0  0  0  0  0
   70.7703   42.9276   57.8976 C   0  0  0  0  0  0  0  0  0  0  0  0
   70.0565   43.7335   57.1114 N   0  0  0  0  0  0  0  0  0  0  0  0
   68.9850   43.0593   56.6428 C   0  0  0  0  0  0  0  0  0  0  0  0
   67.9517   43.5125   55.7886 C   0  0  0  0  0  0  0  0  0  0  0  0
   66.9475   42.6078   55.4704 C   0  0  0  0  0  0  0  0  0  0  0  0
   67.0308   41.3684   55.9979 C   0  0  0  0  0  0  0  0  0  0  0  0
   68.0558   40.9488   56.8338 C   0  0  0  0  0  0  0  0  0  0  0  0
   69.0526   41.8245   57.1550 N   0  0  0  0  0  0  0  0  0  0  0  0
   70.1321   41.6682   57.9415 C   0  0  0  0  0  0  0  0  0  0  0  0
   70.6011   40.5480   58.7164 C   0  0  0  0  0  0  0  0  0  0  0  0
   70.2163   40.4965   59.9508 O   0  0  0  0  0  0  0  0  0  0  0  0
   71.4267   39.4852   58.3487 N   0  0  0  0  0  0  0  0  0  0  0  0
   71.8167   38.4058   59.2428 C   0  0  1  0  0  0  0  0  0  0  0  0
   71.4257   37.0600   58.7428 C   0  0  0  0  0  0  0  0  0  0  0  0
   72.4622   36.6011   57.7167 C   0  0  0  0  0  0  0  0  0  0  0  0
   73.8028   36.3772   58.3927 C   0  0  0  0  0  0  0  0  0  0  0  0
   73.9070   37.1631   59.6113 N   0  0  0  0  0  0  0  0  0  0  0  0
   73.3209   38.4607   59.3569 C   0  0  0  0  0  0  0  0  0  0  0  0
   68.0149   44.7406   55.3621 O   0  0  0  0  0  0  0  0  0  0  0  0
   68.2624   46.0285   55.3888 C   0  0  0  0  0  0  0  0  0  0  0  0
   68.6803   46.7618   54.1913 C   0  0  0  0  0  0  0  0  0  0  0  0
   68.3873   46.2858   52.9409 C   0  0  0  0  0  0  0  0  0  0  0  0
   67.6655   45.1598   52.7262 F   0  0  0  0  0  0  0  0  0  0  0  0
   68.7952   46.9469   51.7868 C   0  0  0  0  0  0  0  0  0  0  0  0
   69.5092   48.1070   51.8954 C   0  0  0  0  0  0  0  0  0  0  0  0
   69.8080   48.5949   53.1471 C   0  0  0  0  0  0  0  0  0  0  0  0
   69.3987   47.9293   54.2911 C   0  0  0  0  0  0  0  0  0  0  0  0
   69.7339   48.4772   55.4967 F   0  0  0  0  0  0  0  0  0  0  0  0
  1  2  1  0
  2  3  1  0
  2 10  2  0
  3  4  2  0
  4  5  1  0
  4  9  1  0
  5 20  1  0
  5  6  2  0
 20 21  1  0
 21 22  1  0
 22 23  2  0
 22 28  1  0
 23 24  1  0
 23 25  1  0
 25 26  2  0
 26 27  1  0
 27 28  2  0
 28 29  1  0
  6  7  1  0
  7  8  2  0
  8  9  1  0
  9 10  1  0
 10 11  1  0
 11 12  2  0
 11 13  1  0
 14 13  1  6
 14 15  1  0
 14 19  1  0
 15 16  1  0
 16 17  1  0
 17 18  1  0
 18 19  1  0
M  CHG  1  18   1
M  END
>  <minimizedAffinity>  (289) 
-8.75953

$$$$
data/reference_output_2/data/smiles/130690.pdb
     RDKit          3D

 33 37  0  0  0  0  0  0  0  0999 V2000
   68.1883   41.5023   56.7615 C   0  0  0  0  0  0  0  0  0  0  0  0
   69.1111   42.4551   57.2571 C   0  0  0  0  0  0  0  0  0  0  0  0
   69.1509   43.7534   56.8193 C   0  0  0  0  0  0  0  0  0  0  0  0
   68.2662   44.2037   55.8491 C   0  0  0  0  0  0  0  0  0  0  0  0
   67.3674   43.2855   55.3798 C   0  0  0  0  0  0  0  0  0  0  0  0
   67.3140   41.9460   55.8185 C   0  0  0  0  0  0  0  0  0  0  0  0
   66.3637   41.1066   55.3370 F   0  0  0  0  0  0  0  0  0  0  0  0
   68.3868   45.5536   55.2905 C   0  0  0  0  0  0  0  0  0  0  0  0
   68.8057   46.5964   56.1283 C   0  0  0  0  0  0  0  0  0  0  0  0
   69.2145   47.8166   55.5793 C   0  0  0  0  0  0  0  0  0  0  0  0
   69.2375   48.0601   54.2172 C   0  0  0  0  0  0  0  0  0  0  0  0
   68.8096   47.0080   53.4138 C   0  0  0  0  0  0  0  0  0  0  0  0
   68.3994   45.8022   53.9302 C   0  0  0  0  0  0  0  0  0  0  0  0
   68.7833   47.2956   51.9471 C   0  0  0  0  0  0  0  0  0  0  0  0
   70.1671   47.9542   51.6418 C   0  0  0  0  0  0  0  0  0  0  0  0
   70.0993   49.2781   52.2538 N   0  0  0  0  0  0  0  0  0  0  0  0
   69.8946   49.2374   53.6701 C   0  0  0  0  0  0  0  0  0  0  0  0
   70.2495   50.1481   54.4228 O   0  0  0  0  0  0  0  0  0  0  0  0
   68.3627   40.1148   57.2384 C   0  0  0  0  0  0  0  0  0  0  0  0
   69.2419   40.0309   58.4982 C   0  0  2  0  0  0  0  0  0  0  0  0
   69.9220   38.7215   58.4246 N   0  0  0  0  0  0  0  0  0  0  0  0
   71.3273   38.6098   58.4337 C   0  0  0  0  0  0  0  0  0  0  0  0
   72.0218   39.6159   58.4909 O   0  0  0  0  0  0  0  0  0  0  0  0
   71.9420   37.2445   58.3752 C   0  0  1  0  0  0  0  0  0  0  0  0
   73.3060   37.4611   59.0905 C   0  0  0  0  0  0  0  0  0  0  0  0
   74.2388   36.3154   58.9117 C   0  0  0  0  0  0  0  0  0  0  0  0
   73.3547   35.1521   58.3965 C   0  0  1  0  0  0  0  0  0  0  0  0
   72.1808   35.0280   59.3285 C   0  0  0  0  0  0  0  0  0  0  0  0
   71.1848   36.1640   59.0366 C   0  0  0  0  0  0  0  0  0  0  0  0
   72.8995   35.5533   57.0022 C   0  0  0  0  0  0  0  0  0  0  0  0
   72.3028   36.8727   57.0434 N   0  0  0  0  0  0  0  0  0  0  0  0
   67.6827   39.6915   60.5619 N   0  0  0  0  0  0  0  0  0  0  0  0
   68.3538   39.8348   59.6928 C   0  0  0  0  0  0  0  0  0  0  0  0
 32 33  3  0
 20 33  1  1
 20 19  1  0
 20 21  1  0
 19  1  1  0
  1  2  2  0
  1  6  1  0
  2  3  1  0
  3  4  2  0
  4  8  1  0
  4  5  1  0
  8  9  2  0
  8 13  1  0
  9 10  1  0
 10 11  2  0
 11 12  1  0
 11 17  1  0
 12 13  2  0
 12 14  1  0
 14 15  1  0
 15 16  1  0
 16 17  1  0
 17 18  2  0
  5  6  2  0
  6  7  1  0
 21 22  1  0
 22 23  2  0
 24 22  1  6
 24 25  1  0
 24 29  1  0
 24 31  1  0
 25 26  1  0
 27 26  1  1
 27 28  1  0
 27 30  1  0
 28 29  1  0
 30 31  1  0
M  CHG  1  31   1
M  END
>  <minimizedAffinity>  (290) 
-8.75759

$$$$
data/200k_reference_output/data/smiles/13118.pdb
     RDKit          3D

 31 34  0  0  0  0  0  0  0  0999 V2000
   72.7620   48.6267   57.6282 C   0  0  0  0  0  0  0  0  0  0  0  0
   71.4453   48.7925   57.1636 C   0  0  0  0  0  0  0  0  0  0  0  0
   70.3892   48.0338   57.5272 C   0  0  0  0  0  0  0  0  0  0  0  0
   70.6211   46.9946   58.4438 C   0  0  0  0  0  0  0  0  0  0  0  0
   71.8920   46.7955   58.9236 C   0  0  0  0  0  0  0  0  0  0  0  0
   72.9490   47.6057   58.5177 C   0  0  0  0  0  0  0  0  0  0  0  0
   74.1470   47.2960   59.0471 F   0  0  0  0  0  0  0  0  0  0  0  0
   74.0049   50.6089   57.8147 O   0  0  0  0  0  0  0  0  0  0  0  0
   73.7986   49.5230   57.1815 C   0  0  0  0  0  0  0  0  0  0  0  0
   74.6557   49.2938   56.0453 N   0  0  0  0  0  0  0  0  0  0  0  0
   75.6519   50.2729   55.7045 C   0  0  0  0  0  0  0  0  0  0  0  0
   77.0229   49.8871   55.8434 C   0  0  0  0  0  0  0  0  0  0  0  0
   77.5220   49.3359   54.7437 O   0  0  0  0  0  0  0  0  0  0  0  0
   77.9368   49.9682   56.8835 N   0  0  0  0  0  0  0  0  0  0  0  0
   77.7877   50.4952   58.2119 C   0  0  0  0  0  0  0  0  0  0  0  0
   79.1292   50.4347   58.9737 C   0  0  0  0  0  0  0  0  0  0  0  0
   79.6804   49.0384   59.0315 C   0  0  0  0  0  0  0  0  0  0  0  0
   79.5371   48.3544   57.6783 C   0  0  0  0  0  0  0  0  0  0  0  0
   79.3268   49.4358   56.6390 C   0  0  0  0  0  0  0  0  0  0  0  0
   68.9916   48.2257   57.0256 C   0  0  0  0  0  0  0  0  0  0  0  0
   68.6651   47.3572   55.8708 C   0  0  0  0  0  0  0  0  0  0  0  0
   68.1732   46.1092   56.0739 N   0  0  0  0  0  0  0  0  0  0  0  0
   67.8794   45.2866   55.0752 N   0  0  0  0  0  0  0  0  0  0  0  0
   68.0632   45.6677   53.7816 C   0  0  0  0  0  0  0  0  0  0  0  0
   67.7837   44.8829   52.8462 O   0  0  0  0  0  0  0  0  0  0  0  0
   68.5578   46.9191   53.5344 C   0  0  0  0  0  0  0  0  0  0  0  0
   68.8629   47.7781   54.5780 C   0  0  0  0  0  0  0  0  0  0  0  0
   69.3461   49.0749   54.2727 N   0  0  0  0  0  0  0  0  0  0  0  0
   70.1436   49.3326   53.1060 C   0  0  0  0  0  0  0  0  0  0  0  0
   70.1167   48.1790   52.1544 C   0  0  0  0  0  0  0  0  0  0  0  0
   68.7976   47.4228   52.1525 C   0  0  0  0  0  0  0  0  0  0  0  0
  8  9  2  0
  9 10  1  0
  9  1  1  0
 10 11  1  0
 11 12  1  0
 12 13  2  0
 12 14  1  0
 14 15  1  0
 14 19  1  0
 15 16  1  0
 16 17  1  0
 17 18  1  0
 18 19  1  0
  1  2  2  0
  1  6  1  0
  2  3  1  0
  3 20  1  0
  3  4  2  0
 20 21  1  0
 21 22  2  0
 21 27  1  0
 22 23  1  0
 23 24  1  0
 24 25  2  0
 24 26  1  0
 26 27  2  0
 26 31  1  0
 27 28  1  0
 28 29  1  0
 29 30  1  0
 30 31  1  0
  4  5  1  0
  5  6  2  0
  6  7  1  0
M  END
>  <minimizedAffinity>  (291) 
-8.75564

$$$$
data/reference_output_2/data/smiles/87925.pdb
     RDKit          3D

 32 35  0  0  0  0  0  0  0  0999 V2000
   71.9570   44.6632   59.8965 O   0  0  0  0  0  0  0  0  0  0  0  0
   71.7970   44.9068   58.6642 C   0  0  0  0  0  0  0  0  0  0  0  0
   72.1732   43.8806   57.7806 N   0  0  0  0  0  0  0  0  0  0  0  0
   71.2510   46.1953   58.2992 C   0  0  0  0  0  0  0  0  0  0  0  0
   71.9228   47.3709   58.6104 C   0  0  0  0  0  0  0  0  0  0  0  0
   71.4535   48.5800   58.2919 N   0  0  0  0  0  0  0  0  0  0  0  0
   70.2805   48.6838   57.6408 C   0  0  0  0  0  0  0  0  0  0  0  0
   69.5748   47.5916   57.3060 N   0  0  0  0  0  0  0  0  0  0  0  0
   70.0573   46.3699   57.6339 C   0  0  0  0  0  0  0  0  0  0  0  0
   69.3537   45.4073   57.2936 O   0  0  0  0  0  0  0  0  0  0  0  0
   68.3143   47.7088   56.6132 C   0  0  0  0  0  0  0  0  0  0  0  0
   68.5701   47.5293   55.1642 C   0  0  0  0  0  0  0  0  0  0  0  0
   69.3555   48.3286   54.3846 C   0  0  0  0  0  0  0  0  0  0  0  0
   69.5691   48.1264   53.0483 C   0  0  0  0  0  0  0  0  0  0  0  0
   68.9675   47.0598   52.4273 C   0  0  0  0  0  0  0  0  0  0  0  0
   69.1750   46.8543   51.1063 F   0  0  0  0  0  0  0  0  0  0  0  0
   68.1510   46.2057   53.1790 C   0  0  0  0  0  0  0  0  0  0  0  0
   67.5693   45.1617   52.5491 F   0  0  0  0  0  0  0  0  0  0  0  0
   67.9621   46.4450   54.5231 C   0  0  0  0  0  0  0  0  0  0  0  0
   72.7179   42.6097   58.2647 C   0  0  0  0  0  0  0  0  0  0  0  0
   74.1894   42.7231   58.3139 C   0  0  0  0  0  0  0  0  0  0  0  0
   75.3945   42.8293   58.3395 C   0  0  0  0  0  0  0  0  0  0  0  0
   76.8343   42.9604   58.3528 C   0  0  0  0  0  0  0  0  0  0  0  0
   77.4635   43.8833   59.1430 C   0  0  0  0  0  0  0  0  0  0  0  0
   78.8538   44.0232   59.1686 C   0  0  0  0  0  0  0  0  0  0  0  0
   79.6084   43.1877   58.3561 C   0  0  0  0  0  0  0  0  0  0  0  0
   80.9651   43.3150   58.3732 N   0  0  0  0  0  0  0  0  0  0  0  0
   81.6813   42.4997   57.5816 C   0  0  0  0  0  0  0  0  0  0  0  0
   81.1233   41.5459   56.7573 C   0  0  0  0  0  0  0  0  0  0  0  0
   79.7470   41.4152   56.7394 C   0  0  0  0  0  0  0  0  0  0  0  0
   79.0019   42.2481   57.5496 C   0  0  0  0  0  0  0  0  0  0  0  0
   77.6099   42.1461   57.5584 C   0  0  0  0  0  0  0  0  0  0  0  0
  1  2  2  0
  2  3  1  0
  2  4  1  0
  3 20  1  0
 20 21  1  0
 21 22  3  0
 22 23  1  0
 23 24  2  0
 23 32  1  0
 24 25  1  0
 25 26  2  0
 26 27  1  0
 26 31  1  0
 27 28  2  0
 28 29  1  0
 29 30  2  0
 30 31  1  0
 31 32  2  0
  4  5  2  0
  4  9  1  0
  5  6  1  0
  6  7  2  0
  7  8  1  0
  8 11  1  0
  8  9  1  0
 11 12  1  0
 12 13  2  0
 12 19  1  0
 13 14  1  0
 14 15  2  0
 15 16  1  0
 15 17  1  0
 17 18  1  0
 17 19  2  0
  9 10  2  0
M  END
>  <minimizedAffinity>  (292) 
-8.75445

$$$$
data/reference_output_2/data/smiles/131168.pdb
     RDKit          3D

 31 34  0  0  0  0  0  0  0  0999 V2000
   70.5057   48.1362   57.7294 C   0  0  0  0  0  0  0  0  0  0  0  0
   71.2676   49.1362   57.8016 O   0  0  0  0  0  0  0  0  0  0  0  0
   70.8864   46.8393   58.1552 N   0  0  0  0  0  0  0  0  0  0  0  0
   70.0441   45.7324   58.0650 N   0  0  0  0  0  0  0  0  0  0  0  0
   70.8787   44.5605   58.2132 C   0  0  0  0  0  0  0  0  0  0  0  0
   72.0772   44.9817   58.9967 C   0  0  0  0  0  0  0  0  0  0  0  0
   72.1331   46.4766   58.7345 C   0  0  2  0  0  0  0  0  0  0  0  0
   72.3756   47.1207   60.0584 C   0  0  0  0  0  0  0  0  0  0  0  0
   71.3787   47.1119   60.8219 O   0  0  0  0  0  0  0  0  0  0  0  0
   73.5709   47.6899   60.4595 N   0  0  0  0  0  0  0  0  0  0  0  0
   73.7442   48.3037   61.7520 C   0  0  0  0  0  0  0  0  0  0  0  0
   74.6877   47.5233   62.5944 C   0  0  0  0  0  0  0  0  0  0  0  0
   75.9832   48.0368   62.7775 C   0  0  0  0  0  0  0  0  0  0  0  0
   76.8934   47.3715   63.5345 C   0  0  0  0  0  0  0  0  0  0  0  0
   76.5712   46.1854   64.1380 C   0  0  0  0  0  0  0  0  0  0  0  0
   75.2938   45.6529   63.9736 C   0  0  0  0  0  0  0  0  0  0  0  0
   74.9209   44.1466   64.7571 Cl  0  0  0  0  0  0  0  0  0  0  0  0
   74.3560   46.3345   63.1959 C   0  0  0  0  0  0  0  0  0  0  0  0
   69.1523   48.4033   57.1598 C   0  0  0  0  0  0  0  0  0  0  0  0
   69.7048   49.6405   51.1683 N   0  0  0  0  0  0  0  0  0  0  0  0
   69.8455   50.0240   52.5067 C   0  0  0  0  0  0  0  0  0  0  0  0
   70.3120   51.1642   52.7758 O   0  0  0  0  0  0  0  0  0  0  0  0
   69.4881   49.1894   53.6339 N   0  0  0  0  0  0  0  0  0  0  0  0
   69.6090   49.5204   54.9211 C   0  0  0  0  0  0  0  0  0  0  0  0
   69.1701   48.4660   55.6795 C   0  0  0  0  0  0  0  0  0  0  0  0
   68.7795   47.4849   54.8095 C   0  0  0  0  0  0  0  0  0  0  0  0
   68.2481   46.2042   54.9704 C   0  0  0  0  0  0  0  0  0  0  0  0
   67.9409   45.4331   53.8721 C   0  0  0  0  0  0  0  0  0  0  0  0
   68.1349   45.8725   52.5812 C   0  0  0  0  0  0  0  0  0  0  0  0
   68.6605   47.1417   52.4323 C   0  0  0  0  0  0  0  0  0  0  0  0
   68.9788   47.9382   53.5112 C   0  0  0  0  0  0  0  0  0  0  0  0
 20 21  1  0
 21 22  2  0
 21 23  1  0
 23 24  1  0
 23 31  1  0
 24 25  2  0
 25 19  1  0
 25 26  1  0
 19  1  1  0
  1  2  2  0
  1  3  1  0
  3  4  1  0
  3  7  1  0
  4  5  1  0
  5  6  1  0
  6  7  1  0
  7  8  1  1
  8  9  2  0
  8 10  1  0
 10 11  1  0
 11 12  1  0
 12 13  2  0
 12 18  1  0
 13 14  1  0
 14 15  2  0
 15 16  1  0
 16 17  1  0
 16 18  2  0
 26 27  1  0
 26 31  2  0
 27 28  2  0
 28 29  1  0
 29 30  2  0
 30 31  1  0
M  END
>  <minimizedAffinity>  (293) 
-8.75374

$$$$
data/reference_output_2/data/smiles/104172.pdb
     RDKit          3D

 28 30  0  0  0  0  0  0  0  0999 V2000
   68.5329   46.4284   54.1171 C   0  0  0  0  0  0  0  0  0  0  0  0
   68.1508   46.2590   52.7587 C   0  0  0  0  0  0  0  0  0  0  0  0
   68.5494   47.1306   51.8060 C   0  0  0  0  0  0  0  0  0  0  0  0
   69.3483   48.2229   52.1218 C   0  0  0  0  0  0  0  0  0  0  0  0
   69.7442   48.4292   53.4220 C   0  0  0  0  0  0  0  0  0  0  0  0
   69.3220   47.5229   54.3730 C   0  0  0  0  0  0  0  0  0  0  0  0
   70.5938   49.5784   53.7938 C   0  0  0  0  0  0  0  0  0  0  0  0
   71.7795   49.6027   53.4126 O   0  0  0  0  0  0  0  0  0  0  0  0
   70.0776   50.6358   54.5684 N   0  0  0  0  0  0  0  0  0  0  0  0
   68.7166   50.6909   55.0498 C   0  0  0  0  0  0  0  0  0  0  0  0
   68.5189   52.1572   55.3341 C   0  0  2  0  0  0  0  0  0  0  0  0
   68.3172   52.8927   54.1705 O   0  0  0  0  0  0  0  0  0  0  0  0
   69.8537   52.5352   55.9546 C   0  0  2  0  0  0  0  0  0  0  0  0
   70.0482   53.8857   55.9685 F   0  0  0  0  0  0  0  0  0  0  0  0
   70.8004   51.8121   55.0071 C   0  0  0  0  0  0  0  0  0  0  0  0
   68.1394   45.5775   55.0266 O   0  0  0  0  0  0  0  0  0  0  0  0
   68.2114   42.3103   56.7261 C   0  0  0  0  0  0  0  0  0  0  0  0
   67.8386   43.3210   55.8317 C   0  0  0  0  0  0  0  0  0  0  0  0
   68.4059   44.5759   55.8071 C   0  0  0  0  0  0  0  0  0  0  0  0
   69.4052   44.7890   56.7537 N   0  0  0  0  0  0  0  0  0  0  0  0
   69.7954   43.8752   57.6189 C   0  0  0  0  0  0  0  0  0  0  0  0
   69.2088   42.6237   57.6222 C   0  0  0  0  0  0  0  0  0  0  0  0
   70.8862   44.2230   58.5954 C   0  0  0  0  0  0  0  0  0  0  0  0
   70.7697   43.4978   59.7545 F   0  0  0  0  0  0  0  0  0  0  0  0
   70.7960   45.5796   58.8140 F   0  0  0  0  0  0  0  0  0  0  0  0
   72.0794   43.9842   57.9328 F   0  0  0  0  0  0  0  0  0  0  0  0
   67.6213   40.3556   55.4071 N   0  0  0  0  0  0  0  0  0  0  0  0
   67.5513   40.9965   56.6813 C   0  0  0  0  0  0  0  0  0  0  0  0
 27 28  1  0
 28 17  1  0
 17 18  2  0
 17 22  1  0
 18 19  1  0
 19 16  1  0
 19 20  2  0
 16  1  1  0
  1  2  2  0
  1  6  1  0
  2  3  1  0
  3  4  2  0
  4  5  1  0
  5  7  1  0
  5  6  2  0
  7  8  2  0
  7  9  1  0
  9 10  1  0
  9 15  1  0
 10 11  1  0
 11 12  1  6
 11 13  1  0
 13 14  1  6
 13 15  1  0
 20 21  1  0
 21 23  1  0
 21 22  2  0
 23 24  1  0
 23 25  1  0
 23 26  1  0
M  CHG  1  27   1
M  END
>  <minimizedAffinity>  (294) 
-8.75293

$$$$
data/reference_output_2/data/smiles/132390.pdb
     RDKit          3D

 30 33  0  0  0  0  0  0  0  0999 V2000
   69.8059   50.1388   56.3213 N   0  0  0  0  0  0  0  0  0  0  0  0
   68.8103   50.7823   57.1245 C   0  0  0  0  0  0  0  0  0  0  0  0
   69.4182   50.8045   58.5238 C   0  0  0  0  0  0  0  0  0  0  0  0
   70.8586   50.6283   58.4132 C   0  0  2  0  0  0  0  0  0  0  0  0
   71.0777   50.4410   56.9103 C   0  0  0  0  0  0  0  0  0  0  0  0
   69.1031   47.8487   52.8918 C   0  0  0  0  0  0  0  0  0  0  0  0
   69.4810   49.1594   52.7950 C   0  0  0  0  0  0  0  0  0  0  0  0
   69.7261   49.9360   53.8890 C   0  0  0  0  0  0  0  0  0  0  0  0
   69.5842   49.3686   55.1647 C   0  0  0  0  0  0  0  0  0  0  0  0
   69.2011   48.0347   55.3195 C   0  0  0  0  0  0  0  0  0  0  0  0
   69.0596   47.4434   56.5592 C   0  0  0  0  0  0  0  0  0  0  0  0
   68.6916   46.1520   56.6505 N   0  0  0  0  0  0  0  0  0  0  0  0
   68.4712   45.4634   55.5268 C   0  0  0  0  0  0  0  0  0  0  0  0
   68.5988   46.0005   54.3050 N   0  0  0  0  0  0  0  0  0  0  0  0
   68.9674   47.2990   54.1598 C   0  0  0  0  0  0  0  0  0  0  0  0
   67.6099   46.3177   51.5684 N   0  0  0  0  0  0  0  0  0  0  0  0
   68.8382   47.0071   51.7319 C   0  0  0  0  0  0  0  0  0  0  0  0
   69.7029   46.8640   50.8312 O   0  0  0  0  0  0  0  0  0  0  0  0
   71.6426   49.6665   59.1919 C   0  0  0  0  0  0  0  0  0  0  0  0
   71.9197   48.3507   58.7833 N   0  0  0  0  0  0  0  0  0  0  0  0
   71.8876   47.1270   59.4739 C   0  0  0  0  0  0  0  0  0  0  0  0
   71.5838   47.1025   60.6911 O   0  0  0  0  0  0  0  0  0  0  0  0
   72.1947   45.8488   58.8407 C   0  0  0  0  0  0  0  0  0  0  0  0
   73.5258   45.4959   58.6028 C   0  0  0  0  0  0  0  0  0  0  0  0
   73.9217   44.3337   58.0217 C   0  0  0  0  0  0  0  0  0  0  0  0
   72.9640   43.4363   57.6379 C   0  0  0  0  0  0  0  0  0  0  0  0
   73.3716   42.2778   57.0585 F   0  0  0  0  0  0  0  0  0  0  0  0
   71.6327   43.7197   57.8436 C   0  0  0  0  0  0  0  0  0  0  0  0
   70.6757   42.8303   57.4639 F   0  0  0  0  0  0  0  0  0  0  0  0
   71.2656   44.9317   58.4461 C   0  0  0  0  0  0  0  0  0  0  0  0
 16 17  1  0
 17 18  2  0
 17  6  1  0
  6  7  2  0
  6 15  1  0
  7  8  1  0
  8  9  2  0
  9  1  1  0
  9 10  1  0
  1  2  1  0
  1  5  1  0
  2  3  1  0
  3  4  1  0
  4 19  1  1
  4  5  1  0
 19 20  1  0
 20 21  1  0
 21 22  2  0
 21 23  1  0
 23 24  2  0
 23 30  1  0
 24 25  1  0
 25 26  2  0
 26 27  1  0
 26 28  1  0
 28 29  1  0
 28 30  2  0
 10 11  1  0
 10 15  2  0
 11 12  2  0
 12 13  1  0
 13 14  2  0
 14 15  1  0
M  END
>  <minimizedAffinity>  (295) 
-8.75086

$$$$
data/reference_output_2/data/smiles/166253.pdb
     RDKit          3D

 28 31  0  0  0  0  0  0  0  0999 V2000
   70.3300   47.5764   56.7163 O   0  0  0  0  0  0  0  0  0  0  0  0
   68.8502   48.0754   56.0496 P   0  0  0  0  0  0  0  0  0  0  0  0
   67.7386   47.4921   56.8909 O   0  0  0  0  0  0  0  0  0  0  0  0
   68.7041   47.4594   54.3818 C   0  0  0  0  0  0  0  0  0  0  0  0
   67.8383   46.4486   54.0488 C   0  0  0  0  0  0  0  0  0  0  0  0
   67.7697   46.0093   52.7236 C   0  0  0  0  0  0  0  0  0  0  0  0
   68.5523   46.5693   51.7444 C   0  0  0  0  0  0  0  0  0  0  0  0
   69.4180   47.5832   52.0922 C   0  0  0  0  0  0  0  0  0  0  0  0
   69.4808   48.0096   53.3904 C   0  0  0  0  0  0  0  0  0  0  0  0
   68.7963   49.8394   55.9966 C   0  0  0  0  0  0  0  0  0  0  0  0
   68.5234   50.5851   57.1225 C   0  0  0  0  0  0  0  0  0  0  0  0
   68.4825   51.9796   57.0717 C   0  0  0  0  0  0  0  0  0  0  0  0
   68.7147   52.6456   55.8882 C   0  0  0  0  0  0  0  0  0  0  0  0
   68.9887   51.9058   54.7557 C   0  0  0  0  0  0  0  0  0  0  0  0
   69.0263   50.5202   54.8191 C   0  0  0  0  0  0  0  0  0  0  0  0
   70.0787   47.1447   57.9987 C   0  0  0  0  0  0  0  0  0  0  0  0
   69.1897   44.5318   56.9018 O   0  0  0  0  0  0  0  0  0  0  0  0
   70.2091   44.5801   57.6748 C   0  0  0  0  0  0  0  0  0  0  0  0
   70.9977   43.4508   58.0806 C   0  0  0  0  0  0  0  0  0  0  0  0
   70.8220   42.1123   57.7283 C   0  0  0  0  0  0  0  0  0  0  0  0
   71.6586   41.1231   58.1931 C   0  0  0  0  0  0  0  0  0  0  0  0
   72.7129   41.4306   59.0338 C   0  0  0  0  0  0  0  0  0  0  0  0
   72.8640   42.7627   59.3653 C   0  0  0  0  0  0  0  0  0  0  0  0
   72.0308   43.7444   58.9034 C   0  0  0  0  0  0  0  0  0  0  0  0
   72.0060   45.4745   59.1689 S   0  0  0  0  0  0  0  0  0  0  0  0
   71.7432   45.8016   60.6096 O   0  0  0  0  0  0  0  0  0  0  0  0
   73.2372   46.1351   58.6423 O   0  0  0  0  0  0  0  0  0  0  0  0
   70.6247   45.8179   58.1892 N   0  0  0  0  0  0  0  0  0  0  0  0
 17 18  2  0
 18 19  1  0
 18 28  1  0
 19 20  2  0
 19 24  1  0
 20 21  1  0
 21 22  2  0
 22 23  1  0
 23 24  2  0
 24 25  1  0
 25 26  2  0
 25 27  2  0
 25 28  1  0
 28 16  1  0
 16  1  1  0
  1  2  1  0
  2  3  2  0
  2  4  1  0
  2 10  1  0
  4  5  2  0
  4  9  1  0
  5  6  1  0
  6  7  2  0
  7  8  1  0
  8  9  2  0
 10 11  2  0
 10 15  1  0
 11 12  1  0
 12 13  2  0
 13 14  1  0
 14 15  2  0
M  END
>  <minimizedAffinity>  (296) 
-8.74964

$$$$
data/reference_output_2/data/smiles/116865.pdb
     RDKit          3D

 33 37  0  0  0  0  0  0  0  0999 V2000
   70.4731   34.5330   61.3549 O   0  0  0  0  0  0  0  0  0  0  0  0
   71.0926   34.6887   60.3166 C   0  0  0  0  0  0  0  0  0  0  0  0
   71.9630   33.6767   59.8255 N   0  0  0  0  0  0  0  0  0  0  0  0
   72.5490   34.1152   58.6138 C   0  0  0  0  0  0  0  0  0  0  0  0
   73.4474   33.4981   57.7725 C   0  0  0  0  0  0  0  0  0  0  0  0
   73.9140   34.0861   56.6188 C   0  0  0  0  0  0  0  0  0  0  0  0
   73.4403   35.3473   56.3276 C   0  0  0  0  0  0  0  0  0  0  0  0
   72.5248   36.0120   57.1564 C   0  0  0  0  0  0  0  0  0  0  0  0
   72.0912   35.3964   58.2817 C   0  0  0  0  0  0  0  0  0  0  0  0
   71.1583   35.7784   59.3612 C   0  0  0  0  0  0  0  0  0  0  0  0
   70.4848   36.9445   59.4375 C   0  0  0  0  0  0  0  0  0  0  0  0
   70.5924   37.9138   58.5146 N   0  0  0  0  0  0  0  0  0  0  0  0
   69.9121   39.0698   58.6114 C   0  0  0  0  0  0  0  0  0  0  0  0
   70.0226   39.9822   57.7300 O   0  0  0  0  0  0  0  0  0  0  0  0
   69.0739   39.2863   59.6810 C   0  0  0  0  0  0  0  0  0  0  0  0
   68.4073   40.4385   59.7577 C   0  0  0  0  0  0  0  0  0  0  0  0
   68.9682   38.3242   60.5930 N   0  0  0  0  0  0  0  0  0  0  0  0
   69.6521   37.1286   60.5241 C   0  0  0  0  0  0  0  0  0  0  0  0
   69.4779   36.3163   61.4209 O   0  0  0  0  0  0  0  0  0  0  0  0
   68.5584   41.4613   58.7294 C   0  0  0  0  0  0  0  0  0  0  0  0
   69.4925   42.4378   58.7259 C   0  0  0  0  0  0  0  0  0  0  0  0
   69.5428   43.3450   57.7098 C   0  0  0  0  0  0  0  0  0  0  0  0
   68.6301   43.2995   56.6357 C   0  0  0  0  0  0  0  0  0  0  0  0
   67.7149   42.2983   56.6920 C   0  0  0  0  0  0  0  0  0  0  0  0
   67.6956   41.4272   57.7018 N   0  0  0  0  0  0  0  0  0  0  0  0
   68.7043   44.2048   55.6538 O   0  0  0  0  0  0  0  0  0  0  0  0
   68.3260   45.4714   55.4309 C   0  0  0  0  0  0  0  0  0  0  0  0
   68.3207   45.9897   54.0448 C   0  0  0  0  0  0  0  0  0  0  0  0
   67.5653   45.3643   53.0615 C   0  0  0  0  0  0  0  0  0  0  0  0
   67.5764   45.8182   51.7543 C   0  0  0  0  0  0  0  0  0  0  0  0
   68.3394   46.9113   51.3790 C   0  0  0  0  0  0  0  0  0  0  0  0
   69.0795   47.5248   52.3396 C   0  0  0  0  0  0  0  0  0  0  0  0
   69.0696   47.0668   53.6594 C   0  0  0  0  0  0  0  0  0  0  0  0
  1  2  2  0
  2  3  1  0
  2 10  1  0
  3  4  1  0
  4  5  2  0
  4  9  1  0
  5  6  1  0
  6  7  2  0
  7  8  1  0
  8  9  2  0
  9 10  1  0
 10 11  2  0
 11 12  1  0
 11 18  1  0
 12 13  1  0
 13 14  2  0
 13 15  1  0
 15 16  2  0
 15 17  1  0
 16 20  1  0
 20 21  2  0
 20 25  1  0
 21 22  1  0
 22 23  2  0
 23 26  1  0
 23 24  1  0
 26 27  1  0
 27 28  1  0
 28 29  2  0
 28 33  1  0
 29 30  1  0
 30 31  2  0
 31 32  1  0
 32 33  2  0
 24 25  2  0
 17 18  1  0
 18 19  2  0
M  END
>  <minimizedAffinity>  (297) 
-8.74797

$$$$
data/reference_output_2/data/smiles/96873.pdb
     RDKit          3D

 31 35  0  0  0  0  0  0  0  0999 V2000
   69.3723   48.6709   53.0954 C   0  0  0  0  0  0  0  0  0  0  0  0
   69.3708   48.3431   51.7971 N   0  0  0  0  0  0  0  0  0  0  0  0
   68.9170   47.1361   51.6156 N   0  0  0  0  0  0  0  0  0  0  0  0
   68.5961   46.6144   52.8129 C   0  0  0  0  0  0  0  0  0  0  0  0
   68.0787   45.4029   53.2462 C   0  0  0  0  0  0  0  0  0  0  0  0
   67.8381   45.1217   54.5734 C   0  0  0  0  0  0  0  0  0  0  0  0
   68.1266   46.0813   55.4710 N   0  0  0  0  0  0  0  0  0  0  0  0
   68.6344   47.2849   55.0871 C   0  0  0  0  0  0  0  0  0  0  0  0
   68.8717   47.5631   53.7775 C   0  0  0  0  0  0  0  0  0  0  0  0
   72.8972   51.5478   54.9495 C   0  0  0  0  0  0  0  0  0  0  0  0
   71.4544   51.3729   54.5625 C   0  0  0  0  0  0  0  0  0  0  0  0
   71.1137   50.1482   54.0327 C   0  0  0  0  0  0  0  0  0  0  0  0
   69.8068   49.9301   53.6589 C   0  0  0  0  0  0  0  0  0  0  0  0
   68.8989   50.9529   53.8335 C   0  0  0  0  0  0  0  0  0  0  0  0
   69.2853   52.1577   54.3669 C   0  0  0  0  0  0  0  0  0  0  0  0
   70.5478   52.3494   54.7211 N   0  0  0  0  0  0  0  0  0  0  0  0
   67.3051   43.8696   54.9844 N   0  0  0  0  0  0  0  0  0  0  0  0
   67.9386   43.0059   55.9226 C   0  0  0  0  0  0  0  0  0  0  0  0
   69.0318   43.3959   56.4004 O   0  0  0  0  0  0  0  0  0  0  0  0
   67.3971   41.7653   56.3230 N   0  0  0  0  0  0  0  0  0  0  0  0
   68.0053   40.8585   57.2745 C   0  0  0  0  0  0  0  0  0  0  0  0
   68.0557   41.4136   58.6539 C   0  0  0  0  0  0  0  0  0  0  0  0
   66.8717   41.5703   59.3909 C   0  0  0  0  0  0  0  0  0  0  0  0
   66.8677   42.0722   60.6721 C   0  0  0  0  0  0  0  0  0  0  0  0
   68.0445   42.4466   61.2887 C   0  0  0  0  0  0  0  0  0  0  0  0
   69.2144   42.3021   60.5883 C   0  0  0  0  0  0  0  0  0  0  0  0
   69.2161   41.7944   59.2920 C   0  0  0  0  0  0  0  0  0  0  0  0
   70.3765   42.7614   61.4234 C   0  0  0  0  0  0  0  0  0  0  0  0
   69.7875   43.1794   62.6583 N   0  0  0  0  0  0  0  0  0  0  0  0
   68.3780   42.9993   62.6029 C   0  0  0  0  0  0  0  0  0  0  0  0
   67.5369   43.2517   63.4867 O   0  0  0  0  0  0  0  0  0  0  0  0
 10 11  1  0
 11 12  2  0
 11 16  1  0
 12 13  1  0
 13  1  1  0
 13 14  2  0
  1  2  2  0
  1  9  1  0
  2  3  1  0
  3  4  1  0
  4  5  1  0
  4  9  2  0
  5  6  2  0
  6 17  1  0
  6  7  1  0
 17 18  1  0
 18 19  2  0
 18 20  1  0
 20 21  1  0
 21 22  1  0
 22 23  2  0
 22 27  1  0
 23 24  1  0
 24 25  2  0
 25 26  1  0
 25 30  1  0
 26 27  2  0
 26 28  1  0
 28 29  1  0
 29 30  1  0
 30 31  2  0
  7  8  2  0
  8  9  1  0
 14 15  1  0
 15 16  2  0
M  END
>  <minimizedAffinity>  (298) 
-8.74795

$$$$
data/reference_output_2/data/smiles/145458.pdb
     RDKit          3D

 30 33  0  0  0  0  0  0  0  0999 V2000
   71.6042   45.4269   58.6630 C   0  0  0  0  0  0  0  0  0  0  0  0
   70.6931   44.7867   57.8487 C   0  0  0  0  0  0  0  0  0  0  0  0
   69.7607   45.4750   57.1032 C   0  0  0  0  0  0  0  0  0  0  0  0
   69.7209   46.8453   57.1601 C   0  0  0  0  0  0  0  0  0  0  0  0
   70.6346   47.4682   57.9758 C   0  0  0  0  0  0  0  0  0  0  0  0
   71.5325   46.7746   58.6909 N   0  0  0  0  0  0  0  0  0  0  0  0
   68.5507   47.7841   56.2345 S   0  0  0  0  0  0  0  0  0  0  0  0
   68.9015   49.2324   56.4399 O   0  0  0  0  0  0  0  0  0  0  0  0
   67.1943   47.5485   56.8014 O   0  0  0  0  0  0  0  0  0  0  0  0
   68.6388   47.3703   54.5429 C   0  0  0  0  0  0  0  0  0  0  0  0
   69.4576   48.1216   53.7196 C   0  0  0  0  0  0  0  0  0  0  0  0
   69.5619   47.8365   52.3655 C   0  0  0  0  0  0  0  0  0  0  0  0
   70.3564   48.5566   51.5391 F   0  0  0  0  0  0  0  0  0  0  0  0
   68.8225   46.7825   51.8878 C   0  0  0  0  0  0  0  0  0  0  0  0
   68.0000   46.0207   52.6938 C   0  0  0  0  0  0  0  0  0  0  0  0
   67.2806   44.9810   52.1779 F   0  0  0  0  0  0  0  0  0  0  0  0
   67.9009   46.3165   54.0570 C   0  0  0  0  0  0  0  0  0  0  0  0
   72.5995   44.6448   59.4569 C   0  0  0  0  0  0  0  0  0  0  0  0
   74.1748   42.7087   60.4111 O   0  0  0  0  0  0  0  0  0  0  0  0
   73.1324   42.2621   59.8220 C   0  0  0  0  0  0  0  0  0  0  0  0
   72.2642   43.2530   59.2983 N   0  0  0  0  0  0  0  0  0  0  0  0
   72.8814   40.8725   59.7135 N   0  0  0  0  0  0  0  0  0  0  0  0
   71.7533   40.2640   59.0760 C   0  0  0  0  0  0  0  0  0  0  0  0
   72.1495   38.8886   58.7583 C   0  0  0  0  0  0  0  0  0  0  0  0
   71.5583   37.9417   57.9509 C   0  0  0  0  0  0  0  0  0  0  0  0
   72.1614   36.6856   57.8277 C   0  0  0  0  0  0  0  0  0  0  0  0
   73.2974   36.4398   58.5006 N   0  0  0  0  0  0  0  0  0  0  0  0
   73.8867   37.3764   59.3020 C   0  0  0  0  0  0  0  0  0  0  0  0
   73.3148   38.6314   59.4452 C   0  0  0  0  0  0  0  0  0  0  0  0
   73.7177   39.8280   60.2292 C   0  0  0  0  0  0  0  0  0  0  0  0
 19 20  2  0
 20 21  1  0
 20 22  1  0
 21 18  1  0
 18  1  1  0
  1  2  2  0
  1  6  1  0
  2  3  1  0
  3  4  2  0
  4  7  1  0
  4  5  1  0
  7  8  2  0
  7  9  2  0
  7 10  1  0
 10 11  2  0
 10 17  1  0
 11 12  1  0
 12 13  1  0
 12 14  2  0
 14 15  1  0
 15 16  1  0
 15 17  2  0
  5  6  2  0
 22 23  1  0
 22 30  1  0
 23 24  1  0
 24 25  1  0
 24 29  2  0
 25 26  2  0
 26 27  1  0
 27 28  2  0
 28 29  1  0
 29 30  1  0
M  END
>  <minimizedAffinity>  (299) 
-8.74755

$$$$
data/reference_output_2/data/smiles/115578.pdb
     RDKit          3D

 29 32  0  0  0  0  0  0  0  0999 V2000
   71.8326   49.0242   59.2046 C   0  0  0  0  0  0  0  0  0  0  0  0
   73.0699   49.3581   58.4167 C   0  0  0  0  0  0  0  0  0  0  0  0
   72.8655   49.5443   56.9531 C   0  0  0  0  0  0  0  0  0  0  0  0
   71.7828   50.3643   56.6656 N   0  0  0  0  0  0  0  0  0  0  0  0
   71.0823   50.8913   57.7553 C   0  0  0  0  0  0  0  0  0  0  0  0
   70.6038   49.6969   58.6004 C   0  0  0  0  0  0  0  0  0  0  0  0
   71.6543   47.1179   60.6125 O   0  0  0  0  0  0  0  0  0  0  0  0
   71.6319   47.5735   59.4214 C   0  0  0  0  0  0  0  0  0  0  0  0
   71.4102   46.6315   58.3809 N   0  0  0  0  0  0  0  0  0  0  0  0
   71.2247   45.2533   58.6137 C   0  0  0  0  0  0  0  0  0  0  0  0
   70.0739   44.8171   59.1311 N   0  0  0  0  0  0  0  0  0  0  0  0
   69.8852   43.4903   59.3595 C   0  0  0  0  0  0  0  0  0  0  0  0
   70.8758   42.5996   59.0578 C   0  0  0  0  0  0  0  0  0  0  0  0
   72.0750   43.0361   58.5204 C   0  0  0  0  0  0  0  0  0  0  0  0
   72.2395   44.3822   58.3009 C   0  0  0  0  0  0  0  0  0  0  0  0
   73.4640   44.8098   57.7545 O   0  0  0  0  0  0  0  0  0  0  0  0
   71.1934   50.5176   55.1176 S   0  0  0  0  0  0  0  0  0  0  0  0
   70.4927   51.7809   54.8078 O   0  0  0  0  0  0  0  0  0  0  0  0
   72.3570   50.4081   54.1405 O   0  0  0  0  0  0  0  0  0  0  0  0
   70.1573   49.1261   54.7512 C   0  0  0  0  0  0  0  0  0  0  0  0
   69.5849   48.3721   55.7590 C   0  0  0  0  0  0  0  0  0  0  0  0
   68.7780   47.2871   55.4475 C   0  0  0  0  0  0  0  0  0  0  0  0
   68.5377   46.9477   54.1232 C   0  0  0  0  0  0  0  0  0  0  0  0
   67.7493   45.8846   53.7487 C   0  0  0  0  0  0  0  0  0  0  0  0
   67.5235   45.5622   52.4264 C   0  0  0  0  0  0  0  0  0  0  0  0
   68.0934   46.3129   51.4234 C   0  0  0  0  0  0  0  0  0  0  0  0
   68.8844   47.3796   51.7837 C   0  0  0  0  0  0  0  0  0  0  0  0
   69.1024   47.6909   53.1094 C   0  0  0  0  0  0  0  0  0  0  0  0
   69.8896   48.7516   53.4520 C   0  0  0  0  0  0  0  0  0  0  0  0
  7  8  2  0
  8  9  1  0
  8  1  1  0
  9 10  1  0
 10 11  2  0
 10 15  1  0
 11 12  1  0
 12 13  2  0
 13 14  1  0
 14 15  2  0
 15 16  1  0
  1  2  1  0
  1  6  1  0
  2  3  1  0
  3  4  1  0
  4 17  1  0
  4  5  1  0
 17 18  2  0
 17 19  2  0
 17 20  1  0
 20 21  2  0
 20 29  1  0
 21 22  1  0
 22 23  2  0
 23 24  1  0
 23 28  1  0
 24 25  2  0
 25 26  1  0
 26 27  2  0
 27 28  1  0
 28 29  2  0
  5  6  1  0
M  END
>  <minimizedAffinity>  (300) 
-8.74625

$$$$
data/reference_output_2/data/smiles/122995.pdb
     RDKit          3D

 31 35  0  0  0  0  0  0  0  0999 V2000
   74.5677   34.1696   54.5384 C   0  0  0  0  0  0  0  0  0  0  0  0
   70.5148   36.3566   59.8255 C   0  0  0  0  0  0  0  0  0  0  0  0
   70.1965   37.6433   59.4721 C   0  0  0  0  0  0  0  0  0  0  0  0
   70.9032   38.3049   58.4575 C   0  0  0  0  0  0  0  0  0  0  0  0
   71.9217   37.6426   57.8190 C   0  0  0  0  0  0  0  0  0  0  0  0
   72.2892   36.3219   58.1423 C   0  0  0  0  0  0  0  0  0  0  0  0
   71.5714   35.7218   59.1367 C   0  0  0  0  0  0  0  0  0  0  0  0
   71.8285   34.3179   59.5927 C   0  0  0  0  0  0  0  0  0  0  0  0
   72.3393   33.5904   58.3501 C   0  0  0  0  0  0  0  0  0  0  0  0
   73.6206   34.2880   57.9571 C   0  0  1  0  0  0  0  0  0  0  0  0
   74.3015   33.6222   56.8067 C   0  0  0  0  0  0  0  0  0  0  0  0
   73.6125   34.1170   55.5992 N   0  0  1  0  0  0  0  0  0  0  0  0
   73.0757   35.3991   55.9651 C   0  0  0  0  0  0  0  0  0  0  0  0
   73.3989   35.6708   57.4188 C   0  0  1  0  0  0  0  0  0  0  0  0
   68.8546   36.2224   61.5975 C   0  0  0  0  0  0  0  0  0  0  0  0
   69.8561   35.6643   60.8120 O   0  0  0  0  0  0  0  0  0  0  0  0
   74.4812   35.2697   53.5564 C   0  0  0  0  0  0  0  0  0  0  0  0
   75.3776   35.2484   52.4379 N   0  0  0  0  0  0  0  0  0  0  0  0
   76.5796   35.8922   52.4801 C   0  0  0  0  0  0  0  0  0  0  0  0
   76.8508   36.5045   53.5591 O   0  0  0  0  0  0  0  0  0  0  0  0
   77.4302   35.8815   51.4400 N   0  0  0  0  0  0  0  0  0  0  0  0
   77.1693   35.2444   50.2887 C   0  0  0  0  0  0  0  0  0  0  0  0
   78.0478   35.2378   49.2220 C   0  0  0  0  0  0  0  0  0  0  0  0
   77.7710   34.5787   48.0388 C   0  0  0  0  0  0  0  0  0  0  0  0
   78.7578   34.6042   46.9206 C   0  0  0  0  0  0  0  0  0  0  0  0
   76.5670   33.9139   47.9502 C   0  0  0  0  0  0  0  0  0  0  0  0
   76.2657   33.2065   46.6787 C   0  0  0  0  0  0  0  0  0  0  0  0
   75.6886   33.9255   49.0254 C   0  0  0  0  0  0  0  0  0  0  0  0
   75.9556   34.5739   50.1980 C   0  0  0  0  0  0  0  0  0  0  0  0
   75.1056   34.6047   51.2830 C   0  0  0  0  0  0  0  0  0  0  0  0
   74.0083   33.9960   51.1936 O   0  0  0  0  0  0  0  0  0  0  0  0
 15 16  1  0
 16  2  1  0
  2  3  2  0
  2  7  1  0
  3  4  1  0
  4  5  2  0
  5  6  1  0
  6  7  2  0
  6 14  1  0
  7  8  1  0
  8  9  1  0
 10  9  1  6
 10 11  1  0
 10 14  1  0
 11 12  1  0
 12  1  1  6
 12 13  1  0
  1 17  1  0
 17 18  1  0
 18 19  1  0
 18 30  1  0
 19 20  2  0
 19 21  1  0
 21 22  1  0
 22 23  2  0
 22 29  1  0
 23 24  1  0
 24 25  1  0
 24 26  2  0
 26 27  1  0
 26 28  1  0
 28 29  2  0
 29 30  1  0
 30 31  2  0
 14 13  1  6
M  CHG  1  12   1
M  END
>  <minimizedAffinity>  (301) 
-8.74496

$$$$
data/reference_output_2/data/smiles/132773.pdb
     RDKit          3D

 29 32  0  0  0  0  0  0  0  0999 V2000
   68.5495   42.5690   56.9060 C   0  0  0  0  0  0  0  0  0  0  0  0
   68.9051   42.1383   58.1588 C   0  0  0  0  0  0  0  0  0  0  0  0
   68.7650   40.8344   58.5841 C   0  0  0  0  0  0  0  0  0  0  0  0
   68.2377   39.9266   57.6936 C   0  0  0  0  0  0  0  0  0  0  0  0
   67.8710   40.3418   56.4252 C   0  0  0  0  0  0  0  0  0  0  0  0
   68.0353   41.6277   56.0733 N   0  0  0  0  0  0  0  0  0  0  0  0
   70.0954   46.9637   57.3651 O   0  0  0  0  0  0  0  0  0  0  0  0
   69.4721   46.1213   56.6789 C   0  0  0  0  0  0  0  0  0  0  0  0
   69.3284   44.8536   57.0999 N   0  0  0  0  0  0  0  0  0  0  0  0
   68.6732   43.9205   56.4026 C   0  0  0  0  0  0  0  0  0  0  0  0
   68.1399   44.2886   55.2280 N   0  0  0  0  0  0  0  0  0  0  0  0
   68.2486   45.5501   54.7472 C   0  0  0  0  0  0  0  0  0  0  0  0
   68.9284   46.5007   55.4782 C   0  0  0  0  0  0  0  0  0  0  0  0
   68.9226   47.8006   54.7670 C   0  0  0  0  0  0  0  0  0  0  0  0
   68.7220   47.3614   53.3234 C   0  0  0  0  0  0  0  0  0  0  0  0
   67.7559   46.1968   53.4976 C   0  0  0  0  0  0  0  0  0  0  0  0
   69.2335   40.3405   60.1943 S   0  0  0  0  0  0  0  0  0  0  0  0
   69.7014   41.5497   60.9514 O   0  0  0  0  0  0  0  0  0  0  0  0
   68.0312   39.7147   60.8670 O   0  0  0  0  0  0  0  0  0  0  0  0
   70.5109   39.1863   60.0812 N   0  0  0  0  0  0  0  0  0  0  0  0
   69.9477   37.9034   59.8700 C   0  0  0  0  0  0  0  0  0  0  0  0
   70.8949   36.8574   59.3666 C   0  0  0  0  0  0  0  0  0  0  0  0
   71.6909   37.4124   58.2065 C   0  0  0  0  0  0  0  0  0  0  0  0
   72.5041   38.5524   58.7826 C   0  0  0  0  0  0  0  0  0  0  0  0
   71.5151   39.6136   59.1775 C   0  0  0  0  0  0  0  0  0  0  0  0
   72.5639   36.3520   57.5821 C   0  0  0  0  0  0  0  0  0  0  0  0
   72.0127   35.1254   57.9404 F   0  0  0  0  0  0  0  0  0  0  0  0
   73.8601   36.4862   57.9838 F   0  0  0  0  0  0  0  0  0  0  0  0
   72.5059   36.4313   56.2200 F   0  0  0  0  0  0  0  0  0  0  0  0
  7  8  2  0
  8  9  1  0
  8 13  1  0
  9 10  1  0
 10  1  1  0
 10 11  2  0
  1  2  2  0
  1  6  1  0
  2  3  1  0
  3 17  1  0
  3  4  2  0
 17 18  2  0
 17 19  2  0
 17 20  1  0
 20 21  1  0
 20 25  1  0
 21 22  1  0
 22 23  1  0
 23 26  1  0
 23 24  1  0
 26 27  1  0
 26 28  1  0
 26 29  1  0
 24 25  1  0
  4  5  1  0
  5  6  2  0
 11 12  1  0
 12 13  2  0
 12 16  1  0
 13 14  1  0
 14 15  1  0
 15 16  1  0
M  END
>  <minimizedAffinity>  (302) 
-8.74475

$$$$
data/200k_reference_output/data/smiles/6925.pdb
     RDKit          3D

 26 28  0  0  0  0  0  0  0  0999 V2000
   69.2993   44.4767   57.0096 C   0  0  0  0  0  0  0  0  0  0  0  0
   69.0034   43.0182   56.9721 C   0  0  0  0  0  0  0  0  0  0  0  0
   69.4710   42.1008   57.8767 N   0  0  0  0  0  0  0  0  0  0  0  0
   69.0226   40.8934   57.5952 N   0  0  0  0  0  0  0  0  0  0  0  0
   68.2514   40.9893   56.5024 C   0  0  0  0  0  0  0  0  0  0  0  0
   67.6655   40.0230   55.9623 O   0  0  0  0  0  0  0  0  0  0  0  0
   68.2485   42.3034   56.1294 N   0  0  0  0  0  0  0  0  0  0  0  0
   69.3120   39.6983   58.3313 C   0  0  0  0  0  0  0  0  0  0  0  0
   68.3309   39.1346   59.1480 C   0  0  0  0  0  0  0  0  0  0  0  0
   68.5230   38.0026   59.8808 C   0  0  0  0  0  0  0  0  0  0  0  0
   69.7634   37.3862   59.8030 C   0  0  0  0  0  0  0  0  0  0  0  0
   70.0531   35.7996   60.8205 Br  0  0  0  0  0  0  0  0  0  0  0  0
   70.7618   37.9142   59.0040 C   0  0  0  0  0  0  0  0  0  0  0  0
   70.5265   39.0779   58.2676 C   0  0  0  0  0  0  0  0  0  0  0  0
   68.4858   45.2943   56.2923 O   0  0  0  0  0  0  0  0  0  0  0  0
   69.0011   47.5039   53.4512 C   0  0  0  0  0  0  0  0  0  0  0  0
   68.3808   46.8452   52.4139 C   0  0  0  0  0  0  0  0  0  0  0  0
   68.3232   47.3079   51.1498 F   0  0  0  0  0  0  0  0  0  0  0  0
   67.7854   45.6368   52.6961 C   0  0  0  0  0  0  0  0  0  0  0  0
   67.8182   45.1197   53.9792 C   0  0  0  0  0  0  0  0  0  0  0  0
   68.4332   45.7637   55.0293 C   0  0  0  0  0  0  0  0  0  0  0  0
   69.0369   46.9993   54.7215 C   0  0  0  0  0  0  0  0  0  0  0  0
   69.6559   47.6813   55.7055 F   0  0  0  0  0  0  0  0  0  0  0  0
   70.9770   48.8501   52.6884 N   0  0  0  0  0  0  0  0  0  0  0  0
   69.6438   48.8003   53.1631 C   0  0  0  0  0  0  0  0  0  0  0  0
   69.0374   49.8796   53.3291 O   0  0  0  0  0  0  0  0  0  0  0  0
 24 25  1  0
 25 26  2  0
 25 16  1  0
 16 17  2  0
 16 22  1  0
 17 18  1  0
 17 19  1  0
 19 20  2  0
 20 21  1  0
 21 15  1  0
 21 22  2  0
 15  1  1  0
  1  2  1  0
  2  3  2  0
  2  7  1  0
  3  4  1  0
  4  8  1  0
  4  5  1  0
  8  9  2  0
  8 14  1  0
  9 10  1  0
 10 11  2  0
 11 12  1  0
 11 13  1  0
 13 14  2  0
  5  6  2  0
  5  7  1  0
 22 23  1  0
M  END
>  <minimizedAffinity>  (303) 
-8.74415

$$$$
data/200k_reference_output/data/smiles/48386.pdb
     RDKit          3D

 28 30  0  0  0  0  0  0  0  0999 V2000
   70.0082   49.7815   54.0354 C   0  0  0  0  0  0  0  0  0  0  0  0
   69.7924   49.1386   52.8557 C   0  0  0  0  0  0  0  0  0  0  0  0
   70.2207   49.6408   51.6048 O   0  0  0  0  0  0  0  0  0  0  0  0
   69.1163   47.9324   52.8953 C   0  0  0  0  0  0  0  0  0  0  0  0
   68.8824   47.3201   51.6736 C   0  0  0  0  0  0  0  0  0  0  0  0
   68.1804   46.1359   51.6600 C   0  0  0  0  0  0  0  0  0  0  0  0
   67.7448   45.6167   52.8565 C   0  0  0  0  0  0  0  0  0  0  0  0
   67.0420   44.4488   52.9038 F   0  0  0  0  0  0  0  0  0  0  0  0
   67.9808   46.2312   54.0833 C   0  0  0  0  0  0  0  0  0  0  0  0
   68.6801   47.4053   54.0963 C   0  0  0  0  0  0  0  0  0  0  0  0
   68.8906   48.0388   55.2999 N   0  0  0  0  0  0  0  0  0  0  0  0
   69.5416   49.1981   55.2262 C   0  0  0  0  0  0  0  0  0  0  0  0
   69.7766   49.8605   56.2645 O   0  0  0  0  0  0  0  0  0  0  0  0
   71.7378   51.3941   54.9933 N   0  0  0  0  0  0  0  0  0  0  0  0
   70.7375   51.0299   54.0910 C   0  0  0  0  0  0  0  0  0  0  0  0
   70.4474   51.9288   53.2139 O   0  0  0  0  0  0  0  0  0  0  0  0
   72.4175   52.6926   54.9460 C   0  0  0  0  0  0  0  0  0  0  0  0
   73.9193   52.5959   53.0856 O   0  0  0  0  0  0  0  0  0  0  0  0
   73.7658   52.4891   54.3294 C   0  0  0  0  0  0  0  0  0  0  0  0
   74.8669   52.1824   55.1067 O   0  0  0  0  0  0  0  0  0  0  0  0
   68.4868   47.4470   56.5527 C   0  0  0  0  0  0  0  0  0  0  0  0
   69.6369   46.7776   57.2111 C   0  0  0  0  0  0  0  0  0  0  0  0
   70.5695   47.5197   57.9563 C   0  0  0  0  0  0  0  0  0  0  0  0
   71.5910   46.9517   58.6820 C   0  0  0  0  0  0  0  0  0  0  0  0
   71.7424   45.5947   58.7068 C   0  0  0  0  0  0  0  0  0  0  0  0
   70.8485   44.8525   57.9860 C   0  0  0  0  0  0  0  0  0  0  0  0
   69.8313   45.4134   57.2599 C   0  0  0  0  0  0  0  0  0  0  0  0
   68.8257   44.3844   56.2483 Cl  0  0  0  0  0  0  0  0  0  0  0  0
 18 19  2  0
 19 20  1  0
 19 17  1  0
 17 14  1  0
 14 15  1  0
 15 16  2  0
 15  1  1  0
  1  2  2  0
  1 12  1  0
  2  3  1  0
  2  4  1  0
  4  5  2  0
  4 10  1  0
  5  6  1  0
  6  7  2  0
  7  8  1  0
  7  9  1  0
  9 10  2  0
 10 11  1  0
 11 21  1  0
 11 12  1  0
 21 22  1  0
 22 23  2  0
 22 27  1  0
 23 24  1  0
 24 25  2  0
 25 26  1  0
 26 27  2  0
 27 28  1  0
 12 13  2  0
M  END
>  <minimizedAffinity>  (304) 
-8.74017

$$$$
data/200k_reference_output/data/smiles/33380.pdb
     RDKit          3D

 30 33  0  0  0  0  0  0  0  0999 V2000
   69.8431   47.7283   57.5070 C   0  0  0  0  0  0  0  0  0  0  0  0
   70.8918   48.3967   58.1717 C   0  0  0  0  0  0  0  0  0  0  0  0
   71.7662   47.6996   58.9631 C   0  0  0  0  0  0  0  0  0  0  0  0
   71.6164   46.3394   59.1094 C   0  0  0  0  0  0  0  0  0  0  0  0
   70.6077   45.6394   58.4817 C   0  0  0  0  0  0  0  0  0  0  0  0
   69.7430   46.3708   57.6890 C   0  0  0  0  0  0  0  0  0  0  0  0
   70.5153   44.2037   58.6921 C   0  0  0  0  0  0  0  0  0  0  0  0
   71.5782   43.5053   58.7526 O   0  0  0  0  0  0  0  0  0  0  0  0
   69.3183   43.4700   58.8466 N   0  0  0  0  0  0  0  0  0  0  0  0
   69.3032   42.0334   59.0590 C   0  0  2  0  0  0  0  0  0  0  0  0
   69.0576   41.2404   57.8087 C   0  0  0  0  0  0  0  0  0  0  0  0
   67.6921   41.2746   57.6412 O   0  0  0  0  0  0  0  0  0  0  0  0
   67.1098   41.2339   58.9073 C   0  0  0  0  0  0  0  0  0  0  0  0
   68.1421   41.5999   59.9189 C   0  0  2  0  0  0  0  0  0  0  0  0
   67.7485   42.5808   60.9162 C   0  0  0  0  0  0  0  0  0  0  0  0
   66.6373   43.1403   60.8656 O   0  0  0  0  0  0  0  0  0  0  0  0
   68.6367   42.9144   61.9657 N   0  0  0  0  0  0  0  0  0  0  0  0
   68.3628   43.8149   62.9422 O   0  0  0  0  0  0  0  0  0  0  0  0
   68.9275   48.5150   56.6415 C   0  0  0  0  0  0  0  0  0  0  0  0
   71.6620   51.8653   54.3199 C   0  0  0  0  0  0  0  0  0  0  0  0
   70.8705   50.6058   54.2376 C   0  0  0  0  0  0  0  0  0  0  0  0
   70.2973   50.0947   55.3702 C   0  0  0  0  0  0  0  0  0  0  0  0
   69.5389   48.9221   55.3723 C   0  0  0  0  0  0  0  0  0  0  0  0
   69.3909   48.2906   54.1677 C   0  0  0  0  0  0  0  0  0  0  0  0
   68.6723   47.1171   54.1068 C   0  0  0  0  0  0  0  0  0  0  0  0
   68.5620   46.5003   52.8695 C   0  0  0  0  0  0  0  0  0  0  0  0
   69.1393   47.0259   51.7475 C   0  0  0  0  0  0  0  0  0  0  0  0
   69.8516   48.1847   51.8000 C   0  0  0  0  0  0  0  0  0  0  0  0
   69.9691   48.8104   53.0375 C   0  0  0  0  0  0  0  0  0  0  0  0
   70.6942   49.9470   53.0748 N   0  0  0  0  0  0  0  0  0  0  0  0
 20 21  1  0
 21 22  2  0
 21 30  1  0
 22 23  1  0
 23 19  1  0
 23 24  2  0
 19  1  1  0
  1  2  2  0
  1  6  1  0
  2  3  1  0
  3  4  2  0
  4  5  1  0
  5  7  1  0
  5  6  2  0
  7  8  2  0
  7  9  1  0
 10  9  1  6
 10 11  1  0
 10 14  1  0
 11 12  1  0
 12 13  1  0
 13 14  1  0
 14 15  1  1
 15 16  2  0
 15 17  1  0
 17 18  1  0
 24 25  1  0
 24 29  1  0
 25 26  2  0
 26 27  1  0
 27 28  2  0
 28 29  1  0
 29 30  2  0
M  END
>  <minimizedAffinity>  (305) 
-8.73994

$$$$
data/reference_output_2/data/smiles/128533.pdb
     RDKit          3D

 29 31  0  0  0  0  0  0  0  0999 V2000
   70.8559   43.3594   57.9339 C   0  0  0  0  0  0  0  0  0  0  0  0
   69.7607   43.4381   57.0993 C   0  0  0  0  0  0  0  0  0  0  0  0
   69.2022   44.6428   56.7278 C   0  0  0  0  0  0  0  0  0  0  0  0
   69.7224   45.8370   57.1810 C   0  0  0  0  0  0  0  0  0  0  0  0
   70.8171   45.7713   58.0160 C   0  0  0  0  0  0  0  0  0  0  0  0
   71.3766   44.5588   58.3881 C   0  0  0  0  0  0  0  0  0  0  0  0
   72.5921   42.0580   58.7641 O   0  0  0  0  0  0  0  0  0  0  0  0
   71.4216   42.0687   58.3075 C   0  0  0  0  0  0  0  0  0  0  0  0
   70.7590   40.8385   58.1972 N   0  0  0  0  0  0  0  0  0  0  0  0
   71.3137   39.6090   58.5592 N   0  0  0  0  0  0  0  0  0  0  0  0
   70.4649   38.4795   58.5998 C   0  0  0  0  0  0  0  0  0  0  0  0
   69.2367   38.6516   58.3022 O   0  0  0  0  0  0  0  0  0  0  0  0
   70.8946   37.1525   58.9540 C   0  0  0  0  0  0  0  0  0  0  0  0
   70.3919   36.5255   60.0718 C   0  0  0  0  0  0  0  0  0  0  0  0
   70.8034   35.2506   60.4152 C   0  0  0  0  0  0  0  0  0  0  0  0
   71.7224   34.5635   59.6579 C   0  0  0  0  0  0  0  0  0  0  0  0
   72.2326   35.1797   58.5360 C   0  0  0  0  0  0  0  0  0  0  0  0
   71.8145   36.4530   58.2039 C   0  0  0  0  0  0  0  0  0  0  0  0
   72.3362   37.0621   57.0717 O   0  0  0  0  0  0  0  0  0  0  0  0
   69.0194   47.3868   56.7148 S   0  0  0  0  0  0  0  0  0  0  0  0
   69.4937   48.4618   57.6881 O   0  0  0  0  0  0  0  0  0  0  0  0
   67.5339   47.3837   56.8234 O   0  0  0  0  0  0  0  0  0  0  0  0
   69.5954   47.8767   55.1668 N   0  0  0  0  0  0  0  0  0  0  0  0
   69.0218   47.2704   54.0197 C   0  0  0  0  0  0  0  0  0  0  0  0
   69.4256   47.7088   52.7809 C   0  0  0  0  0  0  0  0  0  0  0  0
   68.8949   47.1448   51.6405 C   0  0  0  0  0  0  0  0  0  0  0  0
   67.9630   46.1449   51.7128 C   0  0  0  0  0  0  0  0  0  0  0  0
   67.5683   45.7145   52.9563 C   0  0  0  0  0  0  0  0  0  0  0  0
   68.0912   46.2714   54.0990 C   0  0  0  0  0  0  0  0  0  0  0  0
  7  8  2  0
  8  9  1  0
  8  1  1  0
  9 10  1  0
 10 11  1  0
 11 12  2  0
 11 13  1  0
 13 14  2  0
 13 18  1  0
 14 15  1  0
 15 16  2  0
 16 17  1  0
 17 18  2  0
 18 19  1  0
  1  2  2  0
  1  6  1  0
  2  3  1  0
  3  4  2  0
  4 20  1  0
  4  5  1  0
 20 21  2  0
 20 22  2  0
 20 23  1  0
 23 24  1  0
 24 25  2  0
 24 29  1  0
 25 26  1  0
 26 27  2  0
 27 28  1  0
 28 29  2  0
  5  6  2  0
M  END
>  <minimizedAffinity>  (306) 
-8.73920

$$$$
data/200k_reference_output/data/smiles/80223.pdb
     RDKit          3D

 28 30  0  0  0  0  0  0  0  0999 V2000
   68.3605   45.9617   54.0724 C   0  0  0  0  0  0  0  0  0  0  0  0
   67.7889   45.5633   52.9070 C   0  0  0  0  0  0  0  0  0  0  0  0
   67.8973   46.3111   51.7525 C   0  0  0  0  0  0  0  0  0  0  0  0
   68.6047   47.4924   51.7812 C   0  0  0  0  0  0  0  0  0  0  0  0
   69.2018   47.9359   52.9385 C   0  0  0  0  0  0  0  0  0  0  0  0
   69.0609   47.1493   54.0616 C   0  0  0  0  0  0  0  0  0  0  0  0
   67.8329   43.8569   55.3955 N   0  0  0  0  0  0  0  0  0  0  0  0
   68.2728   45.2065   55.3154 C   0  0  0  0  0  0  0  0  0  0  0  0
   68.5988   45.7463   56.4091 O   0  0  0  0  0  0  0  0  0  0  0  0
   66.9179   41.3625   55.3830 C   0  0  0  0  0  0  0  0  0  0  0  0
   67.3327   41.9704   56.6627 C   0  0  0  0  0  0  0  0  0  0  0  0
   67.7688   43.1791   56.6228 N   0  0  0  0  0  0  0  0  0  0  0  0
   67.2493   41.2202   57.9361 C   0  0  0  0  0  0  0  0  0  0  0  0
   66.5587   41.6796   59.0092 C   0  0  0  0  0  0  0  0  0  0  0  0
   66.5279   40.9153   60.1688 C   0  0  0  0  0  0  0  0  0  0  0  0
   67.1891   39.7068   60.2297 C   0  0  0  0  0  0  0  0  0  0  0  0
   67.1702   38.9426   61.3597 F   0  0  0  0  0  0  0  0  0  0  0  0
   67.9043   39.2209   59.1314 C   0  0  0  0  0  0  0  0  0  0  0  0
   67.9070   40.0092   58.0081 C   0  0  0  0  0  0  0  0  0  0  0  0
   70.0962   49.4380   52.9545 S   0  0  0  0  0  0  0  0  0  0  0  0
   71.5839   49.1156   52.9459 O   0  0  0  0  0  0  0  0  0  0  0  0
   69.7621   50.2596   51.7510 O   0  0  0  0  0  0  0  0  0  0  0  0
   69.7928   50.2988   54.4119 N   0  0  0  0  0  0  0  0  0  0  0  0
   68.8425   51.3315   54.2300 C   0  0  0  0  0  0  0  0  0  0  0  0
   68.8758   52.4236   55.2543 C   0  0  0  0  0  0  0  0  0  0  0  0
   70.2024   52.8976   55.2865 O   0  0  0  0  0  0  0  0  0  0  0  0
   70.9562   51.8954   55.8824 C   0  0  0  0  0  0  0  0  0  0  0  0
   70.9494   50.6083   55.1558 C   0  0  0  0  0  0  0  0  0  0  0  0
 10 11  1  0
 11 12  2  0
 11 13  1  0
 12  7  1  0
  7  8  1  0
  8  9  2  0
  8  1  1  0
  1  2  2  0
  1  6  1  0
  2  3  1  0
  3  4  2  0
  4  5  1  0
  5 20  1  0
  5  6  2  0
 20 21  2  0
 20 22  2  0
 20 23  1  0
 23 24  1  0
 23 28  1  0
 24 25  1  0
 25 26  1  0
 26 27  1  0
 27 28  1  0
 13 14  2  0
 13 19  1  0
 14 15  1  0
 15 16  2  0
 16 17  1  0
 16 18  1  0
 18 19  2  0
M  END
>  <minimizedAffinity>  (307) 
-8.73770

$$$$
data/reference_output_2/data/smiles/112651.pdb
     RDKit          3D

 27 29  0  0  0  0  0  0  0  0999 V2000
   70.2280   43.6239   58.7865 S   0  0  0  0  0  0  0  0  0  0  0  0
   71.5278   44.2096   59.3935 O   0  0  0  0  0  0  0  0  0  0  0  0
   69.1906   43.8581   59.8664 O   0  0  0  0  0  0  0  0  0  0  0  0
   71.2027   39.1760   58.4172 C   0  0  0  0  0  0  0  0  0  0  0  0
   69.9272   39.6367   58.1569 C   0  0  0  0  0  0  0  0  0  0  0  0
   69.6308   40.9837   58.2688 C   0  0  0  0  0  0  0  0  0  0  0  0
   70.5636   41.9261   58.6365 C   0  0  0  0  0  0  0  0  0  0  0  0
   71.8540   41.4559   58.8999 C   0  0  0  0  0  0  0  0  0  0  0  0
   72.1432   40.1143   58.7870 C   0  0  0  0  0  0  0  0  0  0  0  0
   73.1692   34.9350   56.6845 C   0  0  0  0  0  0  0  0  0  0  0  0
   72.3966   35.9060   57.5401 C   0  0  0  0  0  0  0  0  0  0  0  0
   71.6646   35.5890   58.6648 C   0  0  0  0  0  0  0  0  0  0  0  0
   71.1377   36.7809   59.1144 C   0  0  0  0  0  0  0  0  0  0  0  0
   70.2629   36.9743   60.3137 C   0  0  0  0  0  0  0  0  0  0  0  0
   71.5262   37.7861   58.3066 N   0  0  0  0  0  0  0  0  0  0  0  0
   72.2786   37.2272   57.3748 N   0  0  0  0  0  0  0  0  0  0  0  0
   69.8912   44.4708   57.3691 N   0  0  0  0  0  0  0  0  0  0  0  0
   69.4886   45.7561   57.0732 C   0  0  0  0  0  0  0  0  0  0  0  0
   70.3961   46.9775   57.8160 S   0  0  0  0  0  0  0  0  0  0  0  0
   68.4739   46.2576   56.2759 N   0  0  0  0  0  0  0  0  0  0  0  0
   68.2075   45.8571   54.9296 C   0  0  0  0  0  0  0  0  0  0  0  0
   68.7417   46.7929   53.9257 C   0  0  0  0  0  0  0  0  0  0  0  0
   69.1830   48.0370   54.3010 C   0  0  0  0  0  0  0  0  0  0  0  0
   69.6928   48.9346   53.3626 C   0  0  0  0  0  0  0  0  0  0  0  0
   69.7551   48.5675   52.0307 C   0  0  0  0  0  0  0  0  0  0  0  0
   69.3211   47.3368   51.6490 C   0  0  0  0  0  0  0  0  0  0  0  0
   68.8116   46.4451   52.6018 C   0  0  0  0  0  0  0  0  0  0  0  0
 10 11  1  0
 11 12  1  0
 11 16  2  0
 12 13  2  0
 13 14  1  0
 13 15  1  0
 15  4  1  0
 15 16  1  0
  4  5  2  0
  4  9  1  0
  5  6  1  0
  6  7  2  0
  7  1  1  0
  7  8  1  0
  1  2  2  0
  1  3  2  0
  1 17  1  0
 17 18  1  0
 18 19  2  0
 18 20  1  0
 20 21  1  0
 21 22  1  0
 22 23  2  0
 22 27  1  0
 23 24  1  0
 24 25  2  0
 25 26  1  0
 26 27  2  0
  8  9  2  0
M  END
>  <minimizedAffinity>  (308) 
-8.73634

$$$$
data/200k_reference_output/data/smiles/86601.pdb
     RDKit          3D

 31 34  0  0  0  0  0  0  0  0999 V2000
   70.1189   46.8396   57.9138 C   0  0  0  0  0  0  0  0  0  0  0  0
   69.8728   44.3389   57.8945 N   0  0  0  0  0  0  0  0  0  0  0  0
   70.4731   45.5593   58.6325 C   0  0  0  0  0  0  0  0  0  0  0  0
   71.0761   45.3692   59.5487 O   0  0  0  0  0  0  0  0  0  0  0  0
   70.5272   41.1459   57.9448 N   0  0  0  0  0  0  0  0  0  0  0  0
   71.3320   42.3025   57.8586 C   0  0  0  0  0  0  0  0  0  0  0  0
   70.2786   43.1094   58.5242 C   0  0  0  0  0  0  0  0  0  0  0  0
   69.3674   41.9222   58.2287 C   0  0  0  0  0  0  0  0  0  0  0  0
   71.5736   37.3835   59.3625 C   0  0  1  0  0  0  0  0  0  0  0  0
   72.3702   38.3460   58.5357 C   0  0  0  0  0  0  0  0  0  0  0  0
   72.1316   39.7209   59.1254 C   0  0  0  0  0  0  0  0  0  0  0  0
   70.7251   40.1441   58.9331 C   0  0  2  0  0  0  0  0  0  0  0  0
   69.8932   38.9449   58.4929 C   0  0  0  0  0  0  0  0  0  0  0  0
   70.0660   37.7421   59.3602 C   0  0  0  0  0  0  0  0  0  0  0  0
   71.8872   34.8130   58.6484 C   0  0  0  0  0  0  0  0  0  0  0  0
   71.7336   36.0174   58.9778 C   0  0  0  0  0  0  0  0  0  0  0  0
   68.8475   46.7121   57.2012 N   0  0  0  0  0  0  0  0  0  0  0  0
   68.7516   46.9691   55.8095 C   0  0  0  0  0  0  0  0  0  0  0  0
   68.0992   45.8573   55.0395 N   0  0  0  0  0  0  0  0  0  0  0  0
   68.1786   46.2419   53.7758 N   0  0  0  0  0  0  0  0  0  0  0  0
   67.7191   45.5053   52.5998 C   0  0  0  0  0  0  0  0  0  0  0  0
   68.7887   47.4449   53.6586 C   0  0  0  0  0  0  0  0  0  0  0  0
   69.0306   48.1285   52.5472 C   0  0  0  0  0  0  0  0  0  0  0  0
   69.7072   49.4388   52.6399 C   0  0  0  0  0  0  0  0  0  0  0  0
   69.9981   49.7763   53.9238 C   0  0  0  0  0  0  0  0  0  0  0  0
   69.7524   49.0791   55.0606 C   0  0  0  0  0  0  0  0  0  0  0  0
   69.0928   47.7999   54.9382 C   0  0  0  0  0  0  0  0  0  0  0  0
   70.6688   51.1614   54.1051 C   0  0  0  0  0  0  0  0  0  0  0  0
   70.3049   51.8347   52.9302 F   0  0  0  0  0  0  0  0  0  0  0  0
   72.0050   51.0237   54.2245 F   0  0  0  0  0  0  0  0  0  0  0  0
   70.1363   51.8270   55.1737 F   0  0  0  0  0  0  0  0  0  0  0  0
 15 16  3  0
  9 16  1  6
  9 10  1  0
  9 14  1  0
 10 11  1  0
 11 12  1  0
 12  5  1  6
 12 13  1  0
  5  6  1  0
  5  8  1  0
  6  7  1  0
  7  2  1  0
  7  8  1  0
  2  3  1  0
  3  4  2  0
  3  1  1  0
  1 17  1  0
 17 18  1  0
 18 19  2  0
 18 27  1  0
 19 20  1  0
 20 21  1  0
 20 22  1  0
 22 23  1  0
 22 27  2  0
 23 24  2  0
 24 25  1  0
 25 28  1  0
 25 26  2  0
 28 29  1  0
 28 30  1  0
 28 31  1  0
 26 27  1  0
 13 14  1  0
M  CHG  1   5   1
M  END
>  <minimizedAffinity>  (309) 
-8.73516

$$$$
data/reference_output_2/data/smiles/159859.pdb
     RDKit          3D

 30 33  0  0  0  0  0  0  0  0999 V2000
   70.6914   44.2685   57.9906 C   0  0  0  0  0  0  0  0  0  0  0  0
   71.9941   43.8762   58.2505 C   0  0  0  0  0  0  0  0  0  0  0  0
   72.3529   42.5555   58.4081 C   0  0  0  0  0  0  0  0  0  0  0  0
   71.4201   41.5461   58.3127 C   0  0  0  0  0  0  0  0  0  0  0  0
   71.7605   40.2108   58.4683 C   0  0  0  0  0  0  0  0  0  0  0  0
   72.9754   39.8860   58.7082 O   0  0  0  0  0  0  0  0  0  0  0  0
   70.8336   39.2397   58.3718 N   0  0  0  0  0  0  0  0  0  0  0  0
   69.5696   39.6346   58.1178 C   0  0  0  0  0  0  0  0  0  0  0  0
   68.7108   38.7117   58.0305 O   0  0  0  0  0  0  0  0  0  0  0  0
   69.2214   40.9256   57.9645 N   0  0  0  0  0  0  0  0  0  0  0  0
   70.1184   41.9275   58.0534 C   0  0  0  0  0  0  0  0  0  0  0  0
   69.7630   43.2534   57.8964 C   0  0  0  0  0  0  0  0  0  0  0  0
   71.1647   37.8402   58.5321 C   0  0  0  0  0  0  0  0  0  0  0  0
   70.7102   37.1177   59.5985 C   0  0  0  0  0  0  0  0  0  0  0  0
   71.0306   35.7991   59.7320 C   0  0  0  0  0  0  0  0  0  0  0  0
   71.8170   35.1804   58.7935 C   0  0  0  0  0  0  0  0  0  0  0  0
   72.3012   35.8655   57.6991 C   0  0  0  0  0  0  0  0  0  0  0  0
   73.0765   35.2339   56.7872 F   0  0  0  0  0  0  0  0  0  0  0  0
   71.9545   37.1943   57.6021 C   0  0  0  0  0  0  0  0  0  0  0  0
   71.0693   46.5352   58.4304 O   0  0  0  0  0  0  0  0  0  0  0  0
   70.3635   45.6839   57.8325 C   0  0  0  0  0  0  0  0  0  0  0  0
   69.2946   46.1783   57.0454 N   0  0  0  0  0  0  0  0  0  0  0  0
   69.0060   47.6095   56.9196 C   0  0  0  0  0  0  0  0  0  0  0  0
   69.5868   48.0605   55.6041 C   0  0  0  0  0  0  0  0  0  0  0  0
   68.6411   48.0594   54.5345 N   0  0  0  0  0  0  0  0  0  0  0  0
   69.0587   49.0287   53.5414 C   0  0  0  0  0  0  0  0  0  0  0  0
   70.2008   48.5304   52.7001 C   0  0  0  0  0  0  0  0  0  0  0  0
   69.6957   47.4386   51.7976 C   0  0  0  0  0  0  0  0  0  0  0  0
   68.4933   46.8050   52.4351 C   0  0  0  0  0  0  0  0  0  0  0  0
   68.6115   46.7325   53.9457 C   0  0  0  0  0  0  0  0  0  0  0  0
 20 21  2  0
 21 22  1  0
 21  1  1  0
 22 23  1  0
 23 24  1  0
 24 25  1  0
 25 26  1  0
 25 30  1  0
 26 27  1  0
 27 28  1  0
 28 29  1  0
 29 30  1  0
  1  2  2  0
  1 12  1  0
  2  3  1  0
  3  4  2  0
  4  5  1  0
  4 11  1  0
  5  6  2  0
  5  7  1  0
  7 13  1  0
  7  8  1  0
 13 14  2  0
 13 19  1  0
 14 15  1  0
 15 16  2  0
 16 17  1  0
 17 18  1  0
 17 19  2  0
  8  9  2  0
  8 10  1  0
 10 11  1  0
 11 12  2  0
M  CHG  1  25   1
M  END
>  <minimizedAffinity>  (310) 
-8.73345

$$$$
data/200k_reference_output/data/smiles/48244.pdb
     RDKit          3D

 33 37  0  0  0  0  0  0  0  0999 V2000
   65.8759   42.6819   60.6746 O   0  0  0  0  0  0  0  0  0  0  0  0
   66.9281   42.1342   61.1256 C   0  0  0  0  0  0  0  0  0  0  0  0
   68.1924   42.5153   60.4828 C   0  0  0  0  0  0  0  0  0  0  0  0
   68.9722   43.2491   61.1896 O   0  0  0  0  0  0  0  0  0  0  0  0
   68.5606   42.1342   59.1983 N   0  0  0  0  0  0  0  0  0  0  0  0
   69.8803   42.4606   58.6902 C   0  0  0  0  0  0  0  0  0  0  0  0
   69.7549   43.4439   57.5288 C   0  0  0  0  0  0  0  0  0  0  0  0
   68.6462   43.1154   56.6715 N   0  0  0  0  0  0  0  0  0  0  0  0
   68.0535   43.8947   55.6955 C   0  0  0  0  0  0  0  0  0  0  0  0
   67.0531   43.3300   55.0731 O   0  0  0  0  0  0  0  0  0  0  0  0
   68.0930   41.7505   56.8373 C   0  0  0  0  0  0  0  0  0  0  0  0
   67.6947   41.4776   58.2653 C   0  0  0  0  0  0  0  0  0  0  0  0
   68.3523   45.2152   55.2510 C   0  0  0  0  0  0  0  0  0  0  0  0
   68.1196   45.5783   53.8922 C   0  0  0  0  0  0  0  0  0  0  0  0
   68.4076   46.8273   53.4226 C   0  0  0  0  0  0  0  0  0  0  0  0
   68.9354   47.8003   54.2363 C   0  0  0  0  0  0  0  0  0  0  0  0
   69.1743   47.4966   55.5490 C   0  0  0  0  0  0  0  0  0  0  0  0
   68.8725   46.2066   56.0107 C   0  0  0  0  0  0  0  0  0  0  0  0
   66.8301   41.1889   62.2134 C   0  0  0  0  0  0  0  0  0  0  0  0
   67.1492   41.4292   63.5276 C   0  0  0  0  0  0  0  0  0  0  0  0
   66.8620   40.3348   64.2853 N   0  0  0  0  0  0  0  0  0  0  0  0
   66.3589   39.3624   63.5025 C   0  0  0  0  0  0  0  0  0  0  0  0
   65.9516   38.0837   63.8263 C   0  0  0  0  0  0  0  0  0  0  0  0
   65.5159   37.3445   62.7974 N   0  0  0  0  0  0  0  0  0  0  0  0
   65.4676   37.7837   61.5435 C   0  0  0  0  0  0  0  0  0  0  0  0
   65.8758   39.0602   61.2286 C   0  0  0  0  0  0  0  0  0  0  0  0
   65.8381   39.5130   59.9511 F   0  0  0  0  0  0  0  0  0  0  0  0
   66.3362   39.8851   62.2163 C   0  0  0  0  0  0  0  0  0  0  0  0
   65.9998   37.5540   65.1664 C   0  0  0  0  0  0  0  0  0  0  0  0
   65.3554   36.5387   65.7678 C   0  0  0  0  0  0  0  0  0  0  0  0
   65.7468   36.4064   67.1132 C   0  0  0  0  0  0  0  0  0  0  0  0
   66.6436   37.3937   67.2604 N   0  0  0  0  0  0  0  0  0  0  0  0
   66.8103   38.0780   66.1380 N   0  0  0  0  0  0  0  0  0  0  0  0
  1  2  2  0
  2  3  1  0
  2 19  1  0
  3  4  2  0
  3  5  1  0
  5  6  1  0
  5 12  1  0
  6  7  1  0
  7  8  1  0
  8  9  1  0
  8 11  1  0
  9 10  2  0
  9 13  1  0
 13 14  2  0
 13 18  1  0
 14 15  1  0
 15 16  2  0
 16 17  1  0
 17 18  2  0
 11 12  1  0
 19 20  2  0
 19 28  1  0
 20 21  1  0
 21 22  1  0
 22 23  1  0
 22 28  2  0
 23 29  1  0
 23 24  2  0
 29 30  1  0
 29 33  2  0
 30 31  2  0
 31 32  1  0
 32 33  1  0
 24 25  1  0
 25 26  2  0
 26 27  1  0
 26 28  1  0
M  END
>  <minimizedAffinity>  (311) 
-8.73238

$$$$
data/reference_output_2/data/smiles/143985.pdb
     RDKit          3D

 28 31  0  0  0  0  0  0  0  0999 V2000
   71.3015   47.2893   58.6380 C   0  0  0  0  0  0  0  0  0  0  0  0
   70.4151   48.0228   57.8803 C   0  0  0  0  0  0  0  0  0  0  0  0
   69.5433   47.4155   56.9787 C   0  0  0  0  0  0  0  0  0  0  0  0
   69.5825   46.0479   56.8575 C   0  0  0  0  0  0  0  0  0  0  0  0
   70.4771   45.2933   57.6203 C   0  0  0  0  0  0  0  0  0  0  0  0
   71.3262   45.9288   58.5032 C   0  0  0  0  0  0  0  0  0  0  0  0
   72.2102   45.2019   59.2600 F   0  0  0  0  0  0  0  0  0  0  0  0
   71.9159   47.9989   60.8117 O   0  0  0  0  0  0  0  0  0  0  0  0
   72.1932   48.0055   59.5698 C   0  0  0  0  0  0  0  0  0  0  0  0
   73.3422   48.6915   59.0885 N   0  0  0  0  0  0  0  0  0  0  0  0
   74.1232   49.3451   60.0934 C   0  0  0  0  0  0  0  0  0  0  0  0
   75.3816   48.5155   60.3277 C   0  0  0  0  0  0  0  0  0  0  0  0
   75.7519   47.7860   59.0508 C   0  0  0  0  0  0  0  0  0  0  0  0
   75.9836   48.7776   58.0410 N   0  0  0  0  0  0  0  0  0  0  0  0
   74.8748   49.0499   57.1889 C   0  0  0  0  0  0  0  0  0  0  0  0
   73.5418   48.6250   57.6860 C   0  0  0  0  0  0  0  0  0  0  0  0
   68.6098   48.2896   56.1933 C   0  0  0  0  0  0  0  0  0  0  0  0
   69.1606   48.4027   54.8153 C   0  0  0  0  0  0  0  0  0  0  0  0
   70.0875   49.3936   54.5041 C   0  0  0  0  0  0  0  0  0  0  0  0
   70.6109   49.5356   53.2754 N   0  0  0  0  0  0  0  0  0  0  0  0
   70.2414   48.7029   52.2925 C   0  0  0  0  0  0  0  0  0  0  0  0
   70.7040   48.7947   51.1237 O   0  0  0  0  0  0  0  0  0  0  0  0
   69.3262   47.7173   52.5803 C   0  0  0  0  0  0  0  0  0  0  0  0
   68.7718   46.7391   51.7855 C   0  0  0  0  0  0  0  0  0  0  0  0
   67.9076   46.0046   52.5506 C   0  0  0  0  0  0  0  0  0  0  0  0
   66.9642   44.6440   51.9685 Cl  0  0  0  0  0  0  0  0  0  0  0  0
   67.9387   46.5379   53.8041 C   0  0  0  0  0  0  0  0  0  0  0  0
   68.8012   47.5766   53.8197 N   0  0  0  0  0  0  0  0  0  0  0  0
  8  9  2  0
  9  1  1  0
  9 10  1  0
  1  2  2  0
  1  6  1  0
  2  3  1  0
  3 17  1  0
  3  4  2  0
 17 18  1  0
 18 19  2  0
 18 28  1  0
 19 20  1  0
 20 21  1  0
 21 22  2  0
 21 23  1  0
 23 24  2  0
 23 28  1  0
 24 25  1  0
 25 26  1  0
 25 27  2  0
 27 28  1  0
  4  5  1  0
  5  6  2  0
  6  7  1  0
 10 11  1  0
 10 16  1  0
 11 12  1  0
 12 13  1  0
 13 14  1  0
 14 15  1  0
 15 16  1  0
M  CHG  1  14   1
M  END
>  <minimizedAffinity>  (312) 
-8.73233

$$$$
data/200k_reference_output/data/smiles/22873.pdb
     RDKit          3D

 32 36  0  0  0  0  0  0  0  0999 V2000
   68.5200   42.7883   56.9340 N   0  0  0  0  0  0  0  0  0  0  0  0
   67.4919   41.8003   56.8234 C   0  0  0  0  0  0  0  0  0  0  0  0
   68.1242   40.4814   57.2125 C   0  0  0  0  0  0  0  0  0  0  0  0
   68.4871   40.4626   58.7059 C   0  0  0  0  0  0  0  0  0  0  0  0
   69.2066   41.7338   59.0497 C   0  0  0  0  0  0  0  0  0  0  0  0
   69.5902   42.5346   57.8562 C   0  0  0  0  0  0  0  0  0  0  0  0
   67.2160   40.3151   59.4201 C   0  0  0  0  0  0  0  0  0  0  0  0
   66.2411   41.1305   59.4960 O   0  0  0  0  0  0  0  0  0  0  0  0
   67.2015   39.0627   60.0638 N   0  0  0  0  0  0  0  0  0  0  0  0
   68.4567   38.4450   59.7930 C   0  0  0  0  0  0  0  0  0  0  0  0
   68.9674   37.2030   60.2074 C   0  0  0  0  0  0  0  0  0  0  0  0
   70.2254   36.7863   59.8521 C   0  0  0  0  0  0  0  0  0  0  0  0
   70.7378   35.6014   60.2356 F   0  0  0  0  0  0  0  0  0  0  0  0
   70.9941   37.6144   59.0703 C   0  0  0  0  0  0  0  0  0  0  0  0
   70.5222   38.8308   58.6510 C   0  0  0  0  0  0  0  0  0  0  0  0
   71.3337   39.6001   57.8805 F   0  0  0  0  0  0  0  0  0  0  0  0
   69.2343   39.2510   59.0179 C   0  0  0  0  0  0  0  0  0  0  0  0
   70.2404   47.2927   57.8229 C   0  0  0  0  0  0  0  0  0  0  0  0
   69.6279   47.4168   56.4788 C   0  0  0  0  0  0  0  0  0  0  0  0
   69.6164   48.5777   55.7594 C   0  0  0  0  0  0  0  0  0  0  0  0
   69.0227   48.6296   54.5043 C   0  0  0  0  0  0  0  0  0  0  0  0
   68.4267   47.5095   53.9524 C   0  0  0  0  0  0  0  0  0  0  0  0
   68.4390   46.3382   54.6825 C   0  0  0  0  0  0  0  0  0  0  0  0
   67.8699   45.1733   54.2029 C   0  0  0  0  0  0  0  0  0  0  0  0
   67.3227   45.1797   53.0756 O   0  0  0  0  0  0  0  0  0  0  0  0
   67.9061   44.0573   54.9408 N   0  0  0  0  0  0  0  0  0  0  0  0
   68.4732   43.9653   56.1600 C   0  0  0  0  0  0  0  0  0  0  0  0
   69.0279   45.1315   56.6091 N   0  0  0  0  0  0  0  0  0  0  0  0
   69.0274   46.2820   55.9265 C   0  0  0  0  0  0  0  0  0  0  0  0
   66.1450   38.4466   60.8648 C   0  0  0  0  0  0  0  0  0  0  0  0
   65.2796   37.5893   59.9335 C   0  0  0  0  0  0  0  0  0  0  0  0
   63.9743   38.0854   59.9064 O   0  0  0  0  0  0  0  0  0  0  0  0
 18 19  1  0
 19 20  2  0
 19 29  1  0
 20 21  1  0
 21 22  2  0
 22 23  1  0
 23 24  1  0
 23 29  2  0
 24 25  2  0
 24 26  1  0
 26 27  1  0
 27  1  1  0
 27 28  2  0
  1  2  1  0
  1  6  1  0
  2  3  1  0
  3  4  1  0
  4  5  1  0
  4  7  1  0
  4 17  1  0
  5  6  1  0
  7  8  2  0
  7  9  1  0
  9 30  1  0
  9 10  1  0
 30 31  1  0
 31 32  1  0
 10 11  1  0
 10 17  2  0
 11 12  2  0
 12 13  1  0
 12 14  1  0
 14 15  2  0
 15 16  1  0
 15 17  1  0
 28 29  1  0
M  END
>  <minimizedAffinity>  (313) 
-8.73057

$$$$
data/reference_output_2/data/smiles/161595.pdb
     RDKit          3D

 32 33  0  0  0  0  0  0  0  0999 V2000
   76.5527   49.6255   56.1694 C   0  0  2  0  0  0  0  0  0  0  0  0
   75.9086   50.8020   55.5007 N   0  0  0  0  0  0  0  0  0  0  0  0
   74.5469   50.8667   55.2963 C   0  0  0  0  0  0  0  0  0  0  0  0
   74.0677   49.7816   55.8671 O   0  0  0  0  0  0  0  0  0  0  0  0
   73.4807   51.6840   54.7019 C   0  0  2  0  0  0  0  0  0  0  0  0
   73.6541   53.1162   54.8557 C   0  0  0  0  0  0  0  0  0  0  0  0
   72.2484   51.1844   55.4360 N   0  0  0  0  0  0  0  0  0  0  0  0
   71.4570   50.1444   55.0249 C   0  0  0  0  0  0  0  0  0  0  0  0
   71.9071   49.7661   53.8424 O   0  0  0  0  0  0  0  0  0  0  0  0
   70.3094   49.3481   55.4609 C   0  0  1  0  0  0  0  0  0  0  0  0
   69.7302   49.5309   56.7251 N   0  0  0  0  0  0  0  0  0  0  0  0
   70.6393   49.4263   57.8486 C   0  0  0  0  0  0  0  0  0  0  0  0
   71.1891   48.0612   58.0948 C   0  0  0  0  0  0  0  0  0  0  0  0
   72.1506   48.0196   59.2356 C   0  0  0  0  0  0  0  0  0  0  0  0
   73.4007   48.8636   59.0245 C   0  0  0  0  0  0  0  0  0  0  0  0
   74.3253   48.7896   60.2081 C   0  0  0  0  0  0  0  0  0  0  0  0
   75.5828   49.5579   60.0141 C   0  0  0  0  0  0  0  0  0  0  0  0
   76.3812   49.0642   58.8357 N   0  0  0  0  0  0  0  0  0  0  0  0
   77.2172   48.0173   59.2636 C   0  0  0  0  0  0  0  0  0  0  0  0
   76.2226   49.6441   57.6128 C   0  0  0  0  0  0  0  0  0  0  0  0
   75.4228   50.6761   57.8572 O   0  0  0  0  0  0  0  0  0  0  0  0
   77.9182   49.4076   55.7289 C   0  0  0  0  0  0  0  0  0  0  0  0
   79.3192   51.3688   56.4528 C   0  0  0  0  0  0  0  0  0  0  0  0
   79.0714   49.8593   56.5353 C   0  0  0  0  0  0  0  0  0  0  0  0
   80.3114   49.0470   56.5220 C   0  0  0  0  0  0  0  0  0  0  0  0
   69.2309   49.5522   54.3879 C   0  0  0  0  0  0  0  0  0  0  0  0
   68.8774   48.3383   53.6675 C   0  0  0  0  0  0  0  0  0  0  0  0
   69.1951   48.1729   52.3373 C   0  0  0  0  0  0  0  0  0  0  0  0
   68.8435   47.0176   51.6663 C   0  0  0  0  0  0  0  0  0  0  0  0
   68.1661   45.9914   52.2958 C   0  0  0  0  0  0  0  0  0  0  0  0
   67.8458   46.1522   53.6276 C   0  0  0  0  0  0  0  0  0  0  0  0
   68.2029   47.3240   54.3051 C   0  0  0  0  0  0  0  0  0  0  0  0
 23 24  1  0
 24 25  1  0
 24 22  1  0
  1 22  1  1
  1  2  1  0
  1 20  1  0
  2  3  1  0
  3  4  2  0
  3  5  1  0
  5  6  1  1
  5  7  1  0
  7  8  1  0
  8  9  2  0
  8 10  1  0
 10 26  1  6
 10 11  1  0
 26 27  1  0
 27 28  2  0
 27 32  1  0
 28 29  1  0
 29 30  2  0
 30 31  1  0
 31 32  2  0
 11 12  1  0
 12 13  1  0
 13 14  1  0
 14 15  1  0
 15 16  1  0
 16 17  1  0
 17 18  1  0
 18 19  1  0
 18 20  1  0
 20 21  2  0
M  CHG  1  11   1
M  END
>  <minimizedAffinity>  (314) 
-8.73045

$$$$
data/reference_output_2/data/smiles/191138.pdb
     RDKit          3D

 26 28  0  0  0  0  0  0  0  0999 V2000
   67.8315   42.4916   56.4226 C   0  0  0  0  0  0  0  0  0  0  0  0
   66.7613   42.1740   55.9244 O   0  0  0  0  0  0  0  0  0  0  0  0
   68.4107   43.7628   56.2636 N   0  0  0  0  0  0  0  0  0  0  0  0
   73.5490   39.0187   59.4386 C   0  0  0  0  0  0  0  0  0  0  0  0
   72.1266   39.1518   58.9493 C   0  0  1  0  0  0  0  0  0  0  0  0
   71.3608   37.9015   59.3133 C   0  0  0  0  0  0  0  0  0  0  0  0
   69.8662   38.1084   59.2361 C   0  0  0  0  0  0  0  0  0  0  0  0
   69.5160   39.3724   58.5808 C   0  0  0  0  0  0  0  0  0  0  0  0
   68.0926   39.8350   57.5074 S   0  0  0  0  0  0  0  0  0  0  0  0
   68.5775   41.4506   57.2610 C   0  0  0  0  0  0  0  0  0  0  0  0
   69.6937   41.5911   57.9291 C   0  0  0  0  0  0  0  0  0  0  0  0
   70.2056   40.5456   58.6187 C   0  0  0  0  0  0  0  0  0  0  0  0
   71.4706   40.4167   59.4742 C   0  0  0  0  0  0  0  0  0  0  0  0
   67.8287   44.7969   55.5286 N   0  0  0  0  0  0  0  0  0  0  0  0
   68.6537   46.2558   55.8814 S   0  0  0  0  0  0  0  0  0  0  0  0
   67.8199   47.1333   56.8048 O   0  0  0  0  0  0  0  0  0  0  0  0
   69.8935   45.8862   56.6544 O   0  0  0  0  0  0  0  0  0  0  0  0
   69.0425   47.2126   54.4810 C   0  0  0  0  0  0  0  0  0  0  0  0
   69.6315   48.4764   54.5791 C   0  0  0  0  0  0  0  0  0  0  0  0
   69.9356   49.2250   53.4761 C   0  0  0  0  0  0  0  0  0  0  0  0
   69.6642   48.7468   52.2044 C   0  0  0  0  0  0  0  0  0  0  0  0
   69.9578   49.4723   51.1031 F   0  0  0  0  0  0  0  0  0  0  0  0
   69.0852   47.5091   52.0722 C   0  0  0  0  0  0  0  0  0  0  0  0
   68.8282   47.0613   50.8166 F   0  0  0  0  0  0  0  0  0  0  0  0
   68.7855   46.7645   53.2033 C   0  0  0  0  0  0  0  0  0  0  0  0
   68.2154   45.5544   52.9901 F   0  0  0  0  0  0  0  0  0  0  0  0
  5  4  1  1
  5  6  1  0
  5 13  1  0
  6  7  1  0
  7  8  1  0
  8  9  1  0
  8 12  2  0
  9 10  1  0
 10  1  1  0
 10 11  2  0
  1  2  2  0
  1  3  1  0
  3 14  1  0
 14 15  1  0
 15 16  2  0
 15 17  2  0
 15 18  1  0
 18 19  2  0
 18 25  1  0
 19 20  1  0
 20 21  2  0
 21 22  1  0
 21 23  1  0
 23 24  1  0
 23 25  2  0
 25 26  1  0
 11 12  1  0
 12 13  1  0
M  END
>  <minimizedAffinity>  (315) 
-8.73028

$$$$
data/reference_output_2/data/smiles/97311.pdb
     RDKit          3D

 29 31  0  0  0  0  0  0  0  0999 V2000
   68.7282   46.6743   54.3732 C   0  0  0  0  0  0  0  0  0  0  0  0
   69.4068   47.8608   54.5542 C   0  0  0  0  0  0  0  0  0  0  0  0
   69.6482   48.7533   53.5309 C   0  0  0  0  0  0  0  0  0  0  0  0
   69.1996   48.4566   52.2855 C   0  0  0  0  0  0  0  0  0  0  0  0
   68.5096   47.2754   52.0460 C   0  0  0  0  0  0  0  0  0  0  0  0
   68.2796   46.3881   53.1048 C   0  0  0  0  0  0  0  0  0  0  0  0
   67.4164   44.8877   52.8638 Cl  0  0  0  0  0  0  0  0  0  0  0  0
   68.3113   44.3975   55.4105 N   0  0  0  0  0  0  0  0  0  0  0  0
   68.5177   45.8000   55.5160 C   0  0  0  0  0  0  0  0  0  0  0  0
   68.5169   46.3023   56.6701 O   0  0  0  0  0  0  0  0  0  0  0  0
   67.2729   41.9002   55.2442 O   0  0  0  0  0  0  0  0  0  0  0  0
   67.5619   42.2613   56.4195 C   0  0  0  0  0  0  0  0  0  0  0  0
   68.1087   43.5700   56.5328 N   0  0  0  0  0  0  0  0  0  0  0  0
   67.3426   41.3822   57.5637 C   0  0  0  0  0  0  0  0  0  0  0  0
   66.5735   41.6796   58.6332 C   0  0  0  0  0  0  0  0  0  0  0  0
   66.4448   40.7517   59.6663 C   0  0  0  0  0  0  0  0  0  0  0  0
   67.0838   39.5258   59.6338 C   0  0  0  0  0  0  0  0  0  0  0  0
   66.9702   38.6125   60.6311 F   0  0  0  0  0  0  0  0  0  0  0  0
   67.8692   39.2154   58.5467 C   0  0  0  0  0  0  0  0  0  0  0  0
   67.9831   40.1440   57.5363 C   0  0  0  0  0  0  0  0  0  0  0  0
   70.5372   50.2352   53.9305 S   0  0  0  0  0  0  0  0  0  0  0  0
   71.9829   49.8653   53.9188 O   0  0  0  0  0  0  0  0  0  0  0  0
   70.2248   51.2353   52.8236 O   0  0  0  0  0  0  0  0  0  0  0  0
   69.9618   50.8144   55.3724 N   0  0  0  0  0  0  0  0  0  0  0  0
   68.9404   51.7725   55.4189 C   0  0  0  0  0  0  0  0  0  0  0  0
   68.0274   51.3683   56.5899 C   0  0  0  0  0  0  0  0  0  0  0  0
   68.7263   51.0990   57.7406 O   0  0  0  0  0  0  0  0  0  0  0  0
   69.7226   50.1502   57.6115 C   0  0  0  0  0  0  0  0  0  0  0  0
   70.6941   50.7120   56.5578 C   0  0  0  0  0  0  0  0  0  0  0  0
 11 12  2  0
 12 13  1  0
 12 14  1  0
 13  8  1  0
  8  9  1  0
  9 10  2  0
  9  1  1  0
  1  2  2  0
  1  6  1  0
  2  3  1  0
  3 21  1  0
  3  4  2  0
 21 22  2  0
 21 23  2  0
 21 24  1  0
 24 25  1  0
 24 29  1  0
 25 26  1  0
 26 27  1  0
 27 28  1  0
 28 29  1  0
  4  5  1  0
  5  6  2  0
  6  7  1  0
 14 15  2  0
 14 20  1  0
 15 16  1  0
 16 17  2  0
 17 18  1  0
 17 19  1  0
 19 20  2  0
M  END
>  <minimizedAffinity>  (316) 
-8.72991

$$$$
data/200k_reference_output/data/smiles/4402.pdb
     RDKit          3D

 25 28  0  0  0  0  0  0  0  0999 V2000
   70.2965   46.2176   58.0227 O   0  0  0  0  0  0  0  0  0  0  0  0
   69.5073   46.1650   57.0306 C   0  0  0  0  0  0  0  0  0  0  0  0
   69.0534   44.9003   56.5628 N   0  0  0  0  0  0  0  0  0  0  0  0
   69.5139   43.7633   57.2410 N   0  0  0  0  0  0  0  0  0  0  0  0
   68.9323   42.6142   57.1391 C   0  0  0  0  0  0  0  0  0  0  0  0
   67.7671   42.3513   56.3396 C   0  0  0  0  0  0  0  0  0  0  0  0
   67.1677   43.2093   55.6380 O   0  0  0  0  0  0  0  0  0  0  0  0
   67.4660   40.9729   56.5155 N   0  0  0  0  0  0  0  0  0  0  0  0
   68.3957   40.3533   57.3956 C   0  0  0  0  0  0  0  0  0  0  0  0
   68.5335   39.0620   57.8773 C   0  0  0  0  0  0  0  0  0  0  0  0
   69.5510   38.7123   58.7440 C   0  0  0  0  0  0  0  0  0  0  0  0
   70.4325   39.7106   59.1161 C   0  0  0  0  0  0  0  0  0  0  0  0
   71.8435   39.2482   60.3127 Br  0  0  0  0  0  0  0  0  0  0  0  0
   70.2985   40.9990   58.6387 C   0  0  0  0  0  0  0  0  0  0  0  0
   69.2810   41.3433   57.7722 C   0  0  0  0  0  0  0  0  0  0  0  0
   69.0912   47.4479   56.3948 C   0  0  0  0  0  0  0  0  0  0  0  0
   68.9155   47.2876   54.9480 C   0  0  0  0  0  0  0  0  0  0  0  0
   69.5951   48.0810   54.0748 C   0  0  0  0  0  0  0  0  0  0  0  0
   69.4462   47.9488   52.7171 C   0  0  0  0  0  0  0  0  0  0  0  0
   68.5811   46.9822   52.1972 C   0  0  0  0  0  0  0  0  0  0  0  0
   67.8826   46.1676   53.0690 C   0  0  0  0  0  0  0  0  0  0  0  0
   68.0573   46.3297   54.4252 C   0  0  0  0  0  0  0  0  0  0  0  0
   67.1065   45.3091   52.3005 O   0  0  0  0  0  0  0  0  0  0  0  0
   67.0922   45.7668   50.9404 C   0  0  0  0  0  0  0  0  0  0  0  0
   68.2333   46.6235   50.8942 O   0  0  0  0  0  0  0  0  0  0  0  0
  1  2  2  0
  2 16  1  0
  2  3  1  0
 16 17  1  0
 17 18  2  0
 17 22  1  0
 18 19  1  0
 19 20  2  0
 20 21  1  0
 20 25  1  0
 21 22  2  0
 21 23  1  0
 23 24  1  0
 24 25  1  0
  3  4  1  0
  4  5  2  0
  5  6  1  0
  5 15  1  0
  6  7  2  0
  6  8  1  0
  8  9  1  0
  9 10  1  0
  9 15  2  0
 10 11  2  0
 11 12  1  0
 12 13  1  0
 12 14  2  0
 14 15  1  0
M  END
>  <minimizedAffinity>  (317) 
-8.72922

$$$$
data/reference_output_2/data/smiles/134590.pdb
     RDKit          3D

 28 31  0  0  0  0  0  0  0  0999 V2000
   71.7380   45.7083   58.7855 O   0  0  0  0  0  0  0  0  0  0  0  0
   70.6189   45.2572   58.4350 C   0  0  0  0  0  0  0  0  0  0  0  0
   69.7543   46.1165   57.7198 N   0  0  0  0  0  0  0  0  0  0  0  0
   70.2890   43.8648   58.7966 C   0  0  2  0  0  0  0  0  0  0  0  0
   71.4150   42.8950   58.5009 C   0  0  0  0  0  0  0  0  0  0  0  0
   70.6788   41.6129   58.3908 C   0  0  0  0  0  0  0  0  0  0  0  0
   69.3684   41.9302   58.1132 C   0  0  0  0  0  0  0  0  0  0  0  0
   68.4831   40.8826   57.9637 C   0  0  0  0  0  0  0  0  0  0  0  0
   68.8537   39.5589   58.0813 C   0  0  0  0  0  0  0  0  0  0  0  0
   70.1841   39.2445   58.3631 C   0  0  0  0  0  0  0  0  0  0  0  0
   70.5969   37.9346   58.4891 C   0  0  0  0  0  0  0  0  0  0  0  0
   71.9150   37.6058   58.7696 C   0  0  0  0  0  0  0  0  0  0  0  0
   72.8040   38.6443   58.9196 C   0  0  0  0  0  0  0  0  0  0  0  0
   72.3929   39.9517   58.7939 C   0  0  0  0  0  0  0  0  0  0  0  0
   71.0704   40.2993   58.5125 C   0  0  0  0  0  0  0  0  0  0  0  0
   69.2402   43.3328   58.0428 O   0  0  0  0  0  0  0  0  0  0  0  0
   70.0822   47.4318   57.3853 N   0  0  0  0  0  0  0  0  0  0  0  0
   68.7309   48.1323   56.5756 S   0  0  0  0  0  0  0  0  0  0  0  0
   67.4519   47.5654   57.1664 O   0  0  0  0  0  0  0  0  0  0  0  0
   68.6965   49.6190   56.8034 O   0  0  0  0  0  0  0  0  0  0  0  0
   68.7772   47.7382   54.8706 C   0  0  0  0  0  0  0  0  0  0  0  0
   69.1805   48.6579   53.9234 C   0  0  0  0  0  0  0  0  0  0  0  0
   69.2223   48.3575   52.5722 C   0  0  0  0  0  0  0  0  0  0  0  0
   68.8509   47.1005   52.1396 C   0  0  0  0  0  0  0  0  0  0  0  0
   68.8758   46.7565   50.8174 F   0  0  0  0  0  0  0  0  0  0  0  0
   68.4486   46.1721   53.0570 C   0  0  0  0  0  0  0  0  0  0  0  0
   68.4142   46.4927   54.4035 C   0  0  0  0  0  0  0  0  0  0  0  0
   68.0122   45.5576   55.2850 F   0  0  0  0  0  0  0  0  0  0  0  0
  1  2  2  0
  2  3  1  0
  4  2  1  6
  3 17  1  0
 17 18  1  0
 18 19  2  0
 18 20  2  0
 18 21  1  0
 21 22  2  0
 21 27  1  0
 22 23  1  0
 23 24  2  0
 24 25  1  0
 24 26  1  0
 26 27  2  0
 27 28  1  0
  4  5  1  0
  4 16  1  0
  5  6  1  0
  6  7  2  0
  6 15  1  0
  7  8  1  0
  7 16  1  0
  8  9  2  0
  9 10  1  0
 10 11  1  0
 10 15  2  0
 11 12  2  0
 12 13  1  0
 13 14  2  0
 14 15  1  0
M  END
>  <minimizedAffinity>  (318) 
-8.72825

$$$$
data/reference_output_2/data/smiles/156711.pdb
     RDKit          3D

 31 34  0  0  0  0  0  0  0  0999 V2000
   70.7894   45.2216   58.8313 C   0  0  2  0  0  0  0  0  0  0  0  0
   71.8404   45.6807   59.8326 C   0  0  0  0  0  0  0  0  0  0  0  0
   73.1697   45.4476   59.1684 C   0  0  0  0  0  0  0  0  0  0  0  0
   72.7875   44.9342   57.7716 C   0  0  0  0  0  0  0  0  0  0  0  0
   71.5365   44.2703   58.0753 N   0  0  0  0  0  0  0  0  0  0  0  0
   71.1933   42.9806   57.6797 C   0  0  0  0  0  0  0  0  0  0  0  0
   72.0788   42.3866   56.9436 O   0  0  0  0  0  0  0  0  0  0  0  0
   69.9910   42.2099   57.9753 C   0  0  1  0  0  0  0  0  0  0  0  0
   69.4209   42.7132   59.1726 O   0  0  0  0  0  0  0  0  0  0  0  0
   68.9099   42.3856   56.9297 C   0  0  0  0  0  0  0  0  0  0  0  0
   67.7145   41.5280   57.1427 C   0  0  0  0  0  0  0  0  0  0  0  0
   67.7510   40.6671   58.3756 C   0  0  0  0  0  0  0  0  0  0  0  0
   69.0722   39.9932   58.4251 C   0  0  0  0  0  0  0  0  0  0  0  0
   69.1164   38.6469   58.6716 C   0  0  0  0  0  0  0  0  0  0  0  0
   70.3467   38.0393   58.7211 C   0  0  0  0  0  0  0  0  0  0  0  0
   71.4474   38.8281   58.5188 C   0  0  0  0  0  0  0  0  0  0  0  0
   71.3755   40.1471   58.2781 N   0  0  0  0  0  0  0  0  0  0  0  0
   70.1918   40.7718   58.2226 C   0  0  0  0  0  0  0  0  0  0  0  0
   69.4695   46.3049   56.9710 N   0  0  0  0  0  0  0  0  0  0  0  0
   70.3597   46.4197   58.0602 C   0  0  0  0  0  0  0  0  0  0  0  0
   70.8005   47.5491   58.3909 O   0  0  0  0  0  0  0  0  0  0  0  0
   69.0732   47.4487   56.2528 C   0  0  0  0  0  0  0  0  0  0  0  0
   69.5569   48.2292   53.9122 C   0  0  0  0  0  0  0  0  0  0  0  0
   69.3875   48.0096   52.5611 C   0  0  0  0  0  0  0  0  0  0  0  0
   68.6651   46.9429   52.0589 C   0  0  0  0  0  0  0  0  0  0  0  0
   68.0959   46.0722   52.9365 C   0  0  0  0  0  0  0  0  0  0  0  0
   67.1785   44.7161   52.3120 Cl  0  0  0  0  0  0  0  0  0  0  0  0
   68.2606   46.2856   54.2880 C   0  0  0  0  0  0  0  0  0  0  0  0
   68.9791   47.3452   54.8106 C   0  0  0  0  0  0  0  0  0  0  0  0
   71.4845   49.6716   53.6472 N   0  0  0  0  0  0  0  0  0  0  0  0
   70.3293   49.3702   54.4695 C   0  0  0  0  0  0  0  0  0  0  0  0
 30 31  1  0
 31 23  1  0
 23 24  2  0
 23 29  1  0
 24 25  1  0
 25 26  2  0
 26 27  1  0
 26 28  1  0
 28 29  2  0
 29 22  1  0
 22 19  1  0
 19 20  1  0
 20 21  2  0
  1 20  1  6
  1  2  1  0
  1  5  1  0
  2  3  1  0
  3  4  1  0
  4  5  1  0
  5  6  1  0
  6  7  2  0
  8  6  1  0
  8  9  1  1
  8 10  1  0
  8 18  1  0
 10 11  1  0
 11 12  1  0
 12 13  1  0
 13 14  2  0
 13 18  1  0
 14 15  1  0
 15 16  2  0
 16 17  1  0
 17 18  2  0
M  CHG  1  30   1
M  END
>  <minimizedAffinity>  (319) 
-8.72775

$$$$
data/reference_output_2/data/smiles/174841.pdb
     RDKit          3D

 32 35  0  0  0  0  0  0  0  0999 V2000
   71.3084   47.6891   58.2898 C   0  0  0  0  0  0  0  0  0  0  0  0
   72.5176   47.6828   57.8350 O   0  0  0  0  0  0  0  0  0  0  0  0
   71.0015   47.0129   59.4844 N   0  0  0  0  0  0  0  0  0  0  0  0
   72.0753   46.3136   60.2143 C   0  0  2  0  0  0  0  0  0  0  0  0
   73.0881   47.2886   60.6760 C   0  0  0  0  0  0  0  0  0  0  0  0
   72.8625   47.7628   61.8210 O   0  0  0  0  0  0  0  0  0  0  0  0
   74.2632   47.7845   60.0606 N   0  0  0  0  0  0  0  0  0  0  0  0
   74.8794   49.0567   60.4438 C   0  0  0  0  0  0  0  0  0  0  0  0
   76.3561   48.6760   60.2842 C   0  0  0  0  0  0  0  0  0  0  0  0
   76.2784   47.8441   59.0027 C   0  0  0  0  0  0  0  0  0  0  0  0
   74.9983   47.1918   59.0498 N   0  0  0  0  0  0  0  0  0  0  0  0
   75.2260   45.7836   59.3610 C   0  0  0  0  0  0  0  0  0  0  0  0
   73.9918   45.0598   58.9723 C   0  0  0  0  0  0  0  0  0  0  0  0
   74.3079   44.0232   58.1227 C   0  0  0  0  0  0  0  0  0  0  0  0
   73.3239   43.1876   57.6087 C   0  0  0  0  0  0  0  0  0  0  0  0
   72.0237   43.4191   57.9696 C   0  0  0  0  0  0  0  0  0  0  0  0
   71.7026   44.4503   58.8163 C   0  0  0  0  0  0  0  0  0  0  0  0
   72.6867   45.2947   59.3356 C   0  0  0  0  0  0  0  0  0  0  0  0
   70.3215   48.4117   57.5096 C   0  0  2  0  0  0  0  0  0  0  0  0
   70.2193   49.8319   58.1131 C   0  0  0  0  0  0  0  0  0  0  0  0
   68.9544   47.8983   57.4153 C   0  0  0  0  0  0  0  0  0  0  0  0
   69.3037   47.4972   55.0172 N   0  0  0  0  0  0  0  0  0  0  0  0
   68.3815   47.5133   56.1447 C   0  0  0  0  0  0  0  0  0  0  0  0
   67.2283   47.1904   55.8420 O   0  0  0  0  0  0  0  0  0  0  0  0
   70.0345   49.1202   52.7271 C   0  0  0  0  0  0  0  0  0  0  0  0
   69.1848   47.8839   52.6082 C   0  0  0  0  0  0  0  0  0  0  0  0
   68.7223   47.4761   51.4159 N   0  0  0  0  0  0  0  0  0  0  0  0
   67.9656   46.3771   51.3052 C   0  0  0  0  0  0  0  0  0  0  0  0
   67.6101   45.5934   52.3904 C   0  0  0  0  0  0  0  0  0  0  0  0
   66.8521   44.5060   52.2215 F   0  0  0  0  0  0  0  0  0  0  0  0
   68.0791   46.0032   53.6215 C   0  0  0  0  0  0  0  0  0  0  0  0
   68.8573   47.1364   53.7195 C   0  0  0  0  0  0  0  0  0  0  0  0
 25 26  1  0
 26 27  2  0
 26 32  1  0
 27 28  1  0
 28 29  2  0
 29 30  1  0
 29 31  1  0
 31 32  2  0
 32 22  1  0
 22 23  1  0
 23 24  2  0
 23 21  1  0
 21 19  1  0
 19 20  1  1
 19  1  1  0
  1  2  2  0
  1  3  1  0
  4  3  1  6
  4  5  1  0
  4 18  1  0
  5  6  2  0
  5  7  1  0
  7  8  1  0
  8  9  1  0
  9 10  1  0
 10 11  1  0
 11  7  1  0
 11 12  1  0
 12 13  1  0
 13 14  1  0
 13 18  2  0
 14 15  2  0
 15 16  1  0
 16 17  2  0
 17 18  1  0
M  END
>  <minimizedAffinity>  (320) 
-8.72560

$$$$
data/reference_output_2/data/smiles/150472.pdb
     RDKit          3D

 31 34  0  0  0  0  0  0  0  0999 V2000
   73.0808   46.8238   60.7655 C   0  0  0  0  0  0  0  0  0  0  0  0
   72.2790   47.2478   59.5978 C   0  0  0  0  0  0  0  0  0  0  0  0
   71.5229   46.2708   59.0060 N   0  0  0  0  0  0  0  0  0  0  0  0
   70.6999   46.5710   57.9936 C   0  0  0  0  0  0  0  0  0  0  0  0
   70.6413   47.8808   57.5758 C   0  0  0  0  0  0  0  0  0  0  0  0
   71.3941   48.8850   58.1569 C   0  0  0  0  0  0  0  0  0  0  0  0
   72.2509   48.5640   59.2072 C   0  0  0  0  0  0  0  0  0  0  0  0
   71.2511   50.2501   57.6680 C   0  0  0  0  0  0  0  0  0  0  0  0
   71.2083   50.2816   56.1574 C   0  0  0  0  0  0  0  0  0  0  0  0
   70.3955   49.2313   55.6078 N   0  0  0  0  0  0  0  0  0  0  0  0
   70.2266   49.1541   54.2071 C   0  0  0  0  0  0  0  0  0  0  0  0
   70.7862   50.0109   53.4422 O   0  0  0  0  0  0  0  0  0  0  0  0
   69.7468   48.2320   56.4400 C   0  0  0  0  0  0  0  0  0  0  0  0
   69.4153   48.1008   53.6276 C   0  0  0  0  0  0  0  0  0  0  0  0
   68.5034   47.3390   54.3165 C   0  0  0  0  0  0  0  0  0  0  0  0
   67.7477   46.3533   53.6835 C   0  0  0  0  0  0  0  0  0  0  0  0
   67.8788   46.0933   52.3385 C   0  0  0  0  0  0  0  0  0  0  0  0
   67.1596   45.1443   51.6931 F   0  0  0  0  0  0  0  0  0  0  0  0
   68.8046   46.8650   51.6422 C   0  0  0  0  0  0  0  0  0  0  0  0
   69.5447   47.8338   52.2649 C   0  0  0  0  0  0  0  0  0  0  0  0
   70.4414   48.5651   51.5648 F   0  0  0  0  0  0  0  0  0  0  0  0
   73.1375   49.6060   59.7206 C   0  0  0  0  0  0  0  0  0  0  0  0
   74.5406   49.4499   59.4287 N   0  0  0  0  0  0  0  0  0  0  0  0
   75.4209   50.4982   59.1304 C   0  0  0  0  0  0  0  0  0  0  0  0
   75.0753   51.6798   59.1052 O   0  0  0  0  0  0  0  0  0  0  0  0
   76.8441   50.1682   58.8293 C   0  0  0  0  0  0  0  0  0  0  0  0
   77.2151   50.5501   57.4906 N   0  0  0  0  0  0  0  0  0  0  0  0
   76.6836   49.7205   56.4789 C   0  0  0  0  0  0  0  0  0  0  0  0
   77.7835   49.3387   55.5623 C   0  0  0  0  0  0  0  0  0  0  0  0
   79.0040   50.0491   56.0831 C   0  0  0  0  0  0  0  0  0  0  0  0
   78.5864   50.8236   57.2884 C   0  0  0  0  0  0  0  0  0  0  0  0
  1  2  1  0
  2  3  2  0
  2  7  1  0
  3  4  1  0
  4  5  2  0
  5  6  1  0
  5 13  1  0
  6  7  2  0
  6  8  1  0
  7 22  1  0
 22 23  1  0
 23 24  1  0
 24 25  2  0
 24 26  1  0
 26 27  1  0
 27 28  1  0
 27 31  1  0
 28 29  1  0
 29 30  1  0
 30 31  1  0
  8  9  1  0
  9 10  1  0
 10 11  1  0
 10 13  1  0
 11 12  2  0
 11 14  1  0
 14 15  2  0
 14 20  1  0
 15 16  1  0
 16 17  2  0
 17 18  1  0
 17 19  1  0
 19 20  2  0
 20 21  1  0
M  CHG  1  27   1
M  END
>  <minimizedAffinity>  (321) 
-8.72480

$$$$
data/200k_reference_output/data/smiles/44301.pdb
     RDKit          3D

 27 29  0  0  0  0  0  0  0  0999 V2000
   69.7039   43.6811   57.3520 N   0  0  0  0  0  0  0  0  0  0  0  0
   69.1801   42.5321   57.3896 C   0  0  0  0  0  0  0  0  0  0  0  0
   67.8371   42.2244   56.9287 C   0  0  0  0  0  0  0  0  0  0  0  0
   66.9647   42.9919   56.4632 O   0  0  0  0  0  0  0  0  0  0  0  0
   67.6862   40.8074   57.1218 N   0  0  0  0  0  0  0  0  0  0  0  0
   68.8791   40.2512   57.6802 C   0  0  0  0  0  0  0  0  0  0  0  0
   69.1958   38.9503   58.0453 C   0  0  0  0  0  0  0  0  0  0  0  0
   70.4378   38.6742   58.5874 C   0  0  0  0  0  0  0  0  0  0  0  0
   71.3834   39.6749   58.7795 C   0  0  0  0  0  0  0  0  0  0  0  0
   71.0207   40.9460   58.3984 C   0  0  0  0  0  0  0  0  0  0  0  0
   72.1583   42.2459   58.6108 Cl  0  0  0  0  0  0  0  0  0  0  0  0
   69.7936   41.2691   57.8528 C   0  0  0  0  0  0  0  0  0  0  0  0
   70.6928   46.3584   57.6741 O   0  0  0  0  0  0  0  0  0  0  0  0
   69.6434   46.1626   57.0503 C   0  0  0  0  0  0  0  0  0  0  0  0
   69.1502   44.8642   56.8826 N   0  0  0  0  0  0  0  0  0  0  0  0
   68.8834   47.3051   56.4578 C   0  0  0  0  0  0  0  0  0  0  0  0
   68.7112   47.1219   54.9679 C   0  0  0  0  0  0  0  0  0  0  0  0
   68.0286   46.0660   54.4330 C   0  0  0  0  0  0  0  0  0  0  0  0
   67.9306   45.9266   53.0650 C   0  0  0  0  0  0  0  0  0  0  0  0
   68.5305   46.8655   52.2167 C   0  0  0  0  0  0  0  0  0  0  0  0
   68.4375   46.7308   50.8310 O   0  0  0  0  0  0  0  0  0  0  0  0
   69.2094   47.9185   52.7802 C   0  0  0  0  0  0  0  0  0  0  0  0
   69.9938   49.1289   51.7260 Cl  0  0  0  0  0  0  0  0  0  0  0  0
   69.2974   48.0426   54.1255 C   0  0  0  0  0  0  0  0  0  0  0  0
   72.6795   39.3744   59.3833 C   0  0  0  0  0  0  0  0  0  0  0  0
   73.1811   39.9948   60.3331 O   0  0  0  0  0  0  0  0  0  0  0  0
   73.4213   38.3122   58.8645 O   0  0  0  0  0  0  0  0  0  0  0  0
 13 14  2  0
 14 16  1  0
 14 15  1  0
 16 17  1  0
 17 18  2  0
 17 24  1  0
 18 19  1  0
 19 20  2  0
 20 21  1  0
 20 22  1  0
 22 23  1  0
 22 24  2  0
 15  1  1  0
  1  2  2  0
  2  3  1  0
  2 12  1  0
  3  4  2  0
  3  5  1  0
  5  6  1  0
  6  7  1  0
  6 12  2  0
  7  8  2  0
  8  9  1  0
  9 25  1  0
  9 10  2  0
 25 26  2  0
 25 27  1  0
 10 11  1  0
 10 12  1  0
M  END
>  <minimizedAffinity>  (322) 
-8.72435

$$$$
data/200k_reference_output/data/smiles/83949.pdb
     RDKit          3D

 28 30  0  0  0  0  0  0  0  0999 V2000
   70.9607   38.9582   59.1804 C   0  0  0  0  0  0  0  0  0  0  0  0
   71.2539   40.3344   58.6956 C   0  0  0  0  0  0  0  0  0  0  0  0
   70.2755   41.1134   58.1129 C   0  0  0  0  0  0  0  0  0  0  0  0
   70.5279   42.4139   57.6476 C   0  0  0  0  0  0  0  0  0  0  0  0
   71.8056   42.8546   57.8111 C   0  0  0  0  0  0  0  0  0  0  0  0
   72.1270   44.0798   57.3950 F   0  0  0  0  0  0  0  0  0  0  0  0
   72.8359   42.1175   58.3903 C   0  0  0  0  0  0  0  0  0  0  0  0
   72.5283   40.8568   58.8242 C   0  0  0  0  0  0  0  0  0  0  0  0
   74.1781   42.6908   58.5173 C   0  0  0  0  0  0  0  0  0  0  0  0
   75.3164   42.0355   58.1540 C   0  0  0  0  0  0  0  0  0  0  0  0
   76.5636   42.6592   58.3091 C   0  0  0  0  0  0  0  0  0  0  0  0
   76.6795   43.9330   58.8238 C   0  0  0  0  0  0  0  0  0  0  0  0
   75.5008   44.5568   59.1773 C   0  0  0  0  0  0  0  0  0  0  0  0
   74.3148   43.9459   59.0227 N   0  0  0  0  0  0  0  0  0  0  0  0
   69.4184   43.1188   57.0598 C   0  0  0  0  0  0  0  0  0  0  0  0
   68.3518   42.4962   56.7195 O   0  0  0  0  0  0  0  0  0  0  0  0
   69.4001   44.5066   56.8127 N   0  0  0  0  0  0  0  0  0  0  0  0
   68.2894   45.1555   56.2342 N   0  0  0  0  0  0  0  0  0  0  0  0
   68.5978   46.8002   55.9130 S   0  0  0  0  0  0  0  0  0  0  0  0
   67.4296   47.5996   56.4104 O   0  0  0  0  0  0  0  0  0  0  0  0
   69.7887   47.2405   56.7349 O   0  0  0  0  0  0  0  0  0  0  0  0
   68.8797   47.1654   54.2607 C   0  0  0  0  0  0  0  0  0  0  0  0
   69.6287   48.2743   53.9272 C   0  0  0  0  0  0  0  0  0  0  0  0
   69.9015   48.6389   52.6310 C   0  0  0  0  0  0  0  0  0  0  0  0
   69.4113   47.8697   51.5804 C   0  0  0  0  0  0  0  0  0  0  0  0
   68.6659   46.7651   51.9001 C   0  0  0  0  0  0  0  0  0  0  0  0
   68.4018   46.4153   53.2036 C   0  0  0  0  0  0  0  0  0  0  0  0
   67.6619   45.3190   53.5373 F   0  0  0  0  0  0  0  0  0  0  0  0
  1  2  1  0
  2  3  2  0
  2  8  1  0
  3  4  1  0
  4 15  1  0
  4  5  2  0
 15 16  2  0
 15 17  1  0
 17 18  1  0
 18 19  1  0
 19 20  2  0
 19 21  2  0
 19 22  1  0
 22 23  2  0
 22 27  1  0
 23 24  1  0
 24 25  2  0
 25 26  1  0
 26 27  2  0
 27 28  1  0
  5  6  1  0
  5  7  1  0
  7  9  1  0
  7  8  2  0
  9 10  2  0
  9 14  1  0
 10 11  1  0
 11 12  2  0
 12 13  1  0
 13 14  2  0
M  END
>  <minimizedAffinity>  (323) 
-8.72381

$$$$
data/reference_output_2/data/smiles/190639.pdb
     RDKit          3D

 27 29  0  0  0  0  0  0  0  0999 V2000
   69.3831   47.1918   56.7692 C   0  0  0  0  0  0  0  0  0  0  0  0
   69.9480   48.3712   57.1970 C   0  0  0  0  0  0  0  0  0  0  0  0
   71.0369   48.3857   58.0581 C   0  0  0  0  0  0  0  0  0  0  0  0
   71.5376   47.1782   58.4742 C   0  0  0  0  0  0  0  0  0  0  0  0
   71.0206   45.9617   58.0843 C   0  0  0  0  0  0  0  0  0  0  0  0
   69.9300   46.0140   57.2204 C   0  0  0  0  0  0  0  0  0  0  0  0
   69.3643   44.8601   56.7907 F   0  0  0  0  0  0  0  0  0  0  0  0
   67.1125   47.5347   56.2956 O   0  0  0  0  0  0  0  0  0  0  0  0
   68.2440   47.1972   55.8676 C   0  0  0  0  0  0  0  0  0  0  0  0
   68.4011   46.8137   54.4727 C   0  0  0  0  0  0  0  0  0  0  0  0
   67.9100   45.7043   53.8200 C   0  0  0  0  0  0  0  0  0  0  0  0
   68.2945   45.7342   52.5087 N   0  0  0  0  0  0  0  0  0  0  0  0
   69.0253   46.8409   52.2984 C   0  0  0  0  0  0  0  0  0  0  0  0
   69.6443   47.3707   51.2339 N   0  0  0  0  0  0  0  0  0  0  0  0
   70.3321   48.5373   51.3091 C   0  0  0  0  0  0  0  0  0  0  0  0
   70.4060   49.1967   52.4790 N   0  0  0  0  0  0  0  0  0  0  0  0
   69.8016   48.7045   53.5703 C   0  0  0  0  0  0  0  0  0  0  0  0
   69.0999   47.5184   53.5033 C   0  0  0  0  0  0  0  0  0  0  0  0
   71.5376   44.7093   58.5066 N   0  0  0  0  0  0  0  0  0  0  0  0
   70.8658   43.7656   59.7664 S   0  0  0  0  0  0  0  0  0  0  0  0
   71.2836   44.2881   61.1109 O   0  0  0  0  0  0  0  0  0  0  0  0
   69.3625   43.7700   59.7396 O   0  0  0  0  0  0  0  0  0  0  0  0
   71.3541   42.0504   59.6405 C   0  0  0  0  0  0  0  0  0  0  0  0
   71.3914   41.7052   58.1549 C   0  0  0  0  0  0  0  0  0  0  0  0
   71.4324   40.3326   57.9723 F   0  0  0  0  0  0  0  0  0  0  0  0
   72.5323   42.2156   57.5805 F   0  0  0  0  0  0  0  0  0  0  0  0
   70.2845   42.2060   57.5201 F   0  0  0  0  0  0  0  0  0  0  0  0
  8  9  2  0
  9  1  1  0
  9 10  1  0
  1  2  2  0
  1  6  1  0
  2  3  1  0
  3  4  2  0
  4  5  1  0
  5 19  1  0
  5  6  2  0
 19 20  1  0
 20 21  2  0
 20 22  2  0
 20 23  1  0
 23 24  1  0
 24 25  1  0
 24 26  1  0
 24 27  1  0
  6  7  1  0
 10 11  2  0
 10 18  1  0
 11 12  1  0
 12 13  1  0
 13 14  1  0
 13 18  2  0
 14 15  2  0
 15 16  1  0
 16 17  2  0
 17 18  1  0
M  END
>  <minimizedAffinity>  (324) 
-8.72159

$$$$
data/reference_output_2/data/smiles/179177.pdb
     RDKit          3D

 29 31  0  0  0  0  0  0  0  0999 V2000
   69.8473   39.7843   58.9052 C   0  0  0  0  0  0  0  0  0  0  0  0
   68.8062   39.0757   58.3481 C   0  0  0  0  0  0  0  0  0  0  0  0
   67.9748   39.6848   57.4247 C   0  0  0  0  0  0  0  0  0  0  0  0
   68.2030   41.0187   57.0680 C   0  0  0  0  0  0  0  0  0  0  0  0
   69.2353   41.7372   57.6154 C   0  0  0  0  0  0  0  0  0  0  0  0
   70.0358   41.0899   58.5278 C   0  0  0  0  0  0  0  0  0  0  0  0
   70.8730   38.9812   60.0673 S   0  0  0  0  0  0  0  0  0  0  0  0
   72.3006   39.3051   59.8314 O   0  0  0  0  0  0  0  0  0  0  0  0
   70.4899   39.4063   61.4741 O   0  0  0  0  0  0  0  0  0  0  0  0
   69.5742   36.6075   60.7148 C   0  0  0  0  0  0  0  0  0  0  0  0
   70.5801   37.2784   59.9275 N   0  0  0  0  0  0  0  0  0  0  0  0
   71.3396   36.4749   59.0090 C   0  0  0  0  0  0  0  0  0  0  0  0
   71.9074   37.0665   57.8998 C   0  0  0  0  0  0  0  0  0  0  0  0
   72.6256   36.2675   57.0458 C   0  0  0  0  0  0  0  0  0  0  0  0
   72.7647   34.9160   57.3034 C   0  0  0  0  0  0  0  0  0  0  0  0
   72.1857   34.3478   58.4222 C   0  0  0  0  0  0  0  0  0  0  0  0
   71.4592   35.1288   59.2953 C   0  0  0  0  0  0  0  0  0  0  0  0
   69.4413   43.1190   57.2212 C   0  0  0  0  0  0  0  0  0  0  0  0
   70.5708   43.6681   57.4596 O   0  0  0  0  0  0  0  0  0  0  0  0
   68.4824   43.9329   56.5821 N   0  0  0  0  0  0  0  0  0  0  0  0
   68.7482   45.2755   56.2238 N   0  0  0  0  0  0  0  0  0  0  0  0
   68.4694   45.7780   54.9362 C   0  0  0  0  0  0  0  0  0  0  0  0
   67.9722   44.9989   54.0983 O   0  0  0  0  0  0  0  0  0  0  0  0
   68.7306   47.1623   54.5283 C   0  0  0  0  0  0  0  0  0  0  0  0
   68.9050   47.5291   53.2089 C   0  0  0  0  0  0  0  0  0  0  0  0
   69.1536   48.8492   52.8352 C   0  0  0  0  0  0  0  0  0  0  0  0
   69.2285   49.8265   53.8019 C   0  0  0  0  0  0  0  0  0  0  0  0
   69.0593   49.4973   55.1271 C   0  0  0  0  0  0  0  0  0  0  0  0
   68.8159   48.1804   55.4563 C   0  0  0  0  0  0  0  0  0  0  0  0
 10 11  1  0
 11 12  1  0
 11  7  1  0
 12 13  2  0
 12 17  1  0
 13 14  1  0
 14 15  2  0
 15 16  1  0
 16 17  2  0
  7  8  2  0
  7  9  2  0
  7  1  1  0
  1  2  2  0
  1  6  1  0
  2  3  1  0
  3  4  2  0
  4  5  1  0
  5 18  1  0
  5  6  2  0
 18 19  2  0
 18 20  1  0
 20 21  1  0
 21 22  1  0
 22 23  2  0
 22 24  1  0
 24 25  2  0
 24 29  1  0
 25 26  1  0
 26 27  2  0
 27 28  1  0
 28 29  2  0
M  END
>  <minimizedAffinity>  (325) 
-8.72147

$$$$
data/reference_output_2/data/smiles/144962.pdb
     RDKit          3D

 29 31  0  0  0  0  0  0  0  0999 V2000
   69.8163   43.2784   57.8801 C   0  0  0  0  0  0  0  0  0  0  0  0
   71.1511   42.5452   57.8321 C   0  0  0  0  0  0  0  0  0  0  0  0
   70.9266   41.2828   58.6704 C   0  0  0  0  0  0  0  0  0  0  0  0
   69.9234   40.4482   58.0450 N   0  0  0  0  0  0  0  0  0  0  0  0
   68.6701   41.1423   57.8591 C   0  0  0  0  0  0  0  0  0  0  0  0
   68.8636   42.4340   57.0652 C   0  0  0  0  0  0  0  0  0  0  0  0
   70.9271   45.3546   57.6279 O   0  0  0  0  0  0  0  0  0  0  0  0
   69.9369   44.6560   57.3590 C   0  0  0  0  0  0  0  0  0  0  0  0
   68.8993   45.1775   56.5397 N   0  0  0  0  0  0  0  0  0  0  0  0
   68.8712   46.4857   55.9695 C   0  0  0  0  0  0  0  0  0  0  0  0
   68.5896   46.4101   54.5171 C   0  0  0  0  0  0  0  0  0  0  0  0
   69.0882   47.4166   53.6866 C   0  0  0  0  0  0  0  0  0  0  0  0
   68.8468   47.3948   52.3314 C   0  0  0  0  0  0  0  0  0  0  0  0
   68.1183   46.3803   51.8121 N   0  0  0  0  0  0  0  0  0  0  0  0
   67.6210   45.3929   52.5765 C   0  0  0  0  0  0  0  0  0  0  0  0
   67.8563   45.4026   53.9469 C   0  0  0  0  0  0  0  0  0  0  0  0
   69.6424   39.1049   59.0837 S   0  0  0  0  0  0  0  0  0  0  0  0
   68.2204   38.6191   58.9170 O   0  0  0  0  0  0  0  0  0  0  0  0
   69.8344   39.5242   60.5336 O   0  0  0  0  0  0  0  0  0  0  0  0
   70.7244   37.7702   58.7612 C   0  0  0  0  0  0  0  0  0  0  0  0
   71.7001   37.7860   57.7882 C   0  0  0  0  0  0  0  0  0  0  0  0
   72.5307   36.7063   57.5532 C   0  0  0  0  0  0  0  0  0  0  0  0
   72.3681   35.5683   58.3330 C   0  0  0  0  0  0  0  0  0  0  0  0
   71.4074   35.5008   59.3197 C   0  0  0  0  0  0  0  0  0  0  0  0
   70.6001   36.6099   59.5155 C   0  0  0  0  0  0  0  0  0  0  0  0
   71.2175   34.2869   60.1603 C   0  0  0  0  0  0  0  0  0  0  0  0
   69.9438   34.3111   60.7211 F   0  0  0  0  0  0  0  0  0  0  0  0
   72.1364   34.1865   61.1695 F   0  0  0  0  0  0  0  0  0  0  0  0
   71.3105   33.1775   59.3331 F   0  0  0  0  0  0  0  0  0  0  0  0
  7  8  2  0
  8  9  1  0
  8  1  1  0
  9 10  1  0
 10 11  1  0
 11 12  2  0
 11 16  1  0
 12 13  1  0
 13 14  2  0
 14 15  1  0
 15 16  2  0
  1  2  1  0
  1  6  1  0
  2  3  1  0
  3  4  1  0
  4 17  1  0
  4  5  1  0
 17 18  2  0
 17 19  2  0
 17 20  1  0
 20 21  2  0
 20 25  1  0
 21 22  1  0
 22 23  2  0
 23 24  1  0
 24 26  1  0
 24 25  2  0
 26 27  1  0
 26 28  1  0
 26 29  1  0
  5  6  1  0
M  END
>  <minimizedAffinity>  (326) 
-8.71963

$$$$
data/200k_reference_output/data/smiles/54171.pdb
     RDKit          3D

 30 32  0  0  0  0  0  0  0  0999 V2000
   67.4820   41.5008   57.1597 C   0  0  0  0  0  0  0  0  0  0  0  0
   68.4103   40.3836   56.7624 C   0  0  0  0  0  0  0  0  0  0  0  0
   69.0390   39.7868   57.9965 C   0  0  0  0  0  0  0  0  0  0  0  0
   68.0361   39.2440   58.8944 N   0  0  0  0  0  0  0  0  0  0  0  0
   67.0354   40.2006   59.2506 C   0  0  0  0  0  0  0  0  0  0  0  0
   67.3397   41.5589   58.6663 C   0  0  0  0  0  0  0  0  0  0  0  0
   67.5309   43.5271   55.6141 N   0  0  0  0  0  0  0  0  0  0  0  0
   68.0415   42.8226   56.7254 C   0  0  0  0  0  0  0  0  0  0  0  0
   68.9992   43.3329   57.3644 O   0  0  0  0  0  0  0  0  0  0  0  0
   67.9572   45.3320   53.9829 C   0  0  0  0  0  0  0  0  0  0  0  0
   67.2698   44.6556   53.1577 O   0  0  0  0  0  0  0  0  0  0  0  0
   68.0983   44.7498   55.2663 N   0  0  0  0  0  0  0  0  0  0  0  0
   69.6437   49.1229   52.9437 C   0  0  0  0  0  0  0  0  0  0  0  0
   69.5262   48.1263   51.9986 C   0  0  0  0  0  0  0  0  0  0  0  0
   68.9810   46.8914   52.3241 C   0  0  0  0  0  0  0  0  0  0  0  0
   68.5368   46.6075   53.5873 C   0  0  0  0  0  0  0  0  0  0  0  0
   68.6550   47.6055   54.5308 C   0  0  0  0  0  0  0  0  0  0  0  0
   69.1967   48.8385   54.2177 C   0  0  0  0  0  0  0  0  0  0  0  0
   70.1921   51.4348   53.5514 C   0  0  0  0  0  0  0  0  0  0  0  0
   70.1925   50.3699   52.6220 O   0  0  0  0  0  0  0  0  0  0  0  0
   68.7193   38.5230   60.2787 S   0  0  0  0  0  0  0  0  0  0  0  0
   69.3902   39.5471   61.1485 O   0  0  0  0  0  0  0  0  0  0  0  0
   67.6190   37.8832   61.0772 O   0  0  0  0  0  0  0  0  0  0  0  0
   69.8498   37.2482   59.8587 C   0  0  0  0  0  0  0  0  0  0  0  0
   69.8516   36.0574   60.5443 C   0  0  0  0  0  0  0  0  0  0  0  0
   70.7255   35.0389   60.2402 C   0  0  0  0  0  0  0  0  0  0  0  0
   71.6242   35.2146   59.2206 C   0  0  0  0  0  0  0  0  0  0  0  0
   72.5690   34.1245   58.8855 C   0  0  0  0  0  0  0  0  0  0  0  0
   71.6265   36.4097   58.5289 C   0  0  0  0  0  0  0  0  0  0  0  0
   70.7478   37.4207   58.8417 C   0  0  0  0  0  0  0  0  0  0  0  0
 19 20  1  0
 20 13  1  0
 13 14  2  0
 13 18  1  0
 14 15  1  0
 15 16  2  0
 16 10  1  0
 16 17  1  0
 10 11  2  0
 10 12  1  0
 12  7  1  0
  7  8  1  0
  8  9  2  0
  8  1  1  0
  1  2  1  0
  1  6  1  0
  2  3  1  0
  3  4  1  0
  4 21  1  0
  4  5  1  0
 21 22  2  0
 21 23  2  0
 21 24  1  0
 24 25  2  0
 24 30  1  0
 25 26  1  0
 26 27  2  0
 27 28  1  0
 27 29  1  0
 29 30  2  0
  5  6  1  0
 17 18  2  0
M  END
>  <minimizedAffinity>  (327) 
-8.71898

$$$$
data/200k_reference_output/data/smiles/44861.pdb
     RDKit          3D

 30 33  0  0  0  0  0  0  0  0999 V2000
   69.0622   43.8603   56.8373 C   0  0  0  0  0  0  0  0  0  0  0  0
   70.1874   44.4726   57.3988 C   0  0  0  0  0  0  0  0  0  0  0  0
   71.0491   43.8468   58.2484 C   0  0  0  0  0  0  0  0  0  0  0  0
   70.8438   42.5100   58.6138 C   0  0  0  0  0  0  0  0  0  0  0  0
   69.7582   41.8849   58.0851 C   0  0  0  0  0  0  0  0  0  0  0  0
   68.8827   42.5155   57.2223 C   0  0  0  0  0  0  0  0  0  0  0  0
   71.7894   41.8655   59.4933 C   0  0  0  0  0  0  0  0  0  0  0  0
   72.3099   40.7819   59.0176 O   0  0  0  0  0  0  0  0  0  0  0  0
   72.1675   42.2920   60.7489 N   0  0  0  0  0  0  0  0  0  0  0  0
   73.1313   41.5920   61.6204 C   0  0  0  0  0  0  0  0  0  0  0  0
   72.4265   41.6573   62.9753 C   0  0  0  0  0  0  0  0  0  0  0  0
   71.5578   42.8816   62.9426 C   0  0  1  0  0  0  0  0  0  0  0  0
   71.7755   43.4271   61.5251 C   0  0  0  0  0  0  0  0  0  0  0  0
   70.1319   42.6493   63.1502 C   0  0  0  0  0  0  0  0  0  0  0  0
   69.2780   43.3162   62.5007 O   0  0  0  0  0  0  0  0  0  0  0  0
   69.6174   41.6947   64.0628 N   0  0  0  0  0  0  0  0  0  0  0  0
   68.2671   41.5268   64.2093 O   0  0  0  0  0  0  0  0  0  0  0  0
   68.2705   44.5235   56.0146 O   0  0  0  0  0  0  0  0  0  0  0  0
   68.0728   45.2622   54.9452 C   0  0  0  0  0  0  0  0  0  0  0  0
   68.6621   49.3995   57.6484 C   0  0  0  0  0  0  0  0  0  0  0  0
   68.6898   48.6798   56.3270 C   0  0  0  0  0  0  0  0  0  0  0  0
   68.3182   47.3550   56.2461 C   0  0  0  0  0  0  0  0  0  0  0  0
   68.3549   46.7176   55.0264 C   0  0  0  0  0  0  0  0  0  0  0  0
   68.7625   47.4560   53.9299 C   0  0  0  0  0  0  0  0  0  0  0  0
   69.1313   48.7762   54.0320 C   0  0  0  0  0  0  0  0  0  0  0  0
   69.0901   49.3792   55.2426 N   0  0  0  0  0  0  0  0  0  0  0  0
   69.5630   49.5159   52.8467 C   0  0  0  0  0  0  0  0  0  0  0  0
   70.2197   48.7019   51.7783 C   0  0  0  0  0  0  0  0  0  0  0  0
   69.7405   47.3145   51.6242 C   0  0  0  0  0  0  0  0  0  0  0  0
   68.7253   46.8364   52.6046 C   0  0  0  0  0  0  0  0  0  0  0  0
 20 21  1  0
 21 22  2  0
 21 26  1  0
 22 23  1  0
 23 19  1  0
 23 24  2  0
 19 18  1  0
 18  1  1  0
  1  2  2  0
  1  6  1  0
  2  3  1  0
  3  4  2  0
  4  7  1  0
  4  5  1  0
  7  8  2  0
  7  9  1  0
  9 10  1  0
  9 13  1  0
 10 11  1  0
 11 12  1  0
 12 14  1  6
 12 13  1  0
 14 15  2  0
 14 16  1  0
 16 17  1  0
  5  6  2  0
 24 25  1  0
 24 30  1  0
 25 26  2  0
 25 27  1  0
 27 28  1  0
 28 29  1  0
 29 30  1  0
M  END
>  <minimizedAffinity>  (328) 
-8.71776

$$$$
data/reference_output_2/data/smiles/148286.pdb
     RDKit          3D

 30 32  0  0  0  0  0  0  0  0999 V2000
   69.0441   45.6141   56.6188 N   0  0  0  0  0  0  0  0  0  0  0  0
   70.1067   45.1852   57.4535 C   0  0  0  0  0  0  0  0  0  0  0  0
   70.9060   45.9840   58.0253 O   0  0  0  0  0  0  0  0  0  0  0  0
   70.2954   43.7612   57.6755 C   0  0  0  0  0  0  0  0  0  0  0  0
   69.2891   42.8347   57.5509 C   0  0  0  0  0  0  0  0  0  0  0  0
   69.5299   41.4962   57.7715 C   0  0  0  0  0  0  0  0  0  0  0  0
   70.7807   41.0350   58.1265 C   0  0  0  0  0  0  0  0  0  0  0  0
   71.8041   41.9944   58.2546 C   0  0  0  0  0  0  0  0  0  0  0  0
   71.5847   43.2890   58.0407 C   0  0  0  0  0  0  0  0  0  0  0  0
   71.0524   39.6550   58.2898 C   0  0  0  0  0  0  0  0  0  0  0  0
   71.3165   38.4255   58.4321 C   0  0  0  0  0  0  0  0  0  0  0  0
   71.6301   37.0723   58.5992 C   0  0  0  0  0  0  0  0  0  0  0  0
   71.0048   36.4358   59.6909 C   0  0  0  0  0  0  0  0  0  0  0  0
   71.1726   35.0636   59.8264 C   0  0  0  0  0  0  0  0  0  0  0  0
   71.9004   34.3255   58.9500 C   0  0  0  0  0  0  0  0  0  0  0  0
   72.5225   34.9807   57.8517 C   0  0  0  0  0  0  0  0  0  0  0  0
   72.3676   36.3321   57.7184 C   0  0  0  0  0  0  0  0  0  0  0  0
   68.8330   47.2992   56.4007 S   0  0  0  0  0  0  0  0  0  0  0  0
   67.3200   47.5467   56.5925 O   0  0  0  0  0  0  0  0  0  0  0  0
   69.4333   48.1371   57.5160 O   0  0  0  0  0  0  0  0  0  0  0  0
   68.8410   47.2257   53.7124 C   0  0  0  0  0  0  0  0  0  0  0  0
   69.3176   47.6697   52.4631 C   0  0  0  0  0  0  0  0  0  0  0  0
   70.1520   48.7273   52.3329 C   0  0  0  0  0  0  0  0  0  0  0  0
   70.5638   49.4195   53.4702 C   0  0  0  0  0  0  0  0  0  0  0  0
   70.0975   48.9836   54.6927 C   0  0  0  0  0  0  0  0  0  0  0  0
   69.2596   47.9140   54.8438 C   0  0  0  0  0  0  0  0  0  0  0  0
   67.3273   45.5117   52.0658 N   0  0  0  0  0  0  0  0  0  0  0  0
   67.7090   45.9506   53.7014 S   0  0  0  0  0  0  0  0  0  0  0  0
   66.3524   46.3815   54.2559 O   0  0  0  0  0  0  0  0  0  0  0  0
   68.1009   44.7126   54.4250 O   0  0  0  0  0  0  0  0  0  0  0  0
 27 28  1  0
 28 29  2  0
 28 30  2  0
 28 21  1  0
 21 22  2  0
 21 26  1  0
 22 23  1  0
 23 24  2  0
 24 25  1  0
 25 26  2  0
 26 18  1  0
 18 19  2  0
 18 20  2  0
 18  1  1  0
  1  2  1  0
  2  3  2  0
  2  4  1  0
  4  5  2  0
  4  9  1  0
  5  6  1  0
  6  7  2  0
  7 10  1  0
  7  8  1  0
 10 11  3  0
 11 12  1  0
 12 13  2  0
 12 17  1  0
 13 14  1  0
 14 15  2  0
 15 16  1  0
 16 17  2  0
  8  9  2  0
M  END
>  <minimizedAffinity>  (329) 
-8.71656

$$$$
data/200k_reference_output/data/smiles/54583.pdb
     RDKit          3D

 32 35  0  0  0  0  0  0  0  0999 V2000
   71.6844   40.1063   59.1600 N   0  0  0  0  0  0  0  0  0  0  0  0
   71.0399   39.0343   58.4349 C   0  0  0  0  0  0  0  0  0  0  0  0
   72.1345   37.9700   58.3325 C   0  0  0  0  0  0  0  0  0  0  0  0
   72.2043   36.9457   57.4715 C   0  0  0  0  0  0  0  0  0  0  0  0
   73.2613   35.9858   57.4970 C   0  0  0  0  0  0  0  0  0  0  0  0
   74.1642   36.1729   58.4491 C   0  0  0  0  0  0  0  0  0  0  0  0
   74.1223   37.2397   59.3752 C   0  0  0  0  0  0  0  0  0  0  0  0
   73.1041   38.1618   59.3240 C   0  0  0  0  0  0  0  0  0  0  0  0
   72.8045   39.5084   59.8496 C   0  0  0  0  0  0  0  0  0  0  0  0
   73.4629   40.0251   60.7930 O   0  0  0  0  0  0  0  0  0  0  0  0
   73.3285   35.1403   56.2683 C   0  0  0  0  0  0  0  0  0  0  0  0
   72.7010   35.6357   55.1448 C   0  0  0  0  0  0  0  0  0  0  0  0
   73.1783   35.1996   53.8945 C   0  0  0  0  0  0  0  0  0  0  0  0
   74.2130   34.3387   53.8051 C   0  0  0  0  0  0  0  0  0  0  0  0
   74.8245   33.8197   54.8988 C   0  0  0  0  0  0  0  0  0  0  0  0
   74.3630   34.2312   56.1759 C   0  0  0  0  0  0  0  0  0  0  0  0
   75.0815   34.5500   52.5048 C   0  0  0  0  0  0  0  0  0  0  0  0
   75.6863   34.6963   51.5932 C   0  0  0  0  0  0  0  0  0  0  0  0
   76.4693   34.8607   50.4355 C   0  0  0  0  0  0  0  0  0  0  0  0
   76.0966   34.1536   49.2462 C   0  0  0  0  0  0  0  0  0  0  0  0
   76.6790   34.2794   48.0338 C   0  0  0  0  0  0  0  0  0  0  0  0
   77.7325   35.1287   47.8497 C   0  0  0  0  0  0  0  0  0  0  0  0
   78.1893   35.8933   49.0370 C   0  0  0  0  0  0  0  0  0  0  0  0
   77.5091   35.6700   50.1778 C   0  0  0  0  0  0  0  0  0  0  0  0
   71.3940   41.5026   59.0641 C   0  0  1  0  0  0  0  0  0  0  0  0
   70.4313   42.0540   59.9881 C   0  0  0  0  0  0  0  0  0  0  0  0
   70.4975   41.6880   61.2160 O   0  0  0  0  0  0  0  0  0  0  0  0
   69.4312   42.9780   59.6048 N   0  0  0  0  0  0  0  0  0  0  0  0
   68.4956   43.5371   60.4093 O   0  0  0  0  0  0  0  0  0  0  0  0
   73.0433   42.7091   57.5046 C   0  0  0  0  0  0  0  0  0  0  0  0
   72.6658   42.3131   58.8654 C   0  0  1  0  0  0  0  0  0  0  0  0
   72.5349   43.5169   59.6426 O   0  0  0  0  0  0  0  0  0  0  0  0
 31 30  1  6
 31 32  1  0
 31 25  1  0
 25 26  1  0
 25  1  1  1
 26 27  2  0
 26 28  1  0
 28 29  1  0
  1  2  1  0
  1  9  1  0
  2  3  1  0
  3  4  2  0
  3  8  1  0
  4  5  1  0
  5 11  1  0
  5  6  2  0
 11 12  2  0
 11 16  1  0
 12 13  1  0
 13 14  2  0
 14 17  1  0
 14 15  1  0
 17 18  3  0
 18 19  1  0
 19 20  2  0
 19 24  1  0
 20 21  1  0
 21 22  2  0
 22 23  1  0
 23 24  2  0
 15 16  2  0
  6  7  1  0
  7  8  2  0
  8  9  1  0
  9 10  2  0
M  END
>  <minimizedAffinity>  (330) 
-8.71438

$$$$
data/200k_reference_output/data/smiles/26744.pdb
     RDKit          3D

 30 32  0  0  0  0  0  0  0  0999 V2000
   69.9964   50.8129   54.5241 N   0  0  0  0  0  0  0  0  0  0  0  0
   68.6273   51.4031   54.4338 C   0  0  0  0  0  0  0  0  0  0  0  0
   68.1668   51.8932   55.7829 C   0  0  0  0  0  0  0  0  0  0  0  0
   69.2494   52.7816   56.3647 C   0  0  0  0  0  0  0  0  0  0  0  0
   70.2429   52.9737   55.4062 O   0  0  0  0  0  0  0  0  0  0  0  0
   70.8822   51.7432   55.1064 C   0  0  2  0  0  0  0  0  0  0  0  0
   69.8547   49.2829   55.2433 S   0  0  0  0  0  0  0  0  0  0  0  0
   71.2523   48.7940   55.6109 O   0  0  0  0  0  0  0  0  0  0  0  0
   69.1773   49.3888   56.6200 O   0  0  0  0  0  0  0  0  0  0  0  0
   70.2076   48.8186   52.1756 C   0  0  0  0  0  0  0  0  0  0  0  0
   69.3761   47.8987   52.9536 C   0  0  0  0  0  0  0  0  0  0  0  0
   68.7944   46.8556   52.2365 C   0  0  0  0  0  0  0  0  0  0  0  0
   67.9627   45.9501   52.8311 C   0  0  0  0  0  0  0  0  0  0  0  0
   67.3932   44.9330   52.1432 F   0  0  0  0  0  0  0  0  0  0  0  0
   67.7001   46.0768   54.1602 C   0  0  0  0  0  0  0  0  0  0  0  0
   68.2671   47.0959   54.8705 C   0  0  0  0  0  0  0  0  0  0  0  0
   69.1254   48.0446   54.2970 C   0  0  0  0  0  0  0  0  0  0  0  0
   72.0251   52.1032   54.2107 C   0  0  0  0  0  0  0  0  0  0  0  0
   73.1957   51.2852   54.2949 N   0  0  0  0  0  0  0  0  0  0  0  0
   74.1656   51.3969   55.3123 C   0  0  0  0  0  0  0  0  0  0  0  0
   74.0917   52.2444   56.2317 O   0  0  0  0  0  0  0  0  0  0  0  0
   75.3227   50.4825   55.3050 C   0  0  0  0  0  0  0  0  0  0  0  0
   75.3918   49.5061   54.5268 O   0  0  0  0  0  0  0  0  0  0  0  0
   76.3878   50.7195   56.2077 N   0  0  0  0  0  0  0  0  0  0  0  0
   77.5643   49.8922   56.2857 C   0  0  0  0  0  0  0  0  0  0  0  0
   77.4972   48.8534   57.3642 C   0  0  0  0  0  0  0  0  0  0  0  0
   78.9296   48.6068   57.8347 C   0  0  0  0  0  0  0  0  0  0  0  0
   79.8602   48.4574   56.6449 C   0  0  0  0  0  0  0  0  0  0  0  0
   80.0089   49.7978   55.9892 C   0  0  0  0  0  0  0  0  0  0  0  0
   78.8441   50.7005   56.3384 C   0  0  0  0  0  0  0  0  0  0  0  0
 10 11  1  0
 11 12  2  0
 11 17  1  0
 12 13  1  0
 13 14  1  0
 13 15  2  0
 15 16  1  0
 16 17  2  0
 17  7  1  0
  7  8  2  0
  7  9  2  0
  7  1  1  0
  1  2  1  0
  1  6  1  0
  2  3  1  0
  3  4  1  0
  4  5  1  0
  5  6  1  0
  6 18  1  6
 18 19  1  0
 19 20  1  0
 20 21  2  0
 20 22  1  0
 22 23  2  0
 22 24  1  0
 24 25  1  0
 25 26  1  0
 25 30  1  0
 26 27  1  0
 27 28  1  0
 28 29  1  0
 29 30  1  0
M  END
>  <minimizedAffinity>  (331) 
-8.71415

$$$$
data/reference_output_2/data/smiles/169118.pdb
     RDKit          3D

 30 32  0  0  0  0  0  0  0  0999 V2000
   69.6975   46.0106   57.1772 C   0  0  0  0  0  0  0  0  0  0  0  0
   69.1533   44.8495   56.6808 C   0  0  0  0  0  0  0  0  0  0  0  0
   69.7320   43.6084   56.9296 C   0  0  0  0  0  0  0  0  0  0  0  0
   70.8770   43.4689   57.6820 C   0  0  0  0  0  0  0  0  0  0  0  0
   71.4142   44.6398   58.1762 C   0  0  0  0  0  0  0  0  0  0  0  0
   70.8380   45.8916   57.9306 C   0  0  0  0  0  0  0  0  0  0  0  0
   68.9522   47.5858   56.8338 S   0  0  0  0  0  0  0  0  0  0  0  0
   67.8715   47.7472   57.8794 O   0  0  0  0  0  0  0  0  0  0  0  0
   69.9903   48.6432   56.9123 O   0  0  0  0  0  0  0  0  0  0  0  0
   68.1919   47.4643   55.2929 N   0  0  0  0  0  0  0  0  0  0  0  0
   67.7241   45.5925   53.2017 C   0  0  0  0  0  0  0  0  0  0  0  0
   68.6302   46.7792   53.0271 C   0  0  0  0  0  0  0  0  0  0  0  0
   69.2479   46.9565   51.8030 C   0  0  0  0  0  0  0  0  0  0  0  0
   70.1012   48.0437   51.5749 C   0  0  0  0  0  0  0  0  0  0  0  0
   70.3174   48.9423   52.6037 C   0  0  0  0  0  0  0  0  0  0  0  0
   69.6821   48.7248   53.8115 C   0  0  0  0  0  0  0  0  0  0  0  0
   68.8404   47.6723   54.0665 C   0  0  0  0  0  0  0  0  0  0  0  0
   71.5045   42.1812   57.9422 C   0  0  0  0  0  0  0  0  0  0  0  0
   72.7385   42.0697   57.7676 O   0  0  0  0  0  0  0  0  0  0  0  0
   70.8091   41.0340   58.3828 N   0  0  0  0  0  0  0  0  0  0  0  0
   71.3642   39.7733   58.6450 N   0  0  0  0  0  0  0  0  0  0  0  0
   70.6975   38.5654   58.4532 C   0  0  0  0  0  0  0  0  0  0  0  0
   69.4966   38.6985   58.0048 O   0  0  0  0  0  0  0  0  0  0  0  0
   71.1574   37.2213   58.6840 C   0  0  0  0  0  0  0  0  0  0  0  0
   72.1170   36.6649   57.8142 C   0  0  0  0  0  0  0  0  0  0  0  0
   72.5979   35.3936   57.9786 C   0  0  0  0  0  0  0  0  0  0  0  0
   72.1732   34.5816   59.0083 C   0  0  0  0  0  0  0  0  0  0  0  0
   71.2410   35.1188   59.8582 C   0  0  0  0  0  0  0  0  0  0  0  0
   70.7385   36.4129   59.7061 C   0  0  0  0  0  0  0  0  0  0  0  0
   69.7933   36.8931   60.6077 O   0  0  0  0  0  0  0  0  0  0  0  0
 11 12  1  0
 12 13  2  0
 12 17  1  0
 13 14  1  0
 14 15  2  0
 15 16  1  0
 16 17  2  0
 17 10  1  0
 10  7  1  0
  7  8  2  0
  7  9  2  0
  7  1  1  0
  1  2  2  0
  1  6  1  0
  2  3  1  0
  3  4  2  0
  4 18  1  0
  4  5  1  0
 18 19  2  0
 18 20  1  0
 20 21  1  0
 21 22  1  0
 22 23  2  0
 22 24  1  0
 24 25  2  0
 24 29  1  0
 25 26  1  0
 26 27  2  0
 27 28  1  0
 28 29  2  0
 29 30  1  0
  5  6  2  0
M  END
>  <minimizedAffinity>  (332) 
-8.71165

$$$$
data/200k_reference_output/data/smiles/67954.pdb
     RDKit          3D

 26 27  0  0  0  0  0  0  0  0999 V2000
   74.6420   49.9868   56.7098 C   0  0  0  0  0  0  0  0  0  0  0  0
   74.1844   51.2961   56.5262 N   0  0  0  0  0  0  0  0  0  0  0  0
   73.1990   52.0599   57.6067 S   0  0  0  0  0  0  0  0  0  0  0  0
   73.2219   51.2979   58.9337 O   0  0  0  0  0  0  0  0  0  0  0  0
   73.7875   53.4251   57.9406 O   0  0  0  0  0  0  0  0  0  0  0  0
   71.5126   52.2429   57.2108 C   0  0  0  0  0  0  0  0  0  0  0  0
   70.6192   51.3028   57.7224 C   0  0  0  0  0  0  0  0  0  0  0  0
   69.2876   51.4319   57.4654 C   0  0  0  0  0  0  0  0  0  0  0  0
   68.1643   50.2316   58.1204 Cl  0  0  0  0  0  0  0  0  0  0  0  0
   68.7409   52.4535   56.7137 C   0  0  0  0  0  0  0  0  0  0  0  0
   69.6451   53.3698   56.2186 C   0  0  0  0  0  0  0  0  0  0  0  0
   70.9932   53.2615   56.4635 C   0  0  0  0  0  0  0  0  0  0  0  0
   72.0435   54.4580   55.7400 Cl  0  0  0  0  0  0  0  0  0  0  0  0
   74.1491   51.7554   55.1623 C   0  0  0  0  0  0  0  0  0  0  0  0
   73.3881   50.7961   54.2932 C   0  0  0  0  0  0  0  0  0  0  0  0
   73.9900   50.0899   53.4272 O   0  0  0  0  0  0  0  0  0  0  0  0
   71.9831   50.6338   54.3950 N   0  0  0  0  0  0  0  0  0  0  0  0
   71.3365   49.7074   53.5375 N   0  0  0  0  0  0  0  0  0  0  0  0
   70.1879   49.0131   53.9926 C   0  0  0  0  0  0  0  0  0  0  0  0
   69.7931   49.2631   55.1631 O   0  0  0  0  0  0  0  0  0  0  0  0
   69.4380   48.0433   53.2160 C   0  0  0  0  0  0  0  0  0  0  0  0
   68.5694   47.1410   53.7991 C   0  0  0  0  0  0  0  0  0  0  0  0
   67.8508   46.2186   53.0988 C   0  0  0  0  0  0  0  0  0  0  0  0
   68.0048   46.1887   51.7285 C   0  0  0  0  0  0  0  0  0  0  0  0
   68.8524   47.0645   51.1350 N   0  0  0  0  0  0  0  0  0  0  0  0
   69.5615   47.9784   51.8455 C   0  0  0  0  0  0  0  0  0  0  0  0
  1  2  1  0
  2 14  1  0
  2  3  1  0
 14 15  1  0
 15 16  2  0
 15 17  1  0
 17 18  1  0
 18 19  1  0
 19 20  2  0
 19 21  1  0
 21 22  2  0
 21 26  1  0
 22 23  1  0
 23 24  2  0
 24 25  1  0
 25 26  2  0
  3  4  2  0
  3  5  2  0
  3  6  1  0
  6  7  2  0
  6 12  1  0
  7  8  1  0
  8  9  1  0
  8 10  2  0
 10 11  1  0
 11 12  2  0
 12 13  1  0
M  END
>  <minimizedAffinity>  (333) 
-8.70679

$$$$
data/reference_output_2/data/smiles/189008.pdb
     RDKit          3D

 28 30  0  0  0  0  0  0  0  0999 V2000
   74.5211   50.9356   55.8507 N   0  0  0  0  0  0  0  0  0  0  0  0
   73.7142   50.8123   54.6970 C   0  0  0  0  0  0  0  0  0  0  0  0
   74.1491   50.2788   53.6424 O   0  0  0  0  0  0  0  0  0  0  0  0
   76.1396   50.3588   55.8625 S   0  0  0  0  0  0  0  0  0  0  0  0
   76.3221   49.4315   54.6739 O   0  0  0  0  0  0  0  0  0  0  0  0
   77.0400   51.5359   55.6148 O   0  0  0  0  0  0  0  0  0  0  0  0
   77.6399   47.6296   61.0595 C   0  0  0  0  0  0  0  0  0  0  0  0
   77.2640   48.2983   59.7797 C   0  0  0  0  0  0  0  0  0  0  0  0
   76.0164   48.1157   59.2216 C   0  0  0  0  0  0  0  0  0  0  0  0
   75.6593   48.7360   58.0299 C   0  0  0  0  0  0  0  0  0  0  0  0
   74.3154   48.5338   57.4379 C   0  0  0  0  0  0  0  0  0  0  0  0
   76.5348   49.5604   57.3535 C   0  0  0  0  0  0  0  0  0  0  0  0
   77.7848   49.7442   57.9102 C   0  0  0  0  0  0  0  0  0  0  0  0
   78.7461   50.6229   57.2077 C   0  0  0  0  0  0  0  0  0  0  0  0
   78.1344   49.1232   59.0983 C   0  0  0  0  0  0  0  0  0  0  0  0
   72.3151   51.3216   54.7169 C   0  0  0  0  0  0  0  0  0  0  0  0
   71.5062   50.7335   53.7596 O   0  0  0  0  0  0  0  0  0  0  0  0
   70.6147   49.6970   53.9193 C   0  0  0  0  0  0  0  0  0  0  0  0
   70.1513   49.2200   55.1257 C   0  0  0  0  0  0  0  0  0  0  0  0
   69.2575   48.1725   55.1871 C   0  0  0  0  0  0  0  0  0  0  0  0
   68.7704   47.5353   54.0397 C   0  0  0  0  0  0  0  0  0  0  0  0
   69.2301   48.0071   52.8333 C   0  0  0  0  0  0  0  0  0  0  0  0
   70.1213   49.0518   52.7778 C   0  0  0  0  0  0  0  0  0  0  0  0
   68.7556   47.3570   51.6398 N   0  0  0  0  0  0  0  0  0  0  0  0
   67.8479   46.2692   51.7427 C   0  0  0  0  0  0  0  0  0  0  0  0
   67.0141   45.9665   50.8668 O   0  0  0  0  0  0  0  0  0  0  0  0
   67.9351   45.4725   52.9877 C   0  0  0  0  0  0  0  0  0  0  0  0
   67.7994   46.4245   54.1490 C   0  0  0  0  0  0  0  0  0  0  0  0
  7  8  1  0
  8  9  2  0
  8 15  1  0
  9 10  1  0
 10 11  1  0
 10 12  2  0
 12  4  1  0
 12 13  1  0
  4  5  2  0
  4  6  2  0
  4  1  1  0
  1  2  1  0
  2  3  2  0
  2 16  1  0
 16 17  1  0
 17 18  1  0
 18 19  2  0
 18 23  1  0
 19 20  1  0
 20 21  2  0
 21 22  1  0
 21 28  1  0
 22 23  2  0
 22 24  1  0
 24 25  1  0
 25 26  2  0
 25 27  1  0
 27 28  1  0
 13 14  1  0
 13 15  2  0
M  END
>  <minimizedAffinity>  (334) 
-8.70557

$$$$
data/reference_output_2/data/smiles/156907.pdb
     RDKit          3D

 29 32  0  0  0  0  0  0  0  0999 V2000
   70.6231   49.8580   57.3218 C   0  0  0  0  0  0  0  0  0  0  0  0
   69.8376   48.7508   57.6916 C   0  0  0  0  0  0  0  0  0  0  0  0
   69.2646   47.9307   56.7525 C   0  0  0  0  0  0  0  0  0  0  0  0
   69.4213   48.1366   55.3965 C   0  0  0  0  0  0  0  0  0  0  0  0
   70.1826   49.2086   55.0092 C   0  0  0  0  0  0  0  0  0  0  0  0
   70.7669   50.0458   55.9691 C   0  0  0  0  0  0  0  0  0  0  0  0
   70.2001   49.2182   53.5260 C   0  0  1  0  0  0  0  0  0  0  0  0
   71.4988   49.0812   53.0437 O   0  0  0  0  0  0  0  0  0  0  0  0
   69.3810   48.0519   53.1328 C   0  0  0  0  0  0  0  0  0  0  0  0
   69.0353   47.5465   51.8846 C   0  0  0  0  0  0  0  0  0  0  0  0
   68.2445   46.4241   51.7520 C   0  0  0  0  0  0  0  0  0  0  0  0
   67.7682   45.7634   52.8697 C   0  0  0  0  0  0  0  0  0  0  0  0
   68.1132   46.2695   54.0998 C   0  0  0  0  0  0  0  0  0  0  0  0
   68.9068   47.3945   54.2459 C   0  0  0  0  0  0  0  0  0  0  0  0
   69.6009   50.5240   53.0265 C   0  0  0  0  0  0  0  0  0  0  0  0
   69.4945   50.4338   51.6609 F   0  0  0  0  0  0  0  0  0  0  0  0
   68.3783   50.7369   53.5911 F   0  0  0  0  0  0  0  0  0  0  0  0
   70.4940   51.5296   53.3954 F   0  0  0  0  0  0  0  0  0  0  0  0
   71.1757   50.6467   58.3003 O   0  0  0  0  0  0  0  0  0  0  0  0
   72.4607   50.8208   58.7168 C   0  0  0  0  0  0  0  0  0  0  0  0
   76.7270   50.9508   58.7712 O   0  0  0  0  0  0  0  0  0  0  0  0
   75.5666   50.4728   58.9840 C   0  0  0  0  0  0  0  0  0  0  0  0
   74.9461   50.4262   60.3296 C   0  0  0  0  0  0  0  0  0  0  0  0
   73.8261   49.4528   60.1661 C   0  0  0  0  0  0  0  0  0  0  0  0
   73.4270   49.7088   58.6947 C   0  0  2  0  0  0  0  0  0  0  0  0
   74.6690   49.9136   58.0283 N   0  0  0  0  0  0  0  0  0  0  0  0
   75.0300   49.6054   56.6813 C   0  0  0  0  0  0  0  0  0  0  0  0
   74.5118   50.5671   55.6449 C   0  0  0  0  0  0  0  0  0  0  0  0
   74.6794   49.9641   54.3816 O   0  0  0  0  0  0  0  0  0  0  0  0
 21 22  2  0
 22 23  1  0
 22 26  1  0
 23 24  1  0
 24 25  1  0
 25 20  1  1
 25 26  1  0
 20 19  1  0
 19  1  1  0
  1  2  2  0
  1  6  1  0
  2  3  1  0
  3  4  2  0
  4  5  1  0
  4 14  1  0
  5  6  2  0
  5  7  1  0
  7  8  1  1
  7 15  1  0
  7  9  1  0
 15 16  1  0
 15 17  1  0
 15 18  1  0
  9 10  1  0
  9 14  2  0
 10 11  2  0
 11 12  1  0
 12 13  2  0
 13 14  1  0
 26 27  1  0
 27 28  1  0
 28 29  1  0
M  END
>  <minimizedAffinity>  (335) 
-8.70237

$$$$
data/reference_output_2/data/smiles/194615.pdb
     RDKit          3D

 31 34  0  0  0  0  0  0  0  0999 V2000
   69.7138   39.9698   58.2312 C   0  0  0  0  0  0  0  0  0  0  0  0
   70.2430   41.2318   58.0895 C   0  0  0  0  0  0  0  0  0  0  0  0
   69.6008   42.2091   57.3470 C   0  0  0  0  0  0  0  0  0  0  0  0
   68.4229   41.9624   56.7265 C   0  0  0  0  0  0  0  0  0  0  0  0
   67.8693   40.7001   56.8540 C   0  0  0  0  0  0  0  0  0  0  0  0
   68.5256   39.7333   57.6026 C   0  0  0  0  0  0  0  0  0  0  0  0
   70.2891   37.5586   58.8167 N   0  0  0  0  0  0  0  0  0  0  0  0
   70.3936   38.9470   59.0091 C   0  0  0  0  0  0  0  0  0  0  0  0
   71.1465   39.3510   59.9419 O   0  0  0  0  0  0  0  0  0  0  0  0
   68.9604   36.4997   60.9956 N   0  0  0  0  0  0  0  0  0  0  0  0
   70.2525   35.9758   60.6138 C   0  0  0  0  0  0  0  0  0  0  0  0
   70.7508   34.9550   61.3845 C   0  0  0  0  0  0  0  0  0  0  0  0
   71.9832   34.4469   61.0325 C   0  0  0  0  0  0  0  0  0  0  0  0
   72.6798   34.9333   59.9656 C   0  0  0  0  0  0  0  0  0  0  0  0
   72.1264   35.9836   59.2037 C   0  0  0  0  0  0  0  0  0  0  0  0
   70.9082   36.5174   59.5165 C   0  0  0  0  0  0  0  0  0  0  0  0
   67.6529   42.9220   55.8902 C   0  0  0  0  0  0  0  0  0  0  0  0
   68.1010   44.3127   56.1641 N   0  0  0  0  0  0  0  0  0  0  0  0
   68.0891   45.2490   55.1516 C   0  0  0  0  0  0  0  0  0  0  0  0
   67.6713   44.7926   53.9865 O   0  0  0  0  0  0  0  0  0  0  0  0
   68.4307   46.6354   55.0644 C   0  0  0  0  0  0  0  0  0  0  0  0
   68.9391   47.3316   54.0838 C   0  0  0  0  0  0  0  0  0  0  0  0
   69.2796   46.8253   52.8292 N   0  0  0  0  0  0  0  0  0  0  0  0
   69.8028   47.9389   52.0678 C   0  0  0  0  0  0  0  0  0  0  0  0
   70.2030   47.8254   50.8891 O   0  0  0  0  0  0  0  0  0  0  0  0
   69.7837   49.1494   52.8674 C   0  0  0  0  0  0  0  0  0  0  0  0
   70.1543   50.4230   52.6262 N   0  0  0  0  0  0  0  0  0  0  0  0
   70.0433   51.4023   53.5403 C   0  0  0  0  0  0  0  0  0  0  0  0
   69.5238   51.0689   54.7741 C   0  0  0  0  0  0  0  0  0  0  0  0
   69.1409   49.7708   55.0335 C   0  0  0  0  0  0  0  0  0  0  0  0
   69.2620   48.7801   54.0832 C   0  0  0  0  0  0  0  0  0  0  0  0
 10 11  1  0
 11 12  2  0
 11 16  1  0
 12 13  1  0
 13 14  2  0
 14 15  1  0
 15 16  2  0
 16  7  1  0
  7  8  1  0
  8  9  2  0
  8  1  1  0
  1  2  2  0
  1  6  1  0
  2  3  1  0
  3  4  2  0
  4 17  1  0
  4  5  1  0
 17 18  1  0
 18 19  1  0
 19 20  2  0
 19 21  1  0
 21 22  2  0
 22 23  1  0
 22 31  1  0
 23 24  1  0
 24 25  2  0
 24 26  1  0
 26 27  1  0
 26 31  2  0
 27 28  2  0
 28 29  1  0
 29 30  2  0
 30 31  1  0
  5  6  2  0
M  END
>  <minimizedAffinity>  (336) 
-8.70179

$$$$
data/reference_output_2/data/smiles/139654.pdb
     RDKit          3D

 32 37  0  0  0  0  0  0  0  0999 V2000
   69.3726   42.4454   61.5156 C   0  0  0  0  0  0  0  0  0  0  0  0
   68.0558   42.4031   61.8909 C   0  0  0  0  0  0  0  0  0  0  0  0
   67.0347   42.0402   61.0028 C   0  0  0  0  0  0  0  0  0  0  0  0
   67.3268   41.7133   59.7205 C   0  0  0  0  0  0  0  0  0  0  0  0
   68.6528   41.7474   59.3138 C   0  0  0  0  0  0  0  0  0  0  0  0
   69.6524   42.1094   60.2070 C   0  0  0  0  0  0  0  0  0  0  0  0
   68.9330   41.3832   57.9114 C   0  0  0  0  0  0  0  0  0  0  0  0
   67.9191   41.8852   56.9257 C   0  0  1  0  0  0  0  0  0  0  0  0
   66.5008   41.7942   57.4061 C   0  0  0  0  0  0  0  0  0  0  0  0
   66.4092   41.3394   58.7530 O   0  0  0  0  0  0  0  0  0  0  0  0
   68.3006   43.2543   56.4903 C   0  0  0  0  0  0  0  0  0  0  0  0
   67.8301   43.7867   55.3490 N   0  0  0  0  0  0  0  0  0  0  0  0
   68.1348   45.0102   54.9010 C   0  0  0  0  0  0  0  0  0  0  0  0
   67.6388   45.5342   53.7240 C   0  0  0  0  0  0  0  0  0  0  0  0
   67.9703   46.8005   53.2870 C   0  0  0  0  0  0  0  0  0  0  0  0
   68.8222   47.6052   54.0149 C   0  0  0  0  0  0  0  0  0  0  0  0
   69.3183   47.0698   55.1992 C   0  0  0  0  0  0  0  0  0  0  0  0
   68.9882   45.8074   55.6364 C   0  0  0  0  0  0  0  0  0  0  0  0
   69.4752   45.2664   56.8103 C   0  0  0  0  0  0  0  0  0  0  0  0
   70.2599   46.0012   57.4852 O   0  0  0  0  0  0  0  0  0  0  0  0
   69.1391   44.0286   57.2209 N   0  0  0  0  0  0  0  0  0  0  0  0
   69.2066   48.9437   53.6025 C   0  0  0  0  0  0  0  0  0  0  0  0
   69.0999   50.1068   54.3267 C   0  0  0  0  0  0  0  0  0  0  0  0
   69.5710   51.1005   53.5601 N   0  0  0  0  0  0  0  0  0  0  0  0
   69.9763   50.6513   52.3864 N   0  0  0  0  0  0  0  0  0  0  0  0
   69.7556   49.3094   52.3957 C   0  0  0  0  0  0  0  0  0  0  0  0
   71.0669   43.9071   62.2182 O   0  0  0  0  0  0  0  0  0  0  0  0
   70.4670   42.8175   62.4042 C   0  0  0  0  0  0  0  0  0  0  0  0
   70.9179   42.0232   63.4911 N   0  0  0  0  0  0  0  0  0  0  0  0
   72.0159   42.4200   64.3651 C   0  0  0  0  0  0  0  0  0  0  0  0
   73.0765   41.4638   64.7139 C   0  0  0  0  0  0  0  0  0  0  0  0
   72.0217   41.6903   65.7089 C   0  0  0  0  0  0  0  0  0  0  0  0
 27 28  2  0
 28 29  1  0
 28  1  1  0
 29 30  1  0
 30 31  1  0
 30 32  1  0
 31 32  1  0
  1  2  2  0
  1  6  1  0
  2  3  1  0
  3  4  2  0
  4  5  1  0
  4 10  1  0
  5  6  2  0
  5  7  1  0
  7  8  1  0
  8 11  1  1
  8  9  1  0
 11 12  2  0
 11 21  1  0
 12 13  1  0
 13 14  2  0
 13 18  1  0
 14 15  1  0
 15 16  2  0
 16 22  1  0
 16 17  1  0
 22 23  1  0
 22 26  2  0
 23 24  2  0
 24 25  1  0
 25 26  1  0
 17 18  2  0
 18 19  1  0
 19 20  2  0
 19 21  1  0
  9 10  1  0
M  END
>  <minimizedAffinity>  (337) 
-8.70106

$$$$
data/reference_output_2/data/smiles/179840.pdb
     RDKit          3D

 28 31  0  0  0  0  0  0  0  0999 V2000
   70.5233   44.2511   58.7151 C   0  0  2  0  0  0  0  0  0  0  0  0
   69.4395   44.0743   59.5344 O   0  0  0  0  0  0  0  0  0  0  0  0
   70.7278   43.1274   57.7388 C   0  0  0  0  0  0  0  0  0  0  0  0
   72.0413   42.4630   58.0557 C   0  0  0  0  0  0  0  0  0  0  0  0
   72.7983   43.5015   58.7263 N   0  0  0  0  0  0  0  0  0  0  0  0
   71.8303   44.2699   59.4268 C   0  0  0  0  0  0  0  0  0  0  0  0
   72.1160   44.8717   60.5204 O   0  0  0  0  0  0  0  0  0  0  0  0
   74.2145   43.6760   58.6654 C   0  0  0  0  0  0  0  0  0  0  0  0
   74.7899   44.9108   58.8767 C   0  0  0  0  0  0  0  0  0  0  0  0
   76.1438   45.0895   58.8226 N   0  0  0  0  0  0  0  0  0  0  0  0
   76.9945   44.0786   58.5622 C   0  0  0  0  0  0  0  0  0  0  0  0
   78.3374   44.0279   58.4639 N   0  0  0  0  0  0  0  0  0  0  0  0
   78.6974   42.7721   58.1864 C   0  0  0  0  0  0  0  0  0  0  0  0
   77.5482   42.0160   58.1102 C   0  0  0  0  0  0  0  0  0  0  0  0
   76.4555   42.8274   58.3462 C   0  0  0  0  0  0  0  0  0  0  0  0
   75.0811   42.6385   58.3988 C   0  0  0  0  0  0  0  0  0  0  0  0
   71.4575   46.3247   58.0482 O   0  0  0  0  0  0  0  0  0  0  0  0
   70.4520   45.5730   57.9867 C   0  0  0  0  0  0  0  0  0  0  0  0
   69.3262   45.9715   57.2652 N   0  0  0  0  0  0  0  0  0  0  0  0
   69.2066   47.2231   56.5557 C   0  0  0  0  0  0  0  0  0  0  0  0
   68.9126   47.0313   55.1292 C   0  0  0  0  0  0  0  0  0  0  0  0
   68.1892   45.9910   54.5913 C   0  0  0  0  0  0  0  0  0  0  0  0
   67.9573   45.8737   53.2228 C   0  0  0  0  0  0  0  0  0  0  0  0
   67.2387   44.8344   52.7292 F   0  0  0  0  0  0  0  0  0  0  0  0
   68.4517   46.8095   52.3479 C   0  0  0  0  0  0  0  0  0  0  0  0
   69.1782   47.8593   52.8570 C   0  0  0  0  0  0  0  0  0  0  0  0
   69.8230   49.0719   51.7517 Cl  0  0  0  0  0  0  0  0  0  0  0  0
   69.4031   47.9672   54.2090 C   0  0  0  0  0  0  0  0  0  0  0  0
 17 18  2  0
 18 19  1  0
 19 20  1  0
 20 21  1  0
 21 22  2  0
 21 28  1  0
 22 23  1  0
 23 24  1  0
 23 25  2  0
 25 26  1  0
 26 27  1  0
 26 28  2  0
  1 18  1  0
  1  2  1  1
  1  3  1  0
  1  6  1  0
  3  4  1  0
  4  5  1  0
  5  8  1  0
  5  6  1  0
  8  9  2  0
  8 16  1  0
  9 10  1  0
 10 11  2  0
 11 12  1  0
 11 15  1  0
 12 13  1  0
 13 14  2  0
 14 15  1  0
 15 16  2  0
  6  7  2  0
M  END
>  <minimizedAffinity>  (338) 
-8.70018

$$$$
data/200k_reference_output/data/smiles/86154.pdb
     RDKit          3D

 28 30  0  0  0  0  0  0  0  0999 V2000
   68.5218   46.6679   54.8944 C   0  0  0  0  0  0  0  0  0  0  0  0
   68.0636   46.1214   53.7040 C   0  0  0  0  0  0  0  0  0  0  0  0
   68.3736   46.6951   52.4889 C   0  0  0  0  0  0  0  0  0  0  0  0
   69.1537   47.8329   52.4698 C   0  0  0  0  0  0  0  0  0  0  0  0
   69.6244   48.4015   53.6203 C   0  0  0  0  0  0  0  0  0  0  0  0
   69.3087   47.8208   54.8279 C   0  0  0  0  0  0  0  0  0  0  0  0
   70.4563   49.6062   53.6447 C   0  0  0  0  0  0  0  0  0  0  0  0
   71.6798   49.5026   53.3096 O   0  0  0  0  0  0  0  0  0  0  0  0
   69.8863   50.8380   54.0352 N   0  0  0  0  0  0  0  0  0  0  0  0
   68.5431   51.1559   54.4421 C   0  0  0  0  0  0  0  0  0  0  0  0
   68.8296   51.9951   55.6956 C   0  0  1  0  0  0  0  0  0  0  0  0
   68.8134   51.0933   56.7646 O   0  0  0  0  0  0  0  0  0  0  0  0
   70.2326   52.5339   55.5173 C   0  0  2  0  0  0  0  0  0  0  0  0
   70.3128   53.8892   55.6559 F   0  0  0  0  0  0  0  0  0  0  0  0
   70.6162   52.0836   54.0989 C   0  0  0  0  0  0  0  0  0  0  0  0
   68.2324   46.1230   56.1298 O   0  0  0  0  0  0  0  0  0  0  0  0
   71.0124   46.2144   58.4896 C   0  0  0  0  0  0  0  0  0  0  0  0
   69.9812   46.6352   57.6815 C   0  0  0  0  0  0  0  0  0  0  0  0
   69.2824   45.6968   56.9534 C   0  0  0  0  0  0  0  0  0  0  0  0
   69.6009   44.3771   57.0272 N   0  0  0  0  0  0  0  0  0  0  0  0
   70.6000   43.9297   57.8050 C   0  0  0  0  0  0  0  0  0  0  0  0
   71.2981   44.8677   58.5326 C   0  0  0  0  0  0  0  0  0  0  0  0
   70.9444   42.4679   57.8809 C   0  0  0  0  0  0  0  0  0  0  0  0
   72.1242   42.2539   57.2227 F   0  0  0  0  0  0  0  0  0  0  0  0
   71.1203   42.1424   59.2137 F   0  0  0  0  0  0  0  0  0  0  0  0
   69.9088   41.6912   57.3958 F   0  0  0  0  0  0  0  0  0  0  0  0
   71.6757   46.9474   60.7133 N   0  0  0  0  0  0  0  0  0  0  0  0
   71.7960   47.1660   59.2901 C   0  0  0  0  0  0  0  0  0  0  0  0
 27 28  1  0
 28 17  1  0
 17 18  2  0
 17 22  1  0
 18 19  1  0
 19 16  1  0
 19 20  2  0
 16  1  1  0
  1  2  2  0
  1  6  1  0
  2  3  1  0
  3  4  2  0
  4  5  1  0
  5  7  1  0
  5  6  2  0
  7  8  2  0
  7  9  1  0
  9 10  1  0
  9 15  1  0
 10 11  1  0
 11 12  1  1
 11 13  1  0
 13 14  1  6
 13 15  1  0
 20 21  1  0
 21 23  1  0
 21 22  2  0
 23 24  1  0
 23 25  1  0
 23 26  1  0
M  CHG  1  27   1
M  END
>  <minimizedAffinity>  (339) 
-8.69965

$$$$
data/200k_reference_output/data/smiles/76256.pdb
     RDKit          3D

 29 31  0  0  0  0  0  0  0  0999 V2000
   71.3425   44.7384   58.2940 C   0  0  0  0  0  0  0  0  0  0  0  0
   72.3149   43.9790   57.7339 C   0  0  0  0  0  0  0  0  0  0  0  0
   72.4452   42.6288   57.7054 C   0  0  0  0  0  0  0  0  0  0  0  0
   71.4643   41.8149   58.3202 C   0  0  0  0  0  0  0  0  0  0  0  0
   70.4485   42.6152   58.8966 C   0  0  0  0  0  0  0  0  0  0  0  0
   70.3272   43.8293   58.9304 C   0  0  0  0  0  0  0  0  0  0  0  0
   71.1053   46.4107   58.5068 S   0  0  0  0  0  0  0  0  0  0  0  0
   72.0536   47.2322   57.7442 O   0  0  0  0  0  0  0  0  0  0  0  0
   71.1624   46.7546   59.9899 O   0  0  0  0  0  0  0  0  0  0  0  0
   69.4349   46.7957   58.0829 N   0  0  0  0  0  0  0  0  0  0  0  0
   69.6031   48.9622   56.2032 C   0  0  0  0  0  0  0  0  0  0  0  0
   69.1105   47.6498   55.7966 C   0  0  0  0  0  0  0  0  0  0  0  0
   68.7274   47.4455   54.4702 C   0  0  0  0  0  0  0  0  0  0  0  0
   68.3040   46.1048   54.1349 C   0  0  0  0  0  0  0  0  0  0  0  0
   68.3131   45.1389   55.0955 C   0  0  0  0  0  0  0  0  0  0  0  0
   68.6934   45.4664   56.2904 N   0  0  0  0  0  0  0  0  0  0  0  0
   69.0812   46.6122   56.7207 C   0  0  0  0  0  0  0  0  0  0  0  0
   71.5496   40.4156   58.4384 C   0  0  0  0  0  0  0  0  0  0  0  0
   71.6473   39.1456   58.5534 C   0  0  0  0  0  0  0  0  0  0  0  0
   71.7460   37.8202   58.6783 C   0  0  0  0  0  0  0  0  0  0  0  0
   71.0627   37.0184   59.6459 C   0  0  0  0  0  0  0  0  0  0  0  0
   71.1589   35.6722   59.5107 C   0  0  0  0  0  0  0  0  0  0  0  0
   71.7945   34.9075   58.6011 C   0  0  0  0  0  0  0  0  0  0  0  0
   71.8701   33.5837   58.4823 O   0  0  0  0  0  0  0  0  0  0  0  0
   72.4980   35.7083   57.5972 C   0  0  0  0  0  0  0  0  0  0  0  0
   72.4249   37.0607   57.7006 C   0  0  0  0  0  0  0  0  0  0  0  0
   73.2142   35.0574   56.5551 C   0  0  0  0  0  0  0  0  0  0  0  0
   72.7983   35.2966   55.3438 O   0  0  0  0  0  0  0  0  0  0  0  0
   74.2607   34.2454   56.6667 O   0  0  0  0  0  0  0  0  0  0  0  0
 11 12  1  0
 12 13  2  0
 12 17  1  0
 13 14  1  0
 14 15  2  0
 15 16  1  0
 16 17  2  0
 17 10  1  0
 10  7  1  0
  7  8  2  0
  7  9  2  0
  7  1  1  0
  1  2  2  0
  1  6  1  0
  2  3  1  0
  3  4  2  0
  4 18  1  0
  4  5  1  0
 18 19  3  0
 19 20  1  0
 20 21  2  0
 20 26  1  0
 21 22  1  0
 22 23  2  0
 23 24  1  0
 23 25  1  0
 25 27  1  0
 25 26  2  0
 27 28  2  0
 27 29  1  0
  5  6  2  0
M  END
>  <minimizedAffinity>  (340) 
-8.69920

$$$$
data/reference_output_2/data/smiles/133931.pdb
     RDKit          3D

 26 28  0  0  0  0  0  0  0  0999 V2000
   68.8199   42.3310   57.0700 C   0  0  0  0  0  0  0  0  0  0  0  0
   68.9610   43.5894   56.6173 N   0  0  0  0  0  0  0  0  0  0  0  0
   68.2157   44.2025   55.6920 C   0  0  0  0  0  0  0  0  0  0  0  0
   67.2175   43.4732   55.1612 N   0  0  0  0  0  0  0  0  0  0  0  0
   66.9927   42.2093   55.5459 C   0  0  0  0  0  0  0  0  0  0  0  0
   66.0571   41.5265   55.0483 O   0  0  0  0  0  0  0  0  0  0  0  0
   67.7966   41.5926   56.5220 C   0  0  0  0  0  0  0  0  0  0  0  0
   67.5111   40.2836   56.8730 O   0  0  0  0  0  0  0  0  0  0  0  0
   68.4764   45.5752   55.2914 C   0  0  0  0  0  0  0  0  0  0  0  0
   68.2458   46.0030   54.0289 C   0  0  0  0  0  0  0  0  0  0  0  0
   68.4927   47.3126   53.6491 C   0  0  0  0  0  0  0  0  0  0  0  0
   68.9839   48.2267   54.5481 C   0  0  0  0  0  0  0  0  0  0  0  0
   69.3280   50.0368   54.0331 Br  0  0  0  0  0  0  0  0  0  0  0  0
   69.2244   47.8022   55.8440 C   0  0  0  0  0  0  0  0  0  0  0  0
   68.9685   46.4759   56.2073 C   0  0  0  0  0  0  0  0  0  0  0  0
   69.9402   42.5717   59.0744 O   0  0  0  0  0  0  0  0  0  0  0  0
   69.7130   41.7943   58.0846 C   0  0  0  0  0  0  0  0  0  0  0  0
   70.3483   40.5658   58.1277 N   0  0  0  0  0  0  0  0  0  0  0  0
   71.2382   40.0684   59.1715 C   0  0  0  0  0  0  0  0  0  0  0  0
   71.2767   38.5941   59.0620 C   0  0  0  0  0  0  0  0  0  0  0  0
   72.0487   38.0406   58.0458 C   0  0  0  0  0  0  0  0  0  0  0  0
   72.1642   36.6622   57.8689 C   0  0  0  0  0  0  0  0  0  0  0  0
   71.4984   35.8327   58.7208 C   0  0  0  0  0  0  0  0  0  0  0  0
   71.6183   34.4989   58.5385 F   0  0  0  0  0  0  0  0  0  0  0  0
   70.7280   36.3753   59.7350 C   0  0  0  0  0  0  0  0  0  0  0  0
   70.6142   37.7446   59.9105 C   0  0  0  0  0  0  0  0  0  0  0  0
 16 17  2  0
 17 18  1  0
 17  1  1  0
 18 19  1  0
 19 20  1  0
 20 21  2  0
 20 26  1  0
 21 22  1  0
 22 23  2  0
 23 24  1  0
 23 25  1  0
 25 26  2  0
  1  2  1  0
  1  7  2  0
  2  3  2  0
  3  9  1  0
  3  4  1  0
  9 10  2  0
  9 15  1  0
 10 11  1  0
 11 12  2  0
 12 13  1  0
 12 14  1  0
 14 15  2  0
  4  5  1  0
  5  6  2  0
  5  7  1  0
  7  8  1  0
M  END
>  <minimizedAffinity>  (341) 
-8.69898

$$$$
data/200k_reference_output/data/smiles/17158.pdb
     RDKit          3D

 29 32  0  0  0  0  0  0  0  0999 V2000
   72.4763   52.3033   53.8057 N   0  0  0  0  0  0  0  0  0  0  0  0
   71.4615   51.9430   54.7425 C   0  0  0  0  0  0  0  0  0  0  0  0
   71.8694   51.7475   55.9215 O   0  0  0  0  0  0  0  0  0  0  0  0
   70.0562   51.8130   54.3361 C   0  0  2  0  0  0  0  0  0  0  0  0
   69.0565   52.2057   55.3842 C   0  0  0  0  0  0  0  0  0  0  0  0
   68.3703   50.5796   55.9223 S   0  0  0  0  0  0  0  0  0  0  0  0
   69.6166   49.5631   55.0274 C   0  0  1  0  0  0  0  0  0  0  0  0
   69.0923   48.3201   54.4873 C   0  0  0  0  0  0  0  0  0  0  0  0
   68.6070   47.2030   55.1756 C   0  0  0  0  0  0  0  0  0  0  0  0
   68.2482   46.1167   54.4299 C   0  0  0  0  0  0  0  0  0  0  0  0
   68.3487   46.0944   53.0439 C   0  0  0  0  0  0  0  0  0  0  0  0
   68.8323   47.2184   52.3888 C   0  0  0  0  0  0  0  0  0  0  0  0
   69.2000   48.3247   53.1210 C   0  0  0  0  0  0  0  0  0  0  0  0
   69.6625   49.6742   52.7244 C   0  0  0  0  0  0  0  0  0  0  0  0
   69.8838   50.0497   51.5396 O   0  0  0  0  0  0  0  0  0  0  0  0
   69.8118   50.4565   53.9110 N   0  0  0  0  0  0  0  0  0  0  0  0
   73.8661   52.4384   54.2016 C   0  0  1  0  0  0  0  0  0  0  0  0
   73.9663   53.3843   55.3914 C   0  0  0  0  0  0  0  0  0  0  0  0
   75.2739   51.0237   55.7408 N   0  0  0  0  0  0  0  0  0  0  0  0
   74.4820   51.1611   54.5858 C   0  0  0  0  0  0  0  0  0  0  0  0
   74.3404   50.0996   53.8978 O   0  0  0  0  0  0  0  0  0  0  0  0
   75.5212   49.3073   57.5098 C   0  0  0  0  0  0  0  0  0  0  0  0
   75.9078   49.7961   56.1748 C   0  0  2  0  0  0  0  0  0  0  0  0
   77.3715   49.9394   56.0643 C   0  0  0  0  0  0  0  0  0  0  0  0
   78.1062   49.0189   55.3609 C   0  0  0  0  0  0  0  0  0  0  0  0
   79.4799   49.1556   55.2779 C   0  0  0  0  0  0  0  0  0  0  0  0
   80.1220   50.2167   55.9024 C   0  0  0  0  0  0  0  0  0  0  0  0
   79.3542   51.1356   56.6087 C   0  0  0  0  0  0  0  0  0  0  0  0
   77.9937   50.9922   56.6841 C   0  0  0  0  0  0  0  0  0  0  0  0
 23 22  1  1
 23 19  1  0
 23 24  1  0
 19 20  1  0
 20 21  2  0
 20 17  1  0
 17 18  1  1
 17  1  1  0
  1  2  1  0
  2  3  2  0
  4  2  1  1
  4  5  1  0
  4 16  1  0
  5  6  1  0
  7  6  1  1
  7  8  1  0
  7 16  1  0
  8  9  1  0
  8 13  2  0
  9 10  2  0
 10 11  1  0
 11 12  2  0
 12 13  1  0
 13 14  1  0
 14 15  2  0
 14 16  1  0
 24 25  2  0
 24 29  1  0
 25 26  1  0
 26 27  2  0
 27 28  1  0
 28 29  2  0
M  END
>  <minimizedAffinity>  (342) 
-8.69855

$$$$
data/reference_output_2/data/smiles/101139.pdb
     RDKit          3D

 23 25  0  0  0  0  0  0  0  0999 V2000
   68.4470   43.7110   56.2415 N   0  0  0  0  0  0  0  0  0  0  0  0
   68.1789   42.4635   56.4598 C   0  0  0  0  0  0  0  0  0  0  0  0
   67.1045   41.6820   55.8494 C   0  0  0  0  0  0  0  0  0  0  0  0
   66.2690   42.1183   55.0067 O   0  0  0  0  0  0  0  0  0  0  0  0
   67.2011   40.3751   56.3883 N   0  0  0  0  0  0  0  0  0  0  0  0
   68.2853   40.2806   57.3154 C   0  0  0  0  0  0  0  0  0  0  0  0
   68.7654   39.2296   58.0807 C   0  0  0  0  0  0  0  0  0  0  0  0
   69.8500   39.4120   58.9107 C   0  0  0  0  0  0  0  0  0  0  0  0
   70.4200   40.6683   58.9391 C   0  0  0  0  0  0  0  0  0  0  0  0
   72.0820   40.9513   60.2097 I   0  0  0  0  0  0  0  0  0  0  0  0
   69.9597   41.7281   58.1859 C   0  0  0  0  0  0  0  0  0  0  0  0
   68.8622   41.5326   57.3508 C   0  0  0  0  0  0  0  0  0  0  0  0
   67.6953   44.4831   55.3509 N   0  0  0  0  0  0  0  0  0  0  0  0
   69.2807   47.9927   53.5680 C   0  0  0  0  0  0  0  0  0  0  0  0
   69.2958   47.7921   54.9330 C   0  0  0  0  0  0  0  0  0  0  0  0
   68.7798   46.6485   55.5090 C   0  0  0  0  0  0  0  0  0  0  0  0
   68.2231   45.6552   54.7348 C   0  0  0  0  0  0  0  0  0  0  0  0
   68.2020   45.8439   53.3713 C   0  0  0  0  0  0  0  0  0  0  0  0
   68.7244   46.9996   52.7887 C   0  0  0  0  0  0  0  0  0  0  0  0
   71.5155   49.7435   53.5099 N   0  0  0  0  0  0  0  0  0  0  0  0
   69.9359   49.4441   52.8406 S   0  0  0  0  0  0  0  0  0  0  0  0
   70.1064   49.2293   51.3676 O   0  0  0  0  0  0  0  0  0  0  0  0
   69.0951   50.6501   53.1462 O   0  0  0  0  0  0  0  0  0  0  0  0
 20 21  1  0
 21 22  2  0
 21 23  2  0
 21 14  1  0
 14 15  2  0
 14 19  1  0
 15 16  1  0
 16 17  2  0
 17 13  1  0
 17 18  1  0
 13  1  1  0
  1  2  2  0
  2  3  1  0
  2 12  1  0
  3  4  2  0
  3  5  1  0
  5  6  1  0
  6  7  1  0
  6 12  2  0
  7  8  2  0
  8  9  1  0
  9 10  1  0
  9 11  2  0
 11 12  1  0
 18 19  2  0
M  END
>  <minimizedAffinity>  (343) 
-8.69852

$$$$
data/reference_output_2/data/smiles/87871.pdb
     RDKit          3D

 26 28  0  0  0  0  0  0  0  0999 V2000
   67.7476   43.4512   55.9663 N   0  0  0  0  0  0  0  0  0  0  0  0
   68.4962   42.6789   56.8584 C   0  0  0  0  0  0  0  0  0  0  0  0
   69.7486   42.9631   56.8659 O   0  0  0  0  0  0  0  0  0  0  0  0
   68.0166   41.6275   57.7420 C   0  0  0  0  0  0  0  0  0  0  0  0
   68.9088   40.5913   58.0485 C   0  0  0  0  0  0  0  0  0  0  0  0
   68.5519   39.5476   58.8763 C   0  0  0  0  0  0  0  0  0  0  0  0
   69.4024   38.5156   59.1973 C   0  0  0  0  0  0  0  0  0  0  0  0
   69.0431   37.4756   60.0242 C   0  0  0  0  0  0  0  0  0  0  0  0
   70.2396   36.0570   60.4535 Br  0  0  0  0  0  0  0  0  0  0  0  0
   67.7516   37.4553   60.5716 C   0  0  0  0  0  0  0  0  0  0  0  0
   66.8774   38.4795   60.2646 C   0  0  0  0  0  0  0  0  0  0  0  0
   67.2869   39.5121   59.4226 C   0  0  0  0  0  0  0  0  0  0  0  0
   66.4690   40.4834   59.1281 O   0  0  0  0  0  0  0  0  0  0  0  0
   66.7930   41.5060   58.3274 C   0  0  0  0  0  0  0  0  0  0  0  0
   65.9326   42.3983   58.1005 O   0  0  0  0  0  0  0  0  0  0  0  0
   68.2379   46.2904   56.4111 O   0  0  0  0  0  0  0  0  0  0  0  0
   68.3390   45.8091   55.2613 C   0  0  0  0  0  0  0  0  0  0  0  0
   68.0978   44.4582   55.0965 N   0  0  0  0  0  0  0  0  0  0  0  0
   68.7102   46.7505   54.1997 C   0  0  0  0  0  0  0  0  0  0  0  0
   69.2785   47.9683   54.4642 C   0  0  0  0  0  0  0  0  0  0  0  0
   69.6262   48.8531   53.4340 C   0  0  0  0  0  0  0  0  0  0  0  0
   70.3484   50.3980   53.8058 Cl  0  0  0  0  0  0  0  0  0  0  0  0
   69.4080   48.5261   52.1205 C   0  0  0  0  0  0  0  0  0  0  0  0
   68.8371   47.3041   51.8412 C   0  0  0  0  0  0  0  0  0  0  0  0
   68.5003   46.4423   52.8720 C   0  0  0  0  0  0  0  0  0  0  0  0
   67.9235   45.2092   52.5776 O   0  0  0  0  0  0  0  0  0  0  0  0
 16 17  2  0
 17 18  1  0
 17 19  1  0
 18  1  1  0
  1  2  1  0
  2  3  2  0
  2  4  1  0
  4  5  2  0
  4 14  1  0
  5  6  1  0
  6  7  2  0
  6 12  1  0
  7  8  1  0
  8  9  1  0
  8 10  2  0
 10 11  1  0
 11 12  2  0
 12 13  1  0
 13 14  1  0
 14 15  2  0
 19 20  2  0
 19 25  1  0
 20 21  1  0
 21 22  1  0
 21 23  2  0
 23 24  1  0
 24 25  2  0
 25 26  1  0
M  END
>  <minimizedAffinity>  (344) 
-8.69560

$$$$
data/reference_output_2/data/smiles/191065.pdb
     RDKit          3D

 30 34  0  0  0  0  0  0  0  0999 V2000
   69.6830   41.7166   60.1515 O   0  0  0  0  0  0  0  0  0  0  0  0
   69.1376   40.7187   59.5760 C   0  0  0  0  0  0  0  0  0  0  0  0
   68.1479   40.7309   58.4634 C   0  0  2  0  0  0  0  0  0  0  0  0
   67.9137   39.2755   58.2141 C   0  0  0  0  0  0  0  0  0  0  0  0
   68.2653   38.6055   59.5254 C   0  0  0  0  0  0  0  0  0  0  0  0
   69.4169   39.3815   59.9394 N   0  0  0  0  0  0  0  0  0  0  0  0
   68.6076   41.4639   57.3321 N   0  0  0  0  0  0  0  0  0  0  0  0
   67.3810   41.9655   56.2580 S   0  0  0  0  0  0  0  0  0  0  0  0
   67.0830   40.9575   55.2030 O   0  0  0  0  0  0  0  0  0  0  0  0
   66.1127   42.1518   57.0593 O   0  0  0  0  0  0  0  0  0  0  0  0
   67.7384   43.5438   55.5449 C   0  0  0  0  0  0  0  0  0  0  0  0
   68.3683   44.5032   56.2361 N   0  0  0  0  0  0  0  0  0  0  0  0
   68.4920   45.5811   55.4207 C   0  0  0  0  0  0  0  0  0  0  0  0
   69.0409   46.8382   55.5741 C   0  0  0  0  0  0  0  0  0  0  0  0
   69.0439   47.7824   54.5743 C   0  0  0  0  0  0  0  0  0  0  0  0
   69.7565   49.3680   54.8180 Cl  0  0  0  0  0  0  0  0  0  0  0  0
   68.4604   47.4163   53.3750 C   0  0  0  0  0  0  0  0  0  0  0  0
   67.9037   46.1834   53.1732 C   0  0  0  0  0  0  0  0  0  0  0  0
   67.9166   45.2437   54.2138 C   0  0  0  0  0  0  0  0  0  0  0  0
   67.4617   43.9871   54.3171 N   0  0  0  0  0  0  0  0  0  0  0  0
   70.5813   38.8194   60.5914 C   0  0  0  0  0  0  0  0  0  0  0  0
   71.1355   37.7901   59.6737 C   0  0  0  0  0  0  0  0  0  0  0  0
   71.7481   37.9557   58.4461 C   0  0  0  0  0  0  0  0  0  0  0  0
   72.1082   36.7018   57.9441 C   0  0  0  0  0  0  0  0  0  0  0  0
   72.7210   36.2375   56.8195 C   0  0  0  0  0  0  0  0  0  0  0  0
   72.9433   34.8867   56.6047 C   0  0  0  0  0  0  0  0  0  0  0  0
   72.5252   34.0189   57.5646 N   0  0  0  0  0  0  0  0  0  0  0  0
   71.9171   34.4685   58.6837 C   0  0  0  0  0  0  0  0  0  0  0  0
   71.6956   35.8016   58.8999 C   0  0  0  0  0  0  0  0  0  0  0  0
   71.1238   36.4730   59.9108 N   0  0  0  0  0  0  0  0  0  0  0  0
  1  2  2  0
  2  3  1  0
  2  6  1  0
  3  7  1  6
  3  4  1  0
  7  8  1  0
  8  9  2  0
  8 10  2  0
  8 11  1  0
 11 12  2  0
 11 20  1  0
 12 13  1  0
 13 14  2  0
 13 19  1  0
 14 15  1  0
 15 16  1  0
 15 17  2  0
 17 18  1  0
 18 19  2  0
 19 20  1  0
  4  5  1  0
  5  6  1  0
  6 21  1  0
 21 22  1  0
 22 23  2  0
 22 30  1  0
 23 24  1  0
 24 25  2  0
 24 29  1  0
 25 26  1  0
 26 27  2  0
 27 28  1  0
 28 29  2  0
 29 30  1  0
M  CHG  1  12   1
M  END
>  <minimizedAffinity>  (345) 
-8.69415

$$$$
data/reference_output_2/data/smiles/177643.pdb
     RDKit          3D

 29 33  0  0  0  0  0  0  0  0999 V2000
   69.2284   51.8863   56.8532 C   0  0  0  0  0  0  0  0  0  0  0  0
   70.3638   50.9384   56.6356 C   0  0  2  0  0  0  0  0  0  0  0  0
   70.1906   50.0907   55.4738 N   0  0  0  0  0  0  0  0  0  0  0  0
   69.4048   48.9220   55.3223 C   0  0  0  0  0  0  0  0  0  0  0  0
   68.6062   48.3309   56.3117 C   0  0  0  0  0  0  0  0  0  0  0  0
   67.8854   47.1874   56.0327 C   0  0  0  0  0  0  0  0  0  0  0  0
   67.9322   46.6020   54.7865 C   0  0  0  0  0  0  0  0  0  0  0  0
   68.7137   47.1771   53.8147 C   0  0  0  0  0  0  0  0  0  0  0  0
   68.7923   46.6316   52.5595 C   0  0  0  0  0  0  0  0  0  0  0  0
   69.5777   47.2086   51.5802 C   0  0  0  0  0  0  0  0  0  0  0  0
   70.2881   48.3701   51.9187 C   0  0  0  0  0  0  0  0  0  0  0  0
   70.2082   48.9125   53.1707 C   0  0  0  0  0  0  0  0  0  0  0  0
   69.4359   48.3341   54.1144 C   0  0  0  0  0  0  0  0  0  0  0  0
   70.9312   50.3043   53.9218 S   0  0  0  0  0  0  0  0  0  0  0  0
   70.4590   51.5912   53.3144 O   0  0  0  0  0  0  0  0  0  0  0  0
   72.4159   50.2322   53.9871 O   0  0  0  0  0  0  0  0  0  0  0  0
   70.6435   50.1045   57.8620 C   0  0  0  0  0  0  0  0  0  0  0  0
   69.9678   50.2660   58.9073 O   0  0  0  0  0  0  0  0  0  0  0  0
   71.6627   49.1279   57.8656 N   0  0  0  0  0  0  0  0  0  0  0  0
   71.9701   48.3040   58.9992 C   0  0  0  0  0  0  0  0  0  0  0  0
   71.9041   46.8877   58.6211 C   0  0  0  0  0  0  0  0  0  0  0  0
   72.9338   45.9917   58.6199 C   0  0  0  0  0  0  0  0  0  0  0  0
   72.7952   44.6599   58.2595 C   0  0  0  0  0  0  0  0  0  0  0  0
   71.5538   44.2082   57.8815 C   0  0  0  0  0  0  0  0  0  0  0  0
   70.4963   45.0578   57.8654 C   0  0  0  0  0  0  0  0  0  0  0  0
   70.6590   46.3800   58.2284 C   0  0  0  0  0  0  0  0  0  0  0  0
   69.3446   44.3629   57.4464 O   0  0  0  0  0  0  0  0  0  0  0  0
   69.6583   42.9782   57.5272 C   0  0  0  0  0  0  0  0  0  0  0  0
   71.0790   42.9508   57.4688 O   0  0  0  0  0  0  0  0  0  0  0  0
  2  1  1  1
  2 17  1  0
  2  3  1  0
 17 18  2  0
 17 19  1  0
 19 20  1  0
 20 21  1  0
 21 22  2  0
 21 26  1  0
 22 23  1  0
 23 24  2  0
 24 25  1  0
 24 29  1  0
 25 26  2  0
 25 27  1  0
 27 28  1  0
 28 29  1  0
  3  4  1  0
  3 14  1  0
  4  5  2  0
  4 13  1  0
  5  6  1  0
  6  7  2  0
  7  8  1  0
  8  9  1  0
  8 13  2  0
  9 10  2  0
 10 11  1  0
 11 12  2  0
 12 13  1  0
 12 14  1  0
 14 15  2  0
 14 16  2  0
M  END
>  <minimizedAffinity>  (346) 
-8.68829

$$$$
data/reference_output_2/data/smiles/166670.pdb
     RDKit          3D

 29 32  0  0  0  0  0  0  0  0999 V2000
   73.8126   33.8008   52.7848 C   0  0  1  0  0  0  0  0  0  0  0  0
   74.7552   33.3253   51.6979 C   0  0  0  0  0  0  0  0  0  0  0  0
   75.6237   34.4768   51.5368 N   0  0  0  0  0  0  0  0  0  0  0  0
   75.6233   35.2475   52.7392 C   0  0  0  0  0  0  0  0  0  0  0  0
   76.1718   36.3444   52.9035 O   0  0  0  0  0  0  0  0  0  0  0  0
   74.8262   34.4490   53.7382 C   0  0  1  0  0  0  0  0  0  0  0  0
   76.3367   34.7305   50.3297 C   0  0  0  0  0  0  0  0  0  0  0  0
   75.9720   34.1084   49.1570 C   0  0  0  0  0  0  0  0  0  0  0  0
   76.6635   34.3530   47.9820 C   0  0  0  0  0  0  0  0  0  0  0  0
   77.7392   35.2243   47.9356 C   0  0  0  0  0  0  0  0  0  0  0  0
   78.1026   35.8456   49.1120 C   0  0  0  0  0  0  0  0  0  0  0  0
   77.4121   35.6006   50.2840 C   0  0  0  0  0  0  0  0  0  0  0  0
   72.7305   35.0598   51.0750 O   0  0  0  0  0  0  0  0  0  0  0  0
   72.8865   34.8533   52.3055 C   0  0  0  0  0  0  0  0  0  0  0  0
   72.1534   35.6528   53.1703 O   0  0  0  0  0  0  0  0  0  0  0  0
   74.1888   35.2825   54.7040 N   0  0  0  0  0  0  0  0  0  0  0  0
   74.4101   34.6987   56.3168 S   0  0  0  0  0  0  0  0  0  0  0  0
   75.7198   35.1994   56.8546 O   0  0  0  0  0  0  0  0  0  0  0  0
   74.4087   33.2113   56.3845 O   0  0  0  0  0  0  0  0  0  0  0  0
   73.1549   35.2791   57.3921 C   0  0  0  0  0  0  0  0  0  0  0  0
   72.5538   34.4525   58.3198 C   0  0  0  0  0  0  0  0  0  0  0  0
   71.5610   34.9180   59.1671 C   0  0  0  0  0  0  0  0  0  0  0  0
   71.1236   36.2286   59.1279 C   0  0  0  0  0  0  0  0  0  0  0  0
   70.1388   36.7199   59.9581 C   0  0  0  0  0  0  0  0  0  0  0  0
   69.7113   38.0310   59.9082 C   0  0  0  0  0  0  0  0  0  0  0  0
   70.3141   38.8546   58.9795 C   0  0  0  0  0  0  0  0  0  0  0  0
   71.3013   38.3704   58.1456 C   0  0  0  0  0  0  0  0  0  0  0  0
   71.7278   37.0512   58.1995 C   0  0  0  0  0  0  0  0  0  0  0  0
   72.7200   36.5887   57.3514 C   0  0  0  0  0  0  0  0  0  0  0  0
 13 14  2  0
 14 15  1  0
  1 14  1  6
  1  2  1  0
  1  6  1  0
  2  3  1  0
  3  7  1  0
  3  4  1  0
  7  8  2  0
  7 12  1  0
  8  9  1  0
  9 10  2  0
 10 11  1  0
 11 12  2  0
  4  5  2  0
  4  6  1  0
  6 16  1  1
 16 17  1  0
 17 18  2  0
 17 19  2  0
 17 20  1  0
 20 21  2  0
 20 29  1  0
 21 22  1  0
 22 23  2  0
 23 24  1  0
 23 28  1  0
 24 25  2  0
 25 26  1  0
 26 27  2  0
 27 28  1  0
 28 29  2  0
M  END
>  <minimizedAffinity>  (347) 
-8.68682

$$$$
data/200k_reference_output/data/smiles/50640.pdb
     RDKit          3D

 30 33  0  0  0  0  0  0  0  0999 V2000
   69.7770   39.3516   58.7692 N   0  0  0  0  0  0  0  0  0  0  0  0
   68.7432   38.7041   58.1488 C   0  0  0  0  0  0  0  0  0  0  0  0
   67.9515   39.3646   57.2976 N   0  0  0  0  0  0  0  0  0  0  0  0
   68.1160   40.6651   57.0084 C   0  0  0  0  0  0  0  0  0  0  0  0
   67.3128   41.3553   56.1372 C   0  0  0  0  0  0  0  0  0  0  0  0
   67.5028   42.6884   55.8555 C   0  0  0  0  0  0  0  0  0  0  0  0
   68.5440   43.4098   56.4573 C   0  0  0  0  0  0  0  0  0  0  0  0
   69.3399   42.7013   57.3287 C   0  0  0  0  0  0  0  0  0  0  0  0
   69.1489   41.3590   57.6124 C   0  0  0  0  0  0  0  0  0  0  0  0
   69.9556   40.6523   58.4906 C   0  0  0  0  0  0  0  0  0  0  0  0
   70.8919   41.2932   59.0347 O   0  0  0  0  0  0  0  0  0  0  0  0
   68.7162   44.7993   56.1392 C   0  0  0  0  0  0  0  0  0  0  0  0
   68.8379   45.9433   55.8829 C   0  0  0  0  0  0  0  0  0  0  0  0
   69.0099   47.3844   55.5762 C   0  0  0  0  0  0  0  0  0  0  0  0
   68.8921   47.6876   54.2077 N   0  0  0  0  0  0  0  0  0  0  0  0
   69.7142   48.7294   53.7668 C   0  0  0  0  0  0  0  0  0  0  0  0
   69.8000   48.9465   52.2867 C   0  0  0  0  0  0  0  0  0  0  0  0
   69.8147   47.6670   51.4950 C   0  0  0  0  0  0  0  0  0  0  0  0
   68.6428   46.8259   51.9017 C   0  0  0  0  0  0  0  0  0  0  0  0
   68.5573   46.6114   53.3842 C   0  0  0  0  0  0  0  0  0  0  0  0
   70.6154   38.6056   59.6892 C   0  0  0  0  0  0  0  0  0  0  0  0
   72.4452   35.2338   57.7663 C   0  0  0  0  0  0  0  0  0  0  0  0
   71.5988   35.0484   58.8279 C   0  0  0  0  0  0  0  0  0  0  0  0
   71.0319   36.1480   59.4288 C   0  0  0  0  0  0  0  0  0  0  0  0
   71.2848   37.4565   59.0010 C   0  0  0  0  0  0  0  0  0  0  0  0
   72.1373   37.5760   57.9374 C   0  0  0  0  0  0  0  0  0  0  0  0
   72.7259   36.5012   57.3080 C   0  0  0  0  0  0  0  0  0  0  0  0
   72.8166   33.8089   55.9082 O   0  0  0  0  0  0  0  0  0  0  0  0
   73.0640   34.0712   57.1022 C   0  0  0  0  0  0  0  0  0  0  0  0
   73.9322   33.2521   57.7999 O   0  0  0  0  0  0  0  0  0  0  0  0
 28 29  2  0
 29 30  1  0
 29 22  1  0
 22 23  2  0
 22 27  1  0
 23 24  1  0
 24 25  2  0
 25 21  1  0
 25 26  1  0
 21  1  1  0
  1  2  1  0
  1 10  1  0
  2  3  2  0
  3  4  1  0
  4  5  2  0
  4  9  1  0
  5  6  1  0
  6  7  2  0
  7 12  1  0
  7  8  1  0
 12 13  3  0
 13 14  1  0
 14 15  1  0
 15 16  1  0
 15 20  1  0
 16 17  1  0
 17 18  1  0
 18 19  1  0
 19 20  1  0
  8  9  2  0
  9 10  1  0
 10 11  2  0
 26 27  2  0
M  CHG  1  15   1
M  END
>  <minimizedAffinity>  (348) 
-8.68570

$$$$
data/reference_output_2/data/smiles/194024.pdb
     RDKit          3D

 30 33  0  0  0  0  0  0  0  0999 V2000
   69.8393   50.3436   56.5506 N   0  0  2  0  0  0  0  0  0  0  0  0
   71.2145   50.6936   56.1802 C   0  0  0  0  0  0  0  0  0  0  0  0
   71.4180   50.3719   54.7297 C   0  0  0  0  0  0  0  0  0  0  0  0
   70.2127   50.5642   53.8789 C   0  0  2  0  0  0  0  0  0  0  0  0
   69.1225   51.4059   54.4735 C   0  0  1  0  0  0  0  0  0  0  0  0
   67.9332   51.1049   53.7899 F   0  0  0  0  0  0  0  0  0  0  0  0
   68.9546   51.3485   55.9465 C   0  0  0  0  0  0  0  0  0  0  0  0
   69.7044   49.3753   53.2292 N   0  0  0  0  0  0  0  0  0  0  0  0
   69.6087   49.1496   51.9192 C   0  0  0  0  0  0  0  0  0  0  0  0
   69.9270   49.9124   50.9820 O   0  0  0  0  0  0  0  0  0  0  0  0
   69.0899   47.9138   51.7130 N   0  0  0  0  0  0  0  0  0  0  0  0
   68.8404   47.3165   52.9011 C   0  0  0  0  0  0  0  0  0  0  0  0
   68.3231   46.0999   53.2803 C   0  0  0  0  0  0  0  0  0  0  0  0
   68.1888   45.7985   54.6129 C   0  0  0  0  0  0  0  0  0  0  0  0
   68.5857   46.7433   55.5551 C   0  0  0  0  0  0  0  0  0  0  0  0
   69.1066   47.9661   55.1938 C   0  0  0  0  0  0  0  0  0  0  0  0
   69.2301   48.2445   53.8485 C   0  0  0  0  0  0  0  0  0  0  0  0
   69.6806   50.3275   57.9860 C   0  0  0  0  0  0  0  0  0  0  0  0
   70.8787   49.6517   58.6491 C   0  0  0  0  0  0  0  0  0  0  0  0
   71.4512   47.4409   60.2894 O   0  0  0  0  0  0  0  0  0  0  0  0
   71.2880   47.1928   59.0716 C   0  0  0  0  0  0  0  0  0  0  0  0
   70.9862   48.2663   58.1705 N   0  0  0  0  0  0  0  0  0  0  0  0
   71.4196   45.8110   58.6512 C   0  0  0  0  0  0  0  0  0  0  0  0
   72.5493   45.0499   58.8098 C   0  0  0  0  0  0  0  0  0  0  0  0
   72.6043   43.7223   58.3916 C   0  0  0  0  0  0  0  0  0  0  0  0
   71.5213   43.1354   57.8035 C   0  0  0  0  0  0  0  0  0  0  0  0
   71.5755   41.8282   57.3867 F   0  0  0  0  0  0  0  0  0  0  0  0
   70.3834   43.8610   57.6295 C   0  0  0  0  0  0  0  0  0  0  0  0
   69.3037   43.2664   57.0452 F   0  0  0  0  0  0  0  0  0  0  0  0
   70.3435   45.1892   58.0542 C   0  0  0  0  0  0  0  0  0  0  0  0
 20 21  2  0
 21 22  1  0
 21 23  1  0
 22 19  1  0
 19 18  1  0
  1 18  1  1
  1  2  1  0
  1  7  1  0
  2  3  1  0
  3  4  1  0
  4  8  1  1
  4  5  1  0
  8  9  1  0
  8 17  1  0
  9 10  2  0
  9 11  1  0
 11 12  1  0
 12 13  1  0
 12 17  2  0
 13 14  2  0
 14 15  1  0
 15 16  2  0
 16 17  1  0
  5  6  1  6
  5  7  1  0
 23 24  2  0
 23 30  1  0
 24 25  1  0
 25 26  2  0
 26 27  1  0
 26 28  1  0
 28 29  1  0
 28 30  2  0
M  CHG  1   1   1
M  END
>  <minimizedAffinity>  (349) 
-8.68423

$$$$
data/reference_output_2/data/smiles/186179.pdb
     RDKit          3D

 32 36  0  0  0  0  0  0  0  0999 V2000
   72.1864   47.9808   59.9551 C   0  0  0  0  0  0  0  0  0  0  0  0
   72.0194   48.9453   59.0950 C   0  0  0  0  0  0  0  0  0  0  0  0
   75.7639   47.3766   62.1573 C   0  0  0  0  0  0  0  0  0  0  0  0
   75.0615   46.3062   61.6724 C   0  0  0  0  0  0  0  0  0  0  0  0
   73.8680   46.4361   60.9529 C   0  0  0  0  0  0  0  0  0  0  0  0
   73.3853   47.6985   60.7273 C   0  0  0  0  0  0  0  0  0  0  0  0
   74.0967   48.7919   61.2219 C   0  0  0  0  0  0  0  0  0  0  0  0
   75.2680   48.6689   61.9273 C   0  0  0  0  0  0  0  0  0  0  0  0
   78.0714   47.2892   62.1912 O   0  0  0  0  0  0  0  0  0  0  0  0
   76.9972   47.2524   62.8766 C   0  0  0  0  0  0  0  0  0  0  0  0
   77.0772   47.1031   64.2487 N   0  0  0  0  0  0  0  0  0  0  0  0
   75.9039   47.0229   65.1046 C   0  0  0  0  0  0  0  0  0  0  0  0
   76.0854   48.1612   66.1159 C   0  0  0  0  0  0  0  0  0  0  0  0
   77.2440   47.8746   66.8314 O   0  0  0  0  0  0  0  0  0  0  0  0
   78.3952   48.0175   66.0781 C   0  0  0  0  0  0  0  0  0  0  0  0
   78.4007   47.0673   64.8913 C   0  0  0  0  0  0  0  0  0  0  0  0
   70.8081   49.2086   58.3357 C   0  0  0  0  0  0  0  0  0  0  0  0
   70.4573   48.5635   57.1811 C   0  0  0  0  0  0  0  0  0  0  0  0
   69.2776   48.7817   56.4871 C   0  0  0  0  0  0  0  0  0  0  0  0
   68.4213   49.7170   57.0209 C   0  0  0  0  0  0  0  0  0  0  0  0
   68.7599   50.3917   58.2027 C   0  0  0  0  0  0  0  0  0  0  0  0
   69.9234   50.1209   58.8124 N   0  0  0  0  0  0  0  0  0  0  0  0
   68.9532   48.0946   55.2477 C   0  0  0  0  0  0  0  0  0  0  0  0
   69.6083   48.3006   54.0270 C   0  0  0  0  0  0  0  0  0  0  0  0
   69.0166   47.4957   53.0704 C   0  0  0  0  0  0  0  0  0  0  0  0
   69.1844   47.2510   51.7310 C   0  0  0  0  0  0  0  0  0  0  0  0
   70.0923   47.8664   51.1309 O   0  0  0  0  0  0  0  0  0  0  0  0
   68.4190   46.3787   51.0281 N   0  0  0  0  0  0  0  0  0  0  0  0
   67.4416   45.7201   51.6948 C   0  0  0  0  0  0  0  0  0  0  0  0
   67.2654   45.9445   52.9909 N   0  0  0  0  0  0  0  0  0  0  0  0
   67.9977   46.7943   53.7065 C   0  0  0  0  0  0  0  0  0  0  0  0
   68.0151   47.1978   54.9999 N   0  0  0  0  0  0  0  0  0  0  0  0
  9 10  2  0
 10  3  1  0
 10 11  1  0
  3  4  2  0
  3  8  1  0
  4  5  1  0
  5  6  2  0
  6  1  1  0
  6  7  1  0
  1  2  2  0
  2 17  1  0
 17 18  2  0
 17 22  1  0
 18 19  1  0
 19 23  1  0
 19 20  2  0
 23 24  2  0
 23 32  1  0
 24 25  1  0
 25 26  1  0
 25 31  2  0
 26 27  2  0
 26 28  1  0
 28 29  1  0
 29 30  2  0
 30 31  1  0
 31 32  1  0
 20 21  1  0
 21 22  2  0
  7  8  2  0
 11 12  1  0
 11 16  1  0
 12 13  1  0
 13 14  1  0
 14 15  1  0
 15 16  1  0
M  END
>  <minimizedAffinity>  (350) 
-8.68227

$$$$
data/reference_output_2/data/smiles/167149.pdb
     RDKit          3D

 30 34  0  0  0  0  0  0  0  0999 V2000
   69.3676   40.1184   58.2201 C   0  0  0  0  0  0  0  0  0  0  0  0
   70.0362   41.3232   58.1693 C   0  0  0  0  0  0  0  0  0  0  0  0
   69.5742   42.3819   57.3778 C   0  0  0  0  0  0  0  0  0  0  0  0
   68.4302   42.2461   56.6217 C   0  0  0  0  0  0  0  0  0  0  0  0
   67.7783   43.1162   55.7761 C   0  0  0  0  0  0  0  0  0  0  0  0
   66.7119   42.4167   55.3227 N   0  0  0  0  0  0  0  0  0  0  0  0
   66.7018   41.2113   55.8437 N   0  0  0  0  0  0  0  0  0  0  0  0
   67.7518   41.0384   56.6674 C   0  0  0  0  0  0  0  0  0  0  0  0
   68.2223   40.0055   57.4541 C   0  0  0  0  0  0  0  0  0  0  0  0
   68.1342   44.4903   55.4286 C   0  0  0  0  0  0  0  0  0  0  0  0
   68.0824   45.0407   54.2215 N   0  0  0  0  0  0  0  0  0  0  0  0
   68.4865   46.3376   54.2695 C   0  0  0  0  0  0  0  0  0  0  0  0
   68.6281   47.3508   53.3485 C   0  0  0  0  0  0  0  0  0  0  0  0
   69.0705   48.5994   53.6905 C   0  0  0  0  0  0  0  0  0  0  0  0
   69.3904   48.8639   55.0053 C   0  0  0  0  0  0  0  0  0  0  0  0
   69.2538   47.8529   55.9514 C   0  0  0  0  0  0  0  0  0  0  0  0
   68.8063   46.5923   55.6010 C   0  0  0  0  0  0  0  0  0  0  0  0
   68.5761   45.4449   56.2616 N   0  0  0  0  0  0  0  0  0  0  0  0
   70.7384   38.0096   58.6288 N   0  0  0  0  0  0  0  0  0  0  0  0
   69.8430   39.0019   59.0467 C   0  0  0  0  0  0  0  0  0  0  0  0
   69.4216   38.9172   60.2228 O   0  0  0  0  0  0  0  0  0  0  0  0
   73.6271   37.5851   59.3776 C   0  0  1  0  0  0  0  0  0  0  0  0
   73.9317   36.3566   58.5513 C   0  0  0  0  0  0  0  0  0  0  0  0
   72.7436   35.9191   57.7320 C   0  0  0  0  0  0  0  0  0  0  0  0
   71.5925   35.6872   58.6877 C   0  0  0  0  0  0  0  0  0  0  0  0
   71.2094   36.9158   59.4249 C   0  0  1  0  0  0  0  0  0  0  0  0
   72.3884   37.4010   60.2159 C   0  0  0  0  0  0  0  0  0  0  0  0
   75.9139   37.2040   60.2900 N   0  0  0  0  0  0  0  0  0  0  0  0
   74.7847   38.0380   60.1620 C   0  0  0  0  0  0  0  0  0  0  0  0
   74.7733   39.1532   60.7116 O   0  0  0  0  0  0  0  0  0  0  0  0
 28 29  1  0
 29 30  2  0
 22 29  1  1
 22 23  1  0
 22 27  1  0
 23 24  1  0
 24 25  1  0
 25 26  1  0
 26 19  1  6
 26 27  1  0
 19 20  1  0
 20 21  2  0
 20  1  1  0
  1  2  2  0
  1  9  1  0
  2  3  1  0
  3  4  2  0
  4  5  1  0
  4  8  1  0
  5 10  1  0
  5  6  2  0
 10 11  2  0
 10 18  1  0
 11 12  1  0
 12 13  2  0
 12 17  1  0
 13 14  1  0
 14 15  2  0
 15 16  1  0
 16 17  2  0
 17 18  1  0
  6  7  1  0
  7  8  1  0
  8  9  2  0
M  CHG  1  11   1
M  END
>  <minimizedAffinity>  (351) 
-8.68222

$$$$
data/200k_reference_output/data/smiles/71759.pdb
     RDKit          3D

 32 35  0  0  0  0  0  0  0  0999 V2000
   70.2674   37.3763   60.4291 N   0  0  0  0  0  0  0  0  0  0  0  0
   70.8488   37.8499   59.2006 C   0  0  0  0  0  0  0  0  0  0  0  0
   71.5226   36.7003   58.5669 C   0  0  0  0  0  0  0  0  0  0  0  0
   72.2223   36.6376   57.3823 C   0  0  0  0  0  0  0  0  0  0  0  0
   72.7986   35.4638   56.9304 C   0  0  0  0  0  0  0  0  0  0  0  0
   72.6371   34.3518   57.7264 C   0  0  0  0  0  0  0  0  0  0  0  0
   71.9382   34.3970   58.9172 C   0  0  0  0  0  0  0  0  0  0  0  0
   71.3710   35.5969   59.3421 C   0  0  0  0  0  0  0  0  0  0  0  0
   70.5933   35.9834   60.5107 C   0  0  0  0  0  0  0  0  0  0  0  0
   70.2572   35.2073   61.4545 O   0  0  0  0  0  0  0  0  0  0  0  0
   73.5322   35.3718   55.7031 C   0  0  0  0  0  0  0  0  0  0  0  0
   74.1572   35.2874   54.6640 C   0  0  0  0  0  0  0  0  0  0  0  0
   74.8830   35.2057   53.4265 C   0  0  0  0  0  0  0  0  0  0  0  0
   74.4203   34.4712   52.3526 C   0  0  0  0  0  0  0  0  0  0  0  0
   75.0939   34.3742   51.1527 C   0  0  0  0  0  0  0  0  0  0  0  0
   76.2952   35.0507   51.0248 C   0  0  0  0  0  0  0  0  0  0  0  0
   76.7769   35.7931   52.0904 C   0  0  0  0  0  0  0  0  0  0  0  0
   76.0788   35.8712   53.2795 C   0  0  0  0  0  0  0  0  0  0  0  0
   77.0175   34.9587   49.7676 C   0  0  0  0  0  0  0  0  0  0  0  0
   76.4294   34.3171   48.6976 C   0  0  0  0  0  0  0  0  0  0  0  0
   77.0827   34.2071   47.4860 C   0  0  0  0  0  0  0  0  0  0  0  0
   78.3421   34.7491   47.3480 C   0  0  0  0  0  0  0  0  0  0  0  0
   78.9445   35.3909   48.4003 C   0  0  0  0  0  0  0  0  0  0  0  0
   78.2822   35.4918   49.5991 C   0  0  0  0  0  0  0  0  0  0  0  0
   69.5061   38.1611   61.3810 C   0  0  1  0  0  0  0  0  0  0  0  0
   70.3186   38.5387   62.5603 C   0  0  0  0  0  0  0  0  0  0  0  0
   71.5516   38.7364   62.4351 O   0  0  0  0  0  0  0  0  0  0  0  0
   69.7567   38.6928   63.8573 N   0  0  0  0  0  0  0  0  0  0  0  0
   70.5464   39.0365   64.8914 O   0  0  0  0  0  0  0  0  0  0  0  0
   67.3112   39.1575   60.7445 C   0  0  0  0  0  0  0  0  0  0  0  0
   68.8148   39.3223   60.7278 C   0  0  1  0  0  0  0  0  0  0  0  0
   69.1142   40.5477   61.2689 O   0  0  0  0  0  0  0  0  0  0  0  0
 31 30  1  1
 31 32  1  0
 31 25  1  0
 25 26  1  0
 25  1  1  6
 26 27  2  0
 26 28  1  0
 28 29  1  0
  1  2  1  0
  1  9  1  0
  2  3  1  0
  3  4  2  0
  3  8  1  0
  4  5  1  0
  5 11  1  0
  5  6  2  0
 11 12  3  0
 12 13  1  0
 13 14  2  0
 13 18  1  0
 14 15  1  0
 15 16  2  0
 16 19  1  0
 16 17  1  0
 19 20  2  0
 19 24  1  0
 20 21  1  0
 21 22  2  0
 22 23  1  0
 23 24  2  0
 17 18  2  0
  6  7  1  0
  7  8  2  0
  8  9  1  0
  9 10  2  0
M  END
>  <minimizedAffinity>  (352) 
-8.67860

$$$$
data/200k_reference_output/data/smiles/606.pdb
     RDKit          3D

 22 24  0  0  0  0  0  0  0  0999 V2000
   68.3267   44.5596   55.9292 N   0  0  0  0  0  0  0  0  0  0  0  0
   67.9351   45.0560   54.8372 C   0  0  0  0  0  0  0  0  0  0  0  0
   68.4454   46.2676   54.2097 C   0  0  0  0  0  0  0  0  0  0  0  0
   68.4657   47.4788   54.8798 C   0  0  0  0  0  0  0  0  0  0  0  0
   68.9503   48.6256   54.2848 C   0  0  0  0  0  0  0  0  0  0  0  0
   69.4328   48.5975   52.9902 C   0  0  0  0  0  0  0  0  0  0  0  0
   69.4247   47.4057   52.2998 C   0  0  0  0  0  0  0  0  0  0  0  0
   68.9332   46.2666   52.9190 C   0  0  0  0  0  0  0  0  0  0  0  0
   69.9444   47.6585   51.0750 N   0  0  0  0  0  0  0  0  0  0  0  0
   70.2451   48.9222   51.0336 O   0  0  0  0  0  0  0  0  0  0  0  0
   69.9574   49.5124   52.1496 N   0  0  0  0  0  0  0  0  0  0  0  0
   70.1406   50.8498   52.4631 O   0  0  0  0  0  0  0  0  0  0  0  0
   69.8548   42.7623   57.3682 O   0  0  0  0  0  0  0  0  0  0  0  0
   68.6345   42.4995   57.2720 C   0  0  0  0  0  0  0  0  0  0  0  0
   67.8529   43.4086   56.5417 N   0  0  0  0  0  0  0  0  0  0  0  0
   68.1103   41.2934   57.9081 C   0  0  0  0  0  0  0  0  0  0  0  0
   68.5055   40.0233   57.5687 C   0  0  0  0  0  0  0  0  0  0  0  0
   67.9978   38.8967   58.1810 C   0  0  0  0  0  0  0  0  0  0  0  0
   67.0507   39.0076   59.1837 C   0  0  0  0  0  0  0  0  0  0  0  0
   66.2906   37.2771   60.1032 I   0  0  0  0  0  0  0  0  0  0  0  0
   66.6414   40.2727   59.5375 C   0  0  0  0  0  0  0  0  0  0  0  0
   67.1649   41.3942   58.9082 C   0  0  0  0  0  0  0  0  0  0  0  0
 13 14  2  0
 14 15  1  0
 14 16  1  0
 15  1  1  0
  1  2  2  0
  2  3  1  0
  3  4  1  0
  3  8  2  0
  4  5  2  0
  5  6  1  0
  6  7  1  0
  6 11  2  0
  7  8  1  0
  7  9  2  0
  9 10  1  0
 10 11  1  0
 11 12  1  0
 16 17  2  0
 16 22  1  0
 17 18  1  0
 18 19  2  0
 19 20  1  0
 19 21  1  0
 21 22  2  0
M  CHG  2  11   1  12  -1
M  END
>  <minimizedAffinity>  (353) 
-8.67787

$$$$
data/reference_output_2/data/smiles/114352.pdb
     RDKit          3D

 32 35  0  0  0  0  0  0  0  0999 V2000
   69.7229   42.5450   59.2770 C   0  0  2  0  0  0  0  0  0  0  0  0
   69.5304   42.3581   60.6724 C   0  0  0  0  0  0  0  0  0  0  0  0
   69.3631   42.2170   61.7512 C   0  0  0  0  0  0  0  0  0  0  0  0
   69.1535   42.0353   63.1590 C   0  0  0  0  0  0  0  0  0  0  0  0
   70.5005   41.8802   63.7065 C   0  0  0  0  0  0  0  0  0  0  0  0
   71.3324   41.9932   62.5789 C   0  0  0  0  0  0  0  0  0  0  0  0
   71.9608   42.0861   61.6945 C   0  0  0  0  0  0  0  0  0  0  0  0
   72.7758   42.2236   60.5155 C   0  0  0  0  0  0  0  0  0  0  0  0
   72.0484   43.3799   59.8331 C   0  0  1  0  0  0  0  0  0  0  0  0
   72.6355   44.0654   58.7203 C   0  0  0  0  0  0  0  0  0  0  0  0
   73.6222   44.3603   58.0522 O   0  0  0  0  0  0  0  0  0  0  0  0
   71.1877   44.4774   58.4849 N   0  0  0  0  0  0  0  0  0  0  0  0
   70.7901   45.7161   58.1050 C   0  0  0  0  0  0  0  0  0  0  0  0
   71.5989   46.7122   58.2047 O   0  0  0  0  0  0  0  0  0  0  0  0
   69.5063   46.1602   57.5590 N   0  0  0  0  0  0  0  0  0  0  0  0
   71.0084   43.0573   58.7860 C   0  0  2  0  0  0  0  0  0  0  0  0
   68.6211   42.9003   58.5096 O   0  0  0  0  0  0  0  0  0  0  0  0
   68.0670   41.0396   56.8533 C   0  0  0  0  0  0  0  0  0  0  0  0
   68.4181   42.4410   57.1987 C   0  0  0  0  0  0  0  0  0  0  0  0
   68.5542   43.3156   56.2723 O   0  0  0  0  0  0  0  0  0  0  0  0
   69.3587   47.5518   57.3100 C   0  0  0  0  0  0  0  0  0  0  0  0
   68.5134   48.1380   56.2955 C   0  0  0  0  0  0  0  0  0  0  0  0
   69.0794   48.3588   54.9881 C   0  0  0  0  0  0  0  0  0  0  0  0
   70.0047   49.3541   54.7700 C   0  0  0  0  0  0  0  0  0  0  0  0
   70.5715   49.5771   53.5319 C   0  0  0  0  0  0  0  0  0  0  0  0
   70.1992   48.7790   52.4845 C   0  0  0  0  0  0  0  0  0  0  0  0
   69.2817   47.7681   52.6290 C   0  0  0  0  0  0  0  0  0  0  0  0
   68.9229   46.9154   51.5875 C   0  0  0  0  0  0  0  0  0  0  0  0
   68.0274   45.8900   51.8128 C   0  0  0  0  0  0  0  0  0  0  0  0
   67.4678   45.6815   53.0599 C   0  0  0  0  0  0  0  0  0  0  0  0
   67.8382   46.5423   54.0832 C   0  0  0  0  0  0  0  0  0  0  0  0
   68.7264   47.5725   53.8970 C   0  0  0  0  0  0  0  0  0  0  0  0
 18 19  1  0
 19 20  2  0
 19 17  1  0
  1 17  1  1
  1  2  1  0
  1 16  1  0
  2  3  3  0
  3  4  1  0
  4  5  2  0
  5  6  1  0
  6  7  3  0
  7  8  1  0
  9  8  1  6
  9 10  1  0
  9 16  1  0
 10 11  2  0
 10 12  1  0
 12 13  1  0
 16 12  1  1
 13 14  2  0
 13 15  1  0
 15 21  1  0
 21 22  1  0
 22 23  1  0
 23 24  2  0
 23 32  1  0
 24 25  1  0
 25 26  2  0
 26 27  1  0
 27 28  1  0
 27 32  2  0
 28 29  2  0
 29 30  1  0
 30 31  2  0
 31 32  1  0
M  END
>  <minimizedAffinity>  (354) 
-8.67641

$$$$
data/reference_output_2/data/smiles/112998.pdb
     RDKit          3D

 32 36  0  0  0  0  0  0  0  0999 V2000
   68.8591   40.3838   58.3205 C   0  0  0  0  0  0  0  0  0  0  0  0
   67.6527   40.6288   57.7161 C   0  0  0  0  0  0  0  0  0  0  0  0
   67.4479   41.7189   56.8624 C   0  0  0  0  0  0  0  0  0  0  0  0
   68.4740   42.5984   56.5967 C   0  0  0  0  0  0  0  0  0  0  0  0
   69.6957   42.3675   57.1952 C   0  0  0  0  0  0  0  0  0  0  0  0
   69.8825   41.2891   58.0359 C   0  0  0  0  0  0  0  0  0  0  0  0
   68.2494   43.6999   55.7259 N   0  0  0  0  0  0  0  0  0  0  0  0
   68.6671   45.0267   56.0182 C   0  0  0  0  0  0  0  0  0  0  0  0
   69.2627   45.1915   57.1182 O   0  0  0  0  0  0  0  0  0  0  0  0
   68.4315   46.1141   55.1307 N   0  0  0  0  0  0  0  0  0  0  0  0
   68.8284   47.4856   55.3708 C   0  0  0  0  0  0  0  0  0  0  0  0
   69.2760   47.9242   54.0264 C   0  0  0  0  0  0  0  0  0  0  0  0
   70.1321   48.9138   53.5818 C   0  0  0  0  0  0  0  0  0  0  0  0
   70.3602   49.0941   52.2405 C   0  0  0  0  0  0  0  0  0  0  0  0
   69.7377   48.2932   51.3733 N   0  0  0  0  0  0  0  0  0  0  0  0
   68.8981   47.3197   51.7705 C   0  0  0  0  0  0  0  0  0  0  0  0
   68.6481   47.1129   53.1132 C   0  0  0  0  0  0  0  0  0  0  0  0
   67.7751   46.1214   53.8397 C   0  0  0  0  0  0  0  0  0  0  0  0
   68.3048   38.9891   60.1558 O   0  0  0  0  0  0  0  0  0  0  0  0
   69.1347   39.2643   59.2210 C   0  0  0  0  0  0  0  0  0  0  0  0
   70.2788   38.4478   59.1286 N   0  0  0  0  0  0  0  0  0  0  0  0
   70.5923   37.3312   60.0025 C   0  0  0  0  0  0  0  0  0  0  0  0
   71.6856   36.5247   59.4199 C   0  0  2  0  0  0  0  0  0  0  0  0
   72.9825   37.3174   59.2390 C   0  0  0  0  0  0  0  0  0  0  0  0
   73.7801   36.2183   58.5190 C   0  0  0  0  0  0  0  0  0  0  0  0
   72.6712   35.4916   57.7909 C   0  0  0  0  0  0  0  0  0  0  0  0
   72.5829   34.0431   58.1869 C   0  0  0  0  0  0  0  0  0  0  0  0
   73.7591   33.2967   57.6047 C   0  0  0  0  0  0  0  0  0  0  0  0
   74.7805   34.2842   57.2805 N   0  0  0  0  0  0  0  0  0  0  0  0
   74.2880   34.9377   56.0562 C   0  0  0  0  0  0  0  0  0  0  0  0
   72.9700   35.6262   56.3104 C   0  0  0  0  0  0  0  0  0  0  0  0
   71.4674   36.1058   58.1189 O   0  0  0  0  0  0  0  0  0  0  0  0
 19 20  2  0
 20 21  1  0
 20  1  1  0
 21 22  1  0
 23 22  1  6
 23 24  1  0
 23 32  1  0
 24 25  1  0
 25 26  1  0
 26 27  1  0
 26 31  1  0
 26 32  1  0
 27 28  1  0
 28 29  1  0
 29 30  1  0
 30 31  1  0
  1  2  2  0
  1  6  1  0
  2  3  1  0
  3  4  2  0
  4  7  1  0
  4  5  1  0
  7  8  1  0
  8  9  2  0
  8 10  1  0
 10 11  1  0
 10 18  1  0
 11 12  1  0
 12 13  1  0
 12 17  2  0
 13 14  2  0
 14 15  1  0
 15 16  2  0
 16 17  1  0
 17 18  1  0
  5  6  2  0
M  CHG  1  29   1
M  END
>  <minimizedAffinity>  (355) 
-8.67547

$$$$
data/reference_output_2/data/smiles/186206.pdb
     RDKit          3D

 30 33  0  0  0  0  0  0  0  0999 V2000
   69.0724   39.3841   59.1567 C   0  0  1  0  0  0  0  0  0  0  0  0
   68.1571   38.8180   60.1128 N   0  0  1  0  0  0  0  0  0  0  0  0
   67.9828   39.5719   61.2904 C   0  0  0  0  0  0  0  0  0  0  0  0
   67.1722   38.8729   62.3542 C   0  0  0  0  0  0  0  0  0  0  0  0
   66.1911   37.9340   61.7902 C   0  0  0  0  0  0  0  0  0  0  0  0
   65.3203   37.3010   62.6679 C   0  0  0  0  0  0  0  0  0  0  0  0
   64.3532   36.3930   62.2191 C   0  0  0  0  0  0  0  0  0  0  0  0
   64.2657   36.1224   60.8730 C   0  0  0  0  0  0  0  0  0  0  0  0
   65.1395   36.7584   59.9958 C   0  0  0  0  0  0  0  0  0  0  0  0
   66.0870   37.6506   60.4529 C   0  0  0  0  0  0  0  0  0  0  0  0
   66.9918   38.3032   59.5023 C   0  0  0  0  0  0  0  0  0  0  0  0
   70.1284   38.3889   58.9234 C   0  0  0  0  0  0  0  0  0  0  0  0
   70.1080   37.1646   59.5653 C   0  0  0  0  0  0  0  0  0  0  0  0
   71.0894   36.2234   59.3358 C   0  0  0  0  0  0  0  0  0  0  0  0
   72.1162   36.5020   58.4473 C   0  0  0  0  0  0  0  0  0  0  0  0
   72.1319   37.6848   57.8298 N   0  0  0  0  0  0  0  0  0  0  0  0
   71.1559   38.6193   58.0583 C   0  0  0  0  0  0  0  0  0  0  0  0
   68.3430   39.8756   57.9736 C   0  0  0  0  0  0  0  0  0  0  0  0
   66.9164   41.5155   56.1384 O   0  0  0  0  0  0  0  0  0  0  0  0
   67.9634   41.9819   56.6555 C   0  0  0  0  0  0  0  0  0  0  0  0
   68.7412   41.2394   57.5803 N   0  0  0  0  0  0  0  0  0  0  0  0
   68.4039   43.3263   56.3027 C   0  0  0  0  0  0  0  0  0  0  0  0
   69.3475   43.8937   56.9105 O   0  0  0  0  0  0  0  0  0  0  0  0
   67.7777   44.0475   55.2515 N   0  0  0  0  0  0  0  0  0  0  0  0
   68.1597   45.3582   54.8599 C   0  0  0  0  0  0  0  0  0  0  0  0
   68.1123   45.7316   53.5318 C   0  0  0  0  0  0  0  0  0  0  0  0
   68.4768   46.9983   53.1058 C   0  0  0  0  0  0  0  0  0  0  0  0
   68.8988   47.9117   54.0525 C   0  0  0  0  0  0  0  0  0  0  0  0
   68.9437   47.5309   55.3836 C   0  0  0  0  0  0  0  0  0  0  0  0
   68.5795   46.2639   55.7977 C   0  0  0  0  0  0  0  0  0  0  0  0
 19 20  2  0
 20 21  1  0
 20 22  1  0
 21 18  1  0
  1 18  1  6
  1 12  1  0
  1  2  1  0
 12 13  2  0
 12 17  1  0
 13 14  1  0
 14 15  2  0
 15 16  1  0
 16 17  2  0
  2  3  1  1
  2 11  1  0
  3  4  1  0
  4  5  1  0
  5  6  2  0
  5 10  1  0
  6  7  1  0
  7  8  2  0
  8  9  1  0
  9 10  2  0
 10 11  1  0
 22 23  2  0
 22 24  1  0
 24 25  1  0
 25 26  2  0
 25 30  1  0
 26 27  1  0
 27 28  2  0
 28 29  1  0
 29 30  2  0
M  CHG  1   2   1
M  END
>  <minimizedAffinity>  (356) 
-8.67536

$$$$
data/reference_output_2/data/smiles/166179.pdb
     RDKit          3D

 30 33  0  0  0  0  0  0  0  0999 V2000
   71.3968   45.0698   58.3382 C   0  0  1  0  0  0  0  0  0  0  0  0
   72.1662   46.3547   58.1429 C   0  0  0  0  0  0  0  0  0  0  0  0
   71.0810   47.3721   58.4660 C   0  0  0  0  0  0  0  0  0  0  0  0
   69.9405   46.7686   57.7575 N   0  0  0  0  0  0  0  0  0  0  0  0
   70.1174   45.3624   57.7042 C   0  0  0  0  0  0  0  0  0  0  0  0
   69.3012   44.5645   57.1989 O   0  0  0  0  0  0  0  0  0  0  0  0
   72.0665   43.9115   57.8786 N   0  0  0  0  0  0  0  0  0  0  0  0
   73.1020   43.1606   58.9991 S   0  0  0  0  0  0  0  0  0  0  0  0
   72.9997   43.7135   60.3817 O   0  0  0  0  0  0  0  0  0  0  0  0
   74.5303   43.4011   58.5402 O   0  0  0  0  0  0  0  0  0  0  0  0
   72.5085   38.6213   58.9689 C   0  0  0  0  0  0  0  0  0  0  0  0
   71.5735   39.4657   58.4156 C   0  0  0  0  0  0  0  0  0  0  0  0
   71.7342   40.8423   58.4145 C   0  0  0  0  0  0  0  0  0  0  0  0
   72.8543   41.4209   58.9763 C   0  0  0  0  0  0  0  0  0  0  0  0
   73.7906   40.5599   59.5317 C   0  0  0  0  0  0  0  0  0  0  0  0
   73.6258   39.1908   59.5300 C   0  0  0  0  0  0  0  0  0  0  0  0
   73.1330   36.3881   59.8721 C   0  0  0  0  0  0  0  0  0  0  0  0
   72.2585   37.1706   58.9263 C   0  0  0  0  0  0  0  0  0  0  0  0
   70.8159   36.9200   59.3443 C   0  0  0  0  0  0  0  0  0  0  0  0
   72.4206   36.5987   57.5406 C   0  0  0  0  0  0  0  0  0  0  0  0
   68.8374   47.5263   57.2169 C   0  0  0  0  0  0  0  0  0  0  0  0
   68.7218   47.3073   55.7552 C   0  0  0  0  0  0  0  0  0  0  0  0
   69.4258   48.0259   54.8136 C   0  0  0  0  0  0  0  0  0  0  0  0
   69.0349   47.5174   53.5911 C   0  0  0  0  0  0  0  0  0  0  0  0
   69.3559   47.7903   52.2800 C   0  0  0  0  0  0  0  0  0  0  0  0
   68.8114   47.1241   51.2498 N   0  0  0  0  0  0  0  0  0  0  0  0
   67.9144   46.1504   51.5254 C   0  0  0  0  0  0  0  0  0  0  0  0
   67.5573   45.8360   52.8021 C   0  0  0  0  0  0  0  0  0  0  0  0
   68.1136   46.5181   53.8695 C   0  0  0  0  0  0  0  0  0  0  0  0
   67.9305   46.3977   55.1775 N   0  0  0  0  0  0  0  0  0  0  0  0
 17 18  1  0
 18 19  1  0
 18 20  1  0
 18 11  1  0
 11 12  2  0
 11 16  1  0
 12 13  1  0
 13 14  2  0
 14  8  1  0
 14 15  1  0
  8  9  2  0
  8 10  2  0
  8  7  1  0
  1  7  1  6
  1  2  1  0
  1  5  1  0
  2  3  1  0
  3  4  1  0
  4 21  1  0
  4  5  1  0
 21 22  1  0
 22 23  2  0
 22 30  1  0
 23 24  1  0
 24 25  2  0
 24 29  1  0
 25 26  1  0
 26 27  2  0
 27 28  1  0
 28 29  2  0
 29 30  1  0
  5  6  2  0
 15 16  2  0
M  END
>  <minimizedAffinity>  (357) 
-8.67470

$$$$
data/reference_output_2/data/smiles/151999.pdb
     RDKit          3D

 32 36  0  0  0  0  0  0  0  0999 V2000
   68.7882   40.1584   58.7028 C   0  0  0  0  0  0  0  0  0  0  0  0
   67.8085   40.1017   57.7478 N   0  0  0  0  0  0  0  0  0  0  0  0
   67.7933   41.2382   57.0368 C   0  0  0  0  0  0  0  0  0  0  0  0
   67.0411   41.7265   55.9769 C   0  0  0  0  0  0  0  0  0  0  0  0
   67.2853   42.9800   55.4533 C   0  0  0  0  0  0  0  0  0  0  0  0
   68.2911   43.7926   55.9709 C   0  0  0  0  0  0  0  0  0  0  0  0
   68.9936   43.2789   56.9974 N   0  0  0  0  0  0  0  0  0  0  0  0
   68.7793   42.0596   57.5298 C   0  0  0  0  0  0  0  0  0  0  0  0
   69.3511   41.3600   58.5356 N   0  0  0  0  0  0  0  0  0  0  0  0
   68.5587   45.0813   55.4370 N   0  0  0  0  0  0  0  0  0  0  0  0
   68.0344   45.3812   54.1438 C   0  0  0  0  0  0  0  0  0  0  0  0
   67.9206   46.8209   53.7915 C   0  0  0  0  0  0  0  0  0  0  0  0
   69.0448   47.6691   54.3480 C   0  0  0  0  0  0  0  0  0  0  0  0
   69.2128   47.4458   55.8107 C   0  0  2  0  0  0  0  0  0  0  0  0
   69.3247   46.0124   56.1999 C   0  0  0  0  0  0  0  0  0  0  0  0
   68.2267   48.1477   56.6659 C   0  0  0  0  0  0  0  0  0  0  0  0
   67.2045   47.4580   57.0344 O   0  0  0  0  0  0  0  0  0  0  0  0
   68.2878   49.4662   57.1119 N   0  0  0  0  0  0  0  0  0  0  0  0
   67.3131   50.1666   57.9151 C   0  0  0  0  0  0  0  0  0  0  0  0
   67.2920   51.5360   57.2331 C   0  0  0  0  0  0  0  0  0  0  0  0
   68.5357   51.6105   56.3763 C   0  0  0  0  0  0  0  0  0  0  0  0
   69.3473   50.4142   56.8929 C   0  0  0  0  0  0  0  0  0  0  0  0
   69.0969   39.0868   59.6953 C   0  0  0  0  0  0  0  0  0  0  0  0
   71.8129   38.6595   59.4555 O   0  0  0  0  0  0  0  0  0  0  0  0
   71.0796   37.7085   59.0073 C   0  0  0  0  0  0  0  0  0  0  0  0
   69.6875   37.9071   59.1215 N   0  0  0  0  0  0  0  0  0  0  0  0
   71.7045   36.5286   58.4296 C   0  0  0  0  0  0  0  0  0  0  0  0
   71.5853   35.2926   59.0081 C   0  0  0  0  0  0  0  0  0  0  0  0
   72.1933   34.1634   58.4442 C   0  0  0  0  0  0  0  0  0  0  0  0
   72.9269   34.2866   57.2859 C   0  0  0  0  0  0  0  0  0  0  0  0
   73.0548   35.5104   56.6991 C   0  0  0  0  0  0  0  0  0  0  0  0
   72.4437   36.6262   57.2709 C   0  0  0  0  0  0  0  0  0  0  0  0
 24 25  2  0
 25 26  1  0
 25 27  1  0
 26 23  1  0
 23  1  1  0
  1  2  2  0
  1  9  1  0
  2  3  1  0
  3  4  2  0
  3  8  1  0
  4  5  1  0
  5  6  2  0
  6 10  1  0
  6  7  1  0
 10 11  1  0
 10 15  1  0
 11 12  1  0
 12 13  1  0
 13 14  1  0
 14 16  1  1
 14 15  1  0
 16 17  2  0
 16 18  1  0
 18 19  1  0
 18 22  1  0
 19 20  1  0
 20 21  1  0
 21 22  1  0
  7  8  2  0
  8  9  1  0
 27 28  2  0
 27 32  1  0
 28 29  1  0
 29 30  2  0
 30 31  1  0
 31 32  2  0
M  CHG  1   2   1
M  END
>  <minimizedAffinity>  (358) 
-8.67401

$$$$
data/200k_reference_output/data/smiles/76467.pdb
     RDKit          3D

 30 32  0  0  0  0  0  0  0  0999 V2000
   67.3492   39.1377   59.6384 C   0  0  0  0  0  0  0  0  0  0  0  0
   68.0290   38.8767   58.4673 C   0  0  0  0  0  0  0  0  0  0  0  0
   68.0651   39.8182   57.4374 C   0  0  0  0  0  0  0  0  0  0  0  0
   67.4278   41.0347   57.5547 C   0  0  0  0  0  0  0  0  0  0  0  0
   66.7546   41.2814   58.7273 C   0  0  0  0  0  0  0  0  0  0  0  0
   66.7082   40.3532   59.7648 C   0  0  0  0  0  0  0  0  0  0  0  0
   67.2595   38.0132   60.9668 S   0  0  0  0  0  0  0  0  0  0  0  0
   66.5635   36.7449   60.5140 O   0  0  0  0  0  0  0  0  0  0  0  0
   66.4348   38.6262   62.0436 O   0  0  0  0  0  0  0  0  0  0  0  0
   69.2549   38.0618   62.8055 C   0  0  0  0  0  0  0  0  0  0  0  0
   68.8273   37.5533   61.5175 N   0  0  0  0  0  0  0  0  0  0  0  0
   69.7055   36.7147   60.7826 C   0  0  0  0  0  0  0  0  0  0  0  0
   70.4952   37.2222   59.7439 C   0  0  0  0  0  0  0  0  0  0  0  0
   71.3528   36.4219   59.0217 C   0  0  0  0  0  0  0  0  0  0  0  0
   71.4497   35.0779   59.3136 C   0  0  0  0  0  0  0  0  0  0  0  0
   70.6689   34.5900   60.3359 C   0  0  0  0  0  0  0  0  0  0  0  0
   69.8054   35.3665   61.0729 C   0  0  0  0  0  0  0  0  0  0  0  0
   67.4974   41.9811   56.4489 C   0  0  0  0  0  0  0  0  0  0  0  0
   67.2132   41.6271   55.2579 O   0  0  0  0  0  0  0  0  0  0  0  0
   67.8777   43.3382   56.6043 N   0  0  0  0  0  0  0  0  0  0  0  0
   67.9255   44.2100   55.4802 N   0  0  0  0  0  0  0  0  0  0  0  0
   68.5587   45.4581   55.5295 C   0  0  0  0  0  0  0  0  0  0  0  0
   69.0834   45.7436   56.6595 O   0  0  0  0  0  0  0  0  0  0  0  0
   68.6805   46.4371   54.4657 C   0  0  0  0  0  0  0  0  0  0  0  0
   69.0953   47.7372   54.7405 C   0  0  0  0  0  0  0  0  0  0  0  0
   69.2241   48.6931   53.7685 C   0  0  0  0  0  0  0  0  0  0  0  0
   68.9460   48.4143   52.4481 C   0  0  0  0  0  0  0  0  0  0  0  0
   68.5389   47.1580   52.1397 C   0  0  0  0  0  0  0  0  0  0  0  0
   68.4113   46.1894   53.1457 C   0  0  0  0  0  0  0  0  0  0  0  0
   68.0005   44.9693   52.7458 F   0  0  0  0  0  0  0  0  0  0  0  0
 10 11  1  0
 11 12  1  0
 11  7  1  0
 12 13  2  0
 12 17  1  0
 13 14  1  0
 14 15  2  0
 15 16  1  0
 16 17  2  0
  7  8  2  0
  7  9  2  0
  7  1  1  0
  1  2  2  0
  1  6  1  0
  2  3  1  0
  3  4  2  0
  4 18  1  0
  4  5  1  0
 18 19  2  0
 18 20  1  0
 20 21  1  0
 21 22  1  0
 22 23  2  0
 22 24  1  0
 24 25  2  0
 24 29  1  0
 25 26  1  0
 26 27  2  0
 27 28  1  0
 28 29  2  0
 29 30  1  0
  5  6  2  0
M  END
>  <minimizedAffinity>  (359) 
-8.67314

$$$$
data/reference_output_2/data/smiles/193159.pdb
     RDKit          3D

 31 34  0  0  0  0  0  0  0  0999 V2000
   68.4475   41.0702   57.8831 C   0  0  0  0  0  0  0  0  0  0  0  0
   69.3767   40.1737   58.1432 C   0  0  0  0  0  0  0  0  0  0  0  0
   70.6518   40.5528   58.1387 N   0  0  0  0  0  0  0  0  0  0  0  0
   71.5931   39.6237   58.4074 C   0  0  0  0  0  0  0  0  0  0  0  0
   72.8176   39.9338   58.4143 O   0  0  0  0  0  0  0  0  0  0  0  0
   71.2873   38.3045   58.6851 C   0  0  0  0  0  0  0  0  0  0  0  0
   72.2040   37.3883   58.9487 C   0  0  0  0  0  0  0  0  0  0  0  0
   70.0137   37.9282   58.6892 N   0  0  0  0  0  0  0  0  0  0  0  0
   69.0627   38.8408   58.4238 C   0  0  0  0  0  0  0  0  0  0  0  0
   67.8371   38.5465   58.4125 O   0  0  0  0  0  0  0  0  0  0  0  0
   70.0234   43.1194   59.6659 C   0  0  0  0  0  0  0  0  0  0  0  0
   69.4400   43.3914   58.3208 C   0  0  0  0  0  0  0  0  0  0  0  0
   69.4578   44.4919   57.6242 O   0  0  0  0  0  0  0  0  0  0  0  0
   68.8377   44.3650   56.4701 C   0  0  0  0  0  0  0  0  0  0  0  0
   68.3704   43.0678   56.4008 C   0  0  0  0  0  0  0  0  0  0  0  0
   68.7678   42.4710   57.5890 C   0  0  0  0  0  0  0  0  0  0  0  0
   68.6452   45.3538   55.4301 C   0  0  0  0  0  0  0  0  0  0  0  0
   69.0689   46.6482   55.6067 C   0  0  0  0  0  0  0  0  0  0  0  0
   68.8937   47.6159   54.6157 C   0  0  0  0  0  0  0  0  0  0  0  0
   68.2833   47.2598   53.4439 C   0  0  0  0  0  0  0  0  0  0  0  0
   67.8496   45.9745   53.2407 C   0  0  0  0  0  0  0  0  0  0  0  0
   68.0381   45.0222   54.2508 C   0  0  0  0  0  0  0  0  0  0  0  0
   71.8405   36.0043   59.2367 C   0  0  0  0  0  0  0  0  0  0  0  0
   71.0196   35.5178   60.1724 N   0  0  0  0  0  0  0  0  0  0  0  0
   71.0159   34.1804   60.0322 C   0  0  0  0  0  0  0  0  0  0  0  0
   71.7977   33.8167   59.0518 O   0  0  0  0  0  0  0  0  0  0  0  0
   72.3161   34.9054   58.5454 C   0  0  0  0  0  0  0  0  0  0  0  0
   73.2717   34.9316   57.3975 C   0  0  0  0  0  0  0  0  0  0  0  0
   72.7972   35.8411   56.2974 C   0  0  0  0  0  0  0  0  0  0  0  0
   73.4337   33.5032   56.8655 C   0  0  0  0  0  0  0  0  0  0  0  0
   74.6236   35.4012   57.8455 C   0  0  0  0  0  0  0  0  0  0  0  0
 11 12  1  0
 12 13  1  0
 12 16  2  0
 13 14  1  0
 14 17  1  0
 14 15  2  0
 17 18  2  0
 17 22  1  0
 18 19  1  0
 19 20  2  0
 20 21  1  0
 21 22  2  0
 15 16  1  0
 16  1  1  0
  1  2  2  0
  2  3  1  0
  2  9  1  0
  3  4  1  0
  4  5  2  0
  4  6  1  0
  6  7  2  0
  6  8  1  0
  7 23  1  0
 23 24  1  0
 23 27  2  0
 24 25  2  0
 25 26  1  0
 26 27  1  0
 27 28  1  0
 28 29  1  0
 28 30  1  0
 28 31  1  0
  8  9  1  0
  9 10  2  0
M  END
>  <minimizedAffinity>  (360) 
-8.67269

$$$$
data/reference_output_2/data/smiles/123140.pdb
     RDKit          3D

 30 33  0  0  0  0  0  0  0  0999 V2000
   72.9881   51.9812   58.0858 C   0  0  0  0  0  0  0  0  0  0  0  0
   74.1965   51.5991   57.9064 O   0  0  0  0  0  0  0  0  0  0  0  0
   72.1040   50.9919   58.5914 N   0  0  0  0  0  0  0  0  0  0  0  0
   70.7003   51.2511   58.8433 C   0  0  0  0  0  0  0  0  0  0  0  0
   69.9025   50.0062   58.4681 C   0  0  0  0  0  0  0  0  0  0  0  0
   70.5937   49.1318   57.4761 C   0  0  0  0  0  0  0  0  0  0  0  0
   70.7722   49.8565   56.3066 O   0  0  0  0  0  0  0  0  0  0  0  0
   71.9509   48.6484   57.9356 C   0  0  0  0  0  0  0  0  0  0  0  0
   72.5382   49.6405   58.8964 C   0  0  0  0  0  0  0  0  0  0  0  0
   73.5515   54.4082   58.3191 C   0  0  0  0  0  0  0  0  0  0  0  0
   72.6111   53.3637   57.7686 C   0  0  1  0  0  0  0  0  0  0  0  0
   72.5528   53.5431   56.2676 C   0  0  0  0  0  0  0  0  0  0  0  0
   71.3085   53.0830   55.6529 C   0  0  0  0  0  0  0  0  0  0  0  0
   71.3605   52.3552   54.4845 C   0  0  0  0  0  0  0  0  0  0  0  0
   70.2123   51.8950   53.8602 C   0  0  0  0  0  0  0  0  0  0  0  0
   68.9868   52.1641   54.4085 C   0  0  0  0  0  0  0  0  0  0  0  0
   68.9026   52.8875   55.5721 C   0  0  0  0  0  0  0  0  0  0  0  0
   70.0528   53.3326   56.1721 C   0  0  0  0  0  0  0  0  0  0  0  0
   69.7345   47.9291   57.1918 C   0  0  0  0  0  0  0  0  0  0  0  0
   69.4719   47.7814   55.7860 N   0  0  0  0  0  0  0  0  0  0  0  0
   69.8937   48.6364   54.8405 C   0  0  0  0  0  0  0  0  0  0  0  0
   69.6063   48.4394   53.5404 N   0  0  0  0  0  0  0  0  0  0  0  0
   68.8880   47.3813   53.1340 C   0  0  0  0  0  0  0  0  0  0  0  0
   68.5838   47.1593   51.8290 C   0  0  0  0  0  0  0  0  0  0  0  0
   67.8492   46.0743   51.4307 C   0  0  0  0  0  0  0  0  0  0  0  0
   67.3756   45.1394   52.3567 C   0  0  0  0  0  0  0  0  0  0  0  0
   67.6879   45.3746   53.6660 C   0  0  0  0  0  0  0  0  0  0  0  0
   68.4266   46.4648   54.0708 C   0  0  0  0  0  0  0  0  0  0  0  0
   68.7399   46.6986   55.3938 C   0  0  0  0  0  0  0  0  0  0  0  0
   68.3328   45.8859   56.2441 O   0  0  0  0  0  0  0  0  0  0  0  0
 11 10  1  6
 11 12  1  0
 11  1  1  0
 12 13  1  0
 13 14  2  0
 13 18  1  0
 14 15  1  0
 15 16  2  0
 16 17  1  0
 17 18  2  0
  1  2  2  0
  1  3  1  0
  3  4  1  0
  3  9  1  0
  4  5  1  0
  5  6  1  0
  6  7  1  0
  6 19  1  0
  6  8  1  0
 19 20  1  0
 20 21  1  0
 20 29  1  0
 21 22  2  0
 22 23  1  0
 23 24  2  0
 23 28  1  0
 24 25  1  0
 25 26  2  0
 26 27  1  0
 27 28  2  0
 28 29  1  0
 29 30  2  0
  8  9  1  0
M  END
>  <minimizedAffinity>  (361) 
-8.67096

$$$$
data/reference_output_2/data/smiles/159659.pdb
     RDKit          3D

 31 33  0  0  0  0  0  0  0  0999 V2000
   69.7913   47.1408   57.5229 C   0  0  0  0  0  0  0  0  0  0  0  0
   68.6689   47.2782   58.0726 O   0  0  0  0  0  0  0  0  0  0  0  0
   69.8978   47.3745   56.1449 N   0  0  0  0  0  0  0  0  0  0  0  0
   68.8060   47.7686   55.2816 C   0  0  2  0  0  0  0  0  0  0  0  0
   68.3337   46.6934   54.4060 C   0  0  0  0  0  0  0  0  0  0  0  0
   67.6879   45.7910   55.0137 O   0  0  0  0  0  0  0  0  0  0  0  0
   68.4541   46.4576   53.0019 N   0  0  0  0  0  0  0  0  0  0  0  0
   67.5741   45.4610   52.4172 C   0  0  0  0  0  0  0  0  0  0  0  0
   69.3542   47.1138   52.1446 N   0  0  0  0  0  0  0  0  0  0  0  0
   69.8467   48.2763   52.2717 C   0  0  0  0  0  0  0  0  0  0  0  0
   69.6360   49.2662   53.3157 C   0  0  0  0  0  0  0  0  0  0  0  0
   69.9405   50.5588   52.8907 C   0  0  0  0  0  0  0  0  0  0  0  0
   69.7971   51.6173   53.7549 C   0  0  0  0  0  0  0  0  0  0  0  0
   69.3508   51.3778   55.0369 C   0  0  0  0  0  0  0  0  0  0  0  0
   69.0483   50.0794   55.4535 C   0  0  0  0  0  0  0  0  0  0  0  0
   69.1886   49.0002   54.5923 C   0  0  0  0  0  0  0  0  0  0  0  0
   72.0713   47.6775   58.1240 C   0  0  0  0  0  0  0  0  0  0  0  0
   70.9230   46.7359   58.4014 C   0  0  2  0  0  0  0  0  0  0  0  0
   71.2487   45.3644   58.0528 N   0  0  0  0  0  0  0  0  0  0  0  0
   70.5613   44.2557   58.6044 C   0  0  0  0  0  0  0  0  0  0  0  0
   69.6428   44.5226   59.4223 O   0  0  0  0  0  0  0  0  0  0  0  0
   70.8643   42.8438   58.2728 C   0  0  1  0  0  0  0  0  0  0  0  0
   71.3525   42.1334   59.3583 O   0  0  0  0  0  0  0  0  0  0  0  0
   69.7026   42.1533   57.6599 C   0  0  0  0  0  0  0  0  0  0  0  0
   69.4347   40.8332   57.9544 C   0  0  0  0  0  0  0  0  0  0  0  0
   68.3541   40.1589   57.3956 C   0  0  0  0  0  0  0  0  0  0  0  0
   68.1254   38.8634   57.7102 F   0  0  0  0  0  0  0  0  0  0  0  0
   67.5195   40.8283   56.5181 C   0  0  0  0  0  0  0  0  0  0  0  0
   67.7642   42.1431   56.2092 C   0  0  0  0  0  0  0  0  0  0  0  0
   66.9506   42.8009   55.3509 F   0  0  0  0  0  0  0  0  0  0  0  0
   68.8475   42.7841   56.7817 C   0  0  0  0  0  0  0  0  0  0  0  0
 18 17  1  6
 18 19  1  0
 18  1  1  0
 19 20  1  0
 20 21  2  0
 20 22  1  0
 22 23  1  1
 22 24  1  0
 24 25  2  0
 24 31  1  0
 25 26  1  0
 26 27  1  0
 26 28  2  0
 28 29  1  0
 29 30  1  0
 29 31  2  0
  1  2  2  0
  1  3  1  0
  4  3  1  6
  4  5  1  0
  4 16  1  0
  5  6  2  0
  5  7  1  0
  7  8  1  0
  7  9  1  0
  9 10  2  0
 10 11  1  0
 11 12  1  0
 11 16  2  0
 12 13  2  0
 13 14  1  0
 14 15  2  0
 15 16  1  0
M  END
>  <minimizedAffinity>  (362) 
-8.66895

$$$$
data/200k_reference_output/data/smiles/85392.pdb
     RDKit          3D

 31 34  0  0  0  0  0  0  0  0999 V2000
   70.8007   45.8187   58.4685 C   0  0  0  0  0  0  0  0  0  0  0  0
   69.9692   46.4702   57.5616 C   0  0  0  0  0  0  0  0  0  0  0  0
   70.1058   47.8041   57.2396 C   0  0  0  0  0  0  0  0  0  0  0  0
   71.1347   48.5098   57.8656 C   0  0  0  0  0  0  0  0  0  0  0  0
   71.9654   47.8766   58.7659 C   0  0  0  0  0  0  0  0  0  0  0  0
   71.8088   46.5404   59.0736 C   0  0  0  0  0  0  0  0  0  0  0  0
   72.6153   45.9011   59.9549 F   0  0  0  0  0  0  0  0  0  0  0  0
   74.7323   41.9563   59.4211 C   0  0  0  0  0  0  0  0  0  0  0  0
   75.7534   42.5720   59.0226 O   0  0  0  0  0  0  0  0  0  0  0  0
   73.5863   41.9227   58.6131 N   0  0  0  0  0  0  0  0  0  0  0  0
   72.3577   41.2369   58.9893 C   0  0  0  0  0  0  0  0  0  0  0  0
   71.1379   42.0084   58.5916 C   0  0  0  0  0  0  0  0  0  0  0  0
   71.4303   43.3807   58.2477 N   0  0  0  0  0  0  0  0  0  0  0  0
   70.5909   44.4051   58.7554 C   0  0  0  0  0  0  0  0  0  0  0  0
   69.6133   44.1196   59.4901 O   0  0  0  0  0  0  0  0  0  0  0  0
   72.5595   43.7032   57.4022 C   0  0  0  0  0  0  0  0  0  0  0  0
   73.5849   42.5937   57.3316 C   0  0  0  0  0  0  0  0  0  0  0  0
   75.7900   40.1778   60.7334 C   0  0  0  0  0  0  0  0  0  0  0  0
   74.7653   41.2727   60.7534 C   0  0  0  0  0  0  0  0  0  0  0  0
   69.2463   48.4011   56.3269 O   0  0  0  0  0  0  0  0  0  0  0  0
   69.6216   48.4466   54.9961 C   0  0  0  0  0  0  0  0  0  0  0  0
   70.5687   49.2863   54.5427 N   0  0  0  0  0  0  0  0  0  0  0  0
   70.9358   49.3405   53.2839 N   0  0  0  0  0  0  0  0  0  0  0  0
   70.3791   48.5502   52.3595 C   0  0  0  0  0  0  0  0  0  0  0  0
   70.7232   48.5963   51.1633 O   0  0  0  0  0  0  0  0  0  0  0  0
   69.3882   47.6430   52.7270 C   0  0  0  0  0  0  0  0  0  0  0  0
   68.8253   46.8403   51.7841 C   0  0  0  0  0  0  0  0  0  0  0  0
   67.8309   45.9358   52.1712 C   0  0  0  0  0  0  0  0  0  0  0  0
   67.4697   45.9036   53.4988 C   0  0  0  0  0  0  0  0  0  0  0  0
   68.0456   46.7225   54.4488 C   0  0  0  0  0  0  0  0  0  0  0  0
   69.0270   47.6166   54.0731 C   0  0  0  0  0  0  0  0  0  0  0  0
 18 19  1  0
 19  8  1  0
  8  9  2  0
  8 10  1  0
 10 11  1  0
 10 17  1  0
 11 12  1  0
 12 13  1  0
 13 14  1  0
 13 16  1  0
 14 15  2  0
 14  1  1  0
  1  2  2  0
  1  6  1  0
  2  3  1  0
  3 20  1  0
  3  4  2  0
 20 21  1  0
 21 22  2  0
 21 31  1  0
 22 23  1  0
 23 24  1  0
 24 25  2  0
 24 26  1  0
 26 27  1  0
 26 31  2  0
 27 28  2  0
 28 29  1  0
 29 30  2  0
 30 31  1  0
  4  5  1  0
  5  6  2  0
  6  7  1  0
 16 17  1  0
M  END
>  <minimizedAffinity>  (363) 
-8.66886

$$$$
data/200k_reference_output/data/smiles/56240.pdb
     RDKit          3D

 30 33  0  0  0  0  0  0  0  0999 V2000
   68.7778   44.1581   56.6231 N   0  0  0  0  0  0  0  0  0  0  0  0
   68.2743   42.8447   56.6671 C   0  0  0  0  0  0  0  0  0  0  0  0
   67.5591   42.4497   55.7216 O   0  0  0  0  0  0  0  0  0  0  0  0
   68.5414   41.9489   57.7394 N   0  0  0  0  0  0  0  0  0  0  0  0
   67.9825   40.6194   57.7017 C   0  0  0  0  0  0  0  0  0  0  0  0
   69.1837   39.6775   57.8634 C   0  0  0  0  0  0  0  0  0  0  0  0
   69.7558   39.8674   59.1143 N   0  0  0  0  0  0  0  0  0  0  0  0
   69.5556   41.0991   59.7964 C   0  0  0  0  0  0  0  0  0  0  0  0
   69.3521   42.2852   58.8820 C   0  0  0  0  0  0  0  0  0  0  0  0
   67.9034   45.9753   53.4462 C   0  0  0  0  0  0  0  0  0  0  0  0
   68.2863   47.2579   53.7519 C   0  0  0  0  0  0  0  0  0  0  0  0
   68.8178   47.4701   55.0013 C   0  0  0  0  0  0  0  0  0  0  0  0
   68.9677   46.4524   55.9132 C   0  0  0  0  0  0  0  0  0  0  0  0
   68.5853   45.1334   55.6262 C   0  0  0  0  0  0  0  0  0  0  0  0
   68.0597   44.9388   54.3838 C   0  0  0  0  0  0  0  0  0  0  0  0
   66.8683   45.4818   51.1059 N   0  0  0  0  0  0  0  0  0  0  0  0
   67.3432   45.6995   52.1566 C   0  0  0  0  0  0  0  0  0  0  0  0
   71.1230   39.0299   59.6066 S   0  0  0  0  0  0  0  0  0  0  0  0
   71.7572   39.6239   60.8561 O   0  0  0  0  0  0  0  0  0  0  0  0
   72.1917   39.3123   58.5452 O   0  0  0  0  0  0  0  0  0  0  0  0
   70.9884   37.3098   59.7219 C   0  0  0  0  0  0  0  0  0  0  0  0
   70.2724   36.7261   60.7808 C   0  0  0  0  0  0  0  0  0  0  0  0
   70.1998   35.3658   60.9675 C   0  0  0  0  0  0  0  0  0  0  0  0
   70.8313   34.5087   60.1183 C   0  0  0  0  0  0  0  0  0  0  0  0
   71.5408   35.0428   59.0701 C   0  0  0  0  0  0  0  0  0  0  0  0
   72.1584   34.1820   58.1961 C   0  0  0  0  0  0  0  0  0  0  0  0
   72.8370   34.6704   57.1478 N   0  0  0  0  0  0  0  0  0  0  0  0
   72.9154   36.0150   56.9455 C   0  0  0  0  0  0  0  0  0  0  0  0
   72.3042   36.8937   57.8094 C   0  0  0  0  0  0  0  0  0  0  0  0
   71.6135   36.4181   58.8799 C   0  0  0  0  0  0  0  0  0  0  0  0
 16 17  3  0
 17 10  1  0
 10 11  2  0
 10 15  1  0
 11 12  1  0
 12 13  2  0
 13 14  1  0
 14  1  1  0
 14 15  2  0
  1  2  1  0
  2  3  2  0
  2  4  1  0
  4  5  1  0
  4  9  1  0
  5  6  1  0
  6  7  1  0
  7 18  1  0
  7  8  1  0
 18 19  2  0
 18 20  2  0
 18 21  1  0
 21 22  2  0
 21 30  1  0
 22 23  1  0
 23 24  2  0
 24 25  1  0
 25 26  1  0
 25 30  2  0
 26 27  2  0
 27 28  1  0
 28 29  2  0
 29 30  1  0
  8  9  1  0
M  END
>  <minimizedAffinity>  (364) 
-8.66749

$$$$
data/200k_reference_output/data/smiles/21797.pdb
     RDKit          3D

 31 35  0  0  0  0  0  0  0  0999 V2000
   73.9478   35.3142   55.3847 N   0  0  0  0  0  0  0  0  0  0  0  0
   75.3946   35.2325   55.4268 C   0  0  0  0  0  0  0  0  0  0  0  0
   75.9802   34.9604   54.0654 C   0  0  0  0  0  0  0  0  0  0  0  0
   75.0711   34.1281   53.2581 N   0  0  1  0  0  0  0  0  0  0  0  0
   74.0194   35.0761   52.8489 C   0  0  0  0  0  0  0  0  0  0  0  0
   73.3025   35.4380   54.1236 C   0  0  0  0  0  0  0  0  0  0  0  0
   72.1164   35.8591   54.1209 O   0  0  0  0  0  0  0  0  0  0  0  0
   67.7059   35.9977   61.1603 C   0  0  0  0  0  0  0  0  0  0  0  0
   68.9877   36.4563   61.8436 C   0  0  2  0  0  0  0  0  0  0  0  0
   69.7223   37.4856   61.0261 C   0  0  0  0  0  0  0  0  0  0  0  0
   70.5638   36.8249   59.9801 C   0  0  0  0  0  0  0  0  0  0  0  0
   70.8388   35.4742   60.0134 C   0  0  0  0  0  0  0  0  0  0  0  0
   71.6340   35.1769   58.9155 C   0  0  0  0  0  0  0  0  0  0  0  0
   72.2157   34.0361   58.4167 C   0  0  0  0  0  0  0  0  0  0  0  0
   72.9724   34.0876   57.2623 C   0  0  0  0  0  0  0  0  0  0  0  0
   73.1651   35.2711   56.5815 C   0  0  0  0  0  0  0  0  0  0  0  0
   72.5826   36.3645   57.0967 N   0  0  0  0  0  0  0  0  0  0  0  0
   71.8329   36.3540   58.2265 C   0  0  0  0  0  0  0  0  0  0  0  0
   71.1692   37.3091   58.9103 N   0  0  0  0  0  0  0  0  0  0  0  0
   71.1519   38.7082   58.4731 C   0  0  0  0  0  0  0  0  0  0  0  0
   70.3203   34.5981   61.0814 C   0  0  0  0  0  0  0  0  0  0  0  0
   69.8193   35.3333   62.1976 N   0  0  0  0  0  0  0  0  0  0  0  0
   75.8409   33.7201   52.1078 C   0  0  0  0  0  0  0  0  0  0  0  0
   76.8477   34.7404   51.6541 C   0  0  0  0  0  0  0  0  0  0  0  0
   76.9872   34.8040   50.1836 C   0  0  0  0  0  0  0  0  0  0  0  0
   77.8955   35.6440   49.5732 C   0  0  0  0  0  0  0  0  0  0  0  0
   78.0284   35.7065   48.1956 C   0  0  0  0  0  0  0  0  0  0  0  0
   77.2519   34.9247   47.3844 C   0  0  0  0  0  0  0  0  0  0  0  0
   77.4159   35.0175   46.0397 F   0  0  0  0  0  0  0  0  0  0  0  0
   76.3334   34.0723   47.9702 C   0  0  0  0  0  0  0  0  0  0  0  0
   76.2124   34.0212   49.3574 C   0  0  0  0  0  0  0  0  0  0  0  0
  9  8  1  6
  9 10  1  0
  9 22  1  0
 10 11  1  0
 11 12  2  0
 11 19  1  0
 12 13  1  0
 12 21  1  0
 13 14  2  0
 13 18  1  0
 14 15  1  0
 15 16  2  0
 16  1  1  0
 16 17  1  0
  1  2  1  0
  1  6  1  0
  2  3  1  0
  3  4  1  0
  4 23  1  6
  4  5  1  0
 23 24  1  0
 24 25  1  0
 25 26  2  0
 25 31  1  0
 26 27  1  0
 27 28  2  0
 28 29  1  0
 28 30  1  0
 30 31  2  0
  5  6  1  0
  6  7  2  0
 17 18  2  0
 18 19  1  0
 19 20  1  0
 21 22  1  0
M  CHG  2   4   1  22   1
M  END
>  <minimizedAffinity>  (365) 
-8.66545

$$$$
data/reference_output_2/data/smiles/108341.pdb
     RDKit          3D

 31 34  0  0  0  0  0  0  0  0999 V2000
   72.4326   47.8583   59.4458 C   0  0  0  0  0  0  0  0  0  0  0  0
   71.9202   48.1175   60.5944 O   0  0  0  0  0  0  0  0  0  0  0  0
   73.0213   48.9018   58.7720 N   0  0  0  0  0  0  0  0  0  0  0  0
   73.7558   48.8313   57.5243 C   0  0  0  0  0  0  0  0  0  0  0  0
   73.1453   49.9279   56.6114 C   0  0  0  0  0  0  0  0  0  0  0  0
   71.7740   50.0902   57.0209 N   0  0  0  0  0  0  0  0  0  0  0  0
   71.6131   50.7115   58.2892 C   0  0  0  0  0  0  0  0  0  0  0  0
   72.7853   50.2853   59.2213 C   0  0  0  0  0  0  0  0  0  0  0  0
   70.9213   44.7778   58.0272 C   0  0  0  0  0  0  0  0  0  0  0  0
   72.0149   43.9576   57.9213 C   0  0  0  0  0  0  0  0  0  0  0  0
   73.2714   44.3748   58.3287 C   0  0  0  0  0  0  0  0  0  0  0  0
   73.3905   45.6627   58.8508 C   0  0  0  0  0  0  0  0  0  0  0  0
   72.3286   46.4836   58.9602 C   0  0  0  0  0  0  0  0  0  0  0  0
   71.0530   46.0512   58.5466 C   0  0  0  0  0  0  0  0  0  0  0  0
   68.1712   42.3834   56.7363 C   0  0  0  0  0  0  0  0  0  0  0  0
   69.4558   42.9484   57.2264 C   0  0  0  0  0  0  0  0  0  0  0  0
   70.4833   42.2052   57.3680 O   0  0  0  0  0  0  0  0  0  0  0  0
   69.6489   44.3205   57.5655 N   0  0  0  0  0  0  0  0  0  0  0  0
   70.6546   50.3958   55.8131 S   0  0  0  0  0  0  0  0  0  0  0  0
   69.6137   51.3815   56.2828 O   0  0  0  0  0  0  0  0  0  0  0  0
   71.3507   51.0369   54.6466 O   0  0  0  0  0  0  0  0  0  0  0  0
   69.8877   48.9435   55.2151 C   0  0  0  0  0  0  0  0  0  0  0  0
   69.3346   48.0355   56.0813 C   0  0  0  0  0  0  0  0  0  0  0  0
   68.6355   46.9280   55.6228 C   0  0  0  0  0  0  0  0  0  0  0  0
   68.5012   46.7555   54.2732 C   0  0  0  0  0  0  0  0  0  0  0  0
   67.7874   45.6791   53.7399 C   0  0  0  0  0  0  0  0  0  0  0  0
   67.6216   45.5054   52.3859 C   0  0  0  0  0  0  0  0  0  0  0  0
   68.1825   46.4302   51.5251 C   0  0  0  0  0  0  0  0  0  0  0  0
   68.8820   47.4811   52.0327 C   0  0  0  0  0  0  0  0  0  0  0  0
   69.0428   47.6458   53.3840 C   0  0  0  0  0  0  0  0  0  0  0  0
   69.7448   48.7514   53.8689 C   0  0  0  0  0  0  0  0  0  0  0  0
 15 16  1  0
 16 17  2  0
 16 18  1  0
 18  9  1  0
  9 10  2  0
  9 14  1  0
 10 11  1  0
 11 12  2  0
 12 13  1  0
 13  1  1  0
 13 14  2  0
  1  2  2  0
  1  3  1  0
  3  4  1  0
  3  8  1  0
  4  5  1  0
  5  6  1  0
  6 19  1  0
  6  7  1  0
 19 20  2  0
 19 21  2  0
 19 22  1  0
 22 23  2  0
 22 31  1  0
 23 24  1  0
 24 25  2  0
 25 26  1  0
 25 30  1  0
 26 27  2  0
 27 28  1  0
 28 29  2  0
 29 30  1  0
 30 31  2  0
  7  8  1  0
M  END
>  <minimizedAffinity>  (366) 
-8.66537

$$$$
data/reference_output_2/data/smiles/153899.pdb
     RDKit          3D

 31 35  0  0  0  0  0  0  0  0999 V2000
   70.8574   51.2472   55.2937 C   0  0  0  0  0  0  0  0  0  0  0  0
   70.5365   50.2513   56.2021 C   0  0  0  0  0  0  0  0  0  0  0  0
   69.9155   49.0643   55.7943 C   0  0  0  0  0  0  0  0  0  0  0  0
   69.6097   48.8611   54.4749 C   0  0  0  0  0  0  0  0  0  0  0  0
   69.9362   49.8720   53.5485 C   0  0  0  0  0  0  0  0  0  0  0  0
   70.5461   51.0349   53.9627 C   0  0  0  0  0  0  0  0  0  0  0  0
   69.6320   49.6771   52.2378 C   0  0  0  0  0  0  0  0  0  0  0  0
   69.9230   50.5791   51.4049 O   0  0  0  0  0  0  0  0  0  0  0  0
   69.0357   48.5493   51.8344 N   0  0  0  0  0  0  0  0  0  0  0  0
   68.7007   47.5532   52.6622 C   0  0  0  0  0  0  0  0  0  0  0  0
   68.0917   46.4213   52.1791 C   0  0  0  0  0  0  0  0  0  0  0  0
   67.8000   46.2545   50.8791 F   0  0  0  0  0  0  0  0  0  0  0  0
   67.7641   45.4108   53.0672 C   0  0  0  0  0  0  0  0  0  0  0  0
   67.1525   44.2669   52.6201 F   0  0  0  0  0  0  0  0  0  0  0  0
   68.0720   45.6094   54.3895 C   0  0  0  0  0  0  0  0  0  0  0  0
   68.6833   46.7408   54.8955 C   0  0  0  0  0  0  0  0  0  0  0  0
   69.0054   47.7399   54.0035 C   0  0  0  0  0  0  0  0  0  0  0  0
   71.5078   52.4730   55.7766 C   0  0  0  0  0  0  0  0  0  0  0  0
   72.9637   52.5822   55.5071 C   0  0  2  0  0  0  0  0  0  0  0  0
   73.7482   51.8355   56.4557 N   0  0  0  0  0  0  0  0  0  0  0  0
   74.2984   50.5539   56.1165 C   0  0  0  0  0  0  0  0  0  0  0  0
   74.0420   50.1407   54.9467 O   0  0  0  0  0  0  0  0  0  0  0  0
   75.1049   49.7648   57.0445 C   0  0  1  0  0  0  0  0  0  0  0  0
   75.4588   50.5981   58.1921 N   0  0  0  0  0  0  0  0  0  0  0  0
   75.1721   49.7658   59.3456 C   0  0  2  0  0  0  0  0  0  0  0  0
   76.0325   48.5442   59.2609 C   0  0  0  0  0  0  0  0  0  0  0  0
   75.4094   47.6501   58.1888 C   0  0  0  0  0  0  0  0  0  0  0  0
   74.3634   48.5745   57.6059 C   0  0  1  0  0  0  0  0  0  0  0  0
   73.8164   49.1788   58.8953 C   0  0  0  0  0  0  0  0  0  0  0  0
   73.7451   55.0619   55.4791 N   0  0  0  0  0  0  0  0  0  0  0  0
   73.4037   54.0147   55.4892 C   0  0  0  0  0  0  0  0  0  0  0  0
 30 31  3  0
 19 31  1  1
 19 18  1  0
 19 20  1  0
 18  1  1  0
  1  2  2  0
  1  6  1  0
  2  3  1  0
  3  4  2  0
  4  5  1  0
  4 17  1  0
  5  6  2  0
  5  7  1  0
  7  8  2  0
  7  9  1  0
  9 10  1  0
 10 11  1  0
 10 17  2  0
 11 12  1  0
 11 13  2  0
 13 14  1  0
 13 15  1  0
 15 16  2  0
 16 17  1  0
 20 21  1  0
 21 22  2  0
 23 21  1  6
 23 24  1  0
 23 28  1  0
 24 25  1  0
 25 26  1  6
 25 29  1  0
 26 27  1  0
 28 27  1  1
 28 29  1  0
M  CHG  1  24   1
M  END
>  <minimizedAffinity>  (367) 
-8.66533

$$$$
data/200k_reference_output/data/smiles/53664.pdb
     RDKit          3D

 30 33  0  0  0  0  0  0  0  0999 V2000
   70.3512   44.3578   57.7945 C   0  0  0  0  0  0  0  0  0  0  0  0
   69.3550   44.9884   57.1062 N   0  0  0  0  0  0  0  0  0  0  0  0
   69.5550   46.2797   57.1653 N   0  0  0  0  0  0  0  0  0  0  0  0
   70.6757   46.5614   57.8863 C   0  0  0  0  0  0  0  0  0  0  0  0
   71.1810   45.3490   58.2849 C   0  0  0  0  0  0  0  0  0  0  0  0
   72.4201   45.2579   59.0858 C   0  0  0  0  0  0  0  0  0  0  0  0
   72.7745   46.5854   59.5366 N   0  0  0  0  0  0  0  0  0  0  0  0
   73.1448   46.8131   60.8940 C   0  0  0  0  0  0  0  0  0  0  0  0
   73.1644   45.8507   61.7065 O   0  0  0  0  0  0  0  0  0  0  0  0
   72.7348   47.6533   58.5617 C   0  0  0  0  0  0  0  0  0  0  0  0
   71.2909   47.8754   58.2170 C   0  0  0  0  0  0  0  0  0  0  0  0
   69.7099   40.6435   58.1018 C   0  0  0  0  0  0  0  0  0  0  0  0
   70.9857   40.1465   58.2564 C   0  0  0  0  0  0  0  0  0  0  0  0
   72.0215   41.0503   58.2605 C   0  0  0  0  0  0  0  0  0  0  0  0
   71.7828   42.4025   58.1145 C   0  0  0  0  0  0  0  0  0  0  0  0
   70.5097   42.9174   57.9583 C   0  0  0  0  0  0  0  0  0  0  0  0
   69.4815   42.0070   57.9554 C   0  0  0  0  0  0  0  0  0  0  0  0
   67.6993   38.9761   58.1064 N   0  0  0  0  0  0  0  0  0  0  0  0
   68.5969   39.7142   58.0942 C   0  0  0  0  0  0  0  0  0  0  0  0
   73.5078   48.1493   61.3720 C   0  0  0  0  0  0  0  0  0  0  0  0
   73.1681   48.2934   62.6922 O   0  0  0  0  0  0  0  0  0  0  0  0
   68.6840   47.2592   56.5403 C   0  0  0  0  0  0  0  0  0  0  0  0
   68.6430   47.0746   55.0616 C   0  0  0  0  0  0  0  0  0  0  0  0
   67.9463   46.0542   54.4870 C   0  0  0  0  0  0  0  0  0  0  0  0
   67.9299   45.9159   53.1222 C   0  0  0  0  0  0  0  0  0  0  0  0
   68.6212   46.8104   52.3351 C   0  0  0  0  0  0  0  0  0  0  0  0
   68.5993   46.6655   50.9886 F   0  0  0  0  0  0  0  0  0  0  0  0
   69.3243   47.8408   52.9103 C   0  0  0  0  0  0  0  0  0  0  0  0
   69.3306   47.9677   54.2834 C   0  0  0  0  0  0  0  0  0  0  0  0
   70.0332   48.9972   54.8702 F   0  0  0  0  0  0  0  0  0  0  0  0
 18 19  3  0
 19 12  1  0
 12 13  2  0
 12 17  1  0
 13 14  1  0
 14 15  2  0
 15 16  1  0
 16  1  1  0
 16 17  2  0
  1  2  2  0
  1  5  1  0
  2  3  1  0
  3 22  1  0
  3  4  1  0
 22 23  1  0
 23 24  2  0
 23 29  1  0
 24 25  1  0
 25 26  2  0
 26 27  1  0
 26 28  1  0
 28 29  2  0
 29 30  1  0
  4  5  2  0
  4 11  1  0
  5  6  1  0
  6  7  1  0
  7  8  1  0
  7 10  1  0
  8  9  2  0
  8 20  1  0
 20 21  1  0
 10 11  1  0
M  END
>  <minimizedAffinity>  (368) 
-8.66485

$$$$
data/reference_output_2/data/smiles/98344.pdb
     RDKit          3D

 31 34  0  0  0  0  0  0  0  0999 V2000
   67.8475   43.9815   55.1712 N   0  0  0  0  0  0  0  0  0  0  0  0
   68.3225   45.1693   55.0923 C   0  0  0  0  0  0  0  0  0  0  0  0
   68.9110   46.0242   56.1075 C   0  0  0  0  0  0  0  0  0  0  0  0
   69.0682   45.7337   57.3086 O   0  0  0  0  0  0  0  0  0  0  0  0
   69.2843   47.2560   55.5114 N   0  0  0  0  0  0  0  0  0  0  0  0
   68.9318   47.1700   54.1422 C   0  0  0  0  0  0  0  0  0  0  0  0
   69.0689   48.0830   53.0878 C   0  0  0  0  0  0  0  0  0  0  0  0
   68.6594   47.8055   51.8028 C   0  0  0  0  0  0  0  0  0  0  0  0
   68.0904   46.5774   51.5478 C   0  0  0  0  0  0  0  0  0  0  0  0
   67.9359   45.6488   52.5516 C   0  0  0  0  0  0  0  0  0  0  0  0
   68.3570   45.9439   53.8536 C   0  0  0  0  0  0  0  0  0  0  0  0
   67.4340   41.9314   56.4475 C   0  0  0  0  0  0  0  0  0  0  0  0
   67.0883   41.3900   55.3593 O   0  0  0  0  0  0  0  0  0  0  0  0
   67.8344   43.2870   56.3624 N   0  0  0  0  0  0  0  0  0  0  0  0
   67.4137   39.6575   60.0850 C   0  0  0  0  0  0  0  0  0  0  0  0
   66.7177   40.8438   60.0033 C   0  0  0  0  0  0  0  0  0  0  0  0
   66.7217   41.5886   58.8188 C   0  0  0  0  0  0  0  0  0  0  0  0
   67.4115   41.1715   57.7044 C   0  0  0  0  0  0  0  0  0  0  0  0
   68.1066   39.9733   57.8064 C   0  0  0  0  0  0  0  0  0  0  0  0
   68.1114   39.2319   58.9630 C   0  0  0  0  0  0  0  0  0  0  0  0
   66.2281   39.3323   62.6735 N   0  0  0  0  0  0  0  0  0  0  0  0
   67.4034   38.7341   61.5683 S   0  0  0  0  0  0  0  0  0  0  0  0
   67.2345   37.2847   61.2676 O   0  0  0  0  0  0  0  0  0  0  0  0
   68.7564   38.8888   62.2431 O   0  0  0  0  0  0  0  0  0  0  0  0
   69.9069   48.4119   56.1242 C   0  0  0  0  0  0  0  0  0  0  0  0
   68.9743   49.4400   56.5598 C   0  0  0  0  0  0  0  0  0  0  0  0
   67.9652   49.1571   57.4457 C   0  0  0  0  0  0  0  0  0  0  0  0
   67.0700   50.1537   57.8633 C   0  0  0  0  0  0  0  0  0  0  0  0
   67.2007   51.4268   57.3833 C   0  0  0  0  0  0  0  0  0  0  0  0
   68.2019   51.7291   56.4979 C   0  0  0  0  0  0  0  0  0  0  0  0
   69.0825   50.7300   56.0932 C   0  0  0  0  0  0  0  0  0  0  0  0
 21 22  1  0
 22 23  2  0
 22 24  2  0
 22 15  1  0
 15 16  2  0
 15 20  1  0
 16 17  1  0
 17 18  2  0
 18 12  1  0
 18 19  1  0
 12 13  2  0
 12 14  1  0
 14  1  1  0
  1  2  2  0
  2  3  1  0
  2 11  1  0
  3  4  2  0
  3  5  1  0
  5 25  1  0
  5  6  1  0
 25 26  1  0
 26 27  2  0
 26 31  1  0
 27 28  1  0
 28 29  2  0
 29 30  1  0
 30 31  2  0
  6  7  1  0
  6 11  2  0
  7  8  2  0
  8  9  1  0
  9 10  2  0
 10 11  1  0
 19 20  2  0
M  END
>  <minimizedAffinity>  (369) 
-8.66435

$$$$
data/reference_output_2/data/smiles/186837.pdb
     RDKit          3D

 28 30  0  0  0  0  0  0  0  0999 V2000
   68.4884   46.6123   54.9190 C   0  0  0  0  0  0  0  0  0  0  0  0
   67.9414   46.0439   53.7733 C   0  0  0  0  0  0  0  0  0  0  0  0
   68.2270   46.6128   52.5389 C   0  0  0  0  0  0  0  0  0  0  0  0
   69.0370   47.7192   52.4335 C   0  0  0  0  0  0  0  0  0  0  0  0
   69.5632   48.2582   53.5846 C   0  0  0  0  0  0  0  0  0  0  0  0
   69.3008   47.7211   54.8271 C   0  0  0  0  0  0  0  0  0  0  0  0
   70.4569   49.4222   53.5536 C   0  0  0  0  0  0  0  0  0  0  0  0
   71.5689   49.2749   53.0157 O   0  0  0  0  0  0  0  0  0  0  0  0
   70.0952   50.6656   54.0993 N   0  0  0  0  0  0  0  0  0  0  0  0
   70.8883   51.8563   54.1034 C   0  0  0  0  0  0  0  0  0  0  0  0
   70.6970   52.3600   55.5153 C   0  0  1  0  0  0  0  0  0  0  0  0
   70.8478   53.7414   55.6019 O   0  0  0  0  0  0  0  0  0  0  0  0
   69.3193   51.9073   55.8721 C   0  0  1  0  0  0  0  0  0  0  0  0
   68.4261   52.9391   56.0192 F   0  0  0  0  0  0  0  0  0  0  0  0
   68.8619   50.9796   54.7596 C   0  0  0  0  0  0  0  0  0  0  0  0
   68.2235   46.0606   56.1866 O   0  0  0  0  0  0  0  0  0  0  0  0
   71.0095   46.2130   58.5214 C   0  0  0  0  0  0  0  0  0  0  0  0
   69.9582   46.5799   57.7145 C   0  0  0  0  0  0  0  0  0  0  0  0
   69.2788   45.6157   56.9807 C   0  0  0  0  0  0  0  0  0  0  0  0
   69.6531   44.3320   57.0646 N   0  0  0  0  0  0  0  0  0  0  0  0
   70.6912   43.9388   57.8558 C   0  0  0  0  0  0  0  0  0  0  0  0
   71.3873   44.8751   58.5980 C   0  0  0  0  0  0  0  0  0  0  0  0
   71.0820   42.4875   57.9208 C   0  0  0  0  0  0  0  0  0  0  0  0
   70.0787   41.6844   57.4272 F   0  0  0  0  0  0  0  0  0  0  0  0
   72.2673   42.3221   57.2354 F   0  0  0  0  0  0  0  0  0  0  0  0
   71.3085   42.1806   59.2577 F   0  0  0  0  0  0  0  0  0  0  0  0
   71.7049   46.9390   60.7108 N   0  0  0  0  0  0  0  0  0  0  0  0
   71.6915   47.2876   59.2827 C   0  0  0  0  0  0  0  0  0  0  0  0
 27 28  1  0
 28 17  1  0
 17 18  2  0
 17 22  1  0
 18 19  1  0
 19 16  1  0
 19 20  2  0
 16  1  1  0
  1  2  2  0
  1  6  1  0
  2  3  1  0
  3  4  2  0
  4  5  1  0
  5  7  1  0
  5  6  2  0
  7  8  2  0
  7  9  1  0
  9 10  1  0
  9 15  1  0
 10 11  1  0
 11 12  1  6
 11 13  1  0
 13 14  1  6
 13 15  1  0
 20 21  1  0
 21 23  1  0
 21 22  2  0
 23 24  1  0
 23 25  1  0
 23 26  1  0
M  CHG  1  27   1
M  END
>  <minimizedAffinity>  (370) 
-8.66322

$$$$
data/200k_reference_output/data/smiles/77215.pdb
     RDKit          3D

 26 28  0  0  0  0  0  0  0  0999 V2000
   72.2125   35.2331   52.7385 C   0  0  0  0  0  0  0  0  0  0  0  0
   73.2355   35.1356   53.8464 C   0  0  0  0  0  0  0  0  0  0  0  0
   72.8775   34.8414   55.1225 C   0  0  0  0  0  0  0  0  0  0  0  0
   73.8710   34.7606   56.1073 C   0  0  0  0  0  0  0  0  0  0  0  0
   75.1398   34.9983   55.6563 C   0  0  0  0  0  0  0  0  0  0  0  0
   76.0587   34.9299   56.5450 O   0  0  0  0  0  0  0  0  0  0  0  0
   75.4696   35.2891   54.3926 N   0  0  0  0  0  0  0  0  0  0  0  0
   74.5065   35.3561   53.4825 N   0  0  0  0  0  0  0  0  0  0  0  0
   73.5030   34.4247   57.5049 C   0  0  0  0  0  0  0  0  0  0  0  0
   72.5907   35.4857   58.0126 C   0  0  0  0  0  0  0  0  0  0  0  0
   72.7084   36.7805   57.6104 C   0  0  0  0  0  0  0  0  0  0  0  0
   71.8398   37.7372   58.0908 C   0  0  0  0  0  0  0  0  0  0  0  0
   70.8463   37.3866   58.9837 C   0  0  0  0  0  0  0  0  0  0  0  0
   70.7717   36.1010   59.3498 N   0  0  0  0  0  0  0  0  0  0  0  0
   71.5849   35.1551   58.9107 C   0  0  0  0  0  0  0  0  0  0  0  0
   76.8783   35.5437   54.0318 C   0  0  0  0  0  0  0  0  0  0  0  0
   77.0455   35.0331   52.6467 C   0  0  0  0  0  0  0  0  0  0  0  0
   77.2783   33.8169   52.4901 O   0  0  0  0  0  0  0  0  0  0  0  0
   76.9523   35.8703   51.5050 N   0  0  0  0  0  0  0  0  0  0  0  0
   77.1103   35.4439   50.1641 C   0  0  0  0  0  0  0  0  0  0  0  0
   76.2748   34.5011   49.6062 C   0  0  0  0  0  0  0  0  0  0  0  0
   76.3996   34.0728   48.2982 C   0  0  0  0  0  0  0  0  0  0  0  0
   77.3994   34.6007   47.4971 C   0  0  0  0  0  0  0  0  0  0  0  0
   77.6493   34.0743   45.6856 Br  0  0  0  0  0  0  0  0  0  0  0  0
   78.2414   35.5380   48.0276 C   0  0  0  0  0  0  0  0  0  0  0  0
   78.0940   35.9417   49.3241 C   0  0  0  0  0  0  0  0  0  0  0  0
  1  2  1  0
  2  3  1  0
  2  8  2  0
  3  4  2  0
  4  9  1  0
  4  5  1  0
  9 10  1  0
 10 11  2  0
 10 15  1  0
 11 12  1  0
 12 13  2  0
 13 14  1  0
 14 15  2  0
  5  6  2  0
  5  7  1  0
  7 16  1  0
  7  8  1  0
 16 17  1  0
 17 18  2  0
 17 19  1  0
 19 20  1  0
 20 21  2  0
 20 26  1  0
 21 22  1  0
 22 23  2  0
 23 24  1  0
 23 25  1  0
 25 26  2  0
M  END
>  <minimizedAffinity>  (371) 
-8.65748

$$$$
data/reference_output_2/data/smiles/192068.pdb
     RDKit          3D

 29 31  0  0  0  0  0  0  0  0999 V2000
   68.3868   40.8173   59.9582 N   0  0  0  0  0  0  0  0  0  0  0  0
   67.5494   40.3067   58.9039 C   0  0  0  0  0  0  0  0  0  0  0  0
   67.6428   41.1383   57.6438 C   0  0  0  0  0  0  0  0  0  0  0  0
   68.9089   41.8130   57.5317 N   0  0  0  0  0  0  0  0  0  0  0  0
   69.0877   43.0054   56.7945 C   0  0  0  0  0  0  0  0  0  0  0  0
   70.2099   43.5640   56.7209 O   0  0  0  0  0  0  0  0  0  0  0  0
   68.0202   43.6522   56.0897 N   0  0  0  0  0  0  0  0  0  0  0  0
   70.0503   41.2438   58.2079 C   0  0  0  0  0  0  0  0  0  0  0  0
   69.7618   41.1620   59.7076 C   0  0  0  0  0  0  0  0  0  0  0  0
   66.5186   38.9571   64.1936 C   0  0  0  0  0  0  0  0  0  0  0  0
   66.9184   40.0902   63.3274 C   0  0  0  0  0  0  0  0  0  0  0  0
   66.7341   41.3641   63.8195 C   0  0  0  0  0  0  0  0  0  0  0  0
   67.0984   42.4364   63.0307 C   0  0  0  0  0  0  0  0  0  0  0  0
   67.6375   42.2633   61.7748 C   0  0  0  0  0  0  0  0  0  0  0  0
   67.8347   40.9769   61.2536 C   0  0  0  0  0  0  0  0  0  0  0  0
   67.4578   39.9323   62.0724 C   0  0  0  0  0  0  0  0  0  0  0  0
   67.6462   38.5508   61.5799 C   0  0  0  0  0  0  0  0  0  0  0  0
   68.2096   44.8493   55.3532 C   0  0  0  0  0  0  0  0  0  0  0  0
   68.7970   45.9409   55.9494 C   0  0  0  0  0  0  0  0  0  0  0  0
   68.9976   47.1348   55.2492 C   0  0  0  0  0  0  0  0  0  0  0  0
   68.6078   47.2516   53.9279 C   0  0  0  0  0  0  0  0  0  0  0  0
   68.0206   46.1592   53.3340 C   0  0  0  0  0  0  0  0  0  0  0  0
   67.5222   46.2883   51.6668 Cl  0  0  0  0  0  0  0  0  0  0  0  0
   67.8274   44.9830   54.0350 C   0  0  0  0  0  0  0  0  0  0  0  0
   68.8035   48.4379   53.2198 O   0  0  0  0  0  0  0  0  0  0  0  0
   70.0547   48.6246   52.0919 S   0  0  0  0  0  0  0  0  0  0  0  0
   69.7438   49.9479   51.0201 N   0  0  0  0  0  0  0  0  0  0  0  0
   71.3217   48.9341   52.8435 O   0  0  0  0  0  0  0  0  0  0  0  0
   70.3014   47.3898   51.2892 O   0  0  0  0  0  0  0  0  0  0  0  0
 10 11  1  0
 11 12  2  0
 11 16  1  0
 12 13  1  0
 13 14  2  0
 14 15  1  0
 15  1  1  0
 15 16  2  0
  1  2  1  0
  1  9  1  0
  2  3  1  0
  3  4  1  0
  4  5  1  0
  4  8  1  0
  5  6  2  0
  5  7  1  0
  7 18  1  0
 18 19  2  0
 18 24  1  0
 19 20  1  0
 20 21  2  0
 21 25  1  0
 21 22  1  0
 25 26  1  0
 26 27  1  0
 26 28  2  0
 26 29  2  0
 22 23  1  0
 22 24  2  0
  8  9  1  0
 16 17  1  0
M  END
>  <minimizedAffinity>  (372) 
-8.65693

$$$$
data/200k_reference_output/data/smiles/25456.pdb
     RDKit          3D

 33 37  0  0  0  0  0  0  0  0999 V2000
   71.3121   45.0381   58.0662 N   0  0  0  0  0  0  0  0  0  0  0  0
   70.6202   46.2800   58.0344 C   0  0  0  0  0  0  0  0  0  0  0  0
   69.3819   46.2575   57.7675 O   0  0  0  0  0  0  0  0  0  0  0  0
   71.2621   47.5137   58.2870 N   0  0  0  0  0  0  0  0  0  0  0  0
   72.6922   47.6071   58.6138 C   0  0  0  0  0  0  0  0  0  0  0  0
   72.7821   48.9859   59.2967 C   0  0  1  0  0  0  0  0  0  0  0  0
   74.1153   49.4932   59.3177 N   0  0  0  0  0  0  0  0  0  0  0  0
   71.8452   49.7535   58.3955 C   0  0  0  0  0  0  0  0  0  0  0  0
   70.6702   48.8142   58.2777 C   0  0  1  0  0  0  0  0  0  0  0  0
   66.9774   42.7528   55.7262 N   0  0  0  0  0  0  0  0  0  0  0  0
   67.8829   41.8995   56.4409 C   0  0  0  0  0  0  0  0  0  0  0  0
   67.6120   40.6859   56.4761 O   0  0  0  0  0  0  0  0  0  0  0  0
   69.0301   42.4135   57.0755 N   0  0  0  0  0  0  0  0  0  0  0  0
   69.3906   43.7058   57.0824 C   0  0  0  0  0  0  0  0  0  0  0  0
   70.5676   43.8576   57.7980 C   0  0  0  0  0  0  0  0  0  0  0  0
   70.8923   42.5738   58.2214 C   0  0  0  0  0  0  0  0  0  0  0  0
   71.9590   42.1186   58.9711 C   0  0  0  0  0  0  0  0  0  0  0  0
   72.0232   40.7753   59.2391 C   0  0  0  0  0  0  0  0  0  0  0  0
   71.0701   39.8871   58.7905 C   0  0  0  0  0  0  0  0  0  0  0  0
   70.0038   40.3314   58.0424 C   0  0  0  0  0  0  0  0  0  0  0  0
   69.9267   41.6928   57.7626 C   0  0  0  0  0  0  0  0  0  0  0  0
   69.8681   49.0985   57.0586 C   0  0  0  0  0  0  0  0  0  0  0  0
   68.6572   49.3904   57.1865 O   0  0  0  0  0  0  0  0  0  0  0  0
   70.4429   49.0456   55.7855 N   0  0  0  0  0  0  0  0  0  0  0  0
   69.7241   49.3107   54.5517 C   0  0  0  0  0  0  0  0  0  0  0  0
   68.8866   50.5766   54.5200 C   0  0  0  0  0  0  0  0  0  0  0  0
   70.1401   50.4260   53.6687 C   0  0  0  0  0  0  0  0  0  0  0  0
   69.1411   48.0838   53.9555 C   0  0  0  0  0  0  0  0  0  0  0  0
   69.2083   47.9043   52.5952 C   0  0  0  0  0  0  0  0  0  0  0  0
   68.6652   46.7598   52.0223 C   0  0  0  0  0  0  0  0  0  0  0  0
   68.0562   45.7907   52.7830 C   0  0  0  0  0  0  0  0  0  0  0  0
   67.9873   45.9675   54.1460 C   0  0  0  0  0  0  0  0  0  0  0  0
   68.5308   47.1118   54.7125 C   0  0  0  0  0  0  0  0  0  0  0  0
 10 11  1  0
 11 12  2  0
 11 13  1  0
 13 14  1  0
 13 21  1  0
 14 15  2  0
 15  1  1  0
 15 16  1  0
  1  2  1  0
  2  3  2  0
  2  4  1  0
  4  5  1  0
  4  9  1  0
  5  6  1  0
  6  7  1  6
  6  8  1  0
  8  9  1  0
  9 22  1  6
 22 23  2  0
 22 24  1  0
 24 25  1  0
 25 28  1  0
 25 26  1  0
 25 27  1  0
 28 29  2  0
 28 33  1  0
 29 30  1  0
 30 31  2  0
 31 32  1  0
 32 33  2  0
 26 27  1  0
 16 17  1  0
 16 21  2  0
 17 18  2  0
 18 19  1  0
 19 20  2  0
 20 21  1  0
M  CHG  1   7   1
M  END
>  <minimizedAffinity>  (373) 
-8.65625

$$$$
data/reference_output_2/data/smiles/154163.pdb
     RDKit          3D

 28 30  0  0  0  0  0  0  0  0999 V2000
   69.0866   44.4921   57.1727 N   0  0  0  0  0  0  0  0  0  0  0  0
   68.5357   43.1961   56.9703 C   0  0  0  0  0  0  0  0  0  0  0  0
   67.9851   43.0003   55.8299 O   0  0  0  0  0  0  0  0  0  0  0  0
   68.5739   42.1664   57.9419 N   0  0  0  0  0  0  0  0  0  0  0  0
   69.1655   42.2755   59.2532 C   0  0  0  0  0  0  0  0  0  0  0  0
   70.0346   41.0980   59.5999 C   0  0  0  0  0  0  0  0  0  0  0  0
   70.0717   40.0637   58.6014 N   0  0  0  0  0  0  0  0  0  0  0  0
   69.0930   39.8894   57.5465 C   0  0  0  0  0  0  0  0  0  0  0  0
   67.9753   40.8881   57.6118 C   0  0  0  0  0  0  0  0  0  0  0  0
   68.7751   47.3207   54.0083 C   0  0  0  0  0  0  0  0  0  0  0  0
   69.3818   47.6524   55.2019 C   0  0  0  0  0  0  0  0  0  0  0  0
   69.4890   46.7378   56.2420 C   0  0  0  0  0  0  0  0  0  0  0  0
   68.9913   45.4566   56.1211 C   0  0  0  0  0  0  0  0  0  0  0  0
   68.3867   45.1357   54.9223 C   0  0  0  0  0  0  0  0  0  0  0  0
   68.2773   46.0415   53.8862 C   0  0  0  0  0  0  0  0  0  0  0  0
   67.4999   45.5836   52.3849 Cl  0  0  0  0  0  0  0  0  0  0  0  0
   68.6668   48.2406   52.9622 O   0  0  0  0  0  0  0  0  0  0  0  0
   69.6227   49.9743   50.9274 N   0  0  0  0  0  0  0  0  0  0  0  0
   69.9491   48.6174   51.9335 S   0  0  0  0  0  0  0  0  0  0  0  0
   71.2298   48.8640   52.6880 O   0  0  0  0  0  0  0  0  0  0  0  0
   70.1829   47.4319   51.0306 O   0  0  0  0  0  0  0  0  0  0  0  0
   71.1455   39.1146   58.6287 C   0  0  0  0  0  0  0  0  0  0  0  0
   72.3432   39.3648   59.2831 C   0  0  0  0  0  0  0  0  0  0  0  0
   73.3674   38.4444   59.3002 C   0  0  0  0  0  0  0  0  0  0  0  0
   73.2561   37.2306   58.6707 C   0  0  0  0  0  0  0  0  0  0  0  0
   74.5593   36.0425   58.6836 Cl  0  0  0  0  0  0  0  0  0  0  0  0
   72.0647   36.9674   58.0124 C   0  0  0  0  0  0  0  0  0  0  0  0
   71.0426   37.8922   57.9984 C   0  0  0  0  0  0  0  0  0  0  0  0
 18 19  1  0
 19 20  2  0
 19 21  2  0
 19 17  1  0
 17 10  1  0
 10 11  2  0
 10 15  1  0
 11 12  1  0
 12 13  2  0
 13  1  1  0
 13 14  1  0
  1  2  1  0
  2  3  2  0
  2  4  1  0
  4  5  1  0
  4  9  1  0
  5  6  1  0
  6  7  1  0
  7 22  1  0
  7  8  1  0
 22 23  2  0
 22 28  1  0
 23 24  1  0
 24 25  2  0
 25 26  1  0
 25 27  1  0
 27 28  2  0
  8  9  1  0
 14 15  2  0
 15 16  1  0
M  END
>  <minimizedAffinity>  (374) 
-8.65619

$$$$
data/200k_reference_output/data/smiles/56158.pdb
     RDKit          3D

 27 28  0  0  0  0  0  0  0  0999 V2000
   68.9160   48.0069   57.0529 S   0  0  0  0  0  0  0  0  0  0  0  0
   69.3231   49.2006   57.8671 O   0  0  0  0  0  0  0  0  0  0  0  0
   67.4744   47.7438   57.3548 O   0  0  0  0  0  0  0  0  0  0  0  0
   69.9234   46.6664   57.5874 C   0  0  0  0  0  0  0  0  0  0  0  0
   70.9091   46.8305   58.4369 C   0  0  0  0  0  0  0  0  0  0  0  0
   71.7729   45.7566   58.9113 C   0  0  0  0  0  0  0  0  0  0  0  0
   72.3747   45.8437   60.1732 C   0  0  0  0  0  0  0  0  0  0  0  0
   73.1919   44.8429   60.6396 C   0  0  0  0  0  0  0  0  0  0  0  0
   73.4508   43.7156   59.8873 C   0  0  0  0  0  0  0  0  0  0  0  0
   72.8737   43.6001   58.6429 C   0  0  0  0  0  0  0  0  0  0  0  0
   72.0537   44.6211   58.1919 C   0  0  0  0  0  0  0  0  0  0  0  0
   73.1610   42.3832   57.8452 C   0  0  0  0  0  0  0  0  0  0  0  0
   71.9497   41.7671   57.5762 F   0  0  0  0  0  0  0  0  0  0  0  0
   74.0514   41.5482   58.4705 F   0  0  0  0  0  0  0  0  0  0  0  0
   73.6637   42.8019   56.6170 F   0  0  0  0  0  0  0  0  0  0  0  0
   69.1895   48.3568   55.3899 N   0  0  0  0  0  0  0  0  0  0  0  0
   69.0584   47.7506   53.0637 C   0  0  0  0  0  0  0  0  0  0  0  0
   68.6270   46.8253   52.0995 C   0  0  0  0  0  0  0  0  0  0  0  0
   68.8891   47.1209   50.7926 F   0  0  0  0  0  0  0  0  0  0  0  0
   67.9684   45.6700   52.4378 C   0  0  0  0  0  0  0  0  0  0  0  0
   67.7298   45.4239   53.7774 C   0  0  0  0  0  0  0  0  0  0  0  0
   68.1282   46.2889   54.7482 C   0  0  0  0  0  0  0  0  0  0  0  0
   68.7969   47.4588   54.3683 C   0  0  0  0  0  0  0  0  0  0  0  0
   71.4523   49.3389   53.2700 N   0  0  0  0  0  0  0  0  0  0  0  0
   69.8899   49.1993   52.5544 S   0  0  0  0  0  0  0  0  0  0  0  0
   69.9499   49.3555   51.0667 O   0  0  0  0  0  0  0  0  0  0  0  0
   69.0992   50.4002   53.0690 O   0  0  0  0  0  0  0  0  0  0  0  0
 24 25  1  0
 25 26  2  0
 25 27  2  0
 25 17  1  0
 17 18  2  0
 17 23  1  0
 18 19  1  0
 18 20  1  0
 20 21  2  0
 21 22  1  0
 22 23  2  0
 23 16  1  0
 16  1  1  0
  1  2  2  0
  1  3  2  0
  1  4  1  0
  4  5  2  0
  5  6  1  0
  6  7  2  0
  6 11  1  0
  7  8  1  0
  8  9  2  0
  9 10  1  0
 10 12  1  0
 10 11  2  0
 12 13  1  0
 12 14  1  0
 12 15  1  0
M  END
>  <minimizedAffinity>  (375) 
-8.65610

$$$$
data/200k_reference_output/data/smiles/31296.pdb
     RDKit          3D

 31 33  0  0  0  0  0  0  0  0999 V2000
   69.6052   50.7127   56.1509 C   0  0  0  0  0  0  0  0  0  0  0  0
   69.7349   50.3070   57.4575 C   0  0  0  0  0  0  0  0  0  0  0  0
   69.5880   48.9772   57.7816 C   0  0  0  0  0  0  0  0  0  0  0  0
   69.3058   47.9992   56.8167 C   0  0  0  0  0  0  0  0  0  0  0  0
   69.1723   48.3825   55.5186 C   0  0  0  0  0  0  0  0  0  0  0  0
   69.3315   49.7572   55.2171 C   0  0  0  0  0  0  0  0  0  0  0  0
   68.7991   47.4788   54.4288 C   0  0  0  0  0  0  0  0  0  0  0  0
   68.1871   46.3479   54.5499 C   0  0  0  0  0  0  0  0  0  0  0  0
   67.8158   45.4351   53.4408 C   0  0  0  0  0  0  0  0  0  0  0  0
   67.8049   46.2080   52.1510 C   0  0  0  0  0  0  0  0  0  0  0  0
   69.2107   46.8196   52.0568 C   0  0  0  0  0  0  0  0  0  0  0  0
   69.2116   47.9348   53.0601 C   0  0  0  0  0  0  0  0  0  0  0  0
   69.0302   53.0488   56.7411 C   0  0  0  0  0  0  0  0  0  0  0  0
   69.7450   52.1579   55.7541 C   0  0  0  0  0  0  0  0  0  0  0  0
   69.1330   52.3090   54.4007 C   0  0  0  0  0  0  0  0  0  0  0  0
   71.1491   52.4825   55.7886 N   0  0  0  0  0  0  0  0  0  0  0  0
   71.9913   52.0436   54.7316 C   0  0  0  0  0  0  0  0  0  0  0  0
   71.6140   51.3831   53.7430 O   0  0  0  0  0  0  0  0  0  0  0  0
   73.4171   52.3846   54.7949 C   0  0  0  0  0  0  0  0  0  0  0  0
   74.2288   52.1240   55.9214 N   0  0  0  0  0  0  0  0  0  0  0  0
   73.9885   52.9490   53.7985 O   0  0  0  0  0  0  0  0  0  0  0  0
   69.2526   46.6533   57.2726 N   0  0  0  0  0  0  0  0  0  0  0  0
   70.3869   46.0008   57.8316 C   0  0  0  0  0  0  0  0  0  0  0  0
   71.4685   46.6295   57.9230 O   0  0  0  0  0  0  0  0  0  0  0  0
   70.3798   44.6182   58.3147 C   0  0  0  0  0  0  0  0  0  0  0  0
   71.0449   43.5763   57.8366 N   0  0  0  0  0  0  0  0  0  0  0  0
   70.7548   42.5071   58.5878 C   0  0  0  0  0  0  0  0  0  0  0  0
   69.8788   42.9178   59.5608 C   0  0  0  0  0  0  0  0  0  0  0  0
   69.6638   44.2251   59.3688 N   0  0  0  0  0  0  0  0  0  0  0  0
   71.2563   41.1505   58.4049 C   0  0  0  0  0  0  0  0  0  0  0  0
   71.6664   40.0742   58.2505 N   0  0  0  0  0  0  0  0  0  0  0  0
 13 14  1  0
 14 15  1  0
 14 16  1  0
 14  1  1  0
 16 17  1  0
 17 18  2  0
 17 19  1  0
 19 20  1  0
 19 21  2  0
  1  2  2  0
  1  6  1  0
  2  3  1  0
  3  4  2  0
  4 22  1  0
  4  5  1  0
 22 23  1  0
 23 24  2  0
 23 25  1  0
 25 26  2  0
 25 29  1  0
 26 27  1  0
 27 30  1  0
 27 28  2  0
 30 31  3  0
 28 29  1  0
  5  7  1  0
  5  6  2  0
  7  8  2  0
  7 12  1  0
  8  9  1  0
  9 10  1  0
 10 11  1  0
 11 12  1  0
M  CHG  1  26   1
M  END
>  <minimizedAffinity>  (376) 
-8.65510

$$$$
data/200k_reference_output/data/smiles/52630.pdb
     RDKit          3D

 31 33  0  0  0  0  0  0  0  0999 V2000
   71.0918   47.5315   58.0309 C   0  0  0  0  0  0  0  0  0  0  0  0
   71.8472   48.5057   57.7967 O   0  0  0  0  0  0  0  0  0  0  0  0
   69.9677   47.3464   57.2079 N   0  0  0  0  0  0  0  0  0  0  0  0
   70.9558   43.0369   57.6157 N   0  0  0  0  0  0  0  0  0  0  0  0
   72.2510   42.4368   57.4378 C   0  0  0  0  0  0  0  0  0  0  0  0
   70.7527   44.3159   58.1456 C   0  0  0  0  0  0  0  0  0  0  0  0
   69.5108   44.6981   58.2390 O   0  0  0  0  0  0  0  0  0  0  0  0
   71.6970   45.2497   58.5916 N   0  0  0  0  0  0  0  0  0  0  0  0
   73.1305   45.1290   58.6134 C   0  0  0  0  0  0  0  0  0  0  0  0
   73.6824   46.5157   58.9422 C   0  0  0  0  0  0  0  0  0  0  0  0
   72.5788   47.0059   59.8902 C   0  0  0  0  0  0  0  0  0  0  0  0
   71.3407   46.5741   59.1385 C   0  0  1  0  0  0  0  0  0  0  0  0
   69.2633   41.2775   58.0765 C   0  0  0  0  0  0  0  0  0  0  0  0
   69.7434   41.1387   59.2307 O   0  0  0  0  0  0  0  0  0  0  0  0
   69.8421   42.2319   57.2103 N   0  0  0  0  0  0  0  0  0  0  0  0
   68.1958   39.0576   58.3756 C   0  0  0  0  0  0  0  0  0  0  0  0
   68.1164   40.4236   57.7095 C   0  0  2  0  0  0  0  0  0  0  0  0
   67.9605   40.2189   56.3108 N   0  0  0  0  0  0  0  0  0  0  0  0
   69.6449   48.2441   56.0896 C   0  0  0  0  0  0  0  0  0  0  0  0
   69.0709   47.3969   55.0307 C   0  0  0  0  0  0  0  0  0  0  0  0
   69.1212   47.8338   53.7245 C   0  0  0  0  0  0  0  0  0  0  0  0
   68.6011   47.0880   52.6777 C   0  0  0  0  0  0  0  0  0  0  0  0
   68.0118   45.8700   52.9425 C   0  0  0  0  0  0  0  0  0  0  0  0
   67.9457   45.4103   54.2235 C   0  0  0  0  0  0  0  0  0  0  0  0
   68.4726   46.1723   55.2513 C   0  0  0  0  0  0  0  0  0  0  0  0
   68.6778   49.2526   56.5915 C   0  0  0  0  0  0  0  0  0  0  0  0
   68.7474   50.5775   56.1996 C   0  0  0  0  0  0  0  0  0  0  0  0
   67.8303   51.4877   56.6860 C   0  0  0  0  0  0  0  0  0  0  0  0
   66.8214   51.1349   57.5677 C   0  0  0  0  0  0  0  0  0  0  0  0
   66.7596   49.8134   57.9533 C   0  0  0  0  0  0  0  0  0  0  0  0
   67.6731   48.9028   57.4687 C   0  0  0  0  0  0  0  0  0  0  0  0
 17 16  1  1
 17 18  1  0
 17 13  1  0
 13 14  2  0
 13 15  1  0
 15  4  1  0
  4  5  1  0
  4  6  1  0
  6  7  2  0
  6  8  1  0
  8  9  1  0
  8 12  1  0
  9 10  1  0
 10 11  1  0
 11 12  1  0
 12  1  1  6
  1  2  2  0
  1  3  1  0
  3 19  1  0
 19 20  1  0
 19 26  1  0
 20 21  2  0
 20 25  1  0
 21 22  1  0
 22 23  2  0
 23 24  1  0
 24 25  2  0
 26 27  2  0
 26 31  1  0
 27 28  1  0
 28 29  2  0
 29 30  1  0
 30 31  2  0
M  CHG  1  18   1
M  END
>  <minimizedAffinity>  (377) 
-8.65389

$$$$
data/200k_reference_output/data/smiles/35962.pdb
     RDKit          3D

 29 31  0  0  0  0  0  0  0  0999 V2000
   70.7290   50.5278   55.7466 N   0  0  0  0  0  0  0  0  0  0  0  0
   69.5058   51.1914   55.9495 C   0  0  0  0  0  0  0  0  0  0  0  0
   68.8913   51.3193   57.2582 C   0  0  0  0  0  0  0  0  0  0  0  0
   69.6836   51.1172   58.4856 C   0  0  0  0  0  0  0  0  0  0  0  0
   71.0312   50.7275   58.2643 N   0  0  0  0  0  0  0  0  0  0  0  0
   71.6308   49.5429   58.6243 C   0  0  0  0  0  0  0  0  0  0  0  0
   72.9206   49.4929   58.3857 O   0  0  0  0  0  0  0  0  0  0  0  0
   71.9698   51.6550   57.5532 C   0  0  0  0  0  0  0  0  0  0  0  0
   71.9311   51.1722   56.1347 C   0  0  0  0  0  0  0  0  0  0  0  0
   70.8611   50.2266   54.0434 S   0  0  0  0  0  0  0  0  0  0  0  0
   72.2759   49.9501   53.6368 O   0  0  0  0  0  0  0  0  0  0  0  0
   70.3218   51.3798   53.2454 O   0  0  0  0  0  0  0  0  0  0  0  0
   67.5807   45.3945   52.5253 C   0  0  0  0  0  0  0  0  0  0  0  0
   68.3937   46.5921   52.9037 C   0  0  0  0  0  0  0  0  0  0  0  0
   69.1010   47.2766   51.9366 C   0  0  0  0  0  0  0  0  0  0  0  0
   69.8402   48.3693   52.2974 C   0  0  0  0  0  0  0  0  0  0  0  0
   69.9032   48.8210   53.6190 C   0  0  0  0  0  0  0  0  0  0  0  0
   69.1795   48.1069   54.5529 C   0  0  0  0  0  0  0  0  0  0  0  0
   68.4197   46.9918   54.2167 C   0  0  0  0  0  0  0  0  0  0  0  0
   71.1168   48.3390   59.2218 C   0  0  0  0  0  0  0  0  0  0  0  0
   71.6810   47.0694   58.9208 N   0  0  0  0  0  0  0  0  0  0  0  0
   70.8875   46.0199   58.4216 C   0  0  0  0  0  0  0  0  0  0  0  0
   69.6496   46.1974   58.2285 O   0  0  0  0  0  0  0  0  0  0  0  0
   71.4536   44.7103   58.1150 C   0  0  0  0  0  0  0  0  0  0  0  0
   70.7043   43.5790   57.9270 C   0  0  0  0  0  0  0  0  0  0  0  0
   71.3283   42.3618   57.6363 C   0  0  0  0  0  0  0  0  0  0  0  0
   72.7003   42.2745   57.5346 C   0  0  0  0  0  0  0  0  0  0  0  0
   73.4638   43.4042   57.7218 C   0  0  0  0  0  0  0  0  0  0  0  0
   72.8382   44.5926   58.0067 C   0  0  0  0  0  0  0  0  0  0  0  0
 13 14  1  0
 14 15  2  0
 14 19  1  0
 15 16  1  0
 16 17  2  0
 17 10  1  0
 17 18  1  0
 10 11  2  0
 10 12  2  0
 10  1  1  0
  1  2  1  0
  1  9  1  0
  2  3  1  0
  3  4  1  0
  4  5  1  0
  5  6  1  0
  5  8  1  0
  6  7  2  0
  6 20  1  0
 20 21  1  0
 21 22  1  0
 22 23  2  0
 22 24  1  0
 24 25  2  0
 24 29  1  0
 25 26  1  0
 26 27  2  0
 27 28  1  0
 28 29  2  0
  8  9  1  0
 18 19  2  0
M  END
>  <minimizedAffinity>  (378) 
-8.65380

$$$$
data/200k_reference_output/data/smiles/33541.pdb
     RDKit          3D

 32 35  0  0  0  0  0  0  0  0999 V2000
   71.4862   46.9834   58.8600 C   0  0  0  0  0  0  0  0  0  0  0  0
   70.8658   47.9517   58.0836 C   0  0  0  0  0  0  0  0  0  0  0  0
   69.9622   47.6070   57.0965 C   0  0  0  0  0  0  0  0  0  0  0  0
   69.6690   46.2756   56.8794 C   0  0  0  0  0  0  0  0  0  0  0  0
   70.2754   45.2885   57.6452 C   0  0  0  0  0  0  0  0  0  0  0  0
   71.1876   45.6621   58.6362 C   0  0  0  0  0  0  0  0  0  0  0  0
   71.7660   44.6868   59.3677 F   0  0  0  0  0  0  0  0  0  0  0  0
   77.7032   48.7884   59.0219 C   0  0  0  0  0  0  0  0  0  0  0  0
   78.4433   48.8321   60.0410 O   0  0  0  0  0  0  0  0  0  0  0  0
   76.5022   48.0467   59.1028 N   0  0  0  0  0  0  0  0  0  0  0  0
   75.5759   47.9108   57.9991 C   0  0  0  0  0  0  0  0  0  0  0  0
   74.3725   47.0670   58.3338 C   0  0  0  0  0  0  0  0  0  0  0  0
   73.8326   47.4396   59.6408 N   0  0  0  0  0  0  0  0  0  0  0  0
   72.4288   47.3786   59.8869 C   0  0  0  0  0  0  0  0  0  0  0  0
   72.0159   47.6816   61.0372 O   0  0  0  0  0  0  0  0  0  0  0  0
   74.7214   47.8725   60.6795 C   0  0  0  0  0  0  0  0  0  0  0  0
   76.1290   47.3540   60.3337 C   0  0  0  0  0  0  0  0  0  0  0  0
   78.7551   50.8882   58.2181 C   0  0  0  0  0  0  0  0  0  0  0  0
   78.1818   49.5216   57.8512 C   0  0  0  0  0  0  0  0  0  0  0  0
   79.1460   48.8175   56.9733 C   0  0  0  0  0  0  0  0  0  0  0  0
   69.2531   48.6186   56.3223 C   0  0  0  0  0  0  0  0  0  0  0  0
   69.5987   48.5321   54.8848 C   0  0  0  0  0  0  0  0  0  0  0  0
   70.7268   49.2204   54.4326 N   0  0  0  0  0  0  0  0  0  0  0  0
   71.0492   49.1581   53.1501 N   0  0  0  0  0  0  0  0  0  0  0  0
   70.3685   48.4762   52.2309 C   0  0  0  0  0  0  0  0  0  0  0  0
   70.6835   48.4223   51.0095 O   0  0  0  0  0  0  0  0  0  0  0  0
   69.2402   47.7725   52.6150 C   0  0  0  0  0  0  0  0  0  0  0  0
   68.8995   47.8366   53.9580 C   0  0  0  0  0  0  0  0  0  0  0  0
   67.6672   47.0629   54.3230 C   0  0  0  0  0  0  0  0  0  0  0  0
   67.7984   45.6753   53.7866 C   0  0  0  0  0  0  0  0  0  0  0  0
   68.3397   45.5741   52.3895 C   0  0  0  0  0  0  0  0  0  0  0  0
   68.3859   46.9591   51.7183 C   0  0  0  0  0  0  0  0  0  0  0  0
 18 19  1  0
 19 20  1  0
 19  8  1  0
  8  9  2  0
  8 10  1  0
 10 11  1  0
 10 17  1  0
 11 12  1  0
 12 13  1  0
 13 14  1  0
 13 16  1  0
 14 15  2  0
 14  1  1  0
  1  2  2  0
  1  6  1  0
  2  3  1  0
  3 21  1  0
  3  4  2  0
 21 22  1  0
 22 23  2  0
 22 28  1  0
 23 24  1  0
 24 25  1  0
 25 26  2  0
 25 27  1  0
 27 28  2  0
 27 32  1  0
 28 29  1  0
 29 30  1  0
 30 31  1  0
 31 32  1  0
  4  5  1  0
  5  6  2  0
  6  7  1  0
 16 17  1  0
M  END
>  <minimizedAffinity>  (379) 
-8.65207

$$$$
data/reference_output_2/data/smiles/161304.pdb
     RDKit          3D

 28 30  0  0  0  0  0  0  0  0999 V2000
   70.1797   49.2399   53.8114 C   0  0  0  0  0  0  0  0  0  0  0  0
   69.7779   49.0354   52.5085 C   0  0  0  0  0  0  0  0  0  0  0  0
   68.9974   47.9284   52.1521 C   0  0  0  0  0  0  0  0  0  0  0  0
   68.6049   47.0045   53.0963 C   0  0  0  0  0  0  0  0  0  0  0  0
   67.8348   45.9011   52.7797 C   0  0  0  0  0  0  0  0  0  0  0  0
   67.3296   45.6496   51.1191 Cl  0  0  0  0  0  0  0  0  0  0  0  0
   67.4579   44.9934   53.7482 C   0  0  0  0  0  0  0  0  0  0  0  0
   67.8686   45.2236   55.0114 N   0  0  0  0  0  0  0  0  0  0  0  0
   68.6153   46.2800   55.3617 C   0  0  0  0  0  0  0  0  0  0  0  0
   69.0040   47.2040   54.3984 C   0  0  0  0  0  0  0  0  0  0  0  0
   69.7725   48.2955   54.7453 C   0  0  0  0  0  0  0  0  0  0  0  0
   69.0519   46.5319   56.6878 N   0  0  0  0  0  0  0  0  0  0  0  0
   69.6587   45.6842   57.4275 C   0  0  0  0  0  0  0  0  0  0  0  0
   69.9860   44.3685   57.0333 N   0  0  0  0  0  0  0  0  0  0  0  0
   70.0276   46.1017   58.7366 N   0  0  0  0  0  0  0  0  0  0  0  0
   71.1585   50.6187   54.2797 S   0  0  0  0  0  0  0  0  0  0  0  0
   70.8177   51.7242   53.3345 O   0  0  0  0  0  0  0  0  0  0  0  0
   72.5961   50.2233   53.9562 O   0  0  0  0  0  0  0  0  0  0  0  0
   72.2542   50.6664   56.6056 C   0  0  0  0  0  0  0  0  0  0  0  0
   71.0329   50.9582   55.8951 N   0  0  0  0  0  0  0  0  0  0  0  0
   70.5136   52.1777   56.3400 C   0  0  0  0  0  0  0  0  0  0  0  0
   69.2519   52.6547   55.6754 C   0  0  0  0  0  0  0  0  0  0  0  0
   68.2792   51.5836   56.0058 C   0  0  0  0  0  0  0  0  0  0  0  0
   68.6807   51.1456   57.3935 C   0  0  0  0  0  0  0  0  0  0  0  0
   69.9529   51.9320   57.7376 C   0  0  0  0  0  0  0  0  0  0  0  0
   71.4889   53.2926   56.3812 C   0  0  0  0  0  0  0  0  0  0  0  0
   71.6938   53.8631   57.4759 O   0  0  0  0  0  0  0  0  0  0  0  0
   72.1852   53.7351   55.2732 O   0  0  0  0  0  0  0  0  0  0  0  0
 19 20  1  0
 20 21  1  0
 20 16  1  0
 21 26  1  0
 21 22  1  0
 21 25  1  0
 26 27  2  0
 26 28  1  0
 22 23  1  0
 23 24  1  0
 24 25  1  0
 16 17  2  0
 16 18  2  0
 16  1  1  0
  1  2  2  0
  1 11  1  0
  2  3  1  0
  3  4  2  0
  4  5  1  0
  4 10  1  0
  5  6  1  0
  5  7  2  0
  7  8  1  0
  8  9  2  0
  9 12  1  0
  9 10  1  0
 12 13  2  0
 13 14  1  0
 13 15  1  0
 10 11  2  0
M  CHG  1  12   1
M  END
>  <minimizedAffinity>  (380) 
-8.65146

$$$$
data/reference_output_2/data/smiles/153457.pdb
     RDKit          3D

 29 31  0  0  0  0  0  0  0  0999 V2000
   70.0893   39.6863   58.7415 C   0  0  2  0  0  0  0  0  0  0  0  0
   68.6305   39.2883   58.6969 C   0  0  0  0  0  0  0  0  0  0  0  0
   68.0347   39.3932   57.4055 N   0  0  0  0  0  0  0  0  0  0  0  0
   68.0258   40.4793   56.5116 C   0  0  0  0  0  0  0  0  0  0  0  0
   67.5269   40.2796   55.3537 O   0  0  0  0  0  0  0  0  0  0  0  0
   68.5077   41.8431   56.6931 C   0  0  0  0  0  0  0  0  0  0  0  0
   69.5806   42.0120   57.6355 N   0  0  0  0  0  0  0  0  0  0  0  0
   69.9382   43.3882   57.8224 C   0  0  0  0  0  0  0  0  0  0  0  0
   70.8659   43.6790   58.6268 O   0  0  0  0  0  0  0  0  0  0  0  0
   69.2814   44.4324   57.1332 N   0  0  0  0  0  0  0  0  0  0  0  0
   70.3396   41.0862   58.4028 C   0  0  0  0  0  0  0  0  0  0  0  0
   71.4159   41.5816   58.8662 O   0  0  0  0  0  0  0  0  0  0  0  0
   70.9575   38.6739   58.0820 C   0  0  0  0  0  0  0  0  0  0  0  0
   71.7851   36.3512   58.2146 C   0  0  0  0  0  0  0  0  0  0  0  0
   71.8430   35.1324   58.8373 C   0  0  0  0  0  0  0  0  0  0  0  0
   71.1643   34.8433   60.0016 C   0  0  0  0  0  0  0  0  0  0  0  0
   70.4042   35.8883   60.5113 C   0  0  0  0  0  0  0  0  0  0  0  0
   69.5116   35.5719   62.0040 Cl  0  0  0  0  0  0  0  0  0  0  0  0
   70.3319   37.1139   59.9068 C   0  0  0  0  0  0  0  0  0  0  0  0
   71.0264   37.3509   58.7484 C   0  0  0  0  0  0  0  0  0  0  0  0
   73.0376   35.5677   56.2334 C   0  0  0  0  0  0  0  0  0  0  0  0
   72.4941   36.5446   57.0645 O   0  0  0  0  0  0  0  0  0  0  0  0
   69.5857   45.8384   57.2681 C   0  0  0  0  0  0  0  0  0  0  0  0
   69.2330   46.5557   56.0263 C   0  0  0  0  0  0  0  0  0  0  0  0
   69.5657   47.8657   55.7767 C   0  0  0  0  0  0  0  0  0  0  0  0
   69.1936   48.4475   54.5706 C   0  0  0  0  0  0  0  0  0  0  0  0
   68.4992   47.7394   53.6211 C   0  0  0  0  0  0  0  0  0  0  0  0
   68.1526   46.4245   53.8465 C   0  0  0  0  0  0  0  0  0  0  0  0
   68.5241   45.8563   55.0410 C   0  0  0  0  0  0  0  0  0  0  0  0
 21 22  1  0
 22 14  1  0
 14 15  2  0
 14 20  1  0
 15 16  1  0
 16 17  2  0
 17 18  1  0
 17 19  1  0
 19 20  2  0
 20 13  1  0
  1 13  1  6
  1  2  1  0
  1 11  1  0
  2  3  1  0
  3  4  1  0
  4  5  2  0
  4  6  1  0
  6  7  1  0
  7  8  1  0
  7 11  1  0
  8  9  2  0
  8 10  1  0
 10 23  1  0
 23 24  1  0
 24 25  2  0
 24 29  1  0
 25 26  1  0
 26 27  2  0
 27 28  1  0
 28 29  2  0
 11 12  2  0
M  END
>  <minimizedAffinity>  (381) 
-8.65136

$$$$
data/reference_output_2/data/smiles/161009.pdb
     RDKit          3D

 30 33  0  0  0  0  0  0  0  0999 V2000
   68.3593   41.4111   58.7359 C   0  0  2  0  0  0  0  0  0  0  0  0
   69.4175   40.5832   58.0946 C   0  0  0  0  0  0  0  0  0  0  0  0
   70.6824   41.3968   58.0724 C   0  0  0  0  0  0  0  0  0  0  0  0
   71.0078   42.6426   57.5787 C   0  0  0  0  0  0  0  0  0  0  0  0
   72.2606   43.1797   57.6988 C   0  0  0  0  0  0  0  0  0  0  0  0
   73.2538   42.4724   58.3316 C   0  0  0  0  0  0  0  0  0  0  0  0
   72.9529   41.2231   58.8331 C   0  0  0  0  0  0  0  0  0  0  0  0
   71.6823   40.6972   58.7025 C   0  0  0  0  0  0  0  0  0  0  0  0
   71.1042   39.4242   59.1171 C   0  0  0  0  0  0  0  0  0  0  0  0
   71.7470   38.3776   59.7813 C   0  0  0  0  0  0  0  0  0  0  0  0
   71.0460   37.2353   60.0772 C   0  0  0  0  0  0  0  0  0  0  0  0
   69.7357   37.1371   59.7227 C   0  0  0  0  0  0  0  0  0  0  0  0
   69.1081   38.1842   59.0623 C   0  0  0  0  0  0  0  0  0  0  0  0
   69.7785   39.3389   58.7511 C   0  0  0  0  0  0  0  0  0  0  0  0
   68.2320   41.2591   60.1936 C   0  0  0  0  0  0  0  0  0  0  0  0
   68.9731   41.8243   61.0374 O   0  0  0  0  0  0  0  0  0  0  0  0
   67.2243   40.4359   60.6775 O   0  0  0  0  0  0  0  0  0  0  0  0
   67.0443   41.3234   58.0198 C   0  0  0  0  0  0  0  0  0  0  0  0
   66.8160   41.3281   55.6463 O   0  0  0  0  0  0  0  0  0  0  0  0
   67.1537   41.9760   56.6515 C   0  0  0  0  0  0  0  0  0  0  0  0
   67.6249   43.2911   56.5121 N   0  0  0  0  0  0  0  0  0  0  0  0
   67.7960   44.0565   55.3790 N   0  0  0  0  0  0  0  0  0  0  0  0
   68.2249   45.3610   55.2031 C   0  0  0  0  0  0  0  0  0  0  0  0
   68.5334   46.0240   56.2249 O   0  0  0  0  0  0  0  0  0  0  0  0
   68.3503   46.0361   53.8909 C   0  0  0  0  0  0  0  0  0  0  0  0
   67.7741   45.4591   52.7632 C   0  0  0  0  0  0  0  0  0  0  0  0
   67.9083   46.1112   51.5588 C   0  0  0  0  0  0  0  0  0  0  0  0
   68.5828   47.2746   51.4852 N   0  0  0  0  0  0  0  0  0  0  0  0
   69.1395   47.8315   52.5716 C   0  0  0  0  0  0  0  0  0  0  0  0
   69.0340   47.2139   53.8225 C   0  0  0  0  0  0  0  0  0  0  0  0
 19 20  2  0
 20 18  1  0
 20 21  1  0
  1 18  1  6
  1 15  1  0
  1  2  1  0
 15 16  2  0
 15 17  1  0
  2  3  1  0
  2 14  1  0
  3  4  2  0
  3  8  1  0
  4  5  1  0
  5  6  2  0
  6  7  1  0
  7  8  2  0
  8  9  1  0
  9 10  2  0
  9 14  1  0
 10 11  1  0
 11 12  2  0
 12 13  1  0
 13 14  2  0
 21 22  1  0
 22 23  1  0
 23 24  2  0
 23 25  1  0
 25 26  2  0
 25 30  1  0
 26 27  1  0
 27 28  2  0
 28 29  1  0
 29 30  2  0
M  END
>  <minimizedAffinity>  (382) 
-8.64670

$$$$
data/200k_reference_output/data/smiles/21338.pdb
     RDKit          3D

 29 32  0  0  0  0  0  0  0  0999 V2000
   70.4048   50.2622   57.2801 C   0  0  0  0  0  0  0  0  0  0  0  0
   69.6059   49.2217   57.7044 C   0  0  0  0  0  0  0  0  0  0  0  0
   69.0786   48.3116   56.8083 C   0  0  0  0  0  0  0  0  0  0  0  0
   69.3334   48.4063   55.4358 C   0  0  0  0  0  0  0  0  0  0  0  0
   70.1243   49.4351   55.0122 C   0  0  0  0  0  0  0  0  0  0  0  0
   70.6583   50.3595   55.9343 C   0  0  0  0  0  0  0  0  0  0  0  0
   70.2420   49.3191   53.5473 C   0  0  1  0  0  0  0  0  0  0  0  0
   71.5650   49.2184   53.1264 O   0  0  0  0  0  0  0  0  0  0  0  0
   69.4442   48.1317   53.1915 C   0  0  0  0  0  0  0  0  0  0  0  0
   69.1946   47.5426   51.9377 C   0  0  0  0  0  0  0  0  0  0  0  0
   68.4089   46.4290   51.8860 C   0  0  0  0  0  0  0  0  0  0  0  0
   67.8388   45.8476   53.0225 C   0  0  0  0  0  0  0  0  0  0  0  0
   68.1025   46.4484   54.2283 C   0  0  0  0  0  0  0  0  0  0  0  0
   68.8921   47.5750   54.3237 C   0  0  0  0  0  0  0  0  0  0  0  0
   69.5461   50.5098   52.9122 C   0  0  0  0  0  0  0  0  0  0  0  0
   69.4711   50.3937   51.5412 F   0  0  0  0  0  0  0  0  0  0  0  0
   70.3403   51.6192   53.1898 F   0  0  0  0  0  0  0  0  0  0  0  0
   68.3249   50.7374   53.4744 F   0  0  0  0  0  0  0  0  0  0  0  0
   70.9572   51.2040   58.1522 O   0  0  0  0  0  0  0  0  0  0  0  0
   72.0199   52.0268   57.8441 C   0  0  0  0  0  0  0  0  0  0  0  0
   74.0460   52.8746   58.5769 O   0  0  0  0  0  0  0  0  0  0  0  0
   73.3054   51.8161   58.4852 C   0  0  0  0  0  0  0  0  0  0  0  0
   73.8679   50.6501   59.0138 N   0  0  0  0  0  0  0  0  0  0  0  0
   73.4573   49.2692   59.0559 C   0  0  0  0  0  0  0  0  0  0  0  0
   73.7320   48.8783   60.5138 C   0  0  0  0  0  0  0  0  0  0  0  0
   74.7872   49.8571   60.9817 C   0  0  0  0  0  0  0  0  0  0  0  0
   75.1533   50.6201   59.7587 C   0  0  1  0  0  0  0  0  0  0  0  0
   76.2353   49.9207   58.9824 C   0  0  0  0  0  0  0  0  0  0  0  0
   76.6629   50.6901   57.8973 O   0  0  0  0  0  0  0  0  0  0  0  0
 21 22  2  0
 22 20  1  0
 22 23  1  0
 20 19  1  0
 19  1  1  0
  1  2  2  0
  1  6  1  0
  2  3  1  0
  3  4  2  0
  4  5  1  0
  4 14  1  0
  5  6  2  0
  5  7  1  0
  7  8  1  1
  7 15  1  0
  7  9  1  0
 15 16  1  0
 15 17  1  0
 15 18  1  0
  9 10  1  0
  9 14  2  0
 10 11  2  0
 11 12  1  0
 12 13  2  0
 13 14  1  0
 23 24  1  0
 23 27  1  0
 24 25  1  0
 25 26  1  0
 26 27  1  0
 27 28  1  6
 28 29  1  0
M  END
>  <minimizedAffinity>  (383) 
-8.64651

$$$$
data/reference_output_2/data/smiles/141382.pdb
     RDKit          3D

 32 37  0  0  0  0  0  0  0  0999 V2000
   69.7918   39.8998   57.8874 O   0  0  0  0  0  0  0  0  0  0  0  0
   68.9380   40.7266   58.2922 C   0  0  0  0  0  0  0  0  0  0  0  0
   68.5725   40.7060   59.6657 N   0  0  0  0  0  0  0  0  0  0  0  0
   67.5803   41.6802   60.0732 C   0  0  0  0  0  0  0  0  0  0  0  0
   67.1082   41.5076   61.4639 C   0  0  0  0  0  0  0  0  0  0  0  0
   67.1651   40.0888   61.9643 C   0  0  0  0  0  0  0  0  0  0  0  0
   68.5633   39.5446   61.8519 C   0  0  0  0  0  0  0  0  0  0  0  0
   69.1933   39.7587   60.5321 C   0  0  0  0  0  0  0  0  0  0  0  0
   66.1452   39.2028   61.3954 C   0  0  0  0  0  0  0  0  0  0  0  0
   65.5103   39.1729   60.1786 C   0  0  0  0  0  0  0  0  0  0  0  0
   64.6253   38.1514   60.1043 N   0  0  0  0  0  0  0  0  0  0  0  0
   64.6779   37.5054   61.2803 C   0  0  0  0  0  0  0  0  0  0  0  0
   63.9748   36.4000   61.7041 C   0  0  0  0  0  0  0  0  0  0  0  0
   64.2004   35.9031   62.9708 C   0  0  0  0  0  0  0  0  0  0  0  0
   65.1195   36.5080   63.8011 C   0  0  0  0  0  0  0  0  0  0  0  0
   65.8205   37.6147   63.3696 C   0  0  0  0  0  0  0  0  0  0  0  0
   65.6005   38.1228   62.0975 C   0  0  0  0  0  0  0  0  0  0  0  0
   68.3536   41.6786   57.3359 C   0  0  0  0  0  0  0  0  0  0  0  0
   67.1544   41.5355   56.6522 C   0  0  0  0  0  0  0  0  0  0  0  0
   66.9972   42.6144   55.8956 N   0  0  0  0  0  0  0  0  0  0  0  0
   68.0062   43.4549   56.0321 N   0  0  0  0  0  0  0  0  0  0  0  0
   68.8479   42.8981   56.9110 C   0  0  0  0  0  0  0  0  0  0  0  0
   68.1927   44.7102   55.3902 C   0  0  0  0  0  0  0  0  0  0  0  0
   68.6443   45.7993   56.0296 N   0  0  0  0  0  0  0  0  0  0  0  0
   68.8251   46.9874   55.4316 C   0  0  0  0  0  0  0  0  0  0  0  0
   68.5443   47.1355   54.0917 C   0  0  0  0  0  0  0  0  0  0  0  0
   68.0802   46.0254   53.4190 C   0  0  0  0  0  0  0  0  0  0  0  0
   67.8226   46.1589   52.1892 O   0  0  0  0  0  0  0  0  0  0  0  0
   67.9156   44.8570   54.0628 N   0  0  0  0  0  0  0  0  0  0  0  0
   68.8329   48.5524   53.6798 C   0  0  0  0  0  0  0  0  0  0  0  0
   69.8904   48.9280   54.7169 C   0  0  0  0  0  0  0  0  0  0  0  0
   69.3083   48.2887   55.9606 C   0  0  0  0  0  0  0  0  0  0  0  0
  1  2  2  0
  2 18  1  0
  2  3  1  0
 18 19  1  0
 18 22  2  0
 19 20  2  0
 20 21  1  0
 21 23  1  0
 21 22  1  0
 23 24  2  0
 23 29  1  0
 24 25  1  0
 25 26  2  0
 25 32  1  0
 26 27  1  0
 26 30  1  0
 27 28  2  0
 27 29  1  0
 30 31  1  0
 31 32  1  0
  3  4  1  0
  3  8  1  0
  4  5  1  0
  5  6  1  0
  6  9  1  0
  6  7  1  0
  9 10  2  0
  9 17  1  0
 10 11  1  0
 11 12  1  0
 12 13  1  0
 12 17  2  0
 13 14  2  0
 14 15  1  0
 15 16  2  0
 16 17  1  0
  7  8  1  0
M  END
>  <minimizedAffinity>  (384) 
-8.64483

$$$$
data/reference_output_2/data/smiles/192078.pdb
     RDKit          3D

 28 30  0  0  0  0  0  0  0  0999 V2000
   72.2260   36.4327   57.8921 C   0  0  0  0  0  0  0  0  0  0  0  0
   71.9241   37.7712   57.9614 C   0  0  0  0  0  0  0  0  0  0  0  0
   71.0914   38.2999   58.9573 C   0  0  0  0  0  0  0  0  0  0  0  0
   70.5355   37.4744   59.9209 C   0  0  0  0  0  0  0  0  0  0  0  0
   70.8569   36.1374   59.8261 C   0  0  0  0  0  0  0  0  0  0  0  0
   71.6852   35.6173   58.8343 C   0  0  0  0  0  0  0  0  0  0  0  0
   71.9264   34.1565   58.8660 C   0  0  0  0  0  0  0  0  0  0  0  0
   73.1804   35.0954   53.1416 C   0  0  0  0  0  0  0  0  0  0  0  0
   73.5761   35.2386   54.5776 C   0  0  0  0  0  0  0  0  0  0  0  0
   74.8442   34.8346   54.9799 C   0  0  0  0  0  0  0  0  0  0  0  0
   75.2495   34.9474   56.2858 C   0  0  0  0  0  0  0  0  0  0  0  0
   74.3762   35.4723   57.2100 C   0  0  0  0  0  0  0  0  0  0  0  0
   73.0933   35.8913   56.8572 C   0  0  0  0  0  0  0  0  0  0  0  0
   72.7437   35.7538   55.5324 C   0  0  0  0  0  0  0  0  0  0  0  0
   69.6525   37.9917   60.9632 C   0  0  0  0  0  0  0  0  0  0  0  0
   68.3571   38.1937   60.8172 C   0  0  0  0  0  0  0  0  0  0  0  0
   67.4813   38.7243   61.9041 C   0  0  0  0  0  0  0  0  0  0  0  0
   68.1733   39.5518   62.8075 N   0  0  0  0  0  0  0  0  0  0  0  0
   69.5680   39.6893   62.6525 C   0  0  0  0  0  0  0  0  0  0  0  0
   70.2042   38.3408   62.2954 C   0  0  0  0  0  0  0  0  0  0  0  0
   67.4453   40.9805   63.3072 S   0  0  0  0  0  0  0  0  0  0  0  0
   66.5236   40.6697   64.4735 O   0  0  0  0  0  0  0  0  0  0  0  0
   68.4846   41.9575   63.8507 O   0  0  0  0  0  0  0  0  0  0  0  0
   66.5130   41.8534   62.1135 C   0  0  0  0  0  0  0  0  0  0  0  0
   67.2367   42.9372   61.4199 C   0  0  0  0  0  0  0  0  0  0  0  0
   66.8862   44.1495   61.5024 O   0  0  0  0  0  0  0  0  0  0  0  0
   68.3911   42.6551   60.6060 N   0  0  0  0  0  0  0  0  0  0  0  0
   69.0255   43.6734   59.9864 O   0  0  0  0  0  0  0  0  0  0  0  0
  8  9  1  0
  9 10  2  0
  9 14  1  0
 10 11  1  0
 11 12  2  0
 12 13  1  0
 13  1  1  0
 13 14  2  0
  1  2  2  0
  1  6  1  0
  2  3  1  0
  3  4  2  0
  4 15  1  0
  4  5  1  0
 15 16  2  0
 15 20  1  0
 16 17  1  0
 17 18  1  0
 18 21  1  0
 18 19  1  0
 21 22  2  0
 21 23  2  0
 21 24  1  0
 24 25  1  0
 25 26  2  0
 25 27  1  0
 27 28  1  0
 19 20  1  0
  5  6  2  0
  6  7  1  0
M  END
>  <minimizedAffinity>  (385) 
-8.64320

$$$$
data/reference_output_2/data/smiles/124180.pdb
     RDKit          3D

 29 31  0  0  0  0  0  0  0  0999 V2000
   72.1617   36.4385   57.8044 C   0  0  0  0  0  0  0  0  0  0  0  0
   71.5955   35.6213   58.7856 C   0  0  0  0  0  0  0  0  0  0  0  0
   70.7651   36.1854   59.7343 C   0  0  0  0  0  0  0  0  0  0  0  0
   70.4590   37.5193   59.7727 C   0  0  0  0  0  0  0  0  0  0  0  0
   71.0237   38.3412   58.7926 C   0  0  0  0  0  0  0  0  0  0  0  0
   71.8527   37.7643   57.8474 C   0  0  0  0  0  0  0  0  0  0  0  0
   70.7509   39.7684   58.7749 C   0  0  0  0  0  0  0  0  0  0  0  0
   71.6448   40.5132   59.2490 O   0  0  0  0  0  0  0  0  0  0  0  0
   69.5834   40.3596   58.2733 N   0  0  0  0  0  0  0  0  0  0  0  0
   68.4348   39.7040   57.6893 C   0  0  0  0  0  0  0  0  0  0  0  0
   67.7893   40.7134   56.7740 C   0  0  2  0  0  0  0  0  0  0  0  0
   67.6363   40.2219   55.4670 O   0  0  0  0  0  0  0  0  0  0  0  0
   68.7122   41.9062   56.8382 C   0  0  1  0  0  0  0  0  0  0  0  0
   68.0125   43.0646   56.6495 F   0  0  0  0  0  0  0  0  0  0  0  0
   69.2958   41.7792   58.2352 C   0  0  0  0  0  0  0  0  0  0  0  0
   73.0407   35.8485   56.7696 C   0  0  0  0  0  0  0  0  0  0  0  0
   72.4889   35.6530   55.5292 O   0  0  0  0  0  0  0  0  0  0  0  0
   73.0275   35.0228   51.9510 C   0  0  0  0  0  0  0  0  0  0  0  0
   72.4015   35.1763   53.1605 C   0  0  0  0  0  0  0  0  0  0  0  0
   73.1115   35.4939   54.2995 C   0  0  0  0  0  0  0  0  0  0  0  0
   74.4388   35.6402   54.1472 N   0  0  0  0  0  0  0  0  0  0  0  0
   75.1196   35.5067   53.0086 C   0  0  0  0  0  0  0  0  0  0  0  0
   74.3991   35.1890   51.8704 C   0  0  0  0  0  0  0  0  0  0  0  0
   76.6055   35.6894   52.9402 C   0  0  0  0  0  0  0  0  0  0  0  0
   77.1848   34.6293   53.6084 F   0  0  0  0  0  0  0  0  0  0  0  0
   76.9699   36.8562   53.5634 F   0  0  0  0  0  0  0  0  0  0  0  0
   76.9661   35.6988   51.6056 F   0  0  0  0  0  0  0  0  0  0  0  0
   71.5305   35.8459   50.2223 N   0  0  0  0  0  0  0  0  0  0  0  0
   72.2545   34.6762   50.6994 C   0  0  0  0  0  0  0  0  0  0  0  0
 28 29  1  0
 29 18  1  0
 18 19  2  0
 18 23  1  0
 19 20  1  0
 20 17  1  0
 20 21  2  0
 17 16  1  0
 16  1  1  0
  1  2  2  0
  1  6  1  0
  2  3  1  0
  3  4  2  0
  4  5  1  0
  5  7  1  0
  5  6  2  0
  7  8  2  0
  7  9  1  0
  9 10  1  0
  9 15  1  0
 10 11  1  0
 11 12  1  6
 11 13  1  0
 13 14  1  1
 13 15  1  0
 21 22  1  0
 22 24  1  0
 22 23  2  0
 24 25  1  0
 24 26  1  0
 24 27  1  0
M  CHG  1  28   1
M  END
>  <minimizedAffinity>  (386) 
-8.64149

$$$$
data/200k_reference_output/data/smiles/55333.pdb
     RDKit          3D

 30 33  0  0  0  0  0  0  0  0999 V2000
   70.6271   39.6303   59.6045 C   0  0  0  0  0  0  0  0  0  0  0  0
   69.1844   39.3498   59.3858 N   0  0  0  0  0  0  0  0  0  0  0  0
   68.3515   39.0525   60.4818 C   0  0  0  0  0  0  0  0  0  0  0  0
   68.8141   39.0864   61.6499 O   0  0  0  0  0  0  0  0  0  0  0  0
   66.9533   38.7014   60.3317 C   0  0  0  0  0  0  0  0  0  0  0  0
   66.5808   37.5115   59.7430 C   0  0  0  0  0  0  0  0  0  0  0  0
   65.2687   37.1168   59.6289 C   0  0  0  0  0  0  0  0  0  0  0  0
   64.2597   37.9340   60.1197 C   0  0  0  0  0  0  0  0  0  0  0  0
   64.6287   39.1239   60.7071 C   0  0  0  0  0  0  0  0  0  0  0  0
   65.9454   39.5405   60.8313 C   0  0  0  0  0  0  0  0  0  0  0  0
   66.3031   40.7932   61.3550 N   0  0  0  0  0  0  0  0  0  0  0  0
   66.3252   41.0473   62.7720 C   0  0  0  0  0  0  0  0  0  0  0  0
   67.6081   41.7352   63.1908 C   0  0  0  0  0  0  0  0  0  0  0  0
   68.0774   42.7078   62.2099 C   0  0  0  0  0  0  0  0  0  0  0  0
   69.0062   43.4928   62.5429 O   0  0  0  0  0  0  0  0  0  0  0  0
   67.5600   42.8323   60.9058 N   0  0  0  0  0  0  0  0  0  0  0  0
   66.6377   41.8577   60.4305 C   0  0  0  0  0  0  0  0  0  0  0  0
   66.1311   41.9013   59.2717 O   0  0  0  0  0  0  0  0  0  0  0  0
   68.7618   39.5054   58.0236 C   0  0  0  0  0  0  0  0  0  0  0  0
   68.7239   40.8321   57.4543 C   0  0  0  0  0  0  0  0  0  0  0  0
   69.6186   41.8560   57.7804 C   0  0  0  0  0  0  0  0  0  0  0  0
   69.5345   43.1154   57.2562 C   0  0  0  0  0  0  0  0  0  0  0  0
   68.5411   43.4029   56.3746 C   0  0  0  0  0  0  0  0  0  0  0  0
   67.6245   42.4417   56.0091 C   0  0  0  0  0  0  0  0  0  0  0  0
   67.7336   41.1718   56.5562 C   0  0  0  0  0  0  0  0  0  0  0  0
   68.4162   44.7133   55.7996 N   0  0  0  0  0  0  0  0  0  0  0  0
   68.0033   44.9598   54.5482 C   0  0  0  0  0  0  0  0  0  0  0  0
   68.0147   46.3293   54.3628 C   0  0  0  0  0  0  0  0  0  0  0  0
   68.4454   46.8703   55.5406 C   0  0  0  0  0  0  0  0  0  0  0  0
   68.6797   45.8634   56.3882 N   0  0  0  0  0  0  0  0  0  0  0  0
  1  2  1  0
  2 19  1  0
  2  3  1  0
 19 20  1  0
 20 21  2  0
 20 25  1  0
 21 22  1  0
 22 23  2  0
 23 26  1  0
 23 24  1  0
 26 27  1  0
 26 30  1  0
 27 28  2  0
 28 29  1  0
 29 30  2  0
 24 25  2  0
  3  4  2  0
  3  5  1  0
  5  6  2  0
  5 10  1  0
  6  7  1  0
  7  8  2  0
  8  9  1  0
  9 10  2  0
 10 11  1  0
 11 12  1  0
 11 17  1  0
 12 13  1  0
 13 14  1  0
 14 15  2  0
 14 16  1  0
 16 17  1  0
 17 18  2  0
M  END
>  <minimizedAffinity>  (387) 
-8.63902

$$$$
data/reference_output_2/data/smiles/188761.pdb
     RDKit          3D

 30 34  0  0  0  0  0  0  0  0999 V2000
   67.7758   41.5997   57.0537 C   0  0  0  0  0  0  0  0  0  0  0  0
   66.6631   41.6002   56.1955 C   0  0  0  0  0  0  0  0  0  0  0  0
   66.7139   42.7455   55.4966 N   0  0  0  0  0  0  0  0  0  0  0  0
   67.7690   43.4536   55.8527 N   0  0  0  0  0  0  0  0  0  0  0  0
   68.4566   42.7730   56.8217 C   0  0  0  0  0  0  0  0  0  0  0  0
   68.1530   44.7207   55.3318 C   0  0  0  0  0  0  0  0  0  0  0  0
   68.1609   44.9944   54.0172 N   0  0  0  0  0  0  0  0  0  0  0  0
   68.5169   46.1784   53.4791 C   0  0  0  0  0  0  0  0  0  0  0  0
   68.8987   47.1749   54.3457 C   0  0  0  0  0  0  0  0  0  0  0  0
   68.8966   46.9118   55.6956 C   0  0  0  0  0  0  0  0  0  0  0  0
   69.2321   47.7679   56.5679 O   0  0  0  0  0  0  0  0  0  0  0  0
   68.5270   45.6996   56.1749 N   0  0  0  0  0  0  0  0  0  0  0  0
   69.2549   48.3966   53.6089 C   0  0  0  0  0  0  0  0  0  0  0  0
   69.3128   47.9813   52.1602 C   0  0  0  0  0  0  0  0  0  0  0  0
   68.5943   46.6785   52.0809 C   0  0  0  0  0  0  0  0  0  0  0  0
   68.8906   39.6463   57.6211 O   0  0  0  0  0  0  0  0  0  0  0  0
   68.1342   40.5611   57.9888 C   0  0  0  0  0  0  0  0  0  0  0  0
   67.6402   40.5770   59.2993 N   0  0  0  0  0  0  0  0  0  0  0  0
   66.7678   41.6485   59.6934 C   0  0  0  0  0  0  0  0  0  0  0  0
   65.8967   41.3456   60.8619 C   0  0  0  0  0  0  0  0  0  0  0  0
   66.4929   40.4200   61.8647 C   0  0  0  0  0  0  0  0  0  0  0  0
   66.9399   39.1689   61.1916 C   0  0  0  0  0  0  0  0  0  0  0  0
   68.0335   39.5044   60.2054 C   0  0  0  0  0  0  0  0  0  0  0  0
   67.5833   41.0647   62.6861 C   0  0  0  0  0  0  0  0  0  0  0  0
   68.3926   40.0737   63.1775 F   0  0  0  0  0  0  0  0  0  0  0  0
   68.2579   42.0476   62.0142 F   0  0  0  0  0  0  0  0  0  0  0  0
   66.9762   41.6643   63.7906 F   0  0  0  0  0  0  0  0  0  0  0  0
   69.6767   43.2908   57.4400 C   0  0  0  0  0  0  0  0  0  0  0  0
   70.8596   42.3862   57.6742 C   0  0  0  0  0  0  0  0  0  0  0  0
   70.0935   43.0757   58.8192 C   0  0  0  0  0  0  0  0  0  0  0  0
 16 17  2  0
 17  1  1  0
 17 18  1  0
  1  2  1  0
  1  5  2  0
  2  3  2  0
  3  4  1  0
  4  6  1  0
  4  5  1  0
  6  7  2  0
  6 12  1  0
  7  8  1  0
  8  9  2  0
  8 15  1  0
  9 10  1  0
  9 13  1  0
 10 11  2  0
 10 12  1  0
 13 14  1  0
 14 15  1  0
  5 28  1  0
 28 29  1  0
 28 30  1  0
 29 30  1  0
 18 19  1  0
 18 23  1  0
 19 20  1  0
 20 21  1  0
 21 24  1  0
 21 22  1  0
 24 25  1  0
 24 26  1  0
 24 27  1  0
 22 23  1  0
M  END
>  <minimizedAffinity>  (388) 
-8.63850

$$$$
data/reference_output_2/data/smiles/140546.pdb
     RDKit          3D

 30 33  0  0  0  0  0  0  0  0999 V2000
   67.9897   43.1529   56.3740 N   0  0  0  0  0  0  0  0  0  0  0  0
   68.3939   42.5084   57.5766 C   0  0  0  0  0  0  0  0  0  0  0  0
   69.1351   43.1625   58.3440 O   0  0  0  0  0  0  0  0  0  0  0  0
   67.9740   41.1718   57.9011 N   0  0  0  0  0  0  0  0  0  0  0  0
   68.4073   40.5496   59.1389 C   0  0  0  0  0  0  0  0  0  0  0  0
   69.5842   39.6678   58.9219 C   0  0  0  0  0  0  0  0  0  0  0  0
   70.8647   39.9202   58.4923 C   0  0  0  0  0  0  0  0  0  0  0  0
   71.8260   38.9398   58.3559 C   0  0  0  0  0  0  0  0  0  0  0  0
   71.4068   37.6630   58.6887 C   0  0  0  0  0  0  0  0  0  0  0  0
   70.1362   37.3731   59.1210 C   0  0  0  0  0  0  0  0  0  0  0  0
   69.2177   38.3881   59.2379 C   0  0  0  0  0  0  0  0  0  0  0  0
   67.8259   38.3724   59.6644 C   0  0  0  0  0  0  0  0  0  0  0  0
   66.9883   37.3680   60.0802 C   0  0  0  0  0  0  0  0  0  0  0  0
   65.6863   37.6589   60.4299 C   0  0  0  0  0  0  0  0  0  0  0  0
   65.1810   38.9565   60.3757 C   0  0  0  0  0  0  0  0  0  0  0  0
   66.0339   39.9521   59.9572 C   0  0  0  0  0  0  0  0  0  0  0  0
   67.3367   39.6567   59.6072 C   0  0  0  0  0  0  0  0  0  0  0  0
   68.1488   45.1225   54.8837 C   0  0  0  0  0  0  0  0  0  0  0  0
   67.4765   44.4796   54.0276 O   0  0  0  0  0  0  0  0  0  0  0  0
   68.4223   44.4595   56.0941 N   0  0  0  0  0  0  0  0  0  0  0  0
   69.4218   49.0904   53.8640 C   0  0  0  0  0  0  0  0  0  0  0  0
   69.2140   48.1189   52.9070 C   0  0  0  0  0  0  0  0  0  0  0  0
   68.8032   46.8464   53.2476 C   0  0  0  0  0  0  0  0  0  0  0  0
   68.5821   46.4782   54.5586 C   0  0  0  0  0  0  0  0  0  0  0  0
   68.7904   47.4464   55.5100 C   0  0  0  0  0  0  0  0  0  0  0  0
   69.2026   48.7303   55.1764 C   0  0  0  0  0  0  0  0  0  0  0  0
   68.9535   51.9115   54.1952 N   0  0  0  0  0  0  0  0  0  0  0  0
   69.9432   50.7099   53.4335 S   0  0  0  0  0  0  0  0  0  0  0  0
   71.3569   50.9650   53.8355 O   0  0  0  0  0  0  0  0  0  0  0  0
   69.8756   50.9060   51.9281 O   0  0  0  0  0  0  0  0  0  0  0  0
 27 28  1  0
 28 29  2  0
 28 30  2  0
 28 21  1  0
 21 22  2  0
 21 26  1  0
 22 23  1  0
 23 24  2  0
 24 18  1  0
 24 25  1  0
 18 19  2  0
 18 20  1  0
 20  1  1  0
  1  2  1  0
  2  3  2  0
  2  4  1  0
  4  5  1  0
  5  6  1  0
  5 17  1  0
  6  7  2  0
  6 11  1  0
  7  8  1  0
  8  9  2  0
  9 10  1  0
 10 11  2  0
 11 12  1  0
 12 13  2  0
 12 17  1  0
 13 14  1  0
 14 15  2  0
 15 16  1  0
 16 17  2  0
 25 26  2  0
M  END
>  <minimizedAffinity>  (389) 
-8.63823

$$$$
data/reference_output_2/data/smiles/170322.pdb
     RDKit          3D

 29 32  0  0  0  0  0  0  0  0999 V2000
   71.4370   45.9729   58.2037 C   0  0  0  0  0  0  0  0  0  0  0  0
   72.7509   45.5635   58.2859 C   0  0  0  0  0  0  0  0  0  0  0  0
   73.1137   44.2341   58.3480 C   0  0  0  0  0  0  0  0  0  0  0  0
   72.1491   43.2465   58.3279 C   0  0  0  0  0  0  0  0  0  0  0  0
   70.8343   43.6548   58.2454 C   0  0  0  0  0  0  0  0  0  0  0  0
   70.4734   44.9855   58.1834 C   0  0  0  0  0  0  0  0  0  0  0  0
   69.8096   42.6055   58.2246 C   0  0  0  0  0  0  0  0  0  0  0  0
   68.5932   42.9547   58.1492 O   0  0  0  0  0  0  0  0  0  0  0  0
   70.1658   41.1954   58.2882 C   0  0  0  0  0  0  0  0  0  0  0  0
   69.1753   40.2387   58.2668 C   0  0  0  0  0  0  0  0  0  0  0  0
   69.4901   38.8891   58.3259 C   0  0  0  0  0  0  0  0  0  0  0  0
   70.8031   38.4997   58.4082 C   0  0  0  0  0  0  0  0  0  0  0  0
   71.8083   39.4611   58.4304 C   0  0  0  0  0  0  0  0  0  0  0  0
   71.4877   40.8082   58.3705 C   0  0  0  0  0  0  0  0  0  0  0  0
   72.5184   41.8286   58.3926 C   0  0  0  0  0  0  0  0  0  0  0  0
   73.7422   41.4891   58.4683 O   0  0  0  0  0  0  0  0  0  0  0  0
   71.0048   47.6781   58.1252 S   0  0  0  0  0  0  0  0  0  0  0  0
   72.0275   48.4344   57.3290 O   0  0  0  0  0  0  0  0  0  0  0  0
   71.0434   48.2798   59.5246 O   0  0  0  0  0  0  0  0  0  0  0  0
   69.4459   47.8855   57.4247 N   0  0  0  0  0  0  0  0  0  0  0  0
   68.5222   46.8789   53.4138 C   0  0  0  0  0  0  0  0  0  0  0  0
   69.0863   48.1025   53.7431 C   0  0  0  0  0  0  0  0  0  0  0  0
   69.3858   48.4268   55.0506 C   0  0  0  0  0  0  0  0  0  0  0  0
   69.1372   47.5468   56.0945 C   0  0  0  0  0  0  0  0  0  0  0  0
   68.5738   46.3289   55.7458 C   0  0  0  0  0  0  0  0  0  0  0  0
   68.2739   46.0032   54.4423 C   0  0  0  0  0  0  0  0  0  0  0  0
   68.9230   46.9883   51.1279 O   0  0  0  0  0  0  0  0  0  0  0  0
   68.2061   46.5365   52.0339 C   0  0  0  0  0  0  0  0  0  0  0  0
   67.1414   45.7303   51.6923 O   0  0  0  0  0  0  0  0  0  0  0  0
 27 28  2  0
 28 29  1  0
 28 21  1  0
 21 22  2  0
 21 26  1  0
 22 23  1  0
 23 24  2  0
 24 20  1  0
 24 25  1  0
 20 17  1  0
 17 18  2  0
 17 19  2  0
 17  1  1  0
  1  2  2  0
  1  6  1  0
  2  3  1  0
  3  4  2  0
  4  5  1  0
  4 15  1  0
  5  6  2  0
  5  7  1  0
  7  8  2  0
  7  9  1  0
  9 10  2  0
  9 14  1  0
 10 11  1  0
 11 12  2  0
 12 13  1  0
 13 14  2  0
 14 15  1  0
 15 16  2  0
 25 26  2  0
M  END
>  <minimizedAffinity>  (390) 
-8.63782

$$$$
data/reference_output_2/data/smiles/170977.pdb
     RDKit          3D

 25 26  0  0  0  0  0  0  0  0999 V2000
   73.6052   52.8129   55.2034 C   0  0  0  0  0  0  0  0  0  0  0  0
   72.9199   51.5146   55.1422 C   0  0  0  0  0  0  0  0  0  0  0  0
   72.4319   51.1015   54.0352 N   0  0  0  0  0  0  0  0  0  0  0  0
   71.7614   49.8399   53.9557 N   0  0  0  0  0  0  0  0  0  0  0  0
   70.5245   49.7307   53.2930 C   0  0  0  0  0  0  0  0  0  0  0  0
   70.0716   50.8252   52.7868 O   0  0  0  0  0  0  0  0  0  0  0  0
   69.7653   48.5133   53.1525 C   0  0  0  0  0  0  0  0  0  0  0  0
   69.0180   48.0979   54.2614 C   0  0  0  0  0  0  0  0  0  0  0  0
   68.2518   46.9579   54.2614 C   0  0  0  0  0  0  0  0  0  0  0  0
   68.2003   46.1667   53.1261 C   0  0  0  0  0  0  0  0  0  0  0  0
   67.4403   45.0021   53.0737 O   0  0  0  0  0  0  0  0  0  0  0  0
   68.9237   46.5436   52.0161 C   0  0  0  0  0  0  0  0  0  0  0  0
   69.6957   47.7147   52.0495 C   0  0  0  0  0  0  0  0  0  0  0  0
   70.3958   48.0392   50.9114 O   0  0  0  0  0  0  0  0  0  0  0  0
   72.7940   50.6889   56.3524 C   0  0  0  0  0  0  0  0  0  0  0  0
   74.1082   49.9469   56.5042 C   0  0  0  0  0  0  0  0  0  0  0  0
   74.1461   48.7378   56.7316 O   0  0  0  0  0  0  0  0  0  0  0  0
   75.3419   50.6247   56.3875 N   0  0  0  0  0  0  0  0  0  0  0  0
   76.6328   50.0987   56.4982 C   0  0  0  0  0  0  0  0  0  0  0  0
   77.2221   49.5726   55.3365 C   0  0  0  0  0  0  0  0  0  0  0  0
   78.4890   49.0275   55.3247 C   0  0  0  0  0  0  0  0  0  0  0  0
   79.2428   48.9772   56.4753 C   0  0  0  0  0  0  0  0  0  0  0  0
   78.6993   49.4830   57.6321 C   0  0  0  0  0  0  0  0  0  0  0  0
   79.7168   49.4291   59.2442 Br  0  0  0  0  0  0  0  0  0  0  0  0
   77.4182   50.0254   57.6065 C   0  0  0  0  0  0  0  0  0  0  0  0
  1  2  1  0
  2 15  1  0
  2  3  2  0
 15 16  1  0
 16 17  2  0
 16 18  1  0
 18 19  1  0
 19 20  2  0
 19 25  1  0
 20 21  1  0
 21 22  2  0
 22 23  1  0
 23 24  1  0
 23 25  2  0
  3  4  1  0
  4  5  1  0
  5  6  2  0
  5  7  1  0
  7  8  2  0
  7 13  1  0
  8  9  1  0
  9 10  2  0
 10 11  1  0
 10 12  1  0
 12 13  2  0
 13 14  1  0
M  END
>  <minimizedAffinity>  (391) 
-8.63776

$$$$
data/reference_output_2/data/smiles/117850.pdb
     RDKit          3D

 30 32  0  0  0  0  0  0  0  0999 V2000
   68.3795   39.0656   59.7378 C   0  0  0  0  0  0  0  0  0  0  0  0
   68.0260   38.8579   58.4018 C   0  0  0  0  0  0  0  0  0  0  0  0
   67.9737   39.8931   57.4958 C   0  0  0  0  0  0  0  0  0  0  0  0
   68.2642   41.1945   57.8477 C   0  0  0  0  0  0  0  0  0  0  0  0
   68.6115   41.4012   59.1624 C   0  0  0  0  0  0  0  0  0  0  0  0
   68.6724   40.3827   60.0891 C   0  0  0  0  0  0  0  0  0  0  0  0
   68.4417   37.7618   60.8630 S   0  0  0  0  0  0  0  0  0  0  0  0
   68.0002   38.3191   62.2025 O   0  0  0  0  0  0  0  0  0  0  0  0
   67.4670   36.6620   60.5164 O   0  0  0  0  0  0  0  0  0  0  0  0
   69.9948   37.0798   60.9941 N   0  0  0  0  0  0  0  0  0  0  0  0
   73.2017   35.5866   56.5005 C   0  0  0  0  0  0  0  0  0  0  0  0
   72.3611   35.9347   57.6750 C   0  0  0  0  0  0  0  0  0  0  0  0
   71.8868   34.9942   58.5364 C   0  0  0  0  0  0  0  0  0  0  0  0
   71.1069   35.3450   59.6224 C   0  0  0  0  0  0  0  0  0  0  0  0
   70.7744   36.6497   59.8821 C   0  0  0  0  0  0  0  0  0  0  0  0
   71.2660   37.6190   58.9926 C   0  0  0  0  0  0  0  0  0  0  0  0
   72.0314   37.2482   57.9314 C   0  0  0  0  0  0  0  0  0  0  0  0
   68.1932   42.2544   56.8501 C   0  0  0  0  0  0  0  0  0  0  0  0
   67.5487   42.0635   55.7946 O   0  0  0  0  0  0  0  0  0  0  0  0
   68.8190   43.5133   56.9963 N   0  0  0  0  0  0  0  0  0  0  0  0
   68.7568   44.5488   56.0345 N   0  0  0  0  0  0  0  0  0  0  0  0
   69.0741   45.8816   56.3286 C   0  0  0  0  0  0  0  0  0  0  0  0
   69.4252   46.0601   57.5608 O   0  0  0  0  0  0  0  0  0  0  0  0
   69.0502   47.0127   55.4450 C   0  0  0  0  0  0  0  0  0  0  0  0
   69.3971   48.2580   55.9701 C   0  0  0  0  0  0  0  0  0  0  0  0
   69.4101   49.4046   55.2223 C   0  0  0  0  0  0  0  0  0  0  0  0
   69.0693   49.3614   53.8879 C   0  0  0  0  0  0  0  0  0  0  0  0
   68.7247   48.1560   53.3479 C   0  0  0  0  0  0  0  0  0  0  0  0
   68.7184   46.9921   54.1298 C   0  0  0  0  0  0  0  0  0  0  0  0
   68.3590   45.7978   53.5262 O   0  0  0  0  0  0  0  0  0  0  0  0
 11 12  1  0
 12 13  2  0
 12 17  1  0
 13 14  1  0
 14 15  2  0
 15 10  1  0
 15 16  1  0
 10  7  1  0
  7  8  2  0
  7  9  2  0
  7  1  1  0
  1  2  2  0
  1  6  1  0
  2  3  1  0
  3  4  2  0
  4 18  1  0
  4  5  1  0
 18 19  2  0
 18 20  1  0
 20 21  1  0
 21 22  1  0
 22 23  2  0
 22 24  1  0
 24 25  2  0
 24 29  1  0
 25 26  1  0
 26 27  2  0
 27 28  1  0
 28 29  2  0
 29 30  1  0
  5  6  2  0
 16 17  2  0
M  END
>  <minimizedAffinity>  (392) 
-8.63611

$$$$
data/reference_output_2/data/smiles/111987.pdb
     RDKit          3D

 30 33  0  0  0  0  0  0  0  0999 V2000
   73.2347   42.2700   58.3625 C   0  0  0  0  0  0  0  0  0  0  0  0
   71.8096   42.4110   58.0648 N   0  0  0  0  0  0  0  0  0  0  0  0
   71.2821   43.6034   57.7427 C   0  0  0  0  0  0  0  0  0  0  0  0
   69.9156   43.7779   57.4503 C   0  0  0  0  0  0  0  0  0  0  0  0
   69.1770   42.6313   57.5237 C   0  0  0  0  0  0  0  0  0  0  0  0
   67.9678   42.6712   57.2859 O   0  0  0  0  0  0  0  0  0  0  0  0
   69.7425   41.3954   57.8606 C   0  0  0  0  0  0  0  0  0  0  0  0
   68.9768   40.2538   57.9288 C   0  0  0  0  0  0  0  0  0  0  0  0
   67.6573   40.3627   57.6570 F   0  0  0  0  0  0  0  0  0  0  0  0
   69.5383   39.0180   58.2646 C   0  0  0  0  0  0  0  0  0  0  0  0
   70.8755   38.8809   58.5440 C   0  0  0  0  0  0  0  0  0  0  0  0
   71.6334   40.0617   58.4689 C   0  0  0  0  0  0  0  0  0  0  0  0
   71.0824   41.2822   58.1372 C   0  0  0  0  0  0  0  0  0  0  0  0
   71.5155   37.6665   58.8967 N   0  0  0  0  0  0  0  0  0  0  0  0
   71.5141   37.1574   60.2379 C   0  0  0  0  0  0  0  0  0  0  0  0
   70.7957   35.7985   60.1730 C   0  0  0  0  0  0  0  0  0  0  0  0
   71.1048   35.0901   59.0402 O   0  0  0  0  0  0  0  0  0  0  0  0
   72.3302   35.4494   58.4845 C   0  0  0  0  0  0  0  0  0  0  0  0
   72.2175   36.8466   57.9145 C   0  0  0  0  0  0  0  0  0  0  0  0
   69.4459   45.1061   57.1133 C   0  0  0  0  0  0  0  0  0  0  0  0
   69.7628   46.1018   57.8725 O   0  0  0  0  0  0  0  0  0  0  0  0
   68.6556   45.4461   56.0152 N   0  0  0  0  0  0  0  0  0  0  0  0
   68.2080   46.8240   55.7160 C   0  0  0  0  0  0  0  0  0  0  0  0
   68.7899   47.2412   54.4161 C   0  0  0  0  0  0  0  0  0  0  0  0
   68.6290   46.5743   53.2292 C   0  0  0  0  0  0  0  0  0  0  0  0
   69.2018   47.0480   52.0537 C   0  0  0  0  0  0  0  0  0  0  0  0
   69.9528   48.1979   52.0217 C   0  0  0  0  0  0  0  0  0  0  0  0
   70.5191   48.6748   50.8878 F   0  0  0  0  0  0  0  0  0  0  0  0
   70.1262   48.8780   53.1952 C   0  0  0  0  0  0  0  0  0  0  0  0
   69.5556   48.4035   54.3540 C   0  0  0  0  0  0  0  0  0  0  0  0
  1  2  1  0
  2  3  1  0
  2 13  1  0
  3  4  2  0
  4 20  1  0
  4  5  1  0
 20 21  2  0
 20 22  1  0
 22 23  1  0
 23 24  1  0
 24 25  2  0
 24 30  1  0
 25 26  1  0
 26 27  2  0
 27 28  1  0
 27 29  1  0
 29 30  2  0
  5  6  2  0
  5  7  1  0
  7  8  1  0
  7 13  2  0
  8  9  1  0
  8 10  2  0
 10 11  1  0
 11 14  1  0
 11 12  2  0
 14 15  1  0
 14 19  1  0
 15 16  1  0
 16 17  1  0
 17 18  1  0
 18 19  1  0
 12 13  1  0
M  END
>  <minimizedAffinity>  (393) 
-8.63465

$$$$
data/reference_output_2/data/smiles/161624.pdb
     RDKit          3D

 27 29  0  0  0  0  0  0  0  0999 V2000
   69.1924   41.5164   57.6587 C   0  0  0  0  0  0  0  0  0  0  0  0
   69.2723   42.7813   57.1457 C   0  0  0  0  0  0  0  0  0  0  0  0
   68.3725   43.3393   56.2629 C   0  0  0  0  0  0  0  0  0  0  0  0
   67.3085   42.5439   55.8738 C   0  0  0  0  0  0  0  0  0  0  0  0
   67.1696   41.2538   56.3563 C   0  0  0  0  0  0  0  0  0  0  0  0
   68.1022   40.7474   57.2376 C   0  0  0  0  0  0  0  0  0  0  0  0
   67.9373   39.1160   57.8549 Cl  0  0  0  0  0  0  0  0  0  0  0  0
   68.4851   44.6626   55.7423 N   0  0  0  0  0  0  0  0  0  0  0  0
   67.9555   44.9895   54.5668 N   0  0  0  0  0  0  0  0  0  0  0  0
   68.0480   46.2304   54.0572 C   0  0  0  0  0  0  0  0  0  0  0  0
   68.7063   47.2281   54.7424 C   0  0  0  0  0  0  0  0  0  0  0  0
   68.8029   48.4027   54.2770 O   0  0  0  0  0  0  0  0  0  0  0  0
   69.2412   46.8976   55.9300 N   0  0  0  0  0  0  0  0  0  0  0  0
   69.1248   45.6421   56.4036 C   0  0  0  0  0  0  0  0  0  0  0  0
   69.6317   45.3487   57.5191 O   0  0  0  0  0  0  0  0  0  0  0  0
   70.3751   41.3988   59.7411 O   0  0  0  0  0  0  0  0  0  0  0  0
   70.1795   40.9667   58.5925 C   0  0  0  0  0  0  0  0  0  0  0  0
   70.9727   39.8546   58.1479 N   0  0  0  0  0  0  0  0  0  0  0  0
   71.9640   39.2222   58.9460 C   0  0  0  0  0  0  0  0  0  0  0  0
   71.4023   37.9588   59.5634 C   0  0  0  0  0  0  0  0  0  0  0  0
   71.8455   36.7438   58.8272 C   0  0  0  0  0  0  0  0  0  0  0  0
   72.5608   36.9357   57.6536 C   0  0  0  0  0  0  0  0  0  0  0  0
   72.9677   35.8082   56.9719 C   0  0  0  0  0  0  0  0  0  0  0  0
   72.6749   34.5562   57.4378 C   0  0  0  0  0  0  0  0  0  0  0  0
   71.9644   34.3586   58.6010 C   0  0  0  0  0  0  0  0  0  0  0  0
   71.5513   35.4806   59.2943 C   0  0  0  0  0  0  0  0  0  0  0  0
   70.6369   35.2530   60.7931 Cl  0  0  0  0  0  0  0  0  0  0  0  0
 16 17  2  0
 17 18  1  0
 17  1  1  0
 18 19  1  0
 19 20  1  0
 20 21  1  0
 21 22  2  0
 21 26  1  0
 22 23  1  0
 23 24  2  0
 24 25  1  0
 25 26  2  0
 26 27  1  0
  1  2  2  0
  1  6  1  0
  2  3  1  0
  3  8  1  0
  3  4  2  0
  8  9  1  0
  8 14  1  0
  9 10  2  0
 10 11  1  0
 11 12  2  0
 11 13  1  0
 13 14  1  0
 14 15  2  0
  4  5  1  0
  5  6  2  0
  6  7  1  0
M  END
>  <minimizedAffinity>  (394) 
-8.63290

$$$$
data/200k_reference_output/data/smiles/22308.pdb
     RDKit          3D

 30 33  0  0  0  0  0  0  0  0999 V2000
   71.2640   44.4682   58.8435 C   0  0  1  0  0  0  0  0  0  0  0  0
   72.2957   45.5650   58.6917 C   0  0  0  0  0  0  0  0  0  0  0  0
   71.5881   46.7499   58.0755 C   0  0  0  0  0  0  0  0  0  0  0  0
   70.2749   46.2743   57.6729 N   0  0  0  0  0  0  0  0  0  0  0  0
   70.2745   44.8558   57.7874 C   0  0  0  0  0  0  0  0  0  0  0  0
   69.5430   44.1016   57.0890 O   0  0  0  0  0  0  0  0  0  0  0  0
   71.7827   43.1661   58.6594 N   0  0  0  0  0  0  0  0  0  0  0  0
   71.2276   41.9917   59.7620 S   0  0  0  0  0  0  0  0  0  0  0  0
   69.7336   42.0983   59.8681 O   0  0  0  0  0  0  0  0  0  0  0  0
   71.7965   42.2672   61.1239 O   0  0  0  0  0  0  0  0  0  0  0  0
   72.3522   37.7165   58.5886 C   0  0  0  0  0  0  0  0  0  0  0  0
   71.1810   38.3084   58.1594 C   0  0  0  0  0  0  0  0  0  0  0  0
   70.8161   39.5917   58.4956 C   0  0  0  0  0  0  0  0  0  0  0  0
   71.6249   40.3623   59.2959 C   0  0  0  0  0  0  0  0  0  0  0  0
   72.8005   39.7926   59.7374 C   0  0  0  0  0  0  0  0  0  0  0  0
   73.1518   38.5031   59.3898 C   0  0  0  0  0  0  0  0  0  0  0  0
   72.7164   36.1524   56.7274 C   0  0  0  0  0  0  0  0  0  0  0  0
   72.7403   36.3400   58.2256 C   0  0  0  0  0  0  0  0  0  0  0  0
   74.1335   36.0312   58.7075 C   0  0  0  0  0  0  0  0  0  0  0  0
   71.8118   35.3062   58.8210 C   0  0  0  0  0  0  0  0  0  0  0  0
   69.2010   47.1380   57.2427 C   0  0  0  0  0  0  0  0  0  0  0  0
   68.9890   47.0642   55.7742 C   0  0  0  0  0  0  0  0  0  0  0  0
   68.1430   46.1813   55.1220 C   0  0  0  0  0  0  0  0  0  0  0  0
   68.2128   46.4128   53.7659 C   0  0  0  0  0  0  0  0  0  0  0  0
   67.6270   45.8783   52.6305 C   0  0  0  0  0  0  0  0  0  0  0  0
   67.9114   46.3408   51.3717 C   0  0  0  0  0  0  0  0  0  0  0  0
   68.7911   47.3487   51.2467 N   0  0  0  0  0  0  0  0  0  0  0  0
   69.3812   47.8964   52.3213 C   0  0  0  0  0  0  0  0  0  0  0  0
   69.1021   47.4367   53.5912 C   0  0  0  0  0  0  0  0  0  0  0  0
   69.5542   47.8116   54.8120 N   0  0  0  0  0  0  0  0  0  0  0  0
 17 18  1  0
 18 19  1  0
 18 20  1  0
 18 11  1  0
 11 12  2  0
 11 16  1  0
 12 13  1  0
 13 14  2  0
 14  8  1  0
 14 15  1  0
  8  9  2  0
  8 10  2  0
  8  7  1  0
  1  7  1  6
  1  2  1  0
  1  5  1  0
  2  3  1  0
  3  4  1  0
  4 21  1  0
  4  5  1  0
 21 22  1  0
 22 23  2  0
 22 30  1  0
 23 24  1  0
 24 25  2  0
 24 29  1  0
 25 26  1  0
 26 27  2  0
 27 28  1  0
 28 29  2  0
 29 30  1  0
  5  6  2  0
 15 16  2  0
M  END
>  <minimizedAffinity>  (395) 
-8.63016

$$$$
data/200k_reference_output/data/smiles/10245.pdb
     RDKit          3D

 25 27  0  0  0  0  0  0  0  0999 V2000
   70.2045   43.9445   57.4711 C   0  0  0  0  0  0  0  0  0  0  0  0
   69.4294   44.6870   56.6506 C   0  0  0  0  0  0  0  0  0  0  0  0
   69.5684   46.0190   56.9497 N   0  0  0  0  0  0  0  0  0  0  0  0
   70.4351   46.1084   57.9654 C   0  0  0  0  0  0  0  0  0  0  0  0
   70.9425   47.1855   58.6700 C   0  0  0  0  0  0  0  0  0  0  0  0
   71.8553   47.0496   59.7166 C   0  0  0  0  0  0  0  0  0  0  0  0
   72.2747   45.7855   60.0700 C   0  0  0  0  0  0  0  0  0  0  0  0
   73.5199   45.5782   61.4968 Br  0  0  0  0  0  0  0  0  0  0  0  0
   71.7665   44.7142   59.3662 C   0  0  0  0  0  0  0  0  0  0  0  0
   70.8640   44.8492   58.3309 C   0  0  0  0  0  0  0  0  0  0  0  0
   68.7603   47.3051   56.1310 S   0  0  0  0  0  0  0  0  0  0  0  0
   69.4755   48.6073   56.4044 O   0  0  0  0  0  0  0  0  0  0  0  0
   67.3607   47.4430   56.6657 O   0  0  0  0  0  0  0  0  0  0  0  0
   68.6671   47.0628   54.4090 C   0  0  0  0  0  0  0  0  0  0  0  0
   67.8532   46.0351   53.9301 C   0  0  0  0  0  0  0  0  0  0  0  0
   67.7153   45.7812   52.5819 C   0  0  0  0  0  0  0  0  0  0  0  0
   68.3934   46.5555   51.6645 C   0  0  0  0  0  0  0  0  0  0  0  0
   69.1961   47.5707   52.1576 C   0  0  0  0  0  0  0  0  0  0  0  0
   69.3338   47.8238   53.4926 C   0  0  0  0  0  0  0  0  0  0  0  0
   69.5020   41.6891   57.5746 N   0  0  0  0  0  0  0  0  0  0  0  0
   70.4411   42.5217   57.5989 C   0  0  0  0  0  0  0  0  0  0  0  0
   68.1853   41.9920   57.4319 N   0  0  0  0  0  0  0  0  0  0  0  0
   66.7579   42.5912   55.6875 N   0  0  0  0  0  0  0  0  0  0  0  0
   67.4943   41.6767   56.2181 C   0  0  0  0  0  0  0  0  0  0  0  0
   67.6720   40.3810   55.6872 N   0  0  0  0  0  0  0  0  0  0  0  0
 23 24  2  0
 24 25  1  0
 24 22  1  0
 22 20  1  0
 20 21  2  0
 21  1  1  0
  1  2  2  0
  1 10  1  0
  2  3  1  0
  3 11  1  0
  3  4  1  0
 11 12  2  0
 11 13  2  0
 11 14  1  0
 14 15  2  0
 14 19  1  0
 15 16  1  0
 16 17  2  0
 17 18  1  0
 18 19  2  0
  4  5  1  0
  4 10  2  0
  5  6  2  0
  6  7  1  0
  7  8  1  0
  7  9  2  0
  9 10  1  0
M  CHG  1  23   1
M  END
>  <minimizedAffinity>  (396) 
-8.62968

$$$$
data/reference_output_2/data/smiles/108269.pdb
     RDKit          3D

 29 31  0  0  0  0  0  0  0  0999 V2000
   68.7099   46.5318   54.2818 C   0  0  0  0  0  0  0  0  0  0  0  0
   68.3748   46.1987   52.9722 C   0  0  0  0  0  0  0  0  0  0  0  0
   68.6956   47.0691   51.9628 C   0  0  0  0  0  0  0  0  0  0  0  0
   69.3512   48.2785   52.2447 C   0  0  0  0  0  0  0  0  0  0  0  0
   69.8080   49.2984   50.9003 Cl  0  0  0  0  0  0  0  0  0  0  0  0
   69.6931   48.6397   53.5142 C   0  0  0  0  0  0  0  0  0  0  0  0
   69.3430   47.7102   54.5136 C   0  0  0  0  0  0  0  0  0  0  0  0
   68.4613   45.9222   56.5668 O   0  0  0  0  0  0  0  0  0  0  0  0
   68.3587   45.5843   55.3431 C   0  0  0  0  0  0  0  0  0  0  0  0
   67.8987   44.2768   55.0884 N   0  0  0  0  0  0  0  0  0  0  0  0
   67.5826   43.4258   56.1374 N   0  0  0  0  0  0  0  0  0  0  0  0
   68.5485   42.6713   56.8369 C   0  0  0  0  0  0  0  0  0  0  0  0
   69.7501   42.8129   56.4512 O   0  0  0  0  0  0  0  0  0  0  0  0
   68.2397   41.7735   57.9390 C   0  0  0  0  0  0  0  0  0  0  0  0
   68.2346   42.1727   59.2557 C   0  0  0  0  0  0  0  0  0  0  0  0
   67.9416   41.3230   60.3042 C   0  0  0  0  0  0  0  0  0  0  0  0
   67.6404   40.0070   60.0010 C   0  0  0  0  0  0  0  0  0  0  0  0
   67.6315   39.5549   58.6950 C   0  0  0  0  0  0  0  0  0  0  0  0
   67.9335   40.4540   57.6793 C   0  0  0  0  0  0  0  0  0  0  0  0
   67.9213   39.9882   56.3740 O   0  0  0  0  0  0  0  0  0  0  0  0
   70.4290   50.1522   53.9590 S   0  0  0  0  0  0  0  0  0  0  0  0
   70.1742   51.2106   52.9059 O   0  0  0  0  0  0  0  0  0  0  0  0
   71.9421   49.9284   53.9324 O   0  0  0  0  0  0  0  0  0  0  0  0
   69.9267   50.6455   55.4895 N   0  0  0  0  0  0  0  0  0  0  0  0
   68.6089   51.0177   55.7236 C   0  0  0  0  0  0  0  0  0  0  0  0
   68.3840   51.6218   57.1114 C   0  0  0  0  0  0  0  0  0  0  0  0
   68.7722   50.5750   58.1093 C   0  0  0  0  0  0  0  0  0  0  0  0
   70.2607   50.3477   57.9384 C   0  0  0  0  0  0  0  0  0  0  0  0
   70.6585   50.0174   56.5595 C   0  0  0  0  0  0  0  0  0  0  0  0
  8  9  2  0
  9 10  1  0
  9  1  1  0
 10 11  1  0
 11 12  1  0
 12 13  2  0
 12 14  1  0
 14 15  2  0
 14 19  1  0
 15 16  1  0
 16 17  2  0
 17 18  1  0
 18 19  2  0
 19 20  1  0
  1  2  2  0
  1  7  1  0
  2  3  1  0
  3  4  2  0
  4  5  1  0
  4  6  1  0
  6 21  1  0
  6  7  2  0
 21 22  2  0
 21 23  2  0
 21 24  1  0
 24 25  1  0
 24 29  1  0
 25 26  1  0
 26 27  1  0
 27 28  1  0
 28 29  1  0
M  END
>  <minimizedAffinity>  (397) 
-8.62926

$$$$
data/reference_output_2/data/smiles/130730.pdb
     RDKit          3D

 32 35  0  0  0  0  0  0  0  0999 V2000
   71.7398   34.2750   59.5890 C   0  0  0  0  0  0  0  0  0  0  0  0
   71.9057   35.7481   59.3662 C   0  0  0  0  0  0  0  0  0  0  0  0
   70.8396   36.5790   59.0988 C   0  0  0  0  0  0  0  0  0  0  0  0
   70.9661   37.9372   58.8898 C   0  0  0  0  0  0  0  0  0  0  0  0
   72.2343   38.5028   58.9501 C   0  0  0  0  0  0  0  0  0  0  0  0
   73.3135   37.6832   59.2170 C   0  0  0  0  0  0  0  0  0  0  0  0
   73.1587   36.3149   59.4243 C   0  0  0  0  0  0  0  0  0  0  0  0
   74.3375   35.4636   59.7090 C   0  0  0  0  0  0  0  0  0  0  0  0
   72.3545   39.8270   58.7462 N   0  0  0  0  0  0  0  0  0  0  0  0
   73.5941   40.4126   58.7998 O   0  0  0  0  0  0  0  0  0  0  0  0
   71.2923   40.6243   58.4852 C   0  0  0  0  0  0  0  0  0  0  0  0
   71.3989   41.9702   58.2752 C   0  0  0  0  0  0  0  0  0  0  0  0
   70.3319   42.8020   58.0083 C   0  0  0  0  0  0  0  0  0  0  0  0
   69.0770   42.2348   57.9490 C   0  0  0  0  0  0  0  0  0  0  0  0
   68.9215   40.8659   58.1560 C   0  0  0  0  0  0  0  0  0  0  0  0
   70.0225   40.0597   58.4238 C   0  0  0  0  0  0  0  0  0  0  0  0
   69.9122   38.7345   58.6291 N   0  0  0  0  0  0  0  0  0  0  0  0
   68.6743   38.1522   58.5749 O   0  0  0  0  0  0  0  0  0  0  0  0
   70.5286   44.2504   57.7928 C   0  0  0  0  0  0  0  0  0  0  0  0
   70.1127   45.1321   58.6050 N   0  0  0  0  0  0  0  0  0  0  0  0
   70.2711   46.5107   58.4517 N   0  0  0  0  0  0  0  0  0  0  0  0
   69.4720   47.1843   57.5070 C   0  0  0  0  0  0  0  0  0  0  0  0
   68.6385   46.4926   56.8358 O   0  0  0  0  0  0  0  0  0  0  0  0
   69.5233   48.5628   57.2485 N   0  0  0  0  0  0  0  0  0  0  0  0
   68.6844   49.2122   56.2656 C   0  0  0  0  0  0  0  0  0  0  0  0
   69.4507   49.7085   55.0655 C   0  0  0  0  0  0  0  0  0  0  0  0
   69.3574   48.7245   53.9570 C   0  0  0  0  0  0  0  0  0  0  0  0
   70.1748   48.8665   52.8629 C   0  0  0  0  0  0  0  0  0  0  0  0
   70.1265   47.9725   51.7978 C   0  0  0  0  0  0  0  0  0  0  0  0
   69.2308   46.9335   51.8663 C   0  0  0  0  0  0  0  0  0  0  0  0
   68.3912   46.7540   52.9443 C   0  0  0  0  0  0  0  0  0  0  0  0
   68.4779   47.6638   53.9716 C   0  0  0  0  0  0  0  0  0  0  0  0
  1  2  1  0
  2  3  2  0
  2  7  1  0
  3  4  1  0
  4  5  2  0
  4 17  1  0
  5  6  1  0
  5  9  1  0
  6  7  2  0
  7  8  1  0
  9 10  1  0
  9 11  2  0
 11 12  1  0
 11 16  1  0
 12 13  2  0
 13 19  1  0
 13 14  1  0
 19 20  2  0
 20 21  1  0
 21 22  1  0
 22 23  2  0
 22 24  1  0
 24 25  1  0
 25 26  1  0
 26 27  1  0
 27 28  2  0
 27 32  1  0
 28 29  1  0
 29 30  2  0
 30 31  1  0
 31 32  2  0
 14 15  2  0
 15 16  1  0
 16 17  2  0
 17 18  1  0
M  CHG  4   9   1  10  -1  17   1  18  -1
M  END
>  <minimizedAffinity>  (398) 
-8.62808

$$$$
data/reference_output_2/data/smiles/185879.pdb
     RDKit          3D

 28 30  0  0  0  0  0  0  0  0999 V2000
   71.5532   47.6421   59.1097 C   0  0  0  0  0  0  0  0  0  0  0  0
   71.2861   46.3364   58.7738 C   0  0  0  0  0  0  0  0  0  0  0  0
   70.3641   46.0003   57.7786 C   0  0  0  0  0  0  0  0  0  0  0  0
   69.6804   46.9747   57.0869 C   0  0  0  0  0  0  0  0  0  0  0  0
   69.9421   48.2864   57.4164 C   0  0  0  0  0  0  0  0  0  0  0  0
   70.8519   48.6126   58.3977 C   0  0  0  0  0  0  0  0  0  0  0  0
   72.4230   47.5437   61.4639 N   0  0  0  0  0  0  0  0  0  0  0  0
   72.5050   48.0320   60.1390 C   0  0  0  0  0  0  0  0  0  0  0  0
   73.4411   48.8432   59.8201 O   0  0  0  0  0  0  0  0  0  0  0  0
   74.4587   47.1226   62.7657 C   0  0  0  0  0  0  0  0  0  0  0  0
   74.5688   46.0183   62.1410 O   0  0  0  0  0  0  0  0  0  0  0  0
   73.3642   47.9408   62.4453 N   0  0  0  0  0  0  0  0  0  0  0  0
   78.4050   48.3913   66.7878 C   0  0  0  0  0  0  0  0  0  0  0  0
   77.4144   48.0645   65.7306 C   0  0  0  0  0  0  0  0  0  0  0  0
   77.7668   47.8959   64.4077 C   0  0  0  0  0  0  0  0  0  0  0  0
   76.8123   47.5887   63.4308 C   0  0  0  0  0  0  0  0  0  0  0  0
   75.4810   47.4431   63.7606 C   0  0  0  0  0  0  0  0  0  0  0  0
   75.1507   47.6162   65.0878 C   0  0  0  0  0  0  0  0  0  0  0  0
   76.0829   47.9193   66.0575 C   0  0  0  0  0  0  0  0  0  0  0  0
   68.5191   46.5908   55.8335 S   0  0  0  0  0  0  0  0  0  0  0  0
   67.2183   47.3440   56.0522 O   0  0  0  0  0  0  0  0  0  0  0  0
   68.2083   45.1248   55.9257 O   0  0  0  0  0  0  0  0  0  0  0  0
   69.0862   46.9733   54.2707 N   0  0  0  0  0  0  0  0  0  0  0  0
   69.0440   48.4085   54.0452 C   0  0  0  0  0  0  0  0  0  0  0  0
   69.8744   48.7411   52.8268 C   0  0  0  0  0  0  0  0  0  0  0  0
   69.8186   47.6591   51.7853 C   0  0  0  0  0  0  0  0  0  0  0  0
   68.5197   46.8601   51.8973 C   0  0  0  0  0  0  0  0  0  0  0  0
   68.4004   46.2263   53.2598 C   0  0  0  0  0  0  0  0  0  0  0  0
 13 14  1  0
 14 15  2  0
 14 19  1  0
 15 16  1  0
 16 17  2  0
 17 10  1  0
 17 18  1  0
 10 11  2  0
 10 12  1  0
 12  7  1  0
  7  8  1  0
  8  9  2  0
  8  1  1  0
  1  2  2  0
  1  6  1  0
  2  3  1  0
  3  4  2  0
  4 20  1  0
  4  5  1  0
 20 21  2  0
 20 22  2  0
 20 23  1  0
 23 24  1  0
 23 28  1  0
 24 25  1  0
 25 26  1  0
 26 27  1  0
 27 28  1  0
  5  6  2  0
 18 19  2  0
M  END
>  <minimizedAffinity>  (399) 
-8.62446

$$$$
data/200k_reference_output/data/smiles/58580.pdb
     RDKit          3D

 27 29  0  0  0  0  0  0  0  0999 V2000
   69.3279   45.0222   56.7057 N   0  0  0  0  0  0  0  0  0  0  0  0
   69.8085   44.5752   57.9575 C   0  0  0  0  0  0  0  0  0  0  0  0
   70.0136   45.4681   58.8206 O   0  0  0  0  0  0  0  0  0  0  0  0
   70.0691   43.1446   58.2753 C   0  0  1  0  0  0  0  0  0  0  0  0
   69.1766   42.2681   57.4220 C   0  0  0  0  0  0  0  0  0  0  0  0
   71.4981   42.7122   58.1827 C   0  0  0  0  0  0  0  0  0  0  0  0
   71.4385   42.5522   59.6712 C   0  0  0  0  0  0  0  0  0  0  0  0
   70.0221   42.8403   59.6963 N   0  0  0  0  0  0  0  0  0  0  0  0
   69.0705   42.8108   60.7245 C   0  0  0  0  0  0  0  0  0  0  0  0
   67.8839   43.1098   60.4816 O   0  0  0  0  0  0  0  0  0  0  0  0
   69.4381   42.4309   62.0960 C   0  0  0  0  0  0  0  0  0  0  0  0
   68.3752   41.6683   62.7543 C   0  0  0  0  0  0  0  0  0  0  0  0
   67.3904   41.9684   63.6034 C   0  0  0  0  0  0  0  0  0  0  0  0
   66.5434   41.0228   64.0470 C   0  0  0  0  0  0  0  0  0  0  0  0
   66.7116   39.7519   63.6115 C   0  0  0  0  0  0  0  0  0  0  0  0
   68.1708   39.9234   62.5010 S   0  0  0  0  0  0  0  0  0  0  0  0
   69.0015   46.6618   56.3110 S   0  0  0  0  0  0  0  0  0  0  0  0
   70.0990   47.5746   56.8064 O   0  0  0  0  0  0  0  0  0  0  0  0
   67.6992   47.1192   56.9426 O   0  0  0  0  0  0  0  0  0  0  0  0
   69.8725   49.0962   51.8193 C   0  0  0  0  0  0  0  0  0  0  0  0
   69.2701   47.9535   52.5196 C   0  0  0  0  0  0  0  0  0  0  0  0
   68.5945   47.0077   51.7953 C   0  0  0  0  0  0  0  0  0  0  0  0
   68.0281   45.9329   52.4615 C   0  0  0  0  0  0  0  0  0  0  0  0
   68.1577   45.8348   53.8612 C   0  0  0  0  0  0  0  0  0  0  0  0
   67.5670   44.7543   54.4198 F   0  0  0  0  0  0  0  0  0  0  0  0
   68.8284   46.7724   54.5855 C   0  0  0  0  0  0  0  0  0  0  0  0
   69.3913   47.8502   53.8829 C   0  0  0  0  0  0  0  0  0  0  0  0
 20 21  1  0
 21 22  2  0
 21 27  1  0
 22 23  1  0
 23 24  2  0
 24 25  1  0
 24 26  1  0
 26 17  1  0
 26 27  2  0
 17 18  2  0
 17 19  2  0
 17  1  1  0
  1  2  1  0
  2  3  2  0
  4  2  1  0
  4  5  1  6
  4  6  1  0
  4  8  1  0
  6  7  1  0
  7  8  1  0
  8  9  1  0
  9 10  2  0
  9 11  1  0
 11 12  1  0
 12 13  2  0
 12 16  1  0
 13 14  1  0
 14 15  2  0
 15 16  1  0
M  END
>  <minimizedAffinity>  (400) 
-8.62416

$$$$
data/reference_output_2/data/smiles/190789.pdb
     RDKit          3D

 30 33  0  0  0  0  0  0  0  0999 V2000
   69.1426   43.7923   56.9622 C   0  0  0  0  0  0  0  0  0  0  0  0
   70.0129   43.1994   57.8467 C   0  0  0  0  0  0  0  0  0  0  0  0
   69.9801   41.8546   58.1159 N   0  0  0  0  0  0  0  0  0  0  0  0
   69.0847   41.0723   57.5161 C   0  0  0  0  0  0  0  0  0  0  0  0
   68.1808   41.6005   56.6158 C   0  0  0  0  0  0  0  0  0  0  0  0
   67.2733   40.7490   56.0193 O   0  0  0  0  0  0  0  0  0  0  0  0
   68.2294   42.9671   56.3546 C   0  0  0  0  0  0  0  0  0  0  0  0
   67.3785   43.3753   55.5267 O   0  0  0  0  0  0  0  0  0  0  0  0
   69.0538   39.6447   57.8531 C   0  0  0  0  0  0  0  0  0  0  0  0
   68.2271   38.9091   57.2983 O   0  0  0  0  0  0  0  0  0  0  0  0
   69.9551   39.0803   58.8065 N   0  0  0  0  0  0  0  0  0  0  0  0
   70.4899   40.0543   59.7532 C   0  0  0  0  0  0  0  0  0  0  0  0
   70.9387   41.2960   59.0307 C   0  0  0  0  0  0  0  0  0  0  0  0
   70.3268   37.7207   58.8657 C   0  0  0  0  0  0  0  0  0  0  0  0
   71.6635   37.3734   58.2974 C   0  0  0  0  0  0  0  0  0  0  0  0
   71.9533   35.9027   58.5141 C   0  0  0  0  0  0  0  0  0  0  0  0
   71.9573   35.5944   60.0015 C   0  0  0  0  0  0  0  0  0  0  0  0
   70.5157   35.7885   60.4608 C   0  0  0  0  0  0  0  0  0  0  0  0
   70.2479   37.2786   60.3113 C   0  0  0  0  0  0  0  0  0  0  0  0
   70.2669   45.8025   57.0993 O   0  0  0  0  0  0  0  0  0  0  0  0
   69.1978   45.2163   56.7003 C   0  0  0  0  0  0  0  0  0  0  0  0
   68.2620   46.0340   56.0820 N   0  0  0  0  0  0  0  0  0  0  0  0
   68.3929   47.4684   55.8543 C   0  0  0  0  0  0  0  0  0  0  0  0
   68.9978   47.7735   54.5350 C   0  0  0  0  0  0  0  0  0  0  0  0
   68.7044   46.9235   53.4611 C   0  0  0  0  0  0  0  0  0  0  0  0
   69.2253   47.1515   52.1986 C   0  0  0  0  0  0  0  0  0  0  0  0
   70.0499   48.2223   51.9571 C   0  0  0  0  0  0  0  0  0  0  0  0
   70.5655   48.4511   50.7159 F   0  0  0  0  0  0  0  0  0  0  0  0
   70.3471   49.0623   52.9920 C   0  0  0  0  0  0  0  0  0  0  0  0
   69.8233   48.8365   54.2693 C   0  0  0  0  0  0  0  0  0  0  0  0
 20 21  2  0
 21 22  1  0
 21  1  1  0
 22 23  1  0
 23 24  1  0
 24 25  2  0
 24 30  1  0
 25 26  1  0
 26 27  2  0
 27 28  1  0
 27 29  1  0
 29 30  2  0
  1  2  2  0
  1  7  1  0
  2  3  1  0
  3  4  1  0
  3 13  1  0
  4  5  2  0
  4  9  1  0
  5  6  1  0
  5  7  1  0
  7  8  2  0
  9 10  2  0
  9 11  1  0
 11 14  1  0
 11 12  1  0
 14 15  1  0
 14 19  1  0
 15 16  1  0
 16 17  1  0
 17 18  1  0
 18 19  1  0
 12 13  1  0
M  END
>  <minimizedAffinity>  (401) 
-8.61879

$$$$
data/reference_output_2/data/smiles/154032.pdb
     RDKit          3D

 31 35  0  0  0  0  0  0  0  0999 V2000
   66.3644   49.4088   58.1012 N   0  0  0  0  0  0  0  0  0  0  0  0
   67.5182   48.8953   57.4262 C   0  0  0  0  0  0  0  0  0  0  0  0
   67.6947   47.7345   56.9180 N   0  0  0  0  0  0  0  0  0  0  0  0
   69.0015   47.5874   56.3143 C   0  0  2  0  0  0  0  0  0  0  0  0
   69.6247   48.8860   56.5449 C   0  0  0  0  0  0  0  0  0  0  0  0
   70.8663   49.4379   56.2390 C   0  0  0  0  0  0  0  0  0  0  0  0
   71.1844   50.7267   56.5923 C   0  0  0  0  0  0  0  0  0  0  0  0
   70.3008   51.5417   57.2651 C   0  0  0  0  0  0  0  0  0  0  0  0
   69.0726   50.9970   57.5685 C   0  0  0  0  0  0  0  0  0  0  0  0
   68.1697   51.7636   58.2311 F   0  0  0  0  0  0  0  0  0  0  0  0
   68.7249   49.6835   57.2178 C   0  0  0  0  0  0  0  0  0  0  0  0
   68.7701   47.2568   54.8887 C   0  0  0  0  0  0  0  0  0  0  0  0
   67.9749   46.2152   54.4704 C   0  0  0  0  0  0  0  0  0  0  0  0
   67.8106   45.9766   53.1108 C   0  0  0  0  0  0  0  0  0  0  0  0
   68.3967   46.7221   52.1616 N   0  0  0  0  0  0  0  0  0  0  0  0
   68.2102   46.4534   50.8090 O   0  0  0  0  0  0  0  0  0  0  0  0
   69.1770   47.7436   52.5546 C   0  0  0  0  0  0  0  0  0  0  0  0
   69.3707   48.0206   53.9116 C   0  0  0  0  0  0  0  0  0  0  0  0
   69.6878   46.4584   56.9622 C   0  0  0  0  0  0  0  0  0  0  0  0
   70.8257   46.6242   57.7231 C   0  0  0  0  0  0  0  0  0  0  0  0
   71.4192   45.5336   58.3055 C   0  0  0  0  0  0  0  0  0  0  0  0
   70.8814   44.2632   58.1322 C   0  0  0  0  0  0  0  0  0  0  0  0
   69.7440   44.0683   57.3752 C   0  0  0  0  0  0  0  0  0  0  0  0
   69.1723   45.1897   56.8047 C   0  0  0  0  0  0  0  0  0  0  0  0
   69.1725   42.7426   57.1865 C   0  0  0  0  0  0  0  0  0  0  0  0
   69.6177   41.6626   57.8933 C   0  0  0  0  0  0  0  0  0  0  0  0
   69.0168   40.4669   57.6437 N   0  0  0  0  0  0  0  0  0  0  0  0
   68.0389   40.3191   56.7617 C   0  0  0  0  0  0  0  0  0  0  0  0
   67.5889   41.3823   56.0553 N   0  0  0  0  0  0  0  0  0  0  0  0
   66.5825   41.2738   55.1342 O   0  0  0  0  0  0  0  0  0  0  0  0
   68.1508   42.5702   56.2699 C   0  0  0  0  0  0  0  0  0  0  0  0
  1  2  1  0
  2  3  2  0
  2 11  1  0
  3  4  1  0
  4 12  1  6
  4 19  1  0
  4  5  1  0
 12 13  2  0
 12 18  1  0
 13 14  1  0
 14 15  2  0
 15 16  1  0
 15 17  1  0
 17 18  2  0
 19 20  2  0
 19 24  1  0
 20 21  1  0
 21 22  2  0
 22 23  1  0
 23 25  1  0
 23 24  2  0
 25 26  2  0
 25 31  1  0
 26 27  1  0
 27 28  2  0
 28 29  1  0
 29 30  1  0
 29 31  2  0
  5  6  2  0
  5 11  1  0
  6  7  1  0
  7  8  2  0
  8  9  1  0
  9 10  1  0
  9 11  2  0
M  CHG  5   3   1  15   1  16  -1  29   1  30  -1
M  END
>  <minimizedAffinity>  (402) 
-8.61837

$$$$
data/200k_reference_output/data/smiles/23678.pdb
     RDKit          3D

 30 33  0  0  0  0  0  0  0  0999 V2000
   72.0617   43.7559   59.0312 N   0  0  0  0  0  0  0  0  0  0  0  0
   71.7483   43.2915   60.3117 C   0  0  0  0  0  0  0  0  0  0  0  0
   71.1727   41.9053   60.2355 C   0  0  0  0  0  0  0  0  0  0  0  0
   70.2308   41.7878   59.0594 C   0  0  0  0  0  0  0  0  0  0  0  0
   70.8754   42.1448   57.7520 C   0  0  0  0  0  0  0  0  0  0  0  0
   72.1949   42.8151   58.0114 C   0  0  0  0  0  0  0  0  0  0  0  0
   69.1044   42.7116   59.3605 C   0  0  0  0  0  0  0  0  0  0  0  0
   69.0703   43.7974   59.9885 O   0  0  0  0  0  0  0  0  0  0  0  0
   67.9573   42.0888   58.7525 N   0  0  0  0  0  0  0  0  0  0  0  0
   68.2022   40.6659   58.7862 C   0  0  0  0  0  0  0  0  0  0  0  0
   69.6356   40.5126   58.9315 N   0  0  0  0  0  0  0  0  0  0  0  0
   70.2054   39.1855   58.9361 C   0  0  0  0  0  0  0  0  0  0  0  0
   71.2266   38.8134   58.1073 C   0  0  0  0  0  0  0  0  0  0  0  0
   71.7893   37.5301   58.1243 C   0  0  0  0  0  0  0  0  0  0  0  0
   71.3100   36.5900   59.0015 C   0  0  0  0  0  0  0  0  0  0  0  0
   70.2785   36.9405   59.8483 C   0  0  0  0  0  0  0  0  0  0  0  0
   69.6801   35.7415   60.9535 Cl  0  0  0  0  0  0  0  0  0  0  0  0
   69.7376   38.2095   59.8162 C   0  0  0  0  0  0  0  0  0  0  0  0
   71.9727   45.1209   58.7512 C   0  0  0  0  0  0  0  0  0  0  0  0
   70.6251   45.7080   58.5202 C   0  0  0  0  0  0  0  0  0  0  0  0
   68.5601   47.2374   57.4840 O   0  0  0  0  0  0  0  0  0  0  0  0
   69.1934   46.5566   56.6362 C   0  0  0  0  0  0  0  0  0  0  0  0
   70.2590   45.7567   57.1121 N   0  0  0  0  0  0  0  0  0  0  0  0
   68.8555   46.5801   55.2186 C   0  0  0  0  0  0  0  0  0  0  0  0
   68.1599   45.5001   54.6582 C   0  0  0  0  0  0  0  0  0  0  0  0
   67.8170   45.4700   53.3279 C   0  0  0  0  0  0  0  0  0  0  0  0
   68.1426   46.5022   52.4873 C   0  0  0  0  0  0  0  0  0  0  0  0
   67.7862   46.4368   51.1740 F   0  0  0  0  0  0  0  0  0  0  0  0
   68.8189   47.5642   53.0035 C   0  0  0  0  0  0  0  0  0  0  0  0
   69.1671   47.5955   54.3532 C   0  0  0  0  0  0  0  0  0  0  0  0
 21 22  2  0
 22 23  1  0
 22 24  1  0
 23 20  1  0
 20 19  1  0
 19  1  1  0
  1  2  1  0
  1  6  1  0
  2  3  1  0
  3  4  1  0
  4  5  1  0
  4  7  1  0
  4 11  1  0
  5  6  1  0
  7  8  2  0
  7  9  1  0
  9 10  1  0
 10 11  1  0
 11 12  1  0
 12 13  2  0
 12 18  1  0
 13 14  1  0
 14 15  2  0
 15 16  1  0
 16 17  1  0
 16 18  2  0
 24 25  2  0
 24 30  1  0
 25 26  1  0
 26 27  2  0
 27 28  1  0
 27 29  1  0
 29 30  2  0
M  CHG  1   1   1
M  END
>  <minimizedAffinity>  (403) 
-8.61229

$$$$
data/reference_output_2/data/smiles/130734.pdb
     RDKit          3D

 29 31  0  0  0  0  0  0  0  0999 V2000
   68.9772   47.6852   52.7560 C   0  0  0  0  0  0  0  0  0  0  0  0
   68.3576   47.1700   51.6406 C   0  0  0  0  0  0  0  0  0  0  0  0
   67.6954   45.9610   51.6583 C   0  0  0  0  0  0  0  0  0  0  0  0
   67.6818   45.2830   52.8583 C   0  0  0  0  0  0  0  0  0  0  0  0
   68.2826   45.7384   54.0138 C   0  0  0  0  0  0  0  0  0  0  0  0
   68.9310   46.9529   53.9436 C   0  0  0  0  0  0  0  0  0  0  0  0
   69.7959   49.2217   52.6415 S   0  0  0  0  0  0  0  0  0  0  0  0
   71.2762   48.9816   52.9047 O   0  0  0  0  0  0  0  0  0  0  0  0
   69.6990   49.8051   51.2651 O   0  0  0  0  0  0  0  0  0  0  0  0
   69.2335   50.2687   53.8550 N   0  0  0  0  0  0  0  0  0  0  0  0
   67.2024   50.3407   57.6254 C   0  0  0  0  0  0  0  0  0  0  0  0
   68.5903   49.9788   57.2535 C   0  0  0  0  0  0  0  0  0  0  0  0
   69.0341   48.8524   57.6159 O   0  0  0  0  0  0  0  0  0  0  0  0
   69.3753   50.8990   56.5082 N   0  0  0  0  0  0  0  0  0  0  0  0
   70.7242   50.4942   56.1782 C   0  0  0  0  0  0  0  0  0  0  0  0
   71.1710   51.1818   54.9215 C   0  0  0  0  0  0  0  0  0  0  0  0
   69.9768   51.4648   54.0504 C   0  0  0  0  0  0  0  0  0  0  0  0
   69.1842   52.5749   54.7358 C   0  0  0  0  0  0  0  0  0  0  0  0
   68.7971   52.1543   56.1399 C   0  0  0  0  0  0  0  0  0  0  0  0
   68.2383   44.9657   55.2597 C   0  0  0  0  0  0  0  0  0  0  0  0
   68.3382   45.5954   56.3587 O   0  0  0  0  0  0  0  0  0  0  0  0
   68.0927   43.5725   55.3216 N   0  0  0  0  0  0  0  0  0  0  0  0
   68.0491   42.8311   56.5350 C   0  0  0  0  0  0  0  0  0  0  0  0
   66.8891   42.1477   56.8344 C   0  0  0  0  0  0  0  0  0  0  0  0
   66.7698   41.3979   58.0079 C   0  0  0  0  0  0  0  0  0  0  0  0
   67.8161   41.3245   58.8993 C   0  0  0  0  0  0  0  0  0  0  0  0
   67.6917   40.5870   60.0480 F   0  0  0  0  0  0  0  0  0  0  0  0
   68.9635   42.0136   58.5807 C   0  0  0  0  0  0  0  0  0  0  0  0
   69.0904   42.7602   57.4184 C   0  0  0  0  0  0  0  0  0  0  0  0
 11 12  1  0
 12 13  2  0
 12 14  1  0
 14 15  1  0
 14 19  1  0
 15 16  1  0
 16 17  1  0
 17 10  1  0
 17 18  1  0
 10  7  1  0
  7  8  2  0
  7  9  2  0
  7  1  1  0
  1  2  2  0
  1  6  1  0
  2  3  1  0
  3  4  2  0
  4  5  1  0
  5 20  1  0
  5  6  2  0
 20 21  2  0
 20 22  1  0
 22 23  1  0
 23 24  2  0
 23 29  1  0
 24 25  1  0
 25 26  2  0
 26 27  1  0
 26 28  1  0
 28 29  2  0
 18 19  1  0
M  END
>  <minimizedAffinity>  (404) 
-8.61213

$$$$
data/reference_output_2/data/smiles/100103.pdb
     RDKit          3D

 31 34  0  0  0  0  0  0  0  0999 V2000
   70.9525   47.9870   58.0882 C   0  0  0  0  0  0  0  0  0  0  0  0
   71.5761   47.0393   57.5496 O   0  0  0  0  0  0  0  0  0  0  0  0
   71.5625   48.7313   59.1373 N   0  0  0  0  0  0  0  0  0  0  0  0
   69.5821   48.3229   57.6240 C   0  0  0  0  0  0  0  0  0  0  0  0
   70.7226   50.2443   55.8812 C   0  0  0  0  0  0  0  0  0  0  0  0
   69.9739   49.0548   55.3764 C   0  0  0  0  0  0  0  0  0  0  0  0
   69.8195   48.8662   54.0078 C   0  0  0  0  0  0  0  0  0  0  0  0
   69.1433   47.7957   53.4674 C   0  0  0  0  0  0  0  0  0  0  0  0
   68.9957   47.6186   52.0888 C   0  0  0  0  0  0  0  0  0  0  0  0
   68.3115   46.5344   51.6000 C   0  0  0  0  0  0  0  0  0  0  0  0
   67.7702   45.6208   52.4570 C   0  0  0  0  0  0  0  0  0  0  0  0
   67.9223   45.8077   53.8118 C   0  0  0  0  0  0  0  0  0  0  0  0
   68.5972   46.8756   54.3480 C   0  0  0  0  0  0  0  0  0  0  0  0
   68.7665   47.0893   55.7146 C   0  0  0  0  0  0  0  0  0  0  0  0
   68.2710   46.2530   56.5065 O   0  0  0  0  0  0  0  0  0  0  0  0
   69.4325   48.1440   56.1998 N   0  0  0  0  0  0  0  0  0  0  0  0
   72.8883   48.4577   59.6355 C   0  0  0  0  0  0  0  0  0  0  0  0
   72.8135   47.3213   60.5800 C   0  0  0  0  0  0  0  0  0  0  0  0
   71.6961   46.9966   61.0400 O   0  0  0  0  0  0  0  0  0  0  0  0
   73.9539   46.5833   60.9869 N   0  0  0  0  0  0  0  0  0  0  0  0
   73.7930   45.4862   61.9135 C   0  0  0  0  0  0  0  0  0  0  0  0
   74.4211   45.9593   63.2170 C   0  0  0  0  0  0  0  0  0  0  0  0
   75.7176   46.6032   62.9294 N   0  0  0  0  0  0  0  0  0  0  0  0
   76.2736   46.5323   61.5926 C   0  0  0  0  0  0  0  0  0  0  0  0
   75.2860   46.8768   60.5154 C   0  0  0  0  0  0  0  0  0  0  0  0
   76.3282   47.2597   64.0270 C   0  0  0  0  0  0  0  0  0  0  0  0
   75.6674   47.5310   65.1969 C   0  0  0  0  0  0  0  0  0  0  0  0
   76.2783   48.1698   66.2583 C   0  0  0  0  0  0  0  0  0  0  0  0
   77.5830   48.5635   66.1907 C   0  0  0  0  0  0  0  0  0  0  0  0
   78.2746   48.3059   65.0305 C   0  0  0  0  0  0  0  0  0  0  0  0
   77.6648   47.6709   63.9763 C   0  0  0  0  0  0  0  0  0  0  0  0
  5  6  1  0
  6  7  2  0
  6 16  1  0
  7  8  1  0
  8  9  2  0
  8 13  1  0
  9 10  1  0
 10 11  2  0
 11 12  1  0
 12 13  2  0
 13 14  1  0
 14 15  2  0
 14 16  1  0
 16  4  1  0
  4  1  1  0
  1  2  2  0
  1  3  1  0
  3 17  1  0
 17 18  1  0
 18 19  2  0
 18 20  1  0
 20 21  1  0
 20 25  1  0
 21 22  1  0
 22 23  1  0
 23 26  1  0
 23 24  1  0
 26 27  2  0
 26 31  1  0
 27 28  1  0
 28 29  2  0
 29 30  1  0
 30 31  2  0
 24 25  1  0
M  END
>  <minimizedAffinity>  (405) 
-8.61040

$$$$
data/reference_output_2/data/smiles/118193.pdb
     RDKit          3D

 30 33  0  0  0  0  0  0  0  0999 V2000
   69.2563   44.3410   57.1216 C   0  0  2  0  0  0  0  0  0  0  0  0
   70.6002   44.5564   57.7327 C   0  0  0  0  0  0  0  0  0  0  0  0
   71.0242   43.5277   58.7334 C   0  0  0  0  0  0  0  0  0  0  0  0
   69.8324   42.8129   59.3827 C   0  0  0  0  0  0  0  0  0  0  0  0
   69.0814   42.1997   58.2852 C   0  0  0  0  0  0  0  0  0  0  0  0
   68.6626   40.8568   58.3835 C   0  0  0  0  0  0  0  0  0  0  0  0
   67.9576   40.3447   57.3081 C   0  0  0  0  0  0  0  0  0  0  0  0
   67.6607   41.0911   56.1680 C   0  0  0  0  0  0  0  0  0  0  0  0
   68.0816   42.3891   56.1059 C   0  0  0  0  0  0  0  0  0  0  0  0
   68.7889   42.9268   57.1698 C   0  0  0  0  0  0  0  0  0  0  0  0
   68.6238   45.9811   55.3433 C   0  0  0  0  0  0  0  0  0  0  0  0
   67.9598   46.6210   56.2486 O   0  0  0  0  0  0  0  0  0  0  0  0
   69.3066   44.8060   55.7361 N   0  0  0  0  0  0  0  0  0  0  0  0
   66.9839   44.9049   53.3655 N   0  0  0  0  0  0  0  0  0  0  0  0
   67.8282   45.9631   52.9995 C   0  0  0  0  0  0  0  0  0  0  0  0
   68.6370   46.4894   53.9882 C   0  0  0  0  0  0  0  0  0  0  0  0
   69.4341   47.4984   53.6134 N   0  0  0  0  0  0  0  0  0  0  0  0
   69.4331   47.9677   52.3252 C   0  0  0  0  0  0  0  0  0  0  0  0
   70.1849   48.9177   51.9795 O   0  0  0  0  0  0  0  0  0  0  0  0
   68.6421   47.4478   51.3724 N   0  0  0  0  0  0  0  0  0  0  0  0
   67.8319   46.4386   51.7060 C   0  0  0  0  0  0  0  0  0  0  0  0
   67.0897   45.9503   50.8143 O   0  0  0  0  0  0  0  0  0  0  0  0
   68.9924   40.2243   59.5115 O   0  0  0  0  0  0  0  0  0  0  0  0
   69.0166   38.9365   59.9081 C   0  0  0  0  0  0  0  0  0  0  0  0
   70.1184   38.0756   59.3613 C   0  0  0  0  0  0  0  0  0  0  0  0
   70.2306   36.7679   59.8530 C   0  0  0  0  0  0  0  0  0  0  0  0
   71.2076   35.9589   59.3337 C   0  0  0  0  0  0  0  0  0  0  0  0
   72.0969   36.3497   58.3491 C   0  0  0  0  0  0  0  0  0  0  0  0
   71.9654   37.6341   57.8843 C   0  0  0  0  0  0  0  0  0  0  0  0
   70.9950   38.4688   58.3855 C   0  0  0  0  0  0  0  0  0  0  0  0
 14 15  1  0
 15 16  2  0
 15 21  1  0
 16 11  1  0
 16 17  1  0
 11 12  2  0
 11 13  1  0
  1 13  1  6
  1  2  1  0
  1 10  1  0
  2  3  1  0
  3  4  1  0
  4  5  1  0
  5  6  2  0
  5 10  1  0
  6 23  1  0
  6  7  1  0
 23 24  1  0
 24 25  1  0
 25 26  2  0
 25 30  1  0
 26 27  1  0
 27 28  2  0
 28 29  1  0
 29 30  2  0
  7  8  2  0
  8  9  1  0
  9 10  2  0
 17 18  1  0
 18 19  2  0
 18 20  1  0
 20 21  1  0
 21 22  2  0
M  END
>  <minimizedAffinity>  (406) 
-8.60959

$$$$
data/200k_reference_output/data/smiles/21896.pdb
     RDKit          3D

 30 33  0  0  0  0  0  0  0  0999 V2000
   70.0262   41.5227   61.0118 C   0  0  0  0  0  0  0  0  0  0  0  0
   69.8067   41.3150   59.5310 C   0  0  2  0  0  0  0  0  0  0  0  0
   68.5896   42.1306   59.0892 C   0  0  0  0  0  0  0  0  0  0  0  0
   68.0173   41.5946   57.8921 N   0  0  0  0  0  0  0  0  0  0  0  0
   67.9560   42.1428   56.6115 C   0  0  0  0  0  0  0  0  0  0  0  0
   67.3807   41.5044   55.6839 O   0  0  0  0  0  0  0  0  0  0  0  0
   67.4219   40.2432   58.0711 C   0  0  0  0  0  0  0  0  0  0  0  0
   68.1871   39.5050   59.1567 C   0  0  0  0  0  0  0  0  0  0  0  0
   69.5684   39.8923   59.2312 N   0  0  0  0  0  0  0  0  0  0  0  0
   70.6541   39.0091   59.0312 C   0  0  0  0  0  0  0  0  0  0  0  0
   71.9547   39.4473   58.9990 C   0  0  0  0  0  0  0  0  0  0  0  0
   73.0445   38.5912   58.7953 C   0  0  0  0  0  0  0  0  0  0  0  0
   72.8061   37.2539   58.6210 C   0  0  0  0  0  0  0  0  0  0  0  0
   73.8831   36.4346   58.4240 F   0  0  0  0  0  0  0  0  0  0  0  0
   71.5166   36.7837   58.6479 C   0  0  0  0  0  0  0  0  0  0  0  0
   71.2967   35.4681   58.4745 F   0  0  0  0  0  0  0  0  0  0  0  0
   70.4612   37.6405   58.8482 C   0  0  0  0  0  0  0  0  0  0  0  0
   68.5277   43.4303   56.2788 C   0  0  0  0  0  0  0  0  0  0  0  0
   69.6444   43.7577   56.7252 O   0  0  0  0  0  0  0  0  0  0  0  0
   67.8565   44.3637   55.4444 N   0  0  0  0  0  0  0  0  0  0  0  0
   68.3043   45.6372   55.0497 C   0  0  0  0  0  0  0  0  0  0  0  0
   68.5817   46.7100   55.8491 C   0  0  0  0  0  0  0  0  0  0  0  0
   69.0251   47.9474   55.3655 C   0  0  0  0  0  0  0  0  0  0  0  0
   69.1971   48.1152   54.0114 C   0  0  0  0  0  0  0  0  0  0  0  0
   69.5993   49.1504   53.2489 N   0  0  0  0  0  0  0  0  0  0  0  0
   69.5726   48.7273   51.9850 C   0  0  0  0  0  0  0  0  0  0  0  0
   69.8944   49.4482   50.9793 O   0  0  0  0  0  0  0  0  0  0  0  0
   69.1703   47.4833   51.9711 O   0  0  0  0  0  0  0  0  0  0  0  0
   68.9254   47.0516   53.1814 C   0  0  0  0  0  0  0  0  0  0  0  0
   68.4914   45.8460   53.6807 C   0  0  0  0  0  0  0  0  0  0  0  0
  2  1  1  1
  2  3  1  0
  2  9  1  0
  3  4  1  0
  4  5  1  0
  4  7  1  0
  5  6  2  0
  5 18  1  0
 18 19  2  0
 18 20  1  0
 20 21  1  0
 21 22  2  0
 21 30  1  0
 22 23  1  0
 23 24  2  0
 24 25  1  0
 24 29  1  0
 25 26  1  0
 26 27  2  0
 26 28  1  0
 28 29  1  0
 29 30  2  0
  7  8  1  0
  8  9  1  0
  9 10  1  0
 10 11  2  0
 10 17  1  0
 11 12  1  0
 12 13  2  0
 13 14  1  0
 13 15  1  0
 15 16  1  0
 15 17  2  0
M  END
>  <minimizedAffinity>  (407) 
-8.60921

$$$$
data/200k_reference_output/data/smiles/65816.pdb
     RDKit          3D

 28 31  0  0  0  0  0  0  0  0999 V2000
   72.1750   43.7923   59.4451 C   0  0  2  0  0  0  0  0  0  0  0  0
   72.8583   43.0584   58.2768 C   0  0  0  0  0  0  0  0  0  0  0  0
   71.8005   42.3775   57.4335 C   0  0  0  0  0  0  0  0  0  0  0  0
   70.4062   42.8864   57.7480 C   0  0  0  0  0  0  0  0  0  0  0  0
   70.4361   44.3809   57.8783 C   0  0  0  0  0  0  0  0  0  0  0  0
   69.6315   45.2247   57.1828 C   0  0  0  0  0  0  0  0  0  0  0  0
   69.7239   46.5967   57.3366 C   0  0  0  0  0  0  0  0  0  0  0  0
   70.6712   47.0452   58.2303 C   0  0  0  0  0  0  0  0  0  0  0  0
   71.5061   46.1945   58.9547 C   0  0  0  0  0  0  0  0  0  0  0  0
   71.3939   44.8606   58.7838 C   0  0  0  0  0  0  0  0  0  0  0  0
   68.6874   47.6921   56.4410 S   0  0  0  0  0  0  0  0  0  0  0  0
   69.3063   49.0730   56.5175 O   0  0  0  0  0  0  0  0  0  0  0  0
   67.3122   47.7399   57.0467 O   0  0  0  0  0  0  0  0  0  0  0  0
   68.6622   47.2193   54.7715 C   0  0  0  0  0  0  0  0  0  0  0  0
   67.9323   46.1450   54.3225 C   0  0  0  0  0  0  0  0  0  0  0  0
   67.9289   45.7861   52.9859 C   0  0  0  0  0  0  0  0  0  0  0  0
   68.6646   46.5097   52.0816 C   0  0  0  0  0  0  0  0  0  0  0  0
   69.3963   47.5815   52.5096 C   0  0  0  0  0  0  0  0  0  0  0  0
   70.1139   48.2777   51.5944 F   0  0  0  0  0  0  0  0  0  0  0  0
   69.3930   47.9349   53.8600 C   0  0  0  0  0  0  0  0  0  0  0  0
   73.1802   44.2177   60.4347 C   0  0  0  0  0  0  0  0  0  0  0  0
   72.6140   44.5498   61.7088 N   0  0  0  0  0  0  0  0  0  0  0  0
   70.4334   41.3658   64.6742 O   0  0  0  0  0  0  0  0  0  0  0  0
   70.6615   42.1714   63.7420 C   0  0  0  0  0  0  0  0  0  0  0  0
   69.6837   42.5492   62.6976 C   0  0  0  0  0  0  0  0  0  0  0  0
   70.4245   43.4828   61.8869 N   0  0  0  0  0  0  0  0  0  0  0  0
   71.6115   43.6886   62.2799 C   0  0  0  0  0  0  0  0  0  0  0  0
   71.8384   42.9026   63.4402 N   0  0  0  0  0  0  0  0  0  0  0  0
 23 24  2  0
 24 25  1  0
 24 28  1  0
 25 26  1  0
 26 27  2  0
 27 22  1  0
 27 28  1  0
 22 21  1  0
  1 21  1  1
  1  2  1  0
  1 10  1  0
  2  3  1  0
  3  4  1  0
  4  5  1  0
  5  6  2  0
  5 10  1  0
  6  7  1  0
  7 11  1  0
  7  8  2  0
 11 12  2  0
 11 13  2  0
 11 14  1  0
 14 15  2  0
 14 20  1  0
 15 16  1  0
 16 17  2  0
 17 18  1  0
 18 19  1  0
 18 20  2  0
  8  9  1  0
  9 10  2  0
M  CHG  1  26   1
M  END
>  <minimizedAffinity>  (408) 
-8.60852

$$$$
data/reference_output_2/data/smiles/171847.pdb
     RDKit          3D

 31 34  0  0  0  0  0  0  0  0999 V2000
   70.1152   46.6253   58.0544 C   0  0  0  0  0  0  0  0  0  0  0  0
   70.0799   45.3190   58.0288 O   0  0  0  0  0  0  0  0  0  0  0  0
   71.0163   47.1978   58.9818 N   0  0  0  0  0  0  0  0  0  0  0  0
   71.7504   46.2538   59.8344 C   0  0  0  0  0  0  0  0  0  0  0  0
   73.1578   46.6764   60.0841 C   0  0  0  0  0  0  0  0  0  0  0  0
   73.3511   48.0919   60.0424 N   0  0  0  0  0  0  0  0  0  0  0  0
   74.1203   48.7453   61.0206 C   0  0  0  0  0  0  0  0  0  0  0  0
   74.2704   50.0041   60.9616 O   0  0  0  0  0  0  0  0  0  0  0  0
   72.7684   48.8442   58.9796 C   0  0  0  0  0  0  0  0  0  0  0  0
   71.2420   48.5953   59.0851 C   0  0  0  0  0  0  0  0  0  0  0  0
   74.7838   48.0806   62.1351 C   0  0  0  0  0  0  0  0  0  0  0  0
   76.1308   47.8400   62.1664 C   0  0  0  0  0  0  0  0  0  0  0  0
   76.6868   47.2081   63.2502 C   0  0  0  0  0  0  0  0  0  0  0  0
   75.8902   46.8184   64.3056 C   0  0  0  0  0  0  0  0  0  0  0  0
   74.5341   47.0547   64.2886 C   0  0  0  0  0  0  0  0  0  0  0  0
   74.0101   47.6834   63.1973 C   0  0  0  0  0  0  0  0  0  0  0  0
   68.1504   47.7458   57.6602 O   0  0  0  0  0  0  0  0  0  0  0  0
   69.2705   47.3589   57.1711 C   0  0  0  0  0  0  0  0  0  0  0  0
   69.5110   47.7140   55.7768 C   0  0  0  0  0  0  0  0  0  0  0  0
   70.2191   48.9025   55.4296 C   0  0  0  0  0  0  0  0  0  0  0  0
   70.1175   49.1121   54.1338 N   0  0  0  0  0  0  0  0  0  0  0  0
   69.3866   48.1358   53.5778 C   0  0  0  0  0  0  0  0  0  0  0  0
   69.0258   47.8736   52.2806 C   0  0  0  0  0  0  0  0  0  0  0  0
   69.3834   48.7272   51.2903 F   0  0  0  0  0  0  0  0  0  0  0  0
   68.2891   46.7321   51.9604 C   0  0  0  0  0  0  0  0  0  0  0  0
   67.9432   46.4915   50.6889 F   0  0  0  0  0  0  0  0  0  0  0  0
   67.9346   45.8762   52.9764 C   0  0  0  0  0  0  0  0  0  0  0  0
   67.2162   44.7576   52.6671 F   0  0  0  0  0  0  0  0  0  0  0  0
   68.2852   46.1231   54.2805 C   0  0  0  0  0  0  0  0  0  0  0  0
   68.0070   45.1898   55.1966 F   0  0  0  0  0  0  0  0  0  0  0  0
   69.0107   47.2647   54.5841 C   0  0  0  0  0  0  0  0  0  0  0  0
 17 18  2  0
 18  1  1  0
 18 19  1  0
  1  2  2  0
  1  3  1  0
  3  4  1  0
  3 10  1  0
  4  5  1  0
  5  6  1  0
  6  7  1  0
  6  9  1  0
  7  8  2  0
  7 11  1  0
 11 12  2  0
 11 16  1  0
 12 13  1  0
 13 14  2  0
 14 15  1  0
 15 16  2  0
  9 10  1  0
 19 20  2  0
 19 31  1  0
 20 21  1  0
 21 22  1  0
 22 23  1  0
 22 31  2  0
 23 24  1  0
 23 25  2  0
 25 26  1  0
 25 27  1  0
 27 28  1  0
 27 29  2  0
 29 30  1  0
 29 31  1  0
M  END
>  <minimizedAffinity>  (409) 
-8.60805

$$$$
data/200k_reference_output/data/smiles/5698.pdb
     RDKit          3D

 31 35  0  0  0  0  0  0  0  0999 V2000
   68.7525   41.6891   59.6908 C   0  0  0  0  0  0  0  0  0  0  0  0
   68.0003   42.7221   59.4336 O   0  0  0  0  0  0  0  0  0  0  0  0
   68.8705   41.3851   61.0398 N   0  0  0  0  0  0  0  0  0  0  0  0
   69.6448   40.3259   61.6353 C   0  0  0  0  0  0  0  0  0  0  0  0
   70.9225   40.9696   62.1427 C   0  0  0  0  0  0  0  0  0  0  0  0
   70.4747   42.1604   62.9860 C   0  0  0  0  0  0  0  0  0  0  0  0
   68.9894   42.0849   63.3222 C   0  0  0  0  0  0  0  0  0  0  0  0
   68.1510   42.1934   62.0711 C   0  0  0  0  0  0  0  0  0  0  0  0
   70.6946   43.4015   62.3180 N   0  0  0  0  0  0  0  0  0  0  0  0
   72.0242   43.8708   62.2528 C   0  0  0  0  0  0  0  0  0  0  0  0
   73.0319   43.1356   63.0662 C   0  0  0  0  0  0  0  0  0  0  0  0
   72.4999   42.5388   64.3014 C   0  0  0  0  0  0  0  0  0  0  0  0
   73.0378   42.3631   65.5272 N   0  0  0  0  0  0  0  0  0  0  0  0
   72.0833   41.7613   66.2579 C   0  0  0  0  0  0  0  0  0  0  0  0
   70.9817   41.5694   65.4997 N   0  0  0  0  0  0  0  0  0  0  0  0
   71.2134   42.0427   64.2818 C   0  0  0  0  0  0  0  0  0  0  0  0
   68.4215   41.3068   57.2780 C   0  0  0  0  0  0  0  0  0  0  0  0
   69.3089   41.0763   58.4946 C   0  0  2  0  0  0  0  0  0  0  0  0
   69.6534   39.7003   58.5219 N   0  0  0  0  0  0  0  0  0  0  0  0
   70.9657   39.1866   58.4651 C   0  0  0  0  0  0  0  0  0  0  0  0
   71.9046   40.0169   58.3836 O   0  0  0  0  0  0  0  0  0  0  0  0
   71.2941   37.7700   58.4959 C   0  0  0  0  0  0  0  0  0  0  0  0
   70.8038   36.9647   59.5288 C   0  0  0  0  0  0  0  0  0  0  0  0
   71.0867   35.6196   59.6017 C   0  0  0  0  0  0  0  0  0  0  0  0
   71.8766   35.0389   58.6332 C   0  0  0  0  0  0  0  0  0  0  0  0
   72.1791   33.6796   58.6824 C   0  0  0  0  0  0  0  0  0  0  0  0
   72.9651   33.0636   57.7320 C   0  0  0  0  0  0  0  0  0  0  0  0
   73.4621   33.8562   56.6945 C   0  0  0  0  0  0  0  0  0  0  0  0
   73.1760   35.1968   56.6288 C   0  0  0  0  0  0  0  0  0  0  0  0
   72.3846   35.7840   57.5968 C   0  0  0  0  0  0  0  0  0  0  0  0
   72.0781   37.1438   57.5536 C   0  0  0  0  0  0  0  0  0  0  0  0
 18 17  1  6
 18 19  1  0
 18  1  1  0
 19 20  1  0
 20 21  2  0
 20 22  1  0
 22 23  2  0
 22 31  1  0
 23 24  1  0
 24 25  2  0
 25 26  1  0
 25 30  1  0
 26 27  2  0
 27 28  1  0
 28 29  2  0
 29 30  1  0
 30 31  2  0
  1  2  2  0
  1  3  1  0
  3  4  1  0
  3  8  1  0
  4  5  1  0
  5  6  1  0
  6  7  1  0
  6  9  1  0
  6 16  1  0
  7  8  1  0
  9 10  1  0
 10 11  1  0
 11 12  1  0
 12 13  1  0
 12 16  2  0
 13 14  1  0
 14 15  2  0
 15 16  1  0
M  CHG  2   9   1  15   1
M  END
>  <minimizedAffinity>  (410) 
-8.60718

$$$$
data/200k_reference_output/data/smiles/17796.pdb
     RDKit          3D

 28 30  0  0  0  0  0  0  0  0999 V2000
   69.3555   40.0072   59.2323 N   0  0  0  0  0  0  0  0  0  0  0  0
   68.3582   39.1855   58.6813 C   0  0  0  0  0  0  0  0  0  0  0  0
   67.9518   39.7897   57.3547 C   0  0  0  0  0  0  0  0  0  0  0  0
   67.2606   41.1052   57.6612 C   0  0  0  0  0  0  0  0  0  0  0  0
   67.5682   41.6552   59.0219 C   0  0  0  0  0  0  0  0  0  0  0  0
   68.8933   41.2799   59.6049 C   0  0  0  0  0  0  0  0  0  0  0  0
   70.6278   39.2988   60.0392 S   0  0  0  0  0  0  0  0  0  0  0  0
   70.1932   38.9316   61.4335 O   0  0  0  0  0  0  0  0  0  0  0  0
   71.7709   40.2505   60.2032 O   0  0  0  0  0  0  0  0  0  0  0  0
   72.7755   34.2093   57.4936 C   0  0  0  0  0  0  0  0  0  0  0  0
   72.2359   35.4564   58.1064 C   0  0  0  0  0  0  0  0  0  0  0  0
   72.4949   36.7188   57.5601 C   0  0  0  0  0  0  0  0  0  0  0  0
   72.0021   37.8565   58.1465 C   0  0  0  0  0  0  0  0  0  0  0  0
   71.2293   37.8390   59.2940 C   0  0  0  0  0  0  0  0  0  0  0  0
   70.9656   36.6036   59.8394 C   0  0  0  0  0  0  0  0  0  0  0  0
   71.4687   35.4385   59.2463 C   0  0  0  0  0  0  0  0  0  0  0  0
   67.3818   42.0680   56.5767 C   0  0  0  0  0  0  0  0  0  0  0  0
   66.9771   41.8160   55.4291 O   0  0  0  0  0  0  0  0  0  0  0  0
   67.9823   43.3853   56.7614 N   0  0  0  0  0  0  0  0  0  0  0  0
   68.1003   44.2358   55.7972 N   0  0  0  0  0  0  0  0  0  0  0  0
   68.2047   44.9608   54.9453 C   0  0  0  0  0  0  0  0  0  0  0  0
   68.3368   45.8831   53.8606 C   0  0  0  0  0  0  0  0  0  0  0  0
   69.1203   47.0371   54.1940 C   0  0  0  0  0  0  0  0  0  0  0  0
   69.3883   48.0374   53.3234 C   0  0  0  0  0  0  0  0  0  0  0  0
   68.8833   47.9439   52.0493 C   0  0  0  0  0  0  0  0  0  0  0  0
   68.1263   46.8605   51.6731 C   0  0  0  0  0  0  0  0  0  0  0  0
   67.8648   45.8293   52.6108 C   0  0  0  0  0  0  0  0  0  0  0  0
   67.0809   44.7505   52.1521 O   0  0  0  0  0  0  0  0  0  0  0  0
 10 11  1  0
 11 12  2  0
 11 16  1  0
 12 13  1  0
 13 14  2  0
 14  7  1  0
 14 15  1  0
  7  8  2  0
  7  9  2  0
  7  1  1  0
  1  2  1  0
  1  6  1  0
  2  3  1  0
  3  4  1  0
  4 17  1  0
  4  5  1  0
 17 18  2  0
 17 19  1  0
 19 20  1  0
 20 21  2  3
 21 22  1  0
 22 23  2  0
 22 27  1  0
 23 24  1  0
 24 25  2  0
 25 26  1  0
 26 27  2  0
 27 28  1  0
  5  6  1  0
 15 16  2  0
M  END
>  <minimizedAffinity>  (411) 
-8.60695

$$$$
data/reference_output_2/data/smiles/138784.pdb
     RDKit          3D

 28 30  0  0  0  0  0  0  0  0999 V2000
   70.4137   50.9313   58.2736 C   0  0  0  0  0  0  0  0  0  0  0  0
   71.2689   51.9224   57.5106 C   0  0  0  0  0  0  0  0  0  0  0  0
   71.2909   51.5377   56.0638 C   0  0  0  0  0  0  0  0  0  0  0  0
   70.6299   50.3051   55.7757 N   0  0  0  0  0  0  0  0  0  0  0  0
   69.2643   50.2566   56.1998 C   0  0  0  0  0  0  0  0  0  0  0  0
   69.1011   50.8274   57.5681 C   0  0  0  0  0  0  0  0  0  0  0  0
   70.3303   48.3883   58.4456 N   0  0  0  0  0  0  0  0  0  0  0  0
   71.0747   49.5919   58.2958 C   0  0  0  0  0  0  0  0  0  0  0  0
   72.3251   49.4520   58.1840 O   0  0  0  0  0  0  0  0  0  0  0  0
   69.1513   46.2569   57.3750 O   0  0  0  0  0  0  0  0  0  0  0  0
   70.2951   46.0406   57.8797 C   0  0  0  0  0  0  0  0  0  0  0  0
   70.9698   47.1425   58.4647 N   0  0  0  0  0  0  0  0  0  0  0  0
   70.8622   44.6904   57.8393 C   0  0  0  0  0  0  0  0  0  0  0  0
   70.1021   43.5871   57.6109 C   0  0  0  0  0  0  0  0  0  0  0  0
   70.6752   42.3410   57.5817 C   0  0  0  0  0  0  0  0  0  0  0  0
   72.0344   42.2260   57.7863 C   0  0  0  0  0  0  0  0  0  0  0  0
   72.8371   43.3149   58.0184 C   0  0  0  0  0  0  0  0  0  0  0  0
   72.2368   44.5533   58.0442 C   0  0  0  0  0  0  0  0  0  0  0  0
   70.6739   50.0357   54.0706 S   0  0  0  0  0  0  0  0  0  0  0  0
   72.1095   49.8728   53.6488 O   0  0  0  0  0  0  0  0  0  0  0  0
   70.1514   51.2608   53.3815 O   0  0  0  0  0  0  0  0  0  0  0  0
   69.7355   48.6448   53.6086 C   0  0  0  0  0  0  0  0  0  0  0  0
   69.6995   48.2740   52.2848 C   0  0  0  0  0  0  0  0  0  0  0  0
   68.9796   47.1843   51.8368 C   0  0  0  0  0  0  0  0  0  0  0  0
   68.2573   46.4135   52.7231 C   0  0  0  0  0  0  0  0  0  0  0  0
   67.3426   45.0301   52.1558 Cl  0  0  0  0  0  0  0  0  0  0  0  0
   68.2891   46.7798   54.0565 C   0  0  0  0  0  0  0  0  0  0  0  0
   69.0163   47.8776   54.5005 C   0  0  0  0  0  0  0  0  0  0  0  0
 10 11  2  0
 11 12  1  0
 11 13  1  0
 12  7  1  0
  7  8  1  0
  8  9  2  0
  8  1  1  0
  1  2  1  0
  1  6  1  0
  2  3  1  0
  3  4  1  0
  4 19  1  0
  4  5  1  0
 19 20  2  0
 19 21  2  0
 19 22  1  0
 22 23  2  0
 22 28  1  0
 23 24  1  0
 24 25  2  0
 25 26  1  0
 25 27  1  0
 27 28  2  0
  5  6  1  0
 13 14  2  0
 13 18  1  0
 14 15  1  0
 15 16  2  0
 16 17  1  0
 17 18  2  0
M  END
>  <minimizedAffinity>  (412) 
-8.60688

$$$$
data/reference_output_2/data/smiles/124015.pdb
     RDKit          3D

 25 26  0  0  0  0  0  0  0  0999 V2000
   70.2379   49.3584   52.5716 S   0  0  0  0  0  0  0  0  0  0  0  0
   71.7220   48.9872   52.6487 O   0  0  0  0  0  0  0  0  0  0  0  0
   69.9581   49.3797   51.0616 O   0  0  0  0  0  0  0  0  0  0  0  0
   69.3341   48.0862   53.3272 C   0  0  0  0  0  0  0  0  0  0  0  0
   68.7252   47.1102   52.5658 C   0  0  0  0  0  0  0  0  0  0  0  0
   68.8076   47.1052   51.2150 F   0  0  0  0  0  0  0  0  0  0  0  0
   67.9969   46.0813   53.1445 C   0  0  0  0  0  0  0  0  0  0  0  0
   67.4036   45.1281   52.3875 F   0  0  0  0  0  0  0  0  0  0  0  0
   67.8498   45.9913   54.5098 C   0  0  0  0  0  0  0  0  0  0  0  0
   68.4529   46.9612   55.2819 C   0  0  0  0  0  0  0  0  0  0  0  0
   68.3065   46.8710   56.6335 F   0  0  0  0  0  0  0  0  0  0  0  0
   69.1731   47.9760   54.6913 C   0  0  0  0  0  0  0  0  0  0  0  0
   69.7400   48.8947   55.5051 F   0  0  0  0  0  0  0  0  0  0  0  0
   70.0519   50.9033   53.2042 N   0  0  0  0  0  0  0  0  0  0  0  0
   72.2392   52.8759   56.2702 C   0  0  0  0  0  0  0  0  0  0  0  0
   72.8642   52.2911   55.1925 C   0  0  0  0  0  0  0  0  0  0  0  0
   72.1701   51.6426   54.1942 C   0  0  0  0  0  0  0  0  0  0  0  0
   70.8005   51.5524   54.2341 C   0  0  0  0  0  0  0  0  0  0  0  0
   70.1468   52.1307   55.3050 C   0  0  0  0  0  0  0  0  0  0  0  0
   68.3904   52.0547   55.4227 Cl  0  0  0  0  0  0  0  0  0  0  0  0
   70.8602   52.7652   56.2768 C   0  0  0  0  0  0  0  0  0  0  0  0
   74.3377   54.7290   56.8353 N   0  0  0  0  0  0  0  0  0  0  0  0
   73.1258   53.6976   57.5359 S   0  0  0  0  0  0  0  0  0  0  0  0
   73.8440   52.6733   58.3635 O   0  0  0  0  0  0  0  0  0  0  0  0
   72.2168   54.4569   58.4484 O   0  0  0  0  0  0  0  0  0  0  0  0
 22 23  1  0
 23 24  2  0
 23 25  2  0
 23 15  1  0
 15 16  2  0
 15 21  1  0
 16 17  1  0
 17 18  2  0
 18 14  1  0
 18 19  1  0
 14  1  1  0
  1  2  2  0
  1  3  2  0
  1  4  1  0
  4  5  2  0
  4 12  1  0
  5  6  1  0
  5  7  1  0
  7  8  1  0
  7  9  2  0
  9 10  1  0
 10 11  1  0
 10 12  2  0
 12 13  1  0
 19 20  1  0
 19 21  2  0
M  END
>  <minimizedAffinity>  (413) 
-8.60651

$$$$
data/reference_output_2/data/smiles/167885.pdb
     RDKit          3D

 28 30  0  0  0  0  0  0  0  0999 V2000
   69.8657   43.6016   57.7599 S   0  0  0  0  0  0  0  0  0  0  0  0
   69.5687   44.1713   59.1567 O   0  0  0  0  0  0  0  0  0  0  0  0
   71.2481   44.1736   57.4740 O   0  0  0  0  0  0  0  0  0  0  0  0
   67.4465   41.6210   57.6114 C   0  0  0  0  0  0  0  0  0  0  0  0
   68.8049   41.1198   57.9073 C   0  0  0  0  0  0  0  0  0  0  0  0
   68.9040   39.7519   58.1123 C   0  0  0  0  0  0  0  0  0  0  0  0
   70.1163   39.1424   58.3505 C   0  0  0  0  0  0  0  0  0  0  0  0
   70.2496   37.8218   58.5516 N   0  0  0  0  0  0  0  0  0  0  0  0
   71.4307   37.2215   58.7842 C   0  0  0  0  0  0  0  0  0  0  0  0
   71.5526   35.9849   58.9734 O   0  0  0  0  0  0  0  0  0  0  0  0
   72.5720   38.0126   58.8179 C   0  0  0  0  0  0  0  0  0  0  0  0
   73.7000   37.4535   59.0379 O   0  0  0  0  0  0  0  0  0  0  0  0
   72.4724   39.3308   58.6199 N   0  0  0  0  0  0  0  0  0  0  0  0
   71.2799   39.9028   58.3908 C   0  0  0  0  0  0  0  0  0  0  0  0
   71.1284   41.2570   58.1824 C   0  0  0  0  0  0  0  0  0  0  0  0
   69.9217   41.8875   57.9432 C   0  0  0  0  0  0  0  0  0  0  0  0
   68.7038   44.2304   56.6960 N   0  0  0  0  0  0  0  0  0  0  0  0
   68.7456   45.3394   55.8322 C   0  0  0  0  0  0  0  0  0  0  0  0
   68.2148   45.1482   54.5505 C   0  0  0  0  0  0  0  0  0  0  0  0
   68.2019   46.1809   53.6486 C   0  0  0  0  0  0  0  0  0  0  0  0
   68.7209   47.4096   54.0282 C   0  0  0  0  0  0  0  0  0  0  0  0
   69.2385   47.5917   55.2821 C   0  0  0  0  0  0  0  0  0  0  0  0
   69.2533   46.5562   56.1880 C   0  0  0  0  0  0  0  0  0  0  0  0
   68.7244   48.4812   53.1419 O   0  0  0  0  0  0  0  0  0  0  0  0
   69.8493   48.6413   52.2786 C   0  0  0  0  0  0  0  0  0  0  0  0
   70.9431   49.0001   53.0297 F   0  0  0  0  0  0  0  0  0  0  0  0
   70.0601   47.5088   51.5335 F   0  0  0  0  0  0  0  0  0  0  0  0
   69.5362   49.6910   51.4345 F   0  0  0  0  0  0  0  0  0  0  0  0
  4  5  1  0
  5  6  2  0
  5 16  1  0
  6  7  1  0
  7  8  1  0
  7 14  2  0
  8  9  1  0
  9 10  2  0
  9 11  1  0
 11 12  2  0
 11 13  1  0
 13 14  1  0
 14 15  1  0
 15 16  2  0
 16  1  1  0
  1  2  2  0
  1  3  2  0
  1 17  1  0
 17 18  1  0
 18 19  2  0
 18 23  1  0
 19 20  1  0
 20 21  2  0
 21 24  1  0
 21 22  1  0
 24 25  1  0
 25 26  1  0
 25 27  1  0
 25 28  1  0
 22 23  2  0
M  END
>  <minimizedAffinity>  (414) 
-8.60419

$$$$
data/reference_output_2/data/smiles/173109.pdb
     RDKit          3D

 30 33  0  0  0  0  0  0  0  0999 V2000
   67.6786   41.2741   57.4942 N   0  0  0  0  0  0  0  0  0  0  0  0
   68.7566   40.4129   57.9219 C   0  0  0  0  0  0  0  0  0  0  0  0
   66.6165   41.4985   58.4036 C   0  0  0  0  0  0  0  0  0  0  0  0
   65.6702   42.2559   58.0395 O   0  0  0  0  0  0  0  0  0  0  0  0
   66.5392   40.9207   59.7225 C   0  0  0  0  0  0  0  0  0  0  0  0
   66.9297   41.7342   60.7837 C   0  0  0  0  0  0  0  0  0  0  0  0
   66.8875   41.2623   62.0771 C   0  0  0  0  0  0  0  0  0  0  0  0
   66.4639   39.9918   62.3656 C   0  0  0  0  0  0  0  0  0  0  0  0
   66.4123   39.4990   63.6448 C   0  0  0  0  0  0  0  0  0  0  0  0
   66.7699   40.2536   64.5755 O   0  0  0  0  0  0  0  0  0  0  0  0
   65.9834   38.2286   63.8727 N   0  0  0  0  0  0  0  0  0  0  0  0
   65.6002   37.4249   62.8553 C   0  0  0  0  0  0  0  0  0  0  0  0
   65.6666   37.9476   61.6161 N   0  0  0  0  0  0  0  0  0  0  0  0
   66.0728   39.1747   61.3138 C   0  0  0  0  0  0  0  0  0  0  0  0
   66.1197   39.6609   60.0121 C   0  0  0  0  0  0  0  0  0  0  0  0
   65.1804   36.0967   63.3823 C   0  0  0  0  0  0  0  0  0  0  0  0
   64.9717   36.3907   64.8523 C   0  0  0  0  0  0  0  0  0  0  0  0
   65.8703   37.5618   65.1458 C   0  0  0  0  0  0  0  0  0  0  0  0
   67.7134   41.8693   56.1956 C   0  0  0  0  0  0  0  0  0  0  0  0
   67.9206   44.2028   55.1743 N   0  0  0  0  0  0  0  0  0  0  0  0
   68.2336   43.2862   56.2097 C   0  0  0  0  0  0  0  0  0  0  0  0
   68.9572   43.6516   57.1649 O   0  0  0  0  0  0  0  0  0  0  0  0
   69.8765   48.4000   56.9818 C   0  0  0  0  0  0  0  0  0  0  0  0
   69.2761   47.6091   55.8824 C   0  0  0  0  0  0  0  0  0  0  0  0
   69.1019   48.2024   54.6608 C   0  0  0  0  0  0  0  0  0  0  0  0
   68.5536   47.4891   53.6447 C   0  0  0  0  0  0  0  0  0  0  0  0
   68.1681   46.1645   53.8335 C   0  0  0  0  0  0  0  0  0  0  0  0
   67.5848   45.4688   52.6879 C   0  0  0  0  0  0  0  0  0  0  0  0
   68.3335   45.5382   55.0634 C   0  0  0  0  0  0  0  0  0  0  0  0
   68.8864   46.2860   56.0556 C   0  0  0  0  0  0  0  0  0  0  0  0
 23 24  1  0
 24 25  2  0
 24 30  1  0
 25 26  1  0
 26 27  2  0
 27 28  1  0
 27 29  1  0
 29 20  1  0
 29 30  2  0
 20 21  1  0
 21 22  2  0
 21 19  1  0
 19  1  1  0
  1  2  1  0
  1  3  1  0
  3  4  2  0
  3  5  1  0
  5  6  2  0
  5 15  1  0
  6  7  1  0
  7  8  2  0
  8  9  1  0
  8 14  1  0
  9 10  2  0
  9 11  1  0
 11 12  1  0
 11 18  1  0
 12 13  2  0
 12 16  1  0
 13 14  1  0
 14 15  2  0
 16 17  1  0
 17 18  1  0
M  END
>  <minimizedAffinity>  (415) 
-8.60184

$$$$
data/200k_reference_output/data/smiles/78700.pdb
     RDKit          3D

 32 35  0  0  0  0  0  0  0  0999 V2000
   70.8602   44.2260   58.3234 C   0  0  0  0  0  0  0  0  0  0  0  0
   69.9903   43.2683   58.7842 C   0  0  0  0  0  0  0  0  0  0  0  0
   70.2620   41.9218   58.7536 C   0  0  0  0  0  0  0  0  0  0  0  0
   71.4709   41.4260   58.2395 C   0  0  0  0  0  0  0  0  0  0  0  0
   72.3361   42.3818   57.7805 C   0  0  0  0  0  0  0  0  0  0  0  0
   72.0504   43.7566   57.8155 C   0  0  0  0  0  0  0  0  0  0  0  0
   71.6861   40.0331   58.2369 N   0  0  0  0  0  0  0  0  0  0  0  0
   72.7043   39.2914   58.8466 C   0  0  0  0  0  0  0  0  0  0  0  0
   73.5700   39.9252   59.5007 O   0  0  0  0  0  0  0  0  0  0  0  0
   72.8192   37.8897   58.7743 N   0  0  0  0  0  0  0  0  0  0  0  0
   73.8315   37.0851   59.3756 C   0  0  0  0  0  0  0  0  0  0  0  0
   74.0270   36.0302   58.3182 C   0  0  0  0  0  0  0  0  0  0  0  0
   75.0572   35.1917   58.0297 C   0  0  0  0  0  0  0  0  0  0  0  0
   74.9374   34.3114   56.9693 C   0  0  0  0  0  0  0  0  0  0  0  0
   73.7953   34.2798   56.2110 C   0  0  0  0  0  0  0  0  0  0  0  0
   72.7856   35.1265   56.5207 N   0  0  0  0  0  0  0  0  0  0  0  0
   72.8874   35.9849   57.5465 C   0  0  0  0  0  0  0  0  0  0  0  0
   71.9409   36.9972   58.0816 C   0  0  0  0  0  0  0  0  0  0  0  0
   69.5274   47.7667   57.5345 C   0  0  0  0  0  0  0  0  0  0  0  0
   70.0631   48.3561   58.4793 O   0  0  0  0  0  0  0  0  0  0  0  0
   69.7604   46.3463   57.4252 N   0  0  0  0  0  0  0  0  0  0  0  0
   70.5689   45.6555   58.3564 C   0  0  0  0  0  0  0  0  0  0  0  0
   71.0692   46.3503   59.2846 O   0  0  0  0  0  0  0  0  0  0  0  0
   68.0206   49.5845   57.0250 N   0  0  0  0  0  0  0  0  0  0  0  0
   68.6661   48.4109   56.5115 C   0  0  1  0  0  0  0  0  0  0  0  0
   69.3871   48.6456   55.2116 C   0  0  0  0  0  0  0  0  0  0  0  0
   68.9722   47.7749   54.1187 C   0  0  0  0  0  0  0  0  0  0  0  0
   68.0980   46.7382   54.3573 C   0  0  0  0  0  0  0  0  0  0  0  0
   67.6848   45.8883   53.3249 C   0  0  0  0  0  0  0  0  0  0  0  0
   68.1679   46.1004   52.0358 C   0  0  0  0  0  0  0  0  0  0  0  0
   69.0439   47.1323   51.7725 C   0  0  0  0  0  0  0  0  0  0  0  0
   69.4381   47.9632   52.8260 C   0  0  0  0  0  0  0  0  0  0  0  0
 25 24  1  1
 25 26  1  0
 25 19  1  0
 26 27  1  0
 27 28  2  0
 27 32  1  0
 28 29  1  0
 29 30  2  0
 30 31  1  0
 31 32  2  0
 19 20  2  0
 19 21  1  0
 21 22  1  0
 22 23  2  0
 22  1  1  0
  1  2  2  0
  1  6  1  0
  2  3  1  0
  3  4  2  0
  4  7  1  0
  4  5  1  0
  7  8  1  0
  8  9  2  0
  8 10  1  0
 10 11  1  0
 10 18  1  0
 11 12  1  0
 12 13  1  0
 12 17  2  0
 13 14  2  0
 14 15  1  0
 15 16  2  0
 16 17  1  0
 17 18  1  0
  5  6  2  0
M  CHG  1  24   1
M  END
>  <minimizedAffinity>  (416) 
-8.60143

$$$$
data/reference_output_2/data/smiles/106223.pdb
     RDKit          3D

 29 33  0  0  0  0  0  0  0  0999 V2000
   69.7436   42.2759   61.9446 N   0  0  0  0  0  0  0  0  0  0  0  0
   70.9626   42.4881   61.2612 C   0  0  0  0  0  0  0  0  0  0  0  0
   70.7491   43.0639   59.8910 C   0  0  2  0  0  0  0  0  0  0  0  0
   69.4911   43.8368   59.8298 N   0  0  0  0  0  0  0  0  0  0  0  0
   68.8377   42.5066   59.6936 C   0  0  2  0  0  0  0  0  0  0  0  0
   68.5981   42.1195   61.1052 C   0  0  0  0  0  0  0  0  0  0  0  0
   69.9909   42.1072   58.9581 C   0  0  2  0  0  0  0  0  0  0  0  0
   70.5303   40.7913   58.7569 C   0  0  0  0  0  0  0  0  0  0  0  0
   69.6449   39.7239   58.5275 C   0  0  0  0  0  0  0  0  0  0  0  0
   70.0773   38.4322   58.3343 C   0  0  0  0  0  0  0  0  0  0  0  0
   71.4174   38.1110   58.3547 C   0  0  0  0  0  0  0  0  0  0  0  0
   72.3111   39.1334   58.5771 C   0  0  0  0  0  0  0  0  0  0  0  0
   71.8580   40.4235   58.7696 C   0  0  0  0  0  0  0  0  0  0  0  0
   71.8490   36.7285   58.1454 C   0  0  0  0  0  0  0  0  0  0  0  0
   72.6153   36.3947   57.0375 C   0  0  0  0  0  0  0  0  0  0  0  0
   73.0445   35.1101   56.7979 C   0  0  0  0  0  0  0  0  0  0  0  0
   72.7082   34.1007   57.6861 C   0  0  0  0  0  0  0  0  0  0  0  0
   71.9512   34.4285   58.7829 C   0  0  0  0  0  0  0  0  0  0  0  0
   71.5247   35.7162   59.0153 C   0  0  0  0  0  0  0  0  0  0  0  0
   70.7778   36.0289   60.1010 F   0  0  0  0  0  0  0  0  0  0  0  0
   69.7556   41.4460   63.3972 S   0  0  0  0  0  0  0  0  0  0  0  0
   68.5023   41.8627   64.1645 O   0  0  0  0  0  0  0  0  0  0  0  0
   69.6238   39.9504   63.2356 O   0  0  0  0  0  0  0  0  0  0  0  0
   74.4370   42.9932   65.2875 C   0  0  0  0  0  0  0  0  0  0  0  0
   73.1014   42.4483   65.2444 N   0  0  0  0  0  0  0  0  0  0  0  0
   72.3652   41.9479   66.2342 C   0  0  0  0  0  0  0  0  0  0  0  0
   71.1738   41.5424   65.7864 N   0  0  0  0  0  0  0  0  0  0  0  0
   71.1133   41.7831   64.4436 C   0  0  0  0  0  0  0  0  0  0  0  0
   72.3266   42.3467   64.1328 C   0  0  0  0  0  0  0  0  0  0  0  0
 24 25  1  0
 25 26  1  0
 25 29  1  0
 26 27  2  0
 27 28  1  0
 28 21  1  0
 28 29  2  0
 21 22  2  0
 21 23  2  0
 21  1  1  0
  1  2  1  0
  1  6  1  0
  3  2  1  1
  3  4  1  0
  3  7  1  0
  4  5  1  0
  5  6  1  1
  5  7  1  0
  7  8  1  1
  8  9  2  0
  8 13  1  0
  9 10  1  0
 10 11  2  0
 11 14  1  0
 11 12  1  0
 14 15  2  0
 14 19  1  0
 15 16  1  0
 16 17  2  0
 17 18  1  0
 18 19  2  0
 19 20  1  0
 12 13  2  0
M  CHG  1   4   1
M  END
>  <minimizedAffinity>  (417) 
-8.60031

$$$$
data/reference_output_2/data/smiles/118863.pdb
     RDKit          3D

 32 35  0  0  0  0  0  0  0  0999 V2000
   65.6918   40.1798   60.8695 C   0  0  0  0  0  0  0  0  0  0  0  0
   66.4916   40.6459   59.9141 C   0  0  0  0  0  0  0  0  0  0  0  0
   66.9406   39.8092   58.9595 N   0  0  0  0  0  0  0  0  0  0  0  0
   67.7571   40.2539   57.9826 C   0  0  0  0  0  0  0  0  0  0  0  0
   68.1742   39.4624   57.0906 O   0  0  0  0  0  0  0  0  0  0  0  0
   68.1566   41.5683   57.9276 C   0  0  0  0  0  0  0  0  0  0  0  0
   68.9751   42.0011   56.9441 C   0  0  0  0  0  0  0  0  0  0  0  0
   67.7169   42.4115   58.8715 N   0  0  0  0  0  0  0  0  0  0  0  0
   66.9037   41.9537   59.8381 C   0  0  0  0  0  0  0  0  0  0  0  0
   66.4749   42.7402   60.7437 O   0  0  0  0  0  0  0  0  0  0  0  0
   69.3248   43.4267   57.0012 C   0  0  0  0  0  0  0  0  0  0  0  0
   70.3902   43.7992   57.8317 C   0  0  0  0  0  0  0  0  0  0  0  0
   70.7664   45.1186   57.9177 C   0  0  0  0  0  0  0  0  0  0  0  0
   70.0925   46.0754   57.1854 C   0  0  0  0  0  0  0  0  0  0  0  0
   69.0388   45.7465   56.3555 C   0  0  0  0  0  0  0  0  0  0  0  0
   68.6988   44.4093   56.3035 C   0  0  0  0  0  0  0  0  0  0  0  0
   68.3471   46.7452   55.5622 C   0  0  0  0  0  0  0  0  0  0  0  0
   67.4673   47.4410   56.0998 O   0  0  0  0  0  0  0  0  0  0  0  0
   68.6434   46.9775   54.1222 C   0  0  0  0  0  0  0  0  0  0  0  0
   68.1257   46.2144   53.1498 C   0  0  0  0  0  0  0  0  0  0  0  0
   68.4507   46.4590   51.8465 C   0  0  0  0  0  0  0  0  0  0  0  0
   69.5659   47.8610   51.9866 S   0  0  0  0  0  0  0  0  0  0  0  0
   69.5045   48.0060   53.7863 C   0  0  0  0  0  0  0  0  0  0  0  0
   65.7958   37.8390   61.7763 C   0  0  0  0  0  0  0  0  0  0  0  0
   65.1428   36.6497   61.5812 N   0  0  0  0  0  0  0  0  0  0  0  0
   64.2138   36.9084   60.6327 C   0  0  0  0  0  0  0  0  0  0  0  0
   64.2755   38.1900   60.2478 N   0  0  0  0  0  0  0  0  0  0  0  0
   65.2614   38.7932   60.9519 C   0  0  0  0  0  0  0  0  0  0  0  0
   66.6448   39.1314   63.6557 C   0  0  0  0  0  0  0  0  0  0  0  0
   66.8918   37.9417   62.7543 C   0  0  0  0  0  0  0  0  0  0  0  0
   68.2450   38.0944   62.0976 C   0  0  0  0  0  0  0  0  0  0  0  0
   66.9632   36.7276   63.6575 C   0  0  0  0  0  0  0  0  0  0  0  0
 29 30  1  0
 30 31  1  0
 30 32  1  0
 30 24  1  0
 24 25  1  0
 24 28  2  0
 25 26  1  0
 26 27  2  0
 27 28  1  0
 28  1  1  0
  1  2  2  0
  2  3  1  0
  2  9  1  0
  3  4  1  0
  4  5  2  0
  4  6  1  0
  6  7  2  0
  6  8  1  0
  7 11  1  0
 11 12  2  0
 11 16  1  0
 12 13  1  0
 13 14  2  0
 14 15  1  0
 15 17  1  0
 15 16  2  0
 17 18  2  0
 17 19  1  0
 19 20  1  0
 19 23  2  0
 20 21  2  0
 21 22  1  0
 22 23  1  0
  8  9  1  0
  9 10  2  0
M  CHG  1  27   1
M  END
>  <minimizedAffinity>  (418) 
-8.59931

$$$$
data/reference_output_2/data/smiles/129605.pdb
     RDKit          3D

 30 33  0  0  0  0  0  0  0  0999 V2000
   70.4077   49.9971   57.0439 N   0  0  0  0  0  0  0  0  0  0  0  0
   69.2614   50.8788   57.2983 C   0  0  0  0  0  0  0  0  0  0  0  0
   69.0078   51.4853   55.9292 C   0  0  0  0  0  0  0  0  0  0  0  0
   70.3344   51.5299   55.2637 C   0  0  1  0  0  0  0  0  0  0  0  0
   70.8864   52.8073   55.2153 O   0  0  0  0  0  0  0  0  0  0  0  0
   71.1786   50.6153   56.0409 C   0  0  0  0  0  0  0  0  0  0  0  0
   72.4273   50.3889   55.8611 O   0  0  0  0  0  0  0  0  0  0  0  0
   72.2280   44.2549   61.7472 O   0  0  0  0  0  0  0  0  0  0  0  0
   72.2652   45.1036   60.8397 C   0  0  0  0  0  0  0  0  0  0  0  0
   73.2655   46.1869   60.8511 C   0  0  0  0  0  0  0  0  0  0  0  0
   72.6730   47.5559   60.6373 C   0  0  0  0  0  0  0  0  0  0  0  0
   71.7518   47.5125   59.4888 C   0  0  0  0  0  0  0  0  0  0  0  0
   71.4977   48.6959   58.8056 C   0  0  0  0  0  0  0  0  0  0  0  0
   70.6437   48.7512   57.7246 C   0  0  0  0  0  0  0  0  0  0  0  0
   70.0357   47.5748   57.3331 C   0  0  0  0  0  0  0  0  0  0  0  0
   70.2698   46.3873   57.9921 C   0  0  0  0  0  0  0  0  0  0  0  0
   71.1328   46.3602   59.0742 C   0  0  0  0  0  0  0  0  0  0  0  0
   71.3592   45.0981   59.7298 N   0  0  0  0  0  0  0  0  0  0  0  0
   70.2401   50.9543   53.8719 C   0  0  0  0  0  0  0  0  0  0  0  0
   70.3147   51.6994   52.8740 O   0  0  0  0  0  0  0  0  0  0  0  0
   70.0674   49.5758   53.6959 N   0  0  0  0  0  0  0  0  0  0  0  0
   69.9629   48.8799   52.4333 C   0  0  0  0  0  0  0  0  0  0  0  0
   69.1284   47.6555   52.6469 C   0  0  0  0  0  0  0  0  0  0  0  0
   69.0089   47.1079   53.9297 C   0  0  0  0  0  0  0  0  0  0  0  0
   68.2522   45.9932   54.2064 C   0  0  0  0  0  0  0  0  0  0  0  0
   68.1799   45.5140   55.4746 F   0  0  0  0  0  0  0  0  0  0  0  0
   67.5739   45.3809   53.1614 C   0  0  0  0  0  0  0  0  0  0  0  0
   67.6851   45.9082   51.9103 C   0  0  0  0  0  0  0  0  0  0  0  0
   67.0173   45.3038   50.8818 F   0  0  0  0  0  0  0  0  0  0  0  0
   68.4492   47.0359   51.6245 C   0  0  0  0  0  0  0  0  0  0  0  0
  8  9  2  0
  9 10  1  0
  9 18  1  0
 10 11  1  0
 11 12  1  0
 12 13  1  0
 12 17  2  0
 13 14  2  0
 14  1  1  0
 14 15  1  0
  1  2  1  0
  1  6  1  0
  2  3  1  0
  3  4  1  0
  4  5  1  6
  4 19  1  0
  4  6  1  0
 19 20  2  0
 19 21  1  0
 21 22  1  0
 22 23  1  0
 23 24  2  0
 23 30  1  0
 24 25  1  0
 25 26  1  0
 25 27  2  0
 27 28  1  0
 28 29  1  0
 28 30  2  0
  6  7  2  0
 15 16  2  0
 16 17  1  0
 17 18  1  0
M  END
>  <minimizedAffinity>  (419) 
-8.59911

$$$$
data/reference_output_2/data/smiles/146862.pdb
     RDKit          3D

 28 30  0  0  0  0  0  0  0  0999 V2000
   69.6916   49.2356   56.6965 C   0  0  0  0  0  0  0  0  0  0  0  0
   69.2129   50.2212   57.5365 C   0  0  0  0  0  0  0  0  0  0  0  0
   67.9330   50.1891   58.0192 C   0  0  0  0  0  0  0  0  0  0  0  0
   67.1630   49.1183   57.6147 C   0  0  0  0  0  0  0  0  0  0  0  0
   67.6105   48.1321   56.7873 C   0  0  0  0  0  0  0  0  0  0  0  0
   68.9243   48.1743   56.2980 C   0  0  0  0  0  0  0  0  0  0  0  0
   71.1023   49.3754   56.2034 C   0  0  0  0  0  0  0  0  0  0  0  0
   74.2483   53.9991   56.2629 N   0  0  0  0  0  0  0  0  0  0  0  0
   72.9487   53.7992   56.8976 C   0  0  1  0  0  0  0  0  0  0  0  0
   71.8566   53.7178   55.8383 C   0  0  0  0  0  0  0  0  0  0  0  0
   71.7752   52.2324   55.5992 C   0  0  2  0  0  0  0  0  0  0  0  0
   72.1552   51.5685   56.8166 N   0  0  0  0  0  0  0  0  0  0  0  0
   71.8584   50.2230   57.1464 C   0  0  0  0  0  0  0  0  0  0  0  0
   72.2483   49.7692   58.2467 O   0  0  0  0  0  0  0  0  0  0  0  0
   72.8839   52.4965   57.6340 C   0  0  0  0  0  0  0  0  0  0  0  0
   72.6812   51.8605   54.4868 C   0  0  0  0  0  0  0  0  0  0  0  0
   73.0073   52.7222   53.6374 O   0  0  0  0  0  0  0  0  0  0  0  0
   73.1807   50.5384   54.3790 N   0  0  0  0  0  0  0  0  0  0  0  0
   74.0205   50.1570   53.3654 O   0  0  0  0  0  0  0  0  0  0  0  0
   69.3343   47.1084   55.4535 N   0  0  0  0  0  0  0  0  0  0  0  0
   68.8441   46.7837   54.1908 C   0  0  0  0  0  0  0  0  0  0  0  0
   68.1641   45.5791   54.0361 C   0  0  0  0  0  0  0  0  0  0  0  0
   68.0094   44.5337   55.4282 Cl  0  0  0  0  0  0  0  0  0  0  0  0
   67.6427   45.2531   52.8062 C   0  0  0  0  0  0  0  0  0  0  0  0
   67.7725   46.0923   51.7029 C   0  0  0  0  0  0  0  0  0  0  0  0
   68.4427   47.2847   51.8483 C   0  0  0  0  0  0  0  0  0  0  0  0
   68.9796   47.6330   53.0900 C   0  0  0  0  0  0  0  0  0  0  0  0
   69.7873   49.1731   53.2129 Cl  0  0  0  0  0  0  0  0  0  0  0  0
  9  8  1  6
  9 10  1  0
  9 15  1  0
 10 11  1  0
 11 16  1  6
 11 12  1  0
 16 17  2  0
 16 18  1  0
 18 19  1  0
 12 13  1  0
 12 15  1  0
 13 14  2  0
 13  7  1  0
  7  1  1  0
  1  2  2  0
  1  6  1  0
  2  3  1  0
  3  4  2  0
  4  5  1  0
  5  6  2  0
  6 20  1  0
 20 21  1  0
 21 22  2  0
 21 27  1  0
 22 23  1  0
 22 24  1  0
 24 25  2  0
 25 26  1  0
 26 27  2  0
 27 28  1  0
M  CHG  1   8   1
M  END
>  <minimizedAffinity>  (420) 
-8.59801

$$$$
data/200k_reference_output/data/smiles/70552.pdb
     RDKit          3D

 32 36  0  0  0  0  0  0  0  0999 V2000
   72.9431   34.6806   57.0151 C   0  0  0  0  0  0  0  0  0  0  0  0
   72.9425   33.4216   57.5326 C   0  0  0  0  0  0  0  0  0  0  0  0
   72.2704   33.2067   58.7203 C   0  0  0  0  0  0  0  0  0  0  0  0
   71.6261   34.1792   59.3753 N   0  0  0  0  0  0  0  0  0  0  0  0
   71.6144   35.4324   58.8811 C   0  0  0  0  0  0  0  0  0  0  0  0
   71.0703   36.5879   59.3015 N   0  0  0  0  0  0  0  0  0  0  0  0
   71.3631   37.5687   58.4236 C   0  0  0  0  0  0  0  0  0  0  0  0
   72.1118   37.0175   57.4219 C   0  0  0  0  0  0  0  0  0  0  0  0
   72.2819   35.6744   57.6897 C   0  0  0  0  0  0  0  0  0  0  0  0
   74.9975   35.1622   55.6977 C   0  0  0  0  0  0  0  0  0  0  0  0
   75.6064   35.4483   54.5144 C   0  0  0  0  0  0  0  0  0  0  0  0
   74.8384   35.5698   53.3589 C   0  0  0  0  0  0  0  0  0  0  0  0
   73.4772   35.4061   53.3905 C   0  0  0  0  0  0  0  0  0  0  0  0
   72.7136   35.5177   52.2881 F   0  0  0  0  0  0  0  0  0  0  0  0
   72.8928   35.1173   54.6033 C   0  0  0  0  0  0  0  0  0  0  0  0
   73.6220   34.9891   55.7689 C   0  0  0  0  0  0  0  0  0  0  0  0
   76.9171   34.3147   56.9850 C   0  0  0  0  0  0  0  0  0  0  0  0
   75.7287   35.0375   56.8489 O   0  0  0  0  0  0  0  0  0  0  0  0
   70.9365   38.9518   58.5629 C   0  0  0  0  0  0  0  0  0  0  0  0
   69.6646   39.3271   58.4865 C   0  0  0  0  0  0  0  0  0  0  0  0
   69.4050   40.7786   58.6512 C   0  0  0  0  0  0  0  0  0  0  0  0
   70.0965   41.3650   59.7349 N   0  0  1  0  0  0  0  0  0  0  0  0
   71.4723   41.0251   59.8537 C   0  0  0  0  0  0  0  0  0  0  0  0
   71.9334   40.0387   58.8020 C   0  0  0  0  0  0  0  0  0  0  0  0
   69.6553   42.5806   60.2595 C   0  0  0  0  0  0  0  0  0  0  0  0
   68.5790   42.6267   61.2312 C   0  0  0  0  0  0  0  0  0  0  0  0
   67.7933   43.6521   61.0985 O   0  0  0  0  0  0  0  0  0  0  0  0
   68.2610   41.7571   62.2725 N   0  0  0  0  0  0  0  0  0  0  0  0
   67.1690   41.7460   63.2872 C   0  0  0  0  0  0  0  0  0  0  0  0
   67.2396   40.2402   63.1998 C   0  0  0  0  0  0  0  0  0  0  0  0
   67.0218   39.5425   64.3609 O   0  0  0  0  0  0  0  0  0  0  0  0
   68.7240   40.5659   62.9185 C   0  0  0  0  0  0  0  0  0  0  0  0
 17 18  1  0
 18 10  1  0
 10 11  2  0
 10 16  1  0
 11 12  1  0
 12 13  2  0
 13 14  1  0
 13 15  1  0
 15 16  2  0
 16  1  1  0
  1  2  2  0
  1  9  1  0
  2  3  1  0
  3  4  2  0
  4  5  1  0
  5  6  1  0
  5  9  2  0
  6  7  1  0
  7 19  1  0
  7  8  2  0
 19 20  2  0
 19 24  1  0
 20 21  1  0
 21 22  1  0
 22 25  1  6
 22 23  1  0
 25 26  1  0
 26 27  2  0
 26 28  1  0
 28 29  1  0
 28 32  1  0
 29 30  1  0
 30 31  1  0
 30 32  1  0
 23 24  1  0
  8  9  1  0
M  CHG  1  22   1
M  END
>  <minimizedAffinity>  (421) 
-8.59638

$$$$
data/200k_reference_output/data/smiles/72716.pdb
     RDKit          3D

 28 30  0  0  0  0  0  0  0  0999 V2000
   69.9482   50.5158   58.5075 C   0  0  0  0  0  0  0  0  0  0  0  0
   71.1627   49.9024   58.0471 N   0  0  0  0  0  0  0  0  0  0  0  0
   71.5209   49.9365   56.7002 C   0  0  0  0  0  0  0  0  0  0  0  0
   72.6075   49.3552   56.3525 O   0  0  0  0  0  0  0  0  0  0  0  0
   72.0024   49.2462   59.0427 C   0  0  0  0  0  0  0  0  0  0  0  0
   71.6827   47.8007   59.1482 C   0  0  0  0  0  0  0  0  0  0  0  0
   71.4218   47.3254   60.2812 O   0  0  0  0  0  0  0  0  0  0  0  0
   71.6645   46.9595   58.0239 N   0  0  0  0  0  0  0  0  0  0  0  0
   71.3657   45.5742   58.0643 C   0  0  0  0  0  0  0  0  0  0  0  0
   72.2726   44.6806   58.5849 C   0  0  0  0  0  0  0  0  0  0  0  0
   71.9989   43.3067   58.6325 C   0  0  0  0  0  0  0  0  0  0  0  0
   70.8038   42.8135   58.1551 C   0  0  0  0  0  0  0  0  0  0  0  0
   70.4459   41.0852   58.2037 Cl  0  0  0  0  0  0  0  0  0  0  0  0
   69.8985   43.7148   57.6340 C   0  0  0  0  0  0  0  0  0  0  0  0
   70.1752   45.0497   57.5924 C   0  0  0  0  0  0  0  0  0  0  0  0
   70.7736   50.5787   55.6092 C   0  0  0  0  0  0  0  0  0  0  0  0
   70.2486   49.6006   54.6663 N   0  0  0  0  0  0  0  0  0  0  0  0
   70.5641   49.7118   53.3641 N   0  0  0  0  0  0  0  0  0  0  0  0
   70.1189   48.8556   52.4291 C   0  0  0  0  0  0  0  0  0  0  0  0
   70.4350   48.9873   51.2037 O   0  0  0  0  0  0  0  0  0  0  0  0
   69.3004   47.7977   52.7572 C   0  0  0  0  0  0  0  0  0  0  0  0
   68.8237   46.8899   51.8068 C   0  0  0  0  0  0  0  0  0  0  0  0
   68.0061   45.8353   52.1560 C   0  0  0  0  0  0  0  0  0  0  0  0
   67.6788   45.7210   53.5050 C   0  0  0  0  0  0  0  0  0  0  0  0
   68.1479   46.6185   54.4583 C   0  0  0  0  0  0  0  0  0  0  0  0
   68.9613   47.6585   54.0845 C   0  0  0  0  0  0  0  0  0  0  0  0
   69.4565   48.5810   55.0041 C   0  0  0  0  0  0  0  0  0  0  0  0
   69.1281   48.4229   56.1969 O   0  0  0  0  0  0  0  0  0  0  0  0
  1  2  1  0
  2  5  1  0
  2  3  1  0
  5  6  1  0
  6  7  2  0
  6  8  1  0
  8  9  1  0
  9 10  2  0
  9 15  1  0
 10 11  1  0
 11 12  2  0
 12 13  1  0
 12 14  1  0
 14 15  2  0
  3  4  2  0
  3 16  1  0
 16 17  1  0
 17 18  1  0
 17 27  1  0
 18 19  1  0
 19 20  2  0
 19 21  1  0
 21 22  2  0
 21 26  1  0
 22 23  1  0
 23 24  2  0
 24 25  1  0
 25 26  2  0
 26 27  1  0
 27 28  2  0
M  END
>  <minimizedAffinity>  (422) 
-8.59513

$$$$
data/200k_reference_output/data/smiles/38691.pdb
     RDKit          3D

 30 33  0  0  0  0  0  0  0  0999 V2000
   70.4775   44.5680   58.5966 C   0  0  0  0  0  0  0  0  0  0  0  0
   69.5908   44.1267   59.5041 N   0  0  0  0  0  0  0  0  0  0  0  0
   69.7194   42.9086   60.1104 C   0  0  0  0  0  0  0  0  0  0  0  0
   70.7697   42.0630   59.8206 C   0  0  0  0  0  0  0  0  0  0  0  0
   70.9232   40.8247   60.4202 C   0  0  0  0  0  0  0  0  0  0  0  0
   71.9754   39.9798   60.1296 C   0  0  0  0  0  0  0  0  0  0  0  0
   72.9007   40.4166   59.1954 C   0  0  0  0  0  0  0  0  0  0  0  0
   72.7463   41.6549   58.5964 C   0  0  0  0  0  0  0  0  0  0  0  0
   71.6922   42.4930   58.8932 C   0  0  0  0  0  0  0  0  0  0  0  0
   71.5345   43.7341   58.2958 C   0  0  0  0  0  0  0  0  0  0  0  0
   72.4510   44.1745   57.3657 O   0  0  0  0  0  0  0  0  0  0  0  0
   68.7741   42.4522   61.0741 N   0  0  0  0  0  0  0  0  0  0  0  0
   69.1062   42.5195   62.4731 C   0  0  0  0  0  0  0  0  0  0  0  0
   67.8862   42.2256   63.3049 C   0  0  0  0  0  0  0  0  0  0  0  0
   67.3936   40.8189   63.1414 C   0  0  0  0  0  0  0  0  0  0  0  0
   66.7729   40.5473   61.7913 C   0  0  0  0  0  0  0  0  0  0  0  0
   67.2369   41.8135   60.6348 S   0  0  0  0  0  0  0  0  0  0  0  0
   67.2222   41.3233   59.2204 O   0  0  0  0  0  0  0  0  0  0  0  0
   66.2510   42.9702   60.7236 O   0  0  0  0  0  0  0  0  0  0  0  0
   71.1973   46.7576   58.1775 O   0  0  0  0  0  0  0  0  0  0  0  0
   70.3444   45.8719   57.9363 C   0  0  0  0  0  0  0  0  0  0  0  0
   69.3031   46.1852   57.0428 N   0  0  0  0  0  0  0  0  0  0  0  0
   69.0890   47.4266   56.3583 C   0  0  0  0  0  0  0  0  0  0  0  0
   68.8244   47.1212   54.9262 C   0  0  0  0  0  0  0  0  0  0  0  0
   69.3836   48.0084   54.0148 C   0  0  0  0  0  0  0  0  0  0  0  0
   69.2178   47.8474   52.6505 C   0  0  0  0  0  0  0  0  0  0  0  0
   68.4841   46.7859   52.1699 C   0  0  0  0  0  0  0  0  0  0  0  0
   67.9378   45.9164   53.0964 C   0  0  0  0  0  0  0  0  0  0  0  0
   67.2043   44.8517   52.6381 F   0  0  0  0  0  0  0  0  0  0  0  0
   68.0971   46.0686   54.4629 C   0  0  0  0  0  0  0  0  0  0  0  0
 20 21  2  0
 21 22  1  0
 21  1  1  0
 22 23  1  0
 23 24  1  0
 24 25  2  0
 24 30  1  0
 25 26  1  0
 26 27  2  0
 27 28  1  0
 28 29  1  0
 28 30  2  0
  1  2  2  0
  1 10  1  0
  2  3  1  0
  3 12  1  0
  3  4  2  0
 12 13  1  0
 12 17  1  0
 13 14  1  0
 14 15  1  0
 15 16  1  0
 16 17  1  0
 17 18  2  0
 17 19  2  0
  4  5  1  0
  4  9  1  0
  5  6  2  0
  6  7  1  0
  7  8  2  0
  8  9  1  0
  9 10  2  0
 10 11  1  0
M  END
>  <minimizedAffinity>  (423) 
-8.59442

$$$$
data/200k_reference_output/data/smiles/19235.pdb
     RDKit          3D

 27 28  0  0  0  0  0  0  0  0999 V2000
   68.3369   49.6382   56.7926 O   0  0  0  0  0  0  0  0  0  0  0  0
   68.5876   48.0798   56.7019 S   0  0  0  0  0  0  0  0  0  0  0  0
   67.2696   47.5256   57.2099 O   0  0  0  0  0  0  0  0  0  0  0  0
   68.7963   47.7015   55.0338 C   0  0  0  0  0  0  0  0  0  0  0  0
   68.3631   46.4966   54.5469 C   0  0  0  0  0  0  0  0  0  0  0  0
   67.8413   45.5484   55.3977 F   0  0  0  0  0  0  0  0  0  0  0  0
   68.4468   46.1759   53.1833 C   0  0  0  0  0  0  0  0  0  0  0  0
   67.9977   45.0135   52.6736 F   0  0  0  0  0  0  0  0  0  0  0  0
   68.9996   47.1194   52.2995 C   0  0  0  0  0  0  0  0  0  0  0  0
   69.0904   46.8387   50.9931 F   0  0  0  0  0  0  0  0  0  0  0  0
   69.4350   48.3374   52.8085 C   0  0  0  0  0  0  0  0  0  0  0  0
   69.9629   49.2553   51.9055 F   0  0  0  0  0  0  0  0  0  0  0  0
   69.3430   48.6312   54.1150 C   0  0  0  0  0  0  0  0  0  0  0  0
   69.7275   49.8389   54.5891 F   0  0  0  0  0  0  0  0  0  0  0  0
   69.8485   47.7198   57.8127 C   0  0  0  0  0  0  0  0  0  0  0  0
   70.4206   46.3985   57.8118 C   0  0  0  0  0  0  0  0  0  0  0  0
   70.8949   45.2573   57.8146 C   0  0  0  0  0  0  0  0  0  0  0  0
   71.4391   43.9478   57.8210 C   0  0  0  0  0  0  0  0  0  0  0  0
   72.8591   43.9434   58.1086 C   0  0  0  0  0  0  0  0  0  0  0  0
   73.5626   42.8331   58.3990 C   0  0  0  0  0  0  0  0  0  0  0  0
   72.9265   41.6235   58.4294 C   0  0  0  0  0  0  0  0  0  0  0  0
   71.5813   41.5887   58.1635 C   0  0  0  0  0  0  0  0  0  0  0  0
   70.8411   42.7519   57.8524 C   0  0  0  0  0  0  0  0  0  0  0  0
   69.5526   42.5949   57.2754 C   0  0  0  0  0  0  0  0  0  0  0  0
   68.4966   42.4662   56.7857 C   0  0  0  0  0  0  0  0  0  0  0  0
   67.1634   42.3178   56.1777 C   0  0  0  0  0  0  0  0  0  0  0  0
   67.0718   41.1297   55.4331 O   0  0  0  0  0  0  0  0  0  0  0  0
  1  2  2  0
  2  3  2  0
  2 15  1  0
  2  4  1  0
 15 16  1  0
 16 17  3  0
 17 18  1  0
 18 19  2  0
 18 23  1  0
 19 20  1  0
 20 21  2  0
 21 22  1  0
 22 23  2  0
 23 24  1  0
 24 25  3  0
 25 26  1  0
 26 27  1  0
  4  5  2  0
  4 13  1  0
  5  6  1  0
  5  7  1  0
  7  8  1  0
  7  9  2  0
  9 10  1  0
  9 11  1  0
 11 12  1  0
 11 13  2  0
 13 14  1  0
M  END
>  <minimizedAffinity>  (424) 
-8.59420

$$$$
data/200k_reference_output/data/smiles/6121.pdb
     RDKit          3D

 28 31  0  0  0  0  0  0  0  0999 V2000
   70.3573   50.4345   54.4741 N   0  0  0  0  0  0  0  0  0  0  0  0
   69.1751   50.4900   55.2480 C   0  0  0  0  0  0  0  0  0  0  0  0
   69.2168   49.8793   56.6018 C   0  0  0  0  0  0  0  0  0  0  0  0
   70.5375   49.4735   56.9617 N   0  0  0  0  0  0  0  0  0  0  0  0
   71.5744   50.4063   56.6187 C   0  0  0  0  0  0  0  0  0  0  0  0
   71.5958   50.5900   55.1272 C   0  0  0  0  0  0  0  0  0  0  0  0
   71.7321   49.0822   52.7380 O   0  0  0  0  0  0  0  0  0  0  0  0
   70.3251   49.4846   53.0861 S   0  0  0  0  0  0  0  0  0  0  0  0
   69.8038   50.2850   51.9127 O   0  0  0  0  0  0  0  0  0  0  0  0
   69.3851   48.0203   53.2304 C   0  0  0  0  0  0  0  0  0  0  0  0
   69.1235   47.4454   54.4443 C   0  0  0  0  0  0  0  0  0  0  0  0
   68.3794   46.2936   54.5336 C   0  0  0  0  0  0  0  0  0  0  0  0
   67.8859   45.7041   53.3931 C   0  0  0  0  0  0  0  0  0  0  0  0
   67.1448   44.5591   53.4676 F   0  0  0  0  0  0  0  0  0  0  0  0
   68.1467   46.2807   52.1603 C   0  0  0  0  0  0  0  0  0  0  0  0
   68.8951   47.4362   52.0895 C   0  0  0  0  0  0  0  0  0  0  0  0
   70.6495   48.9517   58.2946 C   0  0  0  0  0  0  0  0  0  0  0  0
   71.0350   47.4974   58.2167 C   0  0  0  0  0  0  0  0  0  0  0  0
   72.3457   47.1259   58.4668 C   0  0  0  0  0  0  0  0  0  0  0  0
   72.7508   45.8168   58.4113 C   0  0  0  0  0  0  0  0  0  0  0  0
   71.7989   44.8583   58.0915 C   0  0  0  0  0  0  0  0  0  0  0  0
   72.1533   43.5382   58.0223 C   0  0  0  0  0  0  0  0  0  0  0  0
   71.1974   42.6074   57.7051 C   0  0  0  0  0  0  0  0  0  0  0  0
   69.9014   43.0087   57.4609 C   0  0  0  0  0  0  0  0  0  0  0  0
   69.5368   44.2958   57.5241 N   0  0  0  0  0  0  0  0  0  0  0  0
   70.4733   45.2112   57.8355 C   0  0  0  0  0  0  0  0  0  0  0  0
   70.1036   46.5383   57.9017 C   0  0  0  0  0  0  0  0  0  0  0  0
   68.7946   46.9554   57.6569 O   0  0  0  0  0  0  0  0  0  0  0  0
  7  8  2  0
  8  9  2  0
  8 10  1  0
  8  1  1  0
 10 11  2  0
 10 16  1  0
 11 12  1  0
 12 13  2  0
 13 14  1  0
 13 15  1  0
 15 16  2  0
  1  2  1  0
  1  6  1  0
  2  3  1  0
  3  4  1  0
  4 17  1  0
  4  5  1  0
 17 18  1  0
 18 19  2  0
 18 27  1  0
 19 20  1  0
 20 21  2  0
 21 22  1  0
 21 26  1  0
 22 23  2  0
 23 24  1  0
 24 25  2  0
 25 26  1  0
 26 27  2  0
 27 28  1  0
  5  6  1  0
M  CHG  1   4   1
M  END
>  <minimizedAffinity>  (425) 
-8.59387

$$$$
data/reference_output_2/data/smiles/151490.pdb
     RDKit          3D

 28 31  0  0  0  0  0  0  0  0999 V2000
   73.3993   34.9552   54.4917 C   0  0  0  0  0  0  0  0  0  0  0  0
   74.2824   33.9088   54.3972 C   0  0  0  0  0  0  0  0  0  0  0  0
   74.6454   33.3881   53.1627 C   0  0  0  0  0  0  0  0  0  0  0  0
   74.1750   33.8563   52.0106 N   0  0  0  0  0  0  0  0  0  0  0  0
   73.2942   34.8993   52.1162 C   0  0  0  0  0  0  0  0  0  0  0  0
   72.9023   35.4496   53.3091 C   0  0  0  0  0  0  0  0  0  0  0  0
   73.8275   35.6384   56.8283 C   0  0  0  0  0  0  0  0  0  0  0  0
   73.0221   35.4967   55.8068 C   0  0  0  0  0  0  0  0  0  0  0  0
   74.3372   36.0596   59.0721 O   0  0  0  0  0  0  0  0  0  0  0  0
   73.4790   36.1671   58.1298 C   0  0  0  0  0  0  0  0  0  0  0  0
   72.2138   36.8145   58.4416 C   0  0  0  0  0  0  0  0  0  0  0  0
   71.3098   36.3760   59.4239 C   0  0  0  0  0  0  0  0  0  0  0  0
   70.2470   37.2391   59.4183 C   0  0  0  0  0  0  0  0  0  0  0  0
   69.0723   37.2991   60.1647 C   0  0  0  0  0  0  0  0  0  0  0  0
   68.1601   38.3048   59.9358 C   0  0  0  0  0  0  0  0  0  0  0  0
   68.3998   39.2585   58.9702 C   0  0  0  0  0  0  0  0  0  0  0  0
   69.5668   39.1782   58.2456 C   0  0  0  0  0  0  0  0  0  0  0  0
   70.5133   38.1779   58.4463 C   0  0  0  0  0  0  0  0  0  0  0  0
   71.6581   37.8779   57.9239 O   0  0  0  0  0  0  0  0  0  0  0  0
   74.5513   33.3643   50.7057 C   0  0  0  0  0  0  0  0  0  0  0  0
   75.6587   34.1159   50.0708 C   0  0  0  0  0  0  0  0  0  0  0  0
   76.4983   34.8813   50.9004 C   0  0  0  0  0  0  0  0  0  0  0  0
   77.5761   35.5932   50.4298 C   0  0  0  0  0  0  0  0  0  0  0  0
   77.8915   35.5917   49.0908 C   0  0  0  0  0  0  0  0  0  0  0  0
   77.0805   34.8491   48.2681 C   0  0  0  0  0  0  0  0  0  0  0  0
   77.4637   34.8300   46.5545 Cl  0  0  0  0  0  0  0  0  0  0  0  0
   75.9781   34.1195   48.7432 C   0  0  0  0  0  0  0  0  0  0  0  0
   74.9930   33.2425   47.5882 Cl  0  0  0  0  0  0  0  0  0  0  0  0
  9 10  2  0
 10  7  1  0
 10 11  1  0
  7  8  2  0
  8  1  1  0
  1  2  2  0
  1  6  1  0
  2  3  1  0
  3  4  2  0
  4 20  1  0
  4  5  1  0
 20 21  1  0
 21 22  2  0
 21 27  1  0
 22 23  1  0
 23 24  2  0
 24 25  1  0
 25 26  1  0
 25 27  2  0
 27 28  1  0
  5  6  2  0
 11 12  2  0
 11 19  1  0
 12 13  1  0
 13 14  2  0
 13 18  1  0
 14 15  1  0
 15 16  2  0
 16 17  1  0
 17 18  2  0
 18 19  1  0
M  CHG  1   4   1
M  END
>  <minimizedAffinity>  (426) 
-8.59358

$$$$
data/reference_output_2/data/smiles/173171.pdb
     RDKit          3D

 24 25  0  0  0  0  0  0  0  0999 V2000
   68.9466   47.6721   52.6710 C   0  0  0  0  0  0  0  0  0  0  0  0
   68.3656   47.1609   51.5141 C   0  0  0  0  0  0  0  0  0  0  0  0
   67.6382   45.9915   51.5696 C   0  0  0  0  0  0  0  0  0  0  0  0
   67.0695   45.4961   50.4239 F   0  0  0  0  0  0  0  0  0  0  0  0
   67.4953   45.3411   52.7713 C   0  0  0  0  0  0  0  0  0  0  0  0
   66.7758   44.1830   52.8286 F   0  0  0  0  0  0  0  0  0  0  0  0
   68.0884   45.8740   53.9203 C   0  0  0  0  0  0  0  0  0  0  0  0
   68.8174   47.0395   53.8863 C   0  0  0  0  0  0  0  0  0  0  0  0
   69.8102   49.7748   50.9292 N   0  0  0  0  0  0  0  0  0  0  0  0
   69.8543   49.1471   52.5599 S   0  0  0  0  0  0  0  0  0  0  0  0
   69.3564   50.1850   53.5235 O   0  0  0  0  0  0  0  0  0  0  0  0
   71.2993   48.8917   52.8687 O   0  0  0  0  0  0  0  0  0  0  0  0
   69.4199   47.5788   55.0450 N   0  0  0  0  0  0  0  0  0  0  0  0
   69.1046   47.0123   56.6443 S   0  0  0  0  0  0  0  0  0  0  0  0
   69.1594   45.5325   56.7354 O   0  0  0  0  0  0  0  0  0  0  0  0
   67.7452   47.4729   57.0821 O   0  0  0  0  0  0  0  0  0  0  0  0
   70.2865   47.6416   57.7950 C   0  0  0  0  0  0  0  0  0  0  0  0
   70.9508   46.7891   58.6520 C   0  0  0  0  0  0  0  0  0  0  0  0
   71.8848   47.2157   59.5708 C   0  0  0  0  0  0  0  0  0  0  0  0
   72.1450   48.5675   59.6079 C   0  0  0  0  0  0  0  0  0  0  0  0
   71.4994   49.4491   58.7639 C   0  0  0  0  0  0  0  0  0  0  0  0
   71.8626   51.1802   58.8430 Cl  0  0  0  0  0  0  0  0  0  0  0  0
   70.5720   48.9838   57.8609 C   0  0  0  0  0  0  0  0  0  0  0  0
   69.7440   50.0875   56.7846 Cl  0  0  0  0  0  0  0  0  0  0  0  0
  9 10  1  0
 10 11  2  0
 10 12  2  0
 10  1  1  0
  1  2  2  0
  1  8  1  0
  2  3  1  0
  3  4  1  0
  3  5  2  0
  5  6  1  0
  5  7  1  0
  7  8  2  0
  8 13  1  0
 13 14  1  0
 14 15  2  0
 14 16  2  0
 14 17  1  0
 17 18  2  0
 17 23  1  0
 18 19  1  0
 19 20  2  0
 20 21  1  0
 21 22  1  0
 21 23  2  0
 23 24  1  0
M  END
>  <minimizedAffinity>  (427) 
-8.59223

$$$$
data/200k_reference_output/data/smiles/278.pdb
     RDKit          3D

 31 33  0  0  0  0  0  0  0  0999 V2000
   70.3472   47.2403   57.6850 C   0  0  0  0  0  0  0  0  0  0  0  0
   70.9279   47.9125   56.7800 O   0  0  0  0  0  0  0  0  0  0  0  0
   68.9269   47.1519   57.5588 N   0  0  0  0  0  0  0  0  0  0  0  0
   68.1801   47.7778   56.4824 C   0  0  2  0  0  0  0  0  0  0  0  0
   68.3114   47.0410   55.2167 C   0  0  0  0  0  0  0  0  0  0  0  0
   67.8752   45.8435   55.3258 O   0  0  0  0  0  0  0  0  0  0  0  0
   68.7896   47.3160   53.9338 N   0  0  0  0  0  0  0  0  0  0  0  0
   68.5045   46.3240   52.9144 C   0  0  0  0  0  0  0  0  0  0  0  0
   69.5081   48.4462   53.5452 N   0  0  0  0  0  0  0  0  0  0  0  0
   69.6098   49.5751   54.1626 C   0  0  0  0  0  0  0  0  0  0  0  0
   69.0247   50.0282   55.4291 C   0  0  0  0  0  0  0  0  0  0  0  0
   69.1362   51.3957   55.5776 C   0  0  0  0  0  0  0  0  0  0  0  0
   68.6534   52.0374   56.6974 C   0  0  0  0  0  0  0  0  0  0  0  0
   68.0569   51.2470   57.6562 C   0  0  0  0  0  0  0  0  0  0  0  0
   67.9448   49.8800   57.5083 C   0  0  0  0  0  0  0  0  0  0  0  0
   68.4301   49.2252   56.3813 C   0  0  0  0  0  0  0  0  0  0  0  0
   72.4139   47.2780   59.0551 C   0  0  0  0  0  0  0  0  0  0  0  0
   71.0959   46.5889   58.7987 C   0  0  2  0  0  0  0  0  0  0  0  0
   71.3997   45.2377   58.3608 N   0  0  0  0  0  0  0  0  0  0  0  0
   70.6169   44.1086   58.7642 C   0  0  0  0  0  0  0  0  0  0  0  0
   69.6500   44.3781   59.5252 O   0  0  0  0  0  0  0  0  0  0  0  0
   70.8886   42.7414   58.3462 C   0  0  2  0  0  0  0  0  0  0  0  0
   71.9206   42.6322   57.4155 O   0  0  0  0  0  0  0  0  0  0  0  0
   69.6970   42.1821   57.6662 C   0  0  0  0  0  0  0  0  0  0  0  0
   69.3672   40.8421   57.9200 C   0  0  0  0  0  0  0  0  0  0  0  0
   68.2737   40.2581   57.3143 C   0  0  0  0  0  0  0  0  0  0  0  0
   67.9202   38.9566   57.5362 F   0  0  0  0  0  0  0  0  0  0  0  0
   67.4709   40.9679   56.4392 C   0  0  0  0  0  0  0  0  0  0  0  0
   67.7948   42.2795   56.1917 C   0  0  0  0  0  0  0  0  0  0  0  0
   66.9940   42.9624   55.3288 F   0  0  0  0  0  0  0  0  0  0  0  0
   68.8919   42.8736   56.7964 C   0  0  0  0  0  0  0  0  0  0  0  0
 18 17  1  6
 18 19  1  0
 18  1  1  0
 19 20  1  0
 20 21  2  0
 20 22  1  0
 22 23  1  6
 22 24  1  0
 24 25  2  0
 24 31  1  0
 25 26  1  0
 26 27  1  0
 26 28  2  0
 28 29  1  0
 29 30  1  0
 29 31  2  0
  1  2  2  0
  1  3  1  0
  4  3  1  1
  4  5  1  0
  4 16  1  0
  5  6  2  0
  5  7  1  0
  7  8  1  0
  7  9  1  0
  9 10  2  0
 10 11  1  0
 11 12  1  0
 11 16  2  0
 12 13  2  0
 13 14  1  0
 14 15  2  0
 15 16  1  0
M  END
>  <minimizedAffinity>  (428) 
-8.59076

$$$$
data/200k_reference_output/data/smiles/23449.pdb
     RDKit          3D

 26 27  0  0  0  0  0  0  0  0999 V2000
   68.7549   48.3449   56.8787 S   0  0  0  0  0  0  0  0  0  0  0  0
   68.4950   49.7016   57.4460 O   0  0  0  0  0  0  0  0  0  0  0  0
   67.5308   47.4993   56.9569 O   0  0  0  0  0  0  0  0  0  0  0  0
   70.0411   47.5216   57.7694 C   0  0  0  0  0  0  0  0  0  0  0  0
   70.2144   46.2218   57.7049 C   0  0  0  0  0  0  0  0  0  0  0  0
   71.2622   45.5169   58.4256 C   0  0  0  0  0  0  0  0  0  0  0  0
   71.8397   45.9603   59.5864 C   0  0  0  0  0  0  0  0  0  0  0  0
   72.8420   45.2189   60.2139 C   0  0  0  0  0  0  0  0  0  0  0  0
   73.2704   44.0325   59.6833 C   0  0  0  0  0  0  0  0  0  0  0  0
   72.6887   43.5859   58.5146 C   0  0  0  0  0  0  0  0  0  0  0  0
   71.7083   44.3202   57.9089 C   0  0  0  0  0  0  0  0  0  0  0  0
   73.1107   42.3017   57.8860 C   0  0  0  0  0  0  0  0  0  0  0  0
   73.6973   42.6221   56.6820 F   0  0  0  0  0  0  0  0  0  0  0  0
   74.0229   41.6441   58.6598 F   0  0  0  0  0  0  0  0  0  0  0  0
   72.0003   41.4972   57.7013 F   0  0  0  0  0  0  0  0  0  0  0  0
   69.3002   48.5020   55.2510 N   0  0  0  0  0  0  0  0  0  0  0  0
   69.1358   47.8129   52.9259 C   0  0  0  0  0  0  0  0  0  0  0  0
   68.7143   46.9295   51.9806 C   0  0  0  0  0  0  0  0  0  0  0  0
   68.0171   45.8109   52.3644 C   0  0  0  0  0  0  0  0  0  0  0  0
   67.7268   45.5502   53.6746 C   0  0  0  0  0  0  0  0  0  0  0  0
   68.1564   46.4501   54.6302 C   0  0  0  0  0  0  0  0  0  0  0  0
   68.8646   47.5874   54.2652 C   0  0  0  0  0  0  0  0  0  0  0  0
   69.2912   50.6330   53.1246 N   0  0  0  0  0  0  0  0  0  0  0  0
   70.0237   49.2378   52.4600 S   0  0  0  0  0  0  0  0  0  0  0  0
   70.0572   49.3676   50.9533 O   0  0  0  0  0  0  0  0  0  0  0  0
   71.4428   49.1783   52.9692 O   0  0  0  0  0  0  0  0  0  0  0  0
 23 24  1  0
 24 25  2  0
 24 26  2  0
 24 17  1  0
 17 18  2  0
 17 22  1  0
 18 19  1  0
 19 20  2  0
 20 21  1  0
 21 22  2  0
 22 16  1  0
 16  1  1  0
  1  2  2  0
  1  3  2  0
  1  4  1  0
  4  5  2  0
  5  6  1  0
  6  7  2  0
  6 11  1  0
  7  8  1  0
  8  9  2  0
  9 10  1  0
 10 12  1  0
 10 11  2  0
 12 13  1  0
 12 14  1  0
 12 15  1  0
M  END
>  <minimizedAffinity>  (429) 
-8.59076

$$$$
data/200k_reference_output/data/smiles/21875.pdb
     RDKit          3D

 30 33  0  0  0  0  0  0  0  0999 V2000
   69.6215   44.3873   59.3248 O   0  0  0  0  0  0  0  0  0  0  0  0
   70.6506   44.9639   58.9418 C   0  0  0  0  0  0  0  0  0  0  0  0
   71.8931   44.5277   59.4175 N   0  0  0  0  0  0  0  0  0  0  0  0
   73.1023   45.1802   58.9898 C   0  0  0  0  0  0  0  0  0  0  0  0
   73.8985   45.6231   60.1619 C   0  0  0  0  0  0  0  0  0  0  0  0
   73.5213   45.0700   61.4362 N   0  0  0  0  0  0  0  0  0  0  0  0
   72.5579   44.0247   61.6369 C   0  0  0  0  0  0  0  0  0  0  0  0
   72.0240   43.4311   60.3397 C   0  0  0  0  0  0  0  0  0  0  0  0
   74.1783   45.6154   62.5805 C   0  0  0  0  0  0  0  0  0  0  0  0
   75.0258   44.8328   63.3718 C   0  0  0  0  0  0  0  0  0  0  0  0
   75.6761   45.2852   64.4742 C   0  0  0  0  0  0  0  0  0  0  0  0
   75.4995   46.5947   64.8502 C   0  0  0  0  0  0  0  0  0  0  0  0
   74.6922   47.4140   64.1305 C   0  0  0  0  0  0  0  0  0  0  0  0
   74.0421   46.9153   63.0059 C   0  0  0  0  0  0  0  0  0  0  0  0
   73.2579   47.7846   62.3349 F   0  0  0  0  0  0  0  0  0  0  0  0
   70.5284   46.0976   57.9912 C   0  0  0  0  0  0  0  0  0  0  0  0
   69.3447   45.9537   57.1695 N   0  0  0  0  0  0  0  0  0  0  0  0
   68.8408   47.4289   56.5803 S   0  0  0  0  0  0  0  0  0  0  0  0
   67.3440   47.5717   56.8464 O   0  0  0  0  0  0  0  0  0  0  0  0
   69.4463   48.4667   57.5363 O   0  0  0  0  0  0  0  0  0  0  0  0
   69.1839   47.9187   55.0097 C   0  0  0  0  0  0  0  0  0  0  0  0
   69.9198   49.0560   54.7610 C   0  0  0  0  0  0  0  0  0  0  0  0
   70.2084   49.4702   53.4773 C   0  0  0  0  0  0  0  0  0  0  0  0
   69.7633   48.7502   52.4047 C   0  0  0  0  0  0  0  0  0  0  0  0
   69.0210   47.6010   52.6150 C   0  0  0  0  0  0  0  0  0  0  0  0
   68.5483   46.8397   51.5663 C   0  0  0  0  0  0  0  0  0  0  0  0
   67.8293   45.7295   51.8251 N   0  0  0  0  0  0  0  0  0  0  0  0
   67.5521   45.3313   53.0784 C   0  0  0  0  0  0  0  0  0  0  0  0
   68.0191   46.0849   54.1303 C   0  0  0  0  0  0  0  0  0  0  0  0
   68.7485   47.2130   53.9110 C   0  0  0  0  0  0  0  0  0  0  0  0
  1  2  2  0
  2 16  1  0
  2  3  1  0
 16 17  1  0
 17 18  1  0
 18 19  2  0
 18 20  2  0
 18 21  1  0
 21 22  2  0
 21 30  1  0
 22 23  1  0
 23 24  2  0
 24 25  1  0
 25 26  1  0
 25 30  2  0
 26 27  2  0
 27 28  1  0
 28 29  2  0
 29 30  1  0
  3  4  1  0
  3  8  1  0
  4  5  1  0
  5  6  1  0
  6  9  1  0
  6  7  1  0
  9 10  2  0
  9 14  1  0
 10 11  1  0
 11 12  2  0
 12 13  1  0
 13 14  2  0
 14 15  1  0
  7  8  1  0
M  END
>  <minimizedAffinity>  (430) 
-8.58875

$$$$
data/reference_output_2/data/smiles/96896.pdb
     RDKit          3D

 31 34  0  0  0  0  0  0  0  0999 V2000
   70.3470   41.3298   59.5155 C   0  0  0  0  0  0  0  0  0  0  0  0
   70.2062   41.1339   60.7360 O   0  0  0  0  0  0  0  0  0  0  0  0
   69.2705   41.8229   58.7532 N   0  0  0  0  0  0  0  0  0  0  0  0
   67.9562   42.1357   59.2960 C   0  0  0  0  0  0  0  0  0  0  0  0
   67.0931   41.3310   58.3105 C   0  0  0  0  0  0  0  0  0  0  0  0
   67.6906   41.7909   56.9934 C   0  0  0  0  0  0  0  0  0  0  0  0
   69.1435   42.1299   57.3435 C   0  0  1  0  0  0  0  0  0  0  0  0
   71.1575   38.5862   58.2844 C   0  0  0  0  0  0  0  0  0  0  0  0
   70.0763   38.9120   57.6966 O   0  0  0  0  0  0  0  0  0  0  0  0
   71.9343   39.6188   58.8694 N   0  0  0  0  0  0  0  0  0  0  0  0
   73.1831   39.3839   59.5652 C   0  0  0  0  0  0  0  0  0  0  0  0
   73.9036   40.7131   59.2931 C   0  0  0  0  0  0  0  0  0  0  0  0
   72.7867   41.6851   59.6135 C   0  0  0  0  0  0  0  0  0  0  0  0
   71.6305   41.0471   58.8738 C   0  0  2  0  0  0  0  0  0  0  0  0
   70.0863   37.0124   60.3209 C   0  0  0  0  0  0  0  0  0  0  0  0
   71.0333   36.4049   59.3408 C   0  0  0  0  0  0  0  0  0  0  0  0
   71.3434   35.0710   59.4853 C   0  0  0  0  0  0  0  0  0  0  0  0
   72.2251   34.5061   58.5734 C   0  0  0  0  0  0  0  0  0  0  0  0
   72.7735   35.2539   57.5519 C   0  0  0  0  0  0  0  0  0  0  0  0
   72.4184   36.5839   57.4672 C   0  0  0  0  0  0  0  0  0  0  0  0
   71.5572   37.1898   58.3379 C   0  0  0  0  0  0  0  0  0  0  0  0
   69.3249   43.5625   57.0268 C   0  0  0  0  0  0  0  0  0  0  0  0
   70.3395   44.1066   57.5723 O   0  0  0  0  0  0  0  0  0  0  0  0
   68.5033   44.3403   56.2067 N   0  0  0  0  0  0  0  0  0  0  0  0
   68.7166   45.7350   55.9217 C   0  0  0  0  0  0  0  0  0  0  0  0
   68.5290   46.1014   54.5029 C   0  0  0  0  0  0  0  0  0  0  0  0
   67.8214   45.3591   53.5857 C   0  0  0  0  0  0  0  0  0  0  0  0
   67.6810   45.7472   52.2635 C   0  0  0  0  0  0  0  0  0  0  0  0
   68.2347   46.8716   51.8291 N   0  0  0  0  0  0  0  0  0  0  0  0
   68.9485   47.6538   52.6831 C   0  0  0  0  0  0  0  0  0  0  0  0
   69.0958   47.2786   54.0014 C   0  0  0  0  0  0  0  0  0  0  0  0
 15 16  1  0
 16 17  2  0
 16 21  1  0
 17 18  1  0
 18 19  2  0
 19 20  1  0
 20 21  2  0
 21  8  1  0
  8  9  2  0
  8 10  1  0
 10 11  1  0
 10 14  1  0
 11 12  1  0
 12 13  1  0
 13 14  1  0
 14  1  1  1
  1  2  2  0
  1  3  1  0
  3  4  1  0
  3  7  1  0
  4  5  1  0
  5  6  1  0
  6  7  1  0
  7 22  1  1
 22 23  2  0
 22 24  1  0
 24 25  1  0
 25 26  1  0
 26 27  2  0
 26 31  1  0
 27 28  1  0
 28 29  2  0
 29 30  1  0
 30 31  2  0
M  END
>  <minimizedAffinity>  (431) 
-8.58768

$$$$
data/reference_output_2/data/smiles/140834.pdb
     RDKit          3D

 26 28  0  0  0  0  0  0  0  0999 V2000
   69.1117   47.7721   57.3315 C   0  0  0  0  0  0  0  0  0  0  0  0
   70.0177   46.7642   57.9355 C   0  0  0  0  0  0  0  0  0  0  0  0
   69.8146   45.4656   57.7891 N   0  0  0  0  0  0  0  0  0  0  0  0
   70.7667   44.7156   58.4285 N   0  0  0  0  0  0  0  0  0  0  0  0
   71.6686   45.6084   59.0474 C   0  0  0  0  0  0  0  0  0  0  0  0
   72.6609   45.2659   59.7286 O   0  0  0  0  0  0  0  0  0  0  0  0
   71.2172   46.9816   58.7367 C   0  0  0  0  0  0  0  0  0  0  0  0
   70.8077   43.2709   58.4446 C   0  0  0  0  0  0  0  0  0  0  0  0
   71.9381   42.6004   58.0349 C   0  0  0  0  0  0  0  0  0  0  0  0
   71.9880   41.2060   58.0464 C   0  0  0  0  0  0  0  0  0  0  0  0
   70.9049   40.4630   58.4690 C   0  0  0  0  0  0  0  0  0  0  0  0
   70.9526   38.5461   58.4930 Br  0  0  0  0  0  0  0  0  0  0  0  0
   69.7696   41.1292   58.8801 C   0  0  0  0  0  0  0  0  0  0  0  0
   69.7369   42.5106   58.8628 C   0  0  0  0  0  0  0  0  0  0  0  0
   68.2359   47.3625   56.3749 O   0  0  0  0  0  0  0  0  0  0  0  0
   69.3662   47.8549   52.9800 C   0  0  0  0  0  0  0  0  0  0  0  0
   68.7463   46.8222   52.2967 C   0  0  0  0  0  0  0  0  0  0  0  0
   68.9744   46.7285   50.9690 F   0  0  0  0  0  0  0  0  0  0  0  0
   67.9353   45.9448   52.9745 C   0  0  0  0  0  0  0  0  0  0  0  0
   67.7463   46.1080   54.3551 C   0  0  0  0  0  0  0  0  0  0  0  0
   68.3399   47.1173   55.0738 C   0  0  0  0  0  0  0  0  0  0  0  0
   69.1622   47.9874   54.3272 C   0  0  0  0  0  0  0  0  0  0  0  0
   69.7634   48.9934   55.0048 F   0  0  0  0  0  0  0  0  0  0  0  0
   69.7783   49.5029   51.1130 N   0  0  0  0  0  0  0  0  0  0  0  0
   70.2318   48.7847   52.2403 C   0  0  0  0  0  0  0  0  0  0  0  0
   71.4170   48.9615   52.6032 O   0  0  0  0  0  0  0  0  0  0  0  0
 24 25  1  0
 25 26  2  0
 25 16  1  0
 16 17  2  0
 16 22  1  0
 17 18  1  0
 17 19  1  0
 19 20  2  0
 20 21  1  0
 21 15  1  0
 21 22  2  0
 15  1  1  0
  1  2  1  0
  2  3  2  0
  2  7  1  0
  3  4  1  0
  4  8  1  0
  4  5  1  0
  8  9  2  0
  8 14  1  0
  9 10  1  0
 10 11  2  0
 11 12  1  0
 11 13  1  0
 13 14  2  0
  5  6  2  0
  5  7  1  0
 22 23  1  0
M  END
>  <minimizedAffinity>  (432) 
-8.58742

$$$$
data/200k_reference_output/data/smiles/85961.pdb
     RDKit          3D

 29 32  0  0  0  0  0  0  0  0999 V2000
   66.6404   41.9013   56.8997 O   0  0  0  0  0  0  0  0  0  0  0  0
   67.8759   42.0702   57.0306 C   0  0  0  0  0  0  0  0  0  0  0  0
   68.6760   41.1938   57.7829 N   0  0  0  0  0  0  0  0  0  0  0  0
   68.4850   40.8770   58.9951 C   0  0  0  0  0  0  0  0  0  0  0  0
   67.1581   41.4647   60.0367 S   0  0  0  0  0  0  0  0  0  0  0  0
   67.6158   40.3798   61.4587 C   0  0  2  0  0  0  0  0  0  0  0  0
   67.3398   41.0149   62.7578 C   0  0  0  0  0  0  0  0  0  0  0  0
   68.6639   42.2220   62.8982 S   0  0  0  0  0  0  0  0  0  0  0  0
   69.4992   41.9249   64.0926 O   0  0  0  0  0  0  0  0  0  0  0  0
   68.1423   43.6062   62.8619 O   0  0  0  0  0  0  0  0  0  0  0  0
   69.5686   41.8179   61.3970 C   0  0  0  0  0  0  0  0  0  0  0  0
   69.1164   40.3633   61.2124 C   0  0  2  0  0  0  0  0  0  0  0  0
   69.2505   40.0036   59.8042 N   0  0  0  0  0  0  0  0  0  0  0  0
   70.0696   38.8966   59.3578 C   0  0  0  0  0  0  0  0  0  0  0  0
   69.8141   37.5997   59.7541 C   0  0  0  0  0  0  0  0  0  0  0  0
   70.5862   36.5352   59.3365 C   0  0  0  0  0  0  0  0  0  0  0  0
   71.6605   36.7460   58.4897 C   0  0  0  0  0  0  0  0  0  0  0  0
   72.3964   35.6790   58.0989 F   0  0  0  0  0  0  0  0  0  0  0  0
   71.9227   38.0392   58.0885 C   0  0  0  0  0  0  0  0  0  0  0  0
   71.1414   39.0978   58.5140 C   0  0  0  0  0  0  0  0  0  0  0  0
   71.3844   40.3784   58.1292 F   0  0  0  0  0  0  0  0  0  0  0  0
   68.5123   43.2263   56.3745 C   0  0  0  0  0  0  0  0  0  0  0  0
   67.6944   43.8893   55.4467 O   0  0  0  0  0  0  0  0  0  0  0  0
   68.0602   45.0848   54.8517 C   0  0  0  0  0  0  0  0  0  0  0  0
   68.6307   46.1023   55.6279 C   0  0  0  0  0  0  0  0  0  0  0  0
   69.0154   47.3130   55.1018 C   0  0  0  0  0  0  0  0  0  0  0  0
   68.8495   47.5776   53.7588 C   0  0  0  0  0  0  0  0  0  0  0  0
   68.2912   46.5948   52.9746 C   0  0  0  0  0  0  0  0  0  0  0  0
   67.9015   45.3661   53.5133 C   0  0  0  0  0  0  0  0  0  0  0  0
  1  2  2  0
  2 22  1  0
  2  3  1  0
 22 23  1  0
 23 24  1  0
 24 25  2  0
 24 29  1  0
 25 26  1  0
 26 27  2  0
 27 28  1  0
 28 29  2  0
  3  4  2  0
  4  5  1  0
  4 13  1  0
  5  6  1  0
  6  7  1  1
  6 12  1  0
  7  8  1  0
  8  9  2  0
  8 10  2  0
  8 11  1  0
 12 11  1  6
 12 13  1  0
 13 14  1  0
 14 15  2  0
 14 20  1  0
 15 16  1  0
 16 17  2  0
 17 18  1  0
 17 19  1  0
 19 20  2  0
 20 21  1  0
M  CHG  1   3   1
M  END
>  <minimizedAffinity>  (433) 
-8.58706

$$$$
data/200k_reference_output/data/smiles/16676.pdb
     RDKit          3D

 29 31  0  0  0  0  0  0  0  0999 V2000
   68.8977   47.0365   54.3648 C   0  0  0  0  0  0  0  0  0  0  0  0
   68.8409   46.7118   53.0253 C   0  0  0  0  0  0  0  0  0  0  0  0
   69.1071   47.6273   52.0101 C   0  0  0  0  0  0  0  0  0  0  0  0
   69.4396   48.9027   52.3410 C   0  0  0  0  0  0  0  0  0  0  0  0
   69.7067   49.8242   51.3861 F   0  0  0  0  0  0  0  0  0  0  0  0
   69.4998   49.2392   53.6771 C   0  0  0  0  0  0  0  0  0  0  0  0
   69.2337   48.3227   54.6767 C   0  0  0  0  0  0  0  0  0  0  0  0
   68.3786   46.3768   56.5521 O   0  0  0  0  0  0  0  0  0  0  0  0
   68.5988   46.0001   55.3814 C   0  0  0  0  0  0  0  0  0  0  0  0
   68.5547   44.6342   55.0825 N   0  0  0  0  0  0  0  0  0  0  0  0
   68.2813   43.5554   55.9610 C   0  0  0  0  0  0  0  0  0  0  0  0
   67.1492   42.7796   55.6672 C   0  0  0  0  0  0  0  0  0  0  0  0
   66.8202   41.7160   56.4750 C   0  0  0  0  0  0  0  0  0  0  0  0
   67.5733   41.3743   57.5830 C   0  0  0  0  0  0  0  0  0  0  0  0
   67.2590   40.3364   58.3773 F   0  0  0  0  0  0  0  0  0  0  0  0
   68.6862   42.1245   57.8832 C   0  0  0  0  0  0  0  0  0  0  0  0
   69.6967   41.7653   59.2639 Cl  0  0  0  0  0  0  0  0  0  0  0  0
   69.0135   43.2064   57.0554 C   0  0  0  0  0  0  0  0  0  0  0  0
   69.9345   50.9037   54.0543 S   0  0  0  0  0  0  0  0  0  0  0  0
   68.8027   51.6181   54.7077 O   0  0  0  0  0  0  0  0  0  0  0  0
   70.3484   51.5374   52.7528 O   0  0  0  0  0  0  0  0  0  0  0  0
   71.3099   50.8504   55.0714 N   0  0  0  0  0  0  0  0  0  0  0  0
   70.9772   50.8920   56.4751 C   0  0  0  0  0  0  0  0  0  0  0  0
   72.1139   50.2300   57.2274 C   0  0  0  0  0  0  0  0  0  0  0  0
   72.9839   49.5517   56.3755 O   0  0  0  0  0  0  0  0  0  0  0  0
   74.0119   50.3236   55.9027 C   0  0  0  0  0  0  0  0  0  0  0  0
   73.6950   51.0816   54.6469 C   0  0  1  0  0  0  0  0  0  0  0  0
   73.7960   50.3009   53.5047 O   0  0  0  0  0  0  0  0  0  0  0  0
   72.3434   51.7598   54.7023 C   0  0  0  0  0  0  0  0  0  0  0  0
  8  9  2  0
  9 10  1  0
  9  1  1  0
 10 11  1  0
 11 12  2  0
 11 18  1  0
 12 13  1  0
 13 14  2  0
 14 15  1  0
 14 16  1  0
 16 17  1  0
 16 18  2  0
  1  2  2  0
  1  7  1  0
  2  3  1  0
  3  4  2  0
  4  5  1  0
  4  6  1  0
  6 19  1  0
  6  7  2  0
 19 20  2  0
 19 21  2  0
 19 22  1  0
 22 23  1  0
 22 29  1  0
 23 24  1  0
 24 25  1  0
 25 26  1  0
 26 27  1  0
 27 28  1  6
 27 29  1  0
M  END
>  <minimizedAffinity>  (434) 
-8.58649

$$$$
data/reference_output_2/data/smiles/93507.pdb
     RDKit          3D

 31 35  0  0  0  0  0  0  0  0999 V2000
   71.6454   37.4323   58.4509 C   0  0  0  0  0  0  0  0  0  0  0  0
   71.0459   36.6299   59.3962 C   0  0  0  0  0  0  0  0  0  0  0  0
   71.2316   35.2507   59.3896 C   0  0  0  0  0  0  0  0  0  0  0  0
   72.0223   34.6634   58.4308 C   0  0  0  0  0  0  0  0  0  0  0  0
   72.3915   33.3855   58.1608 N   0  0  0  0  0  0  0  0  0  0  0  0
   73.1718   33.3571   57.1199 N   0  0  0  0  0  0  0  0  0  0  0  0
   73.3561   34.5950   56.6540 C   0  0  0  0  0  0  0  0  0  0  0  0
   72.6348   35.4394   57.4707 C   0  0  0  0  0  0  0  0  0  0  0  0
   72.4274   36.8077   57.5094 C   0  0  0  0  0  0  0  0  0  0  0  0
   74.1629   34.9898   55.5071 C   0  0  0  0  0  0  0  0  0  0  0  0
   73.6225   35.4098   54.3155 C   0  0  0  0  0  0  0  0  0  0  0  0
   74.3799   35.7903   53.2262 C   0  0  0  0  0  0  0  0  0  0  0  0
   75.7543   35.7551   53.3147 C   0  0  0  0  0  0  0  0  0  0  0  0
   76.4999   36.1263   52.2463 F   0  0  0  0  0  0  0  0  0  0  0  0
   76.3397   35.3402   54.4926 C   0  0  0  0  0  0  0  0  0  0  0  0
   75.5605   34.9658   55.5661 C   0  0  0  0  0  0  0  0  0  0  0  0
   71.7625   41.0630   58.7340 C   0  0  0  0  0  0  0  0  0  0  0  0
   70.5257   40.8496   58.2542 N   0  0  0  0  0  0  0  0  0  0  0  0
   70.3377   39.5498   58.0984 N   0  0  0  0  0  0  0  0  0  0  0  0
   71.4411   38.8771   58.4693 C   0  0  0  0  0  0  0  0  0  0  0  0
   72.3054   39.8282   58.8572 N   0  0  0  0  0  0  0  0  0  0  0  0
   72.4578   42.3334   59.0783 C   0  0  0  0  0  0  0  0  0  0  0  0
   73.6596   46.9287   61.3824 C   0  0  0  0  0  0  0  0  0  0  0  0
   72.5304   46.6903   60.4363 C   0  0  0  0  0  0  0  0  0  0  0  0
   71.4889   47.3663   60.6156 O   0  0  0  0  0  0  0  0  0  0  0  0
   72.6059   45.7554   59.3831 N   0  0  0  0  0  0  0  0  0  0  0  0
   71.4719   45.5808   58.5086 C   0  0  0  0  0  0  0  0  0  0  0  0
   71.1121   44.1433   58.2502 C   0  0  0  0  0  0  0  0  0  0  0  0
   72.2940   43.3501   58.1059 N   0  0  0  0  0  0  0  0  0  0  0  0
   73.4202   44.1615   57.8335 C   0  0  0  0  0  0  0  0  0  0  0  0
   73.7680   44.9394   59.1117 C   0  0  0  0  0  0  0  0  0  0  0  0
 23 24  1  0
 24 25  2  0
 24 26  1  0
 26 27  1  0
 26 31  1  0
 27 28  1  0
 28 29  1  0
 29 22  1  0
 29 30  1  0
 22 17  1  0
 17 18  2  0
 17 21  1  0
 18 19  1  0
 19 20  2  0
 20  1  1  0
 20 21  1  0
  1  2  2  0
  1  9  1  0
  2  3  1  0
  3  4  2  0
  4  5  1  0
  4  8  1  0
  5  6  1  0
  6  7  2  0
  7 10  1  0
  7  8  1  0
 10 11  2  0
 10 16  1  0
 11 12  1  0
 12 13  2  0
 13 14  1  0
 13 15  1  0
 15 16  2  0
  8  9  2  0
 30 31  1  0
M  CHG  1  29   1
M  END
>  <minimizedAffinity>  (435) 
-8.58577

$$$$
data/200k_reference_output/data/smiles/86467.pdb
     RDKit          3D

 33 37  0  0  0  0  0  0  0  0999 V2000
   71.9959   45.9914   59.4353 C   0  0  0  0  0  0  0  0  0  0  0  0
   72.2203   47.3417   59.4895 C   0  0  0  0  0  0  0  0  0  0  0  0
   71.3951   48.2377   58.8422 C   0  0  0  0  0  0  0  0  0  0  0  0
   70.2983   47.7826   58.1083 C   0  0  0  0  0  0  0  0  0  0  0  0
   70.1083   46.4188   58.0768 C   0  0  0  0  0  0  0  0  0  0  0  0
   70.9277   45.5159   58.7217 C   0  0  0  0  0  0  0  0  0  0  0  0
   72.8370   45.0485   61.3859 O   0  0  0  0  0  0  0  0  0  0  0  0
   72.8638   45.0354   60.1291 C   0  0  0  0  0  0  0  0  0  0  0  0
   73.6980   44.1353   59.4332 N   0  0  0  0  0  0  0  0  0  0  0  0
   73.7463   44.0894   57.9870 C   0  0  0  0  0  0  0  0  0  0  0  0
   73.6088   42.6368   57.5330 C   0  0  0  0  0  0  0  0  0  0  0  0
   73.2737   41.7859   58.6377 N   0  0  0  0  0  0  0  0  0  0  0  0
   74.0036   41.8251   59.8984 C   0  0  0  0  0  0  0  0  0  0  0  0
   74.5386   43.2233   60.1420 C   0  0  0  0  0  0  0  0  0  0  0  0
   72.1935   40.8913   58.5559 C   0  0  0  0  0  0  0  0  0  0  0  0
   72.3790   39.5161   58.7304 C   0  0  0  0  0  0  0  0  0  0  0  0
   71.3106   38.6460   58.6738 C   0  0  0  0  0  0  0  0  0  0  0  0
   70.0447   39.1368   58.4428 C   0  0  0  0  0  0  0  0  0  0  0  0
   69.8106   40.4964   58.2636 C   0  0  0  0  0  0  0  0  0  0  0  0
   70.9238   41.3273   58.3298 C   0  0  0  0  0  0  0  0  0  0  0  0
   69.3672   48.7163   57.4056 C   0  0  0  0  0  0  0  0  0  0  0  0
   69.3479   48.4310   55.9589 N   0  0  0  0  0  0  0  0  0  0  0  0
   70.1497   49.0753   55.0895 C   0  0  0  0  0  0  0  0  0  0  0  0
   70.9262   49.9620   55.4986 O   0  0  0  0  0  0  0  0  0  0  0  0
   70.1247   48.7725   53.7574 N   0  0  0  0  0  0  0  0  0  0  0  0
   69.3159   47.8362   53.2522 C   0  0  0  0  0  0  0  0  0  0  0  0
   69.2715   47.4974   51.8992 C   0  0  0  0  0  0  0  0  0  0  0  0
   68.4291   46.5204   51.4126 C   0  0  0  0  0  0  0  0  0  0  0  0
   67.5969   45.8459   52.2747 C   0  0  0  0  0  0  0  0  0  0  0  0
   67.6361   46.1786   53.6210 C   0  0  0  0  0  0  0  0  0  0  0  0
   68.4844   47.1628   54.1138 C   0  0  0  0  0  0  0  0  0  0  0  0
   68.5250   47.4823   55.4571 C   0  0  0  0  0  0  0  0  0  0  0  0
   67.7583   46.8608   56.2367 O   0  0  0  0  0  0  0  0  0  0  0  0
  7  8  2  0
  8  1  1  0
  8  9  1  0
  1  2  2  0
  1  6  1  0
  2  3  1  0
  3  4  2  0
  4 21  1  0
  4  5  1  0
 21 22  1  0
 22 23  1  0
 22 32  1  0
 23 24  2  0
 23 25  1  0
 25 26  1  0
 26 27  2  0
 26 31  1  0
 27 28  1  0
 28 29  2  0
 29 30  1  0
 30 31  2  0
 31 32  1  0
 32 33  2  0
  5  6  2  0
  9 10  1  0
  9 14  1  0
 10 11  1  0
 11 12  1  0
 12 15  1  0
 12 13  1  0
 15 16  2  0
 15 20  1  0
 16 17  1  0
 17 18  2  0
 18 19  1  0
 19 20  2  0
 13 14  1  0
M  END
>  <minimizedAffinity>  (436) 
-8.58327

$$$$
data/200k_reference_output/data/smiles/80704.pdb
     RDKit          3D

 30 34  0  0  0  0  0  0  0  0999 V2000
   69.1924   47.4933   56.8753 C   0  0  0  0  0  0  0  0  0  0  0  0
   69.9527   46.8046   58.4662 S   0  0  0  0  0  0  0  0  0  0  0  0
   70.2587   45.1764   57.6196 C   0  0  0  0  0  0  0  0  0  0  0  0
   69.8456   45.3876   56.5805 N   0  0  0  0  0  0  0  0  0  0  0  0
   69.2976   46.4594   56.0730 N   0  0  0  0  0  0  0  0  0  0  0  0
   66.6829   48.0601   57.9801 O   0  0  0  0  0  0  0  0  0  0  0  0
   67.4307   49.0721   57.4008 C   0  0  0  0  0  0  0  0  0  0  0  0
   66.9169   50.3687   57.4150 C   0  0  0  0  0  0  0  0  0  0  0  0
   67.5673   51.4333   56.8680 C   0  0  0  0  0  0  0  0  0  0  0  0
   68.7889   51.2088   56.2752 C   0  0  0  0  0  0  0  0  0  0  0  0
   69.4921   52.2733   55.7200 C   0  0  0  0  0  0  0  0  0  0  0  0
   70.7209   52.1257   55.1334 C   0  0  0  0  0  0  0  0  0  0  0  0
   71.2541   50.8610   55.1086 C   0  0  0  0  0  0  0  0  0  0  0  0
   70.5506   49.7830   55.6658 C   0  0  0  0  0  0  0  0  0  0  0  0
   69.3166   49.9129   56.2547 C   0  0  0  0  0  0  0  0  0  0  0  0
   68.6464   48.8275   56.8163 C   0  0  0  0  0  0  0  0  0  0  0  0
   68.7884   46.4361   54.7120 C   0  0  0  0  0  0  0  0  0  0  0  0
   67.9228   45.4480   54.2838 C   0  0  0  0  0  0  0  0  0  0  0  0
   67.4684   45.4176   52.9864 C   0  0  0  0  0  0  0  0  0  0  0  0
   67.8630   46.3782   52.0597 C   0  0  0  0  0  0  0  0  0  0  0  0
   67.4231   46.3561   50.7928 F   0  0  0  0  0  0  0  0  0  0  0  0
   68.7281   47.3705   52.4800 C   0  0  0  0  0  0  0  0  0  0  0  0
   69.1611   47.3770   53.7644 C   0  0  0  0  0  0  0  0  0  0  0  0
   70.9023   44.1094   58.4396 N   0  0  0  0  0  0  0  0  0  0  0  0
   72.2920   43.8966   58.2894 C   0  0  0  0  0  0  0  0  0  0  0  0
   73.1848   44.9059   58.5668 C   0  0  0  0  0  0  0  0  0  0  0  0
   74.5551   44.7413   58.4350 C   0  0  0  0  0  0  0  0  0  0  0  0
   75.0388   43.5258   58.0128 C   0  0  0  0  0  0  0  0  0  0  0  0
   74.1454   42.5126   57.7342 C   0  0  0  0  0  0  0  0  0  0  0  0
   72.8039   42.6808   57.8649 C   0  0  0  0  0  0  0  0  0  0  0  0
  6  7  1  0
  7  8  2  0
  7 16  1  0
  8  9  1  0
  9 10  2  0
 10 11  1  0
 10 15  1  0
 11 12  2  0
 12 13  1  0
 13 14  2  0
 14 15  1  0
 15 16  2  0
 16  1  1  0
  1  2  1  0
  1  5  2  0
  2  3  1  0
  3 24  1  0
  3  4  2  0
 24 25  1  0
 25 26  2  0
 25 30  1  0
 26 27  1  0
 27 28  2  0
 28 29  1  0
 29 30  2  0
  4  5  1  0
  5 17  1  0
 17 18  2  0
 17 23  1  0
 18 19  1  0
 19 20  2  0
 20 21  1  0
 20 22  1  0
 22 23  2  0
M  CHG  1   5   1
M  END
>  <minimizedAffinity>  (437) 
-8.58320

$$$$
data/200k_reference_output/data/smiles/24404.pdb
     RDKit          3D

 27 28  0  0  0  0  0  0  0  0999 V2000
   73.9796   53.3285   53.5601 C   0  0  0  0  0  0  0  0  0  0  0  0
   73.7536   52.5912   54.8875 C   0  0  2  0  0  0  0  0  0  0  0  0
   73.1858   51.2745   54.5249 C   0  0  0  0  0  0  0  0  0  0  0  0
   73.9211   50.2664   54.6737 O   0  0  0  0  0  0  0  0  0  0  0  0
   71.8800   51.0622   54.0248 N   0  0  0  0  0  0  0  0  0  0  0  0
   71.3610   49.8057   53.6869 N   0  0  0  0  0  0  0  0  0  0  0  0
   70.0038   49.4984   53.6535 C   0  0  0  0  0  0  0  0  0  0  0  0
   69.2544   50.5060   53.9700 O   0  0  0  0  0  0  0  0  0  0  0  0
   69.3728   48.2423   53.3193 C   0  0  0  0  0  0  0  0  0  0  0  0
   68.5819   47.6024   54.2908 C   0  0  0  0  0  0  0  0  0  0  0  0
   67.9489   46.4059   54.0512 C   0  0  0  0  0  0  0  0  0  0  0  0
   68.0765   45.7879   52.8265 C   0  0  0  0  0  0  0  0  0  0  0  0
   68.8430   46.3861   51.8541 C   0  0  0  0  0  0  0  0  0  0  0  0
   69.4850   47.6165   52.1204 C   0  0  0  0  0  0  0  0  0  0  0  0
   70.2434   48.1728   51.1077 O   0  0  0  0  0  0  0  0  0  0  0  0
   72.8423   53.3799   55.6848 N   0  0  0  0  0  0  0  0  0  0  0  0
   72.5921   52.7022   57.2244 S   0  0  0  0  0  0  0  0  0  0  0  0
   72.4263   53.7711   58.2641 O   0  0  0  0  0  0  0  0  0  0  0  0
   73.7392   51.8319   57.6742 O   0  0  0  0  0  0  0  0  0  0  0  0
   71.1512   51.6949   57.2869 C   0  0  0  0  0  0  0  0  0  0  0  0
   69.8885   52.2323   57.1805 C   0  0  0  0  0  0  0  0  0  0  0  0
   68.7891   51.4095   57.2379 C   0  0  0  0  0  0  0  0  0  0  0  0
   68.8748   50.0386   57.4002 C   0  0  0  0  0  0  0  0  0  0  0  0
   67.4060   49.0893   57.4591 Cl  0  0  0  0  0  0  0  0  0  0  0  0
   70.1395   49.4907   57.5073 C   0  0  0  0  0  0  0  0  0  0  0  0
   70.2496   47.7558   57.7127 Cl  0  0  0  0  0  0  0  0  0  0  0  0
   71.2343   50.3265   57.4492 C   0  0  0  0  0  0  0  0  0  0  0  0
  2  1  1  6
  2 16  1  0
  2  3  1  0
 16 17  1  0
 17 18  2  0
 17 19  2  0
 17 20  1  0
 20 21  2  0
 20 27  1  0
 21 22  1  0
 22 23  2  0
 23 24  1  0
 23 25  1  0
 25 26  1  0
 25 27  2  0
  3  4  2  0
  3  5  1  0
  5  6  1  0
  6  7  1  0
  7  8  2  0
  7  9  1  0
  9 10  2  0
  9 14  1  0
 10 11  1  0
 11 12  2  0
 12 13  1  0
 13 14  2  0
 14 15  1  0
M  END
>  <minimizedAffinity>  (438) 
-8.58124

$$$$
data/reference_output_2/data/smiles/141405.pdb
     RDKit          3D

 30 33  0  0  0  0  0  0  0  0999 V2000
   71.0901   41.6717   58.9661 N   0  0  0  0  0  0  0  0  0  0  0  0
   71.8262   42.4400   59.9628 C   0  0  0  0  0  0  0  0  0  0  0  0
   71.3213   43.8508   59.7614 C   0  0  0  0  0  0  0  0  0  0  0  0
   71.1328   43.8823   58.2523 C   0  0  1  0  0  0  0  0  0  0  0  0
   72.3920   44.0315   57.7058 O   0  0  0  0  0  0  0  0  0  0  0  0
   70.5219   42.5596   58.0036 C   0  0  0  0  0  0  0  0  0  0  0  0
   69.6683   42.2207   57.1352 O   0  0  0  0  0  0  0  0  0  0  0  0
   71.8711   34.0475   59.2292 O   0  0  0  0  0  0  0  0  0  0  0  0
   71.6930   35.1986   58.8291 C   0  0  0  0  0  0  0  0  0  0  0  0
   72.6288   35.8226   57.8631 C   0  0  0  0  0  0  0  0  0  0  0  0
   73.0741   37.1747   58.3402 C   0  0  0  0  0  0  0  0  0  0  0  0
   71.9287   38.0157   58.7263 C   0  0  0  0  0  0  0  0  0  0  0  0
   72.0296   39.4167   58.6591 C   0  0  0  0  0  0  0  0  0  0  0  0
   71.0043   40.2564   59.0258 C   0  0  0  0  0  0  0  0  0  0  0  0
   69.8506   39.6495   59.4700 C   0  0  0  0  0  0  0  0  0  0  0  0
   69.7211   38.2804   59.5468 C   0  0  0  0  0  0  0  0  0  0  0  0
   70.7662   37.4406   59.1732 C   0  0  0  0  0  0  0  0  0  0  0  0
   70.6038   36.0171   59.2421 N   0  0  0  0  0  0  0  0  0  0  0  0
   70.2172   45.0147   57.9199 C   0  0  0  0  0  0  0  0  0  0  0  0
   69.8218   45.6984   58.8672 O   0  0  0  0  0  0  0  0  0  0  0  0
   69.8105   45.3089   56.6097 N   0  0  0  0  0  0  0  0  0  0  0  0
   68.9510   46.3437   56.1241 C   0  0  0  0  0  0  0  0  0  0  0  0
   68.6761   46.3560   54.6760 C   0  0  0  0  0  0  0  0  0  0  0  0
   67.9737   45.3994   53.9988 C   0  0  0  0  0  0  0  0  0  0  0  0
   67.5572   44.2505   54.6271 F   0  0  0  0  0  0  0  0  0  0  0  0
   67.6874   45.4924   52.6270 C   0  0  0  0  0  0  0  0  0  0  0  0
   68.1400   46.5984   51.9479 C   0  0  0  0  0  0  0  0  0  0  0  0
   68.8580   47.5976   52.5772 C   0  0  0  0  0  0  0  0  0  0  0  0
   69.1069   47.4528   53.9172 C   0  0  0  0  0  0  0  0  0  0  0  0
   69.8055   48.4185   54.5505 F   0  0  0  0  0  0  0  0  0  0  0  0
  8  9  2  0
  9 10  1  0
  9 18  1  0
 10 11  1  0
 11 12  1  0
 12 13  1  0
 12 17  2  0
 13 14  2  0
 14  1  1  0
 14 15  1  0
  1  2  1  0
  1  6  1  0
  2  3  1  0
  3  4  1  0
  4  5  1  6
  4 19  1  0
  4  6  1  0
 19 20  2  0
 19 21  1  0
 21 22  1  0
 22 23  1  0
 23 24  2  0
 23 29  1  0
 24 25  1  0
 24 26  1  0
 26 27  2  0
 27 28  1  0
 28 29  2  0
 29 30  1  0
  6  7  2  0
 15 16  2  0
 16 17  1  0
 17 18  1  0
M  END
>  <minimizedAffinity>  (439) 
-8.58086

$$$$
data/200k_reference_output/data/smiles/84702.pdb
     RDKit          3D

 28 30  0  0  0  0  0  0  0  0999 V2000
   70.0688   46.3505   57.9718 C   0  0  0  0  0  0  0  0  0  0  0  0
   67.7386   47.2925   56.6129 O   0  0  0  0  0  0  0  0  0  0  0  0
   68.6261   46.6958   55.9609 C   0  0  0  0  0  0  0  0  0  0  0  0
   69.7983   46.2088   56.5845 N   0  0  0  0  0  0  0  0  0  0  0  0
   68.4251   46.5117   54.5298 C   0  0  0  0  0  0  0  0  0  0  0  0
   67.7502   45.4288   54.0069 C   0  0  0  0  0  0  0  0  0  0  0  0
   67.5948   45.2940   52.6450 C   0  0  0  0  0  0  0  0  0  0  0  0
   68.1051   46.2288   51.7830 C   0  0  0  0  0  0  0  0  0  0  0  0
   68.7836   47.3193   52.3080 C   0  0  0  0  0  0  0  0  0  0  0  0
   69.2942   48.2491   51.5059 N   0  0  0  0  0  0  0  0  0  0  0  0
   69.9593   49.3223   51.9497 C   0  0  0  0  0  0  0  0  0  0  0  0
   70.1450   49.5100   53.2990 C   0  0  0  0  0  0  0  0  0  0  0  0
   69.6276   48.5618   54.1668 C   0  0  0  0  0  0  0  0  0  0  0  0
   68.9519   47.4729   53.6874 C   0  0  0  0  0  0  0  0  0  0  0  0
   71.4921   46.4280   58.3809 C   0  0  0  0  0  0  0  0  0  0  0  0
   71.9717   48.0346   58.9496 S   0  0  0  0  0  0  0  0  0  0  0  0
   73.4229   48.2941   58.8331 O   0  0  0  0  0  0  0  0  0  0  0  0
   71.5717   48.1533   60.3923 O   0  0  0  0  0  0  0  0  0  0  0  0
   71.1176   49.2936   58.0696 C   0  0  0  0  0  0  0  0  0  0  0  0
   71.7236   50.0056   57.0596 C   0  0  0  0  0  0  0  0  0  0  0  0
   71.0197   50.9757   56.3900 C   0  0  0  0  0  0  0  0  0  0  0  0
   69.7073   51.2693   56.6922 C   0  0  0  0  0  0  0  0  0  0  0  0
   69.1400   50.5338   57.7094 C   0  0  0  0  0  0  0  0  0  0  0  0
   69.8379   49.5864   58.3597 N   0  0  0  0  0  0  0  0  0  0  0  0
   68.9597   52.3297   55.9394 C   0  0  0  0  0  0  0  0  0  0  0  0
   69.6105   52.5610   54.7299 F   0  0  0  0  0  0  0  0  0  0  0  0
   67.6909   51.8950   55.6449 F   0  0  0  0  0  0  0  0  0  0  0  0
   68.9723   53.5000   56.6515 F   0  0  0  0  0  0  0  0  0  0  0  0
  2  3  2  0
  3  4  1  0
  3  5  1  0
  4  1  1  0
  1 15  1  0
 15 16  1  0
 16 17  2  0
 16 18  2  0
 16 19  1  0
 19 20  2  0
 19 24  1  0
 20 21  1  0
 21 22  2  0
 22 25  1  0
 22 23  1  0
 25 26  1  0
 25 27  1  0
 25 28  1  0
 23 24  2  0
  5  6  2  0
  5 14  1  0
  6  7  1  0
  7  8  2  0
  8  9  1  0
  9 10  1  0
  9 14  2  0
 10 11  2  0
 11 12  1  0
 12 13  2  0
 13 14  1  0
M  END
>  <minimizedAffinity>  (440) 
-8.58021

$$$$
data/reference_output_2/data/smiles/129498.pdb
     RDKit          3D

 26 28  0  0  0  0  0  0  0  0999 V2000
   69.0945   42.8592   57.2230 C   0  0  0  0  0  0  0  0  0  0  0  0
   69.2145   44.0821   56.6782 N   0  0  0  0  0  0  0  0  0  0  0  0
   68.3904   44.5466   55.7059 C   0  0  0  0  0  0  0  0  0  0  0  0
   67.4124   43.7553   55.2624 N   0  0  0  0  0  0  0  0  0  0  0  0
   67.2202   42.5000   55.7594 C   0  0  0  0  0  0  0  0  0  0  0  0
   66.2918   41.7671   55.3296 O   0  0  0  0  0  0  0  0  0  0  0  0
   68.0736   42.0616   56.7453 C   0  0  0  0  0  0  0  0  0  0  0  0
   67.9234   40.7898   57.2880 O   0  0  0  0  0  0  0  0  0  0  0  0
   68.5755   45.8832   55.1587 C   0  0  0  0  0  0  0  0  0  0  0  0
   68.3890   46.0754   53.7828 C   0  0  0  0  0  0  0  0  0  0  0  0
   68.5360   47.2821   53.1670 C   0  0  0  0  0  0  0  0  0  0  0  0
   68.8856   48.3671   53.9303 C   0  0  0  0  0  0  0  0  0  0  0  0
   69.0246   49.5543   53.2867 F   0  0  0  0  0  0  0  0  0  0  0  0
   69.0777   48.2121   55.2874 C   0  0  0  0  0  0  0  0  0  0  0  0
   68.9237   46.9677   55.9119 C   0  0  0  0  0  0  0  0  0  0  0  0
   69.8104   42.7283   59.4475 O   0  0  0  0  0  0  0  0  0  0  0  0
   69.9979   42.3851   58.2751 C   0  0  0  0  0  0  0  0  0  0  0  0
   71.0884   41.5361   57.9695 N   0  0  0  0  0  0  0  0  0  0  0  0
   72.0420   40.9996   58.8871 C   0  0  0  0  0  0  0  0  0  0  0  0
   72.1427   39.5322   58.8300 C   0  0  0  0  0  0  0  0  0  0  0  0
   71.1033   38.7892   58.3376 C   0  0  0  0  0  0  0  0  0  0  0  0
   71.1626   37.4026   58.2583 C   0  0  0  0  0  0  0  0  0  0  0  0
   72.3240   36.7719   58.6991 C   0  0  0  0  0  0  0  0  0  0  0  0
   72.3852   34.8763   58.5827 Br  0  0  0  0  0  0  0  0  0  0  0  0
   73.3716   37.4935   59.1933 C   0  0  0  0  0  0  0  0  0  0  0  0
   73.2727   38.8786   59.2553 C   0  0  0  0  0  0  0  0  0  0  0  0
 16 17  2  0
 17 18  1  0
 17  1  1  0
 18 19  1  0
 19 20  1  0
 20 21  2  0
 20 26  1  0
 21 22  1  0
 22 23  2  0
 23 24  1  0
 23 25  1  0
 25 26  2  0
  1  2  1  0
  1  7  2  0
  2  3  2  0
  3  9  1  0
  3  4  1  0
  9 10  2  0
  9 15  1  0
 10 11  1  0
 11 12  2  0
 12 13  1  0
 12 14  1  0
 14 15  2  0
  4  5  1  0
  5  6  2  0
  5  7  1  0
  7  8  1  0
M  END
>  <minimizedAffinity>  (441) 
-8.58001

$$$$
data/reference_output_2/data/smiles/168492.pdb
     RDKit          3D

 29 31  0  0  0  0  0  0  0  0999 V2000
   69.5803   43.6823   57.2843 C   0  0  0  0  0  0  0  0  0  0  0  0
   69.2774   42.4290   57.5118 C   0  0  0  0  0  0  0  0  0  0  0  0
   67.9286   41.9941   57.1131 C   0  0  0  0  0  0  0  0  0  0  0  0
   67.1411   42.8206   56.5860 O   0  0  0  0  0  0  0  0  0  0  0  0
   67.5671   40.6405   57.3454 N   0  0  0  0  0  0  0  0  0  0  0  0
   68.4714   39.7219   57.9420 C   0  0  0  0  0  0  0  0  0  0  0  0
   68.1065   38.5217   58.1307 O   0  0  0  0  0  0  0  0  0  0  0  0
   69.7807   40.0927   58.3425 N   0  0  0  0  0  0  0  0  0  0  0  0
   70.1541   41.4621   58.1116 C   0  0  0  0  0  0  0  0  0  0  0  0
   71.2954   41.7793   58.4617 O   0  0  0  0  0  0  0  0  0  0  0  0
   70.7360   39.1698   58.9606 C   0  0  0  0  0  0  0  0  0  0  0  0
   71.2812   38.2043   57.9633 C   0  0  0  0  0  0  0  0  0  0  0  0
   71.7529   36.9040   58.4570 C   0  0  0  0  0  0  0  0  0  0  0  0
   71.5473   36.6488   59.9223 C   0  0  0  0  0  0  0  0  0  0  0  0
   70.1969   37.1493   60.3718 C   0  0  0  0  0  0  0  0  0  0  0  0
   70.1885   38.6256   60.2144 C   0  0  0  0  0  0  0  0  0  0  0  0
   70.5627   45.5326   58.4922 C   0  0  0  0  0  0  0  0  0  0  0  0
   70.8703   44.2792   57.6160 C   0  0  0  0  0  0  0  0  0  0  0  0
   68.6171   44.5723   56.6697 N   0  0  0  0  0  0  0  0  0  0  0  0
   69.0593   45.2864   55.5432 N   0  0  0  0  0  0  0  0  0  0  0  0
   68.4561   46.5291   55.1812 C   0  0  0  0  0  0  0  0  0  0  0  0
   67.5158   46.9623   55.9054 O   0  0  0  0  0  0  0  0  0  0  0  0
   68.9338   47.2447   54.0132 C   0  0  0  0  0  0  0  0  0  0  0  0
   69.6783   48.3846   54.1853 C   0  0  0  0  0  0  0  0  0  0  0  0
   70.1640   49.1103   53.0964 C   0  0  0  0  0  0  0  0  0  0  0  0
   69.9001   48.6887   51.8122 C   0  0  0  0  0  0  0  0  0  0  0  0
   69.1550   47.5469   51.6354 C   0  0  0  0  0  0  0  0  0  0  0  0
   68.6809   46.8397   52.7188 C   0  0  0  0  0  0  0  0  0  0  0  0
   67.7282   45.3820   52.5115 Cl  0  0  0  0  0  0  0  0  0  0  0  0
 17 18  1  0
 18  1  1  0
  1 19  1  0
  1  2  2  0
 19 20  1  0
 20 21  1  0
 21 22  2  0
 21 23  1  0
 23 24  2  0
 23 28  1  0
 24 25  1  0
 25 26  2  0
 26 27  1  0
 27 28  2  0
 28 29  1  0
  2  3  1  0
  2  9  1  0
  3  4  2  0
  3  5  1  0
  5  6  1  0
  6  7  2  0
  6  8  1  0
  8 11  1  0
  8  9  1  0
 11 12  1  0
 11 16  1  0
 12 13  1  0
 13 14  1  0
 14 15  1  0
 15 16  1  0
  9 10  2  0
M  END
>  <minimizedAffinity>  (442) 
-8.58000

$$$$
data/200k_reference_output/data/smiles/32300.pdb
     RDKit          3D

 30 32  0  0  0  0  0  0  0  0999 V2000
   69.7806   47.2343   57.4662 C   0  0  0  0  0  0  0  0  0  0  0  0
   68.6366   47.2841   57.9727 O   0  0  0  0  0  0  0  0  0  0  0  0
   69.9893   47.7284   56.1528 N   0  0  0  0  0  0  0  0  0  0  0  0
   68.8844   48.2870   55.4023 C   0  0  1  0  0  0  0  0  0  0  0  0
   69.1092   49.7426   55.1344 C   0  0  0  0  0  0  0  0  0  0  0  0
   68.3964   50.5342   55.8003 O   0  0  0  0  0  0  0  0  0  0  0  0
   70.0081   50.3828   54.2360 N   0  0  0  0  0  0  0  0  0  0  0  0
   70.2775   51.7928   54.4496 C   0  0  0  0  0  0  0  0  0  0  0  0
   70.6915   49.8072   53.1352 N   0  0  0  0  0  0  0  0  0  0  0  0
   70.4033   48.6705   52.5654 C   0  0  0  0  0  0  0  0  0  0  0  0
   69.3459   47.7203   52.8887 C   0  0  0  0  0  0  0  0  0  0  0  0
   69.0478   46.9565   51.7809 C   0  0  0  0  0  0  0  0  0  0  0  0
   68.0616   45.9976   51.9053 C   0  0  0  0  0  0  0  0  0  0  0  0
   67.3903   45.7988   53.0900 C   0  0  0  0  0  0  0  0  0  0  0  0
   67.7231   46.5881   54.1712 C   0  0  0  0  0  0  0  0  0  0  0  0
   68.7051   47.5646   54.0994 C   0  0  0  0  0  0  0  0  0  0  0  0
   72.1866   47.5035   57.9848 C   0  0  0  0  0  0  0  0  0  0  0  0
   70.9565   46.6697   58.1917 C   0  0  2  0  0  0  0  0  0  0  0  0
   71.1625   45.2745   57.8371 N   0  0  0  0  0  0  0  0  0  0  0  0
   70.7945   44.2127   58.7008 C   0  0  0  0  0  0  0  0  0  0  0  0
   70.2745   44.4246   59.8097 O   0  0  0  0  0  0  0  0  0  0  0  0
   71.0291   42.8124   58.2837 C   0  0  0  0  0  0  0  0  0  0  0  0
   69.8490   42.2049   57.6489 C   0  0  0  0  0  0  0  0  0  0  0  0
   69.0632   43.0006   56.8422 C   0  0  0  0  0  0  0  0  0  0  0  0
   67.9388   42.4949   56.2142 C   0  0  0  0  0  0  0  0  0  0  0  0
   67.1720   43.2903   55.4219 F   0  0  0  0  0  0  0  0  0  0  0  0
   67.5749   41.1725   56.3820 C   0  0  0  0  0  0  0  0  0  0  0  0
   68.3689   40.3891   57.1893 C   0  0  0  0  0  0  0  0  0  0  0  0
   68.0275   39.0839   57.3674 F   0  0  0  0  0  0  0  0  0  0  0  0
   69.4882   40.8832   57.8177 C   0  0  0  0  0  0  0  0  0  0  0  0
 18 17  1  6
 18 19  1  0
 18  1  1  0
 19 20  1  0
 20 21  2  0
 20 22  1  0
 22 23  1  0
 23 24  2  0
 23 30  1  0
 24 25  1  0
 25 26  1  0
 25 27  2  0
 27 28  1  0
 28 29  1  0
 28 30  2  0
  1  2  2  0
  1  3  1  0
  4  3  1  6
  4  5  1  0
  4 16  1  0
  5  6  2  0
  5  7  1  0
  7  8  1  0
  7  9  1  0
  9 10  2  0
 10 11  1  0
 11 12  1  0
 11 16  2  0
 12 13  2  0
 13 14  1  0
 14 15  2  0
 15 16  1  0
M  END
>  <minimizedAffinity>  (443) 
-8.57816

$$$$
data/200k_reference_output/data/smiles/32041.pdb
     RDKit          3D

 30 32  0  0  0  0  0  0  0  0999 V2000
   71.1348   45.7445   59.7579 O   0  0  0  0  0  0  0  0  0  0  0  0
   70.7453   44.9480   58.8676 C   0  0  0  0  0  0  0  0  0  0  0  0
   69.9646   45.5108   57.8116 N   0  0  0  0  0  0  0  0  0  0  0  0
   71.0808   43.5357   58.9288 C   0  0  0  0  0  0  0  0  0  0  0  0
   70.8701   42.7570   60.0203 C   0  0  0  0  0  0  0  0  0  0  0  0
   71.2209   41.4016   59.9998 C   0  0  0  0  0  0  0  0  0  0  0  0
   71.7832   40.8094   58.8967 C   0  0  0  0  0  0  0  0  0  0  0  0
   71.9945   41.6068   57.7901 C   0  0  0  0  0  0  0  0  0  0  0  0
   71.6452   42.9527   57.8144 C   0  0  0  0  0  0  0  0  0  0  0  0
   72.1450   39.4346   58.8617 N   0  0  0  0  0  0  0  0  0  0  0  0
   71.2582   38.4145   58.4197 C   0  0  0  0  0  0  0  0  0  0  0  0
   70.1203   38.8054   58.0554 O   0  0  0  0  0  0  0  0  0  0  0  0
   71.6216   37.0094   58.3815 C   0  0  0  0  0  0  0  0  0  0  0  0
   71.1946   36.0884   59.2957 C   0  0  0  0  0  0  0  0  0  0  0  0
   71.5934   34.7631   59.1792 C   0  0  0  0  0  0  0  0  0  0  0  0
   72.4168   34.3505   58.1521 C   0  0  0  0  0  0  0  0  0  0  0  0
   72.8499   35.2663   57.2295 C   0  0  0  0  0  0  0  0  0  0  0  0
   72.4456   36.5816   57.3583 C   0  0  0  0  0  0  0  0  0  0  0  0
   69.6611   46.8908   57.7916 N   0  0  0  0  0  0  0  0  0  0  0  0
   68.6807   47.4308   56.9212 C   0  0  0  0  0  0  0  0  0  0  0  0
   68.0841   46.6241   56.1583 O   0  0  0  0  0  0  0  0  0  0  0  0
   68.3367   48.8470   56.8689 C   0  0  0  0  0  0  0  0  0  0  0  0
   67.3602   49.3981   57.6883 C   0  0  0  0  0  0  0  0  0  0  0  0
   67.0296   50.7382   57.6429 C   0  0  0  0  0  0  0  0  0  0  0  0
   67.6768   51.5861   56.7614 C   0  0  0  0  0  0  0  0  0  0  0  0
   68.6550   51.0576   55.9352 C   0  0  0  0  0  0  0  0  0  0  0  0
   68.9652   49.7153   56.0008 C   0  0  0  0  0  0  0  0  0  0  0  0
   69.9622   49.2195   55.1452 N   0  0  0  0  0  0  0  0  0  0  0  0
   71.1769   49.3544   55.4668 O   0  0  0  0  0  0  0  0  0  0  0  0
   69.6761   48.5925   53.9697 O   0  0  0  0  0  0  0  0  0  0  0  0
  1  2  2  0
  2  3  1  0
  2  4  1  0
  3 19  1  0
 19 20  1  0
 20 21  2  0
 20 22  1  0
 22 23  2  0
 22 27  1  0
 23 24  1  0
 24 25  2  0
 25 26  1  0
 26 27  2  0
 27 28  1  0
 28 29  2  0
 28 30  1  0
  4  5  2  0
  4  9  1  0
  5  6  1  0
  6  7  2  0
  7 10  1  0
  7  8  1  0
 10 11  1  0
 11 12  2  0
 11 13  1  0
 13 14  2  0
 13 18  1  0
 14 15  1  0
 15 16  2  0
 16 17  1  0
 17 18  2  0
  8  9  2  0
M  CHG  2  28   1  30  -1
M  END
>  <minimizedAffinity>  (444) 
-8.57765

$$$$
data/reference_output_2/data/smiles/155843.pdb
     RDKit          3D

 30 33  0  0  0  0  0  0  0  0999 V2000
   68.8996   39.5432   58.9373 N   0  0  0  0  0  0  0  0  0  0  0  0
   67.8720   39.5666   57.9476 C   0  0  0  0  0  0  0  0  0  0  0  0
   68.0058   40.5602   56.8605 C   0  0  0  0  0  0  0  0  0  0  0  0
   68.8835   41.7077   57.1894 N   0  0  0  0  0  0  0  0  0  0  0  0
   68.5140   42.9518   56.6557 C   0  0  0  0  0  0  0  0  0  0  0  0
   67.4510   42.9192   55.8978 O   0  0  0  0  0  0  0  0  0  0  0  0
   70.0226   41.3721   57.9712 C   0  0  0  0  0  0  0  0  0  0  0  0
   69.5099   40.8001   59.3084 C   0  0  0  0  0  0  0  0  0  0  0  0
   72.0035   35.7314   59.1825 C   0  0  0  0  0  0  0  0  0  0  0  0
   70.7959   36.4807   59.6584 C   0  0  0  0  0  0  0  0  0  0  0  0
   70.0583   35.9494   60.6893 C   0  0  0  0  0  0  0  0  0  0  0  0
   68.9569   36.6345   61.1217 C   0  0  0  0  0  0  0  0  0  0  0  0
   68.6081   37.8070   60.5417 C   0  0  0  0  0  0  0  0  0  0  0  0
   69.3414   38.3392   59.5136 C   0  0  0  0  0  0  0  0  0  0  0  0
   70.4453   37.6831   59.0583 C   0  0  0  0  0  0  0  0  0  0  0  0
   71.3262   38.1621   57.9868 C   0  0  0  0  0  0  0  0  0  0  0  0
   69.1057   44.2676   56.7921 C   0  0  0  0  0  0  0  0  0  0  0  0
   68.4375   45.3975   56.4190 O   0  0  0  0  0  0  0  0  0  0  0  0
   68.8111   46.4550   55.6461 C   0  0  0  0  0  0  0  0  0  0  0  0
   69.4287   47.5437   56.2180 C   0  0  0  0  0  0  0  0  0  0  0  0
   69.7999   48.6007   55.4505 C   0  0  0  0  0  0  0  0  0  0  0  0
   70.3727   49.6119   55.9775 O   0  0  0  0  0  0  0  0  0  0  0  0
   69.6023   48.6663   54.1216 N   0  0  0  0  0  0  0  0  0  0  0  0
   70.0238   49.8300   53.3500 C   0  0  0  0  0  0  0  0  0  0  0  0
   68.9999   47.6078   53.5491 C   0  0  0  0  0  0  0  0  0  0  0  0
   68.7729   47.6286   52.1746 C   0  0  0  0  0  0  0  0  0  0  0  0
   68.1571   46.5659   51.5386 C   0  0  0  0  0  0  0  0  0  0  0  0
   67.7761   45.4863   52.3111 C   0  0  0  0  0  0  0  0  0  0  0  0
   67.9871   45.4370   53.6705 C   0  0  0  0  0  0  0  0  0  0  0  0
   68.6014   46.5069   54.2820 C   0  0  0  0  0  0  0  0  0  0  0  0
  9 10  1  0
 10 11  2  0
 10 15  1  0
 11 12  1  0
 12 13  2  0
 13 14  1  0
 14  1  1  0
 14 15  2  0
  1  2  1  0
  1  8  1  0
  2  3  1  0
  3  4  1  0
  4  5  1  0
  4  7  1  0
  5  6  2  0
  5 17  1  0
 17 18  1  0
 18 19  1  0
 19 20  2  0
 19 30  1  0
 20 21  1  0
 21 22  2  0
 21 23  1  0
 23 24  1  0
 23 25  1  0
 25 26  1  0
 25 30  2  0
 26 27  2  0
 27 28  1  0
 28 29  2  0
 29 30  1  0
  7  8  1  0
 15 16  1  0
M  END
>  <minimizedAffinity>  (445) 
-8.57690

$$$$
data/200k_reference_output/data/smiles/22576.pdb
     RDKit          3D

 33 38  0  0  0  0  0  0  0  0999 V2000
   71.8655   45.1650   58.3542 C   0  0  0  0  0  0  0  0  0  0  0  0
   70.8237   45.7361   57.6753 C   0  0  0  0  0  0  0  0  0  0  0  0
   70.3123   46.9988   58.0067 C   0  0  0  0  0  0  0  0  0  0  0  0
   70.9025   47.6490   59.0501 C   0  0  0  0  0  0  0  0  0  0  0  0
   71.9649   47.0629   59.7422 C   0  0  0  0  0  0  0  0  0  0  0  0
   72.4576   45.8244   59.4077 C   0  0  0  0  0  0  0  0  0  0  0  0
   73.4983   45.2626   60.0942 F   0  0  0  0  0  0  0  0  0  0  0  0
   70.0763   41.7976   63.6779 O   0  0  0  0  0  0  0  0  0  0  0  0
   69.4415   42.3184   62.6902 C   0  0  0  0  0  0  0  0  0  0  0  0
   70.1803   42.5222   61.5029 N   0  0  0  0  0  0  0  0  0  0  0  0
   69.9765   43.0410   60.1778 C   0  0  0  0  0  0  0  0  0  0  0  0
   71.1400   42.2450   59.7272 C   0  0  0  0  0  0  0  0  0  0  0  0
   70.9403   40.9395   59.0486 C   0  0  0  0  0  0  0  0  0  0  0  0
   72.3425   41.2642   58.5058 C   0  0  0  0  0  0  0  0  0  0  0  0
   71.9660   42.6773   58.6896 N   0  0  0  0  0  0  0  0  0  0  0  0
   72.3931   43.8353   57.9884 C   0  0  0  0  0  0  0  0  0  0  0  0
   73.2180   43.8163   57.0405 O   0  0  0  0  0  0  0  0  0  0  0  0
   71.5720   42.2709   61.1265 C   0  0  0  0  0  0  0  0  0  0  0  0
   68.0356   42.6368   62.9206 C   0  0  0  0  0  0  0  0  0  0  0  0
   67.0083   41.8114   62.1612 C   0  0  0  0  0  0  0  0  0  0  0  0
   67.0981   41.7596   63.6736 C   0  0  0  0  0  0  0  0  0  0  0  0
   69.2214   47.6078   57.2459 C   0  0  0  0  0  0  0  0  0  0  0  0
   68.8662   46.8873   55.9887 C   0  0  0  0  0  0  0  0  0  0  0  0
   68.2432   45.6878   56.0587 N   0  0  0  0  0  0  0  0  0  0  0  0
   67.8586   45.0272   55.0036 N   0  0  0  0  0  0  0  0  0  0  0  0
   68.0809   45.5432   53.7839 C   0  0  0  0  0  0  0  0  0  0  0  0
   67.7251   44.9397   52.7237 O   0  0  0  0  0  0  0  0  0  0  0  0
   68.7146   46.7666   53.6266 C   0  0  0  0  0  0  0  0  0  0  0  0
   68.9518   47.2811   52.3631 C   0  0  0  0  0  0  0  0  0  0  0  0
   69.5943   48.4825   52.2285 C   0  0  0  0  0  0  0  0  0  0  0  0
   70.0065   49.1840   53.3397 C   0  0  0  0  0  0  0  0  0  0  0  0
   69.7617   48.6557   54.6035 C   0  0  0  0  0  0  0  0  0  0  0  0
   69.1140   47.4453   54.7845 C   0  0  0  0  0  0  0  0  0  0  0  0
  8  9  2  0
  9 19  1  0
  9 10  1  0
 19 20  1  0
 19 21  1  0
 20 21  1  0
 10 11  1  0
 10 18  1  0
 11 12  1  0
 12 13  1  0
 12 15  1  0
 12 18  1  0
 13 14  1  0
 14 15  1  0
 15 16  1  0
 16 17  2  0
 16  1  1  0
  1  2  2  0
  1  6  1  0
  2  3  1  0
  3 22  1  0
  3  4  2  0
 22 23  1  0
 23 24  2  0
 23 33  1  0
 24 25  1  0
 25 26  1  0
 26 27  2  0
 26 28  1  0
 28 29  1  0
 28 33  2  0
 29 30  2  0
 30 31  1  0
 31 32  2  0
 32 33  1  0
  4  5  1  0
  5  6  2  0
  6  7  1  0
M  END
>  <minimizedAffinity>  (446) 
-8.57688

$$$$
data/200k_reference_output/data/smiles/74373.pdb
     RDKit          3D

 31 36  0  0  0  0  0  0  0  0999 V2000
   72.5316   43.3155   60.9968 C   0  0  0  0  0  0  0  0  0  0  0  0
   72.2606   44.6743   60.6409 N   0  0  0  0  0  0  0  0  0  0  0  0
   71.4008   44.8811   59.5791 C   0  0  0  0  0  0  0  0  0  0  0  0
   71.1161   46.1094   59.0561 C   0  0  0  0  0  0  0  0  0  0  0  0
   70.2326   46.2208   57.9818 C   0  0  0  0  0  0  0  0  0  0  0  0
   69.6473   45.0811   57.4466 O   0  0  0  0  0  0  0  0  0  0  0  0
   69.9208   47.4364   57.4304 C   0  0  0  0  0  0  0  0  0  0  0  0
   70.5147   48.5429   57.9799 C   0  0  0  0  0  0  0  0  0  0  0  0
   71.4119   48.4414   59.0697 C   0  0  0  0  0  0  0  0  0  0  0  0
   71.7094   47.2098   59.6064 C   0  0  0  0  0  0  0  0  0  0  0  0
   72.5738   47.0581   60.6697 C   0  0  0  0  0  0  0  0  0  0  0  0
   73.1808   48.1652   61.2124 C   0  0  0  0  0  0  0  0  0  0  0  0
   74.0431   48.0366   62.2513 C   0  0  0  0  0  0  0  0  0  0  0  0
   74.3162   46.7962   62.7770 C   0  0  0  0  0  0  0  0  0  0  0  0
   75.1642   46.6798   63.8536 C   0  0  0  0  0  0  0  0  0  0  0  0
   75.4165   45.4503   64.4118 C   0  0  0  0  0  0  0  0  0  0  0  0
   74.8250   44.3319   63.9020 C   0  0  0  0  0  0  0  0  0  0  0  0
   73.9541   44.4350   62.7977 C   0  0  0  0  0  0  0  0  0  0  0  0
   73.7066   45.6450   62.2397 C   0  0  0  0  0  0  0  0  0  0  0  0
   72.8229   45.7577   61.1647 C   0  0  0  0  0  0  0  0  0  0  0  0
   75.2708   43.2685   64.6706 O   0  0  0  0  0  0  0  0  0  0  0  0
   76.4306   43.6743   65.3792 C   0  0  0  0  0  0  0  0  0  0  0  0
   76.2246   45.0678   65.4897 O   0  0  0  0  0  0  0  0  0  0  0  0
   69.0474   47.5790   56.3627 O   0  0  0  0  0  0  0  0  0  0  0  0
   69.4137   48.2380   55.1683 C   0  0  0  0  0  0  0  0  0  0  0  0
   68.9581   47.5156   53.9713 C   0  0  0  0  0  0  0  0  0  0  0  0
   69.4136   47.8771   52.7270 C   0  0  0  0  0  0  0  0  0  0  0  0
   68.9590   47.1706   51.6355 C   0  0  0  0  0  0  0  0  0  0  0  0
   68.0695   46.1244   51.7575 C   0  0  0  0  0  0  0  0  0  0  0  0
   67.6348   45.7933   53.0294 C   0  0  0  0  0  0  0  0  0  0  0  0
   68.0733   46.4809   54.1296 C   0  0  0  0  0  0  0  0  0  0  0  0
  1  2  1  0
  2  3  2  0
  2 20  1  0
  3  4  1  0
  4  5  2  0
  4 10  1  0
  5  6  1  0
  5  7  1  0
  7 24  1  0
  7  8  2  0
 24 25  1  0
 25 26  1  0
 26 27  2  0
 26 31  1  0
 27 28  1  0
 28 29  2  0
 29 30  1  0
 30 31  2  0
  8  9  1  0
  9 10  2  0
 10 11  1  0
 11 12  1  0
 11 20  2  0
 12 13  2  0
 13 14  1  0
 14 15  1  0
 14 19  2  0
 15 16  2  0
 16 17  1  0
 16 23  1  0
 17 18  2  0
 17 21  1  0
 18 19  1  0
 19 20  1  0
 21 22  1  0
 22 23  1  0
M  CHG  1   2   1
M  END
>  <minimizedAffinity>  (447) 
-8.57680

$$$$
data/reference_output_2/data/smiles/118389.pdb
     RDKit          3D

 30 32  0  0  0  0  0  0  0  0999 V2000
   70.4135   48.0167   57.7670 C   0  0  0  0  0  0  0  0  0  0  0  0
   70.8028   49.1598   58.1912 N   0  0  0  0  0  0  0  0  0  0  0  0
   69.9975   50.2746   58.2420 C   0  0  0  0  0  0  0  0  0  0  0  0
   69.4228   50.6288   59.2982 O   0  0  0  0  0  0  0  0  0  0  0  0
   69.7851   51.1020   57.0585 C   0  0  0  0  0  0  0  0  0  0  0  0
   70.7813   51.5808   56.2666 C   0  0  0  0  0  0  0  0  0  0  0  0
   70.6468   52.3419   55.1366 C   0  0  0  0  0  0  0  0  0  0  0  0
   69.3002   52.6359   54.7991 C   0  0  0  0  0  0  0  0  0  0  0  0
   68.2751   52.1733   55.5701 C   0  0  0  0  0  0  0  0  0  0  0  0
   68.4743   51.4201   56.6833 C   0  0  0  0  0  0  0  0  0  0  0  0
   71.3735   46.9225   57.7355 N   0  0  0  0  0  0  0  0  0  0  0  0
   71.0690   45.6673   58.3208 C   0  0  0  0  0  0  0  0  0  0  0  0
   69.9075   45.5909   58.8613 O   0  0  0  0  0  0  0  0  0  0  0  0
   71.9354   44.5219   58.3491 C   0  0  0  0  0  0  0  0  0  0  0  0
   71.4290   43.2790   58.0525 C   0  0  0  0  0  0  0  0  0  0  0  0
   72.2447   42.1519   58.0647 C   0  0  0  0  0  0  0  0  0  0  0  0
   73.5879   42.2920   58.3817 C   0  0  0  0  0  0  0  0  0  0  0  0
   74.3878   41.1841   58.3845 F   0  0  0  0  0  0  0  0  0  0  0  0
   74.1105   43.5359   58.6826 C   0  0  0  0  0  0  0  0  0  0  0  0
   73.2616   44.6406   58.6596 C   0  0  0  0  0  0  0  0  0  0  0  0
   69.0983   47.8355   57.3114 N   0  0  0  0  0  0  0  0  0  0  0  0
   68.3859   46.8239   53.2709 C   0  0  0  0  0  0  0  0  0  0  0  0
   68.8682   48.0843   53.6432 C   0  0  0  0  0  0  0  0  0  0  0  0
   69.0879   48.4623   54.9362 C   0  0  0  0  0  0  0  0  0  0  0  0
   68.8286   47.5722   55.9571 C   0  0  0  0  0  0  0  0  0  0  0  0
   68.3560   46.3253   55.6132 C   0  0  0  0  0  0  0  0  0  0  0  0
   68.1426   45.9667   54.3146 C   0  0  0  0  0  0  0  0  0  0  0  0
   67.1072   45.6132   51.5093 N   0  0  0  0  0  0  0  0  0  0  0  0
   68.1765   46.4951   51.8688 C   0  0  0  0  0  0  0  0  0  0  0  0
   68.8918   46.9473   50.9505 O   0  0  0  0  0  0  0  0  0  0  0  0
 28 29  1  0
 29 30  2  0
 29 22  1  0
 22 23  2  0
 22 27  1  0
 23 24  1  0
 24 25  2  0
 25 21  1  0
 25 26  1  0
 21  1  1  0
  1  2  2  0
  1 11  1  0
  2  3  1  0
  3  4  2  0
  3  5  1  0
  5  6  2  0
  5 10  1  0
  6  7  1  0
  7  8  2  0
  8  9  1  0
  9 10  2  0
 11 12  1  0
 12 13  2  0
 12 14  1  0
 14 15  2  0
 14 20  1  0
 15 16  1  0
 16 17  2  0
 17 18  1  0
 17 19  1  0
 19 20  2  0
 26 27  2  0
M  CHG  1   2   1
M  END
>  <minimizedAffinity>  (448) 
-8.57642

$$$$
data/200k_reference_output/data/smiles/71444.pdb
     RDKit          3D

 25 27  0  0  0  0  0  0  0  0999 V2000
   69.4576   47.2945   56.2820 N   0  0  0  0  0  0  0  0  0  0  0  0
   69.9373   48.2669   55.5568 N   0  0  0  0  0  0  0  0  0  0  0  0
   69.7675   48.3912   54.1982 C   0  0  0  0  0  0  0  0  0  0  0  0
   69.0455   47.4408   53.5126 C   0  0  0  0  0  0  0  0  0  0  0  0
   68.8321   47.4962   52.1525 C   0  0  0  0  0  0  0  0  0  0  0  0
   68.0888   46.5051   51.4914 C   0  0  0  0  0  0  0  0  0  0  0  0
   67.5848   45.4807   52.2617 C   0  0  0  0  0  0  0  0  0  0  0  0
   67.8005   45.4290   53.6221 C   0  0  0  0  0  0  0  0  0  0  0  0
   68.5264   46.3945   54.2777 C   0  0  0  0  0  0  0  0  0  0  0  0
   68.7502   46.3542   55.6395 C   0  0  0  0  0  0  0  0  0  0  0  0
   68.2756   45.4039   56.3125 O   0  0  0  0  0  0  0  0  0  0  0  0
   70.3516   49.5186   53.5134 C   0  0  0  0  0  0  0  0  0  0  0  0
   71.5860   49.3629   53.1648 O   0  0  0  0  0  0  0  0  0  0  0  0
   69.8332   50.7197   53.1700 O   0  0  0  0  0  0  0  0  0  0  0  0
   69.6797   47.2268   57.7288 C   0  0  0  0  0  0  0  0  0  0  0  0
   69.9179   45.3481   59.1406 O   0  0  0  0  0  0  0  0  0  0  0  0
   70.3211   45.9384   58.1061 C   0  0  0  0  0  0  0  0  0  0  0  0
   71.3704   45.3427   57.3537 N   0  0  0  0  0  0  0  0  0  0  0  0
   71.9861   44.1112   57.7118 C   0  0  0  0  0  0  0  0  0  0  0  0
   71.2303   42.9533   57.8142 C   0  0  0  0  0  0  0  0  0  0  0  0
   71.8300   41.7595   58.1617 C   0  0  0  0  0  0  0  0  0  0  0  0
   73.1836   41.6594   58.4194 C   0  0  0  0  0  0  0  0  0  0  0  0
   73.9408   42.8088   58.3196 C   0  0  0  0  0  0  0  0  0  0  0  0
   75.8168   42.6896   58.6732 Br  0  0  0  0  0  0  0  0  0  0  0  0
   73.3363   44.0016   57.9711 C   0  0  0  0  0  0  0  0  0  0  0  0
 16 17  2  0
 17 15  1  0
 17 18  1  0
 15  1  1  0
  1  2  1  0
  1 10  1  0
  2  3  2  0
  3 12  1  0
  3  4  1  0
 12 13  2  0
 12 14  1  0
  4  5  2  0
  4  9  1  0
  5  6  1  0
  6  7  2  0
  7  8  1  0
  8  9  2  0
  9 10  1  0
 10 11  2  0
 18 19  1  0
 19 20  2  0
 19 25  1  0
 20 21  1  0
 21 22  2  0
 22 23  1  0
 23 24  1  0
 23 25  2  0
M  END
>  <minimizedAffinity>  (449) 
-8.57547

$$$$
data/200k_reference_output/data/smiles/86957.pdb
     RDKit          3D

 30 33  0  0  0  0  0  0  0  0999 V2000
   71.9611   47.9712   58.8453 C   0  0  0  0  0  0  0  0  0  0  0  0
   70.6996   48.1417   58.3156 C   0  0  0  0  0  0  0  0  0  0  0  0
   70.4282   48.9410   57.2447 C   0  0  0  0  0  0  0  0  0  0  0  0
   71.5245   49.6141   56.6717 C   0  0  0  0  0  0  0  0  0  0  0  0
   72.7944   49.4742   57.1633 C   0  0  0  0  0  0  0  0  0  0  0  0
   73.0075   48.6442   58.2601 C   0  0  0  0  0  0  0  0  0  0  0  0
   74.2924   48.5417   58.7066 F   0  0  0  0  0  0  0  0  0  0  0  0
   71.8341   43.1095   59.8093 C   0  0  0  0  0  0  0  0  0  0  0  0
   72.0265   43.8012   61.1245 C   0  0  0  0  0  0  0  0  0  0  0  0
   72.9557   44.9872   61.0588 C   0  0  0  0  0  0  0  0  0  0  0  0
   72.6845   45.7742   59.8677 N   0  0  0  0  0  0  0  0  0  0  0  0
   72.2581   47.1114   59.9829 C   0  0  0  0  0  0  0  0  0  0  0  0
   72.1298   47.5796   61.1665 O   0  0  0  0  0  0  0  0  0  0  0  0
   72.8861   45.0781   58.6141 C   0  0  0  0  0  0  0  0  0  0  0  0
   72.7011   43.6006   58.6961 C   0  0  0  0  0  0  0  0  0  0  0  0
   69.5488   44.1029   59.5930 N   0  0  0  0  0  0  0  0  0  0  0  0
   70.4096   42.9997   59.4260 C   0  0  0  0  0  0  0  0  0  0  0  0
   69.9623   41.9362   58.9553 O   0  0  0  0  0  0  0  0  0  0  0  0
   69.0955   49.1644   56.6307 C   0  0  0  0  0  0  0  0  0  0  0  0
   68.7478   48.0381   55.7808 C   0  0  0  0  0  0  0  0  0  0  0  0
   68.3826   46.8816   56.4197 N   0  0  0  0  0  0  0  0  0  0  0  0
   68.0768   45.7714   55.7719 N   0  0  0  0  0  0  0  0  0  0  0  0
   68.0968   45.6750   54.4108 C   0  0  0  0  0  0  0  0  0  0  0  0
   67.7971   44.5933   53.8496 O   0  0  0  0  0  0  0  0  0  0  0  0
   68.4545   46.8025   53.7206 C   0  0  0  0  0  0  0  0  0  0  0  0
   68.7685   47.9529   54.4277 C   0  0  0  0  0  0  0  0  0  0  0  0
   69.0977   49.1236   53.6104 C   0  0  0  0  0  0  0  0  0  0  0  0
   70.1499   48.7369   52.5967 C   0  0  0  0  0  0  0  0  0  0  0  0
   69.9201   47.4109   51.9566 C   0  0  0  0  0  0  0  0  0  0  0  0
   68.5282   46.8441   52.2460 C   0  0  0  0  0  0  0  0  0  0  0  0
 16 17  1  0
 17 18  2  0
 17  8  1  0
  8  9  1  0
  8 15  1  0
  9 10  1  0
 10 11  1  0
 11 12  1  0
 11 14  1  0
 12 13  2  0
 12  1  1  0
  1  2  2  0
  1  6  1  0
  2  3  1  0
  3 19  1  0
  3  4  2  0
 19 20  1  0
 20 21  2  0
 20 26  1  0
 21 22  1  0
 22 23  1  0
 23 24  2  0
 23 25  1  0
 25 26  2  0
 25 30  1  0
 26 27  1  0
 27 28  1  0
 28 29  1  0
 29 30  1  0
  4  5  1  0
  5  6  2  0
  6  7  1  0
 14 15  1  0
M  END
>  <minimizedAffinity>  (450) 
-8.57419

$$$$
data/200k_reference_output/data/smiles/53569.pdb
     RDKit          3D

 29 31  0  0  0  0  0  0  0  0999 V2000
   71.8738   43.3844   57.7513 C   0  0  0  0  0  0  0  0  0  0  0  0
   70.4961   43.5629   58.3280 C   0  0  2  0  0  0  0  0  0  0  0  0
   70.4751   43.2600   59.8102 C   0  0  0  0  0  0  0  0  0  0  0  0
   70.1851   41.8548   59.3361 C   0  0  0  0  0  0  0  0  0  0  0  0
   69.5927   42.4571   58.1278 N   0  0  0  0  0  0  0  0  0  0  0  0
   68.5896   42.1006   57.1964 C   0  0  0  0  0  0  0  0  0  0  0  0
   68.3378   42.8847   56.2504 O   0  0  0  0  0  0  0  0  0  0  0  0
   69.9633   44.9101   57.9789 C   0  0  0  0  0  0  0  0  0  0  0  0
   69.7374   45.8123   58.8239 O   0  0  0  0  0  0  0  0  0  0  0  0
   69.6725   45.2548   56.6231 N   0  0  0  0  0  0  0  0  0  0  0  0
   69.0540   46.8108   56.1999 S   0  0  0  0  0  0  0  0  0  0  0  0
   67.7752   47.0509   56.9479 O   0  0  0  0  0  0  0  0  0  0  0  0
   70.0357   47.9038   56.5972 O   0  0  0  0  0  0  0  0  0  0  0  0
   68.8108   46.8411   54.4724 C   0  0  0  0  0  0  0  0  0  0  0  0
   69.3732   47.8341   53.7010 C   0  0  0  0  0  0  0  0  0  0  0  0
   69.1779   47.8504   52.3466 C   0  0  0  0  0  0  0  0  0  0  0  0
   68.4176   46.8801   51.7128 C   0  0  0  0  0  0  0  0  0  0  0  0
   67.8527   45.8847   52.4728 C   0  0  0  0  0  0  0  0  0  0  0  0
   67.1046   44.9211   51.8824 F   0  0  0  0  0  0  0  0  0  0  0  0
   68.0569   45.8757   53.8510 C   0  0  0  0  0  0  0  0  0  0  0  0
   67.8460   40.8298   57.3286 C   0  0  0  0  0  0  0  0  0  0  0  0
   67.2572   40.6421   58.6583 C   0  0  0  0  0  0  0  0  0  0  0  0
   66.5784   41.6744   59.2624 C   0  0  0  0  0  0  0  0  0  0  0  0
   66.0045   41.5442   60.5180 C   0  0  0  0  0  0  0  0  0  0  0  0
   65.3354   42.5633   61.1130 F   0  0  0  0  0  0  0  0  0  0  0  0
   66.1040   40.3592   61.1963 C   0  0  0  0  0  0  0  0  0  0  0  0
   66.7863   39.3102   60.5963 C   0  0  0  0  0  0  0  0  0  0  0  0
   67.3528   39.4540   59.3464 C   0  0  0  0  0  0  0  0  0  0  0  0
   67.9987   38.3786   58.8384 F   0  0  0  0  0  0  0  0  0  0  0  0
  2  1  1  6
  2  8  1  0
  2  3  1  0
  2  5  1  0
  8  9  2  0
  8 10  1  0
 10 11  1  0
 11 12  2  0
 11 13  2  0
 11 14  1  0
 14 15  2  0
 14 20  1  0
 15 16  1  0
 16 17  2  0
 17 18  1  0
 18 19  1  0
 18 20  2  0
  3  4  1  0
  4  5  1  0
  5  6  1  0
  6  7  2  0
  6 21  1  0
 21 22  1  0
 22 23  2  0
 22 28  1  0
 23 24  1  0
 24 25  1  0
 24 26  2  0
 26 27  1  0
 27 28  2  0
 28 29  1  0
M  END
>  <minimizedAffinity>  (451) 
-8.57320

$$$$
data/reference_output_2/data/smiles/119109.pdb
     RDKit          3D

 28 30  0  0  0  0  0  0  0  0999 V2000
   68.9379   48.9444   55.2973 C   0  0  0  0  0  0  0  0  0  0  0  0
   68.8307   48.5787   56.5787 C   0  0  0  0  0  0  0  0  0  0  0  0
   68.7213   49.4150   57.6307 C   0  0  0  0  0  0  0  0  0  0  0  0
   68.7517   50.8136   57.3483 C   0  0  0  0  0  0  0  0  0  0  0  0
   68.8726   51.2516   56.0918 C   0  0  0  0  0  0  0  0  0  0  0  0
   68.9558   50.3477   55.0313 C   0  0  0  0  0  0  0  0  0  0  0  0
   68.4194   46.3041   52.5986 C   0  0  0  0  0  0  0  0  0  0  0  0
   69.3171   47.0318   51.5542 C   0  0  0  0  0  0  0  0  0  0  0  0
   69.9534   47.9909   51.9162 C   0  0  0  0  0  0  0  0  0  0  0  0
   70.0534   48.6249   53.1135 C   0  0  0  0  0  0  0  0  0  0  0  0
   69.2947   48.0905   54.1584 C   0  0  0  0  0  0  0  0  0  0  0  0
   68.5493   46.9866   53.8466 C   0  0  0  0  0  0  0  0  0  0  0  0
   66.6603   44.5665   51.8373 N   0  0  0  0  0  0  0  0  0  0  0  0
   67.5165   45.4261   52.2045 C   0  0  0  0  0  0  0  0  0  0  0  0
   69.3542   52.9185   55.6055 S   0  0  0  0  0  0  0  0  0  0  0  0
   69.2944   53.8505   56.6810 O   0  0  0  0  0  0  0  0  0  0  0  0
   68.5413   53.2362   54.3985 O   0  0  0  0  0  0  0  0  0  0  0  0
   71.0397   52.5018   55.1343 N   0  0  0  0  0  0  0  0  0  0  0  0
   71.8837   52.0956   56.1403 C   0  0  0  0  0  0  0  0  0  0  0  0
   71.6465   52.5024   57.5283 C   0  0  0  0  0  0  0  0  0  0  0  0
   72.4289   51.9785   58.5057 C   0  0  0  0  0  0  0  0  0  0  0  0
   73.4709   51.0714   58.3636 C   0  0  0  0  0  0  0  0  0  0  0  0
   73.7062   50.6703   56.9974 C   0  0  0  0  0  0  0  0  0  0  0  0
   72.9280   51.2119   56.1104 C   0  0  0  0  0  0  0  0  0  0  0  0
   73.4296   50.9017   54.3520 S   0  0  0  0  0  0  0  0  0  0  0  0
   74.8810   49.9508   54.5943 N   0  0  0  0  0  0  0  0  0  0  0  0
   73.6594   52.2152   53.7667 O   0  0  0  0  0  0  0  0  0  0  0  0
   72.3869   50.0387   53.7587 O   0  0  0  0  0  0  0  0  0  0  0  0
 13 14  3  0
 14  7  1  0
  7  8  2  0
  7 12  1  0
  8  9  1  0
  9 10  2  0
 10 11  1  0
 11  1  1  0
 11 12  2  0
  1  2  2  0
  1  6  1  0
  2  3  1  0
  3  4  2  0
  4  5  1  0
  5 15  1  0
  5  6  2  0
 15 16  2  0
 15 17  2  0
 15 18  1  0
 18 19  1  0
 19 20  2  0
 19 24  1  0
 20 21  1  0
 21 22  2  0
 22 23  1  0
 23 24  2  0
 24 25  1  0
 25 26  1  0
 25 27  2  0
 25 28  2  0
M  END
>  <minimizedAffinity>  (452) 
-8.57296

$$$$
data/reference_output_2/data/smiles/99717.pdb
     RDKit          3D

 29 33  0  0  0  0  0  0  0  0999 V2000
   69.8118   49.9211   56.7663 C   0  0  0  0  0  0  0  0  0  0  0  0
   67.1743   47.6512   57.0300 O   0  0  0  0  0  0  0  0  0  0  0  0
   68.4840   47.4131   56.3883 S   0  0  0  0  0  0  0  0  0  0  0  0
   69.3648   46.5037   57.2140 O   0  0  0  0  0  0  0  0  0  0  0  0
   68.3269   46.7571   54.7724 C   0  0  0  0  0  0  0  0  0  0  0  0
   67.7540   45.6009   54.2627 C   0  0  0  0  0  0  0  0  0  0  0  0
   67.8098   45.3791   52.9011 C   0  0  0  0  0  0  0  0  0  0  0  0
   68.4221   46.2919   52.0765 C   0  0  0  0  0  0  0  0  0  0  0  0
   69.0024   47.4601   52.5730 C   0  0  0  0  0  0  0  0  0  0  0  0
   69.6098   48.3643   51.7497 C   0  0  0  0  0  0  0  0  0  0  0  0
   70.1602   49.4927   52.3134 C   0  0  0  0  0  0  0  0  0  0  0  0
   70.0897   49.6863   53.6760 C   0  0  0  0  0  0  0  0  0  0  0  0
   69.4636   48.7541   54.5296 C   0  0  0  0  0  0  0  0  0  0  0  0
   68.9372   47.6681   53.9530 C   0  0  0  0  0  0  0  0  0  0  0  0
   69.3305   48.8490   55.9423 N   0  0  0  0  0  0  0  0  0  0  0  0
   71.1572   49.7299   57.3837 C   0  0  0  0  0  0  0  0  0  0  0  0
   71.1802   49.2325   58.7835 C   0  0  0  0  0  0  0  0  0  0  0  0
   72.5098   48.8555   59.2262 N   0  0  0  0  0  0  0  0  0  0  0  0
   72.5244   47.8236   60.1984 C   0  0  0  0  0  0  0  0  0  0  0  0
   72.3128   46.4874   59.4717 C   0  0  0  0  0  0  0  0  0  0  0  0
   73.5365   46.2535   58.7571 N   0  0  0  0  0  0  0  0  0  0  0  0
   74.3136   47.4082   58.3967 C   0  0  0  0  0  0  0  0  0  0  0  0
   73.2993   48.5181   58.0746 C   0  0  0  0  0  0  0  0  0  0  0  0
   73.9243   44.9474   58.4335 C   0  0  0  0  0  0  0  0  0  0  0  0
   73.1428   44.0215   57.7765 C   0  0  0  0  0  0  0  0  0  0  0  0
   73.5961   42.7444   57.4934 C   0  0  0  0  0  0  0  0  0  0  0  0
   74.8590   42.3572   57.8647 C   0  0  0  0  0  0  0  0  0  0  0  0
   75.6440   43.3040   58.5307 C   0  0  0  0  0  0  0  0  0  0  0  0
   75.1693   44.5247   58.7845 N   0  0  0  0  0  0  0  0  0  0  0  0
  2  3  2  0
  3  4  2  0
  3  5  1  0
  3 15  1  0
  5  6  2  0
  5 14  1  0
  6  7  1  0
  7  8  2  0
  8  9  1  0
  9 10  1  0
  9 14  2  0
 10 11  2  0
 11 12  1  0
 12 13  2  0
 13 14  1  0
 13 15  1  0
 15  1  1  0
  1 16  1  0
 16 17  1  0
 17 18  1  0
 18 19  1  0
 18 23  1  0
 19 20  1  0
 20 21  1  0
 21 24  1  0
 21 22  1  0
 24 25  2  0
 24 29  1  0
 25 26  1  0
 26 27  2  0
 27 28  1  0
 28 29  2  0
 22 23  1  0
M  CHG  1  18   1
M  END
>  <minimizedAffinity>  (453) 
-8.57226

$$$$
data/200k_reference_output/data/smiles/45289.pdb
     RDKit          3D

 29 32  0  0  0  0  0  0  0  0999 V2000
   74.1537   34.4246   54.5475 S   0  0  0  0  0  0  0  0  0  0  0  0
   73.6058   33.2442   53.8336 O   0  0  0  0  0  0  0  0  0  0  0  0
   73.9141   35.6853   53.7328 O   0  0  0  0  0  0  0  0  0  0  0  0
   73.3185   34.6684   56.0917 C   0  0  0  0  0  0  0  0  0  0  0  0
   72.9097   35.9445   56.4476 C   0  0  0  0  0  0  0  0  0  0  0  0
   72.2422   36.1702   57.6716 C   0  0  0  0  0  0  0  0  0  0  0  0
   72.0252   35.0905   58.4675 C   0  0  0  0  0  0  0  0  0  0  0  0
   72.4179   33.8265   58.1414 C   0  0  0  0  0  0  0  0  0  0  0  0
   73.0743   33.6124   56.9350 C   0  0  0  0  0  0  0  0  0  0  0  0
   72.0056   32.9381   59.2531 C   0  0  0  0  0  0  0  0  0  0  0  0
   71.3222   33.7894   60.2712 C   0  0  0  0  0  0  0  0  0  0  0  0
   71.3569   35.1286   59.7195 N   0  0  0  0  0  0  0  0  0  0  0  0
   70.8987   36.4223   60.1222 C   0  0  0  0  0  0  0  0  0  0  0  0
   70.6418   36.6409   61.3113 O   0  0  0  0  0  0  0  0  0  0  0  0
   70.7447   37.4616   59.1019 C   0  0  0  0  0  0  0  0  0  0  0  0
   71.8164   37.5118   58.0711 C   0  0  0  0  0  0  0  0  0  0  0  0
   75.8716   34.1949   54.8719 C   0  0  0  0  0  0  0  0  0  0  0  0
   76.7871   35.1795   54.2620 C   0  0  0  0  0  0  0  0  0  0  0  0
   76.3328   35.4741   51.7819 N   0  0  0  0  0  0  0  0  0  0  0  0
   77.1628   34.9963   52.8671 C   0  0  0  0  0  0  0  0  0  0  0  0
   78.2317   34.4101   52.5692 O   0  0  0  0  0  0  0  0  0  0  0  0
   77.9708   34.4741   46.3815 C   0  0  0  0  0  0  0  0  0  0  0  0
   77.5555   34.7464   47.7945 C   0  0  0  0  0  0  0  0  0  0  0  0
   78.2412   35.6468   48.5802 C   0  0  0  0  0  0  0  0  0  0  0  0
   77.8525   35.8945   49.8858 C   0  0  0  0  0  0  0  0  0  0  0  0
   76.7676   35.2557   50.4580 C   0  0  0  0  0  0  0  0  0  0  0  0
   76.0907   34.3579   49.6587 C   0  0  0  0  0  0  0  0  0  0  0  0
   74.9174   33.6513   50.2400 C   0  0  0  0  0  0  0  0  0  0  0  0
   76.4711   34.1044   48.3556 C   0  0  0  0  0  0  0  0  0  0  0  0
 22 23  1  0
 23 24  2  0
 23 29  1  0
 24 25  1  0
 25 26  2  0
 26 19  1  0
 26 27  1  0
 19 20  1  0
 20 21  2  0
 20 18  1  0
 18 17  1  0
 17  1  1  0
  1  2  2  0
  1  3  2  0
  1  4  1  0
  4  5  2  0
  4  9  1  0
  5  6  1  0
  6  7  2  0
  6 16  1  0
  7  8  1  0
  7 12  1  0
  8  9  2  0
  8 10  1  0
 10 11  1  0
 11 12  1  0
 12 13  1  0
 13 14  2  0
 13 15  1  0
 15 16  1  0
 27 28  1  0
 27 29  2  0
M  END
>  <minimizedAffinity>  (454) 
-8.56877

$$$$
data/reference_output_2/data/smiles/106218.pdb
     RDKit          3D

 32 35  0  0  0  0  0  0  0  0999 V2000
   71.4263   47.1528   58.5238 C   0  0  0  0  0  0  0  0  0  0  0  0
   72.5016   47.5972   58.0568 O   0  0  0  0  0  0  0  0  0  0  0  0
   70.2157   47.4973   57.8758 N   0  0  0  0  0  0  0  0  0  0  0  0
   70.1793   48.3296   56.7135 C   0  0  2  0  0  0  0  0  0  0  0  0
   69.5146   49.6280   56.9701 C   0  0  0  0  0  0  0  0  0  0  0  0
   69.3990   49.9487   58.1657 O   0  0  0  0  0  0  0  0  0  0  0  0
   68.9862   50.5684   56.0621 N   0  0  0  0  0  0  0  0  0  0  0  0
   68.2824   51.7433   56.5398 C   0  0  0  0  0  0  0  0  0  0  0  0
   68.9756   52.8199   55.6923 C   0  0  0  0  0  0  0  0  0  0  0  0
   69.4419   52.0110   54.4737 C   0  0  0  0  0  0  0  0  0  0  0  0
   68.9502   50.6923   54.6940 N   0  0  0  0  0  0  0  0  0  0  0  0
   69.5391   49.6746   53.9220 C   0  0  0  0  0  0  0  0  0  0  0  0
   69.1572   48.2905   54.3934 C   0  0  0  0  0  0  0  0  0  0  0  0
   68.4498   47.6129   53.4206 C   0  0  0  0  0  0  0  0  0  0  0  0
   68.0249   46.3446   53.6788 C   0  0  0  0  0  0  0  0  0  0  0  0
   68.2865   45.7201   54.8929 C   0  0  0  0  0  0  0  0  0  0  0  0
   69.0015   46.4257   55.8545 C   0  0  0  0  0  0  0  0  0  0  0  0
   69.4306   47.6996   55.5993 C   0  0  0  0  0  0  0  0  0  0  0  0
   72.6365   46.7608   60.6395 C   0  0  0  0  0  0  0  0  0  0  0  0
   71.4865   46.2895   59.7315 C   0  0  2  0  0  0  0  0  0  0  0  0
   71.8536   44.8940   59.3008 C   0  0  0  0  0  0  0  0  0  0  0  0
   70.6247   44.1082   58.9275 C   0  0  0  0  0  0  0  0  0  0  0  0
   69.6123   44.2527   59.6208 O   0  0  0  0  0  0  0  0  0  0  0  0
   70.6059   43.2340   57.8291 N   0  0  0  0  0  0  0  0  0  0  0  0
   69.5391   42.4450   57.3696 C   0  0  0  0  0  0  0  0  0  0  0  0
   68.5400   42.8536   56.5387 C   0  0  0  0  0  0  0  0  0  0  0  0
   67.5115   42.0249   56.1185 C   0  0  0  0  0  0  0  0  0  0  0  0
   66.5660   42.5305   55.2919 F   0  0  0  0  0  0  0  0  0  0  0  0
   67.4558   40.7239   56.5333 C   0  0  0  0  0  0  0  0  0  0  0  0
   68.4562   40.2950   57.3728 C   0  0  0  0  0  0  0  0  0  0  0  0
   68.4147   39.0094   57.7919 F   0  0  0  0  0  0  0  0  0  0  0  0
   69.4780   41.1082   57.7930 C   0  0  0  0  0  0  0  0  0  0  0  0
 20 19  1  1
 20 21  1  0
 20  1  1  0
 21 22  1  0
 22 23  2  0
 22 24  1  0
 24 25  1  0
 25 26  2  0
 25 32  1  0
 26 27  1  0
 27 28  1  0
 27 29  2  0
 29 30  1  0
 30 31  1  0
 30 32  2  0
  1  2  2  0
  1  3  1  0
  4  3  1  1
  4  5  1  0
  4 18  1  0
  5  6  2  0
  5  7  1  0
  7  8  1  0
  8  9  1  0
  9 10  1  0
 10 11  1  0
 11  7  1  0
 11 12  1  0
 12 13  1  0
 13 14  1  0
 13 18  2  0
 14 15  2  0
 15 16  1  0
 16 17  2  0
 17 18  1  0
M  END
>  <minimizedAffinity>  (455) 
-8.56801

$$$$
data/reference_output_2/data/smiles/120298.pdb
     RDKit          3D

 29 32  0  0  0  0  0  0  0  0999 V2000
   69.9736   43.4656   57.4018 C   0  0  0  0  0  0  0  0  0  0  0  0
   68.7201   42.8516   56.8675 C   0  0  0  0  0  0  0  0  0  0  0  0
   68.1784   41.6458   57.2010 C   0  0  0  0  0  0  0  0  0  0  0  0
   67.0247   41.5308   56.4398 C   0  0  0  0  0  0  0  0  0  0  0  0
   66.9355   42.6552   55.7021 N   0  0  0  0  0  0  0  0  0  0  0  0
   67.9409   43.4648   55.9406 N   0  0  0  0  0  0  0  0  0  0  0  0
   68.1705   44.7455   55.3380 C   0  0  0  0  0  0  0  0  0  0  0  0
   68.5424   45.7985   56.0863 N   0  0  0  0  0  0  0  0  0  0  0  0
   68.7716   47.0258   55.5685 C   0  0  0  0  0  0  0  0  0  0  0  0
   68.6254   47.2385   54.2154 C   0  0  0  0  0  0  0  0  0  0  0  0
   68.2438   46.1541   53.4518 C   0  0  0  0  0  0  0  0  0  0  0  0
   68.1079   46.3440   52.2098 O   0  0  0  0  0  0  0  0  0  0  0  0
   68.0250   44.9396   54.0150 N   0  0  0  0  0  0  0  0  0  0  0  0
   68.9386   48.6741   53.9003 C   0  0  0  0  0  0  0  0  0  0  0  0
   69.8044   49.0716   55.0958 C   0  0  0  0  0  0  0  0  0  0  0  0
   69.1795   48.2959   56.2156 C   0  0  0  0  0  0  0  0  0  0  0  0
   68.7403   40.7113   58.1659 C   0  0  0  0  0  0  0  0  0  0  0  0
   69.7043   39.9861   57.8119 O   0  0  0  0  0  0  0  0  0  0  0  0
   68.2473   40.5853   59.4871 N   0  0  0  0  0  0  0  0  0  0  0  0
   67.1391   41.3820   59.9810 C   0  0  0  0  0  0  0  0  0  0  0  0
   66.1628   40.4310   60.6267 C   0  0  0  0  0  0  0  0  0  0  0  0
   66.4242   38.9900   60.2646 C   0  0  0  0  0  0  0  0  0  0  0  0
   67.8038   38.5284   60.6011 C   0  0  0  0  0  0  0  0  0  0  0  0
   68.8369   39.6437   60.4141 C   0  0  0  0  0  0  0  0  0  0  0  0
   65.4059   38.1534   61.0132 C   0  0  0  0  0  0  0  0  0  0  0  0
   64.6758   37.2357   60.0759 C   0  0  0  0  0  0  0  0  0  0  0  0
   65.4841   36.7170   59.0901 F   0  0  0  0  0  0  0  0  0  0  0  0
   64.1244   36.1912   60.7589 F   0  0  0  0  0  0  0  0  0  0  0  0
   63.6668   37.9973   59.4765 F   0  0  0  0  0  0  0  0  0  0  0  0
  1  2  1  0
  2  3  2  0
  2  6  1  0
  3 17  1  0
  3  4  1  0
 17 18  2  0
 17 19  1  0
 19 20  1  0
 19 24  1  0
 20 21  1  0
 21 22  1  0
 22 25  1  0
 22 23  1  0
 25 26  1  0
 26 27  1  0
 26 28  1  0
 26 29  1  0
 23 24  1  0
  4  5  2  0
  5  6  1  0
  6  7  1  0
  7  8  2  0
  7 13  1  0
  8  9  1  0
  9 10  2  0
  9 16  1  0
 10 11  1  0
 10 14  1  0
 11 12  2  0
 11 13  1  0
 14 15  1  0
 15 16  1  0
M  END
>  <minimizedAffinity>  (456) 
-8.56469

$$$$
data/200k_reference_output/data/smiles/41478.pdb
     RDKit          3D

 29 32  0  0  0  0  0  0  0  0999 V2000
   70.1831   38.9257   58.6017 N   0  0  0  0  0  0  0  0  0  0  0  0
   69.4550   38.2636   59.5194 C   0  0  0  0  0  0  0  0  0  0  0  0
   69.8155   36.9885   59.9669 C   0  0  0  0  0  0  0  0  0  0  0  0
   70.9518   36.3711   59.4637 C   0  0  0  0  0  0  0  0  0  0  0  0
   71.7062   37.0421   58.5224 C   0  0  0  0  0  0  0  0  0  0  0  0
   71.2766   38.2928   58.1401 C   0  0  0  0  0  0  0  0  0  0  0  0
   72.9011   36.4098   57.9834 C   0  0  0  0  0  0  0  0  0  0  0  0
   73.9655   36.1838   58.8254 C   0  0  0  0  0  0  0  0  0  0  0  0
   75.1393   35.5808   58.3666 C   0  0  0  0  0  0  0  0  0  0  0  0
   75.2528   35.1994   57.0507 C   0  0  0  0  0  0  0  0  0  0  0  0
   74.1962   35.4176   56.1900 C   0  0  0  0  0  0  0  0  0  0  0  0
   73.0298   36.0216   56.6672 C   0  0  0  0  0  0  0  0  0  0  0  0
   72.2292   36.0921   55.6415 O   0  0  0  0  0  0  0  0  0  0  0  0
   72.7683   35.5928   54.5556 C   0  0  0  0  0  0  0  0  0  0  0  0
   72.2892   35.4632   53.2685 C   0  0  0  0  0  0  0  0  0  0  0  0
   73.0448   34.8943   52.2615 C   0  0  0  0  0  0  0  0  0  0  0  0
   74.3313   34.4370   52.5568 C   0  0  0  0  0  0  0  0  0  0  0  0
   74.7965   34.5730   53.8476 C   0  0  0  0  0  0  0  0  0  0  0  0
   74.0485   35.1383   54.8514 C   0  0  0  0  0  0  0  0  0  0  0  0
   69.7533   40.2123   58.1954 C   0  0  0  0  0  0  0  0  0  0  0  0
   68.3780   40.6429   58.4055 C   0  0  1  0  0  0  0  0  0  0  0  0
   68.8898   41.3800   60.9445 O   0  0  0  0  0  0  0  0  0  0  0  0
   68.3067   41.9452   59.6590 P   0  0  1  0  0  0  0  0  0  0  0  0
   69.2054   43.3008   59.1896 O   0  0  0  0  0  0  0  0  0  0  0  0
   66.6904   42.3916   59.8697 O   0  0  0  0  0  0  0  0  0  0  0  0
   67.7856   41.3821   56.8294 P   0  0  0  0  0  0  0  0  0  0  0  0
   68.6953   42.4834   56.3846 O   0  0  0  0  0  0  0  0  0  0  0  0
   66.2256   41.9679   56.9794 O   0  0  0  0  0  0  0  0  0  0  0  0
   67.7733   40.2014   55.6021 O   0  0  0  0  0  0  0  0  0  0  0  0
 23 22  2  0
 23 24  1  6
 23 25  1  0
 23 21  1  0
 21 20  1  6
 21 26  1  0
 20  1  1  0
  1  2  2  0
  1  6  1  0
  2  3  1  0
  3  4  2  0
  4  5  1  0
  5  7  1  0
  5  6  2  0
  7  8  2  0
  7 12  1  0
  8  9  1  0
  9 10  2  0
 10 11  1  0
 11 12  2  0
 11 19  1  0
 12 13  1  0
 13 14  1  0
 14 15  1  0
 14 19  2  0
 15 16  2  0
 16 17  1  0
 17 18  2  0
 18 19  1  0
 26 27  2  0
 26 28  1  0
 26 29  1  0
M  CHG  2   1   1  24  -1
M  END
>  <minimizedAffinity>  (457) 
-8.56388

$$$$
data/reference_output_2/data/smiles/97083.pdb
     RDKit          3D

 29 33  0  0  0  0  0  0  0  0999 V2000
   70.0120   45.2631   58.9807 O   0  0  0  0  0  0  0  0  0  0  0  0
   70.5129   46.3849   58.6881 C   0  0  0  0  0  0  0  0  0  0  0  0
   71.6005   46.9748   59.4617 C   0  0  0  0  0  0  0  0  0  0  0  0
   72.1215   46.3090   60.5569 C   0  0  0  0  0  0  0  0  0  0  0  0
   73.1621   46.9164   61.2653 C   0  0  0  0  0  0  0  0  0  0  0  0
   73.6308   48.1476   60.8513 C   0  0  0  0  0  0  0  0  0  0  0  0
   73.1146   48.8197   59.7576 C   0  0  0  0  0  0  0  0  0  0  0  0
   72.0717   48.2045   59.0526 C   0  0  0  0  0  0  0  0  0  0  0  0
   71.5240   48.8440   57.9483 O   0  0  0  0  0  0  0  0  0  0  0  0
   70.1814   48.5487   57.6298 C   0  0  0  0  0  0  0  0  0  0  0  0
   70.0278   47.1289   57.5739 N   0  0  0  0  0  0  0  0  0  0  0  0
   74.7219   48.7389   61.6283 C   0  0  0  0  0  0  0  0  0  0  0  0
   75.2193   49.8551   61.3353 O   0  0  0  0  0  0  0  0  0  0  0  0
   75.2183   48.0085   62.7447 N   0  0  0  0  0  0  0  0  0  0  0  0
   76.4898   48.0044   63.4459 C   0  0  0  0  0  0  0  0  0  0  0  0
   76.5490   46.6257   64.0693 C   0  0  0  0  0  0  0  0  0  0  0  0
   75.1106   46.2656   64.3520 C   0  0  0  0  0  0  0  0  0  0  0  0
   74.3122   47.0540   63.3538 C   0  0  2  0  0  0  0  0  0  0  0  0
   73.7068   46.2695   62.3719 O   0  0  0  0  0  0  0  0  0  0  0  0
   69.4153   46.4117   56.4784 C   0  0  0  0  0  0  0  0  0  0  0  0
   68.4141   47.1692   55.6931 C   0  0  0  0  0  0  0  0  0  0  0  0
   68.4957   47.0514   54.2379 C   0  0  0  0  0  0  0  0  0  0  0  0
   67.7458   46.1250   53.5576 C   0  0  0  0  0  0  0  0  0  0  0  0
   67.8122   46.0021   52.1849 C   0  0  0  0  0  0  0  0  0  0  0  0
   67.0595   45.0727   51.5127 F   0  0  0  0  0  0  0  0  0  0  0  0
   68.6628   46.8490   51.5092 C   0  0  0  0  0  0  0  0  0  0  0  0
   69.4233   47.7879   52.1824 C   0  0  0  0  0  0  0  0  0  0  0  0
   70.2646   48.6191   51.4676 F   0  0  0  0  0  0  0  0  0  0  0  0
   69.3273   47.8753   53.5433 C   0  0  0  0  0  0  0  0  0  0  0  0
  1  2  2  0
  2  3  1  0
  2 11  1  0
  3  4  1  0
  3  8  2  0
  4  5  2  0
  5  6  1  0
  5 19  1  0
  6  7  2  0
  6 12  1  0
  7  8  1  0
  8  9  1  0
  9 10  1  0
 10 11  1  0
 11 20  1  0
 20 21  1  0
 21 22  1  0
 22 23  2  0
 22 29  1  0
 23 24  1  0
 24 25  1  0
 24 26  2  0
 26 27  1  0
 27 28  1  0
 27 29  2  0
 12 13  2  0
 12 14  1  0
 14 15  1  0
 14 18  1  0
 15 16  1  0
 16 17  1  0
 18 17  1  1
 18 19  1  0
M  END
>  <minimizedAffinity>  (458) 
-8.56149

$$$$
data/200k_reference_output/data/smiles/33127.pdb
     RDKit          3D

 30 33  0  0  0  0  0  0  0  0999 V2000
   70.6370   42.1445   60.0810 N   0  0  0  0  0  0  0  0  0  0  0  0
   71.4670   41.4118   59.1204 C   0  0  0  0  0  0  0  0  0  0  0  0
   71.5341   42.4233   57.9671 C   0  0  0  0  0  0  0  0  0  0  0  0
   70.1264   42.9129   57.9028 C   0  0  1  0  0  0  0  0  0  0  0  0
   69.2824   42.1154   57.1771 O   0  0  0  0  0  0  0  0  0  0  0  0
   69.7436   42.9710   59.3521 C   0  0  0  0  0  0  0  0  0  0  0  0
   68.7983   43.6423   59.7792 O   0  0  0  0  0  0  0  0  0  0  0  0
   72.8737   41.1361   67.3081 O   0  0  0  0  0  0  0  0  0  0  0  0
   72.5462   41.6963   66.2599 C   0  0  0  0  0  0  0  0  0  0  0  0
   73.5053   42.4923   65.4540 C   0  0  0  0  0  0  0  0  0  0  0  0
   73.5325   41.9185   64.0609 C   0  0  0  0  0  0  0  0  0  0  0  0
   72.1763   41.9007   63.4925 C   0  0  0  0  0  0  0  0  0  0  0  0
   72.0030   42.0282   62.1167 C   0  0  0  0  0  0  0  0  0  0  0  0
   70.7667   42.0023   61.5050 C   0  0  0  0  0  0  0  0  0  0  0  0
   69.6720   41.8409   62.3245 C   0  0  0  0  0  0  0  0  0  0  0  0
   69.8490   41.7148   63.6939 C   0  0  0  0  0  0  0  0  0  0  0  0
   71.0882   41.7409   64.3077 C   0  0  0  0  0  0  0  0  0  0  0  0
   71.2171   41.6296   65.7279 N   0  0  0  0  0  0  0  0  0  0  0  0
   70.0472   44.3227   57.4198 C   0  0  0  0  0  0  0  0  0  0  0  0
   70.9486   45.1093   57.7864 O   0  0  0  0  0  0  0  0  0  0  0  0
   69.0268   44.7954   56.5887 N   0  0  0  0  0  0  0  0  0  0  0  0
   68.9732   46.1386   56.1418 C   0  0  0  0  0  0  0  0  0  0  0  0
   68.7367   46.3480   54.7096 C   0  0  0  0  0  0  0  0  0  0  0  0
   68.0018   45.4853   53.9487 C   0  0  0  0  0  0  0  0  0  0  0  0
   67.7772   45.7049   52.5840 C   0  0  0  0  0  0  0  0  0  0  0  0
   67.0472   44.8449   51.8327 F   0  0  0  0  0  0  0  0  0  0  0  0
   68.3279   46.8270   52.0367 C   0  0  0  0  0  0  0  0  0  0  0  0
   69.0704   47.7069   52.7866 C   0  0  0  0  0  0  0  0  0  0  0  0
   69.7594   49.1379   52.0300 Cl  0  0  0  0  0  0  0  0  0  0  0  0
   69.2742   47.4675   54.1197 C   0  0  0  0  0  0  0  0  0  0  0  0
  8  9  2  0
  9 10  1  0
  9 18  1  0
 10 11  1  0
 11 12  1  0
 12 13  1  0
 12 17  2  0
 13 14  2  0
 14  1  1  0
 14 15  1  0
  1  2  1  0
  1  6  1  0
  2  3  1  0
  3  4  1  0
  4  5  1  6
  4 19  1  0
  4  6  1  0
 19 20  2  0
 19 21  1  0
 21 22  1  0
 22 23  1  0
 23 24  2  0
 23 30  1  0
 24 25  1  0
 25 26  1  0
 25 27  2  0
 27 28  1  0
 28 29  1  0
 28 30  2  0
  6  7  2  0
 15 16  2  0
 16 17  1  0
 17 18  1  0
M  END
>  <minimizedAffinity>  (459) 
-8.56005

$$$$
data/200k_reference_output/data/smiles/84039.pdb
     RDKit          3D

 27 28  0  0  0  0  0  0  0  0999 V2000
   69.5768   47.9250   57.2171 S   0  0  0  0  0  0  0  0  0  0  0  0
   69.9088   49.1264   58.0210 O   0  0  0  0  0  0  0  0  0  0  0  0
   68.2688   47.3679   57.6939 O   0  0  0  0  0  0  0  0  0  0  0  0
   70.7757   46.6516   57.4723 C   0  0  0  0  0  0  0  0  0  0  0  0
   70.4083   45.4027   57.6933 C   0  0  0  0  0  0  0  0  0  0  0  0
   71.3228   44.2952   57.9125 C   0  0  0  0  0  0  0  0  0  0  0  0
   72.6480   44.4377   58.2525 C   0  0  0  0  0  0  0  0  0  0  0  0
   73.4717   43.3385   58.4514 C   0  0  0  0  0  0  0  0  0  0  0  0
   73.0067   42.0523   58.3180 C   0  0  0  0  0  0  0  0  0  0  0  0
   71.6910   41.8975   57.9803 C   0  0  0  0  0  0  0  0  0  0  0  0
   70.8643   43.0024   57.7805 C   0  0  0  0  0  0  0  0  0  0  0  0
   69.4531   42.7798   57.4128 C   0  0  0  0  0  0  0  0  0  0  0  0
   68.9787   43.5996   56.4368 F   0  0  0  0  0  0  0  0  0  0  0  0
   69.2789   41.4687   56.9459 F   0  0  0  0  0  0  0  0  0  0  0  0
   68.5993   42.8989   58.5170 F   0  0  0  0  0  0  0  0  0  0  0  0
   69.5143   48.3886   55.5545 N   0  0  0  0  0  0  0  0  0  0  0  0
   69.1187   47.8489   53.2546 C   0  0  0  0  0  0  0  0  0  0  0  0
   68.5684   46.9878   52.3167 C   0  0  0  0  0  0  0  0  0  0  0  0
   67.8836   45.8424   52.6597 C   0  0  0  0  0  0  0  0  0  0  0  0
   67.3491   45.0078   51.7195 F   0  0  0  0  0  0  0  0  0  0  0  0
   67.7463   45.5521   54.0000 C   0  0  0  0  0  0  0  0  0  0  0  0
   68.2871   46.3956   54.9573 C   0  0  0  0  0  0  0  0  0  0  0  0
   68.9598   47.5222   54.6056 C   0  0  0  0  0  0  0  0  0  0  0  0
   69.8977   49.4459   51.1007 N   0  0  0  0  0  0  0  0  0  0  0  0
   69.9846   49.2968   52.8222 S   0  0  0  0  0  0  0  0  0  0  0  0
   69.3314   50.5341   53.3870 O   0  0  0  0  0  0  0  0  0  0  0  0
   71.4366   49.2189   53.1940 O   0  0  0  0  0  0  0  0  0  0  0  0
 24 25  1  0
 25 26  2  0
 25 27  2  0
 25 17  1  0
 17 18  2  0
 17 23  1  0
 18 19  1  0
 19 20  1  0
 19 21  2  0
 21 22  1  0
 22 23  2  0
 23 16  1  0
 16  1  1  0
  1  2  2  0
  1  3  2  0
  1  4  1  0
  4  5  2  0
  5  6  1  0
  6  7  2  0
  6 11  1  0
  7  8  1  0
  8  9  2  0
  9 10  1  0
 10 11  2  0
 11 12  1  0
 12 13  1  0
 12 14  1  0
 12 15  1  0
M  END
>  <minimizedAffinity>  (460) 
-8.55913

$$$$
data/200k_reference_output/data/smiles/50590.pdb
     RDKit          3D

 25 27  0  0  0  0  0  0  0  0999 V2000
   67.8121   43.6101   56.2728 N   0  0  0  0  0  0  0  0  0  0  0  0
   68.6078   42.6821   56.9674 C   0  0  0  0  0  0  0  0  0  0  0  0
   69.8463   43.0451   57.0440 O   0  0  0  0  0  0  0  0  0  0  0  0
   68.2016   41.4368   57.5685 C   0  0  0  0  0  0  0  0  0  0  0  0
   68.0658   41.3006   58.9548 C   0  0  0  0  0  0  0  0  0  0  0  0
   67.6805   40.1268   59.5518 C   0  0  0  0  0  0  0  0  0  0  0  0
   67.5478   39.9971   60.9219 C   0  0  0  0  0  0  0  0  0  0  0  0
   67.1600   38.8104   61.5047 C   0  0  0  0  0  0  0  0  0  0  0  0
   66.9793   38.6436   63.4090 Br  0  0  0  0  0  0  0  0  0  0  0  0
   66.9045   37.7422   60.6719 C   0  0  0  0  0  0  0  0  0  0  0  0
   67.0360   37.8704   59.3144 C   0  0  0  0  0  0  0  0  0  0  0  0
   67.4263   39.0601   58.7140 C   0  0  0  0  0  0  0  0  0  0  0  0
   67.5500   39.1748   57.4175 O   0  0  0  0  0  0  0  0  0  0  0  0
   67.9261   40.3229   56.8345 C   0  0  0  0  0  0  0  0  0  0  0  0
   67.9930   40.2555   55.5872 O   0  0  0  0  0  0  0  0  0  0  0  0
   67.2752   44.5172   53.7375 O   0  0  0  0  0  0  0  0  0  0  0  0
   68.0483   45.2305   54.4237 C   0  0  0  0  0  0  0  0  0  0  0  0
   68.3519   44.8023   55.7313 N   0  0  0  0  0  0  0  0  0  0  0  0
   68.5805   46.4504   53.8236 C   0  0  0  0  0  0  0  0  0  0  0  0
   68.8162   46.5278   52.4655 C   0  0  0  0  0  0  0  0  0  0  0  0
   69.3157   47.6525   51.8516 C   0  0  0  0  0  0  0  0  0  0  0  0
   69.6079   48.7746   52.5920 C   0  0  0  0  0  0  0  0  0  0  0  0
   70.1143   49.9320   52.0073 O   0  0  0  0  0  0  0  0  0  0  0  0
   69.3822   48.7246   53.9497 C   0  0  0  0  0  0  0  0  0  0  0  0
   68.8727   47.5749   54.5644 C   0  0  0  0  0  0  0  0  0  0  0  0
 16 17  2  0
 17 18  1  0
 17 19  1  0
 18  1  1  0
  1  2  1  0
  2  3  2  0
  2  4  1  0
  4  5  2  0
  4 14  1  0
  5  6  1  0
  6  7  2  0
  6 12  1  0
  7  8  1  0
  8  9  1  0
  8 10  2  0
 10 11  1  0
 11 12  2  0
 12 13  1  0
 13 14  1  0
 14 15  2  0
 19 20  2  0
 19 25  1  0
 20 21  1  0
 21 22  2  0
 22 23  1  0
 22 24  1  0
 24 25  2  0
M  END
>  <minimizedAffinity>  (461) 
-8.55783

$$$$
data/reference_output_2/data/smiles/120958.pdb
     RDKit          3D

 30 34  0  0  0  0  0  0  0  0999 V2000
   72.2546   41.5253   57.7187 O   0  0  0  0  0  0  0  0  0  0  0  0
   72.3959   42.7320   57.9311 C   0  0  0  0  0  0  0  0  0  0  0  0
   71.2711   43.6329   57.7188 C   0  0  0  0  0  0  0  0  0  0  0  0
   70.0062   43.4683   57.3046 N   0  0  0  0  0  0  0  0  0  0  0  0
   69.4083   44.6385   57.2838 N   0  0  0  0  0  0  0  0  0  0  0  0
   70.2261   45.6061   57.6722 C   0  0  0  0  0  0  0  0  0  0  0  0
   71.4355   44.9682   57.9568 C   0  0  0  0  0  0  0  0  0  0  0  0
   72.7207   45.5082   58.4399 C   0  0  0  0  0  0  0  0  0  0  0  0
   73.8944   44.6577   58.0715 C   0  0  0  0  0  0  0  0  0  0  0  0
   73.6327   43.2439   58.3754 N   0  0  0  0  0  0  0  0  0  0  0  0
   74.5550   42.3876   59.0846 C   0  0  0  0  0  0  0  0  0  0  0  0
   74.4554   42.6081   60.5489 C   0  0  0  0  0  0  0  0  0  0  0  0
   75.7365   42.8822   61.2514 C   0  0  0  0  0  0  0  0  0  0  0  0
   76.7548   41.9836   60.7822 N   0  0  0  0  0  0  0  0  0  0  0  0
   77.0538   42.1289   59.3905 C   0  0  0  0  0  0  0  0  0  0  0  0
   75.9236   42.4391   58.5025 C   0  0  0  0  0  0  0  0  0  0  0  0
   70.0128   46.9823   57.7991 N   0  0  0  0  0  0  0  0  0  0  0  0
   68.9800   48.0339   56.9622 S   0  0  0  0  0  0  0  0  0  0  0  0
   68.8791   49.3839   57.6575 O   0  0  0  0  0  0  0  0  0  0  0  0
   67.5490   47.4797   57.0884 O   0  0  0  0  0  0  0  0  0  0  0  0
   69.3271   48.2068   55.2853 C   0  0  0  0  0  0  0  0  0  0  0  0
   70.0847   49.3159   54.8929 C   0  0  0  0  0  0  0  0  0  0  0  0
   70.3320   49.5821   53.5843 C   0  0  0  0  0  0  0  0  0  0  0  0
   69.8529   48.7774   52.5883 C   0  0  0  0  0  0  0  0  0  0  0  0
   69.1075   47.6807   52.9468 C   0  0  0  0  0  0  0  0  0  0  0  0
   68.6683   46.8744   51.9276 C   0  0  0  0  0  0  0  0  0  0  0  0
   67.9512   45.7487   52.2265 C   0  0  0  0  0  0  0  0  0  0  0  0
   67.6952   45.4633   53.5460 C   0  0  0  0  0  0  0  0  0  0  0  0
   68.1336   46.2689   54.5589 C   0  0  0  0  0  0  0  0  0  0  0  0
   68.8489   47.3999   54.2927 C   0  0  0  0  0  0  0  0  0  0  0  0
  1  2  2  0
  2  3  1  0
  2 10  1  0
  3  4  1  0
  3  7  2  0
  4  5  1  0
  5  6  2  0
  6 17  1  0
  6  7  1  0
 17 18  1  0
 18 19  2  0
 18 20  2  0
 18 21  1  0
 21 22  2  0
 21 30  1  0
 22 23  1  0
 23 24  2  0
 24 25  1  0
 25 26  1  0
 25 30  2  0
 26 27  2  0
 27 28  1  0
 28 29  2  0
 29 30  1  0
  7  8  1  0
  8  9  1  0
  9 10  1  0
 10 11  1  0
 11 12  1  0
 11 16  1  0
 12 13  1  0
 13 14  1  0
 14 15  1  0
 15 16  1  0
M  CHG  1  14   1
M  END
>  <minimizedAffinity>  (462) 
-8.55783

$$$$
data/reference_output_2/data/smiles/106427.pdb
     RDKit          3D

 28 30  0  0  0  0  0  0  0  0999 V2000
   68.4245   46.4253   53.7425 C   0  0  0  0  0  0  0  0  0  0  0  0
   68.7185   47.0668   54.9412 C   0  0  0  0  0  0  0  0  0  0  0  0
   69.4175   48.2693   54.9910 C   0  0  0  0  0  0  0  0  0  0  0  0
   69.8539   48.8963   53.8651 C   0  0  0  0  0  0  0  0  0  0  0  0
   69.5858   48.2901   52.6623 C   0  0  0  0  0  0  0  0  0  0  0  0
   68.8713   47.0644   52.6325 C   0  0  0  0  0  0  0  0  0  0  0  0
   66.9586   44.7966   52.7785 O   0  0  0  0  0  0  0  0  0  0  0  0
   67.6196   45.1834   53.7191 C   0  0  0  0  0  0  0  0  0  0  0  0
   67.6039   44.3611   54.8854 N   0  0  0  0  0  0  0  0  0  0  0  0
   67.0170   43.1966   55.2007 N   0  0  0  0  0  0  0  0  0  0  0  0
   67.5608   42.3875   56.1808 C   0  0  0  0  0  0  0  0  0  0  0  0
   68.6872   42.9839   56.7069 C   0  0  0  0  0  0  0  0  0  0  0  0
   69.7314   43.5357   57.1956 C   0  0  0  0  0  0  0  0  0  0  0  0
   70.8285   43.4326   57.8906 C   0  0  0  0  0  0  0  0  0  0  0  0
   71.9110   44.7483   58.2448 Cl  0  0  0  0  0  0  0  0  0  0  0  0
   71.1428   42.1725   58.4201 C   0  0  0  0  0  0  0  0  0  0  0  0
   70.1899   41.2886   58.0773 C   0  0  0  0  0  0  0  0  0  0  0  0
   69.1161   41.4455   57.3801 C   0  0  0  0  0  0  0  0  0  0  0  0
   68.2584   40.4666   57.1211 O   0  0  0  0  0  0  0  0  0  0  0  0
   70.7122   50.4526   53.9990 S   0  0  0  0  0  0  0  0  0  0  0  0
   70.3180   51.3545   52.8459 O   0  0  0  0  0  0  0  0  0  0  0  0
   72.1902   50.1684   53.8599 O   0  0  0  0  0  0  0  0  0  0  0  0
   70.4089   51.1640   55.5063 N   0  0  0  0  0  0  0  0  0  0  0  0
   69.2795   51.9773   55.5468 C   0  0  0  0  0  0  0  0  0  0  0  0
   68.7279   52.1479   56.9619 C   0  0  0  0  0  0  0  0  0  0  0  0
   69.4958   51.2117   57.8401 C   0  0  0  0  0  0  0  0  0  0  0  0
   70.9452   51.5900   57.7787 C   0  0  0  0  0  0  0  0  0  0  0  0
   71.5063   51.3919   56.3670 C   0  0  0  0  0  0  0  0  0  0  0  0
  7  8  2  0
  8  9  1  0
  8  1  1  0
  9 10  1  0
 10 11  2  0
 11 12  1  0
 12 13  2  0
 12 18  1  0
 13 14  1  0
 14 15  1  0
 14 16  2  0
 16 17  1  0
 17 18  2  0
 18 19  1  0
  1  2  2  0
  1  6  1  0
  2  3  1  0
  3  4  2  0
  4 20  1  0
  4  5  1  0
 20 21  2  0
 20 22  2  0
 20 23  1  0
 23 24  1  0
 23 28  1  0
 24 25  1  0
 25 26  1  0
 26 27  1  0
 27 28  1  0
  5  6  2  0
M  END
>  <minimizedAffinity>  (463) 
-8.55448

$$$$
data/200k_reference_output/data/smiles/33922.pdb
     RDKit          3D

 31 35  0  0  0  0  0  0  0  0999 V2000
   73.3961   47.4446   61.2532 C   0  0  0  0  0  0  0  0  0  0  0  0
   72.6105   46.4158   60.7876 C   0  0  0  0  0  0  0  0  0  0  0  0
   71.8285   46.5438   59.6292 C   0  0  0  0  0  0  0  0  0  0  0  0
   71.8018   47.6977   58.8970 C   0  0  0  0  0  0  0  0  0  0  0  0
   72.6076   48.7316   59.3899 C   0  0  0  0  0  0  0  0  0  0  0  0
   73.3770   48.6127   60.5249 C   0  0  0  0  0  0  0  0  0  0  0  0
   71.0556   47.9363   57.7214 N   0  0  0  0  0  0  0  0  0  0  0  0
   69.9901   47.1693   57.2291 C   0  0  0  0  0  0  0  0  0  0  0  0
   69.6274   46.1437   57.8801 O   0  0  0  0  0  0  0  0  0  0  0  0
   69.2968   47.4916   56.0284 N   0  0  0  0  0  0  0  0  0  0  0  0
   68.2044   46.7495   55.4774 C   0  0  0  0  0  0  0  0  0  0  0  0
   68.4088   46.9000   54.0229 C   0  0  0  0  0  0  0  0  0  0  0  0
   67.9709   46.1816   52.9368 C   0  0  0  0  0  0  0  0  0  0  0  0
   68.3232   46.5564   51.6374 C   0  0  0  0  0  0  0  0  0  0  0  0
   69.0982   47.6332   51.4754 N   0  0  0  0  0  0  0  0  0  0  0  0
   69.5272   48.3392   52.5412 C   0  0  0  0  0  0  0  0  0  0  0  0
   69.2062   48.0064   53.8303 C   0  0  0  0  0  0  0  0  0  0  0  0
   69.5364   48.5952   55.1436 C   0  0  0  0  0  0  0  0  0  0  0  0
   75.3138   46.7731   64.1182 C   0  0  0  0  0  0  0  0  0  0  0  0
   73.8713   47.1225   63.8283 C   0  0  0  0  0  0  0  0  0  0  0  0
   74.1916   47.3150   62.4283 N   0  0  0  0  0  0  0  0  0  0  0  0
   75.6035   47.3138   62.7540 C   0  0  0  0  0  0  0  0  0  0  0  0
   75.2217   47.8098   66.2752 O   0  0  0  0  0  0  0  0  0  0  0  0
   75.8855   47.6022   65.2042 C   0  0  0  0  0  0  0  0  0  0  0  0
   77.1754   48.1601   65.0341 N   0  0  0  0  0  0  0  0  0  0  0  0
   77.7583   48.9680   66.0682 C   0  0  0  0  0  0  0  0  0  0  0  0
   78.7978   48.2614   66.8916 C   0  0  1  0  0  0  0  0  0  0  0  0
   79.6923   47.5002   65.9171 C   0  0  0  0  0  0  0  0  0  0  0  0
   80.9915   47.4572   66.6565 C   0  0  0  0  0  0  0  0  0  0  0  0
   80.7465   48.3508   67.8496 C   0  0  0  0  0  0  0  0  0  0  0  0
   79.6453   49.1457   67.5419 O   0  0  0  0  0  0  0  0  0  0  0  0
 23 24  2  0
 24 25  1  0
 24 19  1  0
 25 26  1  0
 27 26  1  6
 27 28  1  0
 27 31  1  0
 28 29  1  0
 29 30  1  0
 30 31  1  0
 19 20  1  0
 19 22  1  0
 20 21  1  0
 21  1  1  0
 21 22  1  0
  1  2  2  0
  1  6  1  0
  2  3  1  0
  3  4  2  0
  4  7  1  0
  4  5  1  0
  7  8  1  0
  8  9  2  0
  8 10  1  0
 10 11  1  0
 10 18  1  0
 11 12  1  0
 12 13  1  0
 12 17  2  0
 13 14  2  0
 14 15  1  0
 15 16  2  0
 16 17  1  0
 17 18  1  0
  5  6  2  0
M  END
>  <minimizedAffinity>  (464) 
-8.55439

$$$$
data/200k_reference_output/data/smiles/75382.pdb
     RDKit          3D

 30 34  0  0  0  0  0  0  0  0999 V2000
   68.8115   40.6750   57.7051 C   0  0  0  0  0  0  0  0  0  0  0  0
   67.7967   40.4607   56.7677 C   0  0  0  0  0  0  0  0  0  0  0  0
   67.3526   41.4978   55.9775 C   0  0  0  0  0  0  0  0  0  0  0  0
   67.8757   42.7610   56.0723 C   0  0  0  0  0  0  0  0  0  0  0  0
   67.6805   43.9382   55.4016 N   0  0  0  0  0  0  0  0  0  0  0  0
   68.4910   44.8681   55.8509 C   0  0  0  0  0  0  0  0  0  0  0  0
   69.2262   44.2862   56.8335 N   0  0  0  0  0  0  0  0  0  0  0  0
   68.8730   42.9877   56.9932 C   0  0  0  0  0  0  0  0  0  0  0  0
   69.3480   41.9576   57.8148 C   0  0  0  0  0  0  0  0  0  0  0  0
   68.6626   46.2455   55.3430 C   0  0  0  0  0  0  0  0  0  0  0  0
   68.7876   46.5362   54.0168 C   0  0  0  0  0  0  0  0  0  0  0  0
   68.5809   45.5494   53.0254 N   0  0  0  0  0  0  0  0  0  0  0  0
   69.0611   47.8418   53.5830 C   0  0  0  0  0  0  0  0  0  0  0  0
   69.2512   48.1503   52.2531 C   0  0  0  0  0  0  0  0  0  0  0  0
   69.5780   49.4313   51.8434 C   0  0  0  0  0  0  0  0  0  0  0  0
   69.7266   50.4707   52.7458 C   0  0  0  0  0  0  0  0  0  0  0  0
   69.5308   50.1452   54.0767 C   0  0  0  0  0  0  0  0  0  0  0  0
   69.2008   48.8468   54.4965 C   0  0  0  0  0  0  0  0  0  0  0  0
   69.0690   48.5504   55.7901 N   0  0  0  0  0  0  0  0  0  0  0  0
   68.8035   47.2706   56.2490 C   0  0  0  0  0  0  0  0  0  0  0  0
   68.6897   47.0407   57.4680 O   0  0  0  0  0  0  0  0  0  0  0  0
   67.7283   38.5300   63.3826 C   0  0  0  0  0  0  0  0  0  0  0  0
   68.1230   38.6691   62.0044 N   0  0  0  0  0  0  0  0  0  0  0  0
   68.8896   37.6198   61.5014 C   0  0  0  0  0  0  0  0  0  0  0  0
   69.2172   37.6364   60.0637 C   0  0  0  0  0  0  0  0  0  0  0  0
   68.6258   38.7817   59.3737 N   0  0  0  0  0  0  0  0  0  0  0  0
   69.3295   39.5263   58.4372 C   0  0  0  0  0  0  0  0  0  0  0  0
   70.5531   39.1713   58.1924 O   0  0  0  0  0  0  0  0  0  0  0  0
   67.2604   39.0802   59.7405 C   0  0  0  0  0  0  0  0  0  0  0  0
   67.2776   39.4448   61.1953 C   0  0  0  0  0  0  0  0  0  0  0  0
 22 23  1  0
 23 24  1  0
 23 30  1  0
 24 25  1  0
 25 26  1  0
 26 27  1  0
 26 29  1  0
 27 28  2  0
 27  1  1  0
  1  2  2  0
  1  9  1  0
  2  3  1  0
  3  4  2  0
  4  5  1  0
  4  8  1  0
  5  6  1  0
  6 10  1  0
  6  7  2  0
 10 11  2  0
 10 20  1  0
 11 12  1  0
 11 13  1  0
 13 14  2  0
 13 18  1  0
 14 15  1  0
 15 16  2  0
 16 17  1  0
 17 18  2  0
 18 19  1  0
 19 20  1  0
 20 21  2  0
  7  8  1  0
  8  9  2  0
 29 30  1  0
M  CHG  2   7   1  23   1
M  END
>  <minimizedAffinity>  (465) 
-8.55368

$$$$
data/reference_output_2/data/smiles/130188.pdb
     RDKit          3D

 28 30  0  0  0  0  0  0  0  0999 V2000
   69.1347   41.6521   57.6109 C   0  0  0  0  0  0  0  0  0  0  0  0
   69.5969   40.3989   57.8240 N   0  0  0  0  0  0  0  0  0  0  0  0
   70.8650   40.1447   58.1915 C   0  0  0  0  0  0  0  0  0  0  0  0
   71.7321   41.2043   58.3583 C   0  0  0  0  0  0  0  0  0  0  0  0
   73.3935   40.9313   58.8368 Cl  0  0  0  0  0  0  0  0  0  0  0  0
   71.3330   42.4976   58.1594 C   0  0  0  0  0  0  0  0  0  0  0  0
   72.1707   43.5831   58.3171 C   0  0  0  0  0  0  0  0  0  0  0  0
   71.6897   44.8528   58.0967 C   0  0  0  0  0  0  0  0  0  0  0  0
   70.3852   45.0935   57.7198 C   0  0  0  0  0  0  0  0  0  0  0  0
   69.5570   44.0023   57.5653 C   0  0  0  0  0  0  0  0  0  0  0  0
   70.0093   42.7070   57.7799 C   0  0  0  0  0  0  0  0  0  0  0  0
   65.8548   41.8171   56.0209 N   0  0  0  0  0  0  0  0  0  0  0  0
   67.1772   41.3957   56.2624 C   0  0  0  0  0  0  0  0  0  0  0  0
   67.7776   40.3953   55.4621 N   0  0  0  0  0  0  0  0  0  0  0  0
   67.8186   41.9441   57.2265 N   0  0  0  0  0  0  0  0  0  0  0  0
   69.7862   46.7340   57.4416 S   0  0  0  0  0  0  0  0  0  0  0  0
   69.4262   47.2951   58.7642 O   0  0  0  0  0  0  0  0  0  0  0  0
   70.9012   47.5216   56.8066 O   0  0  0  0  0  0  0  0  0  0  0  0
   68.3901   46.7012   56.4390 N   0  0  0  0  0  0  0  0  0  0  0  0
   68.4897   46.6651   55.0109 C   0  0  0  0  0  0  0  0  0  0  0  0
   67.8712   45.6941   54.2593 C   0  0  0  0  0  0  0  0  0  0  0  0
   67.9574   45.6467   52.8837 C   0  0  0  0  0  0  0  0  0  0  0  0
   68.7007   46.6251   52.2505 C   0  0  0  0  0  0  0  0  0  0  0  0
   69.3399   47.6208   52.9531 C   0  0  0  0  0  0  0  0  0  0  0  0
   69.2217   47.6242   54.3389 C   0  0  0  0  0  0  0  0  0  0  0  0
   70.1166   48.6424   52.2756 C   0  0  0  0  0  0  0  0  0  0  0  0
   69.7118   49.0773   51.1735 O   0  0  0  0  0  0  0  0  0  0  0  0
   71.2875   49.1562   52.7958 O   0  0  0  0  0  0  0  0  0  0  0  0
 12 13  1  0
 13 14  1  0
 13 15  2  0
 15  1  1  0
  1  2  2  0
  1 11  1  0
  2  3  1  0
  3  4  2  0
  4  5  1  0
  4  6  1  0
  6  7  1  0
  6 11  2  0
  7  8  2  0
  8  9  1  0
  9 16  1  0
  9 10  2  0
 16 17  2  0
 16 18  2  0
 16 19  1  0
 19 20  1  0
 20 21  2  0
 20 25  1  0
 21 22  1  0
 22 23  2  0
 23 24  1  0
 24 26  1  0
 24 25  2  0
 26 27  2  0
 26 28  1  0
 10 11  1  0
M  CHG  1  15   1
M  END
>  <minimizedAffinity>  (466) 
-8.55291

$$$$
data/200k_reference_output/data/smiles/32654.pdb
     RDKit          3D

 31 34  0  0  0  0  0  0  0  0999 V2000
   73.6337   51.3760   54.6127 C   0  0  2  0  0  0  0  0  0  0  0  0
   72.9496   52.7164   54.4403 C   0  0  0  0  0  0  0  0  0  0  0  0
   71.7628   52.5583   55.4036 C   0  0  0  0  0  0  0  0  0  0  0  0
   71.3827   51.2054   55.1409 N   0  0  1  0  0  0  0  0  0  0  0  0
   72.6236   50.4878   55.3459 C   0  0  0  0  0  0  0  0  0  0  0  0
   77.0210   50.7548   56.2909 N   0  0  0  0  0  0  0  0  0  0  0  0
   75.8548   50.6221   55.5039 C   0  0  0  0  0  0  0  0  0  0  0  0
   75.7426   49.5818   54.8059 O   0  0  0  0  0  0  0  0  0  0  0  0
   74.8153   51.5918   55.4604 N   0  0  0  0  0  0  0  0  0  0  0  0
   79.9894   48.0040   56.5108 N   0  0  0  0  0  0  0  0  0  0  0  0
   79.3266   48.2430   57.7535 C   0  0  0  0  0  0  0  0  0  0  0  0
   77.9483   48.8477   57.5239 C   0  0  0  0  0  0  0  0  0  0  0  0
   78.0630   49.7685   56.3268 C   0  0  0  0  0  0  0  0  0  0  0  0
   79.4456   50.3222   56.2422 C   0  0  0  0  0  0  0  0  0  0  0  0
   80.3693   49.1800   55.7975 C   0  0  0  0  0  0  0  0  0  0  0  0
   81.1897   46.1040   58.2576 C   0  0  0  0  0  0  0  0  0  0  0  0
   81.2393   46.8331   56.6243 S   0  0  0  0  0  0  0  0  0  0  0  0
   81.0800   45.7576   55.6174 O   0  0  0  0  0  0  0  0  0  0  0  0
   82.5504   47.5558   56.4871 O   0  0  0  0  0  0  0  0  0  0  0  0
   70.3035   50.7152   55.9330 C   0  0  0  0  0  0  0  0  0  0  0  0
   69.6631   49.5012   55.3792 C   0  0  0  0  0  0  0  0  0  0  0  0
   69.0403   48.6217   56.2386 C   0  0  0  0  0  0  0  0  0  0  0  0
   68.4453   47.4911   55.7214 C   0  0  0  0  0  0  0  0  0  0  0  0
   68.4414   47.1927   54.3769 C   0  0  0  0  0  0  0  0  0  0  0  0
   67.8391   46.0505   53.8704 C   0  0  0  0  0  0  0  0  0  0  0  0
   67.8788   45.8212   52.5092 C   0  0  0  0  0  0  0  0  0  0  0  0
   67.2985   44.7083   51.9557 F   0  0  0  0  0  0  0  0  0  0  0  0
   68.5004   46.6995   51.6499 C   0  0  0  0  0  0  0  0  0  0  0  0
   69.0908   47.8259   52.1809 C   0  0  0  0  0  0  0  0  0  0  0  0
   69.0788   48.1023   53.5457 C   0  0  0  0  0  0  0  0  0  0  0  0
   69.6852   49.2454   54.0238 C   0  0  0  0  0  0  0  0  0  0  0  0
 16 17  1  0
 17 18  2  0
 17 19  2  0
 17 10  1  0
 10 11  1  0
 10 15  1  0
 11 12  1  0
 12 13  1  0
 13  6  1  0
 13 14  1  0
  6  7  1  0
  7  8  2  0
  7  9  1  0
  1  9  1  1
  1  2  1  0
  1  5  1  0
  2  3  1  0
  3  4  1  0
  4 20  1  1
  4  5  1  0
 20 21  1  0
 21 22  2  0
 21 31  1  0
 22 23  1  0
 23 24  2  0
 24 25  1  0
 24 30  1  0
 25 26  2  0
 26 27  1  0
 26 28  1  0
 28 29  2  0
 29 30  1  0
 30 31  2  0
 14 15  1  0
M  CHG  1   4   1
M  END
>  <minimizedAffinity>  (467) 
-8.55224

$$$$
data/reference_output_2/data/smiles/155057.pdb
     RDKit          3D

 30 33  0  0  0  0  0  0  0  0999 V2000
   70.9229   48.9587   57.5946 C   0  0  0  0  0  0  0  0  0  0  0  0
   72.1060   49.1851   57.2362 O   0  0  0  0  0  0  0  0  0  0  0  0
   70.7278   48.1895   58.7629 N   0  0  0  0  0  0  0  0  0  0  0  0
   71.7666   47.6582   59.5588 C   0  0  0  0  0  0  0  0  0  0  0  0
   72.6848   48.4432   60.2126 C   0  0  0  0  0  0  0  0  0  0  0  0
   73.6933   47.9220   60.9938 C   0  0  0  0  0  0  0  0  0  0  0  0
   73.8048   46.5660   61.1407 C   0  0  0  0  0  0  0  0  0  0  0  0
   72.8983   45.7448   60.4971 C   0  0  0  0  0  0  0  0  0  0  0  0
   71.8723   46.2783   59.7031 C   0  0  0  0  0  0  0  0  0  0  0  0
   70.9373   45.4682   58.9990 C   0  0  0  0  0  0  0  0  0  0  0  0
   69.7186   45.7936   59.0296 O   0  0  0  0  0  0  0  0  0  0  0  0
   71.2396   44.3132   58.2573 N   0  0  0  0  0  0  0  0  0  0  0  0
   72.4400   43.5663   57.9945 C   0  0  0  0  0  0  0  0  0  0  0  0
   71.9995   42.1328   57.6679 C   0  0  0  0  0  0  0  0  0  0  0  0
   70.4992   42.1624   57.8734 C   0  0  0  0  0  0  0  0  0  0  0  0
   70.1864   43.5851   57.4612 C   0  0  0  0  0  0  0  0  0  0  0  0
   69.7701   49.4760   56.8227 C   0  0  1  0  0  0  0  0  0  0  0  0
   69.3926   48.6997   55.6909 N   0  0  0  0  0  0  0  0  0  0  0  0
   69.7036   48.9975   54.3388 C   0  0  0  0  0  0  0  0  0  0  0  0
   70.3302   49.9531   53.8163 O   0  0  0  0  0  0  0  0  0  0  0  0
   69.1198   47.9096   53.5440 C   0  0  0  0  0  0  0  0  0  0  0  0
   69.0964   47.6559   52.1882 C   0  0  0  0  0  0  0  0  0  0  0  0
   68.4584   46.5251   51.6970 C   0  0  0  0  0  0  0  0  0  0  0  0
   67.8332   45.6242   52.5335 C   0  0  0  0  0  0  0  0  0  0  0  0
   67.8552   45.8754   53.8857 C   0  0  0  0  0  0  0  0  0  0  0  0
   68.4980   47.0125   54.3658 C   0  0  0  0  0  0  0  0  0  0  0  0
   68.6443   47.4707   55.7349 C   0  0  0  0  0  0  0  0  0  0  0  0
   68.2008   46.9044   56.7841 O   0  0  0  0  0  0  0  0  0  0  0  0
   67.8018   51.0398   57.2124 C   0  0  0  0  0  0  0  0  0  0  0  0
   68.5898   49.8660   57.6604 C   0  0  0  0  0  0  0  0  0  0  0  0
 29 30  1  0
 17 30  1  1
 17  1  1  0
 17 18  1  0
  1  2  2  0
  1  3  1  0
  3  4  1  0
  4  5  2  0
  4  9  1  0
  5  6  1  0
  6  7  2  0
  7  8  1  0
  8  9  2  0
  9 10  1  0
 10 11  2  0
 10 12  1  0
 12 13  1  0
 12 16  1  0
 13 14  1  0
 14 15  1  0
 15 16  1  0
 18 19  1  0
 18 27  1  0
 19 20  2  0
 19 21  1  0
 21 22  1  0
 21 26  2  0
 22 23  2  0
 23 24  1  0
 24 25  2  0
 25 26  1  0
 26 27  1  0
 27 28  2  0
M  END
>  <minimizedAffinity>  (468) 
-8.55165

$$$$
data/reference_output_2/data/smiles/125675.pdb
     RDKit          3D

 28 30  0  0  0  0  0  0  0  0999 V2000
   69.8513   50.8638   55.0013 C   0  0  1  0  0  0  0  0  0  0  0  0
   70.1409   50.2174   53.3478 S   0  0  0  0  0  0  0  0  0  0  0  0
   69.3800   48.5749   53.3379 C   0  0  0  0  0  0  0  0  0  0  0  0
   69.1951   47.9790   52.1022 C   0  0  0  0  0  0  0  0  0  0  0  0
   68.6212   46.7326   52.0379 C   0  0  0  0  0  0  0  0  0  0  0  0
   68.2278   46.0672   53.1809 C   0  0  0  0  0  0  0  0  0  0  0  0
   68.4196   46.6732   54.3900 C   0  0  0  0  0  0  0  0  0  0  0  0
   69.0039   47.9497   54.4931 C   0  0  0  0  0  0  0  0  0  0  0  0
   69.1756   48.5076   55.8137 N   0  0  0  0  0  0  0  0  0  0  0  0
   69.7632   49.7720   55.9940 C   0  0  0  0  0  0  0  0  0  0  0  0
   70.2828   50.0236   57.1344 O   0  0  0  0  0  0  0  0  0  0  0  0
   71.0242   51.7957   55.3251 C   0  0  0  0  0  0  0  0  0  0  0  0
   72.4426   52.4525   53.5132 O   0  0  0  0  0  0  0  0  0  0  0  0
   72.1253   51.5452   54.3524 C   0  0  0  0  0  0  0  0  0  0  0  0
   72.8304   50.3149   54.3431 N   0  0  0  0  0  0  0  0  0  0  0  0
   73.8210   50.1452   53.4368 O   0  0  0  0  0  0  0  0  0  0  0  0
   68.7375   47.7458   56.9778 C   0  0  0  0  0  0  0  0  0  0  0  0
   69.7722   46.7238   57.3783 C   0  0  0  0  0  0  0  0  0  0  0  0
   70.8792   47.1216   57.8101 O   0  0  0  0  0  0  0  0  0  0  0  0
   69.4484   45.3636   57.2476 N   0  0  0  0  0  0  0  0  0  0  0  0
   70.3051   44.2888   57.5767 C   0  0  0  0  0  0  0  0  0  0  0  0
   71.5818   44.4125   58.0624 C   0  0  0  0  0  0  0  0  0  0  0  0
   72.3514   43.2756   58.3591 C   0  0  0  0  0  0  0  0  0  0  0  0
   73.6095   43.4686   58.8375 F   0  0  0  0  0  0  0  0  0  0  0  0
   71.8474   42.0292   58.1730 C   0  0  0  0  0  0  0  0  0  0  0  0
   70.5794   41.9086   57.6919 C   0  0  0  0  0  0  0  0  0  0  0  0
   69.8122   43.0042   57.3950 C   0  0  0  0  0  0  0  0  0  0  0  0
   68.5445   42.8792   56.9139 F   0  0  0  0  0  0  0  0  0  0  0  0
 13 14  2  0
 14 12  1  0
 14 15  1  0
  1 12  1  1
  1  2  1  0
  1 10  1  0
  2  3  1  0
  3  4  1  0
  3  8  2  0
  4  5  2  0
  5  6  1  0
  6  7  2  0
  7  8  1  0
  8  9  1  0
  9 17  1  0
  9 10  1  0
 17 18  1  0
 18 19  2  0
 18 20  1  0
 20 21  1  0
 21 22  2  0
 21 27  1  0
 22 23  1  0
 23 24  1  0
 23 25  2  0
 25 26  1  0
 26 27  2  0
 27 28  1  0
 10 11  2  0
 15 16  1  0
M  END
>  <minimizedAffinity>  (469) 
-8.55149

$$$$
data/200k_reference_output/data/smiles/76176.pdb
     RDKit          3D

 30 32  0  0  0  0  0  0  0  0999 V2000
   69.0355   48.8519   57.9497 C   0  0  0  0  0  0  0  0  0  0  0  0
   70.3924   49.3236   57.6439 C   0  0  0  0  0  0  0  0  0  0  0  0
   70.4943   50.4696   57.1326 O   0  0  0  0  0  0  0  0  0  0  0  0
   71.5574   48.5618   57.8943 N   0  0  0  0  0  0  0  0  0  0  0  0
   72.8903   49.0616   57.5379 C   0  0  0  0  0  0  0  0  0  0  0  0
   73.9551   48.4339   58.4063 C   0  0  0  0  0  0  0  0  0  0  0  0
   73.4734   48.1341   59.7608 N   0  0  0  0  0  0  0  0  0  0  0  0
   72.2688   47.5279   59.8473 C   0  0  0  0  0  0  0  0  0  0  0  0
   72.0252   47.3374   61.1450 N   0  0  0  0  0  0  0  0  0  0  0  0
   73.0459   47.8127   61.8410 N   0  0  0  0  0  0  0  0  0  0  0  0
   73.9667   48.3172   60.9919 C   0  0  0  0  0  0  0  0  0  0  0  0
   71.5653   47.2666   58.5416 C   0  0  0  0  0  0  0  0  0  0  0  0
   75.2611   48.9501   61.3435 C   0  0  0  0  0  0  0  0  0  0  0  0
   76.3148   48.3967   60.7148 F   0  0  0  0  0  0  0  0  0  0  0  0
   75.4732   48.8661   62.7216 F   0  0  0  0  0  0  0  0  0  0  0  0
   75.2369   50.3089   61.0614 F   0  0  0  0  0  0  0  0  0  0  0  0
   67.0203   47.7558   57.1105 N   0  0  0  0  0  0  0  0  0  0  0  0
   68.3095   48.2608   56.7477 C   0  0  2  0  0  0  0  0  0  0  0  0
   69.1372   47.1291   56.1570 C   0  0  0  0  0  0  0  0  0  0  0  0
   68.8742   46.9895   54.7007 C   0  0  0  0  0  0  0  0  0  0  0  0
   69.3219   47.9244   53.7998 C   0  0  0  0  0  0  0  0  0  0  0  0
   70.0468   49.0102   54.1539 F   0  0  0  0  0  0  0  0  0  0  0  0
   69.0377   47.7711   52.4405 C   0  0  0  0  0  0  0  0  0  0  0  0
   69.4867   48.7118   51.5477 F   0  0  0  0  0  0  0  0  0  0  0  0
   68.3167   46.7058   51.9693 C   0  0  0  0  0  0  0  0  0  0  0  0
   68.0316   46.5550   50.6349 F   0  0  0  0  0  0  0  0  0  0  0  0
   67.8681   45.7667   52.8730 C   0  0  0  0  0  0  0  0  0  0  0  0
   67.1573   44.7187   52.3880 F   0  0  0  0  0  0  0  0  0  0  0  0
   68.1496   45.9179   54.2152 C   0  0  0  0  0  0  0  0  0  0  0  0
   67.6907   44.9748   55.0527 F   0  0  0  0  0  0  0  0  0  0  0  0
 18 17  1  1
 18  1  1  0
 18 19  1  0
  1  2  1  0
  2  3  2  0
  2  4  1  0
  4  5  1  0
  4 12  1  0
  5  6  1  0
  6  7  1  0
  7  8  1  0
  7 11  1  0
  8  9  2  0
  8 12  1  0
  9 10  1  0
 10 11  2  0
 11 13  1  0
 13 14  1  0
 13 15  1  0
 13 16  1  0
 19 20  1  0
 20 21  2  0
 20 29  1  0
 21 22  1  0
 21 23  1  0
 23 24  1  0
 23 25  2  0
 25 26  1  0
 25 27  1  0
 27 28  1  0
 27 29  2  0
 29 30  1  0
M  CHG  1  17   1
M  END
>  <minimizedAffinity>  (470) 
-8.55090

$$$$
data/reference_output_2/data/smiles/184300.pdb
     RDKit          3D

 27 29  0  0  0  0  0  0  0  0999 V2000
   70.2787   50.5867   54.6400 C   0  0  1  0  0  0  0  0  0  0  0  0
   69.4457   50.2055   53.4293 C   0  0  0  0  0  0  0  0  0  0  0  0
   69.1683   48.7788   53.7230 C   0  0  0  0  0  0  0  0  0  0  0  0
   68.9147   47.7049   52.9020 C   0  0  0  0  0  0  0  0  0  0  0  0
   68.6768   46.4283   53.4262 C   0  0  0  0  0  0  0  0  0  0  0  0
   68.6982   46.2573   54.7820 C   0  0  0  0  0  0  0  0  0  0  0  0
   68.9566   47.3599   55.5844 C   0  0  0  0  0  0  0  0  0  0  0  0
   69.1908   48.6064   55.0930 C   0  0  0  0  0  0  0  0  0  0  0  0
   69.4867   49.9216   55.7466 C   0  0  0  0  0  0  0  0  0  0  0  0
   68.4656   44.9916   55.4016 N   0  0  0  0  0  0  0  0  0  0  0  0
   69.1796   44.5078   56.4364 C   0  0  0  0  0  0  0  0  0  0  0  0
   68.7040   43.2653   56.8005 C   0  0  0  0  0  0  0  0  0  0  0  0
   67.6619   43.0118   55.9355 C   0  0  0  0  0  0  0  0  0  0  0  0
   67.5525   44.0815   55.1074 N   0  0  0  0  0  0  0  0  0  0  0  0
   66.8530   41.7713   55.9683 C   0  0  0  0  0  0  0  0  0  0  0  0
   67.6836   40.6794   55.7882 F   0  0  0  0  0  0  0  0  0  0  0  0
   66.0145   41.8173   54.8544 F   0  0  0  0  0  0  0  0  0  0  0  0
   66.1409   41.6470   57.1315 F   0  0  0  0  0  0  0  0  0  0  0  0
   69.2242   42.4050   57.8969 C   0  0  0  0  0  0  0  0  0  0  0  0
   68.7449   42.8079   59.1482 O   0  0  0  0  0  0  0  0  0  0  0  0
   71.5347   49.9022   54.5146 N   0  0  0  0  0  0  0  0  0  0  0  0
   72.8699   50.9651   54.3592 S   0  0  0  0  0  0  0  0  0  0  0  0
   72.5074   52.2453   53.7088 O   0  0  0  0  0  0  0  0  0  0  0  0
   73.9030   50.2561   53.4951 O   0  0  0  0  0  0  0  0  0  0  0  0
   72.9470   52.3923   56.6050 C   0  0  0  0  0  0  0  0  0  0  0  0
   73.5753   51.1943   55.9721 C   0  0  0  0  0  0  0  0  0  0  0  0
   73.2989   49.9590   56.7986 C   0  0  0  0  0  0  0  0  0  0  0  0
 25 26  1  0
 26 27  1  0
 26 22  1  0
 22 23  2  0
 22 24  2  0
 22 21  1  0
  1 21  1  6
  1  2  1  0
  1  9  1  0
  2  3  1  0
  3  4  2  0
  3  8  1  0
  4  5  1  0
  5  6  2  0
  6 10  1  0
  6  7  1  0
 10 11  1  0
 10 14  1  0
 11 12  2  0
 12 19  1  0
 12 13  1  0
 19 20  1  0
 13 15  1  0
 13 14  2  0
 15 16  1  0
 15 17  1  0
 15 18  1  0
  7  8  2  0
  8  9  1  0
M  END
>  <minimizedAffinity>  (471) 
-8.54995

$$$$
data/200k_reference_output/data/smiles/41103.pdb
     RDKit          3D

 30 33  0  0  0  0  0  0  0  0999 V2000
   72.9595   35.4035   57.5471 C   0  0  0  0  0  0  0  0  0  0  0  0
   72.1367   34.7992   58.5135 C   0  0  0  0  0  0  0  0  0  0  0  0
   71.2029   35.5293   59.2114 C   0  0  0  0  0  0  0  0  0  0  0  0
   71.0149   36.8724   59.0152 C   0  0  0  0  0  0  0  0  0  0  0  0
   71.8147   37.4733   58.0725 C   0  0  0  0  0  0  0  0  0  0  0  0
   72.7769   36.7441   57.3467 C   0  0  0  0  0  0  0  0  0  0  0  0
   70.0372   37.6768   59.7371 C   0  0  0  0  0  0  0  0  0  0  0  0
   69.9157   37.5809   61.0069 O   0  0  0  0  0  0  0  0  0  0  0  0
   69.1667   38.6014   59.1185 N   0  0  0  0  0  0  0  0  0  0  0  0
   68.1962   39.3999   59.8411 C   0  0  2  0  0  0  0  0  0  0  0  0
   66.8016   38.9200   59.6763 C   0  0  0  0  0  0  0  0  0  0  0  0
   65.9928   40.0712   59.9341 N   0  0  0  0  0  0  0  0  0  0  0  0
   66.7602   41.2320   59.6122 C   0  0  0  0  0  0  0  0  0  0  0  0
   68.1594   40.7860   59.2577 C   0  0  2  0  0  0  0  0  0  0  0  0
   68.3805   40.7915   57.7976 C   0  0  0  0  0  0  0  0  0  0  0  0
   69.3655   41.4169   57.2749 O   0  0  0  0  0  0  0  0  0  0  0  0
   67.5347   40.1153   56.8898 N   0  0  0  0  0  0  0  0  0  0  0  0
   67.7764   40.1500   55.5479 O   0  0  0  0  0  0  0  0  0  0  0  0
   73.9519   34.5390   56.8554 C   0  0  0  0  0  0  0  0  0  0  0  0
   71.7274   35.2964   52.4976 C   0  0  0  0  0  0  0  0  0  0  0  0
   72.9753   35.2194   53.3081 C   0  0  0  0  0  0  0  0  0  0  0  0
   72.9284   34.9013   54.6483 C   0  0  0  0  0  0  0  0  0  0  0  0
   74.1004   34.8285   55.4166 C   0  0  0  0  0  0  0  0  0  0  0  0
   75.2607   35.0878   54.7484 C   0  0  0  0  0  0  0  0  0  0  0  0
   76.4413   35.0128   55.4428 C   0  0  0  0  0  0  0  0  0  0  0  0
   77.6160   35.2641   54.7535 C   0  0  0  0  0  0  0  0  0  0  0  0
   77.6687   35.5812   53.4266 C   0  0  0  0  0  0  0  0  0  0  0  0
   76.4732   35.6543   52.7291 C   0  0  0  0  0  0  0  0  0  0  0  0
   75.2936   35.4094   53.3891 C   0  0  0  0  0  0  0  0  0  0  0  0
   74.1366   35.4654   52.7064 N   0  0  0  0  0  0  0  0  0  0  0  0
 20 21  1  0
 21 22  2  0
 21 30  1  0
 22 23  1  0
 23 19  1  0
 23 24  2  0
 19  1  1  0
  1  2  2  0
  1  6  1  0
  2  3  1  0
  3  4  2  0
  4  7  1  0
  4  5  1  0
  7  8  2  0
  7  9  1  0
 10  9  1  6
 10 11  1  0
 10 14  1  0
 11 12  1  0
 12 13  1  0
 13 14  1  0
 14 15  1  6
 15 16  2  0
 15 17  1  0
 17 18  1  0
  5  6  2  0
 24 25  1  0
 24 29  1  0
 25 26  2  0
 26 27  1  0
 27 28  2  0
 28 29  1  0
 29 30  2  0
M  CHG  1  12   1
M  END
>  <minimizedAffinity>  (472) 
-8.54757

$$$$
data/reference_output_2/data/smiles/166283.pdb
     RDKit          3D

 30 34  0  0  0  0  0  0  0  0999 V2000
   74.0294   35.5152   56.7642 N   0  0  0  0  0  0  0  0  0  0  0  0
   73.9927   35.4897   55.4424 N   0  0  0  0  0  0  0  0  0  0  0  0
   75.2166   35.2188   54.9487 C   0  0  0  0  0  0  0  0  0  0  0  0
   75.9911   35.0826   56.0407 N   0  0  0  0  0  0  0  0  0  0  0  0
   75.2666   35.2634   57.1553 N   0  0  0  0  0  0  0  0  0  0  0  0
   70.5874   38.8189   58.7220 Cl  0  0  0  0  0  0  0  0  0  0  0  0
   71.2987   37.2262   58.6180 C   0  0  0  0  0  0  0  0  0  0  0  0
   70.8018   36.2025   59.3970 C   0  0  0  0  0  0  0  0  0  0  0  0
   71.3991   34.9575   59.2784 C   0  0  0  0  0  0  0  0  0  0  0  0
   72.4478   34.7292   58.4255 C   0  0  0  0  0  0  0  0  0  0  0  0
   72.9265   35.7710   57.6562 C   0  0  0  0  0  0  0  0  0  0  0  0
   72.3492   37.0004   57.7623 C   0  0  0  0  0  0  0  0  0  0  0  0
   75.6075   35.1009   53.5449 C   0  0  0  0  0  0  0  0  0  0  0  0
   74.8857   34.3513   52.6442 C   0  0  0  0  0  0  0  0  0  0  0  0
   75.2704   34.2476   51.3095 C   0  0  0  0  0  0  0  0  0  0  0  0
   76.3907   34.8921   50.8309 C   0  0  0  0  0  0  0  0  0  0  0  0
   77.1053   35.6392   51.7412 C   0  0  0  0  0  0  0  0  0  0  0  0
   76.7264   35.7449   53.0666 C   0  0  0  0  0  0  0  0  0  0  0  0
   76.7863   34.7773   49.4296 C   0  0  0  0  0  0  0  0  0  0  0  0
   76.0865   33.9671   48.5621 C   0  0  0  0  0  0  0  0  0  0  0  0
   76.4447   33.8452   47.2321 C   0  0  0  0  0  0  0  0  0  0  0  0
   77.5223   34.5322   46.7146 C   0  0  0  0  0  0  0  0  0  0  0  0
   78.2303   35.3457   47.5742 C   0  0  0  0  0  0  0  0  0  0  0  0
   77.8617   35.4590   48.9001 C   0  0  0  0  0  0  0  0  0  0  0  0
   75.7352   35.1975   58.5017 C   0  0  0  0  0  0  0  0  0  0  0  0
   75.9097   36.2786   59.3068 C   0  0  0  0  0  0  0  0  0  0  0  0
   76.3694   36.0871   60.5934 C   0  0  0  0  0  0  0  0  0  0  0  0
   76.6548   34.8262   61.0747 C   0  0  0  0  0  0  0  0  0  0  0  0
   76.4784   33.7189   60.2549 C   0  0  0  0  0  0  0  0  0  0  0  0
   76.0234   33.9291   58.9907 C   0  0  0  0  0  0  0  0  0  0  0  0
  6  7  1  0
  7  8  2  0
  7 12  1  0
  8  9  1  0
  9 10  2  0
 10 11  1  0
 11  1  1  0
 11 12  2  0
  1  2  2  0
  1  5  1  0
  2  3  1  0
  3 13  1  0
  3  4  2  0
 13 14  2  0
 13 18  1  0
 14 15  1  0
 15 16  2  0
 16 19  1  0
 16 17  1  0
 19 20  2  0
 19 24  1  0
 20 21  1  0
 21 22  2  0
 22 23  1  0
 23 24  2  0
 17 18  2  0
  4  5  1  0
  5 25  1  0
 25 26  2  0
 25 30  1  0
 26 27  1  0
 27 28  2  0
 28 29  1  0
 29 30  2  0
M  CHG  1   1   1
M  END
>  <minimizedAffinity>  (473) 
-8.54515

$$$$
data/200k_reference_output/data/smiles/16341.pdb
     RDKit          3D

 30 33  0  0  0  0  0  0  0  0999 V2000
   72.7809   34.8410   57.2103 C   0  0  0  0  0  0  0  0  0  0  0  0
   72.7310   33.5945   57.7873 C   0  0  0  0  0  0  0  0  0  0  0  0
   72.0586   33.3438   58.9622 C   0  0  0  0  0  0  0  0  0  0  0  0
   71.4089   34.3825   59.5852 C   0  0  0  0  0  0  0  0  0  0  0  0
   70.7328   34.1861   60.7212 N   0  0  0  0  0  0  0  0  0  0  0  0
   70.0790   35.1686   61.3522 C   0  0  0  0  0  0  0  0  0  0  0  0
   70.1084   36.4255   60.8068 C   0  0  0  0  0  0  0  0  0  0  0  0
   70.7929   36.7200   59.6172 C   0  0  0  0  0  0  0  0  0  0  0  0
   71.4434   35.6593   59.0205 C   0  0  0  0  0  0  0  0  0  0  0  0
   72.1196   35.8939   57.8460 C   0  0  0  0  0  0  0  0  0  0  0  0
   75.5746   35.1757   54.7254 C   0  0  0  0  0  0  0  0  0  0  0  0
   74.8712   35.5933   53.5921 C   0  0  0  0  0  0  0  0  0  0  0  0
   73.5035   35.7625   53.6408 C   0  0  0  0  0  0  0  0  0  0  0  0
   72.8358   35.5141   54.8245 C   0  0  0  0  0  0  0  0  0  0  0  0
   73.4958   35.1005   55.9626 C   0  0  0  0  0  0  0  0  0  0  0  0
   74.8587   34.9390   55.8908 C   0  0  0  0  0  0  0  0  0  0  0  0
   77.7344   33.5249   53.8033 N   0  0  0  0  0  0  0  0  0  0  0  0
   77.3045   34.9744   54.6182 S   0  0  0  0  0  0  0  0  0  0  0  0
   77.9321   34.9137   55.9930 O   0  0  0  0  0  0  0  0  0  0  0  0
   77.8787   36.1323   53.8521 O   0  0  0  0  0  0  0  0  0  0  0  0
   70.8100   38.0856   59.1188 C   0  0  0  0  0  0  0  0  0  0  0  0
   71.9430   38.8533   59.2199 C   0  0  0  0  0  0  0  0  0  0  0  0
   71.9934   40.1580   58.7432 C   0  0  0  0  0  0  0  0  0  0  0  0
   70.8781   40.7076   58.1508 C   0  0  0  0  0  0  0  0  0  0  0  0
   69.7272   39.9681   58.0341 C   0  0  0  0  0  0  0  0  0  0  0  0
   69.7155   38.6873   58.5144 C   0  0  0  0  0  0  0  0  0  0  0  0
   68.2975   40.6775   57.2721 S   0  0  0  0  0  0  0  0  0  0  0  0
   68.6647   42.3196   56.9296 N   0  0  0  0  0  0  0  0  0  0  0  0
   67.8798   39.9004   56.0808 O   0  0  0  0  0  0  0  0  0  0  0  0
   67.1806   40.6717   58.2879 O   0  0  0  0  0  0  0  0  0  0  0  0
 17 18  1  0
 18 19  2  0
 18 20  2  0
 18 11  1  0
 11 12  2  0
 11 16  1  0
 12 13  1  0
 13 14  2  0
 14 15  1  0
 15  1  1  0
 15 16  2  0
  1  2  2  0
  1 10  1  0
  2  3  1  0
  3  4  2  0
  4  5  1  0
  4  9  1  0
  5  6  2  0
  6  7  1  0
  7  8  2  0
  8 21  1  0
  8  9  1  0
 21 22  2  0
 21 26  1  0
 22 23  1  0
 23 24  2  0
 24 25  1  0
 25 27  1  0
 25 26  2  0
 27 28  1  0
 27 29  2  0
 27 30  2  0
  9 10  2  0
M  END
>  <minimizedAffinity>  (474) 
-8.54465

$$$$
data/200k_reference_output/data/smiles/70054.pdb
     RDKit          3D

 30 33  0  0  0  0  0  0  0  0999 V2000
   72.4752   52.2639   57.3658 O   0  0  0  0  0  0  0  0  0  0  0  0
   72.8393   51.1800   56.8497 C   0  0  0  0  0  0  0  0  0  0  0  0
   73.6474   50.2970   57.5986 N   0  0  0  0  0  0  0  0  0  0  0  0
   74.0328   50.6706   58.9374 C   0  0  0  0  0  0  0  0  0  0  0  0
   74.0870   49.4833   59.8711 C   0  0  0  0  0  0  0  0  0  0  0  0
   73.5057   48.3153   59.1924 N   0  0  0  0  0  0  0  0  0  0  0  0
   72.3745   47.6470   59.7033 C   0  0  0  0  0  0  0  0  0  0  0  0
   71.8657   48.0747   60.7651 O   0  0  0  0  0  0  0  0  0  0  0  0
   74.1970   47.9252   57.9674 C   0  0  0  0  0  0  0  0  0  0  0  0
   74.0470   49.0532   56.9733 C   0  0  0  0  0  0  0  0  0  0  0  0
   71.7738   46.4999   59.0672 C   0  0  0  0  0  0  0  0  0  0  0  0
   72.1877   45.2098   59.3126 C   0  0  0  0  0  0  0  0  0  0  0  0
   71.5644   44.1580   58.6660 C   0  0  0  0  0  0  0  0  0  0  0  0
   70.5257   44.3788   57.7714 C   0  0  0  0  0  0  0  0  0  0  0  0
   69.9259   43.3395   57.1480 F   0  0  0  0  0  0  0  0  0  0  0  0
   70.0994   45.6640   57.5138 C   0  0  0  0  0  0  0  0  0  0  0  0
   70.7441   46.6933   58.1774 C   0  0  0  0  0  0  0  0  0  0  0  0
   72.3893   50.8927   55.4636 C   0  0  0  0  0  0  0  0  0  0  0  0
   70.8929   50.9257   55.3361 C   0  0  0  0  0  0  0  0  0  0  0  0
   70.3629   49.8448   54.4831 C   0  0  0  0  0  0  0  0  0  0  0  0
   69.5812   48.8658   54.9544 N   0  0  0  0  0  0  0  0  0  0  0  0
   69.1201   47.9001   54.1453 C   0  0  0  0  0  0  0  0  0  0  0  0
   68.3079   46.8756   54.6185 C   0  0  0  0  0  0  0  0  0  0  0  0
   67.8197   45.8714   53.8150 C   0  0  0  0  0  0  0  0  0  0  0  0
   68.1384   45.8586   52.4742 C   0  0  0  0  0  0  0  0  0  0  0  0
   68.9504   46.8711   51.9692 C   0  0  0  0  0  0  0  0  0  0  0  0
   69.4298   47.8704   52.7953 C   0  0  0  0  0  0  0  0  0  0  0  0
   70.2357   48.8894   52.3352 C   0  0  0  0  0  0  0  0  0  0  0  0
   70.5225   48.8720   51.1117 O   0  0  0  0  0  0  0  0  0  0  0  0
   70.6764   49.8382   53.1777 N   0  0  0  0  0  0  0  0  0  0  0  0
  1  2  2  0
  2 18  1  0
  2  3  1  0
 18 19  1  0
 19 20  1  0
 20 21  2  0
 20 30  1  0
 21 22  1  0
 22 23  2  0
 22 27  1  0
 23 24  1  0
 24 25  2  0
 25 26  1  0
 26 27  2  0
 27 28  1  0
 28 29  2  0
 28 30  1  0
  3  4  1  0
  3 10  1  0
  4  5  1  0
  5  6  1  0
  6  7  1  0
  6  9  1  0
  7  8  2  0
  7 11  1  0
 11 12  2  0
 11 17  1  0
 12 13  1  0
 13 14  2  0
 14 15  1  0
 14 16  1  0
 16 17  2  0
  9 10  1  0
M  END
>  <minimizedAffinity>  (475) 
-8.54295

$$$$
data/reference_output_2/data/smiles/111045.pdb
     RDKit          3D

 31 33  0  0  0  0  0  0  0  0999 V2000
   68.3733   40.7389   60.3464 C   0  0  0  0  0  0  0  0  0  0  0  0
   68.4406   41.3219   59.0994 C   0  0  0  0  0  0  0  0  0  0  0  0
   69.2373   42.4283   58.8672 C   0  0  0  0  0  0  0  0  0  0  0  0
   69.9781   42.9709   59.8707 C   0  0  0  0  0  0  0  0  0  0  0  0
   69.8993   42.3721   61.1196 C   0  0  0  0  0  0  0  0  0  0  0  0
   69.1164   41.2756   61.3721 C   0  0  0  0  0  0  0  0  0  0  0  0
   65.4773   40.9234   61.2937 C   0  0  0  0  0  0  0  0  0  0  0  0
   66.2805   39.6949   61.0267 C   0  0  0  0  0  0  0  0  0  0  0  0
   65.8171   38.4023   61.1722 C   0  0  0  0  0  0  0  0  0  0  0  0
   66.8152   37.5269   60.8426 C   0  0  0  0  0  0  0  0  0  0  0  0
   67.8996   38.2994   60.4910 C   0  0  0  0  0  0  0  0  0  0  0  0
   69.2209   37.7581   60.0571 C   0  0  0  0  0  0  0  0  0  0  0  0
   67.5608   39.6010   60.6074 N   0  0  0  0  0  0  0  0  0  0  0  0
   69.2454   42.9806   57.5092 C   0  0  0  0  0  0  0  0  0  0  0  0
   70.3220   43.0233   56.8309 O   0  0  0  0  0  0  0  0  0  0  0  0
   68.0951   43.4971   56.8582 N   0  0  0  0  0  0  0  0  0  0  0  0
   68.1803   44.0104   55.5562 N   0  0  0  0  0  0  0  0  0  0  0  0
   68.2755   45.4052   55.2990 C   0  0  0  0  0  0  0  0  0  0  0  0
   68.2759   46.1435   56.3329 O   0  0  0  0  0  0  0  0  0  0  0  0
   68.3658   45.9758   53.9607 C   0  0  0  0  0  0  0  0  0  0  0  0
   67.6028   45.4231   52.9571 C   0  0  0  0  0  0  0  0  0  0  0  0
   67.6550   45.9372   51.6540 C   0  0  0  0  0  0  0  0  0  0  0  0
   68.4840   47.0063   51.3967 C   0  0  0  0  0  0  0  0  0  0  0  0
   69.2585   47.5807   52.3774 C   0  0  0  0  0  0  0  0  0  0  0  0
   69.1719   47.0384   53.6417 C   0  0  0  0  0  0  0  0  0  0  0  0
   70.1250   48.7106   52.0706 C   0  0  0  0  0  0  0  0  0  0  0  0
   69.8579   49.4573   51.1006 O   0  0  0  0  0  0  0  0  0  0  0  0
   71.2503   48.9950   52.8214 O   0  0  0  0  0  0  0  0  0  0  0  0
   69.0845   40.7001   62.7141 C   0  0  0  0  0  0  0  0  0  0  0  0
   68.3943   41.2121   63.6327 O   0  0  0  0  0  0  0  0  0  0  0  0
   69.8242   39.5633   63.0028 O   0  0  0  0  0  0  0  0  0  0  0  0
  7  8  1  0
  8  9  2  0
  8 13  1  0
  9 10  1  0
 10 11  2  0
 11 12  1  0
 11 13  1  0
 13  1  1  0
  1  2  2  0
  1  6  1  0
  2  3  1  0
  3 14  1  0
  3  4  2  0
 14 15  2  0
 14 16  1  0
 16 17  1  0
 17 18  1  0
 18 19  2  0
 18 20  1  0
 20 21  2  0
 20 25  1  0
 21 22  1  0
 22 23  2  0
 23 24  1  0
 24 26  1  0
 24 25  2  0
 26 27  2  0
 26 28  1  0
  4  5  1  0
  5  6  2  0
  6 29  1  0
 29 30  2  0
 29 31  1  0
M  END
>  <minimizedAffinity>  (476) 
-8.54271

$$$$
data/reference_output_2/data/smiles/138151.pdb
     RDKit          3D

 30 33  0  0  0  0  0  0  0  0999 V2000
   71.1880   37.6617   58.7623 C   0  0  0  0  0  0  0  0  0  0  0  0
   70.8467   36.7040   59.6774 C   0  0  0  0  0  0  0  0  0  0  0  0
   71.2400   35.4029   59.4962 C   0  0  0  0  0  0  0  0  0  0  0  0
   71.9830   35.0356   58.3961 C   0  0  0  0  0  0  0  0  0  0  0  0
   72.3516   35.9715   57.4437 C   0  0  0  0  0  0  0  0  0  0  0  0
   71.9404   37.2648   57.6581 C   0  0  0  0  0  0  0  0  0  0  0  0
   70.7014   39.3433   58.9589 S   0  0  0  0  0  0  0  0  0  0  0  0
   71.7832   40.1668   58.2870 O   0  0  0  0  0  0  0  0  0  0  0  0
   70.5942   39.6907   60.3975 O   0  0  0  0  0  0  0  0  0  0  0  0
   65.9840   40.9337   61.6802 C   0  0  0  0  0  0  0  0  0  0  0  0
   66.5848   41.6342   60.5137 C   0  0  0  0  0  0  0  0  0  0  0  0
   66.5701   42.8913   60.4841 O   0  0  0  0  0  0  0  0  0  0  0  0
   67.1695   40.9218   59.4381 N   0  0  0  0  0  0  0  0  0  0  0  0
   67.1752   39.4855   59.4933 C   0  0  0  0  0  0  0  0  0  0  0  0
   68.1443   38.8617   58.5283 C   0  0  0  0  0  0  0  0  0  0  0  0
   69.2334   39.6730   58.1574 N   0  0  0  0  0  0  0  0  0  0  0  0
   68.9917   41.0138   57.8339 C   0  0  0  0  0  0  0  0  0  0  0  0
   67.7345   41.6246   58.3374 C   0  0  0  0  0  0  0  0  0  0  0  0
   73.1353   35.5412   56.2982 C   0  0  0  0  0  0  0  0  0  0  0  0
   74.1161   34.7694   56.4600 O   0  0  0  0  0  0  0  0  0  0  0  0
   72.8588   35.9477   54.9673 N   0  0  0  0  0  0  0  0  0  0  0  0
   73.6430   35.5120   53.8547 C   0  0  0  0  0  0  0  0  0  0  0  0
   73.0144   34.8049   52.8529 C   0  0  0  0  0  0  0  0  0  0  0  0
   73.7290   34.3512   51.7383 C   0  0  0  0  0  0  0  0  0  0  0  0
   75.0791   34.6086   51.6294 C   0  0  0  0  0  0  0  0  0  0  0  0
   75.7280   35.3142   52.6210 C   0  0  0  0  0  0  0  0  0  0  0  0
   74.9868   35.7456   53.7061 C   0  0  0  0  0  0  0  0  0  0  0  0
   77.1699   35.4447   52.2459 C   0  0  0  0  0  0  0  0  0  0  0  0
   77.2196   35.1817   50.7745 C   0  0  0  0  0  0  0  0  0  0  0  0
   76.0528   34.2323   50.5436 C   0  0  0  0  0  0  0  0  0  0  0  0
 10 11  1  0
 11 12  2  0
 11 13  1  0
 13 14  1  0
 13 18  1  0
 14 15  1  0
 15 16  1  0
 16  7  1  0
 16 17  1  0
  7  8  2  0
  7  9  2  0
  7  1  1  0
  1  2  2  0
  1  6  1  0
  2  3  1  0
  3  4  2  0
  4  5  1  0
  5 19  1  0
  5  6  2  0
 19 20  2  0
 19 21  1  0
 21 22  1  0
 22 23  2  0
 22 27  1  0
 23 24  1  0
 24 25  2  0
 25 26  1  0
 25 30  1  0
 26 27  2  0
 26 28  1  0
 28 29  1  0
 29 30  1  0
 17 18  1  0
M  END
>  <minimizedAffinity>  (477) 
-8.54262

$$$$
data/200k_reference_output/data/smiles/1186.pdb
     RDKit          3D

 30 34  0  0  0  0  0  0  0  0999 V2000
   68.0734   44.6877   55.1304 C   0  0  0  0  0  0  0  0  0  0  0  0
   68.5427   45.9597   55.3780 C   0  0  0  0  0  0  0  0  0  0  0  0
   68.5368   46.9663   54.4296 C   0  0  0  0  0  0  0  0  0  0  0  0
   68.0363   46.6661   53.1901 C   0  0  0  0  0  0  0  0  0  0  0  0
   67.5653   45.3961   52.9384 C   0  0  0  0  0  0  0  0  0  0  0  0
   67.5912   44.4362   53.9025 N   0  0  0  0  0  0  0  0  0  0  0  0
   69.0397   48.3049   54.7155 C   0  0  0  0  0  0  0  0  0  0  0  0
   69.4199   49.2343   53.7721 C   0  0  0  0  0  0  0  0  0  0  0  0
   69.8447   50.3883   54.4048 C   0  0  0  0  0  0  0  0  0  0  0  0
   69.7119   50.1340   55.7663 C   0  0  0  0  0  0  0  0  0  0  0  0
   69.2334   48.8908   55.9053 N   0  0  0  0  0  0  0  0  0  0  0  0
   70.0752   51.1455   56.7927 C   0  0  2  0  0  0  0  0  0  0  0  0
   71.4613   50.8822   57.3379 C   0  0  0  0  0  0  0  0  0  0  0  0
   71.2370   49.9436   58.5054 C   0  0  0  0  0  0  0  0  0  0  0  0
   69.8581   50.0493   58.8750 N   0  0  0  0  0  0  0  0  0  0  0  0
   69.2021   50.9798   58.0041 C   0  0  0  0  0  0  0  0  0  0  0  0
   70.0244   52.5260   56.2236 C   0  0  0  0  0  0  0  0  0  0  0  0
   70.6811   52.6198   54.9426 N   0  0  0  0  0  0  0  0  0  0  0  0
   70.3467   51.6746   53.9437 C   0  0  0  0  0  0  0  0  0  0  0  0
   70.4791   51.9386   52.7452 O   0  0  0  0  0  0  0  0  0  0  0  0
   66.5908   42.3319   55.1400 O   0  0  0  0  0  0  0  0  0  0  0  0
   67.3457   42.5079   56.1300 C   0  0  0  0  0  0  0  0  0  0  0  0
   68.1069   43.6945   56.1495 N   0  0  0  0  0  0  0  0  0  0  0  0
   67.3829   41.4922   57.1765 C   0  0  0  0  0  0  0  0  0  0  0  0
   68.1104   40.3313   57.0011 C   0  0  0  0  0  0  0  0  0  0  0  0
   68.1674   39.3495   57.9712 C   0  0  0  0  0  0  0  0  0  0  0  0
   67.4931   39.4907   59.1659 C   0  0  0  0  0  0  0  0  0  0  0  0
   67.5497   38.5222   60.1239 F   0  0  0  0  0  0  0  0  0  0  0  0
   66.7625   40.6441   59.3562 C   0  0  0  0  0  0  0  0  0  0  0  0
   66.7168   41.6146   58.3762 C   0  0  0  0  0  0  0  0  0  0  0  0
 21 22  2  0
 22 23  1  0
 22 24  1  0
 23  1  1  0
  1  2  2  0
  1  6  1  0
  2  3  1  0
  3  7  1  0
  3  4  2  0
  7  8  2  0
  7 11  1  0
  8  9  1  0
  9 10  2  0
  9 19  1  0
 10 11  1  0
 12 10  1  0
 12 13  1  1
 12 16  1  0
 12 17  1  0
 13 14  1  0
 14 15  1  0
 15 16  1  0
 17 18  1  0
 18 19  1  0
 19 20  2  0
  4  5  1  0
  5  6  2  0
 24 25  2  0
 24 30  1  0
 25 26  1  0
 26 27  2  0
 27 28  1  0
 27 29  1  0
 29 30  2  0
M  CHG  1  15   1
M  END
>  <minimizedAffinity>  (478) 
-8.54242

$$$$
data/200k_reference_output/data/smiles/29848.pdb
     RDKit          3D

 27 29  0  0  0  0  0  0  0  0999 V2000
   69.0008   46.2917   55.7463 C   0  0  0  0  0  0  0  0  0  0  0  0
   68.2201   45.2268   55.4101 N   0  0  0  0  0  0  0  0  0  0  0  0
   67.6977   45.0362   54.2132 C   0  0  0  0  0  0  0  0  0  0  0  0
   67.9098   45.9241   53.1891 C   0  0  0  0  0  0  0  0  0  0  0  0
   67.2216   45.6726   51.6125 Cl  0  0  0  0  0  0  0  0  0  0  0  0
   68.6851   47.0255   53.4406 C   0  0  0  0  0  0  0  0  0  0  0  0
   68.9097   47.9510   52.4127 C   0  0  0  0  0  0  0  0  0  0  0  0
   69.6857   49.0445   52.7126 C   0  0  0  0  0  0  0  0  0  0  0  0
   70.2319   49.2401   53.9737 C   0  0  0  0  0  0  0  0  0  0  0  0
   69.9926   48.3104   54.9662 C   0  0  0  0  0  0  0  0  0  0  0  0
   69.2166   47.2068   54.6825 C   0  0  0  0  0  0  0  0  0  0  0  0
   69.8991   45.2178   58.9092 N   0  0  0  0  0  0  0  0  0  0  0  0
   69.8964   46.3989   58.0456 C   0  0  0  0  0  0  0  0  0  0  0  0
   70.4803   47.5398   58.7830 N   0  0  0  0  0  0  0  0  0  0  0  0
   69.5005   46.4600   56.9517 N   0  0  0  0  0  0  0  0  0  0  0  0
   71.1978   50.6700   54.2459 S   0  0  0  0  0  0  0  0  0  0  0  0
   72.6142   50.2704   53.8255 O   0  0  0  0  0  0  0  0  0  0  0  0
   70.8105   51.7193   53.2056 O   0  0  0  0  0  0  0  0  0  0  0  0
   71.2498   51.2764   55.7705 N   0  0  0  0  0  0  0  0  0  0  0  0
   70.1326   51.7069   56.4862 C   0  0  0  0  0  0  0  0  0  0  0  0
   68.8254   51.7053   55.6784 C   0  0  0  0  0  0  0  0  0  0  0  0
   67.7226   51.4439   56.6627 C   0  0  0  0  0  0  0  0  0  0  0  0
   68.3664   50.5830   57.7278 C   0  0  0  0  0  0  0  0  0  0  0  0
   69.8231   51.0021   57.7731 C   0  0  0  0  0  0  0  0  0  0  0  0
   70.3569   53.1389   56.8372 C   0  0  0  0  0  0  0  0  0  0  0  0
   71.4375   53.4584   57.3568 O   0  0  0  0  0  0  0  0  0  0  0  0
   69.4028   54.0942   56.5994 O   0  0  0  0  0  0  0  0  0  0  0  0
 12 13  1  0
 13 14  1  0
 13 15  2  0
 15  1  1  0
  1  2  2  0
  1 11  1  0
  2  3  1  0
  3  4  2  0
  4  5  1  0
  4  6  1  0
  6  7  1  0
  6 11  2  0
  7  8  2  0
  8  9  1  0
  9 16  1  0
  9 10  2  0
 16 17  2  0
 16 18  2  0
 16 19  1  0
 19 20  1  0
 20 25  1  0
 20 21  1  0
 20 24  1  0
 25 26  2  0
 25 27  1  0
 21 22  1  0
 22 23  1  0
 23 24  1  0
 10 11  1  0
M  CHG  1  15   1
M  END
>  <minimizedAffinity>  (479) 
-8.54195

$$$$
data/200k_reference_output/data/smiles/62914.pdb
     RDKit          3D

 29 32  0  0  0  0  0  0  0  0999 V2000
   72.2344   44.3927   59.4991 C   0  0  2  0  0  0  0  0  0  0  0  0
   73.1131   45.1225   60.3987 C   0  0  0  0  0  0  0  0  0  0  0  0
   72.6328   46.4404   60.9096 C   0  0  0  0  0  0  0  0  0  0  0  0
   72.0932   47.3203   59.8087 C   0  0  0  0  0  0  0  0  0  0  0  0
   71.2617   46.5767   58.8435 C   0  0  0  0  0  0  0  0  0  0  0  0
   70.3998   47.3990   58.0842 C   0  0  0  0  0  0  0  0  0  0  0  0
   69.5778   46.8295   57.1450 C   0  0  0  0  0  0  0  0  0  0  0  0
   69.6278   45.4657   56.9796 C   0  0  0  0  0  0  0  0  0  0  0  0
   70.4852   44.6664   57.7372 C   0  0  0  0  0  0  0  0  0  0  0  0
   71.3155   45.2507   58.6882 C   0  0  0  0  0  0  0  0  0  0  0  0
   68.4760   47.7917   56.1619 S   0  0  0  0  0  0  0  0  0  0  0  0
   67.0778   47.5901   56.6413 O   0  0  0  0  0  0  0  0  0  0  0  0
   68.8105   49.2470   56.3365 O   0  0  0  0  0  0  0  0  0  0  0  0
   68.6221   47.3730   54.4733 C   0  0  0  0  0  0  0  0  0  0  0  0
   67.8877   46.3230   53.9732 C   0  0  0  0  0  0  0  0  0  0  0  0
   68.0168   46.0078   52.6372 C   0  0  0  0  0  0  0  0  0  0  0  0
   68.8460   46.6966   51.7829 C   0  0  0  0  0  0  0  0  0  0  0  0
   69.5613   47.7438   52.3387 C   0  0  0  0  0  0  0  0  0  0  0  0
   70.4012   48.4627   51.5317 F   0  0  0  0  0  0  0  0  0  0  0  0
   69.4677   48.0984   53.6673 C   0  0  0  0  0  0  0  0  0  0  0  0
   71.4567   43.2467   60.0483 C   0  0  0  0  0  0  0  0  0  0  0  0
   68.9642   41.7249   59.8026 O   0  0  0  0  0  0  0  0  0  0  0  0
   69.0366   42.6967   60.5711 C   0  0  0  0  0  0  0  0  0  0  0  0
   70.2161   43.4369   60.6894 N   0  0  0  0  0  0  0  0  0  0  0  0
   67.8088   43.0456   61.3674 C   0  0  1  0  0  0  0  0  0  0  0  0
   66.8511   41.8979   61.3011 C   0  0  0  0  0  0  0  0  0  0  0  0
   66.8526   41.2746   62.6700 C   0  0  0  0  0  0  0  0  0  0  0  0
   67.8565   42.0653   63.4691 C   0  0  0  0  0  0  0  0  0  0  0  0
   68.1058   43.2927   62.7447 N   0  0  0  0  0  0  0  0  0  0  0  0
 22 23  2  0
 23 24  1  0
 25 23  1  6
 24 21  1  0
  1 21  1  1
  1  2  1  0
  1 10  1  0
  2  3  1  0
  3  4  1  0
  4  5  1  0
  5  6  2  0
  5 10  1  0
  6  7  1  0
  7 11  1  0
  7  8  2  0
 11 12  2  0
 11 13  2  0
 11 14  1  0
 14 15  2  0
 14 20  1  0
 15 16  1  0
 16 17  2  0
 17 18  1  0
 18 19  1  0
 18 20  2  0
  8  9  1  0
  9 10  2  0
 25 26  1  0
 25 29  1  0
 26 27  1  0
 27 28  1  0
 28 29  1  0
M  CHG  1  29   1
M  END
>  <minimizedAffinity>  (480) 
-8.54148

$$$$
data/reference_output_2/data/smiles/176840.pdb
     RDKit          3D

 29 32  0  0  0  0  0  0  0  0999 V2000
   71.0095   37.3593   58.9652 C   0  0  0  0  0  0  0  0  0  0  0  0
   70.4680   36.7179   60.0025 N   0  0  0  0  0  0  0  0  0  0  0  0
   70.7889   35.4499   60.0232 N   0  0  0  0  0  0  0  0  0  0  0  0
   71.5806   35.2456   58.9451 C   0  0  0  0  0  0  0  0  0  0  0  0
   72.2174   34.1331   58.4447 C   0  0  0  0  0  0  0  0  0  0  0  0
   72.9850   34.2106   57.2946 C   0  0  0  0  0  0  0  0  0  0  0  0
   73.1486   35.3971   56.5983 C   0  0  0  0  0  0  0  0  0  0  0  0
   72.5052   36.4962   57.1129 C   0  0  0  0  0  0  0  0  0  0  0  0
   71.7340   36.4342   58.2633 C   0  0  0  0  0  0  0  0  0  0  0  0
   69.5638   40.6630   57.8469 C   0  0  0  0  0  0  0  0  0  0  0  0
   70.6369   41.5007   58.0335 C   0  0  0  0  0  0  0  0  0  0  0  0
   71.8144   40.9710   58.5213 C   0  0  0  0  0  0  0  0  0  0  0  0
   71.9391   39.6436   58.8218 C   0  0  0  0  0  0  0  0  0  0  0  0
   70.8611   38.7708   58.6399 C   0  0  0  0  0  0  0  0  0  0  0  0
   69.6937   39.3051   58.1536 C   0  0  0  0  0  0  0  0  0  0  0  0
   67.6657   40.4913   55.7548 N   0  0  0  0  0  0  0  0  0  0  0  0
   68.0590   41.2746   57.2350 S   0  0  0  0  0  0  0  0  0  0  0  0
   66.9347   41.0242   58.2074 O   0  0  0  0  0  0  0  0  0  0  0  0
   68.1620   42.7609   57.0503 O   0  0  0  0  0  0  0  0  0  0  0  0
   73.9310   35.4334   55.4436 N   0  0  0  0  0  0  0  0  0  0  0  0
   73.3863   35.4231   54.1350 C   0  0  0  0  0  0  0  0  0  0  0  0
   72.1374   35.3800   54.0607 O   0  0  0  0  0  0  0  0  0  0  0  0
   74.2855   35.4625   52.9442 C   0  0  0  0  0  0  0  0  0  0  0  0
   75.6767   35.1044   53.3190 C   0  0  0  0  0  0  0  0  0  0  0  0
   76.0930   33.8036   53.4915 C   0  0  0  0  0  0  0  0  0  0  0  0
   77.4009   33.5469   53.8391 C   0  0  0  0  0  0  0  0  0  0  0  0
   78.3187   34.5162   54.0266 N   0  0  0  0  0  0  0  0  0  0  0  0
   77.9065   35.7862   53.8569 C   0  0  0  0  0  0  0  0  0  0  0  0
   76.6104   36.1030   53.5089 C   0  0  0  0  0  0  0  0  0  0  0  0
 16 17  1  0
 17 18  2  0
 17 19  2  0
 17 10  1  0
 10 11  2  0
 10 15  1  0
 11 12  1  0
 12 13  2  0
 13 14  1  0
 14  1  1  0
 14 15  2  0
  1  2  2  0
  1  9  1  0
  2  3  1  0
  3  4  1  0
  4  5  1  0
  4  9  2  0
  5  6  2  0
  6  7  1  0
  7 20  1  0
  7  8  2  0
 20 21  1  0
 21 22  2  0
 21 23  1  0
 23 24  1  0
 24 25  2  0
 24 29  1  0
 25 26  1  0
 26 27  2  0
 27 28  1  0
 28 29  2  0
  8  9  1  0
M  END
>  <minimizedAffinity>  (481) 
-8.54064

$$$$
data/200k_reference_output/data/smiles/70103.pdb
     RDKit          3D

 29 32  0  0  0  0  0  0  0  0999 V2000
   74.3469   34.7016   54.9429 C   0  0  0  0  0  0  0  0  0  0  0  0
   75.3362   34.9974   55.8913 C   0  0  0  0  0  0  0  0  0  0  0  0
   74.7257   35.5343   56.9592 N   0  0  0  0  0  0  0  0  0  0  0  0
   73.4214   35.6154   56.7907 N   0  0  0  0  0  0  0  0  0  0  0  0
   73.1826   35.1057   55.5547 C   0  0  0  0  0  0  0  0  0  0  0  0
   72.4569   36.1290   57.7085 C   0  0  0  0  0  0  0  0  0  0  0  0
   71.9777   35.3070   58.7040 C   0  0  0  0  0  0  0  0  0  0  0  0
   71.0364   35.8004   59.6047 C   0  0  0  0  0  0  0  0  0  0  0  0
   70.5875   37.1005   59.5010 C   0  0  0  0  0  0  0  0  0  0  0  0
   71.0516   37.9462   58.5123 C   0  0  0  0  0  0  0  0  0  0  0  0
   71.9814   37.4214   57.6409 C   0  0  0  0  0  0  0  0  0  0  0  0
   70.5611   39.3154   58.4243 C   0  0  0  0  0  0  0  0  0  0  0  0
   71.3931   40.2526   58.4965 O   0  0  0  0  0  0  0  0  0  0  0  0
   69.2002   39.6771   58.2614 N   0  0  0  0  0  0  0  0  0  0  0  0
   68.7455   41.0481   58.1774 C   0  0  0  0  0  0  0  0  0  0  0  0
   68.1196   41.4422   56.8763 C   0  0  0  0  0  0  0  0  0  0  0  0
   67.1069   42.1696   57.6432 N   0  0  0  0  0  0  0  0  0  0  0  0
   67.3547   41.2042   58.7238 C   0  0  0  0  0  0  0  0  0  0  0  0
   75.9117   35.7906   52.9042 O   0  0  0  0  0  0  0  0  0  0  0  0
   75.3712   34.7066   52.6464 C   0  0  0  0  0  0  0  0  0  0  0  0
   74.5628   34.1199   53.6660 N   0  0  0  0  0  0  0  0  0  0  0  0
   75.5695   34.1149   51.3952 N   0  0  0  0  0  0  0  0  0  0  0  0
   76.3390   34.5927   50.3161 C   0  0  0  0  0  0  0  0  0  0  0  0
   77.3599   35.4986   50.4279 C   0  0  0  0  0  0  0  0  0  0  0  0
   78.1053   35.9536   49.3324 C   0  0  0  0  0  0  0  0  0  0  0  0
   77.8097   35.4768   48.0818 C   0  0  0  0  0  0  0  0  0  0  0  0
   76.7935   34.5679   47.9264 C   0  0  0  0  0  0  0  0  0  0  0  0
   76.0859   34.1442   49.0144 C   0  0  0  0  0  0  0  0  0  0  0  0
   74.7929   32.9854   48.8104 Cl  0  0  0  0  0  0  0  0  0  0  0  0
 19 20  2  0
 20 21  1  0
 20 22  1  0
 21  1  1  0
  1  2  1  0
  1  5  2  0
  2  3  2  0
  3  4  1  0
  4  6  1  0
  4  5  1  0
  6  7  2  0
  6 11  1  0
  7  8  1  0
  8  9  2  0
  9 10  1  0
 10 12  1  0
 10 11  2  0
 12 13  2  0
 12 14  1  0
 14 15  1  0
 15 16  1  0
 15 18  1  0
 16 17  1  0
 17 18  1  0
 22 23  1  0
 23 24  2  0
 23 28  1  0
 24 25  1  0
 25 26  2  0
 26 27  1  0
 27 28  2  0
 28 29  1  0
M  CHG  1  17   1
M  END
>  <minimizedAffinity>  (482) 
-8.53940

$$$$
data/reference_output_2/data/smiles/91009.pdb
     RDKit          3D

 30 32  0  0  0  0  0  0  0  0999 V2000
   69.7221   43.1815   56.9706 O   0  0  0  0  0  0  0  0  0  0  0  0
   68.6012   42.6991   56.6730 C   0  0  0  0  0  0  0  0  0  0  0  0
   67.7303   43.6595   56.0220 N   0  0  0  0  0  0  0  0  0  0  0  0
   68.1775   44.9432   55.7975 N   0  0  0  0  0  0  0  0  0  0  0  0
   68.1750   45.6074   54.5356 C   0  0  0  0  0  0  0  0  0  0  0  0
   67.7201   44.9376   53.5660 O   0  0  0  0  0  0  0  0  0  0  0  0
   68.6628   46.9690   54.3684 C   0  0  0  0  0  0  0  0  0  0  0  0
   68.8750   47.7386   55.4891 C   0  0  0  0  0  0  0  0  0  0  0  0
   69.3364   49.0368   55.4050 C   0  0  0  0  0  0  0  0  0  0  0  0
   69.5908   49.5766   54.1590 C   0  0  0  0  0  0  0  0  0  0  0  0
   69.3719   48.7897   53.0444 C   0  0  0  0  0  0  0  0  0  0  0  0
   68.9185   47.5208   53.1830 N   0  0  0  0  0  0  0  0  0  0  0  0
   70.0955   50.9757   53.9663 C   0  0  0  0  0  0  0  0  0  0  0  0
   71.4441   50.9972   54.3108 F   0  0  0  0  0  0  0  0  0  0  0  0
   69.4760   51.8492   54.8610 F   0  0  0  0  0  0  0  0  0  0  0  0
   69.9450   51.3758   52.6596 F   0  0  0  0  0  0  0  0  0  0  0  0
   68.1332   41.3307   56.9145 C   0  0  0  0  0  0  0  0  0  0  0  0
   68.3232   40.8061   58.2713 C   0  0  0  0  0  0  0  0  0  0  0  0
   69.2867   39.7896   58.5186 N   0  0  0  0  0  0  0  0  0  0  0  0
   68.8852   39.2035   59.8354 C   0  0  0  0  0  0  0  0  0  0  0  0
   69.4821   37.8067   59.9329 C   0  0  0  0  0  0  0  0  0  0  0  0
   70.8321   37.9462   59.3567 N   0  0  0  0  0  0  0  0  0  0  0  0
   71.4242   39.2474   59.5315 C   0  0  0  0  0  0  0  0  0  0  0  0
   70.6250   40.2655   58.6898 C   0  0  0  0  0  0  0  0  0  0  0  0
   71.4621   36.8793   58.7046 C   0  0  0  0  0  0  0  0  0  0  0  0
   72.1718   37.0397   57.5358 C   0  0  0  0  0  0  0  0  0  0  0  0
   72.7943   35.9924   56.8970 C   0  0  0  0  0  0  0  0  0  0  0  0
   72.7119   34.7383   57.4330 C   0  0  0  0  0  0  0  0  0  0  0  0
   72.0117   34.5286   58.6032 C   0  0  0  0  0  0  0  0  0  0  0  0
   71.4001   35.6051   59.2153 C   0  0  0  0  0  0  0  0  0  0  0  0
  1  2  2  0
  2 17  1  0
  2  3  1  0
 17 18  1  0
 18 19  1  0
 19 20  1  0
 19 24  1  0
 20 21  1  0
 21 22  1  0
 22 25  1  0
 22 23  1  0
 25 26  2  0
 25 30  1  0
 26 27  1  0
 27 28  2  0
 28 29  1  0
 29 30  2  0
 23 24  1  0
  3  4  1  0
  4  5  1  0
  5  6  2  0
  5  7  1  0
  7  8  2  0
  7 12  1  0
  8  9  1  0
  9 10  2  0
 10 13  1  0
 10 11  1  0
 13 14  1  0
 13 15  1  0
 13 16  1  0
 11 12  2  0
M  CHG  1  19   1
M  END
>  <minimizedAffinity>  (483) 
-8.53769

$$$$
data/reference_output_2/data/smiles/100620.pdb
     RDKit          3D

 29 31  0  0  0  0  0  0  0  0999 V2000
   71.4709   46.8175   59.1126 C   0  0  0  0  0  0  0  0  0  0  0  0
   71.1323   47.5357   60.0632 O   0  0  0  0  0  0  0  0  0  0  0  0
   72.2071   45.6414   59.3726 N   0  0  0  0  0  0  0  0  0  0  0  0
   72.5548   45.2988   60.7254 C   0  0  0  0  0  0  0  0  0  0  0  0
   71.9833   43.9204   61.0214 C   0  0  0  0  0  0  0  0  0  0  0  0
   71.2793   43.3934   59.8596 N   0  0  0  0  0  0  0  0  0  0  0  0
   69.9379   42.9543   59.9105 C   0  0  0  0  0  0  0  0  0  0  0  0
   69.3142   43.0154   60.9880 O   0  0  0  0  0  0  0  0  0  0  0  0
   72.0827   43.3544   58.6272 C   0  0  0  0  0  0  0  0  0  0  0  0
   72.6366   44.7403   58.3285 C   0  0  0  0  0  0  0  0  0  0  0  0
   69.2739   42.4378   58.7333 C   0  0  0  0  0  0  0  0  0  0  0  0
   68.9915   41.0847   58.5628 C   0  0  0  0  0  0  0  0  0  0  0  0
   68.3621   40.5922   57.4483 C   0  0  0  0  0  0  0  0  0  0  0  0
   67.9801   41.4505   56.4321 C   0  0  0  0  0  0  0  0  0  0  0  0
   68.2666   42.7947   56.6147 C   0  0  0  0  0  0  0  0  0  0  0  0
   68.8756   43.2396   57.7034 N   0  0  0  0  0  0  0  0  0  0  0  0
   71.0782   47.2393   57.7485 C   0  0  0  0  0  0  0  0  0  0  0  0
   69.3642   45.6721   57.1906 N   0  0  0  0  0  0  0  0  0  0  0  0
   69.6366   47.0575   57.4190 C   0  0  2  0  0  0  0  0  0  0  0  0
   69.0235   48.0296   56.4939 C   0  0  0  0  0  0  0  0  0  0  0  0
   68.8843   47.6582   55.0858 C   0  0  0  0  0  0  0  0  0  0  0  0
   68.1055   46.6095   54.6747 C   0  0  0  0  0  0  0  0  0  0  0  0
   68.0150   46.2924   53.3538 C   0  0  0  0  0  0  0  0  0  0  0  0
   67.2315   45.2384   52.9454 F   0  0  0  0  0  0  0  0  0  0  0  0
   68.6897   46.9972   52.3731 C   0  0  0  0  0  0  0  0  0  0  0  0
   68.5828   46.6625   51.0664 F   0  0  0  0  0  0  0  0  0  0  0  0
   69.4670   48.0503   52.8202 C   0  0  0  0  0  0  0  0  0  0  0  0
   69.5770   48.3904   54.1399 C   0  0  0  0  0  0  0  0  0  0  0  0
   70.3691   49.4537   54.5221 F   0  0  0  0  0  0  0  0  0  0  0  0
 19 18  1  6
 19 17  1  0
 19 20  1  0
 17  1  1  0
  1  2  2  0
  1  3  1  0
  3  4  1  0
  3 10  1  0
  4  5  1  0
  5  6  1  0
  6  7  1  0
  6  9  1  0
  7  8  2  0
  7 11  1  0
 11 12  2  0
 11 16  1  0
 12 13  1  0
 13 14  2  0
 14 15  1  0
 15 16  2  0
  9 10  1  0
 20 21  1  0
 21 22  2  0
 21 28  1  0
 22 23  1  0
 23 24  1  0
 23 25  2  0
 25 26  1  0
 25 27  1  0
 27 28  2  0
 28 29  1  0
M  CHG  1  18   1
M  END
>  <minimizedAffinity>  (484) 
-8.53622

$$$$
data/reference_output_2/data/smiles/155112.pdb
     RDKit          3D

 30 33  0  0  0  0  0  0  0  0999 V2000
   70.8611   46.7154   58.1221 C   0  0  0  0  0  0  0  0  0  0  0  0
   70.9302   45.4369   58.0649 C   0  0  0  0  0  0  0  0  0  0  0  0
   71.0266   44.0093   58.0129 C   0  0  0  0  0  0  0  0  0  0  0  0
   69.9818   43.1885   57.8173 C   0  0  0  0  0  0  0  0  0  0  0  0
   70.0337   41.7843   57.9177 C   0  0  0  0  0  0  0  0  0  0  0  0
   71.2645   41.2104   58.2485 C   0  0  0  0  0  0  0  0  0  0  0  0
   71.3840   39.8271   58.4566 C   0  0  0  0  0  0  0  0  0  0  0  0
   72.5989   39.2654   58.8709 C   0  0  0  0  0  0  0  0  0  0  0  0
   73.5889   40.1191   59.0368 O   0  0  0  0  0  0  0  0  0  0  0  0
   73.5046   41.4045   58.8497 C   0  0  0  0  0  0  0  0  0  0  0  0
   74.4872   42.2010   59.0160 O   0  0  0  0  0  0  0  0  0  0  0  0
   72.3199   42.0179   58.4448 C   0  0  0  0  0  0  0  0  0  0  0  0
   72.2758   43.4169   58.3409 C   0  0  0  0  0  0  0  0  0  0  0  0
   72.7157   37.7974   59.1082 C   0  0  0  0  0  0  0  0  0  0  0  0
   71.9595   37.0175   58.0912 C   0  0  0  0  0  0  0  0  0  0  0  0
   72.7862   36.0209   57.3261 C   0  0  0  0  0  0  0  0  0  0  0  0
   72.7080   36.0938   55.9623 O   0  0  0  0  0  0  0  0  0  0  0  0
   70.7804   48.1422   58.1606 C   0  0  0  0  0  0  0  0  0  0  0  0
   69.5441   48.6837   57.4955 C   0  0  0  0  0  0  0  0  0  0  0  0
   70.7233   50.0355   55.1789 O   0  0  0  0  0  0  0  0  0  0  0  0
   69.9762   48.9909   55.0655 C   0  0  0  0  0  0  0  0  0  0  0  0
   69.6258   48.3557   53.8169 C   0  0  0  0  0  0  0  0  0  0  0  0
   69.9537   48.6499   52.4908 C   0  0  0  0  0  0  0  0  0  0  0  0
   69.4376   47.8151   51.5194 C   0  0  0  0  0  0  0  0  0  0  0  0
   68.6315   46.7316   51.7739 C   0  0  0  0  0  0  0  0  0  0  0  0
   68.3276   46.4756   53.1133 C   0  0  0  0  0  0  0  0  0  0  0  0
   68.8272   47.2885   54.1257 C   0  0  0  0  0  0  0  0  0  0  0  0
   68.6500   47.2200   55.5575 C   0  0  0  0  0  0  0  0  0  0  0  0
   67.9719   46.3746   56.1975 O   0  0  0  0  0  0  0  0  0  0  0  0
   69.3602   48.2733   56.1441 N   0  0  0  0  0  0  0  0  0  0  0  0
 20 21  2  0
 21 22  1  0
 21 30  1  0
 22 23  2  0
 22 27  1  0
 23 24  1  0
 24 25  2  0
 25 26  1  0
 26 27  2  0
 27 28  1  0
 28 29  2  0
 28 30  1  0
 30 19  1  0
 19 18  1  0
 18  1  1  0
  1  2  3  0
  2  3  1  0
  3  4  2  0
  3 13  1  0
  4  5  1  0
  5  6  2  0
  6  7  1  0
  6 12  1  0
  7  8  2  0
  8 14  1  0
  8  9  1  0
 14 15  1  0
 15 16  1  0
 16 17  1  0
  9 10  1  0
 10 11  2  0
 10 12  1  0
 12 13  2  0
M  END
>  <minimizedAffinity>  (485) 
-8.53549

$$$$
data/reference_output_2/data/smiles/140811.pdb
     RDKit          3D

 29 33  0  0  0  0  0  0  0  0999 V2000
   70.9233   44.4340   58.9196 C   0  0  2  0  0  0  0  0  0  0  0  0
   72.3666   44.3172   59.3582 C   0  0  2  0  0  0  0  0  0  0  0  0
   73.3059   44.3023   58.1956 C   0  0  0  0  0  0  0  0  0  0  0  0
   73.2183   43.0557   57.6730 C   0  0  0  0  0  0  0  0  0  0  0  0
   72.0848   42.4873   58.3977 C   0  0  2  0  0  0  0  0  0  0  0  0
   71.7897   41.0744   58.2829 C   0  0  0  0  0  0  0  0  0  0  0  0
   70.3377   41.0522   58.4934 N   0  0  0  0  0  0  0  0  0  0  0  0
   69.7974   42.3221   58.1578 C   0  0  0  0  0  0  0  0  0  0  0  0
   68.5689   42.5429   58.0617 O   0  0  0  0  0  0  0  0  0  0  0  0
   70.8550   43.2954   57.9489 C   0  0  1  0  0  0  0  0  0  0  0  0
   72.3557   42.9605   59.6929 O   0  0  0  0  0  0  0  0  0  0  0  0
   71.1584   46.7714   58.7802 O   0  0  0  0  0  0  0  0  0  0  0  0
   70.6155   45.7435   58.3323 C   0  0  0  0  0  0  0  0  0  0  0  0
   69.7054   45.8370   57.2627 N   0  0  0  0  0  0  0  0  0  0  0  0
   69.3193   47.0745   56.5975 C   0  0  0  0  0  0  0  0  0  0  0  0
   68.8621   46.8041   55.2003 C   0  0  0  0  0  0  0  0  0  0  0  0
   69.1159   47.7151   54.2109 C   0  0  0  0  0  0  0  0  0  0  0  0
   68.6660   47.4404   52.9199 C   0  0  0  0  0  0  0  0  0  0  0  0
   67.9785   46.2886   52.6106 C   0  0  0  0  0  0  0  0  0  0  0  0
   67.4265   45.9742   50.9725 Cl  0  0  0  0  0  0  0  0  0  0  0  0
   67.7386   45.3974   53.6125 C   0  0  0  0  0  0  0  0  0  0  0  0
   68.1712   45.6496   54.8849 C   0  0  0  0  0  0  0  0  0  0  0  0
   69.5648   39.9285   58.9666 C   0  0  0  0  0  0  0  0  0  0  0  0
   70.2968   38.6649   58.9878 C   0  0  0  0  0  0  0  0  0  0  0  0
   71.1587   38.3036   57.9469 C   0  0  0  0  0  0  0  0  0  0  0  0
   71.8547   37.1051   57.9650 C   0  0  0  0  0  0  0  0  0  0  0  0
   71.7084   36.2357   59.0240 C   0  0  0  0  0  0  0  0  0  0  0  0
   70.8857   36.5799   60.0184 N   0  0  0  0  0  0  0  0  0  0  0  0
   70.2020   37.7367   60.0198 C   0  0  0  0  0  0  0  0  0  0  0  0
 12 13  2  0
 13 14  1  0
  1 13  1  6
 14 15  1  0
 15 16  1  0
 16 17  2  0
 16 22  1  0
 17 18  1  0
 18 19  2  0
 19 20  1  0
 19 21  1  0
 21 22  2  0
  1  2  1  0
  1 10  1  0
  2  3  1  6
  2 11  1  0
  3  4  2  0
  5  4  1  0
  5  6  1  1
  5 10  1  0
  5 11  1  0
  6  7  1  0
  7 23  1  0
  7  8  1  0
 23 24  1  0
 24 25  2  0
 24 29  1  0
 25 26  1  0
 26 27  2  0
 27 28  1  0
 28 29  2  0
  8  9  2  0
 10  8  1  1
M  END
>  <minimizedAffinity>  (486) 
-8.53396

$$$$
data/200k_reference_output/data/smiles/13537.pdb
     RDKit          3D

 27 28  0  0  0  0  0  0  0  0999 V2000
   69.1793   47.8745   56.9807 S   0  0  0  0  0  0  0  0  0  0  0  0
   67.8031   47.3547   57.2840 O   0  0  0  0  0  0  0  0  0  0  0  0
   69.4878   49.0351   57.8726 O   0  0  0  0  0  0  0  0  0  0  0  0
   70.3363   46.5962   57.3184 C   0  0  0  0  0  0  0  0  0  0  0  0
   69.9612   45.3450   57.4526 C   0  0  0  0  0  0  0  0  0  0  0  0
   70.9012   44.2740   57.7324 C   0  0  0  0  0  0  0  0  0  0  0  0
   72.2060   44.4342   58.1075 C   0  0  0  0  0  0  0  0  0  0  0  0
   73.0734   43.3789   58.3665 C   0  0  0  0  0  0  0  0  0  0  0  0
   72.6058   42.0897   58.2405 C   0  0  0  0  0  0  0  0  0  0  0  0
   71.3028   41.8910   57.8663 C   0  0  0  0  0  0  0  0  0  0  0  0
   70.4507   42.9456   57.6112 C   0  0  0  0  0  0  0  0  0  0  0  0
   69.0669   42.6788   57.2133 C   0  0  0  0  0  0  0  0  0  0  0  0
   68.9934   41.4209   56.6521 F   0  0  0  0  0  0  0  0  0  0  0  0
   68.6518   43.5674   56.2143 F   0  0  0  0  0  0  0  0  0  0  0  0
   68.1872   42.6930   58.2782 F   0  0  0  0  0  0  0  0  0  0  0  0
   69.2048   48.3293   55.3181 N   0  0  0  0  0  0  0  0  0  0  0  0
   69.0855   47.8058   52.9731 C   0  0  0  0  0  0  0  0  0  0  0  0
   68.7251   47.0210   51.9054 C   0  0  0  0  0  0  0  0  0  0  0  0
   68.0502   45.8450   52.1393 C   0  0  0  0  0  0  0  0  0  0  0  0
   67.7474   45.4737   53.4284 C   0  0  0  0  0  0  0  0  0  0  0  0
   67.0730   44.2979   53.6556 F   0  0  0  0  0  0  0  0  0  0  0  0
   68.1248   46.2862   54.4801 C   0  0  0  0  0  0  0  0  0  0  0  0
   68.8012   47.4691   54.2751 C   0  0  0  0  0  0  0  0  0  0  0  0
   69.0790   50.5503   53.5169 N   0  0  0  0  0  0  0  0  0  0  0  0
   69.9405   49.2940   52.6642 S   0  0  0  0  0  0  0  0  0  0  0  0
   69.9613   49.5832   51.1898 O   0  0  0  0  0  0  0  0  0  0  0  0
   71.3029   49.2185   53.2459 O   0  0  0  0  0  0  0  0  0  0  0  0
 24 25  1  0
 25 26  2  0
 25 27  2  0
 25 17  1  0
 17 18  2  0
 17 23  1  0
 18 19  1  0
 19 20  2  0
 20 21  1  0
 20 22  1  0
 22 23  2  0
 23 16  1  0
 16  1  1  0
  1  2  2  0
  1  3  2  0
  1  4  1  0
  4  5  2  0
  5  6  1  0
  6  7  2  0
  6 11  1  0
  7  8  1  0
  8  9  2  0
  9 10  1  0
 10 11  2  0
 11 12  1  0
 12 13  1  0
 12 14  1  0
 12 15  1  0
M  END
>  <minimizedAffinity>  (487) 
-8.53325

$$$$
data/reference_output_2/data/smiles/184013.pdb
     RDKit          3D

 30 33  0  0  0  0  0  0  0  0999 V2000
   72.7390   48.2573   59.4604 C   0  0  0  0  0  0  0  0  0  0  0  0
   72.5914   49.6083   59.2645 C   0  0  0  0  0  0  0  0  0  0  0  0
   71.4957   50.0705   58.5492 C   0  0  0  0  0  0  0  0  0  0  0  0
   70.5450   49.2256   58.0248 C   0  0  0  0  0  0  0  0  0  0  0  0
   70.6991   47.8702   58.2250 C   0  0  0  0  0  0  0  0  0  0  0  0
   71.8017   47.3937   58.9452 C   0  0  0  0  0  0  0  0  0  0  0  0
   74.8591   47.0108   62.3357 N   0  0  0  0  0  0  0  0  0  0  0  0
   73.7868   47.5049   61.5886 C   0  0  0  0  0  0  0  0  0  0  0  0
   72.6998   47.7541   62.1425 O   0  0  0  0  0  0  0  0  0  0  0  0
   73.8445   47.7550   60.1834 N   0  0  0  0  0  0  0  0  0  0  0  0
   74.8160   46.7547   63.7536 C   0  0  0  0  0  0  0  0  0  0  0  0
   79.0440   49.0823   66.7933 N   0  0  0  0  0  0  0  0  0  0  0  0
   78.0099   48.5015   66.0104 C   0  0  0  0  0  0  0  0  0  0  0  0
   78.2083   48.2025   64.6767 C   0  0  0  0  0  0  0  0  0  0  0  0
   77.1722   47.6330   63.9289 C   0  0  0  0  0  0  0  0  0  0  0  0
   75.9472   47.3589   64.4886 C   0  0  0  0  0  0  0  0  0  0  0  0
   75.8067   47.6827   65.8374 C   0  0  0  0  0  0  0  0  0  0  0  0
   76.8154   48.2331   66.5497 N   0  0  0  0  0  0  0  0  0  0  0  0
   69.3703   49.7608   57.2468 C   0  0  0  0  0  0  0  0  0  0  0  0
   69.2142   48.9637   56.0180 N   0  0  0  0  0  0  0  0  0  0  0  0
   69.8398   49.2168   54.7645 C   0  0  0  0  0  0  0  0  0  0  0  0
   70.6298   50.1600   54.5043 O   0  0  0  0  0  0  0  0  0  0  0  0
   69.4123   48.1903   53.8161 C   0  0  0  0  0  0  0  0  0  0  0  0
   69.7004   47.9454   52.4754 C   0  0  0  0  0  0  0  0  0  0  0  0
   69.1642   46.8885   51.7719 C   0  0  0  0  0  0  0  0  0  0  0  0
   68.2977   46.0267   52.4229 C   0  0  0  0  0  0  0  0  0  0  0  0
   67.9980   46.2530   53.7556 C   0  0  0  0  0  0  0  0  0  0  0  0
   68.5470   47.3205   54.4465 C   0  0  0  0  0  0  0  0  0  0  0  0
   68.4189   47.8002   55.8274 C   0  0  0  0  0  0  0  0  0  0  0  0
   67.7140   47.2738   56.7251 O   0  0  0  0  0  0  0  0  0  0  0  0
 12 13  1  0
 13 14  2  0
 13 18  1  0
 14 15  1  0
 15 16  2  0
 16 11  1  0
 16 17  1  0
 11  7  1  0
  7  8  1  0
  8  9  2  0
  8 10  1  0
 10  1  1  0
  1  2  2  0
  1  6  1  0
  2  3  1  0
  3  4  2  0
  4 19  1  0
  4  5  1  0
 19 20  1  0
 20 21  1  0
 20 29  1  0
 21 22  2  0
 21 23  1  0
 23 24  1  0
 23 28  2  0
 24 25  2  0
 25 26  1  0
 26 27  2  0
 27 28  1  0
 28 29  1  0
 29 30  2  0
  5  6  2  0
 17 18  2  0
M  END
>  <minimizedAffinity>  (488) 
-8.53209

$$$$
data/200k_reference_output/data/smiles/67571.pdb
     RDKit          3D

 30 34  0  0  0  0  0  0  0  0999 V2000
   71.2296   46.5919   59.7836 O   0  0  0  0  0  0  0  0  0  0  0  0
   71.6548   47.7405   59.4156 C   0  0  0  0  0  0  0  0  0  0  0  0
   71.0432   48.3385   58.3102 N   0  0  0  0  0  0  0  0  0  0  0  0
   69.9443   47.6668   57.6105 C   0  0  0  0  0  0  0  0  0  0  0  0
   69.1170   48.7824   56.9541 C   0  0  0  0  0  0  0  0  0  0  0  0
   69.7437   49.4519   55.8583 C   0  0  0  0  0  0  0  0  0  0  0  0
   71.2172   49.6857   56.2528 C   0  0  0  0  0  0  0  0  0  0  0  0
   71.4052   49.6226   57.7504 C   0  0  0  0  0  0  0  0  0  0  0  0
   69.7618   48.9721   54.5413 N   0  0  0  0  0  0  0  0  0  0  0  0
   70.5139   49.6134   53.5980 C   0  0  0  0  0  0  0  0  0  0  0  0
   71.2467   50.6510   53.7542 O   0  0  0  0  0  0  0  0  0  0  0  0
   70.4002   49.0139   52.4334 N   0  0  0  0  0  0  0  0  0  0  0  0
   69.5735   47.9680   52.5805 C   0  0  0  0  0  0  0  0  0  0  0  0
   69.1307   47.0251   51.6609 C   0  0  0  0  0  0  0  0  0  0  0  0
   68.2724   46.0634   52.1393 C   0  0  0  0  0  0  0  0  0  0  0  0
   67.8765   46.0417   53.4589 C   0  0  0  0  0  0  0  0  0  0  0  0
   68.3404   46.9978   54.3360 C   0  0  0  0  0  0  0  0  0  0  0  0
   69.1854   47.9577   53.9000 C   0  0  0  0  0  0  0  0  0  0  0  0
   72.7499   48.3051   60.2078 C   0  0  0  0  0  0  0  0  0  0  0  0
   73.9298   48.7247   59.3533 C   0  0  0  0  0  0  0  0  0  0  0  0
   74.7543   47.5591   58.9036 C   0  0  0  0  0  0  0  0  0  0  0  0
   74.1508   46.2702   59.2378 N   0  0  0  0  0  0  0  0  0  0  0  0
   73.9211   46.1385   60.6482 C   0  0  0  0  0  0  0  0  0  0  0  0
   73.2996   47.3636   61.2572 C   0  0  0  0  0  0  0  0  0  0  0  0
   75.0892   45.2579   58.8004 C   0  0  0  0  0  0  0  0  0  0  0  0
   74.4528   44.0361   58.3051 C   0  0  0  0  0  0  0  0  0  0  0  0
   73.2041   43.9223   57.7601 C   0  0  0  0  0  0  0  0  0  0  0  0
   73.0482   42.5913   57.4455 C   0  0  0  0  0  0  0  0  0  0  0  0
   74.1480   41.9501   57.7866 O   0  0  0  0  0  0  0  0  0  0  0  0
   75.0220   42.7802   58.3087 C   0  0  0  0  0  0  0  0  0  0  0  0
  1  2  2  0
  2 19  1  0
  2  3  1  0
 19 20  1  0
 19 24  1  0
 20 21  1  0
 21 22  1  0
 22 25  1  0
 22 23  1  0
 25 26  1  0
 26 27  1  0
 26 30  2  0
 27 28  2  0
 28 29  1  0
 29 30  1  0
 23 24  1  0
  3  4  1  0
  3  8  1  0
  4  5  1  0
  5  6  1  0
  6  9  1  0
  6  7  1  0
  9 10  1  0
  9 18  1  0
 10 11  2  0
 10 12  1  0
 12 13  1  0
 13 14  1  0
 13 18  2  0
 14 15  2  0
 15 16  1  0
 16 17  2  0
 17 18  1  0
  7  8  1  0
M  CHG  1  22   1
M  END
>  <minimizedAffinity>  (489) 
-8.52930

$$$$
data/reference_output_2/data/smiles/107119.pdb
     RDKit          3D

 32 36  0  0  0  0  0  0  0  0999 V2000
   70.5766   37.0804   60.1910 C   0  0  0  0  0  0  0  0  0  0  0  0
   70.2967   38.4668   60.1807 C   0  0  0  0  0  0  0  0  0  0  0  0
   70.7668   39.2027   59.1204 C   0  0  0  0  0  0  0  0  0  0  0  0
   71.4931   38.6492   58.0783 C   0  0  0  0  0  0  0  0  0  0  0  0
   71.7567   37.2961   58.1053 C   0  0  0  0  0  0  0  0  0  0  0  0
   72.4244   36.5194   57.2427 N   0  0  0  0  0  0  0  0  0  0  0  0
   72.4368   35.2436   57.6723 C   0  0  0  0  0  0  0  0  0  0  0  0
   72.9732   34.0809   57.1742 C   0  0  0  0  0  0  0  0  0  0  0  0
   72.7922   32.9559   57.8811 N   0  0  0  0  0  0  0  0  0  0  0  0
   72.1106   32.9381   59.0474 C   0  0  0  0  0  0  0  0  0  0  0  0
   71.6022   34.0835   59.5053 N   0  0  0  0  0  0  0  0  0  0  0  0
   71.7235   35.2597   58.8809 C   0  0  0  0  0  0  0  0  0  0  0  0
   71.2952   36.5370   59.1586 C   0  0  0  0  0  0  0  0  0  0  0  0
   73.6850   34.1356   55.9410 N   0  0  0  0  0  0  0  0  0  0  0  0
   73.1075   34.1455   54.6533 C   0  0  0  0  0  0  0  0  0  0  0  0
   73.7345   35.1669   53.7495 C   0  0  0  0  0  0  0  0  0  0  0  0
   75.0866   35.4708   54.0535 N   0  0  0  0  0  0  0  0  0  0  0  0
   75.8017   34.4590   54.7532 C   0  0  0  0  0  0  0  0  0  0  0  0
   75.1393   34.1693   56.0702 C   0  0  0  0  0  0  0  0  0  0  0  0
   75.8153   36.2378   53.1190 C   0  0  0  0  0  0  0  0  0  0  0  0
   77.0529   35.6162   52.5601 C   0  0  0  0  0  0  0  0  0  0  0  0
   76.9147   35.2159   51.1262 C   0  0  0  0  0  0  0  0  0  0  0  0
   75.8782   34.3772   50.7248 C   0  0  0  0  0  0  0  0  0  0  0  0
   75.7550   34.0170   49.4042 C   0  0  0  0  0  0  0  0  0  0  0  0
   76.6733   34.5020   48.4954 C   0  0  0  0  0  0  0  0  0  0  0  0
   76.5274   34.1281   47.1862 F   0  0  0  0  0  0  0  0  0  0  0  0
   77.7040   35.3299   48.8611 C   0  0  0  0  0  0  0  0  0  0  0  0
   78.6063   35.8010   47.9394 F   0  0  0  0  0  0  0  0  0  0  0  0
   77.8064   35.6790   50.2020 C   0  0  0  0  0  0  0  0  0  0  0  0
   70.5136   36.4374   62.6546 N   0  0  0  0  0  0  0  0  0  0  0  0
   70.0678   36.3377   61.3207 C   0  0  0  0  0  0  0  0  0  0  0  0
   69.1136   35.4916   61.1317 O   0  0  0  0  0  0  0  0  0  0  0  0
 30 31  1  0
 31 32  2  0
 31  1  1  0
  1  2  2  0
  1 13  1  0
  2  3  1  0
  3  4  2  0
  4  5  1  0
  5  6  1  0
  5 13  2  0
  6  7  1  0
  7  8  1  0
  7 12  2  0
  8 14  1  0
  8  9  2  0
 14 15  1  0
 14 19  1  0
 15 16  1  0
 16 17  1  0
 17 20  1  0
 17 18  1  0
 20 21  1  0
 21 22  1  0
 22 23  2  0
 22 29  1  0
 23 24  1  0
 24 25  2  0
 25 26  1  0
 25 27  1  0
 27 28  1  0
 27 29  2  0
 18 19  1  0
  9 10  1  0
 10 11  2  0
 11 12  1  0
 12 13  1  0
M  CHG  1  17   1
M  END
>  <minimizedAffinity>  (490) 
-8.52925

$$$$
data/reference_output_2/data/smiles/120388.pdb
     RDKit          3D

 32 35  0  0  0  0  0  0  0  0999 V2000
   69.9421   39.1873   60.9061 C   0  0  1  0  0  0  0  0  0  0  0  0
   69.2692   38.9024   62.1229 C   0  0  2  0  0  0  0  0  0  0  0  0
   69.6476   40.3019   62.5222 N   0  0  0  0  0  0  0  0  0  0  0  0
   69.3682   41.5172   63.0836 C   0  0  0  0  0  0  0  0  0  0  0  0
   68.5002   41.7070   63.9512 O   0  0  0  0  0  0  0  0  0  0  0  0
   70.1511   42.7309   62.6131 C   0  0  0  0  0  0  0  0  0  0  0  0
   70.6145   42.3388   61.3074 N   0  0  0  0  0  0  0  0  0  0  0  0
   70.2034   42.8958   60.1006 C   0  0  0  0  0  0  0  0  0  0  0  0
   69.2854   43.8408   60.1395 O   0  0  0  0  0  0  0  0  0  0  0  0
   71.5246   41.1966   61.2242 C   0  0  0  0  0  0  0  0  0  0  0  0
   70.9030   39.9828   61.8814 C   0  0  2  0  0  0  0  0  0  0  0  0
   72.2110   36.7950   58.1584 C   0  0  0  0  0  0  0  0  0  0  0  0
   71.1581   36.3369   58.8816 C   0  0  0  0  0  0  0  0  0  0  0  0
   70.4841   37.0906   59.8100 C   0  0  0  0  0  0  0  0  0  0  0  0
   70.8368   38.3851   60.0800 C   0  0  0  0  0  0  0  0  0  0  0  0
   71.9432   38.9132   59.3638 C   0  0  0  0  0  0  0  0  0  0  0  0
   72.5937   38.0823   58.4169 C   0  0  0  0  0  0  0  0  0  0  0  0
   73.1887   35.3429   56.2676 C   0  0  0  0  0  0  0  0  0  0  0  0
   72.7803   35.9527   57.0669 C   0  0  0  0  0  0  0  0  0  0  0  0
   73.7679   34.5032   55.1232 C   0  0  0  0  0  0  0  0  0  0  0  0
   74.7703   35.0804   52.9445 C   0  0  0  0  0  0  0  0  0  0  0  0
   73.6491   35.4036   53.8776 C   0  0  0  0  0  0  0  0  0  0  0  0
   72.3124   35.1665   53.2021 C   0  0  0  0  0  0  0  0  0  0  0  0
   69.7094   38.0004   63.2101 C   0  0  0  0  0  0  0  0  0  0  0  0
   69.0051   38.2735   64.4213 O   0  0  0  0  0  0  0  0  0  0  0  0
   70.6509   42.5850   58.7512 C   0  0  0  0  0  0  0  0  0  0  0  0
   69.5196   42.0797   57.9359 C   0  0  0  0  0  0  0  0  0  0  0  0
   68.9132   42.9554   57.0156 C   0  0  0  0  0  0  0  0  0  0  0  0
   67.8545   42.5636   56.2228 C   0  0  0  0  0  0  0  0  0  0  0  0
   67.3353   41.2890   56.2924 C   0  0  0  0  0  0  0  0  0  0  0  0
   67.9200   40.4076   57.2046 C   0  0  0  0  0  0  0  0  0  0  0  0
   68.9788   40.8065   57.9932 C   0  0  0  0  0  0  0  0  0  0  0  0
 21 22  1  0
 22 23  1  0
 22 20  1  0
 20 18  1  0
 18 19  3  0
 19 12  1  0
 12 13  2  0
 12 17  1  0
 13 14  1  0
 14 15  2  0
  1 15  1  1
 15 16  1  0
  1  2  1  0
  1 11  1  0
  2 24  1  1
  2  3  1  0
 24 25  1  0
  3  4  1  0
  3 11  1  0
  4  5  2  0
  4  6  1  0
  6  7  1  0
  7  8  1  0
  7 10  1  0
  8  9  2  0
  8 26  1  0
 26 27  1  0
 27 28  2  0
 27 32  1  0
 28 29  1  0
 29 30  2  0
 30 31  1  0
 31 32  2  0
 11 10  1  6
 16 17  2  0
M  END
>  <minimizedAffinity>  (491) 
-8.52905

$$$$
data/200k_reference_output/data/smiles/6676.pdb
     RDKit          3D

 31 35  0  0  0  0  0  0  0  0999 V2000
   68.7735   39.5565   63.4827 N   0  0  0  0  0  0  0  0  0  0  0  0
   69.5384   38.9012   62.4477 C   0  0  0  0  0  0  0  0  0  0  0  0
   68.6445   37.7457   61.9607 C   0  0  1  0  0  0  0  0  0  0  0  0
   67.2976   38.5029   61.9849 C   0  0  2  0  0  0  0  0  0  0  0  0
   67.3933   39.2135   63.2937 C   0  0  0  0  0  0  0  0  0  0  0  0
   66.1598   37.5677   61.8845 C   0  0  0  0  0  0  0  0  0  0  0  0
   65.4581   37.1596   62.9997 C   0  0  0  0  0  0  0  0  0  0  0  0
   64.3957   36.2830   62.8874 C   0  0  0  0  0  0  0  0  0  0  0  0
   63.9889   35.7784   61.6693 C   0  0  0  0  0  0  0  0  0  0  0  0
   62.9405   34.9164   61.5773 F   0  0  0  0  0  0  0  0  0  0  0  0
   64.6902   36.1856   60.5539 C   0  0  0  0  0  0  0  0  0  0  0  0
   65.7661   37.0733   60.6603 C   0  0  0  0  0  0  0  0  0  0  0  0
   68.9650   41.2783   63.4461 S   0  0  0  0  0  0  0  0  0  0  0  0
   68.9409   41.7054   62.0065 O   0  0  0  0  0  0  0  0  0  0  0  0
   67.8389   41.9697   64.1355 O   0  0  0  0  0  0  0  0  0  0  0  0
   73.7429   43.3929   64.1096 C   0  0  0  0  0  0  0  0  0  0  0  0
   72.5260   42.6681   64.3506 N   0  0  0  0  0  0  0  0  0  0  0  0
   72.2143   42.0034   65.4699 C   0  0  0  0  0  0  0  0  0  0  0  0
   70.9964   41.4427   65.3474 N   0  0  0  0  0  0  0  0  0  0  0  0
   70.5151   41.7603   64.1107 C   0  0  0  0  0  0  0  0  0  0  0  0
   71.4919   42.5243   63.5149 C   0  0  0  0  0  0  0  0  0  0  0  0
   68.9409   37.3728   60.6289 N   0  0  0  0  0  0  0  0  0  0  0  0
   70.1822   37.7391   60.0715 C   0  0  2  0  0  0  0  0  0  0  0  0
   69.8446   38.6324   58.8431 C   0  0  0  0  0  0  0  0  0  0  0  0
   71.2612   38.7224   58.2576 C   0  0  0  0  0  0  0  0  0  0  0  0
   71.6163   37.2569   58.3079 C   0  0  0  0  0  0  0  0  0  0  0  0
   72.4296   36.5644   57.4573 C   0  0  0  0  0  0  0  0  0  0  0  0
   72.6180   35.2225   57.6831 C   0  0  0  0  0  0  0  0  0  0  0  0
   71.9956   34.6128   58.7383 C   0  0  0  0  0  0  0  0  0  0  0  0
   71.1700   35.3319   59.5936 C   0  0  0  0  0  0  0  0  0  0  0  0
   70.9615   36.6707   59.3978 C   0  0  0  0  0  0  0  0  0  0  0  0
 16 17  1  0
 17 18  1  0
 17 21  1  0
 18 19  2  0
 19 20  1  0
 20 13  1  0
 20 21  2  0
 13 14  2  0
 13 15  2  0
 13  1  1  0
  1  2  1  0
  1  5  1  0
  2  3  1  0
  3 22  1  6
  3  4  1  0
 23 22  1  6
 23 24  1  0
 23 31  1  0
 24 25  1  0
 25 26  1  0
 26 27  1  0
 26 31  2  0
 27 28  2  0
 28 29  1  0
 29 30  2  0
 30 31  1  0
  4  6  1  1
  4  5  1  0
  6  7  2  0
  6 12  1  0
  7  8  1  0
  8  9  2  0
  9 10  1  0
  9 11  1  0
 11 12  2  0
M  CHG  1  22   1
M  END
>  <minimizedAffinity>  (492) 
-8.52641

$$$$
data/reference_output_2/data/smiles/168900.pdb
     RDKit          3D

 22 23  0  0  0  0  0  0  0  0999 V2000
   68.3678   41.0016   57.2420 C   0  0  0  0  0  0  0  0  0  0  0  0
   69.2491   42.0468   57.3909 C   0  0  0  0  0  0  0  0  0  0  0  0
   69.1681   43.2286   56.8160 C   0  0  0  0  0  0  0  0  0  0  0  0
   67.9881   43.3784   55.9015 C   0  0  0  0  0  0  0  0  0  0  0  0
   67.1509   42.4131   55.7575 C   0  0  0  0  0  0  0  0  0  0  0  0
   67.2832   41.0933   56.4481 C   0  0  0  0  0  0  0  0  0  0  0  0
   70.1661   39.5465   58.4051 N   0  0  0  0  0  0  0  0  0  0  0  0
   68.8988   39.8014   57.9173 C   0  0  0  0  0  0  0  0  0  0  0  0
   68.0478   38.8300   58.1172 O   0  0  0  0  0  0  0  0  0  0  0  0
   70.2072   38.2398   59.2226 C   0  0  0  0  0  0  0  0  0  0  0  0
   72.2007   36.9568   57.9828 C   0  0  0  0  0  0  0  0  0  0  0  0
   71.2948   37.5481   58.5459 C   0  0  0  0  0  0  0  0  0  0  0  0
   68.1177   44.5891   55.2468 N   0  0  0  0  0  0  0  0  0  0  0  0
   68.3065   45.9592   55.3859 C   0  0  0  0  0  0  0  0  0  0  0  0
   68.2850   46.4728   56.5119 O   0  0  0  0  0  0  0  0  0  0  0  0
   68.5721   46.7033   54.0982 C   0  0  0  0  0  0  0  0  0  0  0  0
   68.6344   46.2804   52.8235 C   0  0  0  0  0  0  0  0  0  0  0  0
   69.1529   47.2874   51.9706 C   0  0  0  0  0  0  0  0  0  0  0  0
   69.5606   48.4515   52.0916 C   0  0  0  0  0  0  0  0  0  0  0  0
   69.4827   48.9387   53.4873 C   0  0  0  0  0  0  0  0  0  0  0  0
   70.0447   50.9112   53.8642 I   0  0  0  0  0  0  0  0  0  0  0  0
   69.0044   48.0512   54.3934 C   0  0  0  0  0  0  0  0  0  0  0  0
 11 12  3  0
 12 10  1  0
 10  7  1  0
  7  8  1  0
  8  9  2  0
  8  1  1  0
  1  2  2  0
  1  6  1  0
  2  3  1  0
  3  4  2  0
  4 13  1  0
  4  5  1  0
 13 14  1  0
 14 15  2  0
 14 16  1  0
 16 17  2  0
 16 22  1  0
 17 18  1  0
 18 19  2  0
 19 20  1  0
 20 21  1  0
 20 22  2  0
  5  6  2  0
M  END
>  <minimizedAffinity>  (493) 
-8.52548

$$$$
data/reference_output_2/data/smiles/98409.pdb
     RDKit          3D

 25 26  0  0  0  0  0  0  0  0999 V2000
   67.6625   44.3342   55.0252 N   0  0  0  0  0  0  0  0  0  0  0  0
   68.1704   43.6384   56.1492 C   0  0  0  0  0  0  0  0  0  0  0  0
   69.1497   44.1478   56.7072 O   0  0  0  0  0  0  0  0  0  0  0  0
   67.6485   42.4396   56.6553 N   0  0  0  0  0  0  0  0  0  0  0  0
   69.2500   47.9364   53.4687 C   0  0  0  0  0  0  0  0  0  0  0  0
   68.8752   46.8946   52.6475 C   0  0  0  0  0  0  0  0  0  0  0  0
   68.3572   45.7198   53.1578 C   0  0  0  0  0  0  0  0  0  0  0  0
   68.1886   45.5310   54.5251 C   0  0  0  0  0  0  0  0  0  0  0  0
   68.5708   46.5871   55.3252 C   0  0  0  0  0  0  0  0  0  0  0  0
   69.0864   47.7581   54.8262 C   0  0  0  0  0  0  0  0  0  0  0  0
   69.8794   49.4334   51.0980 N   0  0  0  0  0  0  0  0  0  0  0  0
   69.9102   49.4343   52.8192 S   0  0  0  0  0  0  0  0  0  0  0  0
   71.3344   49.5468   53.2667 O   0  0  0  0  0  0  0  0  0  0  0  0
   69.1472   50.6180   53.3810 O   0  0  0  0  0  0  0  0  0  0  0  0
   68.2161   41.8423   57.7538 N   0  0  0  0  0  0  0  0  0  0  0  0
   68.3269   40.1405   57.6620 S   0  0  0  0  0  0  0  0  0  0  0  0
   67.2728   39.5713   58.5936 O   0  0  0  0  0  0  0  0  0  0  0  0
   67.9825   39.6319   56.2856 O   0  0  0  0  0  0  0  0  0  0  0  0
   69.8646   39.5360   58.2104 C   0  0  0  0  0  0  0  0  0  0  0  0
   70.9120   40.4062   58.3754 C   0  0  0  0  0  0  0  0  0  0  0  0
   72.1635   39.9571   58.8142 C   0  0  0  0  0  0  0  0  0  0  0  0
   72.3660   38.6172   59.0904 C   0  0  0  0  0  0  0  0  0  0  0  0
   73.9384   38.0793   59.6385 Cl  0  0  0  0  0  0  0  0  0  0  0  0
   71.3101   37.7601   58.9217 C   0  0  0  0  0  0  0  0  0  0  0  0
   70.0741   38.2064   58.4871 C   0  0  0  0  0  0  0  0  0  0  0  0
 11 12  1  0
 12 13  2  0
 12 14  2  0
 12  5  1  0
  5  6  2  0
  5 10  1  0
  6  7  1  0
  7  8  2  0
  8  1  1  0
  8  9  1  0
  1  2  1  0
  2  3  2  0
  2  4  1  0
  4 15  1  0
 15 16  1  0
 16 17  2  0
 16 18  2  0
 16 19  1  0
 19 20  2  0
 19 25  1  0
 20 21  1  0
 21 22  2  0
 22 23  1  0
 22 24  1  0
 24 25  2  0
  9 10  2  0
M  END
>  <minimizedAffinity>  (494) 
-8.52498

$$$$
data/200k_reference_output/data/smiles/57736.pdb
     RDKit          3D

 29 32  0  0  0  0  0  0  0  0999 V2000
   70.7730   37.4033   59.0931 C   0  0  0  0  0  0  0  0  0  0  0  0
   70.3061   36.7327   60.1466 N   0  0  0  0  0  0  0  0  0  0  0  0
   70.7296   35.4806   60.1748 N   0  0  0  0  0  0  0  0  0  0  0  0
   71.5217   35.2882   59.0878 C   0  0  0  0  0  0  0  0  0  0  0  0
   72.2300   34.2122   58.5982 C   0  0  0  0  0  0  0  0  0  0  0  0
   72.9675   34.3237   57.4333 C   0  0  0  0  0  0  0  0  0  0  0  0
   73.0285   35.5217   56.7067 C   0  0  0  0  0  0  0  0  0  0  0  0
   72.3168   36.5473   57.2291 C   0  0  0  0  0  0  0  0  0  0  0  0
   71.5589   36.4805   58.4009 C   0  0  0  0  0  0  0  0  0  0  0  0
   69.3898   40.6240   57.6883 C   0  0  0  0  0  0  0  0  0  0  0  0
   70.4317   41.4936   57.9218 C   0  0  0  0  0  0  0  0  0  0  0  0
   71.5660   40.9825   58.5449 C   0  0  0  0  0  0  0  0  0  0  0  0
   71.6321   39.6592   58.9095 C   0  0  0  0  0  0  0  0  0  0  0  0
   70.5873   38.7730   58.6798 C   0  0  0  0  0  0  0  0  0  0  0  0
   69.4724   39.2835   58.0645 C   0  0  0  0  0  0  0  0  0  0  0  0
   68.2203   42.8558   56.3301 N   0  0  0  0  0  0  0  0  0  0  0  0
   67.9560   41.2242   56.8914 S   0  0  0  0  0  0  0  0  0  0  0  0
   66.7707   41.2700   57.8145 O   0  0  0  0  0  0  0  0  0  0  0  0
   67.6103   40.3826   55.7134 O   0  0  0  0  0  0  0  0  0  0  0  0
   73.8191   35.5158   55.5413 N   0  0  0  0  0  0  0  0  0  0  0  0
   73.3452   35.4761   54.2090 C   0  0  0  0  0  0  0  0  0  0  0  0
   72.1131   35.4330   54.0121 O   0  0  0  0  0  0  0  0  0  0  0  0
   74.2866   35.4820   53.0385 C   0  0  0  0  0  0  0  0  0  0  0  0
   75.6622   35.1497   53.4458 C   0  0  0  0  0  0  0  0  0  0  0  0
   76.6325   36.1451   53.4601 C   0  0  0  0  0  0  0  0  0  0  0  0
   77.9217   35.8379   53.8508 C   0  0  0  0  0  0  0  0  0  0  0  0
   78.1813   34.5114   54.2184 C   0  0  0  0  0  0  0  0  0  0  0  0
   77.2313   33.5315   54.2052 C   0  0  0  0  0  0  0  0  0  0  0  0
   75.9989   33.8807   53.8192 N   0  0  0  0  0  0  0  0  0  0  0  0
 16 17  1  0
 17 18  2  0
 17 19  2  0
 17 10  1  0
 10 11  2  0
 10 15  1  0
 11 12  1  0
 12 13  2  0
 13 14  1  0
 14  1  1  0
 14 15  2  0
  1  2  2  0
  1  9  1  0
  2  3  1  0
  3  4  1  0
  4  5  1  0
  4  9  2  0
  5  6  2  0
  6  7  1  0
  7 20  1  0
  7  8  2  0
 20 21  1  0
 21 22  2  0
 21 23  1  0
 23 24  1  0
 24 25  2  0
 24 29  1  0
 25 26  1  0
 26 27  2  0
 27 28  1  0
 28 29  2  0
  8  9  1  0
M  END
>  <minimizedAffinity>  (495) 
-8.52473

$$$$
data/reference_output_2/data/smiles/126904.pdb
     RDKit          3D

 32 36  0  0  0  0  0  0  0  0999 V2000
   70.4066   47.2219   57.8841 C   0  0  0  0  0  0  0  0  0  0  0  0
   69.9580   47.4829   56.6317 N   0  0  0  0  0  0  0  0  0  0  0  0
   69.9922   48.7352   56.1480 C   0  0  0  0  0  0  0  0  0  0  0  0
   70.4735   49.8081   56.8698 C   0  0  0  0  0  0  0  0  0  0  0  0
   70.9331   49.5236   58.1628 C   0  0  0  0  0  0  0  0  0  0  0  0
   71.3839   50.4218   58.8965 O   0  0  0  0  0  0  0  0  0  0  0  0
   70.8729   48.2576   58.5911 N   0  0  0  0  0  0  0  0  0  0  0  0
   70.5878   51.1598   56.3420 C   0  0  2  0  0  0  0  0  0  0  0  0
   70.1080   52.2641   57.2327 C   0  0  0  0  0  0  0  0  0  0  0  0
   69.2919   53.1682   56.3469 C   0  0  0  0  0  0  0  0  0  0  0  0
   69.7518   52.8090   54.9517 C   0  0  0  0  0  0  0  0  0  0  0  0
   69.8518   51.3418   55.1170 N   0  0  0  0  0  0  0  0  0  0  0  0
   69.3792   50.2532   54.3703 C   0  0  0  0  0  0  0  0  0  0  0  0
   68.8914   50.4565   53.2252 O   0  0  0  0  0  0  0  0  0  0  0  0
   69.4209   48.9215   54.8416 N   0  0  0  0  0  0  0  0  0  0  0  0
   68.9362   47.8316   54.0908 C   0  0  0  0  0  0  0  0  0  0  0  0
   69.3144   47.6497   52.7786 C   0  0  0  0  0  0  0  0  0  0  0  0
   68.8578   46.5964   52.0259 C   0  0  0  0  0  0  0  0  0  0  0  0
   67.9943   45.6655   52.5533 C   0  0  0  0  0  0  0  0  0  0  0  0
   67.6084   45.8358   53.8623 C   0  0  0  0  0  0  0  0  0  0  0  0
   68.0617   46.8898   54.6262 C   0  0  0  0  0  0  0  0  0  0  0  0
   70.9715   45.5859   59.4804 O   0  0  0  0  0  0  0  0  0  0  0  0
   70.3632   45.8453   58.3998 C   0  0  0  0  0  0  0  0  0  0  0  0
   69.6949   44.7876   57.7830 N   0  0  0  0  0  0  0  0  0  0  0  0
   69.6876   43.4712   58.3300 N   0  0  0  0  0  0  0  0  0  0  0  0
   69.3661   42.5350   57.4712 C   0  0  0  0  0  0  0  0  0  0  0  0
   69.3108   41.1347   57.8637 C   0  0  0  0  0  0  0  0  0  0  0  0
   68.1616   40.4112   57.6865 C   0  0  0  0  0  0  0  0  0  0  0  0
   68.1679   39.0878   58.0765 C   0  0  0  0  0  0  0  0  0  0  0  0
   69.2675   38.4718   58.6305 C   0  0  0  0  0  0  0  0  0  0  0  0
   70.4236   39.2079   58.8063 C   0  0  0  0  0  0  0  0  0  0  0  0
   70.4203   40.5371   58.4148 C   0  0  0  0  0  0  0  0  0  0  0  0
 22 23  2  0
 23 24  1  0
 23  1  1  0
 24 25  1  0
 25 26  2  0
 26 27  1  0
 27 28  2  0
 27 32  1  0
 28 29  1  0
 29 30  2  0
 30 31  1  0
 31 32  2  0
  1  2  2  0
  1  7  1  0
  2  3  1  0
  3  4  2  0
  3 15  1  0
  4  5  1  0
  4  8  1  0
  5  6  2  0
  5  7  1  0
  8  9  1  1
  8 12  1  0
  9 10  1  0
 10 11  1  0
 11 12  1  0
 12 13  1  0
 13 14  2  0
 13 15  1  0
 15 16  1  0
 16 17  2  0
 16 21  1  0
 17 18  1  0
 18 19  2  0
 19 20  1  0
 20 21  2  0
M  END
>  <minimizedAffinity>  (496) 
-8.52382

$$$$
data/reference_output_2/data/smiles/150910.pdb
     RDKit          3D

 29 32  0  0  0  0  0  0  0  0999 V2000
   70.1640   38.0656   59.2329 C   0  0  0  0  0  0  0  0  0  0  0  0
   69.4284   37.5944   60.2384 N   0  0  0  0  0  0  0  0  0  0  0  0
   69.7808   36.3255   60.5012 N   0  0  0  0  0  0  0  0  0  0  0  0
   70.7531   35.9372   59.6775 C   0  0  0  0  0  0  0  0  0  0  0  0
   71.4649   34.7839   59.5090 C   0  0  0  0  0  0  0  0  0  0  0  0
   72.4410   34.6968   58.5339 C   0  0  0  0  0  0  0  0  0  0  0  0
   72.7114   35.7920   57.7060 C   0  0  0  0  0  0  0  0  0  0  0  0
   71.9930   36.9340   57.8862 C   0  0  0  0  0  0  0  0  0  0  0  0
   71.0017   37.0515   58.8612 C   0  0  0  0  0  0  0  0  0  0  0  0
   68.9590   41.0972   57.3669 C   0  0  0  0  0  0  0  0  0  0  0  0
   70.0333   41.9452   57.5072 C   0  0  0  0  0  0  0  0  0  0  0  0
   71.1474   41.5308   58.2050 C   0  0  0  0  0  0  0  0  0  0  0  0
   71.1856   40.2738   58.7581 C   0  0  0  0  0  0  0  0  0  0  0  0
   70.1140   39.3858   58.6351 C   0  0  0  0  0  0  0  0  0  0  0  0
   69.0219   39.8435   57.9307 C   0  0  0  0  0  0  0  0  0  0  0  0
   67.7568   43.1911   55.9087 N   0  0  0  0  0  0  0  0  0  0  0  0
   67.5098   41.5682   56.4893 S   0  0  0  0  0  0  0  0  0  0  0  0
   66.3892   41.5904   57.4777 O   0  0  0  0  0  0  0  0  0  0  0  0
   67.2881   40.6366   55.3548 O   0  0  0  0  0  0  0  0  0  0  0  0
   73.7453   35.6737   56.6619 C   0  0  0  0  0  0  0  0  0  0  0  0
   73.2661   35.4329   55.3409 N   0  0  0  0  0  0  0  0  0  0  0  0
   74.1514   35.2056   54.2693 C   0  0  0  0  0  0  0  0  0  0  0  0
   75.4175   35.2090   54.4326 O   0  0  0  0  0  0  0  0  0  0  0  0
   73.6619   34.9573   52.9302 C   0  0  0  0  0  0  0  0  0  0  0  0
   74.4071   34.2711   52.0038 C   0  0  0  0  0  0  0  0  0  0  0  0
   73.8877   34.0525   50.7241 C   0  0  0  0  0  0  0  0  0  0  0  0
   72.6391   34.5105   50.3637 C   0  0  0  0  0  0  0  0  0  0  0  0
   71.9252   35.1891   51.3123 C   0  0  0  0  0  0  0  0  0  0  0  0
   72.4181   35.4124   52.5681 C   0  0  0  0  0  0  0  0  0  0  0  0
 16 17  1  0
 17 18  2  0
 17 19  2  0
 17 10  1  0
 10 11  2  0
 10 15  1  0
 11 12  1  0
 12 13  2  0
 13 14  1  0
 14  1  1  0
 14 15  2  0
  1  2  2  0
  1  9  1  0
  2  3  1  0
  3  4  1  0
  4  5  1  0
  4  9  2  0
  5  6  2  0
  6  7  1  0
  7 20  1  0
  7  8  2  0
 20 21  1  0
 21 22  1  0
 22 23  2  0
 22 24  1  0
 24 25  2  0
 24 29  1  0
 25 26  1  0
 26 27  2  0
 27 28  1  0
 28 29  2  0
  8  9  1  0
M  END
>  <minimizedAffinity>  (497) 
-8.52336

$$$$
data/200k_reference_output/data/smiles/59935.pdb
     RDKit          3D

 29 32  0  0  0  0  0  0  0  0999 V2000
   70.7024   45.8043   58.5382 C   0  0  0  0  0  0  0  0  0  0  0  0
   71.5556   46.6326   59.2874 C   0  0  0  0  0  0  0  0  0  0  0  0
   71.3420   48.2308   58.5164 S   0  0  0  0  0  0  0  0  0  0  0  0
   70.1663   47.7093   57.2847 C   0  0  0  0  0  0  0  0  0  0  0  0
   70.0286   46.3765   57.5514 C   0  0  0  0  0  0  0  0  0  0  0  0
   74.4240   42.7429   60.8053 C   0  0  0  0  0  0  0  0  0  0  0  0
   75.1833   43.6976   61.1280 O   0  0  0  0  0  0  0  0  0  0  0  0
   73.8299   42.6354   59.5282 N   0  0  0  0  0  0  0  0  0  0  0  0
   74.0651   43.6277   58.4995 C   0  0  0  0  0  0  0  0  0  0  0  0
   72.7991   43.9321   57.7260 C   0  0  0  0  0  0  0  0  0  0  0  0
   71.6596   43.4668   58.4960 N   0  0  0  0  0  0  0  0  0  0  0  0
   70.6225   44.3325   58.9103 C   0  0  0  0  0  0  0  0  0  0  0  0
   69.6373   43.9613   59.5684 O   0  0  0  0  0  0  0  0  0  0  0  0
   71.6203   42.0707   58.8295 C   0  0  0  0  0  0  0  0  0  0  0  0
   72.9714   41.5169   59.2337 C   0  0  0  0  0  0  0  0  0  0  0  0
   73.5051   42.2849   63.0429 C   0  0  0  0  0  0  0  0  0  0  0  0
   74.1259   41.6691   61.8047 C   0  0  0  0  0  0  0  0  0  0  0  0
   69.6034   48.5352   56.2699 C   0  0  0  0  0  0  0  0  0  0  0  0
   69.7333   48.4075   54.8453 C   0  0  0  0  0  0  0  0  0  0  0  0
   70.6705   49.2573   54.2581 N   0  0  0  0  0  0  0  0  0  0  0  0
   70.9268   49.2998   52.9942 N   0  0  0  0  0  0  0  0  0  0  0  0
   70.3145   48.5230   52.0888 C   0  0  0  0  0  0  0  0  0  0  0  0
   70.6095   48.6152   50.8824 O   0  0  0  0  0  0  0  0  0  0  0  0
   69.3741   47.6553   52.5977 C   0  0  0  0  0  0  0  0  0  0  0  0
   68.7115   46.8280   51.7079 C   0  0  0  0  0  0  0  0  0  0  0  0
   67.7659   45.9459   52.1691 C   0  0  0  0  0  0  0  0  0  0  0  0
   67.4738   45.8796   53.5131 C   0  0  0  0  0  0  0  0  0  0  0  0
   68.1302   46.7051   54.4311 C   0  0  0  0  0  0  0  0  0  0  0  0
   69.0734   47.5863   53.9758 C   0  0  0  0  0  0  0  0  0  0  0  0
 16 17  1  0
 17  6  1  0
  6  7  2  0
  6  8  1  0
  8  9  1  0
  8 15  1  0
  9 10  1  0
 10 11  1  0
 11 12  1  0
 11 14  1  0
 12 13  2  0
 12  1  1  0
  1  2  2  0
  1  5  1  0
  2  3  1  0
  3  4  1  0
  4 18  1  0
  4  5  2  0
 18 19  1  0
 19 20  2  0
 19 29  1  0
 20 21  1  0
 21 22  1  0
 22 23  2  0
 22 24  1  0
 24 25  1  0
 24 29  2  0
 25 26  2  0
 26 27  1  0
 27 28  2  0
 28 29  1  0
 14 15  1  0
M  END
>  <minimizedAffinity>  (498) 
-8.52229

$$$$
data/reference_output_2/data/smiles/119871.pdb
     RDKit          3D

 28 29  0  0  0  0  0  0  0  0999 V2000
   68.2967   45.4887   55.0528 C   0  0  0  0  0  0  0  0  0  0  0  0
   68.7812   46.5166   55.8661 C   0  0  0  0  0  0  0  0  0  0  0  0
   69.2852   47.6716   55.3393 C   0  0  0  0  0  0  0  0  0  0  0  0
   69.3571   47.9172   53.9554 C   0  0  0  0  0  0  0  0  0  0  0  0
   68.8891   46.9203   53.1539 C   0  0  0  0  0  0  0  0  0  0  0  0
   68.3699   45.7322   53.7179 C   0  0  0  0  0  0  0  0  0  0  0  0
   68.4893   43.3906   56.4501 C   0  0  0  0  0  0  0  0  0  0  0  0
   69.7112   43.5458   56.6530 O   0  0  0  0  0  0  0  0  0  0  0  0
   67.7874   44.3198   55.6817 N   0  0  0  0  0  0  0  0  0  0  0  0
   67.7367   41.0228   56.1516 C   0  0  0  0  0  0  0  0  0  0  0  0
   67.8668   42.1902   57.0685 C   0  0  2  0  0  0  0  0  0  0  0  0
   66.6152   42.4945   57.6184 O   0  0  0  0  0  0  0  0  0  0  0  0
   68.8014   41.7777   58.2152 C   0  0  0  0  0  0  0  0  0  0  0  0
   69.9511   41.2215   57.7247 F   0  0  0  0  0  0  0  0  0  0  0  0
   68.1436   40.8409   58.9710 F   0  0  0  0  0  0  0  0  0  0  0  0
   69.0521   42.8616   59.0378 F   0  0  0  0  0  0  0  0  0  0  0  0
   69.9635   49.4713   53.4148 S   0  0  0  0  0  0  0  0  0  0  0  0
   71.4313   49.3304   53.0494 O   0  0  0  0  0  0  0  0  0  0  0  0
   69.2365   49.8444   52.1467 O   0  0  0  0  0  0  0  0  0  0  0  0
   69.8818   50.7252   54.5995 C   0  0  0  0  0  0  0  0  0  0  0  0
   68.7167   51.5027   54.6427 C   0  0  0  0  0  0  0  0  0  0  0  0
   68.5256   52.4958   55.5739 C   0  0  0  0  0  0  0  0  0  0  0  0
   69.5048   52.7489   56.5080 C   0  0  0  0  0  0  0  0  0  0  0  0
   70.6613   52.0125   56.5042 C   0  0  0  0  0  0  0  0  0  0  0  0
   70.8235   51.0086   55.5405 C   0  0  0  0  0  0  0  0  0  0  0  0
   68.9603   47.0170   51.7093 C   0  0  0  0  0  0  0  0  0  0  0  0
   67.9894   46.9358   50.9610 O   0  0  0  0  0  0  0  0  0  0  0  0
   70.2024   47.2135   51.1259 O   0  0  0  0  0  0  0  0  0  0  0  0
 11 10  1  6
 11 12  1  0
 11  7  1  0
 11 13  1  0
  7  8  2  0
  7  9  1  0
  9  1  1  0
  1  2  2  0
  1  6  1  0
  2  3  1  0
  3  4  2  0
  4 17  1  0
  4  5  1  0
 17 18  2  0
 17 19  2  0
 17 20  1  0
 20 21  2  0
 20 25  1  0
 21 22  1  0
 22 23  2  0
 23 24  1  0
 24 25  2  0
  5 26  1  0
  5  6  2  0
 26 27  2  0
 26 28  1  0
 13 14  1  0
 13 15  1  0
 13 16  1  0
M  END
>  <minimizedAffinity>  (499) 
-8.52177

$$$$
data/reference_output_2/data/smiles/139089.pdb
     RDKit          3D

 28 30  0  0  0  0  0  0  0  0999 V2000
   73.0440   51.9807   54.7542 C   0  0  0  0  0  0  0  0  0  0  0  0
   70.7575   51.6454   53.1932 O   0  0  0  0  0  0  0  0  0  0  0  0
   71.0685   50.6775   53.9342 C   0  0  0  0  0  0  0  0  0  0  0  0
   72.2183   50.8182   54.7317 N   0  0  0  0  0  0  0  0  0  0  0  0
   70.2636   49.4721   53.9569 C   0  0  0  0  0  0  0  0  0  0  0  0
   69.8938   48.9159   55.1914 C   0  0  0  0  0  0  0  0  0  0  0  0
   69.1376   47.7688   55.2855 C   0  0  0  0  0  0  0  0  0  0  0  0
   68.7028   47.1040   54.1594 C   0  0  0  0  0  0  0  0  0  0  0  0
   67.9438   45.9521   54.2252 C   0  0  0  0  0  0  0  0  0  0  0  0
   67.5138   45.2935   53.1339 N   0  0  0  0  0  0  0  0  0  0  0  0
   67.8583   45.8115   51.9177 C   0  0  0  0  0  0  0  0  0  0  0  0
   68.6141   46.9598   51.8278 C   0  0  0  0  0  0  0  0  0  0  0  0
   69.0562   47.6375   52.9384 C   0  0  0  0  0  0  0  0  0  0  0  0
   69.8220   48.7979   52.8460 C   0  0  0  0  0  0  0  0  0  0  0  0
   72.5465   53.0830   55.6053 C   0  0  0  0  0  0  0  0  0  0  0  0
   72.1025   52.6949   57.2451 S   0  0  0  0  0  0  0  0  0  0  0  0
   72.1337   53.9700   58.0832 O   0  0  0  0  0  0  0  0  0  0  0  0
   73.2185   51.8443   57.8242 O   0  0  0  0  0  0  0  0  0  0  0  0
   70.5689   51.9329   57.4508 C   0  0  0  0  0  0  0  0  0  0  0  0
   69.4362   52.3898   56.7695 C   0  0  0  0  0  0  0  0  0  0  0  0
   68.1995   51.8033   56.8966 C   0  0  0  0  0  0  0  0  0  0  0  0
   68.0914   50.7179   57.7383 C   0  0  0  0  0  0  0  0  0  0  0  0
   69.2134   50.2659   58.4131 C   0  0  0  0  0  0  0  0  0  0  0  0
   70.4008   50.8736   58.2551 N   0  0  0  0  0  0  0  0  0  0  0  0
   66.7812   50.0443   57.9074 C   0  0  0  0  0  0  0  0  0  0  0  0
   66.4610   49.8315   59.2265 F   0  0  0  0  0  0  0  0  0  0  0  0
   65.7495   50.8485   57.3978 F   0  0  0  0  0  0  0  0  0  0  0  0
   66.7510   48.8372   57.2548 F   0  0  0  0  0  0  0  0  0  0  0  0
  2  3  2  0
  3  4  1  0
  3  5  1  0
  4  1  1  0
  1 15  1  0
 15 16  1  0
 16 17  2  0
 16 18  2  0
 16 19  1  0
 19 20  2  0
 19 24  1  0
 20 21  1  0
 21 22  2  0
 22 25  1  0
 22 23  1  0
 25 26  1  0
 25 27  1  0
 25 28  1  0
 23 24  2  0
  5  6  2  0
  5 14  1  0
  6  7  1  0
  7  8  2  0
  8  9  1  0
  8 13  1  0
  9 10  2  0
 10 11  1  0
 11 12  2  0
 12 13  1  0
 13 14  2  0
M  END
>  <minimizedAffinity>  (500) 
-8.52027

$$$$
data/reference_output_2/data/smiles/177867.pdb
     RDKit          3D

 29 32  0  0  0  0  0  0  0  0999 V2000
   69.6539   45.5373   57.6908 O   0  0  0  0  0  0  0  0  0  0  0  0
   70.2909   46.5207   58.1082 C   0  0  0  0  0  0  0  0  0  0  0  0
   71.4532   46.3445   59.0191 C   0  0  0  0  0  0  0  0  0  0  0  0
   71.8063   47.5046   59.7282 N   0  0  0  0  0  0  0  0  0  0  0  0
   71.3681   48.7566   59.2975 C   0  0  0  0  0  0  0  0  0  0  0  0
   70.8488   48.8857   57.9108 C   0  0  0  0  0  0  0  0  0  0  0  0
   69.8780   47.8297   57.6905 N   0  0  0  0  0  0  0  0  0  0  0  0
   73.2340   47.4305   60.6241 S   0  0  0  0  0  0  0  0  0  0  0  0
   72.9571   47.8310   62.0460 O   0  0  0  0  0  0  0  0  0  0  0  0
   73.8004   46.0387   60.5737 O   0  0  0  0  0  0  0  0  0  0  0  0
   74.4081   48.5180   59.9179 C   0  0  0  0  0  0  0  0  0  0  0  0
   75.3003   48.1577   59.0194 C   0  0  0  0  0  0  0  0  0  0  0  0
   76.2880   49.0297   58.4117 C   0  0  0  0  0  0  0  0  0  0  0  0
   77.0755   49.8972   59.1175 C   0  0  0  0  0  0  0  0  0  0  0  0
   77.9891   50.6866   58.4343 C   0  0  0  0  0  0  0  0  0  0  0  0
   78.1592   50.6540   57.0670 C   0  0  0  0  0  0  0  0  0  0  0  0
   79.3359   51.6789   56.2507 Cl  0  0  0  0  0  0  0  0  0  0  0  0
   77.3603   49.7762   56.3682 C   0  0  0  0  0  0  0  0  0  0  0  0
   76.4486   48.9862   57.0309 C   0  0  0  0  0  0  0  0  0  0  0  0
   68.5799   48.0085   57.1042 C   0  0  0  0  0  0  0  0  0  0  0  0
   68.5843   47.6839   55.6397 C   0  0  0  0  0  0  0  0  0  0  0  0
   69.3131   48.2587   54.6312 C   0  0  0  0  0  0  0  0  0  0  0  0
   69.0081   47.6537   53.4324 C   0  0  0  0  0  0  0  0  0  0  0  0
   69.4146   47.8074   52.1202 C   0  0  0  0  0  0  0  0  0  0  0  0
   68.8932   47.0200   51.1714 N   0  0  0  0  0  0  0  0  0  0  0  0
   67.9757   46.0750   51.4558 C   0  0  0  0  0  0  0  0  0  0  0  0
   67.5249   45.8668   52.7420 C   0  0  0  0  0  0  0  0  0  0  0  0
   68.0654   46.6838   53.7308 C   0  0  0  0  0  0  0  0  0  0  0  0
   67.8382   46.7305   55.0508 N   0  0  0  0  0  0  0  0  0  0  0  0
  1  2  2  0
  2  3  1  0
  2  7  1  0
  3  4  1  0
  4  8  1  0
  4  5  1  0
  8  9  2  0
  8 10  2  0
  8 11  1  0
 11 12  2  0
 12 13  1  0
 13 14  2  0
 13 19  1  0
 14 15  1  0
 15 16  2  0
 16 17  1  0
 16 18  1  0
 18 19  2  0
  5  6  1  0
  6  7  1  0
  7 20  1  0
 20 21  1  0
 21 22  2  0
 21 29  1  0
 22 23  1  0
 23 24  2  0
 23 28  1  0
 24 25  1  0
 25 26  2  0
 26 27  1  0
 27 28  2  0
 28 29  1  0
M  END
>  <minimizedAffinity>  (501) 
-8.51962

$$$$
data/reference_output_2/data/smiles/94189.pdb
     RDKit          3D

 31 34  0  0  0  0  0  0  0  0999 V2000
   67.0925   37.1677   59.8663 O   0  0  0  0  0  0  0  0  0  0  0  0
   67.1108   38.3750   59.5437 C   0  0  0  0  0  0  0  0  0  0  0  0
   68.1049   38.9036   58.8057 N   0  0  0  0  0  0  0  0  0  0  0  0
   68.1382   40.2128   58.4485 C   0  0  0  0  0  0  0  0  0  0  0  0
   69.1150   40.7216   57.7258 C   0  0  0  0  0  0  0  0  0  0  0  0
   67.1016   41.0274   58.8642 C   0  0  0  0  0  0  0  0  0  0  0  0
   67.1229   42.2422   58.5374 O   0  0  0  0  0  0  0  0  0  0  0  0
   66.1106   40.4928   59.6020 N   0  0  0  0  0  0  0  0  0  0  0  0
   66.0766   39.1893   59.9590 C   0  0  0  0  0  0  0  0  0  0  0  0
   65.0927   38.6803   60.6853 C   0  0  0  0  0  0  0  0  0  0  0  0
   65.0452   37.2717   61.0774 C   0  0  0  0  0  0  0  0  0  0  0  0
   65.4867   36.9419   62.3500 C   0  0  0  0  0  0  0  0  0  0  0  0
   65.4803   35.6488   62.8057 C   0  0  0  0  0  0  0  0  0  0  0  0
   65.0153   34.6545   61.9600 C   0  0  0  0  0  0  0  0  0  0  0  0
   64.9808   32.9985   62.4759 Cl  0  0  0  0  0  0  0  0  0  0  0  0
   64.5752   34.9827   60.6915 C   0  0  0  0  0  0  0  0  0  0  0  0
   64.5892   36.2826   60.2523 C   0  0  0  0  0  0  0  0  0  0  0  0
   69.1615   42.1336   57.3340 C   0  0  0  0  0  0  0  0  0  0  0  0
   70.0340   42.9589   58.0005 C   0  0  0  0  0  0  0  0  0  0  0  0
   70.1374   44.2972   57.6920 C   0  0  0  0  0  0  0  0  0  0  0  0
   69.3655   44.8576   56.7002 C   0  0  0  0  0  0  0  0  0  0  0  0
   68.4900   43.9398   56.0589 C   0  0  0  0  0  0  0  0  0  0  0  0
   68.4130   42.6540   56.3777 N   0  0  0  0  0  0  0  0  0  0  0  0
   69.3717   46.1418   56.3087 O   0  0  0  0  0  0  0  0  0  0  0  0
   68.5552   46.9841   55.6350 C   0  0  0  0  0  0  0  0  0  0  0  0
   68.5335   46.9206   54.1616 C   0  0  0  0  0  0  0  0  0  0  0  0
   67.7406   46.0468   53.4996 C   0  0  0  0  0  0  0  0  0  0  0  0
   67.7705   46.0210   52.1097 C   0  0  0  0  0  0  0  0  0  0  0  0
   68.6046   46.8845   51.4286 C   0  0  0  0  0  0  0  0  0  0  0  0
   69.4028   47.7657   52.1023 C   0  0  0  0  0  0  0  0  0  0  0  0
   69.3711   47.7876   53.4716 C   0  0  0  0  0  0  0  0  0  0  0  0
  1  2  2  0
  2  3  1  0
  2  9  1  0
  3  4  1  0
  4  5  2  0
  4  6  1  0
  5 18  1  0
 18 19  2  0
 18 23  1  0
 19 20  1  0
 20 21  2  0
 21 24  1  0
 21 22  1  0
 24 25  1  0
 25 26  1  0
 26 27  2  0
 26 31  1  0
 27 28  1  0
 28 29  2  0
 29 30  1  0
 30 31  2  0
 22 23  2  0
  6  7  2  0
  6  8  1  0
  8  9  1  0
  9 10  2  0
 10 11  1  0
 11 12  2  0
 11 17  1  0
 12 13  1  0
 13 14  2  0
 14 15  1  0
 14 16  1  0
 16 17  2  0
M  END
>  <minimizedAffinity>  (502) 
-8.51947

$$$$
data/reference_output_2/data/smiles/182323.pdb
     RDKit          3D

 29 31  0  0  0  0  0  0  0  0999 V2000
   73.0329   49.4908   57.2801 C   0  0  1  0  0  0  0  0  0  0  0  0
   72.5962   48.2504   57.9754 C   0  0  0  0  0  0  0  0  0  0  0  0
   71.3794   48.5228   58.8851 C   0  0  0  0  0  0  0  0  0  0  0  0
   70.2964   48.8952   57.8978 C   0  0  1  0  0  0  0  0  0  0  0  0
   70.6311   50.3118   57.4588 C   0  0  0  0  0  0  0  0  0  0  0  0
   72.0258   50.5442   57.0496 C   0  0  0  0  0  0  0  0  0  0  0  0
   74.2223   51.4058   58.2397 N   0  0  0  0  0  0  0  0  0  0  0  0
   74.3112   50.0033   57.9251 C   0  0  2  0  0  0  0  0  0  0  0  0
   75.4462   49.8035   57.0001 C   0  0  0  0  0  0  0  0  0  0  0  0
   75.1863   49.5271   55.7775 O   0  0  0  0  0  0  0  0  0  0  0  0
   76.8298   49.8998   57.3725 N   0  0  0  0  0  0  0  0  0  0  0  0
   77.9315   49.6791   56.4624 C   0  0  0  0  0  0  0  0  0  0  0  0
   79.0304   50.5254   56.9955 C   0  0  1  0  0  0  0  0  0  0  0  0
   79.1497   51.6583   56.2241 F   0  0  0  0  0  0  0  0  0  0  0  0
   78.6852   50.8713   58.4125 C   0  0  2  0  0  0  0  0  0  0  0  0
   79.6376   50.3668   59.3050 F   0  0  0  0  0  0  0  0  0  0  0  0
   77.3589   50.2218   58.6615 C   0  0  0  0  0  0  0  0  0  0  0  0
   70.3840   47.9553   56.8161 N   0  0  0  0  0  0  0  0  0  0  0  0
   68.9482   47.0088   56.6188 S   0  0  0  0  0  0  0  0  0  0  0  0
   69.2575   45.6321   57.2003 O   0  0  0  0  0  0  0  0  0  0  0  0
   67.7826   47.5404   57.3529 O   0  0  0  0  0  0  0  0  0  0  0  0
   68.6966   46.8464   54.9019 C   0  0  0  0  0  0  0  0  0  0  0  0
   68.0485   45.7741   54.3583 C   0  0  0  0  0  0  0  0  0  0  0  0
   67.8568   45.6529   52.9868 C   0  0  0  0  0  0  0  0  0  0  0  0
   68.3370   46.6431   52.1676 C   0  0  0  0  0  0  0  0  0  0  0  0
   68.1494   46.5230   50.8290 F   0  0  0  0  0  0  0  0  0  0  0  0
   69.0007   47.7493   52.6782 C   0  0  0  0  0  0  0  0  0  0  0  0
   69.1698   47.8331   54.0460 C   0  0  0  0  0  0  0  0  0  0  0  0
   69.8163   48.9208   54.5255 F   0  0  0  0  0  0  0  0  0  0  0  0
  8  7  1  6
  8  9  1  0
  8  1  1  0
  9 10  2  0
  9 11  1  0
 11 12  1  0
 11 17  1  0
 12 13  1  0
 13 14  1  6
 13 15  1  0
 15 16  1  1
 15 17  1  0
  1  2  1  1
  1  6  1  0
  2  3  1  0
  3  4  1  0
  4 18  1  6
  4  5  1  0
 18 19  1  0
 19 20  2  0
 19 21  2  0
 19 22  1  0
 22 23  2  0
 22 28  1  0
 23 24  1  0
 24 25  2  0
 25 26  1  0
 25 27  1  0
 27 28  2  0
 28 29  1  0
  5  6  1  0
M  CHG  1   7   1
M  END
>  <minimizedAffinity>  (503) 
-8.51834

$$$$
data/reference_output_2/data/smiles/175338.pdb
     RDKit          3D

 32 35  0  0  0  0  0  0  0  0999 V2000
   70.0830   45.4243   58.6230 N   0  0  0  0  0  0  0  0  0  0  0  0
   70.5045   44.4073   57.7080 C   0  0  1  0  0  0  0  0  0  0  0  0
   71.8988   43.9510   58.1879 C   0  0  0  0  0  0  0  0  0  0  0  0
   72.3029   42.6972   57.4902 C   0  0  0  0  0  0  0  0  0  0  0  0
   72.1665   41.4602   58.3217 C   0  0  0  0  0  0  0  0  0  0  0  0
   70.8016   41.3396   58.9682 C   0  0  0  0  0  0  0  0  0  0  0  0
   69.7662   41.8612   58.1078 N   0  0  0  0  0  0  0  0  0  0  0  0
   69.6647   43.2074   57.5962 C   0  0  0  0  0  0  0  0  0  0  0  0
   68.6239   43.4263   56.8839 O   0  0  0  0  0  0  0  0  0  0  0  0
   68.7137   41.0139   57.6498 C   0  0  0  0  0  0  0  0  0  0  0  0
   67.8710   40.3271   58.6060 C   0  0  0  0  0  0  0  0  0  0  0  0
   67.5954   39.0888   58.2982 O   0  0  0  0  0  0  0  0  0  0  0  0
   67.3190   40.7686   59.7928 N   0  0  0  0  0  0  0  0  0  0  0  0
   66.4565   39.9219   60.6715 C   0  0  0  0  0  0  0  0  0  0  0  0
   65.4205   40.9313   61.1297 C   0  0  0  0  0  0  0  0  0  0  0  0
   66.2365   42.1948   61.3710 C   0  0  0  0  0  0  0  0  0  0  0  0
   67.4497   42.0338   60.4617 C   0  0  0  0  0  0  0  0  0  0  0  0
   71.2687   47.3889   58.9406 N   0  0  0  0  0  0  0  0  0  0  0  0
   70.2532   46.8254   58.4173 C   0  0  0  0  0  0  0  0  0  0  0  0
   71.7430   49.9151   58.7762 N   0  0  0  0  0  0  0  0  0  0  0  0
   71.5260   48.7016   58.8551 C   0  0  0  0  0  0  0  0  0  0  0  0
   69.3306   47.6212   57.6942 N   0  0  0  0  0  0  0  0  0  0  0  0
   69.2935   47.6228   56.2761 C   0  0  0  0  0  0  0  0  0  0  0  0
   69.8431   48.5946   55.4823 C   0  0  0  0  0  0  0  0  0  0  0  0
   69.7056   48.5578   54.1070 C   0  0  0  0  0  0  0  0  0  0  0  0
   69.0232   47.5653   53.4617 C   0  0  0  0  0  0  0  0  0  0  0  0
   68.8587   47.5028   52.1020 C   0  0  0  0  0  0  0  0  0  0  0  0
   68.1539   46.4979   51.4657 C   0  0  0  0  0  0  0  0  0  0  0  0
   67.5882   45.5113   52.2423 C   0  0  0  0  0  0  0  0  0  0  0  0
   67.7486   45.5645   53.6192 C   0  0  0  0  0  0  0  0  0  0  0  0
   68.4482   46.5569   54.2655 C   0  0  0  0  0  0  0  0  0  0  0  0
   68.5943   46.6048   55.6338 C   0  0  0  0  0  0  0  0  0  0  0  0
 20 21  3  0
 21 18  1  0
 18 19  2  0
 19 22  1  0
 19  1  1  0
 22 23  1  0
 23 24  2  0
 23 32  1  0
 24 25  1  0
 25 26  2  0
 26 27  1  0
 26 31  1  0
 27 28  2  0
 28 29  1  0
 29 30  2  0
 30 31  1  0
 31 32  2  0
  2  1  1  1
  2  3  1  0
  2  8  1  0
  3  4  1  0
  4  5  1  0
  5  6  1  0
  6  7  1  0
  7 10  1  0
  7  8  1  0
 10 11  1  0
 11 12  2  0
 11 13  1  0
 13 14  1  0
 13 17  1  0
 14 15  1  0
 15 16  1  0
 16 17  1  0
  8  9  2  0
M  CHG  1  18   1
M  END
>  <minimizedAffinity>  (504) 
-8.51567

$$$$
data/reference_output_2/data/smiles/91395.pdb
     RDKit          3D

 29 32  0  0  0  0  0  0  0  0999 V2000
   70.1660   42.0825   58.6358 N   0  0  0  0  0  0  0  0  0  0  0  0
   70.1211   42.4710   60.0413 C   0  0  0  0  0  0  0  0  0  0  0  0
   71.3069   43.3686   60.3012 C   0  0  0  0  0  0  0  0  0  0  0  0
   71.4241   44.5207   59.3525 C   0  0  0  0  0  0  0  0  0  0  0  0
   70.8284   44.3181   58.0157 C   0  0  1  0  0  0  0  0  0  0  0  0
   69.7884   43.2704   57.8946 C   0  0  0  0  0  0  0  0  0  0  0  0
   68.9947   40.8372   58.4262 S   0  0  0  0  0  0  0  0  0  0  0  0
   67.8795   41.0195   59.4230 O   0  0  0  0  0  0  0  0  0  0  0  0
   68.4546   40.8992   57.0270 O   0  0  0  0  0  0  0  0  0  0  0  0
   71.2152   34.4221   60.1924 C   0  0  0  0  0  0  0  0  0  0  0  0
   71.4986   35.5545   59.2997 N   0  0  0  0  0  0  0  0  0  0  0  0
   72.4988   35.6164   58.4024 C   0  0  0  0  0  0  0  0  0  0  0  0
   72.3975   36.8536   57.7800 C   0  0  0  0  0  0  0  0  0  0  0  0
   71.3127   37.5523   58.3124 C   0  0  0  0  0  0  0  0  0  0  0  0
   70.7974   38.8003   58.0400 C   0  0  0  0  0  0  0  0  0  0  0  0
   69.6840   39.2401   58.7453 C   0  0  0  0  0  0  0  0  0  0  0  0
   69.1344   38.4088   59.6953 C   0  0  0  0  0  0  0  0  0  0  0  0
   69.6680   37.1609   59.9531 C   0  0  0  0  0  0  0  0  0  0  0  0
   70.7804   36.7017   59.2588 C   0  0  0  0  0  0  0  0  0  0  0  0
   70.2745   45.6424   57.5434 C   0  0  0  0  0  0  0  0  0  0  0  0
   70.7168   46.7301   57.9853 O   0  0  0  0  0  0  0  0  0  0  0  0
   69.2301   45.6606   56.5805 N   0  0  0  0  0  0  0  0  0  0  0  0
   68.6135   46.8547   56.0414 C   0  0  0  0  0  0  0  0  0  0  0  0
   68.6226   46.8483   54.5729 C   0  0  0  0  0  0  0  0  0  0  0  0
   67.9548   45.8296   53.8935 C   0  0  0  0  0  0  0  0  0  0  0  0
   67.9343   45.8024   52.5213 C   0  0  0  0  0  0  0  0  0  0  0  0
   68.5960   46.8172   51.8340 C   0  0  0  0  0  0  0  0  0  0  0  0
   69.2573   47.8278   52.4729 C   0  0  0  0  0  0  0  0  0  0  0  0
   69.2641   47.8335   53.8703 C   0  0  0  0  0  0  0  0  0  0  0  0
 10 11  1  0
 11 12  1  0
 11 19  1  0
 12 13  2  0
 13 14  1  0
 14 15  1  0
 14 19  2  0
 15 16  2  0
 16  7  1  0
 16 17  1  0
  7  8  2  0
  7  9  2  0
  7  1  1  0
  1  2  1  0
  1  6  1  0
  2  3  1  0
  3  4  1  0
  4  5  1  0
  5 20  1  1
  5  6  1  0
 20 21  2  0
 20 22  1  0
 22 23  1  0
 23 24  1  0
 24 25  2  0
 24 29  1  0
 25 26  1  0
 26 27  2  0
 27 28  1  0
 28 29  2  0
 17 18  2  0
 18 19  1  0
M  END
>  <minimizedAffinity>  (505) 
-8.51428

$$$$
data/reference_output_2/data/smiles/183958.pdb
     RDKit          3D

 26 29  0  0  0  0  0  0  0  0999 V2000
   69.6715   46.2982   57.1423 C   0  0  0  0  0  0  0  0  0  0  0  0
   70.5867   46.3392   58.0185 O   0  0  0  0  0  0  0  0  0  0  0  0
   69.1465   45.0592   56.7692 N   0  0  0  0  0  0  0  0  0  0  0  0
   69.6132   43.8503   57.3494 N   0  0  0  0  0  0  0  0  0  0  0  0
   69.0156   42.7339   57.1703 C   0  0  0  0  0  0  0  0  0  0  0  0
   67.8138   42.5701   56.3713 C   0  0  0  0  0  0  0  0  0  0  0  0
   67.1920   43.4560   55.7518 O   0  0  0  0  0  0  0  0  0  0  0  0
   67.5004   41.1756   56.4489 N   0  0  0  0  0  0  0  0  0  0  0  0
   68.4791   40.5218   57.2665 C   0  0  0  0  0  0  0  0  0  0  0  0
   68.6093   39.1928   57.6379 C   0  0  0  0  0  0  0  0  0  0  0  0
   69.6473   38.7754   58.4478 C   0  0  0  0  0  0  0  0  0  0  0  0
   70.5803   39.6781   58.9038 C   0  0  0  0  0  0  0  0  0  0  0  0
   72.0089   39.0836   60.0215 Br  0  0  0  0  0  0  0  0  0  0  0  0
   70.4452   41.0053   58.5294 C   0  0  0  0  0  0  0  0  0  0  0  0
   69.4092   41.4324   57.7194 C   0  0  0  0  0  0  0  0  0  0  0  0
   70.0267   48.7022   56.7971 C   0  0  0  0  0  0  0  0  0  0  0  0
   69.1519   47.5304   56.5083 C   0  0  1  0  0  0  0  0  0  0  0  0
   68.9047   47.3613   55.0577 C   0  0  0  0  0  0  0  0  0  0  0  0
   69.6613   48.0792   54.1665 C   0  0  0  0  0  0  0  0  0  0  0  0
   69.4538   47.9258   52.8176 C   0  0  0  0  0  0  0  0  0  0  0  0
   68.5007   47.0645   52.3240 C   0  0  0  0  0  0  0  0  0  0  0  0
   67.7301   46.3334   53.1965 C   0  0  0  0  0  0  0  0  0  0  0  0
   67.9563   46.5039   54.5479 C   0  0  0  0  0  0  0  0  0  0  0  0
   66.8607   45.5567   52.4331 O   0  0  0  0  0  0  0  0  0  0  0  0
   67.4243   45.4588   51.1183 C   0  0  0  0  0  0  0  0  0  0  0  0
   68.0777   46.7120   51.0299 O   0  0  0  0  0  0  0  0  0  0  0  0
 17 16  1  6
 17  1  1  0
 17 18  1  0
  1  2  2  0
  1  3  1  0
  3  4  1  0
  4  5  2  0
  5  6  1  0
  5 15  1  0
  6  7  2  0
  6  8  1  0
  8  9  1  0
  9 10  1  0
  9 15  2  0
 10 11  2  0
 11 12  1  0
 12 13  1  0
 12 14  2  0
 14 15  1  0
 18 19  2  0
 18 23  1  0
 19 20  1  0
 20 21  2  0
 21 22  1  0
 21 26  1  0
 22 23  2  0
 22 24  1  0
 24 25  1  0
 25 26  1  0
M  END
>  <minimizedAffinity>  (506) 
-8.51365

$$$$
data/reference_output_2/data/smiles/193222.pdb
     RDKit          3D

 30 34  0  0  0  0  0  0  0  0999 V2000
   68.1979   46.2358   53.4561 C   0  0  0  0  0  0  0  0  0  0  0  0
   68.1503   44.9726   54.0777 C   0  0  0  0  0  0  0  0  0  0  0  0
   68.3234   44.8159   55.4244 C   0  0  0  0  0  0  0  0  0  0  0  0
   68.5459   45.9313   56.1471 N   0  0  0  0  0  0  0  0  0  0  0  0
   68.6003   47.1654   55.5945 C   0  0  0  0  0  0  0  0  0  0  0  0
   68.4263   47.3502   54.2287 C   0  0  0  0  0  0  0  0  0  0  0  0
   68.5293   48.6629   53.9573 N   0  0  0  0  0  0  0  0  0  0  0  0
   68.7669   49.3752   55.0961 C   0  0  0  0  0  0  0  0  0  0  0  0
   68.9465   50.7200   55.3406 C   0  0  0  0  0  0  0  0  0  0  0  0
   69.1787   51.1941   56.6268 C   0  0  0  0  0  0  0  0  0  0  0  0
   69.3639   52.5820   56.8814 N   0  0  0  0  0  0  0  0  0  0  0  0
   69.2214   50.2540   57.6353 C   0  0  0  0  0  0  0  0  0  0  0  0
   69.0401   48.9114   57.3761 C   0  0  0  0  0  0  0  0  0  0  0  0
   68.8079   48.4332   56.0999 C   0  0  0  0  0  0  0  0  0  0  0  0
   68.2740   43.4943   56.0717 C   0  0  0  0  0  0  0  0  0  0  0  0
   67.2709   42.5906   55.8402 C   0  0  0  0  0  0  0  0  0  0  0  0
   67.2582   41.3416   56.4775 C   0  0  0  0  0  0  0  0  0  0  0  0
   68.2464   40.9668   57.3595 C   0  0  0  0  0  0  0  0  0  0  0  0
   69.2552   41.8954   57.5822 C   0  0  0  0  0  0  0  0  0  0  0  0
   69.2622   43.1153   56.9568 C   0  0  0  0  0  0  0  0  0  0  0  0
   68.2453   39.6469   58.0409 C   0  0  0  0  0  0  0  0  0  0  0  0
   67.3235   39.7088   59.1233 N   0  0  0  0  0  0  0  0  0  0  0  0
   66.8192   38.4512   59.5769 C   0  0  0  0  0  0  0  0  0  0  0  0
   65.4890   38.7386   60.2748 C   0  0  0  0  0  0  0  0  0  0  0  0
   65.3559   40.0856   60.5829 O   0  0  0  0  0  0  0  0  0  0  0  0
   66.5047   40.6176   61.1601 C   0  0  0  0  0  0  0  0  0  0  0  0
   67.6710   40.6193   60.1726 C   0  0  0  0  0  0  0  0  0  0  0  0
   66.9458   45.6654   51.3726 N   0  0  0  0  0  0  0  0  0  0  0  0
   68.0050   46.3395   52.0153 C   0  0  0  0  0  0  0  0  0  0  0  0
   68.7755   47.0333   51.2877 O   0  0  0  0  0  0  0  0  0  0  0  0
 28 29  1  0
 29 30  2  0
 29  1  1  0
  1  2  2  0
  1  6  1  0
  2  3  1  0
  3 15  1  0
  3  4  2  0
 15 16  2  0
 15 20  1  0
 16 17  1  0
 17 18  2  0
 18 21  1  0
 18 19  1  0
 21 22  1  0
 22 23  1  0
 22 27  1  0
 23 24  1  0
 24 25  1  0
 25 26  1  0
 26 27  1  0
 19 20  2  0
  4  5  1  0
  5  6  2  0
  5 14  1  0
  6  7  1  0
  7  8  1  0
  8  9  1  0
  8 14  2  0
  9 10  2  0
 10 11  1  0
 10 12  1  0
 12 13  2  0
 13 14  1  0
M  CHG  1  22   1
M  END
>  <minimizedAffinity>  (507) 
-8.51311

$$$$
data/reference_output_2/data/smiles/121070.pdb
     RDKit          3D

 32 36  0  0  0  0  0  0  0  0999 V2000
   69.7697   48.7166   54.8315 C   0  0  0  0  0  0  0  0  0  0  0  0
   69.2697   47.6734   55.7643 C   0  0  0  0  0  0  0  0  0  0  0  0
   68.6447   46.6361   55.3046 N   0  0  0  0  0  0  0  0  0  0  0  0
   68.3077   46.3495   54.0429 C   0  0  0  0  0  0  0  0  0  0  0  0
   67.6436   45.2957   53.6319 N   0  0  0  0  0  0  0  0  0  0  0  0
   67.3666   45.0915   52.3437 C   0  0  0  0  0  0  0  0  0  0  0  0
   67.7433   45.9377   51.3594 C   0  0  0  0  0  0  0  0  0  0  0  0
   68.4933   47.1167   51.7486 C   0  0  0  0  0  0  0  0  0  0  0  0
   68.7742   47.3433   53.0335 C   0  0  0  0  0  0  0  0  0  0  0  0
   69.4560   48.4029   53.5797 C   0  0  0  0  0  0  0  0  0  0  0  0
   69.9459   49.2660   52.6849 O   0  0  0  0  0  0  0  0  0  0  0  0
   68.9741   45.3687   56.0367 C   0  0  0  0  0  0  0  0  0  0  0  0
   68.6669   44.1055   56.1086 C   0  0  0  0  0  0  0  0  0  0  0  0
   69.1671   43.2302   57.0483 C   0  0  0  0  0  0  0  0  0  0  0  0
   70.0987   43.6566   58.0404 C   0  0  0  0  0  0  0  0  0  0  0  0
   70.4855   44.9423   58.0377 C   0  0  0  0  0  0  0  0  0  0  0  0
   69.9282   45.7658   57.0557 C   0  0  0  0  0  0  0  0  0  0  0  0
   71.3030   45.6911   58.9444 C   0  0  0  0  0  0  0  0  0  0  0  0
   72.0339   46.3736   59.7822 C   0  0  0  0  0  0  0  0  0  0  0  0
   72.8482   47.1242   60.7371 C   0  0  0  0  0  0  0  0  0  0  0  0
   73.3831   46.1655   61.6072 C   0  0  0  0  0  0  0  0  0  0  0  0
   74.4120   46.7329   62.4335 C   0  0  0  0  0  0  0  0  0  0  0  0
   74.7299   48.0583   62.2686 C   0  0  0  0  0  0  0  0  0  0  0  0
   74.1702   48.9191   61.4134 N   0  0  0  0  0  0  0  0  0  0  0  0
   74.4619   50.2194   61.2883 O   0  0  0  0  0  0  0  0  0  0  0  0
   73.1104   48.3467   60.5871 C   0  0  0  0  0  0  0  0  0  0  0  0
   71.7286   49.8526   55.4095 O   0  0  0  0  0  0  0  0  0  0  0  0
   70.3583   49.8426   55.4141 C   0  0  0  0  0  0  0  0  0  0  0  0
   69.9021   50.9855   56.0091 N   0  0  0  0  0  0  0  0  0  0  0  0
   70.5054   52.0954   56.5964 C   0  0  0  0  0  0  0  0  0  0  0  0
   69.6184   53.3915   56.4501 C   0  0  0  0  0  0  0  0  0  0  0  0
   71.0175   53.2913   55.8470 C   0  0  0  0  0  0  0  0  0  0  0  0
 27 28  2  0
 28 29  1  0
 28  1  1  0
 29 30  1  0
 30 31  1  0
 30 32  1  0
 31 32  1  0
  1  2  2  0
  1 10  1  0
  2  3  1  0
  3 12  1  0
  3  4  1  0
 12 13  2  0
 12 17  1  0
 13 14  1  0
 14 15  2  0
 15 16  1  0
 16 18  1  0
 16 17  2  0
 18 19  3  0
 19 20  1  0
 20 21  2  0
 20 26  1  0
 21 22  1  0
 22 23  2  0
 23 24  1  0
 24 25  1  0
 24 26  2  0
  4  5  2  0
  4  9  1  0
  5  6  1  0
  6  7  2  0
  7  8  1  0
  8  9  2  0
  9 10  1  0
 10 11  2  0
M  CHG  2  24   1  25  -1
M  END
>  <minimizedAffinity>  (508) 
-8.51267

$$$$
data/reference_output_2/data/smiles/131145.pdb
     RDKit          3D

 27 30  0  0  0  0  0  0  0  0999 V2000
   73.2976   42.4742   58.5183 C   0  0  0  0  0  0  0  0  0  0  0  0
   71.9415   42.7549   58.0915 N   0  0  0  0  0  0  0  0  0  0  0  0
   71.5435   43.9543   57.6788 N   0  0  0  0  0  0  0  0  0  0  0  0
   70.2461   43.9636   57.3384 C   0  0  0  0  0  0  0  0  0  0  0  0
   69.8404   42.6426   57.5727 C   0  0  0  0  0  0  0  0  0  0  0  0
   70.9049   41.8908   58.0444 C   0  0  0  0  0  0  0  0  0  0  0  0
   70.8591   40.4829   58.3921 C   0  0  0  0  0  0  0  0  0  0  0  0
   71.9657   39.7782   58.8658 C   0  0  0  0  0  0  0  0  0  0  0  0
   71.8647   38.4368   59.1851 C   0  0  0  0  0  0  0  0  0  0  0  0
   70.6800   37.7446   59.0521 C   0  0  0  0  0  0  0  0  0  0  0  0
   69.5952   38.4169   58.5927 C   0  0  0  0  0  0  0  0  0  0  0  0
   69.6895   39.7777   58.2666 C   0  0  0  0  0  0  0  0  0  0  0  0
   68.2044   40.4910   57.6866 S   0  0  0  0  0  0  0  0  0  0  0  0
   67.8173   39.7036   56.4538 O   0  0  0  0  0  0  0  0  0  0  0  0
   67.0927   40.2771   58.7021 O   0  0  0  0  0  0  0  0  0  0  0  0
   68.4542   42.1883   57.3306 C   0  0  0  0  0  0  0  0  0  0  0  0
   69.5529   45.1269   56.8564 C   0  0  0  0  0  0  0  0  0  0  0  0
   69.5777   46.1550   57.6431 O   0  0  0  0  0  0  0  0  0  0  0  0
   68.8467   45.3428   55.6685 N   0  0  0  0  0  0  0  0  0  0  0  0
   68.1972   46.6049   55.3406 C   0  0  0  0  0  0  0  0  0  0  0  0
   68.7668   47.2990   54.1900 C   0  0  0  0  0  0  0  0  0  0  0  0
   69.5149   48.4677   54.3468 C   0  0  0  0  0  0  0  0  0  0  0  0
   70.0672   49.1407   53.2723 C   0  0  0  0  0  0  0  0  0  0  0  0
   69.8461   48.6037   52.0195 C   0  0  0  0  0  0  0  0  0  0  0  0
   69.1091   47.4476   51.8344 C   0  0  0  0  0  0  0  0  0  0  0  0
   68.5680   46.7929   52.9134 C   0  0  0  0  0  0  0  0  0  0  0  0
   67.6372   45.3366   52.7040 Cl  0  0  0  0  0  0  0  0  0  0  0  0
  1  2  1  0
  2  3  1  0
  2  6  1  0
  3  4  2  0
  4 17  1  0
  4  5  1  0
 17 18  2  0
 17 19  1  0
 19 20  1  0
 20 21  1  0
 21 22  2  0
 21 26  1  0
 22 23  1  0
 23 24  2  0
 24 25  1  0
 25 26  2  0
 26 27  1  0
  5  6  2  0
  5 16  1  0
  6  7  1  0
  7  8  2  0
  7 12  1  0
  8  9  1  0
  9 10  2  0
 10 11  1  0
 11 12  2  0
 12 13  1  0
 13 14  2  0
 13 15  2  0
 13 16  1  0
M  END
>  <minimizedAffinity>  (509) 
-8.51234

$$$$
data/reference_output_2/data/smiles/120539.pdb
     RDKit          3D

 27 29  0  0  0  0  0  0  0  0999 V2000
   69.3809   40.8640   58.5177 N   0  0  0  0  0  0  0  0  0  0  0  0
   68.5024   40.0171   57.9579 C   0  0  0  0  0  0  0  0  0  0  0  0
   67.7343   40.4419   56.8833 C   0  0  0  0  0  0  0  0  0  0  0  0
   67.8987   41.7396   56.4164 C   0  0  0  0  0  0  0  0  0  0  0  0
   68.7961   42.6037   56.9890 C   0  0  0  0  0  0  0  0  0  0  0  0
   69.5332   42.1170   58.0605 C   0  0  0  0  0  0  0  0  0  0  0  0
   69.0127   43.9692   56.5301 C   0  0  0  0  0  0  0  0  0  0  0  0
   69.9299   44.6852   57.0107 O   0  0  0  0  0  0  0  0  0  0  0  0
   68.2203   44.5844   55.5220 N   0  0  0  0  0  0  0  0  0  0  0  0
   68.4381   45.9296   55.0756 C   0  0  0  0  0  0  0  0  0  0  0  0
   68.6209   46.9711   55.9565 C   0  0  0  0  0  0  0  0  0  0  0  0
   68.8403   48.2675   55.5751 C   0  0  0  0  0  0  0  0  0  0  0  0
   68.8796   48.5364   54.2027 C   0  0  0  0  0  0  0  0  0  0  0  0
   69.1592   50.1866   53.6662 Cl  0  0  0  0  0  0  0  0  0  0  0  0
   68.7035   47.5356   53.2966 C   0  0  0  0  0  0  0  0  0  0  0  0
   68.4819   46.2305   53.7360 C   0  0  0  0  0  0  0  0  0  0  0  0
   70.1681   40.3523   59.6358 C   0  0  0  0  0  0  0  0  0  0  0  0
   72.1038   39.4531   58.4851 O   0  0  0  0  0  0  0  0  0  0  0  0
   71.0041   39.2349   59.0588 C   0  0  0  0  0  0  0  0  0  0  0  0
   70.5676   37.8756   59.1478 N   0  0  0  0  0  0  0  0  0  0  0  0
   71.3347   36.8056   58.6223 C   0  0  0  0  0  0  0  0  0  0  0  0
   72.0820   36.9470   57.4731 C   0  0  0  0  0  0  0  0  0  0  0  0
   72.8338   35.9552   56.9172 C   0  0  0  0  0  0  0  0  0  0  0  0
   72.8514   34.7314   57.5381 C   0  0  0  0  0  0  0  0  0  0  0  0
   73.8087   33.4285   56.8462 Cl  0  0  0  0  0  0  0  0  0  0  0  0
   72.1113   34.5490   58.6974 C   0  0  0  0  0  0  0  0  0  0  0  0
   71.3561   35.5767   59.2395 C   0  0  0  0  0  0  0  0  0  0  0  0
 18 19  2  0
 19 17  1  0
 19 20  1  0
 17  1  1  0
  1  2  2  0
  1  6  1  0
  2  3  1  0
  3  4  2  0
  4  5  1  0
  5  7  1  0
  5  6  2  0
  7  8  2  0
  7  9  1  0
  9 10  1  0
 10 11  2  0
 10 16  1  0
 11 12  1  0
 12 13  2  0
 13 14  1  0
 13 15  1  0
 15 16  2  0
 20 21  1  0
 21 22  2  0
 21 27  1  0
 22 23  1  0
 23 24  2  0
 24 25  1  0
 24 26  1  0
 26 27  2  0
M  CHG  1   1   1
M  END
>  <minimizedAffinity>  (510) 
-8.51215

$$$$
data/200k_reference_output/data/smiles/42522.pdb
     RDKit          3D

 25 27  0  0  0  0  0  0  0  0999 V2000
   70.8636   46.4800   59.1762 O   0  0  0  0  0  0  0  0  0  0  0  0
   70.8282   45.6796   58.2354 C   0  0  0  0  0  0  0  0  0  0  0  0
   69.9940   46.1886   57.1339 N   0  0  0  0  0  0  0  0  0  0  0  0
   71.4522   44.4164   58.1022 C   0  0  0  0  0  0  0  0  0  0  0  0
   72.7022   44.4965   57.7000 O   0  0  0  0  0  0  0  0  0  0  0  0
   71.0392   43.0613   58.3049 C   0  0  0  0  0  0  0  0  0  0  0  0
   71.7318   42.1401   59.1311 C   0  0  0  0  0  0  0  0  0  0  0  0
   71.1094   40.9616   59.1209 N   0  0  0  0  0  0  0  0  0  0  0  0
   70.0262   41.0083   58.3392 C   0  0  0  0  0  0  0  0  0  0  0  0
   69.0902   40.0593   58.0243 C   0  0  0  0  0  0  0  0  0  0  0  0
   68.0507   40.3669   57.1768 C   0  0  0  0  0  0  0  0  0  0  0  0
   67.9680   41.6348   56.6558 C   0  0  0  0  0  0  0  0  0  0  0  0
   66.5411   42.1156   55.4728 Br  0  0  0  0  0  0  0  0  0  0  0  0
   68.9356   42.5767   56.9959 C   0  0  0  0  0  0  0  0  0  0  0  0
   69.9872   42.3057   57.8375 C   0  0  0  0  0  0  0  0  0  0  0  0
   69.3538   47.4558   57.2394 C   0  0  0  0  0  0  0  0  0  0  0  0
   68.1596   47.5322   56.3397 C   0  0  0  0  0  0  0  0  0  0  0  0
   68.5721   47.4395   54.9331 C   0  0  0  0  0  0  0  0  0  0  0  0
   68.0884   46.4403   54.1304 C   0  0  0  0  0  0  0  0  0  0  0  0
   68.4890   46.3295   52.7901 C   0  0  0  0  0  0  0  0  0  0  0  0
   69.3765   47.2325   52.2757 C   0  0  0  0  0  0  0  0  0  0  0  0
   69.7676   47.1179   50.9523 O   0  0  0  0  0  0  0  0  0  0  0  0
   69.8741   48.2444   53.0659 C   0  0  0  0  0  0  0  0  0  0  0  0
   70.7685   49.1375   52.5107 O   0  0  0  0  0  0  0  0  0  0  0  0
   69.4681   48.3362   54.3805 C   0  0  0  0  0  0  0  0  0  0  0  0
  1  2  2  0
  2  3  1  0
  2  4  1  0
  3 16  1  0
 16 17  1  0
 17 18  1  0
 18 19  2  0
 18 25  1  0
 19 20  1  0
 20 21  2  0
 21 22  1  0
 21 23  1  0
 23 24  1  0
 23 25  2  0
  4  5  2  0
  4  6  1  0
  6  7  2  0
  6 15  1  0
  7  8  1  0
  8  9  1  0
  9 10  1  0
  9 15  2  0
 10 11  2  0
 11 12  1  0
 12 13  1  0
 12 14  2  0
 14 15  1  0
M  END
>  <minimizedAffinity>  (511) 
-8.51156

$$$$
data/reference_output_2/data/smiles/129187.pdb
     RDKit          3D

 26 28  0  0  0  0  0  0  0  0999 V2000
   68.2323   46.6503   53.3693 C   0  0  0  0  0  0  0  0  0  0  0  0
   69.2052   47.4709   52.8410 C   0  0  0  0  0  0  0  0  0  0  0  0
   69.8929   48.3898   53.5996 C   0  0  0  0  0  0  0  0  0  0  0  0
   69.5879   48.4947   54.9732 C   0  0  0  0  0  0  0  0  0  0  0  0
   68.6230   47.6913   55.5309 C   0  0  0  0  0  0  0  0  0  0  0  0
   67.9716   46.7959   54.7278 C   0  0  0  0  0  0  0  0  0  0  0  0
   68.3661   47.8593   56.9836 C   0  0  0  0  0  0  0  0  0  0  0  0
   69.7448   47.9073   57.6119 C   0  0  2  0  0  0  0  0  0  0  0  0
   70.2887   49.2751   57.2602 C   0  0  0  0  0  0  0  0  0  0  0  0
   70.3172   49.4856   55.7932 C   0  0  0  0  0  0  0  0  0  0  0  0
   67.3016   44.5491   52.9918 O   0  0  0  0  0  0  0  0  0  0  0  0
   67.5215   45.6862   52.5335 C   0  0  0  0  0  0  0  0  0  0  0  0
   67.0576   45.9593   51.2223 N   0  0  0  0  0  0  0  0  0  0  0  0
   66.3941   45.0186   50.4781 O   0  0  0  0  0  0  0  0  0  0  0  0
   70.5431   46.8715   57.0108 N   0  0  0  0  0  0  0  0  0  0  0  0
   70.2694   45.3227   57.6902 S   0  0  0  0  0  0  0  0  0  0  0  0
   69.7583   45.5335   59.0982 O   0  0  0  0  0  0  0  0  0  0  0  0
   69.2987   44.5089   56.9247 O   0  0  0  0  0  0  0  0  0  0  0  0
   71.7966   44.4843   57.8313 C   0  0  0  0  0  0  0  0  0  0  0  0
   72.9591   45.2064   58.0160 C   0  0  0  0  0  0  0  0  0  0  0  0
   74.1905   44.6042   58.1379 C   0  0  0  0  0  0  0  0  0  0  0  0
   74.2800   43.2234   58.0743 C   0  0  0  0  0  0  0  0  0  0  0  0
   75.8398   42.4301   58.2283 Cl  0  0  0  0  0  0  0  0  0  0  0  0
   73.1177   42.5074   57.8903 C   0  0  0  0  0  0  0  0  0  0  0  0
   71.8731   43.1097   57.7656 C   0  0  0  0  0  0  0  0  0  0  0  0
   70.4216   42.1629   57.5267 Cl  0  0  0  0  0  0  0  0  0  0  0  0
 11 12  2  0
 12 13  1  0
 12  1  1  0
 13 14  1  0
  1  2  2  0
  1  6  1  0
  2  3  1  0
  3  4  2  0
  4  5  1  0
  4 10  1  0
  5  6  2  0
  5  7  1  0
  7  8  1  0
  8 15  1  6
  8  9  1  0
 15 16  1  0
 16 17  2  0
 16 18  2  0
 16 19  1  0
 19 20  2  0
 19 25  1  0
 20 21  1  0
 21 22  2  0
 22 23  1  0
 22 24  1  0
 24 25  2  0
 25 26  1  0
  9 10  1  0
M  END
>  <minimizedAffinity>  (512) 
-8.50895

$$$$
data/reference_output_2/data/smiles/177292.pdb
     RDKit          3D

 29 32  0  0  0  0  0  0  0  0999 V2000
   69.6116   39.7459   59.0340 N   0  0  0  0  0  0  0  0  0  0  0  0
   68.5430   39.7681   58.1268 C   0  0  0  0  0  0  0  0  0  0  0  0
   67.7840   38.7403   58.0072 O   0  0  0  0  0  0  0  0  0  0  0  0
   68.4054   40.9886   57.3970 C   0  0  0  0  0  0  0  0  0  0  0  0
   67.4543   41.3253   56.4312 C   0  0  0  0  0  0  0  0  0  0  0  0
   67.4662   42.5628   55.8198 C   0  0  0  0  0  0  0  0  0  0  0  0
   68.4073   43.5100   56.1324 C   0  0  0  0  0  0  0  0  0  0  0  0
   69.3523   43.1957   57.0827 C   0  0  0  0  0  0  0  0  0  0  0  0
   69.3196   41.9528   57.6791 C   0  0  0  0  0  0  0  0  0  0  0  0
   70.3849   41.2834   58.9037 S   0  0  0  0  0  0  0  0  0  0  0  0
   71.7868   41.1533   58.3918 O   0  0  0  0  0  0  0  0  0  0  0  0
   70.2935   42.0852   60.1470 O   0  0  0  0  0  0  0  0  0  0  0  0
   68.4084   44.8232   55.4705 C   0  0  0  0  0  0  0  0  0  0  0  0
   67.8832   44.9906   54.2055 C   0  0  0  0  0  0  0  0  0  0  0  0
   67.8714   46.2123   53.5564 C   0  0  0  0  0  0  0  0  0  0  0  0
   68.4038   47.3091   54.1958 C   0  0  0  0  0  0  0  0  0  0  0  0
   68.9302   47.1536   55.4566 C   0  0  0  0  0  0  0  0  0  0  0  0
   68.9308   45.9146   56.0903 C   0  0  0  0  0  0  0  0  0  0  0  0
   70.0301   38.6720   59.9300 C   0  0  0  0  0  0  0  0  0  0  0  0
   72.2920   35.6867   57.8239 C   0  0  0  0  0  0  0  0  0  0  0  0
   71.5156   35.3557   58.9088 C   0  0  0  0  0  0  0  0  0  0  0  0
   70.7811   36.3343   59.5925 C   0  0  0  0  0  0  0  0  0  0  0  0
   70.8086   37.6492   59.2088 C   0  0  0  0  0  0  0  0  0  0  0  0
   71.5837   37.9782   58.1258 C   0  0  0  0  0  0  0  0  0  0  0  0
   72.3234   37.0303   57.4282 C   0  0  0  0  0  0  0  0  0  0  0  0
   73.0639   33.4831   57.3582 O   0  0  0  0  0  0  0  0  0  0  0  0
   73.0775   34.7141   57.0665 C   0  0  0  0  0  0  0  0  0  0  0  0
   73.8784   35.1373   55.9792 N   0  0  0  0  0  0  0  0  0  0  0  0
   74.6203   34.2242   55.2640 O   0  0  0  0  0  0  0  0  0  0  0  0
 26 27  2  0
 27 28  1  0
 27 20  1  0
 28 29  1  0
 20 21  2  0
 20 25  1  0
 21 22  1  0
 22 23  2  0
 23 19  1  0
 23 24  1  0
 19  1  1  0
  1  2  1  0
  1 10  1  0
  2  3  2  0
  2  4  1  0
  4  5  1  0
  4  9  2  0
  5  6  2  0
  6  7  1  0
  7 13  1  0
  7  8  2  0
 13 14  2  0
 13 18  1  0
 14 15  1  0
 15 16  2  0
 16 17  1  0
 17 18  2  0
  8  9  1  0
  9 10  1  0
 10 11  2  0
 10 12  2  0
 24 25  2  0
M  END
>  <minimizedAffinity>  (513) 
-8.50738

$$$$
data/reference_output_2/data/smiles/113333.pdb
     RDKit          3D

 30 33  0  0  0  0  0  0  0  0999 V2000
   71.6998   52.0141   56.1790 N   0  0  0  0  0  0  0  0  0  0  0  0
   72.7360   51.1370   55.9282 C   0  0  0  0  0  0  0  0  0  0  0  0
   73.0499   50.3137   57.1669 C   0  0  0  0  0  0  0  0  0  0  0  0
   71.9784   50.2383   58.1786 C   0  0  0  0  0  0  0  0  0  0  0  0
   71.3783   51.5724   58.4831 C   0  0  0  0  0  0  0  0  0  0  0  0
   71.8078   52.6088   57.4695 C   0  0  0  0  0  0  0  0  0  0  0  0
   71.0105   49.1854   57.9712 N   0  0  0  0  0  0  0  0  0  0  0  0
   71.2207   47.8680   57.9243 C   0  0  0  0  0  0  0  0  0  0  0  0
   72.2992   47.2234   58.0383 O   0  0  0  0  0  0  0  0  0  0  0  0
   70.0320   47.2737   57.7251 N   0  0  0  0  0  0  0  0  0  0  0  0
   69.0482   48.1907   57.6425 C   0  0  0  0  0  0  0  0  0  0  0  0
   67.6842   48.1383   57.4524 C   0  0  0  0  0  0  0  0  0  0  0  0
   66.9068   49.2642   57.4114 C   0  0  0  0  0  0  0  0  0  0  0  0
   67.5389   50.4843   57.5698 C   0  0  0  0  0  0  0  0  0  0  0  0
   66.7587   51.6008   57.5299 F   0  0  0  0  0  0  0  0  0  0  0  0
   68.9009   50.5424   57.7599 C   0  0  0  0  0  0  0  0  0  0  0  0
   69.6981   49.4192   57.8026 C   0  0  0  0  0  0  0  0  0  0  0  0
   70.7384   52.4529   55.3012 C   0  0  0  0  0  0  0  0  0  0  0  0
   70.6081   51.7231   54.0171 C   0  0  0  0  0  0  0  0  0  0  0  0
   71.5143   49.3527   53.1631 O   0  0  0  0  0  0  0  0  0  0  0  0
   70.2964   49.3881   53.4499 C   0  0  0  0  0  0  0  0  0  0  0  0
   69.7214   50.6113   53.9190 N   0  0  0  0  0  0  0  0  0  0  0  0
   69.5040   48.1883   53.2956 C   0  0  0  0  0  0  0  0  0  0  0  0
   69.1357   47.7872   52.0059 C   0  0  0  0  0  0  0  0  0  0  0  0
   68.3784   46.6720   51.7670 C   0  0  0  0  0  0  0  0  0  0  0  0
   67.9571   45.9055   52.8318 C   0  0  0  0  0  0  0  0  0  0  0  0
   67.1983   44.7898   52.6013 F   0  0  0  0  0  0  0  0  0  0  0  0
   68.2876   46.2479   54.1195 C   0  0  0  0  0  0  0  0  0  0  0  0
   67.8667   45.4861   55.1732 F   0  0  0  0  0  0  0  0  0  0  0  0
   69.0548   47.3828   54.3128 C   0  0  0  0  0  0  0  0  0  0  0  0
 20 21  2  0
 21 22  1  0
 21 23  1  0
 22 19  1  0
 19 18  1  0
 18  1  1  0
  1  2  1  0
  1  6  1  0
  2  3  1  0
  3  4  1  0
  4  7  1  0
  4  5  1  0
  7  8  1  0
  7 17  1  0
  8  9  2  0
  8 10  1  0
 10 11  1  0
 11 12  1  0
 11 17  2  0
 12 13  2  0
 13 14  1  0
 14 15  1  0
 14 16  2  0
 16 17  1  0
  5  6  1  0
 23 24  2  0
 23 30  1  0
 24 25  1  0
 25 26  2  0
 26 27  1  0
 26 28  1  0
 28 29  1  0
 28 30  2  0
M  CHG  1   1   1
M  END
>  <minimizedAffinity>  (514) 
-8.50630

$$$$
data/reference_output_2/data/smiles/135316.pdb
     RDKit          3D

 31 34  0  0  0  0  0  0  0  0999 V2000
   71.8339   47.5858   58.8343 C   0  0  0  0  0  0  0  0  0  0  0  0
   70.6635   47.8328   58.1546 C   0  0  0  0  0  0  0  0  0  0  0  0
   70.5806   48.7673   57.1368 C   0  0  0  0  0  0  0  0  0  0  0  0
   71.7615   49.4503   56.8315 C   0  0  0  0  0  0  0  0  0  0  0  0
   72.9484   49.2503   57.4637 C   0  0  0  0  0  0  0  0  0  0  0  0
   72.9766   48.3092   58.4712 C   0  0  0  0  0  0  0  0  0  0  0  0
   74.1669   48.1029   59.1111 F   0  0  0  0  0  0  0  0  0  0  0  0
   69.7816   43.0448   59.5434 C   0  0  0  0  0  0  0  0  0  0  0  0
   68.9665   43.2331   58.5594 O   0  0  0  0  0  0  0  0  0  0  0  0
   71.1621   43.2364   59.3762 N   0  0  0  0  0  0  0  0  0  0  0  0
   71.6919   43.6443   58.0998 C   0  0  0  0  0  0  0  0  0  0  0  0
   72.6452   44.8159   58.3874 C   0  0  0  0  0  0  0  0  0  0  0  0
   72.3990   45.3386   59.7268 N   0  0  0  0  0  0  0  0  0  0  0  0
   72.0007   46.6686   59.9279 C   0  0  0  0  0  0  0  0  0  0  0  0
   71.7841   47.0699   61.0992 O   0  0  0  0  0  0  0  0  0  0  0  0
   72.6050   44.4096   60.8311 C   0  0  0  0  0  0  0  0  0  0  0  0
   72.0765   43.0406   60.4549 C   0  0  0  0  0  0  0  0  0  0  0  0
   67.6716   42.2150   60.5450 C   0  0  0  0  0  0  0  0  0  0  0  0
   69.1118   42.6270   60.7945 C   0  0  0  0  0  0  0  0  0  0  0  0
   69.3502   49.0791   56.3812 C   0  0  0  0  0  0  0  0  0  0  0  0
   69.5976   48.9281   54.9304 C   0  0  0  0  0  0  0  0  0  0  0  0
   70.3875   49.8340   54.2682 N   0  0  0  0  0  0  0  0  0  0  0  0
   70.6450   49.7613   52.9784 N   0  0  0  0  0  0  0  0  0  0  0  0
   70.1359   48.7669   52.2069 C   0  0  0  0  0  0  0  0  0  0  0  0
   70.4190   48.7523   50.9817 O   0  0  0  0  0  0  0  0  0  0  0  0
   69.3322   47.8161   52.7979 C   0  0  0  0  0  0  0  0  0  0  0  0
   69.0873   47.9265   54.1455 C   0  0  0  0  0  0  0  0  0  0  0  0
   68.2583   46.9403   54.7389 N   0  0  0  0  0  0  0  0  0  0  0  0
   68.0127   45.6841   54.0666 C   0  0  0  0  0  0  0  0  0  0  0  0
   67.7739   45.8676   52.5877 C   0  0  0  0  0  0  0  0  0  0  0  0
   68.7924   46.7610   51.9441 C   0  0  0  0  0  0  0  0  0  0  0  0
 18 19  1  0
 19  8  1  0
  8  9  2  0
  8 10  1  0
 10 11  1  0
 10 17  1  0
 11 12  1  0
 12 13  1  0
 13 14  1  0
 13 16  1  0
 14 15  2  0
 14  1  1  0
  1  2  2  0
  1  6  1  0
  2  3  1  0
  3 20  1  0
  3  4  2  0
 20 21  1  0
 21 22  2  0
 21 27  1  0
 22 23  1  0
 23 24  1  0
 24 25  2  0
 24 26  1  0
 26 27  2  0
 26 31  1  0
 27 28  1  0
 28 29  1  0
 29 30  1  0
 30 31  1  0
  4  5  1  0
  5  6  2  0
  6  7  1  0
 16 17  1  0
M  END
>  <minimizedAffinity>  (515) 
-8.50628

$$$$
data/200k_reference_output/data/smiles/79528.pdb
     RDKit          3D

 29 31  0  0  0  0  0  0  0  0999 V2000
   70.2534   39.4830   58.7672 C   0  0  0  0  0  0  0  0  0  0  0  0
   69.0446   38.9442   58.3813 C   0  0  0  0  0  0  0  0  0  0  0  0
   68.1334   39.7272   57.7072 C   0  0  0  0  0  0  0  0  0  0  0  0
   68.4499   41.0471   57.4288 C   0  0  0  0  0  0  0  0  0  0  0  0
   69.6470   41.6171   57.7999 C   0  0  0  0  0  0  0  0  0  0  0  0
   70.5367   40.8227   58.4680 C   0  0  0  0  0  0  0  0  0  0  0  0
   71.4462   38.5390   59.6165 S   0  0  0  0  0  0  0  0  0  0  0  0
   71.3257   38.9365   61.0826 O   0  0  0  0  0  0  0  0  0  0  0  0
   72.8162   39.0149   59.2036 O   0  0  0  0  0  0  0  0  0  0  0  0
   71.2940   36.8600   59.4014 N   0  0  0  0  0  0  0  0  0  0  0  0
   73.7718   33.5710   55.4834 C   0  0  0  0  0  0  0  0  0  0  0  0
   73.1285   34.4507   56.4935 C   0  0  0  0  0  0  0  0  0  0  0  0
   72.9437   35.8168   56.2594 C   0  0  0  0  0  0  0  0  0  0  0  0
   72.3477   36.6207   57.1998 C   0  0  0  0  0  0  0  0  0  0  0  0
   71.9232   36.0873   58.3911 C   0  0  0  0  0  0  0  0  0  0  0  0
   72.1187   34.7315   58.5975 C   0  0  0  0  0  0  0  0  0  0  0  0
   71.6646   34.1131   59.8965 C   0  0  0  0  0  0  0  0  0  0  0  0
   72.7104   33.8935   57.6817 C   0  0  0  0  0  0  0  0  0  0  0  0
   69.8875   43.0118   57.4628 C   0  0  0  0  0  0  0  0  0  0  0  0
   71.0000   43.5414   57.7245 O   0  0  0  0  0  0  0  0  0  0  0  0
   68.9402   43.8658   56.8394 N   0  0  0  0  0  0  0  0  0  0  0  0
   69.1958   45.2066   56.5248 N   0  0  0  0  0  0  0  0  0  0  0  0
   68.5687   45.8868   55.4458 C   0  0  0  0  0  0  0  0  0  0  0  0
   67.7482   45.2399   54.7532 O   0  0  0  0  0  0  0  0  0  0  0  0
   68.8405   47.2880   55.1231 C   0  0  0  0  0  0  0  0  0  0  0  0
   68.9397   47.8228   53.8555 C   0  0  0  0  0  0  0  0  0  0  0  0
   69.2044   49.1797   53.9655 C   0  0  0  0  0  0  0  0  0  0  0  0
   69.2549   49.4087   55.3273 C   0  0  0  0  0  0  0  0  0  0  0  0
   69.0366   48.2800   55.9456 O   0  0  0  0  0  0  0  0  0  0  0  0
 11 12  1  0
 12 13  2  0
 12 18  1  0
 13 14  1  0
 14 15  2  0
 15 10  1  0
 15 16  1  0
 10  7  1  0
  7  8  2  0
  7  9  2  0
  7  1  1  0
  1  2  2  0
  1  6  1  0
  2  3  1  0
  3  4  2  0
  4  5  1  0
  5 19  1  0
  5  6  2  0
 19 20  2  0
 19 21  1  0
 21 22  1  0
 22 23  1  0
 23 24  2  0
 23 25  1  0
 25 26  2  0
 25 29  1  0
 26 27  1  0
 27 28  2  0
 28 29  1  0
 16 17  1  0
 16 18  2  0
M  END
>  <minimizedAffinity>  (516) 
-8.50523

$$$$
data/reference_output_2/data/smiles/149708.pdb
     RDKit          3D

 31 35  0  0  0  0  0  0  0  0999 V2000
   68.4441   47.6344   55.8472 C   0  0  2  0  0  0  0  0  0  0  0  0
   69.0728   48.4830   56.9040 C   0  0  0  0  0  0  0  0  0  0  0  0
   70.2291   47.8547   57.6058 C   0  0  0  0  0  0  0  0  0  0  0  0
   70.1670   46.4015   57.7499 C   0  0  0  0  0  0  0  0  0  0  0  0
   70.9867   45.7612   58.6471 C   0  0  0  0  0  0  0  0  0  0  0  0
   70.9265   44.3747   58.7826 C   0  0  0  0  0  0  0  0  0  0  0  0
   70.0606   43.5995   58.0392 C   0  0  0  0  0  0  0  0  0  0  0  0
   69.2370   44.2428   57.1378 C   0  0  0  0  0  0  0  0  0  0  0  0
   68.5020   43.2812   56.5502 N   0  0  0  0  0  0  0  0  0  0  0  0
   68.8512   42.0669   57.0650 C   0  0  0  0  0  0  0  0  0  0  0  0
   68.3054   40.7358   56.7163 C   0  0  0  0  0  0  0  0  0  0  0  0
   69.8132   42.2750   57.9829 N   0  0  0  0  0  0  0  0  0  0  0  0
   70.4649   41.2248   58.7714 C   0  0  0  0  0  0  0  0  0  0  0  0
   69.2993   45.6325   57.0038 C   0  0  0  0  0  0  0  0  0  0  0  0
   68.4816   46.2572   56.1125 O   0  0  0  0  0  0  0  0  0  0  0  0
   67.6982   45.8863   53.6714 C   0  0  0  0  0  0  0  0  0  0  0  0
   68.6671   46.9969   53.4624 C   0  0  0  0  0  0  0  0  0  0  0  0
   69.2125   47.1902   52.2101 C   0  0  0  0  0  0  0  0  0  0  0  0
   70.1173   48.1926   51.9274 C   0  0  0  0  0  0  0  0  0  0  0  0
   70.4686   49.0265   52.9789 C   0  0  0  0  0  0  0  0  0  0  0  0
   69.9367   48.8546   54.2382 C   0  0  0  0  0  0  0  0  0  0  0  0
   69.0319   47.8432   54.5012 C   0  0  0  0  0  0  0  0  0  0  0  0
   71.9020   46.5703   59.4327 C   0  0  0  0  0  0  0  0  0  0  0  0
   71.4199   47.2475   60.3769 O   0  0  0  0  0  0  0  0  0  0  0  0
   73.2805   46.5944   59.1452 N   0  0  0  0  0  0  0  0  0  0  0  0
   74.4439   47.2515   59.6870 C   0  0  0  0  0  0  0  0  0  0  0  0
   75.0416   47.2052   58.2779 C   0  0  0  0  0  0  0  0  0  0  0  0
   74.1412   45.9695   58.1773 C   0  0  1  0  0  0  0  0  0  0  0  0
   74.8751   44.7800   58.6271 C   0  0  0  0  0  0  0  0  0  0  0  0
   74.1372   43.7014   59.1740 N   0  0  0  0  0  0  0  0  0  0  0  0
   76.1090   44.6826   58.5453 O   0  0  0  0  0  0  0  0  0  0  0  0
 16 17  1  0
 17 18  2  0
 17 22  1  0
 18 19  1  0
 19 20  2  0
 20 21  1  0
 21 22  2  0
  1 22  1  6
  1  2  1  0
  1 15  1  0
  2  3  1  0
  3  4  1  0
  4  5  2  0
  4 14  1  0
  5 23  1  0
  5  6  1  0
 23 24  2  0
 23 25  1  0
 25 26  1  0
 25 28  1  0
 26 27  1  0
 27 28  1  0
 28 29  1  1
 29 30  1  0
 29 31  2  0
  6  7  2  0
  7  8  1  0
  7 12  1  0
  8  9  1  0
  8 14  2  0
  9 10  2  0
 10 11  1  0
 10 12  1  0
 12 13  1  0
 14 15  1  0
M  END
>  <minimizedAffinity>  (517) 
-8.50427

$$$$
data/reference_output_2/data/smiles/173730.pdb
     RDKit          3D

 26 29  0  0  0  0  0  0  0  0999 V2000
   70.2062   50.7884   55.3994 N   0  0  0  0  0  0  0  0  0  0  0  0
   68.8589   51.2551   55.6123 C   0  0  0  0  0  0  0  0  0  0  0  0
   68.9870   51.9930   56.9265 C   0  0  0  0  0  0  0  0  0  0  0  0
   70.0482   51.1941   57.6276 C   0  0  2  0  0  0  0  0  0  0  0  0
   71.4164   51.8484   57.6739 C   0  0  0  0  0  0  0  0  0  0  0  0
   71.9258   50.4940   57.2425 C   0  0  1  0  0  0  0  0  0  0  0  0
   70.6405   50.2718   56.5694 C   0  0  2  0  0  0  0  0  0  0  0  0
   70.5477   50.2466   53.8794 S   0  0  0  0  0  0  0  0  0  0  0  0
   72.0070   49.8491   53.8247 O   0  0  0  0  0  0  0  0  0  0  0  0
   70.3199   51.2168   52.8014 O   0  0  0  0  0  0  0  0  0  0  0  0
   67.5446   45.2196   52.2989 C   0  0  0  0  0  0  0  0  0  0  0  0
   68.2702   46.4466   52.7162 C   0  0  0  0  0  0  0  0  0  0  0  0
   68.2892   46.9194   54.0113 C   0  0  0  0  0  0  0  0  0  0  0  0
   68.9635   48.0578   54.3911 C   0  0  0  0  0  0  0  0  0  0  0  0
   69.6587   48.7738   53.4463 C   0  0  0  0  0  0  0  0  0  0  0  0
   69.6650   48.3379   52.1469 C   0  0  0  0  0  0  0  0  0  0  0  0
   68.9822   47.1966   51.7966 C   0  0  0  0  0  0  0  0  0  0  0  0
   73.1387   50.4825   56.4799 N   0  0  0  0  0  0  0  0  0  0  0  0
   74.2459   49.7729   56.9979 C   0  0  0  0  0  0  0  0  0  0  0  0
   74.1189   49.1698   58.1278 O   0  0  0  0  0  0  0  0  0  0  0  0
   75.5427   49.6691   56.3413 C   0  0  0  0  0  0  0  0  0  0  0  0
   75.6404   49.3953   55.0043 N   0  0  0  0  0  0  0  0  0  0  0  0
   76.9180   49.3630   54.7002 N   0  0  0  0  0  0  0  0  0  0  0  0
   77.6809   49.5994   55.7591 C   0  0  0  0  0  0  0  0  0  0  0  0
   76.8104   49.7973   56.8213 C   0  0  0  0  0  0  0  0  0  0  0  0
   77.3073   50.1783   58.6159 Br  0  0  0  0  0  0  0  0  0  0  0  0
 11 12  1  0
 12 13  2  0
 12 17  1  0
 13 14  1  0
 14 15  2  0
 15  8  1  0
 15 16  1  0
  8  9  2  0
  8 10  2  0
  8  1  1  0
  1  2  1  0
  7  1  1  6
  2  3  1  0
  4  3  1  6
  4  5  1  0
  4  7  1  0
  5  6  1  0
  6 18  1  6
  6  7  1  0
 18 19  1  0
 19 20  2  0
 19 21  1  0
 21 22  1  0
 21 25  2  0
 22 23  1  0
 23 24  2  0
 24 25  1  0
 25 26  1  0
 16 17  2  0
M  END
>  <minimizedAffinity>  (518) 
-8.50402

$$$$
data/reference_output_2/data/smiles/112846.pdb
     RDKit          3D

 30 33  0  0  0  0  0  0  0  0999 V2000
   70.5544   43.0396   58.2580 C   0  0  0  0  0  0  0  0  0  0  0  0
   69.6861   43.3103   57.2128 C   0  0  0  0  0  0  0  0  0  0  0  0
   69.3906   44.5801   56.7735 C   0  0  0  0  0  0  0  0  0  0  0  0
   69.9871   45.6664   57.4045 C   0  0  0  0  0  0  0  0  0  0  0  0
   70.8514   45.4166   58.4438 C   0  0  0  0  0  0  0  0  0  0  0  0
   71.1362   44.1281   58.8695 C   0  0  0  0  0  0  0  0  0  0  0  0
   71.3553   46.7491   58.9403 C   0  0  0  0  0  0  0  0  0  0  0  0
   71.0704   47.6533   57.7584 C   0  0  0  0  0  0  0  0  0  0  0  0
   69.8791   47.0624   57.1834 N   0  0  0  0  0  0  0  0  0  0  0  0
   70.1803   40.5286   58.1081 N   0  0  0  0  0  0  0  0  0  0  0  0
   70.8231   41.6546   58.6713 C   0  0  0  0  0  0  0  0  0  0  0  0
   71.6735   41.4602   59.5764 O   0  0  0  0  0  0  0  0  0  0  0  0
   70.9727   36.5399   59.3442 C   0  0  0  0  0  0  0  0  0  0  0  0
   71.7825   37.1723   58.4224 C   0  0  0  0  0  0  0  0  0  0  0  0
   71.5197   38.4668   58.0264 C   0  0  0  0  0  0  0  0  0  0  0  0
   70.4519   39.1901   58.5184 C   0  0  0  0  0  0  0  0  0  0  0  0
   69.6434   38.5560   59.4391 C   0  0  0  0  0  0  0  0  0  0  0  0
   69.9061   37.2604   59.8365 C   0  0  0  0  0  0  0  0  0  0  0  0
   71.1194   34.8084   61.1522 N   0  0  0  0  0  0  0  0  0  0  0  0
   71.2307   35.1664   59.7820 C   0  0  0  0  0  0  0  0  0  0  0  0
   71.5534   34.3174   58.9138 O   0  0  0  0  0  0  0  0  0  0  0  0
   68.5731   47.8987   56.3804 S   0  0  0  0  0  0  0  0  0  0  0  0
   67.2737   47.4658   56.9970 O   0  0  0  0  0  0  0  0  0  0  0  0
   68.7817   49.3586   56.5699 O   0  0  0  0  0  0  0  0  0  0  0  0
   68.6642   47.4607   54.6870 C   0  0  0  0  0  0  0  0  0  0  0  0
   67.9682   46.3936   54.1617 C   0  0  0  0  0  0  0  0  0  0  0  0
   68.0337   46.0429   52.8305 C   0  0  0  0  0  0  0  0  0  0  0  0
   68.8227   46.7733   51.9626 C   0  0  0  0  0  0  0  0  0  0  0  0
   69.5227   47.8360   52.4616 C   0  0  0  0  0  0  0  0  0  0  0  0
   69.4557   48.1901   53.8036 C   0  0  0  0  0  0  0  0  0  0  0  0
 19 20  1  0
 20 21  2  0
 20 13  1  0
 13 14  2  0
 13 18  1  0
 14 15  1  0
 15 16  2  0
 16 10  1  0
 16 17  1  0
 10 11  1  0
 11 12  2  0
 11  1  1  0
  1  2  2  0
  1  6  1  0
  2  3  1  0
  3  4  2  0
  4  5  1  0
  4  9  1  0
  5  6  2  0
  5  7  1  0
  7  8  1  0
  8  9  1  0
  9 22  1  0
 22 23  2  0
 22 24  2  0
 22 25  1  0
 25 26  2  0
 25 30  1  0
 26 27  1  0
 27 28  2  0
 28 29  1  0
 29 30  2  0
 17 18  2  0
M  END
>  <minimizedAffinity>  (519) 
-8.50344

$$$$
data/reference_output_2/data/smiles/163978.pdb
     RDKit          3D

 33 37  0  0  0  0  0  0  0  0999 V2000
   69.8401   43.4344   57.7009 C   0  0  0  0  0  0  0  0  0  0  0  0
   69.6766   44.6808   57.2329 C   0  0  0  0  0  0  0  0  0  0  0  0
   68.7327   44.8927   56.3006 N   0  0  0  0  0  0  0  0  0  0  0  0
   68.5768   46.1474   55.8364 C   0  0  0  0  0  0  0  0  0  0  0  0
   67.7045   46.3957   54.9613 O   0  0  0  0  0  0  0  0  0  0  0  0
   69.3506   47.2117   56.2878 C   0  0  0  0  0  0  0  0  0  0  0  0
   69.1821   48.4417   55.8191 C   0  0  0  0  0  0  0  0  0  0  0  0
   70.2805   46.9896   57.2100 N   0  0  0  0  0  0  0  0  0  0  0  0
   70.4442   45.7351   57.6807 C   0  0  0  0  0  0  0  0  0  0  0  0
   71.3200   45.4723   58.5628 O   0  0  0  0  0  0  0  0  0  0  0  0
   69.9748   49.5792   56.2683 C   0  0  0  0  0  0  0  0  0  0  0  0
   69.9705   50.0565   57.5624 C   0  0  0  0  0  0  0  0  0  0  0  0
   70.7383   51.1421   57.9518 C   0  0  0  0  0  0  0  0  0  0  0  0
   71.5430   51.7910   57.0486 C   0  0  0  0  0  0  0  0  0  0  0  0
   71.5587   51.3240   55.7468 C   0  0  0  0  0  0  0  0  0  0  0  0
   70.7933   50.2441   55.3653 C   0  0  0  0  0  0  0  0  0  0  0  0
   72.4875   52.1989   55.0456 C   0  0  0  0  0  0  0  0  0  0  0  0
   72.7498   52.0601   53.8099 O   0  0  0  0  0  0  0  0  0  0  0  0
   73.0210   53.1955   55.9661 C   0  0  0  0  0  0  0  0  0  0  0  0
   73.9159   54.2282   55.7951 C   0  0  0  0  0  0  0  0  0  0  0  0
   74.2734   55.0619   56.8552 C   0  0  0  0  0  0  0  0  0  0  0  0
   73.6790   54.7883   58.0724 C   0  0  0  0  0  0  0  0  0  0  0  0
   72.7818   53.7565   58.2532 C   0  0  0  0  0  0  0  0  0  0  0  0
   72.4397   52.9400   57.1865 C   0  0  0  0  0  0  0  0  0  0  0  0
   69.1379   41.0382   57.6562 C   0  0  0  0  0  0  0  0  0  0  0  0
   68.2204   40.3253   56.9830 N   0  0  0  0  0  0  0  0  0  0  0  0
   67.5258   41.1101   56.1385 C   0  0  0  0  0  0  0  0  0  0  0  0
   68.0349   42.3463   56.2982 N   0  0  0  0  0  0  0  0  0  0  0  0
   69.0061   42.3497   57.2002 C   0  0  0  0  0  0  0  0  0  0  0  0
   71.4948   40.9710   58.4277 C   0  0  0  0  0  0  0  0  0  0  0  0
   70.0692   40.5165   58.6538 C   0  0  0  0  0  0  0  0  0  0  0  0
   69.7002   40.9570   60.0717 C   0  0  0  0  0  0  0  0  0  0  0  0
   70.0729   39.0055   58.6018 C   0  0  0  0  0  0  0  0  0  0  0  0
 30 31  1  0
 31 32  1  0
 31 33  1  0
 31 25  1  0
 25 26  1  0
 25 29  2  0
 26 27  1  0
 27 28  2  0
 28 29  1  0
 29  1  1  0
  1  2  2  0
  2  3  1  0
  2  9  1  0
  3  4  1  0
  4  5  2  0
  4  6  1  0
  6  7  2  0
  6  8  1  0
  7 11  1  0
 11 12  2  0
 11 16  1  0
 12 13  1  0
 13 14  2  0
 14 15  1  0
 14 24  1  0
 15 16  2  0
 15 17  1  0
 17 18  2  0
 17 19  1  0
 19 20  1  0
 19 24  2  0
 20 21  2  0
 21 22  1  0
 22 23  2  0
 23 24  1  0
  8  9  1  0
  9 10  2  0
M  CHG  1  28   1
M  END
>  <minimizedAffinity>  (520) 
-8.50200

$$$$
data/reference_output_2/data/smiles/184347.pdb
     RDKit          3D

 33 37  0  0  0  0  0  0  0  0999 V2000
   69.0253   38.2054   58.9115 O   0  0  0  0  0  0  0  0  0  0  0  0
   70.2082   38.7387   58.8993 C   0  0  0  0  0  0  0  0  0  0  0  0
   70.3275   40.1229   58.6674 N   0  0  0  0  0  0  0  0  0  0  0  0
   69.1027   40.8985   58.4926 C   0  0  0  0  0  0  0  0  0  0  0  0
   69.2143   42.2527   59.1084 C   0  0  0  0  0  0  0  0  0  0  0  0
   68.1876   42.7736   59.5919 O   0  0  0  0  0  0  0  0  0  0  0  0
   70.4445   42.9404   59.1471 N   0  0  0  0  0  0  0  0  0  0  0  0
   71.3996   44.0616   59.1395 C   0  0  1  0  0  0  0  0  0  0  0  0
   72.2652   43.1680   58.3400 C   0  0  2  0  0  0  0  0  0  0  0  0
   71.6513   42.1078   59.2619 C   0  0  2  0  0  0  0  0  0  0  0  0
   71.5629   40.7955   58.5668 C   0  0  0  0  0  0  0  0  0  0  0  0
   73.7134   43.2340   58.3380 C   0  0  0  0  0  0  0  0  0  0  0  0
   74.4576   44.2080   58.9642 C   0  0  0  0  0  0  0  0  0  0  0  0
   75.8536   44.2097   58.9364 C   0  0  0  0  0  0  0  0  0  0  0  0
   76.5891   43.2563   58.2907 C   0  0  0  0  0  0  0  0  0  0  0  0
   75.8234   42.2544   57.6473 C   0  0  0  0  0  0  0  0  0  0  0  0
   74.4625   42.2524   57.6752 C   0  0  0  0  0  0  0  0  0  0  0  0
   78.0065   43.1888   58.2154 C   0  0  0  0  0  0  0  0  0  0  0  0
   79.2319   43.1172   58.1322 C   0  0  0  0  0  0  0  0  0  0  0  0
   80.7025   43.0169   58.0357 C   0  0  0  0  0  0  0  0  0  0  0  0
   80.9831   41.7626   57.2712 C   0  0  0  0  0  0  0  0  0  0  0  0
   80.2087   41.3415   56.2230 C   0  0  0  0  0  0  0  0  0  0  0  0
   80.4758   40.1905   55.5174 C   0  0  0  0  0  0  0  0  0  0  0  0
   81.5830   39.3945   55.8656 C   0  0  0  0  0  0  0  0  0  0  0  0
   82.3654   39.8100   56.9163 C   0  0  0  0  0  0  0  0  0  0  0  0
   82.0809   40.9593   57.6033 C   0  0  0  0  0  0  0  0  0  0  0  0
   71.3033   37.7847   59.1399 C   0  0  0  0  0  0  0  0  0  0  0  0
   70.9323   36.5331   59.8549 C   0  0  0  0  0  0  0  0  0  0  0  0
   71.5338   35.3668   59.0875 C   0  0  0  0  0  0  0  0  0  0  0  0
   72.2447   35.9289   57.8823 C   0  0  0  0  0  0  0  0  0  0  0  0
   72.0330   37.4002   57.8625 C   0  0  0  0  0  0  0  0  0  0  0  0
   70.9197   45.2525   58.3035 C   0  0  0  0  0  0  0  0  0  0  0  0
   69.7566   45.7922   58.8443 O   0  0  0  0  0  0  0  0  0  0  0  0
  1  2  2  0
  2 27  1  0
  2  3  1  0
 27 28  1  0
 27 31  1  0
 28 29  1  0
 29 30  1  0
 30 31  1  0
  3  4  1  0
  3 11  1  0
  4  5  1  0
  5  6  2  0
  5  7  1  0
  7  8  1  0
  7 10  1  0
  8 32  1  6
  8  9  1  0
 32 33  1  0
  9 12  1  1
  9 10  1  0
 12 13  2  0
 12 17  1  0
 13 14  1  0
 14 15  2  0
 15 18  1  0
 15 16  1  0
 18 19  3  0
 19 20  1  0
 20 21  1  0
 21 22  2  0
 21 26  1  0
 22 23  1  0
 23 24  2  0
 24 25  1  0
 25 26  2  0
 16 17  2  0
 10 11  1  6
M  END
>  <minimizedAffinity>  (521) 
-8.50021

$$$$
data/reference_output_2/data/smiles/104957.pdb
     RDKit          3D

 30 33  0  0  0  0  0  0  0  0999 V2000
   68.2615   42.6744   58.7074 O   0  0  0  0  0  0  0  0  0  0  0  0
   69.4020   42.3444   59.1003 C   0  0  0  0  0  0  0  0  0  0  0  0
   69.6901   40.9751   59.2866 N   0  0  0  0  0  0  0  0  0  0  0  0
   71.0004   40.5679   59.7413 C   0  0  0  0  0  0  0  0  0  0  0  0
   71.5346   39.5754   58.7337 C   0  0  0  0  0  0  0  0  0  0  0  0
   70.6062   38.4687   58.6813 N   0  0  0  0  0  0  0  0  0  0  0  0
   69.2218   38.7264   58.4034 C   0  0  0  0  0  0  0  0  0  0  0  0
   68.6973   39.9830   59.0301 C   0  0  0  0  0  0  0  0  0  0  0  0
   71.0072   37.1175   58.8960 C   0  0  0  0  0  0  0  0  0  0  0  0
   70.5264   36.4335   60.0167 C   0  0  0  0  0  0  0  0  0  0  0  0
   70.8933   35.1366   60.2463 C   0  0  0  0  0  0  0  0  0  0  0  0
   71.7472   34.4481   59.3924 C   0  0  0  0  0  0  0  0  0  0  0  0
   72.2173   35.1128   58.3000 C   0  0  0  0  0  0  0  0  0  0  0  0
   71.8507   36.4341   58.0525 C   0  0  0  0  0  0  0  0  0  0  0  0
   72.3416   37.0453   56.9616 F   0  0  0  0  0  0  0  0  0  0  0  0
   70.3932   43.4296   59.3498 C   0  0  0  0  0  0  0  0  0  0  0  0
   69.8265   44.7255   59.2283 N   0  0  0  0  0  0  0  0  0  0  0  0
   70.8266   45.9641   58.6821 S   0  0  0  0  0  0  0  0  0  0  0  0
   72.1125   45.3840   58.1425 O   0  0  0  0  0  0  0  0  0  0  0  0
   71.2505   46.7958   59.8898 O   0  0  0  0  0  0  0  0  0  0  0  0
   70.1617   47.0397   57.5070 C   0  0  0  0  0  0  0  0  0  0  0  0
   70.3418   48.3908   57.4507 C   0  0  0  0  0  0  0  0  0  0  0  0
   69.8110   49.2124   56.4781 C   0  0  0  0  0  0  0  0  0  0  0  0
   69.0483   48.6561   55.4897 C   0  0  0  0  0  0  0  0  0  0  0  0
   68.8366   47.2938   55.5022 C   0  0  0  0  0  0  0  0  0  0  0  0
   68.0650   46.6800   54.5123 C   0  0  0  0  0  0  0  0  0  0  0  0
   67.8666   45.3337   54.5408 C   0  0  0  0  0  0  0  0  0  0  0  0
   68.4137   44.5571   55.5271 C   0  0  0  0  0  0  0  0  0  0  0  0
   69.1549   45.1595   56.4737 N   0  0  0  0  0  0  0  0  0  0  0  0
   69.3744   46.4975   56.4790 C   0  0  0  0  0  0  0  0  0  0  0  0
  1  2  2  0
  2 16  1  0
  2  3  1  0
 16 17  1  0
 17 18  1  0
 18 19  2  0
 18 20  2  0
 18 21  1  0
 21 22  2  0
 21 30  1  0
 22 23  1  0
 23 24  2  0
 24 25  1  0
 25 26  1  0
 25 30  2  0
 26 27  2  0
 27 28  1  0
 28 29  2  0
 29 30  1  0
  3  4  1  0
  3  8  1  0
  4  5  1  0
  5  6  1  0
  6  9  1  0
  6  7  1  0
  9 10  2  0
  9 14  1  0
 10 11  1  0
 11 12  2  0
 12 13  1  0
 13 14  2  0
 14 15  1  0
  7  8  1  0
M  END
>  <minimizedAffinity>  (522) 
-8.50020

$$$$
