data/reference_output_2/data/smiles/149221.pdb
     RDKit          3D

 27 30  0  0  0  0  0  0  0  0999 V2000
   69.6441   40.2609   58.3283 N   0  0  0  0  0  0  0  0  0  0  0  0
   70.2399   41.4007   59.0340 C   0  0  0  0  0  0  0  0  0  0  0  0
   70.4523   42.5730   58.1248 C   0  0  0  0  0  0  0  0  0  0  0  0
   69.3334   42.8988   57.2413 C   0  0  0  0  0  0  0  0  0  0  0  0
   68.9572   44.0627   56.6227 C   0  0  0  0  0  0  0  0  0  0  0  0
   67.8361   43.7272   55.8969 N   0  0  0  0  0  0  0  0  0  0  0  0
   67.5577   42.4697   56.0631 N   0  0  0  0  0  0  0  0  0  0  0  0
   68.4541   41.8794   56.8966 C   0  0  0  0  0  0  0  0  0  0  0  0
   68.5735   40.5297   57.4201 C   0  0  0  0  0  0  0  0  0  0  0  0
   67.7441   39.6743   57.0598 O   0  0  0  0  0  0  0  0  0  0  0  0
   71.8549   35.0890   59.3720 C   0  0  0  0  0  0  0  0  0  0  0  0
   71.2798   36.4290   59.0888 C   0  0  0  0  0  0  0  0  0  0  0  0
   70.1329   36.8723   59.6924 C   0  0  0  0  0  0  0  0  0  0  0  0
   69.5682   38.1027   59.4598 C   0  0  0  0  0  0  0  0  0  0  0  0
   70.1735   38.9770   58.5603 C   0  0  0  0  0  0  0  0  0  0  0  0
   71.3404   38.5238   57.9482 C   0  0  0  0  0  0  0  0  0  0  0  0
   71.8870   37.2740   58.2044 C   0  0  0  0  0  0  0  0  0  0  0  0
   69.4946   45.3539   56.6531 N   0  0  0  0  0  0  0  0  0  0  0  0
   68.9787   46.8220   56.0373 S   0  0  0  0  0  0  0  0  0  0  0  0
   69.8238   48.0053   56.4326 O   0  0  0  0  0  0  0  0  0  0  0  0
   67.5831   47.1359   56.6271 O   0  0  0  0  0  0  0  0  0  0  0  0
   68.6992   46.7754   54.3199 C   0  0  0  0  0  0  0  0  0  0  0  0
   69.3774   47.6571   53.4664 C   0  0  0  0  0  0  0  0  0  0  0  0
   69.2160   47.6167   52.0974 C   0  0  0  0  0  0  0  0  0  0  0  0
   68.3615   46.6818   51.5558 C   0  0  0  0  0  0  0  0  0  0  0  0
   67.6632   45.7839   52.3568 C   0  0  0  0  0  0  0  0  0  0  0  0
   67.8617   45.8654   53.7323 C   0  0  0  0  0  0  0  0  0  0  0  0
 11 12  1  0
 12 13  2  0
 12 17  1  0
 13 14  1  0
 14 15  2  0
 15  1  1  0
 15 16  1  0
  1  2  1  0
  1  9  1  0
  2  3  1  0
  3  4  1  0
  4  5  1  0
  4  8  2  0
  5 18  1  0
  5  6  2  0
 18 19  1  0
 19 20  2  0
 19 21  2  0
 19 22  1  0
 22 23  2  0
 22 27  1  0
 23 24  1  0
 24 25  2  0
 25 26  1  0
 26 27  2  0
  6  7  1  0
  7  8  1  0
  8  9  1  0
  9 10  2  0
 16 17  2  0
M  END
>  <minimizedAffinity>  (1) 
-10.13291

$$$$
data/200k_reference_output/data/smiles/677.pdb
     RDKit          3D

 30 33  0  0  0  0  0  0  0  0999 V2000
   70.9279   38.9879   58.4427 N   0  0  0  0  0  0  0  0  0  0  0  0
   69.6682   39.4101   58.2108 C   0  0  0  0  0  0  0  0  0  0  0  0
   68.7686   38.5161   58.0894 O   0  0  0  0  0  0  0  0  0  0  0  0
   69.3308   40.7095   58.1045 N   0  0  0  0  0  0  0  0  0  0  0  0
   70.2383   41.6967   58.2238 C   0  0  0  0  0  0  0  0  0  0  0  0
   69.9062   43.0297   58.1167 C   0  0  0  0  0  0  0  0  0  0  0  0
   70.8484   44.0603   58.2401 C   0  0  0  0  0  0  0  0  0  0  0  0
   72.1378   43.6544   58.4772 C   0  0  0  0  0  0  0  0  0  0  0  0
   72.4815   42.3090   58.5863 C   0  0  0  0  0  0  0  0  0  0  0  0
   71.5407   41.3094   58.4621 C   0  0  0  0  0  0  0  0  0  0  0  0
   71.8549   39.9694   58.5659 C   0  0  0  0  0  0  0  0  0  0  0  0
   73.0474   39.6266   58.7848 O   0  0  0  0  0  0  0  0  0  0  0  0
   72.3939   33.4748   58.6999 C   0  0  0  0  0  0  0  0  0  0  0  0
   72.0134   34.9151   58.6294 C   0  0  0  0  0  0  0  0  0  0  0  0
   72.4254   35.7297   57.5977 C   0  0  0  0  0  0  0  0  0  0  0  0
   72.0503   37.0546   57.5720 C   0  0  0  0  0  0  0  0  0  0  0  0
   71.2642   37.6135   58.5527 C   0  0  0  0  0  0  0  0  0  0  0  0
   70.8618   36.7822   59.5767 C   0  0  0  0  0  0  0  0  0  0  0  0
   71.2216   35.4508   59.6304 C   0  0  0  0  0  0  0  0  0  0  0  0
   70.4300   45.4507   58.1168 C   0  0  0  0  0  0  0  0  0  0  0  0
   70.6791   46.2983   59.0290 O   0  0  0  0  0  0  0  0  0  0  0  0
   69.7352   45.9071   56.9860 N   0  0  0  0  0  0  0  0  0  0  0  0
   69.3355   47.3102   56.9057 C   0  0  0  0  0  0  0  0  0  0  0  0
   68.2120   47.5561   55.9628 C   0  0  0  0  0  0  0  0  0  0  0  0
   68.5219   47.3657   54.5385 C   0  0  0  0  0  0  0  0  0  0  0  0
   69.3700   48.2064   53.8531 C   0  0  0  0  0  0  0  0  0  0  0  0
   69.6044   47.9613   52.5047 C   0  0  0  0  0  0  0  0  0  0  0  0
   69.0240   46.9121   51.8224 C   0  0  0  0  0  0  0  0  0  0  0  0
   68.1803   46.0916   52.5423 C   0  0  0  0  0  0  0  0  0  0  0  0
   67.9150   46.2891   53.8776 C   0  0  0  0  0  0  0  0  0  0  0  0
 13 14  1  0
 14 15  2  0
 14 19  1  0
 15 16  1  0
 16 17  2  0
 17  1  1  0
 17 18  1  0
  1  2  1  0
  1 11  1  0
  2  3  2  0
  2  4  1  0
  4  5  1  0
  5  6  2  0
  5 10  1  0
  6  7  1  0
  7 20  1  0
  7  8  2  0
 20 21  2  0
 20 22  1  0
 22 23  1  0
 23 24  1  0
 24 25  1  0
 25 26  2  0
 25 30  1  0
 26 27  1  0
 27 28  2  0
 28 29  1  0
 29 30  2  0
  8  9  1  0
  9 10  2  0
 10 11  1  0
 11 12  2  0
 18 19  2  0
M  END
>  <minimizedAffinity>  (2) 
-10.10254

$$$$
data/reference_output_2/data/smiles/103253.pdb
     RDKit          3D

 28 31  0  0  0  0  0  0  0  0999 V2000
   70.4999   45.6163   58.1631 C   0  0  0  0  0  0  0  0  0  0  0  0
   71.6026   46.1075   58.8288 C   0  0  0  0  0  0  0  0  0  0  0  0
   71.9963   47.4383   58.6847 C   0  0  0  0  0  0  0  0  0  0  0  0
   71.2758   48.2812   57.8660 C   0  0  0  0  0  0  0  0  0  0  0  0
   70.1638   47.8270   57.1807 C   0  0  0  0  0  0  0  0  0  0  0  0
   69.8218   46.5095   57.3589 C   0  0  0  0  0  0  0  0  0  0  0  0
   68.9595   44.1876   56.3734 O   0  0  0  0  0  0  0  0  0  0  0  0
   69.3316   43.5413   57.4070 C   0  0  0  0  0  0  0  0  0  0  0  0
   70.1167   44.2537   58.3280 N   0  0  0  0  0  0  0  0  0  0  0  0
   68.9182   42.1525   57.5376 C   0  0  0  0  0  0  0  0  0  0  0  0
   69.3019   41.3622   58.5973 C   0  0  0  0  0  0  0  0  0  0  0  0
   68.8825   40.0321   58.6848 C   0  0  0  0  0  0  0  0  0  0  0  0
   68.0767   39.4720   57.7190 C   0  0  0  0  0  0  0  0  0  0  0  0
   67.6869   38.2650   57.7837 O   0  0  0  0  0  0  0  0  0  0  0  0
   67.7160   40.2637   56.6937 N   0  0  0  0  0  0  0  0  0  0  0  0
   68.1122   41.5599   56.5886 C   0  0  0  0  0  0  0  0  0  0  0  0
   69.3865   48.7384   56.2802 C   0  0  0  0  0  0  0  0  0  0  0  0
   69.6757   48.5839   54.8650 C   0  0  0  0  0  0  0  0  0  0  0  0
   70.6748   49.3426   54.3561 N   0  0  0  0  0  0  0  0  0  0  0  0
   71.0126   49.2897   53.0791 N   0  0  0  0  0  0  0  0  0  0  0  0
   70.3952   48.4881   52.2041 C   0  0  0  0  0  0  0  0  0  0  0  0
   70.7506   48.4751   51.0070 O   0  0  0  0  0  0  0  0  0  0  0  0
   69.3593   47.6798   52.6539 C   0  0  0  0  0  0  0  0  0  0  0  0
   69.0246   47.7511   53.9907 C   0  0  0  0  0  0  0  0  0  0  0  0
   67.9294   46.8930   54.4907 C   0  0  0  0  0  0  0  0  0  0  0  0
   67.7922   45.6178   53.6916 C   0  0  0  0  0  0  0  0  0  0  0  0
   67.6579   45.8885   52.2158 C   0  0  0  0  0  0  0  0  0  0  0  0
   68.6826   46.8059   51.6791 C   0  0  0  0  0  0  0  0  0  0  0  0
  7  8  2  0
  8  9  1  0
  8 10  1  0
  9  1  1  0
  1  2  2  0
  1  6  1  0
  2  3  1  0
  3  4  2  0
  4  5  1  0
  5 17  1  0
  5  6  2  0
 17 18  1  0
 18 19  2  0
 18 24  1  0
 19 20  1  0
 20 21  1  0
 21 22  2  0
 21 23  1  0
 23 24  2  0
 23 28  1  0
 24 25  1  0
 25 26  1  0
 26 27  1  0
 27 28  1  0
 10 11  1  0
 10 16  2  0
 11 12  2  0
 12 13  1  0
 13 14  2  0
 13 15  1  0
 15 16  1  0
M  END
>  <minimizedAffinity>  (3) 
-9.97238

$$$$
data/200k_reference_output/data/smiles/49822.pdb
     RDKit          3D

 27 30  0  0  0  0  0  0  0  0999 V2000
   69.9601   47.8314   57.2519 C   0  0  0  0  0  0  0  0  0  0  0  0
   70.6918   48.5385   58.1858 C   0  0  0  0  0  0  0  0  0  0  0  0
   71.5383   47.8992   59.0529 C   0  0  0  0  0  0  0  0  0  0  0  0
   71.6813   46.5287   59.0142 C   0  0  0  0  0  0  0  0  0  0  0  0
   70.9503   45.7977   58.0766 C   0  0  0  0  0  0  0  0  0  0  0  0
   70.1060   46.4674   57.2165 C   0  0  0  0  0  0  0  0  0  0  0  0
   69.0664   48.5499   56.2956 C   0  0  0  0  0  0  0  0  0  0  0  0
   70.6976   48.6290   51.1682 O   0  0  0  0  0  0  0  0  0  0  0  0
   70.3188   48.6002   52.3646 C   0  0  0  0  0  0  0  0  0  0  0  0
   70.8766   49.4134   53.2603 N   0  0  0  0  0  0  0  0  0  0  0  0
   70.4579   49.3588   54.5038 N   0  0  0  0  0  0  0  0  0  0  0  0
   69.4719   48.4970   54.9065 C   0  0  0  0  0  0  0  0  0  0  0  0
   68.8698   47.6359   54.0036 C   0  0  0  0  0  0  0  0  0  0  0  0
   69.2965   47.6860   52.7144 C   0  0  0  0  0  0  0  0  0  0  0  0
   68.7346   46.8316   51.6466 C   0  0  0  0  0  0  0  0  0  0  0  0
   67.6476   45.9742   52.1600 C   0  0  0  0  0  0  0  0  0  0  0  0
   67.9387   45.4545   53.5664 C   0  0  0  0  0  0  0  0  0  0  0  0
   67.8335   46.7059   54.4607 C   0  0  0  0  0  0  0  0  0  0  0  0
   71.1004   44.3762   58.0086 N   0  0  0  0  0  0  0  0  0  0  0  0
   70.0015   43.2372   58.6063 S   0  0  0  0  0  0  0  0  0  0  0  0
   69.2445   43.8515   59.7531 O   0  0  0  0  0  0  0  0  0  0  0  0
   70.7649   42.0417   59.1148 O   0  0  0  0  0  0  0  0  0  0  0  0
   68.8453   42.6582   57.4320 C   0  0  0  0  0  0  0  0  0  0  0  0
   68.5329   41.3436   57.1549 C   0  0  0  0  0  0  0  0  0  0  0  0
   67.5745   41.3146   56.1649 C   0  0  0  0  0  0  0  0  0  0  0  0
   67.3358   42.6415   55.8712 C   0  0  0  0  0  0  0  0  0  0  0  0
   68.0997   43.3968   56.6354 O   0  0  0  0  0  0  0  0  0  0  0  0
  8  9  2  0
  9 10  1  0
  9 14  1  0
 10 11  1  0
 11 12  2  0
 12  7  1  0
 12 13  1  0
  7  1  1  0
  1  2  2  0
  1  6  1  0
  2  3  1  0
  3  4  2  0
  4  5  1  0
  5 19  1  0
  5  6  2  0
 19 20  1  0
 20 21  2  0
 20 22  2  0
 20 23  1  0
 23 24  2  0
 23 27  1  0
 24 25  1  0
 25 26  2  0
 26 27  1  0
 13 14  2  0
 13 18  1  0
 14 15  1  0
 15 16  1  0
 16 17  1  0
 17 18  1  0
M  END
>  <minimizedAffinity>  (4) 
-9.97055

$$$$
data/reference_output_2/data/smiles/145304.pdb
     RDKit          3D

 27 30  0  0  0  0  0  0  0  0999 V2000
   70.6481   45.9343   58.1373 C   0  0  0  0  0  0  0  0  0  0  0  0
   71.5004   46.6909   58.9153 C   0  0  0  0  0  0  0  0  0  0  0  0
   71.4950   48.0748   58.8398 C   0  0  0  0  0  0  0  0  0  0  0  0
   70.6400   48.7320   57.9868 C   0  0  0  0  0  0  0  0  0  0  0  0
   69.7613   47.9990   57.1826 C   0  0  0  0  0  0  0  0  0  0  0  0
   69.8005   46.6358   57.2904 C   0  0  0  0  0  0  0  0  0  0  0  0
   71.7482   43.8877   58.1199 O   0  0  0  0  0  0  0  0  0  0  0  0
   70.6478   44.4792   58.2377 C   0  0  0  0  0  0  0  0  0  0  0  0
   69.4839   43.6960   58.4601 N   0  0  0  0  0  0  0  0  0  0  0  0
   69.5312   42.2394   58.5636 C   0  0  0  0  0  0  0  0  0  0  0  0
   68.6512   41.7315   57.4732 C   0  0  0  0  0  0  0  0  0  0  0  0
   67.9249   42.4020   56.5174 C   0  0  0  0  0  0  0  0  0  0  0  0
   67.2793   41.4333   55.7441 C   0  0  0  0  0  0  0  0  0  0  0  0
   67.5947   40.2464   56.2043 O   0  0  0  0  0  0  0  0  0  0  0  0
   68.4047   40.3750   57.2268 C   0  0  0  0  0  0  0  0  0  0  0  0
   68.8289   48.7763   56.3266 C   0  0  0  0  0  0  0  0  0  0  0  0
   69.3063   48.6444   54.9187 C   0  0  0  0  0  0  0  0  0  0  0  0
   70.1300   49.5917   54.4658 N   0  0  0  0  0  0  0  0  0  0  0  0
   70.5677   49.6545   53.2213 N   0  0  0  0  0  0  0  0  0  0  0  0
   70.1871   48.7311   52.3244 C   0  0  0  0  0  0  0  0  0  0  0  0
   70.6072   48.7968   51.1290 O   0  0  0  0  0  0  0  0  0  0  0  0
   69.3349   47.7230   52.7362 C   0  0  0  0  0  0  0  0  0  0  0  0
   68.8828   47.6673   54.0489 C   0  0  0  0  0  0  0  0  0  0  0  0
   68.0422   46.5751   54.5407 C   0  0  0  0  0  0  0  0  0  0  0  0
   67.7860   45.4875   53.5206 C   0  0  0  0  0  0  0  0  0  0  0  0
   67.6428   46.0448   52.1197 C   0  0  0  0  0  0  0  0  0  0  0  0
   68.9379   46.7252   51.7051 C   0  0  0  0  0  0  0  0  0  0  0  0
  7  8  2  0
  8  9  1  0
  8  1  1  0
  9 10  1  0
 10 11  1  0
 11 12  1  0
 11 15  2  0
 12 13  2  0
 13 14  1  0
 14 15  1  0
  1  2  2  0
  1  6  1  0
  2  3  1  0
  3  4  2  0
  4  5  1  0
  5 16  1  0
  5  6  2  0
 16 17  1  0
 17 18  2  0
 17 23  1  0
 18 19  1  0
 19 20  1  0
 20 21  2  0
 20 22  1  0
 22 23  2  0
 22 27  1  0
 23 24  1  0
 24 25  1  0
 25 26  1  0
 26 27  1  0
M  END
>  <minimizedAffinity>  (5) 
-9.94783

$$$$
data/reference_output_2/data/smiles/134046.pdb
     RDKit          3D

 29 32  0  0  0  0  0  0  0  0999 V2000
   69.7505   39.4995   58.9898 C   0  0  0  0  0  0  0  0  0  0  0  0
   69.3466   40.7718   59.7333 C   0  0  0  0  0  0  0  0  0  0  0  0
   69.0961   41.8004   58.6107 C   0  0  0  0  0  0  0  0  0  0  0  0
   68.0922   41.2601   57.7178 N   0  0  0  0  0  0  0  0  0  0  0  0
   67.7419   41.9630   56.5593 C   0  0  0  0  0  0  0  0  0  0  0  0
   66.8725   41.4926   55.7926 O   0  0  0  0  0  0  0  0  0  0  0  0
   67.4734   39.9799   58.0687 C   0  0  0  0  0  0  0  0  0  0  0  0
   68.5028   38.9156   58.3908 C   0  0  0  0  0  0  0  0  0  0  0  0
   68.3525   43.2314   56.2082 C   0  0  0  0  0  0  0  0  0  0  0  0
   69.5068   43.4391   56.6280 O   0  0  0  0  0  0  0  0  0  0  0  0
   67.6990   44.2002   55.4331 N   0  0  0  0  0  0  0  0  0  0  0  0
   68.2364   45.4575   55.0540 C   0  0  0  0  0  0  0  0  0  0  0  0
   68.6332   46.4532   55.8909 C   0  0  0  0  0  0  0  0  0  0  0  0
   69.1532   47.6651   55.4188 C   0  0  0  0  0  0  0  0  0  0  0  0
   69.2881   47.9043   54.0678 C   0  0  0  0  0  0  0  0  0  0  0  0
   68.8937   46.9131   53.1940 C   0  0  0  0  0  0  0  0  0  0  0  0
   68.3903   45.7403   53.6806 C   0  0  0  0  0  0  0  0  0  0  0  0
   69.1428   47.4238   51.8127 C   0  0  0  0  0  0  0  0  0  0  0  0
   69.6995   48.7609   51.9860 C   0  0  0  0  0  0  0  0  0  0  0  0
   70.0494   49.5420   51.0788 O   0  0  0  0  0  0  0  0  0  0  0  0
   69.7795   49.0354   53.3680 N   0  0  0  0  0  0  0  0  0  0  0  0
   70.4842   38.6008   59.9259 C   0  0  0  0  0  0  0  0  0  0  0  0
   73.0529   34.2451   57.0784 C   0  0  0  0  0  0  0  0  0  0  0  0
   72.3821   35.3414   57.8255 C   0  0  0  0  0  0  0  0  0  0  0  0
   72.5381   36.6493   57.4402 C   0  0  0  0  0  0  0  0  0  0  0  0
   71.9365   37.7007   58.1016 C   0  0  0  0  0  0  0  0  0  0  0  0
   71.1261   37.4657   59.2156 C   0  0  0  0  0  0  0  0  0  0  0  0
   70.9735   36.1520   59.5970 C   0  0  0  0  0  0  0  0  0  0  0  0
   71.5866   35.0926   58.9218 C   0  0  0  0  0  0  0  0  0  0  0  0
 23 24  1  0
 24 25  2  0
 24 29  1  0
 25 26  1  0
 26 27  2  0
 27 22  1  0
 27 28  1  0
 22  1  1  0
  1  2  1  0
  1  8  1  0
  2  3  1  0
  3  4  1  0
  4  5  1  0
  4  7  1  0
  5  6  2  0
  5  9  1  0
  9 10  2  0
  9 11  1  0
 11 12  1  0
 12 13  2  0
 12 17  1  0
 13 14  1  0
 14 15  2  0
 15 16  1  0
 15 21  1  0
 16 17  2  0
 16 18  1  0
 18 19  1  0
 19 20  2  0
 19 21  1  0
  7  8  1  0
 28 29  2  0
M  END
>  <minimizedAffinity>  (6) 
-9.93679

$$$$
data/reference_output_2/data/smiles/88310.pdb
     RDKit          3D

 26 29  0  0  0  0  0  0  0  0999 V2000
   70.3146   45.2220   57.7827 C   0  0  0  0  0  0  0  0  0  0  0  0
   71.4161   45.6644   58.5016 C   0  0  0  0  0  0  0  0  0  0  0  0
   71.7664   47.0004   58.4880 C   0  0  0  0  0  0  0  0  0  0  0  0
   71.0312   47.9443   57.7592 C   0  0  0  0  0  0  0  0  0  0  0  0
   69.9397   47.5226   57.0424 C   0  0  0  0  0  0  0  0  0  0  0  0
   69.6236   46.1816   57.0818 C   0  0  0  0  0  0  0  0  0  0  0  0
   68.2679   44.0473   56.3034 O   0  0  0  0  0  0  0  0  0  0  0  0
   68.9313   43.2728   57.0554 C   0  0  0  0  0  0  0  0  0  0  0  0
   69.9627   43.8462   57.8035 N   0  0  0  0  0  0  0  0  0  0  0  0
   68.6016   41.8432   57.1090 C   0  0  0  0  0  0  0  0  0  0  0  0
   67.9262   40.9598   56.3946 C   0  0  0  0  0  0  0  0  0  0  0  0
   67.8815   39.7264   56.8208 N   0  0  0  0  0  0  0  0  0  0  0  0
   68.3687   39.2336   57.7893 C   0  0  0  0  0  0  0  0  0  0  0  0
   69.2205   40.7816   58.5174 S   0  0  0  0  0  0  0  0  0  0  0  0
   69.0928   48.4563   56.2153 C   0  0  0  0  0  0  0  0  0  0  0  0
   69.5045   48.4060   54.7905 C   0  0  0  0  0  0  0  0  0  0  0  0
   70.5340   49.1975   54.3491 N   0  0  0  0  0  0  0  0  0  0  0  0
   70.9308   49.2088   53.0943 N   0  0  0  0  0  0  0  0  0  0  0  0
   70.3666   48.4528   52.1402 C   0  0  0  0  0  0  0  0  0  0  0  0
   70.7737   48.4926   50.9530 O   0  0  0  0  0  0  0  0  0  0  0  0
   69.3103   47.6249   52.5336 C   0  0  0  0  0  0  0  0  0  0  0  0
   68.9005   47.6196   53.8557 C   0  0  0  0  0  0  0  0  0  0  0  0
   67.7914   46.7311   54.2810 C   0  0  0  0  0  0  0  0  0  0  0  0
   67.8308   45.5019   53.3679 C   0  0  0  0  0  0  0  0  0  0  0  0
   67.5345   46.0387   51.9656 C   0  0  0  0  0  0  0  0  0  0  0  0
   68.7087   46.8135   51.4680 C   0  0  0  0  0  0  0  0  0  0  0  0
  7  8  2  0
  8  9  1  0
  8 10  1  0
  9  1  1  0
  1  2  2  0
  1  6  1  0
  2  3  1  0
  3  4  2  0
  4  5  1  0
  5 15  1  0
  5  6  2  0
 15 16  1  0
 16 17  2  0
 16 22  1  0
 17 18  1  0
 18 19  1  0
 19 20  2  0
 19 21  1  0
 21 22  2  0
 21 26  1  0
 22 23  1  0
 23 24  1  0
 24 25  1  0
 25 26  1  0
 10 11  2  0
 10 14  1  0
 11 12  1  0
 12 13  2  0
 13 14  1  0
M  END
>  <minimizedAffinity>  (7) 
-9.87731

$$$$
data/reference_output_2/data/smiles/185671.pdb
     RDKit          3D

 27 29  0  0  0  0  0  0  0  0999 V2000
   69.7043   46.3447   57.4520 N   0  0  0  0  0  0  0  0  0  0  0  0
   69.8637   47.7022   57.0792 C   0  0  0  0  0  0  0  0  0  0  0  0
   70.8927   48.3070   57.4681 O   0  0  0  0  0  0  0  0  0  0  0  0
   70.6472   45.6020   58.2532 C   0  0  0  0  0  0  0  0  0  0  0  0
   70.3394   43.1660   57.5400 N   0  0  0  0  0  0  0  0  0  0  0  0
   70.1413   44.2336   58.4514 C   0  0  0  0  0  0  0  0  0  0  0  0
   69.4872   43.9678   59.4888 O   0  0  0  0  0  0  0  0  0  0  0  0
   72.1038   41.2820   58.5107 C   0  0  0  0  0  0  0  0  0  0  0  0
   70.7121   40.8920   58.2062 C   0  0  0  0  0  0  0  0  0  0  0  0
   70.2649   39.6031   58.3932 C   0  0  0  0  0  0  0  0  0  0  0  0
   71.3666   38.3902   59.0074 Cl  0  0  0  0  0  0  0  0  0  0  0  0
   68.9685   39.2252   58.1118 C   0  0  0  0  0  0  0  0  0  0  0  0
   68.1160   40.2071   57.6251 C   0  0  0  0  0  0  0  0  0  0  0  0
   68.5530   41.5199   57.4292 C   0  0  0  0  0  0  0  0  0  0  0  0
   69.8562   41.8504   57.7242 C   0  0  0  0  0  0  0  0  0  0  0  0
   68.8872   48.4559   56.2542 C   0  0  0  0  0  0  0  0  0  0  0  0
   69.3325   48.5430   54.8327 C   0  0  0  0  0  0  0  0  0  0  0  0
   70.1976   49.4681   54.3884 N   0  0  0  0  0  0  0  0  0  0  0  0
   70.6068   49.5664   53.1481 N   0  0  0  0  0  0  0  0  0  0  0  0
   70.1670   48.7167   52.2160 C   0  0  0  0  0  0  0  0  0  0  0  0
   70.5199   48.7554   51.0074 O   0  0  0  0  0  0  0  0  0  0  0  0
   69.2598   47.7259   52.6170 C   0  0  0  0  0  0  0  0  0  0  0  0
   68.7760   46.8196   51.6822 C   0  0  0  0  0  0  0  0  0  0  0  0
   67.8831   45.8294   52.0279 C   0  0  0  0  0  0  0  0  0  0  0  0
   67.4836   45.7655   53.3396 C   0  0  0  0  0  0  0  0  0  0  0  0
   67.9433   46.6454   54.2869 C   0  0  0  0  0  0  0  0  0  0  0  0
   68.8321   47.6239   53.9189 C   0  0  0  0  0  0  0  0  0  0  0  0
  8  9  1  0
  9 10  2  0
  9 15  1  0
 10 11  1  0
 10 12  1  0
 12 13  2  0
 13 14  1  0
 14 15  2  0
 15  5  1  0
  5  6  1  0
  6  7  2  0
  6  4  1  0
  4  1  1  0
  1  2  1  0
  2  3  2  0
  2 16  1  0
 16 17  1  0
 17 18  2  0
 17 27  1  0
 18 19  1  0
 19 20  1  0
 20 21  2  0
 20 22  1  0
 22 23  1  0
 22 27  2  0
 23 24  2  0
 24 25  1  0
 25 26  2  0
 26 27  1  0
M  END
>  <minimizedAffinity>  (8) 
-9.82524

$$$$
data/reference_output_2/data/smiles/172592.pdb
     RDKit          3D

 28 31  0  0  0  0  0  0  0  0999 V2000
   69.7652   40.3897   58.2592 N   0  0  0  0  0  0  0  0  0  0  0  0
   70.4638   41.5080   58.8756 C   0  0  0  0  0  0  0  0  0  0  0  0
   70.4604   42.7702   58.1045 C   0  0  0  0  0  0  0  0  0  0  0  0
   69.3312   43.0104   57.2026 C   0  0  0  0  0  0  0  0  0  0  0  0
   68.9102   44.1914   56.5651 C   0  0  0  0  0  0  0  0  0  0  0  0
   67.8263   43.8454   55.8528 N   0  0  0  0  0  0  0  0  0  0  0  0
   67.5581   42.5608   56.0068 N   0  0  0  0  0  0  0  0  0  0  0  0
   68.4827   42.0065   56.8482 C   0  0  0  0  0  0  0  0  0  0  0  0
   68.6882   40.6729   57.3741 C   0  0  0  0  0  0  0  0  0  0  0  0
   67.8874   39.7364   57.0397 O   0  0  0  0  0  0  0  0  0  0  0  0
   70.9829   36.4092   59.2414 C   0  0  0  0  0  0  0  0  0  0  0  0
   71.6781   37.1553   58.3204 C   0  0  0  0  0  0  0  0  0  0  0  0
   71.3112   38.4658   57.9888 C   0  0  0  0  0  0  0  0  0  0  0  0
   70.2316   39.0814   58.5652 C   0  0  0  0  0  0  0  0  0  0  0  0
   69.5315   38.3289   59.4933 C   0  0  0  0  0  0  0  0  0  0  0  0
   69.8880   37.0246   59.8321 C   0  0  0  0  0  0  0  0  0  0  0  0
   72.1096   34.2557   58.8136 C   0  0  0  0  0  0  0  0  0  0  0  0
   71.3187   35.1085   59.5960 O   0  0  0  0  0  0  0  0  0  0  0  0
   69.5420   45.4598   56.6826 N   0  0  0  0  0  0  0  0  0  0  0  0
   68.8452   46.8775   56.0006 S   0  0  0  0  0  0  0  0  0  0  0  0
   69.7713   48.0472   56.2736 O   0  0  0  0  0  0  0  0  0  0  0  0
   67.5509   47.1873   56.6913 O   0  0  0  0  0  0  0  0  0  0  0  0
   68.6446   46.7625   54.2877 C   0  0  0  0  0  0  0  0  0  0  0  0
   69.3433   47.6034   53.4489 C   0  0  0  0  0  0  0  0  0  0  0  0
   69.2334   47.5709   52.0880 C   0  0  0  0  0  0  0  0  0  0  0  0
   68.3884   46.6609   51.4826 C   0  0  0  0  0  0  0  0  0  0  0  0
   67.6764   45.8058   52.2939 C   0  0  0  0  0  0  0  0  0  0  0  0
   67.8020   45.8565   53.6640 C   0  0  0  0  0  0  0  0  0  0  0  0
 17 18  1  0
 18 11  1  0
 11 12  2  0
 11 16  1  0
 12 13  1  0
 13 14  2  0
 14  1  1  0
 14 15  1  0
  1  2  1  0
  1  9  1  0
  2  3  1  0
  3  4  1  0
  4  5  1  0
  4  8  2  0
  5 19  1  0
  5  6  2  0
 19 20  1  0
 20 21  2  0
 20 22  2  0
 20 23  1  0
 23 24  2  0
 23 28  1  0
 24 25  1  0
 25 26  2  0
 26 27  1  0
 27 28  2  0
  6  7  1  0
  7  8  1  0
  8  9  1  0
  9 10  2  0
 15 16  2  0
M  END
>  <minimizedAffinity>  (9) 
-9.82261

$$$$
data/200k_reference_output/data/smiles/6430.pdb
     RDKit          3D

 28 30  0  0  0  0  0  0  0  0999 V2000
   68.2993   43.4720   56.2355 C   0  0  0  0  0  0  0  0  0  0  0  0
   69.1940   43.7661   57.0297 O   0  0  0  0  0  0  0  0  0  0  0  0
   67.8611   44.4060   55.2826 N   0  0  0  0  0  0  0  0  0  0  0  0
   68.3805   45.7126   55.1509 C   0  0  0  0  0  0  0  0  0  0  0  0
   68.7270   46.5697   56.1331 C   0  0  0  0  0  0  0  0  0  0  0  0
   69.2324   47.8436   55.8916 C   0  0  0  0  0  0  0  0  0  0  0  0
   69.4153   48.3185   54.5986 C   0  0  0  0  0  0  0  0  0  0  0  0
   69.0700   47.4658   53.5816 C   0  0  0  0  0  0  0  0  0  0  0  0
   68.5712   46.2087   53.8505 C   0  0  0  0  0  0  0  0  0  0  0  0
   69.2600   47.9605   52.2234 C   0  0  0  0  0  0  0  0  0  0  0  0
   68.9575   47.2144   51.2662 O   0  0  0  0  0  0  0  0  0  0  0  0
   69.7857   49.2859   51.9374 C   0  0  0  0  0  0  0  0  0  0  0  0
   69.9579   49.7337   50.7763 O   0  0  0  0  0  0  0  0  0  0  0  0
   70.1300   50.1371   53.0247 N   0  0  0  0  0  0  0  0  0  0  0  0
   69.9450   49.6555   54.3447 C   0  0  0  0  0  0  0  0  0  0  0  0
   70.2344   50.3672   55.3357 O   0  0  0  0  0  0  0  0  0  0  0  0
   67.6358   42.1286   56.2326 C   0  0  0  0  0  0  0  0  0  0  0  0
   67.5371   41.5471   57.6120 C   0  0  0  0  0  0  0  0  0  0  0  0
   67.9954   39.2786   56.9145 O   0  0  0  0  0  0  0  0  0  0  0  0
   68.2563   40.2251   57.7027 C   0  0  0  0  0  0  0  0  0  0  0  0
   69.2525   40.0065   58.6825 N   0  0  0  0  0  0  0  0  0  0  0  0
   69.9653   38.7872   58.8206 C   0  0  0  0  0  0  0  0  0  0  0  0
   71.0872   38.5587   58.0506 C   0  0  0  0  0  0  0  0  0  0  0  0
   71.8144   37.3883   58.1492 C   0  0  0  0  0  0  0  0  0  0  0  0
   71.4455   36.3964   59.0267 C   0  0  0  0  0  0  0  0  0  0  0  0
   72.1389   35.2304   59.1503 F   0  0  0  0  0  0  0  0  0  0  0  0
   70.3271   36.6100   59.8047 C   0  0  0  0  0  0  0  0  0  0  0  0
   69.6019   37.7880   59.6985 C   0  0  0  0  0  0  0  0  0  0  0  0
 19 20  2  0
 20 18  1  0
 20 21  1  0
 18 17  1  0
 17  1  1  0
  1  2  2  0
  1  3  1  0
  3  4  1  0
  4  5  2  0
  4  9  1  0
  5  6  1  0
  6  7  2  0
  7  8  1  0
  7 15  1  0
  8  9  2  0
  8 10  1  0
 10 11  2  0
 10 12  1  0
 12 13  2  0
 12 14  1  0
 14 15  1  0
 15 16  2  0
 21 22  1  0
 22 23  2  0
 22 28  1  0
 23 24  1  0
 24 25  2  0
 25 26  1  0
 25 27  1  0
 27 28  2  0
M  END
>  <minimizedAffinity>  (10) 
-9.76403

$$$$
data/200k_reference_output/data/smiles/61216.pdb
     RDKit          3D

 30 33  0  0  0  0  0  0  0  0999 V2000
   70.3629   44.8130   58.1778 C   0  0  0  0  0  0  0  0  0  0  0  0
   70.1944   45.4796   59.2546 O   0  0  0  0  0  0  0  0  0  0  0  0
   70.2456   45.5873   57.0037 N   0  0  0  0  0  0  0  0  0  0  0  0
   73.0609   43.9594   58.1928 C   0  0  0  0  0  0  0  0  0  0  0  0
   71.9751   42.9560   58.2455 C   0  0  0  0  0  0  0  0  0  0  0  0
   70.6457   43.3866   58.2399 C   0  0  0  0  0  0  0  0  0  0  0  0
   69.7267   42.4155   58.2907 N   0  0  0  0  0  0  0  0  0  0  0  0
   68.4046   42.7221   58.2881 O   0  0  0  0  0  0  0  0  0  0  0  0
   70.0517   41.0860   58.3458 C   0  0  0  0  0  0  0  0  0  0  0  0
   69.0921   40.1056   58.3977 C   0  0  0  0  0  0  0  0  0  0  0  0
   69.4004   38.7650   58.4530 C   0  0  0  0  0  0  0  0  0  0  0  0
   70.7329   38.3554   58.4584 C   0  0  0  0  0  0  0  0  0  0  0  0
   71.7023   39.3433   58.4060 C   0  0  0  0  0  0  0  0  0  0  0  0
   71.3629   40.6792   58.3514 C   0  0  0  0  0  0  0  0  0  0  0  0
   72.2898   41.6423   58.3003 N   0  0  0  0  0  0  0  0  0  0  0  0
   73.6120   41.2384   58.3057 O   0  0  0  0  0  0  0  0  0  0  0  0
   69.9668   47.0102   56.9772 C   0  0  0  0  0  0  0  0  0  0  0  0
   68.6024   47.3140   56.4388 C   0  0  0  0  0  0  0  0  0  0  0  0
   68.1074   48.6473   56.8020 C   0  0  0  0  0  0  0  0  0  0  0  0
   66.9801   48.7883   57.5654 C   0  0  0  0  0  0  0  0  0  0  0  0
   66.5590   50.0638   57.8779 C   0  0  0  0  0  0  0  0  0  0  0  0
   67.2674   51.1713   57.4249 C   0  0  0  0  0  0  0  0  0  0  0  0
   68.4041   51.0354   56.6552 C   0  0  0  0  0  0  0  0  0  0  0  0
   68.8243   49.7595   56.3424 C   0  0  0  0  0  0  0  0  0  0  0  0
   68.5763   47.1291   54.9432 C   0  0  0  0  0  0  0  0  0  0  0  0
   69.2477   47.9978   54.1101 C   0  0  0  0  0  0  0  0  0  0  0  0
   69.2591   47.8748   52.7406 C   0  0  0  0  0  0  0  0  0  0  0  0
   68.5756   46.8462   52.1640 C   0  0  0  0  0  0  0  0  0  0  0  0
   67.8901   45.9530   52.9539 C   0  0  0  0  0  0  0  0  0  0  0  0
   67.8901   46.0931   54.3450 C   0  0  0  0  0  0  0  0  0  0  0  0
  4  5  1  0
  5  6  2  0
  5 15  1  0
  6  1  1  0
  6  7  1  0
  1  2  2  0
  1  3  1  0
  3 17  1  0
 17 18  1  0
 18 19  1  0
 18 25  1  0
 19 20  2  0
 19 24  1  0
 20 21  1  0
 21 22  2  0
 22 23  1  0
 23 24  2  0
 25 26  2  0
 25 30  1  0
 26 27  1  0
 27 28  2  0
 28 29  1  0
 29 30  2  0
  7  8  1  0
  7  9  2  0
  9 10  1  0
  9 14  1  0
 10 11  2  0
 11 12  1  0
 12 13  2  0
 13 14  1  0
 14 15  2  0
 15 16  1  0
M  CHG  4   7   1   8  -1  15   1  16  -1
M  END
>  <minimizedAffinity>  (11) 
-9.71862

$$$$
data/200k_reference_output/data/smiles/60067.pdb
     RDKit          3D

 30 33  0  0  0  0  0  0  0  0999 V2000
   72.8616   35.3546   55.0022 C   0  0  0  0  0  0  0  0  0  0  0  0
   73.9099   35.3057   54.2059 C   0  0  0  0  0  0  0  0  0  0  0  0
   75.1139   35.4261   54.7901 N   0  0  0  0  0  0  0  0  0  0  0  0
   76.2049   35.3876   54.0043 C   0  0  0  0  0  0  0  0  0  0  0  0
   77.3354   35.4938   54.5077 O   0  0  0  0  0  0  0  0  0  0  0  0
   76.1076   35.2273   52.6246 C   0  0  0  0  0  0  0  0  0  0  0  0
   77.1780   35.1941   51.8519 C   0  0  0  0  0  0  0  0  0  0  0  0
   74.9102   35.1098   52.0689 N   0  0  0  0  0  0  0  0  0  0  0  0
   73.8039   35.1460   52.8323 C   0  0  0  0  0  0  0  0  0  0  0  0
   72.6594   35.0382   52.3423 O   0  0  0  0  0  0  0  0  0  0  0  0
   72.3568   37.0195   58.2711 C   0  0  0  0  0  0  0  0  0  0  0  0
   72.9306   36.1351   59.1381 C   0  0  0  0  0  0  0  0  0  0  0  0
   73.4899   34.9714   58.6468 C   0  0  0  0  0  0  0  0  0  0  0  0
   73.5023   34.6467   57.3048 C   0  0  0  0  0  0  0  0  0  0  0  0
   72.9309   35.5279   56.4464 C   0  0  0  0  0  0  0  0  0  0  0  0
   72.3629   36.7065   56.9386 C   0  0  0  0  0  0  0  0  0  0  0  0
   72.3885   39.3104   58.8370 O   0  0  0  0  0  0  0  0  0  0  0  0
   71.7153   38.2770   58.6826 C   0  0  0  0  0  0  0  0  0  0  0  0
   70.2794   38.3381   58.9169 C   0  0  0  0  0  0  0  0  0  0  0  0
   69.4692   39.0928   58.1098 C   0  0  0  0  0  0  0  0  0  0  0  0
   68.0872   39.1540   58.2748 C   0  0  0  0  0  0  0  0  0  0  0  0
   67.5028   38.4325   59.2878 C   0  0  0  0  0  0  0  0  0  0  0  0
   68.2663   37.6665   60.1201 C   0  0  0  0  0  0  0  0  0  0  0  0
   69.6434   37.6275   59.9260 C   0  0  0  0  0  0  0  0  0  0  0  0
   77.1271   35.0307   50.3980 C   0  0  0  0  0  0  0  0  0  0  0  0
   76.3338   34.1161   49.7698 C   0  0  0  0  0  0  0  0  0  0  0  0
   76.3643   34.0575   48.3846 C   0  0  0  0  0  0  0  0  0  0  0  0
   77.1657   34.8852   47.6270 C   0  0  0  0  0  0  0  0  0  0  0  0
   77.9733   35.8151   48.2605 C   0  0  0  0  0  0  0  0  0  0  0  0
   77.9311   35.8618   49.6366 C   0  0  0  0  0  0  0  0  0  0  0  0
 17 18  2  0
 18 19  1  0
 18 11  1  0
 19 20  2  0
 19 24  1  0
 20 21  1  0
 21 22  2  0
 22 23  1  0
 23 24  2  0
 11 12  2  0
 11 16  1  0
 12 13  1  0
 13 14  2  0
 14 15  1  0
 15  1  1  0
 15 16  2  0
  1  2  2  0
  2  3  1  0
  2  9  1  0
  3  4  1  0
  4  5  2  0
  4  6  1  0
  6  7  2  0
  6  8  1  0
  7 25  1  0
 25 26  2  0
 25 30  1  0
 26 27  1  0
 27 28  2  0
 28 29  1  0
 29 30  2  0
  8  9  1  0
  9 10  2  0
M  END
>  <minimizedAffinity>  (12) 
-9.71764

$$$$
data/200k_reference_output/data/smiles/20739.pdb
     RDKit          3D

 26 28  0  0  0  0  0  0  0  0999 V2000
   69.9474   47.5113   57.2719 C   0  0  0  0  0  0  0  0  0  0  0  0
   69.5092   45.0755   56.6735 N   0  0  0  0  0  0  0  0  0  0  0  0
   69.7357   46.0960   57.6308 C   0  0  0  0  0  0  0  0  0  0  0  0
   69.7483   45.7254   58.8215 O   0  0  0  0  0  0  0  0  0  0  0  0
   68.9055   40.9899   57.5763 C   0  0  0  0  0  0  0  0  0  0  0  0
   70.0057   41.6654   58.0592 C   0  0  0  0  0  0  0  0  0  0  0  0
   70.1893   43.0008   57.7561 C   0  0  0  0  0  0  0  0  0  0  0  0
   69.3045   43.7238   56.9692 C   0  0  0  0  0  0  0  0  0  0  0  0
   68.2049   43.0329   56.4924 C   0  0  0  0  0  0  0  0  0  0  0  0
   68.0068   41.6927   56.7880 C   0  0  0  0  0  0  0  0  0  0  0  0
   69.5722   38.8702   58.8597 C   0  0  0  0  0  0  0  0  0  0  0  0
   68.6991   39.5913   57.8861 C   0  0  0  0  0  0  0  0  0  0  0  0
   67.7672   38.9667   57.3280 O   0  0  0  0  0  0  0  0  0  0  0  0
   69.3113   48.1580   56.2006 C   0  0  0  0  0  0  0  0  0  0  0  0
   69.5286   48.3016   54.8606 N   0  0  0  0  0  0  0  0  0  0  0  0
   70.3634   49.2540   54.3994 C   0  0  0  0  0  0  0  0  0  0  0  0
   70.9687   50.0810   55.1723 O   0  0  0  0  0  0  0  0  0  0  0  0
   70.6501   49.4443   53.1011 N   0  0  0  0  0  0  0  0  0  0  0  0
   70.1096   48.6818   52.1644 C   0  0  0  0  0  0  0  0  0  0  0  0
   70.4056   48.8957   50.9548 O   0  0  0  0  0  0  0  0  0  0  0  0
   69.2546   47.6966   52.5425 C   0  0  0  0  0  0  0  0  0  0  0  0
   68.6897   46.8983   51.5697 C   0  0  0  0  0  0  0  0  0  0  0  0
   67.8085   45.8753   51.9305 C   0  0  0  0  0  0  0  0  0  0  0  0
   67.5476   45.7232   53.2975 C   0  0  0  0  0  0  0  0  0  0  0  0
   68.1342   46.5437   54.2369 C   0  0  0  0  0  0  0  0  0  0  0  0
   68.9888   47.5353   53.8854 C   0  0  0  0  0  0  0  0  0  0  0  0
 11 12  1  0
 12 13  2  0
 12  5  1  0
  5  6  2  0
  5 10  1  0
  6  7  1  0
  7  8  2  0
  8  2  1  0
  8  9  1  0
  2  3  1  0
  3  4  2  0
  3  1  1  0
  1 14  1  0
 14 15  1  0
 15 16  1  0
 15 26  1  0
 16 17  2  0
 16 18  1  0
 18 19  1  0
 19 20  2  0
 19 21  1  0
 21 22  1  0
 21 26  2  0
 22 23  2  0
 23 24  1  0
 24 25  2  0
 25 26  1  0
  9 10  2  0
M  END
>  <minimizedAffinity>  (13) 
-9.71211

$$$$
data/reference_output_2/data/smiles/109583.pdb
     RDKit          3D

 28 31  0  0  0  0  0  0  0  0999 V2000
   70.8144   46.4483   58.5143 C   0  0  0  0  0  0  0  0  0  0  0  0
   71.5320   47.3583   59.2722 C   0  0  0  0  0  0  0  0  0  0  0  0
   71.4334   48.7155   59.0753 C   0  0  0  0  0  0  0  0  0  0  0  0
   70.5811   49.1374   58.0806 C   0  0  0  0  0  0  0  0  0  0  0  0
   69.8579   48.2768   57.3142 C   0  0  0  0  0  0  0  0  0  0  0  0
   69.9856   46.9333   57.5440 C   0  0  0  0  0  0  0  0  0  0  0  0
   70.8157   44.6219   59.9791 O   0  0  0  0  0  0  0  0  0  0  0  0
   70.9893   45.0268   58.8043 C   0  0  0  0  0  0  0  0  0  0  0  0
   71.3454   44.0706   57.8422 N   0  0  0  0  0  0  0  0  0  0  0  0
   71.5195   42.6538   58.1217 C   0  0  0  0  0  0  0  0  0  0  0  0
   70.3000   41.8589   57.8305 C   0  0  0  0  0  0  0  0  0  0  0  0
   69.3022   42.4467   57.0437 C   0  0  0  0  0  0  0  0  0  0  0  0
   68.1499   41.7601   56.7289 C   0  0  0  0  0  0  0  0  0  0  0  0
   67.9646   40.4743   57.1888 C   0  0  0  0  0  0  0  0  0  0  0  0
   68.9381   39.9379   57.9399 N   0  0  0  0  0  0  0  0  0  0  0  0
   70.0817   40.5746   58.2710 C   0  0  0  0  0  0  0  0  0  0  0  0
   68.9753   48.7833   56.2814 C   0  0  0  0  0  0  0  0  0  0  0  0
   69.3155   48.6811   54.8997 C   0  0  0  0  0  0  0  0  0  0  0  0
   70.0496   49.6975   54.3486 N   0  0  0  0  0  0  0  0  0  0  0  0
   70.4323   49.7414   53.1088 N   0  0  0  0  0  0  0  0  0  0  0  0
   70.1204   48.7526   52.2524 C   0  0  0  0  0  0  0  0  0  0  0  0
   70.5215   48.8467   51.0464 O   0  0  0  0  0  0  0  0  0  0  0  0
   69.3907   47.7005   52.7164 C   0  0  0  0  0  0  0  0  0  0  0  0
   68.9800   47.6591   54.0631 C   0  0  0  0  0  0  0  0  0  0  0  0
   68.1918   46.5423   54.6058 C   0  0  0  0  0  0  0  0  0  0  0  0
   67.8906   45.5180   53.5399 C   0  0  0  0  0  0  0  0  0  0  0  0
   67.6390   46.1633   52.2168 C   0  0  0  0  0  0  0  0  0  0  0  0
   69.0311   46.6304   51.7472 C   0  0  0  0  0  0  0  0  0  0  0  0
  7  8  2  0
  8  9  1  0
  8  1  1  0
  9 10  1  0
 10 11  1  0
 11 12  2  0
 11 16  1  0
 12 13  1  0
 13 14  2  0
 14 15  1  0
 15 16  2  0
  1  2  2  0
  1  6  1  0
  2  3  1  0
  3  4  2  0
  4  5  1  0
  5 17  1  0
  5  6  2  0
 17 18  1  0
 18 19  2  0
 18 24  1  0
 19 20  1  0
 20 21  1  0
 21 22  2  0
 21 23  1  0
 23 24  2  0
 23 28  1  0
 24 25  1  0
 25 26  1  0
 26 27  1  0
 27 28  1  0
M  END
>  <minimizedAffinity>  (14) 
-9.68891

$$$$
data/reference_output_2/data/smiles/97958.pdb
     RDKit          3D

 28 31  0  0  0  0  0  0  0  0999 V2000
   71.0224   46.1502   58.3656 C   0  0  0  0  0  0  0  0  0  0  0  0
   72.0152   46.9062   58.9709 C   0  0  0  0  0  0  0  0  0  0  0  0
   72.1678   48.2460   58.7238 C   0  0  0  0  0  0  0  0  0  0  0  0
   71.3195   48.8858   57.8494 C   0  0  0  0  0  0  0  0  0  0  0  0
   70.2998   48.1648   57.2113 C   0  0  0  0  0  0  0  0  0  0  0  0
   70.1833   46.8338   57.4864 C   0  0  0  0  0  0  0  0  0  0  0  0
   71.9571   44.0374   58.5224 O   0  0  0  0  0  0  0  0  0  0  0  0
   70.8824   44.7310   58.6416 C   0  0  0  0  0  0  0  0  0  0  0  0
   69.6754   44.1026   59.0186 N   0  0  0  0  0  0  0  0  0  0  0  0
   69.6752   42.7040   59.2599 C   0  0  0  0  0  0  0  0  0  0  0  0
   69.5144   41.8600   58.0073 C   0  0  0  0  0  0  0  0  0  0  0  0
   69.6122   40.3953   58.2503 C   0  0  0  0  0  0  0  0  0  0  0  0
   68.3691   39.6110   57.9900 C   0  0  0  0  0  0  0  0  0  0  0  0
   67.7534   39.8857   56.7320 N   0  0  0  0  0  0  0  0  0  0  0  0
   67.8313   41.2178   56.2587 C   0  0  0  0  0  0  0  0  0  0  0  0
   68.2661   42.2439   57.2439 C   0  0  0  0  0  0  0  0  0  0  0  0
   69.4442   48.9693   56.3185 C   0  0  0  0  0  0  0  0  0  0  0  0
   69.6896   48.7678   54.8777 C   0  0  0  0  0  0  0  0  0  0  0  0
   70.7058   49.4447   54.2586 N   0  0  0  0  0  0  0  0  0  0  0  0
   71.0140   49.2883   53.0013 N   0  0  0  0  0  0  0  0  0  0  0  0
   70.3345   48.4324   52.2230 C   0  0  0  0  0  0  0  0  0  0  0  0
   70.6996   48.3394   51.0100 O   0  0  0  0  0  0  0  0  0  0  0  0
   69.2983   47.7112   52.7595 C   0  0  0  0  0  0  0  0  0  0  0  0
   68.9857   47.8938   54.1069 C   0  0  0  0  0  0  0  0  0  0  0  0
   67.8265   47.1117   54.5983 C   0  0  0  0  0  0  0  0  0  0  0  0
   67.9461   45.6866   54.0823 C   0  0  0  0  0  0  0  0  0  0  0  0
   67.8773   45.6476   52.5778 C   0  0  0  0  0  0  0  0  0  0  0  0
   68.5480   46.7826   51.8967 C   0  0  0  0  0  0  0  0  0  0  0  0
  7  8  2  0
  8  9  1  0
  8  1  1  0
  9 10  1  0
 10 11  1  0
 11 12  1  0
 11 16  1  0
 12 13  1  0
 13 14  1  0
 14 15  1  0
 15 16  1  0
  1  2  2  0
  1  6  1  0
  2  3  1  0
  3  4  2  0
  4  5  1  0
  5 17  1  0
  5  6  2  0
 17 18  1  0
 18 19  2  0
 18 24  1  0
 19 20  1  0
 20 21  1  0
 21 22  2  0
 21 23  1  0
 23 24  2  0
 23 28  1  0
 24 25  1  0
 25 26  1  0
 26 27  1  0
 27 28  1  0
M  CHG  1  14   1
M  END
>  <minimizedAffinity>  (15) 
-9.67789

$$$$
data/reference_output_2/data/smiles/187396.pdb
     RDKit          3D

 26 28  0  0  0  0  0  0  0  0999 V2000
   73.2100   48.9622   57.6048 O   0  0  0  0  0  0  0  0  0  0  0  0
   72.7305   49.8697   56.8810 C   0  0  0  0  0  0  0  0  0  0  0  0
   73.6312   50.7984   56.3121 N   0  0  0  0  0  0  0  0  0  0  0  0
   75.0152   50.7702   56.5054 N   0  0  0  0  0  0  0  0  0  0  0  0
   75.8588   50.1032   55.5783 C   0  0  0  0  0  0  0  0  0  0  0  0
   75.2576   49.5571   54.5965 O   0  0  0  0  0  0  0  0  0  0  0  0
   77.3039   50.0365   55.7186 C   0  0  0  0  0  0  0  0  0  0  0  0
   77.9808   49.0121   55.1217 C   0  0  0  0  0  0  0  0  0  0  0  0
   79.3355   48.9088   55.2277 C   0  0  0  0  0  0  0  0  0  0  0  0
   80.0473   49.8518   55.9466 C   0  0  0  0  0  0  0  0  0  0  0  0
   81.4038   49.7271   56.0374 F   0  0  0  0  0  0  0  0  0  0  0  0
   79.4011   50.8926   56.5583 C   0  0  0  0  0  0  0  0  0  0  0  0
   78.0141   50.9721   56.4329 C   0  0  0  0  0  0  0  0  0  0  0  0
   71.2608   49.8996   56.6766 C   0  0  0  0  0  0  0  0  0  0  0  0
   70.8786   50.4692   55.3520 C   0  0  0  0  0  0  0  0  0  0  0  0
   70.2833   49.4906   54.4281 C   0  0  0  0  0  0  0  0  0  0  0  0
   69.4571   48.5042   54.7812 N   0  0  0  0  0  0  0  0  0  0  0  0
   68.9284   47.6242   53.9106 C   0  0  0  0  0  0  0  0  0  0  0  0
   68.0760   46.6079   54.2774 C   0  0  0  0  0  0  0  0  0  0  0  0
   67.5433   45.7135   53.3680 C   0  0  0  0  0  0  0  0  0  0  0  0
   67.8607   45.8188   52.0339 C   0  0  0  0  0  0  0  0  0  0  0  0
   68.7223   46.8417   51.6493 C   0  0  0  0  0  0  0  0  0  0  0  0
   69.2463   47.7269   52.5640 C   0  0  0  0  0  0  0  0  0  0  0  0
   70.0969   48.7418   52.2021 C   0  0  0  0  0  0  0  0  0  0  0  0
   70.4006   48.8574   50.9877 O   0  0  0  0  0  0  0  0  0  0  0  0
   70.5955   49.5953   53.1229 N   0  0  0  0  0  0  0  0  0  0  0  0
  1  2  2  0
  2 14  1  0
  2  3  1  0
 14 15  1  0
 15 16  1  0
 16 17  2  0
 16 26  1  0
 17 18  1  0
 18 19  2  0
 18 23  1  0
 19 20  1  0
 20 21  2  0
 21 22  1  0
 22 23  2  0
 23 24  1  0
 24 25  2  0
 24 26  1  0
  3  4  1  0
  4  5  1  0
  5  6  2  0
  5  7  1  0
  7  8  2  0
  7 13  1  0
  8  9  1  0
  9 10  2  0
 10 11  1  0
 10 12  1  0
 12 13  2  0
M  END
>  <minimizedAffinity>  (16) 
-9.65806

$$$$
data/reference_output_2/data/smiles/190527.pdb
     RDKit          3D

 26 28  0  0  0  0  0  0  0  0999 V2000
   70.1272   39.2779   58.8144 C   0  0  0  0  0  0  0  0  0  0  0  0
   70.7322   40.5146   58.8495 C   0  0  0  0  0  0  0  0  0  0  0  0
   70.2260   41.6182   58.1616 C   0  0  0  0  0  0  0  0  0  0  0  0
   69.0908   41.4985   57.4171 C   0  0  0  0  0  0  0  0  0  0  0  0
   68.4717   40.2653   57.3718 C   0  0  0  0  0  0  0  0  0  0  0  0
   68.9787   39.1698   58.0579 C   0  0  0  0  0  0  0  0  0  0  0  0
   67.3305   40.4420   56.5331 N   0  0  0  0  0  0  0  0  0  0  0  0
   67.2315   41.7600   56.0591 C   0  0  0  0  0  0  0  0  0  0  0  0
   66.3883   42.3123   55.3092 O   0  0  0  0  0  0  0  0  0  0  0  0
   68.3667   42.4896   56.6145 C   0  0  0  0  0  0  0  0  0  0  0  0
   68.6485   43.7379   56.4236 N   0  0  0  0  0  0  0  0  0  0  0  0
   69.6412   37.2893   60.2028 C   0  0  0  0  0  0  0  0  0  0  0  0
   70.7100   38.1461   59.5639 C   0  0  0  0  0  0  0  0  0  0  0  0
   71.5055   37.2234   58.6413 C   0  0  0  0  0  0  0  0  0  0  0  0
   71.6488   38.6084   60.6352 C   0  0  0  0  0  0  0  0  0  0  0  0
   67.8563   44.5608   55.6246 N   0  0  0  0  0  0  0  0  0  0  0  0
   68.3395   45.7137   54.9505 C   0  0  0  0  0  0  0  0  0  0  0  0
   68.2589   45.8628   53.5822 C   0  0  0  0  0  0  0  0  0  0  0  0
   68.7394   47.0012   52.9556 C   0  0  0  0  0  0  0  0  0  0  0  0
   69.3196   48.0350   53.6666 C   0  0  0  0  0  0  0  0  0  0  0  0
   69.4026   47.8898   55.0357 C   0  0  0  0  0  0  0  0  0  0  0  0
   68.9203   46.7534   55.6496 C   0  0  0  0  0  0  0  0  0  0  0  0
   69.9219   49.4665   52.8590 S   0  0  0  0  0  0  0  0  0  0  0  0
   69.8507   49.3381   51.1563 N   0  0  0  0  0  0  0  0  0  0  0  0
   69.1850   50.6908   53.2958 O   0  0  0  0  0  0  0  0  0  0  0  0
   71.3811   49.5955   53.2439 O   0  0  0  0  0  0  0  0  0  0  0  0
 12 13  1  0
 13 14  1  0
 13 15  1  0
 13  1  1  0
  1  2  2  0
  1  6  1  0
  2  3  1  0
  3  4  2  0
  4  5  1  0
  4 10  1  0
  5  6  2  0
  5  7  1  0
  7  8  1  0
  8  9  2  0
  8 10  1  0
 10 11  2  0
 11 16  1  0
 16 17  1  0
 17 18  2  0
 17 22  1  0
 18 19  1  0
 19 20  2  0
 20 23  1  0
 20 21  1  0
 23 24  1  0
 23 25  2  0
 23 26  2  0
 21 22  2  0
M  END
>  <minimizedAffinity>  (17) 
-9.65665

$$$$
data/200k_reference_output/data/smiles/87025.pdb
     RDKit          3D

 28 31  0  0  0  0  0  0  0  0999 V2000
   68.7157   43.4608   56.8515 C   0  0  0  0  0  0  0  0  0  0  0  0
   69.5361   44.2304   57.5875 N   0  0  0  0  0  0  0  0  0  0  0  0
   70.3152   43.7191   58.5554 C   0  0  0  0  0  0  0  0  0  0  0  0
   70.2825   42.3906   58.8077 N   0  0  0  0  0  0  0  0  0  0  0  0
   69.4914   41.5605   58.1174 C   0  0  0  0  0  0  0  0  0  0  0  0
   68.6973   42.1107   57.1245 C   0  0  0  0  0  0  0  0  0  0  0  0
   67.8007   41.2680   56.3212 C   0  0  0  0  0  0  0  0  0  0  0  0
   67.0765   41.7526   55.4205 O   0  0  0  0  0  0  0  0  0  0  0  0
   67.8144   39.8753   56.6405 N   0  0  0  0  0  0  0  0  0  0  0  0
   68.2563   39.4199   57.9190 C   0  0  0  0  0  0  0  0  0  0  0  0
   69.4910   40.1269   58.4283 C   0  0  0  0  0  0  0  0  0  0  0  0
   71.2101   44.5788   59.3517 C   0  0  0  0  0  0  0  0  0  0  0  0
   71.3755   45.9080   59.0284 C   0  0  0  0  0  0  0  0  0  0  0  0
   72.2239   46.7235   59.7833 C   0  0  0  0  0  0  0  0  0  0  0  0
   72.9136   46.2204   60.8649 C   0  0  0  0  0  0  0  0  0  0  0  0
   72.7325   44.8867   61.1697 C   0  0  0  0  0  0  0  0  0  0  0  0
   71.8847   44.0653   60.4193 C   0  0  0  0  0  0  0  0  0  0  0  0
   67.8777   43.9545   55.8240 N   0  0  0  0  0  0  0  0  0  0  0  0
   68.7597   47.5453   53.7031 C   0  0  0  0  0  0  0  0  0  0  0  0
   68.2249   46.4439   53.0663 C   0  0  0  0  0  0  0  0  0  0  0  0
   67.9426   45.2843   53.7608 C   0  0  0  0  0  0  0  0  0  0  0  0
   68.1747   45.1611   55.1133 C   0  0  0  0  0  0  0  0  0  0  0  0
   68.7096   46.2638   55.7460 C   0  0  0  0  0  0  0  0  0  0  0  0
   68.9930   47.4246   55.0570 C   0  0  0  0  0  0  0  0  0  0  0  0
   69.0604   48.7893   52.9486 C   0  0  0  0  0  0  0  0  0  0  0  0
   71.4116   49.0303   52.7901 O   0  0  0  0  0  0  0  0  0  0  0  0
   70.3504   48.6432   52.2434 C   0  0  0  0  0  0  0  0  0  0  0  0
   70.4649   48.0892   50.9798 O   0  0  0  0  0  0  0  0  0  0  0  0
 26 27  2  0
 27 28  1  0
 27 25  1  0
 25 19  1  0
 19 20  2  0
 19 24  1  0
 20 21  1  0
 21 22  2  0
 22 18  1  0
 22 23  1  0
 18  1  1  0
  1  2  2  0
  1  6  1  0
  2  3  1  0
  3 12  1  0
  3  4  2  0
 12 13  2  0
 12 17  1  0
 13 14  1  0
 14 15  2  0
 15 16  1  0
 16 17  2  0
  4  5  1  0
  5  6  2  0
  5 11  1  0
  6  7  1  0
  7  8  2  0
  7  9  1  0
  9 10  1  0
 10 11  1  0
 23 24  2  0
M  END
>  <minimizedAffinity>  (18) 
-9.65360

$$$$
data/200k_reference_output/data/smiles/28437.pdb
     RDKit          3D

 27 30  0  0  0  0  0  0  0  0999 V2000
   70.4588   45.6639   58.2674 C   0  0  0  0  0  0  0  0  0  0  0  0
   71.4999   46.2987   58.9183 C   0  0  0  0  0  0  0  0  0  0  0  0
   71.6963   47.6627   58.7239 C   0  0  0  0  0  0  0  0  0  0  0  0
   70.8706   48.3788   57.8964 C   0  0  0  0  0  0  0  0  0  0  0  0
   69.8426   47.7287   57.2591 C   0  0  0  0  0  0  0  0  0  0  0  0
   69.6768   46.4079   57.4674 N   0  0  0  0  0  0  0  0  0  0  0  0
   69.0335   44.1420   56.4786 O   0  0  0  0  0  0  0  0  0  0  0  0
   69.4669   43.5138   57.4874 C   0  0  0  0  0  0  0  0  0  0  0  0
   70.1992   44.2603   58.4227 N   0  0  0  0  0  0  0  0  0  0  0  0
   69.1828   42.0901   57.6111 C   0  0  0  0  0  0  0  0  0  0  0  0
   69.9181   41.2518   58.4163 C   0  0  0  0  0  0  0  0  0  0  0  0
   69.6189   39.8911   58.5119 C   0  0  0  0  0  0  0  0  0  0  0  0
   68.5762   39.3397   57.8013 C   0  0  0  0  0  0  0  0  0  0  0  0
   67.8445   40.1852   56.9972 C   0  0  0  0  0  0  0  0  0  0  0  0
   68.1406   41.5296   56.9032 C   0  0  0  0  0  0  0  0  0  0  0  0
   68.9442   48.5203   56.3488 C   0  0  0  0  0  0  0  0  0  0  0  0
   69.3856   48.5104   54.9549 C   0  0  0  0  0  0  0  0  0  0  0  0
   70.3473   49.3831   54.5887 N   0  0  0  0  0  0  0  0  0  0  0  0
   70.8018   49.4441   53.3541 N   0  0  0  0  0  0  0  0  0  0  0  0
   70.3063   48.6226   52.4186 C   0  0  0  0  0  0  0  0  0  0  0  0
   70.7373   48.6784   51.2389 O   0  0  0  0  0  0  0  0  0  0  0  0
   69.3017   47.6913   52.7413 C   0  0  0  0  0  0  0  0  0  0  0  0
   68.8288   47.6309   54.0338 C   0  0  0  0  0  0  0  0  0  0  0  0
   67.7698   46.6644   54.4333 C   0  0  0  0  0  0  0  0  0  0  0  0
   67.9299   45.4486   53.5060 C   0  0  0  0  0  0  0  0  0  0  0  0
   67.6209   45.9994   52.1055 C   0  0  0  0  0  0  0  0  0  0  0  0
   68.7946   46.8071   51.6622 C   0  0  0  0  0  0  0  0  0  0  0  0
  7  8  2  0
  8  9  1  0
  8 10  1  0
  9  1  1  0
  1  2  2  0
  1  6  1  0
  2  3  1  0
  3  4  2  0
  4  5  1  0
  5 16  1  0
  5  6  2  0
 16 17  1  0
 17 18  2  0
 17 23  1  0
 18 19  1  0
 19 20  1  0
 20 21  2  0
 20 22  1  0
 22 23  2  0
 22 27  1  0
 23 24  1  0
 24 25  1  0
 25 26  1  0
 26 27  1  0
 10 11  2  0
 10 15  1  0
 11 12  1  0
 12 13  2  0
 13 14  1  0
 14 15  2  0
M  END
>  <minimizedAffinity>  (19) 
-9.61291

$$$$
data/200k_reference_output/data/smiles/15353.pdb
     RDKit          3D

 28 31  0  0  0  0  0  0  0  0999 V2000
   68.9785   42.8141   57.1146 C   0  0  0  0  0  0  0  0  0  0  0  0
   68.0613   42.0217   56.4491 C   0  0  0  0  0  0  0  0  0  0  0  0
   67.9286   40.6759   56.7200 C   0  0  0  0  0  0  0  0  0  0  0  0
   68.7112   40.0395   57.6778 C   0  0  0  0  0  0  0  0  0  0  0  0
   69.6195   40.8228   58.3374 C   0  0  0  0  0  0  0  0  0  0  0  0
   69.7479   42.1762   58.0607 C   0  0  0  0  0  0  0  0  0  0  0  0
   69.9446   44.8979   57.4432 O   0  0  0  0  0  0  0  0  0  0  0  0
   69.1190   44.2310   56.7884 C   0  0  0  0  0  0  0  0  0  0  0  0
   68.3787   44.8828   55.7834 N   0  0  0  0  0  0  0  0  0  0  0  0
   68.4891   46.3006   55.4498 C   0  0  0  0  0  0  0  0  0  0  0  0
   68.3874   46.4215   53.9664 C   0  0  0  0  0  0  0  0  0  0  0  0
   67.6464   45.5936   53.1645 C   0  0  0  0  0  0  0  0  0  0  0  0
   67.6332   45.7800   51.7791 C   0  0  0  0  0  0  0  0  0  0  0  0
   68.3382   46.7633   51.2143 N   0  0  0  0  0  0  0  0  0  0  0  0
   69.0825   47.6016   51.9785 C   0  0  0  0  0  0  0  0  0  0  0  0
   69.1174   47.4447   53.3477 C   0  0  0  0  0  0  0  0  0  0  0  0
   70.6706   40.0904   59.5504 S   0  0  0  0  0  0  0  0  0  0  0  0
   72.1060   40.3384   59.1831 O   0  0  0  0  0  0  0  0  0  0  0  0
   70.4453   40.6459   60.9066 O   0  0  0  0  0  0  0  0  0  0  0  0
   70.4374   38.3555   59.5438 N   0  0  0  0  0  0  0  0  0  0  0  0
   69.4086   37.6277   60.2624 C   0  0  0  0  0  0  0  0  0  0  0  0
   70.0343   36.2912   60.5053 C   0  0  0  0  0  0  0  0  0  0  0  0
   70.9865   36.1225   59.3704 C   0  0  0  0  0  0  0  0  0  0  0  0
   71.5907   34.9856   58.8766 C   0  0  0  0  0  0  0  0  0  0  0  0
   72.4465   35.0999   57.7934 C   0  0  0  0  0  0  0  0  0  0  0  0
   72.6496   36.3592   57.2665 C   0  0  0  0  0  0  0  0  0  0  0  0
   72.0498   37.4982   57.7543 C   0  0  0  0  0  0  0  0  0  0  0  0
   71.1908   37.3749   58.8408 C   0  0  0  0  0  0  0  0  0  0  0  0
  7  8  2  0
  8  9  1  0
  8  1  1  0
  9 10  1  0
 10 11  1  0
 11 12  2  0
 11 16  1  0
 12 13  1  0
 13 14  2  0
 14 15  1  0
 15 16  2  0
  1  2  2  0
  1  6  1  0
  2  3  1  0
  3  4  2  0
  4  5  1  0
  5 17  1  0
  5  6  2  0
 17 18  2  0
 17 19  2  0
 17 20  1  0
 20 21  1  0
 20 28  1  0
 21 22  1  0
 22 23  1  0
 23 24  1  0
 23 28  2  0
 24 25  2  0
 25 26  1  0
 26 27  2  0
 27 28  1  0
M  END
>  <minimizedAffinity>  (20) 
-9.60296

$$$$
data/reference_output_2/data/smiles/137620.pdb
     RDKit          3D

 28 32  0  0  0  0  0  0  0  0999 V2000
   71.3653   46.8379   58.9326 C   0  0  0  0  0  0  0  0  0  0  0  0
   70.6133   47.7565   58.1849 C   0  0  0  0  0  0  0  0  0  0  0  0
   69.7883   47.3731   57.1776 C   0  0  0  0  0  0  0  0  0  0  0  0
   69.7200   45.9997   56.9120 C   0  0  0  0  0  0  0  0  0  0  0  0
   70.4385   45.0774   57.6213 C   0  0  0  0  0  0  0  0  0  0  0  0
   71.2658   45.5061   58.6369 C   0  0  0  0  0  0  0  0  0  0  0  0
   72.0068   44.6413   59.3772 F   0  0  0  0  0  0  0  0  0  0  0  0
   71.7934   47.1548   61.1825 O   0  0  0  0  0  0  0  0  0  0  0  0
   72.2359   47.3220   60.0102 C   0  0  0  0  0  0  0  0  0  0  0  0
   73.4840   47.9334   59.7597 N   0  0  0  0  0  0  0  0  0  0  0  0
   74.5400   48.5000   60.5586 C   0  0  0  0  0  0  0  0  0  0  0  0
   74.9556   49.2686   59.3821 C   0  0  0  0  0  0  0  0  0  0  0  0
   76.3758   49.5791   59.1405 C   0  0  0  0  0  0  0  0  0  0  0  0
   75.9679   50.9033   58.7033 N   0  0  0  0  0  0  0  0  0  0  0  0
   74.6380   50.6978   59.2537 C   0  0  0  0  0  0  0  0  0  0  0  0
   74.2634   48.2551   58.5933 C   0  0  0  0  0  0  0  0  0  0  0  0
   68.9543   48.2234   56.3140 C   0  0  0  0  0  0  0  0  0  0  0  0
   69.4106   48.2826   54.9074 C   0  0  0  0  0  0  0  0  0  0  0  0
   70.3755   49.1883   54.5563 N   0  0  0  0  0  0  0  0  0  0  0  0
   70.8138   49.3565   53.3353 N   0  0  0  0  0  0  0  0  0  0  0  0
   70.2923   48.6003   52.3594 C   0  0  0  0  0  0  0  0  0  0  0  0
   70.6848   48.7313   51.1710 O   0  0  0  0  0  0  0  0  0  0  0  0
   69.3218   47.6654   52.6183 C   0  0  0  0  0  0  0  0  0  0  0  0
   68.7806   46.8652   51.6365 C   0  0  0  0  0  0  0  0  0  0  0  0
   67.8161   45.9145   51.8986 C   0  0  0  0  0  0  0  0  0  0  0  0
   67.3836   45.7653   53.1930 C   0  0  0  0  0  0  0  0  0  0  0  0
   67.9123   46.5566   54.1867 C   0  0  0  0  0  0  0  0  0  0  0  0
   68.8765   47.5108   53.9283 C   0  0  0  0  0  0  0  0  0  0  0  0
  8  9  2  0
  9  1  1  0
  9 10  1  0
  1  2  2  0
  1  6  1  0
  2  3  1  0
  3 17  1  0
  3  4  2  0
 17 18  1  0
 18 19  2  0
 18 28  1  0
 19 20  1  0
 20 21  1  0
 21 22  2  0
 21 23  1  0
 23 24  1  0
 23 28  2  0
 24 25  2  0
 25 26  1  0
 26 27  2  0
 27 28  1  0
  4  5  1  0
  5  6  2  0
  6  7  1  0
 10 11  1  0
 10 16  1  0
 11 12  1  0
 12 13  1  0
 12 15  1  0
 12 16  1  0
 13 14  1  0
 14 15  1  0
M  CHG  1  14   1
M  END
>  <minimizedAffinity>  (21) 
-9.60240

$$$$
data/200k_reference_output/data/smiles/40521.pdb
     RDKit          3D

 24 26  0  0  0  0  0  0  0  0999 V2000
   69.6636   51.2306   54.3878 C   0  0  0  0  0  0  0  0  0  0  0  0
   68.4862   51.0475   55.1187 C   0  0  0  0  0  0  0  0  0  0  0  0
   68.3941   51.4081   56.4198 C   0  0  0  0  0  0  0  0  0  0  0  0
   66.9119   51.1721   57.3196 Cl  0  0  0  0  0  0  0  0  0  0  0  0
   69.4892   51.9665   57.0303 C   0  0  0  0  0  0  0  0  0  0  0  0
   70.6328   52.1411   56.3072 C   0  0  0  0  0  0  0  0  0  0  0  0
   70.7706   51.7809   54.9543 C   0  0  0  0  0  0  0  0  0  0  0  0
   69.6944   50.8031   53.0347 N   0  0  0  0  0  0  0  0  0  0  0  0
   70.1114   49.1580   51.0163 O   0  0  0  0  0  0  0  0  0  0  0  0
   70.1675   49.2574   52.5192 S   0  0  0  0  0  0  0  0  0  0  0  0
   71.6363   49.0528   52.8667 O   0  0  0  0  0  0  0  0  0  0  0  0
   69.2648   47.9541   53.1808 C   0  0  0  0  0  0  0  0  0  0  0  0
   69.1135   47.6926   54.5122 C   0  0  0  0  0  0  0  0  0  0  0  0
   68.3812   46.6326   54.9949 C   0  0  0  0  0  0  0  0  0  0  0  0
   67.7791   45.8065   54.0892 C   0  0  0  0  0  0  0  0  0  0  0  0
   67.8919   46.0135   52.7334 C   0  0  0  0  0  0  0  0  0  0  0  0
   67.2804   45.1725   51.8366 F   0  0  0  0  0  0  0  0  0  0  0  0
   68.6379   47.0913   52.2979 C   0  0  0  0  0  0  0  0  0  0  0  0
   72.0670   52.0796   54.3720 C   0  0  0  0  0  0  0  0  0  0  0  0
   73.1979   51.3031   54.6468 N   0  0  0  0  0  0  0  0  0  0  0  0
   73.7572   51.0875   55.8687 C   0  0  0  0  0  0  0  0  0  0  0  0
   74.8259   50.2359   55.7272 C   0  0  0  0  0  0  0  0  0  0  0  0
   74.8968   49.9500   54.4164 N   0  0  0  0  0  0  0  0  0  0  0  0
   73.9275   50.5881   53.7922 N   0  0  0  0  0  0  0  0  0  0  0  0
  9 10  2  0
 10 11  2  0
 10  8  1  0
 10 12  1  0
  8  1  1  0
  1  2  2  0
  1  7  1  0
  2  3  1  0
  3  4  1  0
  3  5  2  0
  5  6  1  0
  6  7  2  0
  7 19  1  0
 19 20  1  0
 20 21  1  0
 20 24  1  0
 21 22  2  0
 22 23  1  0
 23 24  2  0
 12 13  2  0
 12 18  1  0
 13 14  1  0
 14 15  2  0
 15 16  1  0
 16 17  1  0
 16 18  2  0
M  END
>  <minimizedAffinity>  (22) 
-9.59811

$$$$
data/200k_reference_output/data/smiles/44794.pdb
     RDKit          3D

 28 31  0  0  0  0  0  0  0  0999 V2000
   71.5328   46.9451   58.9201 C   0  0  0  0  0  0  0  0  0  0  0  0
   70.7639   47.8456   58.1634 C   0  0  0  0  0  0  0  0  0  0  0  0
   69.8956   47.3682   57.2269 C   0  0  0  0  0  0  0  0  0  0  0  0
   69.8017   45.9751   57.0546 C   0  0  0  0  0  0  0  0  0  0  0  0
   70.5302   45.0756   57.7716 C   0  0  0  0  0  0  0  0  0  0  0  0
   71.4037   45.5912   58.7128 C   0  0  0  0  0  0  0  0  0  0  0  0
   72.1542   44.7203   59.4529 F   0  0  0  0  0  0  0  0  0  0  0  0
   75.9068   50.7532   58.3274 O   0  0  0  0  0  0  0  0  0  0  0  0
   75.6268   49.5877   58.5494 C   0  0  0  0  0  0  0  0  0  0  0  0
   75.9285   48.9622   59.8611 C   0  0  0  0  0  0  0  0  0  0  0  0
   74.6670   48.3879   60.4519 C   0  0  0  0  0  0  0  0  0  0  0  0
   73.7606   47.8458   59.4852 N   0  0  0  0  0  0  0  0  0  0  0  0
   72.4532   47.5016   59.9047 C   0  0  0  0  0  0  0  0  0  0  0  0
   72.0559   47.6581   61.0944 O   0  0  0  0  0  0  0  0  0  0  0  0
   74.1406   47.6471   58.1180 C   0  0  0  0  0  0  0  0  0  0  0  0
   74.9731   48.7391   57.5270 C   0  0  0  0  0  0  0  0  0  0  0  0
   69.0655   48.2720   56.3752 C   0  0  0  0  0  0  0  0  0  0  0  0
   69.4430   48.2864   54.9666 C   0  0  0  0  0  0  0  0  0  0  0  0
   70.3910   49.1908   54.5663 N   0  0  0  0  0  0  0  0  0  0  0  0
   70.7862   49.3424   53.3372 N   0  0  0  0  0  0  0  0  0  0  0  0
   70.2772   48.6002   52.3398 C   0  0  0  0  0  0  0  0  0  0  0  0
   70.6386   48.7230   51.1363 O   0  0  0  0  0  0  0  0  0  0  0  0
   69.3071   47.6467   52.6262 C   0  0  0  0  0  0  0  0  0  0  0  0
   68.7624   46.8537   51.6642 C   0  0  0  0  0  0  0  0  0  0  0  0
   67.8133   45.9014   51.9580 C   0  0  0  0  0  0  0  0  0  0  0  0
   67.4436   45.7930   53.2813 C   0  0  0  0  0  0  0  0  0  0  0  0
   67.9891   46.5910   54.2573 C   0  0  0  0  0  0  0  0  0  0  0  0
   68.9218   47.5253   53.9490 C   0  0  0  0  0  0  0  0  0  0  0  0
  8  9  2  0
  9 10  1  0
  9 16  1  0
 10 11  1  0
 11 12  1  0
 12 13  1  0
 12 15  1  0
 13 14  2  0
 13  1  1  0
  1  2  2  0
  1  6  1  0
  2  3  1  0
  3 17  1  0
  3  4  2  0
 17 18  1  0
 18 19  2  0
 18 28  1  0
 19 20  1  0
 20 21  1  0
 21 22  2  0
 21 23  1  0
 23 24  1  0
 23 28  2  0
 24 25  2  0
 25 26  1  0
 26 27  2  0
 27 28  1  0
  4  5  1  0
  5  6  2  0
  6  7  1  0
 15 16  1  0
M  END
>  <minimizedAffinity>  (23) 
-9.59150

$$$$
data/reference_output_2/data/smiles/93320.pdb
     RDKit          3D

 29 32  0  0  0  0  0  0  0  0999 V2000
   70.7594   43.5583   59.0447 O   0  0  0  0  0  0  0  0  0  0  0  0
   70.0231   43.0187   58.1974 C   0  0  0  0  0  0  0  0  0  0  0  0
   69.8734   41.6077   58.1862 N   0  0  0  0  0  0  0  0  0  0  0  0
   70.5439   40.7279   59.1286 C   0  0  1  0  0  0  0  0  0  0  0  0
   69.6119   39.7065   59.6812 C   0  0  0  0  0  0  0  0  0  0  0  0
   70.1918   38.7478   60.6450 C   0  0  0  0  0  0  0  0  0  0  0  0
   70.7663   37.5699   59.8978 C   0  0  0  0  0  0  0  0  0  0  0  0
   70.3674   36.3486   60.3977 C   0  0  0  0  0  0  0  0  0  0  0  0
   70.8575   35.2261   59.7571 C   0  0  0  0  0  0  0  0  0  0  0  0
   70.5046   33.9759   60.1977 F   0  0  0  0  0  0  0  0  0  0  0  0
   71.6989   35.3173   58.6751 C   0  0  0  0  0  0  0  0  0  0  0  0
   72.0767   36.5550   58.2030 C   0  0  0  0  0  0  0  0  0  0  0  0
   72.9027   36.7349   57.1422 F   0  0  0  0  0  0  0  0  0  0  0  0
   71.6096   37.7211   58.8140 C   0  0  0  0  0  0  0  0  0  0  0  0
   72.1149   38.8952   58.1765 N   0  0  0  0  0  0  0  0  0  0  0  0
   71.7496   40.2184   58.4966 C   0  0  0  0  0  0  0  0  0  0  0  0
   72.5981   41.0820   58.1868 O   0  0  0  0  0  0  0  0  0  0  0  0
   69.3306   43.8621   57.2322 C   0  0  0  0  0  0  0  0  0  0  0  0
   68.3453   43.5680   56.3828 N   0  0  0  0  0  0  0  0  0  0  0  0
   68.0117   44.6390   55.6852 N   0  0  0  0  0  0  0  0  0  0  0  0
   68.7803   45.6716   56.0651 C   0  0  0  0  0  0  0  0  0  0  0  0
   69.5955   45.1655   57.0313 N   0  0  0  0  0  0  0  0  0  0  0  0
   68.7620   47.0777   55.5557 C   0  0  0  0  0  0  0  0  0  0  0  0
   68.7252   47.0556   54.0554 C   0  0  0  0  0  0  0  0  0  0  0  0
   69.4696   47.8962   53.2831 C   0  0  0  0  0  0  0  0  0  0  0  0
   69.3864   47.8194   51.9105 C   0  0  0  0  0  0  0  0  0  0  0  0
   68.5685   46.9156   51.3041 C   0  0  0  0  0  0  0  0  0  0  0  0
   67.8042   46.0527   52.0538 C   0  0  0  0  0  0  0  0  0  0  0  0
   67.8902   46.1333   53.4225 C   0  0  0  0  0  0  0  0  0  0  0  0
  1  2  2  0
  2  3  1  0
  2 18  1  0
  4  3  1  6
  4  5  1  0
  4 16  1  0
  5  6  1  0
  6  7  1  0
  7  8  1  0
  7 14  2  0
  8  9  2  0
  9 10  1  0
  9 11  1  0
 11 12  2  0
 12 13  1  0
 12 14  1  0
 14 15  1  0
 15 16  1  0
 16 17  2  0
 18 19  2  0
 18 22  1  0
 19 20  1  0
 20 21  1  0
 21 23  1  0
 21 22  2  0
 23 24  1  0
 24 25  2  0
 24 29  1  0
 25 26  1  0
 26 27  2  0
 27 28  1  0
 28 29  2  0
M  END
>  <minimizedAffinity>  (24) 
-9.58613

$$$$
data/200k_reference_output/data/smiles/19972.pdb
     RDKit          3D

 26 28  0  0  0  0  0  0  0  0999 V2000
   71.0961   41.8254   58.6171 C   0  0  0  0  0  0  0  0  0  0  0  0
   69.8532   41.4252   57.9156 C   0  0  0  0  0  0  0  0  0  0  0  0
   69.0193   42.2971   57.2500 C   0  0  0  0  0  0  0  0  0  0  0  0
   67.9984   41.4756   56.7569 C   0  0  0  0  0  0  0  0  0  0  0  0
   68.2744   40.2168   57.1425 N   0  0  0  0  0  0  0  0  0  0  0  0
   69.3831   40.1652   57.8384 N   0  0  0  0  0  0  0  0  0  0  0  0
   69.9326   38.9699   58.3816 C   0  0  0  0  0  0  0  0  0  0  0  0
   69.3308   38.2331   59.3828 C   0  0  0  0  0  0  0  0  0  0  0  0
   69.8997   37.0774   59.8824 C   0  0  0  0  0  0  0  0  0  0  0  0
   71.1082   36.6111   59.3885 C   0  0  0  0  0  0  0  0  0  0  0  0
   71.8280   35.1438   60.0220 Cl  0  0  0  0  0  0  0  0  0  0  0  0
   71.7264   37.3334   58.3874 C   0  0  0  0  0  0  0  0  0  0  0  0
   71.1448   38.4980   57.8906 C   0  0  0  0  0  0  0  0  0  0  0  0
   69.1258   43.7462   57.0663 C   0  0  0  0  0  0  0  0  0  0  0  0
   69.8329   44.3901   57.8755 O   0  0  0  0  0  0  0  0  0  0  0  0
   68.4743   44.4545   56.0259 N   0  0  0  0  0  0  0  0  0  0  0  0
   68.5364   45.8636   55.7996 C   0  0  0  0  0  0  0  0  0  0  0  0
   68.5823   46.2689   54.3782 C   0  0  0  0  0  0  0  0  0  0  0  0
   67.8225   45.5579   53.4696 C   0  0  0  0  0  0  0  0  0  0  0  0
   67.8343   45.9195   52.1280 C   0  0  0  0  0  0  0  0  0  0  0  0
   68.5866   46.9696   51.6735 C   0  0  0  0  0  0  0  0  0  0  0  0
   69.3595   47.6997   52.5738 C   0  0  0  0  0  0  0  0  0  0  0  0
   69.3298   47.3199   53.9034 C   0  0  0  0  0  0  0  0  0  0  0  0
   70.1601   48.8219   52.1250 C   0  0  0  0  0  0  0  0  0  0  0  0
   69.7445   49.6325   51.0447 N   0  0  0  0  0  0  0  0  0  0  0  0
   71.2387   49.0814   52.6984 O   0  0  0  0  0  0  0  0  0  0  0  0
  1  2  1  0
  2  3  2  0
  2  6  1  0
  3 14  1  0
  3  4  1  0
 14 15  2  0
 14 16  1  0
 16 17  1  0
 17 18  1  0
 18 19  2  0
 18 23  1  0
 19 20  1  0
 20 21  2  0
 21 22  1  0
 22 24  1  0
 22 23  2  0
 24 25  1  0
 24 26  2  0
  4  5  2  0
  5  6  1  0
  6  7  1  0
  7  8  2  0
  7 13  1  0
  8  9  1  0
  9 10  2  0
 10 11  1  0
 10 12  1  0
 12 13  2  0
M  END
>  <minimizedAffinity>  (25) 
-9.57674

$$$$
data/reference_output_2/data/smiles/152415.pdb
     RDKit          3D

 27 30  0  0  0  0  0  0  0  0999 V2000
   71.2418   47.3795   58.5587 C   0  0  0  0  0  0  0  0  0  0  0  0
   71.1152   45.9712   58.5555 C   0  0  0  0  0  0  0  0  0  0  0  0
   70.3034   45.3037   57.6797 C   0  0  0  0  0  0  0  0  0  0  0  0
   69.5883   46.0899   56.7665 C   0  0  0  0  0  0  0  0  0  0  0  0
   69.6671   47.4267   56.7219 N   0  0  0  0  0  0  0  0  0  0  0  0
   70.4992   48.0400   57.6256 C   0  0  0  0  0  0  0  0  0  0  0  0
   70.5302   49.2832   57.5301 O   0  0  0  0  0  0  0  0  0  0  0  0
   74.0839   49.3512   60.2626 C   0  0  0  0  0  0  0  0  0  0  0  0
   73.2483   48.7504   59.2097 N   0  0  0  0  0  0  0  0  0  0  0  0
   72.1088   47.9956   59.5072 C   0  0  0  0  0  0  0  0  0  0  0  0
   71.8512   47.8677   60.7503 O   0  0  0  0  0  0  0  0  0  0  0  0
   70.1370   43.8598   57.6637 C   0  0  0  0  0  0  0  0  0  0  0  0
   71.0547   43.0610   57.9696 O   0  0  0  0  0  0  0  0  0  0  0  0
   68.8931   43.3040   57.2873 N   0  0  0  0  0  0  0  0  0  0  0  0
   68.6685   41.8578   57.2536 C   0  0  0  0  0  0  0  0  0  0  0  0
   67.5385   41.4843   56.2531 C   0  0  0  0  0  0  0  0  0  0  0  0
   67.4251   41.2617   57.7366 C   0  0  0  0  0  0  0  0  0  0  0  0
   68.9109   48.2474   55.7727 C   0  0  0  0  0  0  0  0  0  0  0  0
   68.7197   47.5751   54.4603 C   0  0  0  0  0  0  0  0  0  0  0  0
   67.8320   46.5023   54.3787 C   0  0  0  0  0  0  0  0  0  0  0  0
   67.7137   45.8556   53.1708 C   0  0  0  0  0  0  0  0  0  0  0  0
   68.4317   46.2325   52.0654 C   0  0  0  0  0  0  0  0  0  0  0  0
   69.3046   47.2931   52.1485 C   0  0  0  0  0  0  0  0  0  0  0  0
   70.1104   47.8914   51.2402 N   0  0  0  0  0  0  0  0  0  0  0  0
   70.7484   48.8985   51.7919 N   0  0  0  0  0  0  0  0  0  0  0  0
   70.3555   48.9661   53.0920 C   0  0  0  0  0  0  0  0  0  0  0  0
   69.4401   47.9577   53.3512 C   0  0  0  0  0  0  0  0  0  0  0  0
  8  9  1  0
  9 10  1  0
 10 11  2  0
 10  1  1  0
  1  2  2  0
  1  6  1  0
  2  3  1  0
  3 12  1  0
  3  4  2  0
 12 13  2  0
 12 14  1  0
 14 15  1  0
 15 16  1  0
 15 17  1  0
 16 17  1  0
  4  5  1  0
  5 18  1  0
  5  6  1  0
 18 19  1  0
 19 20  2  0
 19 27  1  0
 20 21  1  0
 21 22  2  0
 22 23  1  0
 23 24  1  0
 23 27  2  0
 24 25  1  0
 25 26  2  0
 26 27  1  0
  6  7  2  0
M  END
>  <minimizedAffinity>  (26) 
-9.56952

$$$$
data/reference_output_2/data/smiles/126230.pdb
     RDKit          3D

 28 32  0  0  0  0  0  0  0  0999 V2000
   76.4545   34.4180   55.9191 C   0  0  0  0  0  0  0  0  0  0  0  0
   75.2049   34.8195   55.2146 C   0  0  0  0  0  0  0  0  0  0  0  0
   75.2137   35.5156   54.0574 N   0  0  0  0  0  0  0  0  0  0  0  0
   73.9281   35.7050   53.7076 C   0  0  0  0  0  0  0  0  0  0  0  0
   73.1289   35.1292   54.6429 C   0  0  0  0  0  0  0  0  0  0  0  0
   73.9334   34.5872   55.5662 N   0  0  0  0  0  0  0  0  0  0  0  0
   76.3120   36.0004   53.2823 C   0  0  0  0  0  0  0  0  0  0  0  0
   76.3580   35.4335   51.9135 C   0  0  0  0  0  0  0  0  0  0  0  0
   75.4982   34.4322   51.5086 C   0  0  0  0  0  0  0  0  0  0  0  0
   75.5370   33.8992   50.2299 C   0  0  0  0  0  0  0  0  0  0  0  0
   76.4558   34.3651   49.3100 C   0  0  0  0  0  0  0  0  0  0  0  0
   76.4996   33.8385   48.0356 C   0  0  0  0  0  0  0  0  0  0  0  0
   77.4202   34.3130   47.1314 C   0  0  0  0  0  0  0  0  0  0  0  0
   78.2886   35.3264   47.5431 C   0  0  0  0  0  0  0  0  0  0  0  0
   78.2207   35.8330   48.8224 C   0  0  0  0  0  0  0  0  0  0  0  0
   77.3058   35.3699   49.7442 C   0  0  0  0  0  0  0  0  0  0  0  0
   77.2443   35.8722   51.0005 N   0  0  0  0  0  0  0  0  0  0  0  0
   73.5304   33.8577   56.7693 C   0  0  0  0  0  0  0  0  0  0  0  0
   72.6898   34.7362   57.6369 C   0  0  0  0  0  0  0  0  0  0  0  0
   72.0291   34.1749   58.6945 C   0  0  0  0  0  0  0  0  0  0  0  0
   71.2353   34.9394   59.5326 C   0  0  0  0  0  0  0  0  0  0  0  0
   71.1083   36.2913   59.2995 C   0  0  0  0  0  0  0  0  0  0  0  0
   70.3297   37.0818   60.1099 C   0  0  0  0  0  0  0  0  0  0  0  0
   70.2175   38.4427   59.8540 C   0  0  0  0  0  0  0  0  0  0  0  0
   70.8743   39.0194   58.7983 C   0  0  0  0  0  0  0  0  0  0  0  0
   71.6495   38.2329   57.9917 C   0  0  0  0  0  0  0  0  0  0  0  0
   71.7661   36.8737   58.2408 C   0  0  0  0  0  0  0  0  0  0  0  0
   72.5568   36.0827   57.4128 C   0  0  0  0  0  0  0  0  0  0  0  0
  1  2  1  0
  2  3  1  0
  2  6  2  0
  3  7  1  0
  3  4  1  0
  7  8  1  0
  8  9  2  0
  8 17  1  0
  9 10  1  0
 10 11  2  0
 11 12  1  0
 11 16  1  0
 12 13  2  0
 13 14  1  0
 14 15  2  0
 15 16  1  0
 16 17  2  0
  4  5  2  0
  5  6  1  0
  6 18  1  0
 18 19  1  0
 19 20  2  0
 19 28  1  0
 20 21  1  0
 21 22  2  0
 22 23  1  0
 22 27  1  0
 23 24  2  0
 24 25  1  0
 25 26  2  0
 26 27  1  0
 27 28  2  0
M  CHG  1   6   1
M  END
>  <minimizedAffinity>  (27) 
-9.56864

$$$$
data/reference_output_2/data/smiles/102782.pdb
     RDKit          3D

 29 32  0  0  0  0  0  0  0  0999 V2000
   67.8201   44.1278   55.3502 N   0  0  0  0  0  0  0  0  0  0  0  0
   68.4088   43.3148   56.3327 C   0  0  0  0  0  0  0  0  0  0  0  0
   69.3727   43.7969   56.9922 O   0  0  0  0  0  0  0  0  0  0  0  0
   70.4755   48.6539   57.2837 C   0  0  0  0  0  0  0  0  0  0  0  0
   69.2120   48.9180   56.4582 C   0  0  1  0  0  0  0  0  0  0  0  0
   69.5898   49.9053   55.4232 C   0  0  0  0  0  0  0  0  0  0  0  0
   69.9355   51.0854   55.6529 O   0  0  0  0  0  0  0  0  0  0  0  0
   69.4947   49.3009   54.1667 N   0  0  0  0  0  0  0  0  0  0  0  0
   69.7260   49.7332   52.7863 C   0  0  0  0  0  0  0  0  0  0  0  0
   70.0737   48.6010   51.8785 C   0  0  0  0  0  0  0  0  0  0  0  0
   69.0865   47.4559   51.9628 C   0  0  0  0  0  0  0  0  0  0  0  0
   68.8617   47.0506   53.3613 C   0  0  0  0  0  0  0  0  0  0  0  0
   68.4420   45.7711   53.7265 C   0  0  0  0  0  0  0  0  0  0  0  0
   68.2487   45.4549   55.0629 C   0  0  0  0  0  0  0  0  0  0  0  0
   68.4742   46.4102   56.0019 C   0  0  0  0  0  0  0  0  0  0  0  0
   68.8935   47.7039   55.7000 C   0  0  0  0  0  0  0  0  0  0  0  0
   69.0716   47.9692   54.3598 C   0  0  0  0  0  0  0  0  0  0  0  0
   67.9725   41.9557   56.6296 C   0  0  0  0  0  0  0  0  0  0  0  0
   66.9222   41.4875   56.1228 O   0  0  0  0  0  0  0  0  0  0  0  0
   68.7025   41.0927   57.4995 N   0  0  0  0  0  0  0  0  0  0  0  0
   68.3190   39.7642   57.8177 C   0  0  0  0  0  0  0  0  0  0  0  0
   69.2197   39.1210   58.8283 C   0  0  0  0  0  0  0  0  0  0  0  0
   70.6405   38.9151   58.4185 C   0  0  0  0  0  0  0  0  0  0  0  0
   71.1846   37.5706   58.4517 C   0  0  0  0  0  0  0  0  0  0  0  0
   70.7502   36.6454   59.4116 C   0  0  0  0  0  0  0  0  0  0  0  0
   71.2562   35.3665   59.4456 C   0  0  0  0  0  0  0  0  0  0  0  0
   72.1961   34.9383   58.5563 C   0  0  0  0  0  0  0  0  0  0  0  0
   72.6415   35.8189   57.6043 C   0  0  0  0  0  0  0  0  0  0  0  0
   72.1490   37.1003   57.5530 C   0  0  0  0  0  0  0  0  0  0  0  0
  5  4  1  1
  5  6  1  0
  5 16  1  0
  6  7  2  0
  6  8  1  0
  8  9  1  0
  8 17  1  0
  9 10  1  0
 10 11  1  0
 11 12  1  0
 12 13  1  0
 12 17  2  0
 13 14  2  0
 14  1  1  0
 14 15  1  0
  1  2  1  0
  2  3  2  0
  2 18  1  0
 18 19  2  0
 18 20  1  0
 20 21  1  0
 21 22  1  0
 22 23  1  0
 23 24  1  0
 24 25  2  0
 24 29  1  0
 25 26  1  0
 26 27  2  0
 27 28  1  0
 28 29  2  0
 15 16  2  0
 16 17  1  0
M  END
>  <minimizedAffinity>  (28) 
-9.56351

$$$$
data/reference_output_2/data/smiles/121163.pdb
     RDKit          3D

 29 32  0  0  0  0  0  0  0  0999 V2000
   71.0741   38.6001   58.8086 N   0  0  0  0  0  0  0  0  0  0  0  0
   72.1433   39.4133   58.8453 C   0  0  0  0  0  0  0  0  0  0  0  0
   73.2504   38.9036   59.2233 O   0  0  0  0  0  0  0  0  0  0  0  0
   72.0608   40.7125   58.4981 N   0  0  0  0  0  0  0  0  0  0  0  0
   70.8984   41.2695   58.0954 C   0  0  0  0  0  0  0  0  0  0  0  0
   70.7958   42.5942   57.7391 C   0  0  0  0  0  0  0  0  0  0  0  0
   69.6192   43.1844   57.3249 C   0  0  0  0  0  0  0  0  0  0  0  0
   68.5121   42.3623   57.2832 C   0  0  0  0  0  0  0  0  0  0  0  0
   68.5966   41.0094   57.6419 C   0  0  0  0  0  0  0  0  0  0  0  0
   69.7892   40.4641   58.0482 C   0  0  0  0  0  0  0  0  0  0  0  0
   69.9002   39.1200   58.4125 C   0  0  0  0  0  0  0  0  0  0  0  0
   68.8653   38.4148   58.3570 O   0  0  0  0  0  0  0  0  0  0  0  0
   71.2698   33.0450   60.2501 C   0  0  0  0  0  0  0  0  0  0  0  0
   71.2255   34.4804   59.8630 C   0  0  0  0  0  0  0  0  0  0  0  0
   70.6480   35.4124   60.6986 C   0  0  0  0  0  0  0  0  0  0  0  0
   70.6021   36.7467   60.3491 C   0  0  0  0  0  0  0  0  0  0  0  0
   71.1208   37.2283   59.1639 C   0  0  0  0  0  0  0  0  0  0  0  0
   71.7017   36.2775   58.3267 C   0  0  0  0  0  0  0  0  0  0  0  0
   71.7468   34.9438   58.6763 C   0  0  0  0  0  0  0  0  0  0  0  0
   69.5776   44.5961   56.9605 C   0  0  0  0  0  0  0  0  0  0  0  0
   70.4864   45.3310   57.4246 O   0  0  0  0  0  0  0  0  0  0  0  0
   68.6030   45.1916   56.1361 N   0  0  0  0  0  0  0  0  0  0  0  0
   68.5404   46.5896   55.7649 C   0  0  0  0  0  0  0  0  0  0  0  0
   68.5991   46.7726   54.2954 C   0  0  0  0  0  0  0  0  0  0  0  0
   69.2757   47.7903   53.6813 C   0  0  0  0  0  0  0  0  0  0  0  0
   69.2929   47.9203   52.2838 C   0  0  0  0  0  0  0  0  0  0  0  0
   68.6275   47.0259   51.4975 C   0  0  0  0  0  0  0  0  0  0  0  0
   67.9420   45.9966   52.0870 C   0  0  0  0  0  0  0  0  0  0  0  0
   67.9316   45.8754   53.4791 C   0  0  0  0  0  0  0  0  0  0  0  0
 13 14  1  0
 14 15  2  0
 14 19  1  0
 15 16  1  0
 16 17  2  0
 17  1  1  0
 17 18  1  0
  1  2  1  0
  1 11  1  0
  2  3  2  0
  2  4  1  0
  4  5  1  0
  5  6  2  0
  5 10  1  0
  6  7  1  0
  7 20  1  0
  7  8  2  0
 20 21  2  0
 20 22  1  0
 22 23  1  0
 23 24  1  0
 24 25  2  0
 24 29  1  0
 25 26  1  0
 26 27  2  0
 27 28  1  0
 28 29  2  0
  8  9  1  0
  9 10  2  0
 10 11  1  0
 11 12  2  0
 18 19  2  0
M  END
>  <minimizedAffinity>  (29) 
-9.55585

$$$$
data/reference_output_2/data/smiles/116800.pdb
     RDKit          3D

 27 31  0  0  0  0  0  0  0  0999 V2000
   70.3218   43.3487   57.7254 C   0  0  0  0  0  0  0  0  0  0  0  0
   71.5869   42.8257   57.9028 C   0  0  0  0  0  0  0  0  0  0  0  0
   71.8002   41.4788   58.1217 C   0  0  0  0  0  0  0  0  0  0  0  0
   70.7514   40.5869   58.1744 C   0  0  0  0  0  0  0  0  0  0  0  0
   69.4859   41.1040   57.9979 C   0  0  0  0  0  0  0  0  0  0  0  0
   69.2747   42.4513   57.7787 C   0  0  0  0  0  0  0  0  0  0  0  0
   70.9831   39.1621   58.4071 C   0  0  0  0  0  0  0  0  0  0  0  0
   70.4161   38.4126   59.4155 C   0  0  0  0  0  0  0  0  0  0  0  0
   70.8836   37.1058   59.3024 C   0  0  0  0  0  0  0  0  0  0  0  0
   70.6662   35.9441   60.0144 C   0  0  0  0  0  0  0  0  0  0  0  0
   71.2855   34.7661   59.6567 C   0  0  0  0  0  0  0  0  0  0  0  0
   72.1263   34.8105   58.5586 C   0  0  0  0  0  0  0  0  0  0  0  0
   72.3475   35.9650   57.8447 C   0  0  0  0  0  0  0  0  0  0  0  0
   71.7266   37.1463   58.2031 C   0  0  0  0  0  0  0  0  0  0  0  0
   71.7549   38.3623   57.7125 O   0  0  0  0  0  0  0  0  0  0  0  0
   69.2448   46.6444   56.7449 N   0  0  0  0  0  0  0  0  0  0  0  0
   70.2193   46.9558   57.6051 C   0  0  0  0  0  0  0  0  0  0  0  0
   70.7335   45.7615   58.0698 C   0  0  0  0  0  0  0  0  0  0  0  0
   70.0778   44.7326   57.4979 N   0  0  0  0  0  0  0  0  0  0  0  0
   69.1682   45.3044   56.6881 C   0  0  0  0  0  0  0  0  0  0  0  0
   68.4256   47.6172   56.0117 C   0  0  0  0  0  0  0  0  0  0  0  0
   68.9569   46.8128   51.8333 C   0  0  0  0  0  0  0  0  0  0  0  0
   69.6441   47.8240   52.4864 C   0  0  0  0  0  0  0  0  0  0  0  0
   69.4757   48.0855   53.8309 C   0  0  0  0  0  0  0  0  0  0  0  0
   68.5955   47.3215   54.5636 C   0  0  0  0  0  0  0  0  0  0  0  0
   67.9107   46.3153   53.9151 C   0  0  0  0  0  0  0  0  0  0  0  0
   68.0792   46.0526   52.5663 C   0  0  0  0  0  0  0  0  0  0  0  0
 22 23  2  0
 22 27  1  0
 23 24  1  0
 24 25  2  0
 25 21  1  0
 25 26  1  0
 21 16  1  0
 16 17  1  0
 16 20  2  0
 17 18  2  0
 18 19  1  0
 19  1  1  0
 19 20  1  0
  1  2  2  0
  1  6  1  0
  2  3  1  0
  3  4  2  0
  4  7  1  0
  4  5  1  0
  7  8  2  0
  7 15  1  0
  8  9  1  0
  9 10  2  0
  9 14  1  0
 10 11  1  0
 11 12  2  0
 12 13  1  0
 13 14  2  0
 14 15  1  0
  5  6  2  0
 26 27  2  0
M  CHG  1  16   1
M  END
>  <minimizedAffinity>  (30) 
-9.54791

$$$$
data/reference_output_2/data/smiles/188660.pdb
     RDKit          3D

 27 29  0  0  0  0  0  0  0  0999 V2000
   69.0782   42.9826   57.1903 C   0  0  0  0  0  0  0  0  0  0  0  0
   67.9290   42.5401   57.4286 O   0  0  0  0  0  0  0  0  0  0  0  0
   69.1981   44.2009   56.5249 N   0  0  0  0  0  0  0  0  0  0  0  0
   73.9279   42.6249   58.1583 C   0  0  0  0  0  0  0  0  0  0  0  0
   72.5859   42.0078   58.1052 C   0  0  0  0  0  0  0  0  0  0  0  0
   71.4954   42.7322   57.6946 C   0  0  0  0  0  0  0  0  0  0  0  0
   70.2089   42.1748   57.6341 C   0  0  0  0  0  0  0  0  0  0  0  0
   70.1195   40.8551   58.0147 C   0  0  0  0  0  0  0  0  0  0  0  0
   71.1902   40.0847   58.4357 C   0  0  0  0  0  0  0  0  0  0  0  0
   72.4494   40.6937   58.4768 C   0  0  0  0  0  0  0  0  0  0  0  0
   71.0549   38.7316   58.8187 N   0  0  0  0  0  0  0  0  0  0  0  0
   71.7380   37.6910   58.3307 C   0  0  0  0  0  0  0  0  0  0  0  0
   71.3109   36.5199   58.9711 C   0  0  0  0  0  0  0  0  0  0  0  0
   71.8252   35.1677   58.7078 C   0  0  0  0  0  0  0  0  0  0  0  0
   70.3396   36.9499   59.8592 C   0  0  0  0  0  0  0  0  0  0  0  0
   70.2199   38.2860   59.7318 N   0  0  0  0  0  0  0  0  0  0  0  0
   68.2230   45.0321   56.0579 N   0  0  0  0  0  0  0  0  0  0  0  0
   68.5292   46.6610   55.8651 S   0  0  0  0  0  0  0  0  0  0  0  0
   67.4373   47.5509   56.4526 O   0  0  0  0  0  0  0  0  0  0  0  0
   69.7586   46.9940   56.7096 O   0  0  0  0  0  0  0  0  0  0  0  0
   68.9259   47.1690   54.2458 C   0  0  0  0  0  0  0  0  0  0  0  0
   69.6380   48.3430   54.0742 C   0  0  0  0  0  0  0  0  0  0  0  0
   69.9451   48.7790   52.8037 C   0  0  0  0  0  0  0  0  0  0  0  0
   69.5664   48.0874   51.6862 C   0  0  0  0  0  0  0  0  0  0  0  0
   68.8503   46.9106   51.8860 C   0  0  0  0  0  0  0  0  0  0  0  0
   68.5349   46.4583   53.1415 C   0  0  0  0  0  0  0  0  0  0  0  0
   67.8424   45.3193   53.3001 F   0  0  0  0  0  0  0  0  0  0  0  0
  4  5  1  0
  5  6  2  0
  5 10  1  0
  6  7  1  0
  7  1  1  0
  7  8  2  0
  1  2  2  0
  1  3  1  0
  3 17  1  0
 17 18  1  0
 18 19  2  0
 18 20  2  0
 18 21  1  0
 21 22  2  0
 21 26  1  0
 22 23  1  0
 23 24  2  0
 24 25  1  0
 25 26  2  0
 26 27  1  0
  8  9  1  0
  9 11  1  0
  9 10  2  0
 11 12  1  0
 11 16  1  0
 12 13  2  0
 13 14  1  0
 13 15  1  0
 15 16  2  0
M  END
>  <minimizedAffinity>  (31) 
-9.51749

$$$$
data/200k_reference_output/data/smiles/63305.pdb
     RDKit          3D

 28 31  0  0  0  0  0  0  0  0999 V2000
   69.9176   43.2711   57.4379 C   0  0  0  0  0  0  0  0  0  0  0  0
   71.0306   43.7129   57.7882 O   0  0  0  0  0  0  0  0  0  0  0  0
   69.0167   44.2169   56.8696 N   0  0  0  0  0  0  0  0  0  0  0  0
   67.2864   41.8111   56.4050 C   0  0  0  0  0  0  0  0  0  0  0  0
   68.4425   41.2385   57.1498 C   0  0  0  0  0  0  0  0  0  0  0  0
   68.5268   39.8985   57.4859 N   0  0  0  0  0  0  0  0  0  0  0  0
   69.6761   39.7154   58.1291 N   0  0  0  0  0  0  0  0  0  0  0  0
   70.2705   40.8963   58.1897 N   0  0  0  0  0  0  0  0  0  0  0  0
   69.5649   41.8557   57.6069 C   0  0  0  0  0  0  0  0  0  0  0  0
   70.1878   38.4761   58.6390 C   0  0  0  0  0  0  0  0  0  0  0  0
   71.2881   37.9028   58.0177 C   0  0  0  0  0  0  0  0  0  0  0  0
   71.8312   36.7132   58.4257 C   0  0  0  0  0  0  0  0  0  0  0  0
   71.2684   36.0477   59.4908 C   0  0  0  0  0  0  0  0  0  0  0  0
   70.1902   36.5983   60.1087 C   0  0  0  0  0  0  0  0  0  0  0  0
   69.6200   37.8292   59.6982 C   0  0  0  0  0  0  0  0  0  0  0  0
   69.3005   45.5906   56.7073 N   0  0  0  0  0  0  0  0  0  0  0  0
   68.6074   46.3834   55.7632 C   0  0  0  0  0  0  0  0  0  0  0  0
   67.7330   45.7318   55.1010 O   0  0  0  0  0  0  0  0  0  0  0  0
   68.8163   47.7905   55.5208 C   0  0  0  0  0  0  0  0  0  0  0  0
   68.6520   48.7638   56.4963 C   0  0  0  0  0  0  0  0  0  0  0  0
   68.8048   50.0908   56.1959 C   0  0  0  0  0  0  0  0  0  0  0  0
   69.1340   50.5460   54.9054 C   0  0  0  0  0  0  0  0  0  0  0  0
   69.2956   49.5785   53.9522 C   0  0  0  0  0  0  0  0  0  0  0  0
   69.6227   49.9874   52.6539 C   0  0  0  0  0  0  0  0  0  0  0  0
   69.7797   48.9990   51.7111 C   0  0  0  0  0  0  0  0  0  0  0  0
   69.6297   47.6498   52.0112 C   0  0  0  0  0  0  0  0  0  0  0  0
   69.3107   47.2650   53.2745 C   0  0  0  0  0  0  0  0  0  0  0  0
   69.1414   48.2270   54.2468 C   0  0  0  0  0  0  0  0  0  0  0  0
  4  5  1  0
  5  6  2  0
  5  9  1  0
  6  7  1  0
  7 10  1  0
  7  8  1  0
 10 11  2  0
 10 15  1  0
 11 12  1  0
 12 13  2  0
 13 14  1  0
 14 15  2  0
  8  9  2  0
  9  1  1  0
  1  2  2  0
  1  3  1  0
  3 16  1  0
 16 17  1  0
 17 18  2  0
 17 19  1  0
 19 20  2  0
 19 28  1  0
 20 21  1  0
 21 22  2  0
 22 23  1  0
 23 24  1  0
 23 28  2  0
 24 25  2  0
 25 26  1  0
 26 27  2  0
 27 28  1  0
M  END
>  <minimizedAffinity>  (32) 
-9.51428

$$$$
data/reference_output_2/data/smiles/161593.pdb
     RDKit          3D

 28 31  0  0  0  0  0  0  0  0999 V2000
   70.7767   43.3005   58.0340 C   0  0  0  0  0  0  0  0  0  0  0  0
   70.1318   42.1392   58.1195 N   0  0  0  0  0  0  0  0  0  0  0  0
   70.7756   40.9535   58.2712 C   0  0  0  0  0  0  0  0  0  0  0  0
   70.3876   39.6329   58.3849 C   0  0  0  0  0  0  0  0  0  0  0  0
   71.4972   38.8248   58.5224 C   0  0  0  0  0  0  0  0  0  0  0  0
   72.5428   39.6692   58.4877 N   0  0  0  0  0  0  0  0  0  0  0  0
   72.1215   40.9212   58.3408 N   0  0  0  0  0  0  0  0  0  0  0  0
   72.8076   42.0739   58.2585 C   0  0  0  0  0  0  0  0  0  0  0  0
   74.0574   42.0686   58.3201 O   0  0  0  0  0  0  0  0  0  0  0  0
   72.1527   43.3016   58.1022 C   0  0  0  0  0  0  0  0  0  0  0  0
   72.8427   44.4943   58.0161 O   0  0  0  0  0  0  0  0  0  0  0  0
   71.5675   37.3765   58.6721 C   0  0  0  0  0  0  0  0  0  0  0  0
   72.2826   36.6230   57.7921 C   0  0  0  0  0  0  0  0  0  0  0  0
   72.3525   35.2516   57.9316 C   0  0  0  0  0  0  0  0  0  0  0  0
   71.6926   34.6263   58.9702 C   0  0  0  0  0  0  0  0  0  0  0  0
   70.9528   35.3685   59.8863 C   0  0  0  0  0  0  0  0  0  0  0  0
   70.9203   36.7217   59.6981 C   0  0  0  0  0  0  0  0  0  0  0  0
   69.8974   45.3405   58.8387 O   0  0  0  0  0  0  0  0  0  0  0  0
   70.0885   44.5899   57.8699 C   0  0  0  0  0  0  0  0  0  0  0  0
   69.6258   45.0052   56.5910 N   0  0  0  0  0  0  0  0  0  0  0  0
   68.9485   46.2250   56.2931 C   0  0  0  0  0  0  0  0  0  0  0  0
   68.6773   46.4024   54.8547 C   0  0  0  0  0  0  0  0  0  0  0  0
   69.1204   47.5001   54.1848 C   0  0  0  0  0  0  0  0  0  0  0  0
   68.8366   47.6074   52.8199 C   0  0  0  0  0  0  0  0  0  0  0  0
   68.1280   46.6343   52.1591 C   0  0  0  0  0  0  0  0  0  0  0  0
   67.8421   46.7232   50.8256 F   0  0  0  0  0  0  0  0  0  0  0  0
   67.6965   45.5409   52.8663 C   0  0  0  0  0  0  0  0  0  0  0  0
   67.9679   45.4192   54.2103 C   0  0  0  0  0  0  0  0  0  0  0  0
 18 19  2  0
 19 20  1  0
 19  1  1  0
 20 21  1  0
 21 22  1  0
 22 23  2  0
 22 28  1  0
 23 24  1  0
 24 25  2  0
 25 26  1  0
 25 27  1  0
 27 28  2  0
  1  2  1  0
  1 10  2  0
  2  3  2  0
  3  4  1  0
  3  7  1  0
  4  5  2  0
  5 12  1  0
  5  6  1  0
 12 13  2  0
 12 17  1  0
 13 14  1  0
 14 15  2  0
 15 16  1  0
 16 17  2  0
  6  7  1  0
  7  8  1  0
  8  9  2  0
  8 10  1  0
 10 11  1  0
M  END
>  <minimizedAffinity>  (33) 
-9.51094

$$$$
data/200k_reference_output/data/smiles/8254.pdb
     RDKit          3D

 27 30  0  0  0  0  0  0  0  0999 V2000
   73.8281   49.6276   56.8887 C   0  0  0  0  0  0  0  0  0  0  0  0
   73.1012   48.8279   57.7349 C   0  0  0  0  0  0  0  0  0  0  0  0
   71.7074   48.6894   57.6258 C   0  0  0  0  0  0  0  0  0  0  0  0
   71.0076   49.3529   56.6605 C   0  0  0  0  0  0  0  0  0  0  0  0
   71.7901   50.1626   55.8134 C   0  0  0  0  0  0  0  0  0  0  0  0
   73.1160   50.2720   55.9438 N   0  0  0  0  0  0  0  0  0  0  0  0
   75.5119   49.4882   54.7302 O   0  0  0  0  0  0  0  0  0  0  0  0
   76.1016   49.7428   55.8387 C   0  0  0  0  0  0  0  0  0  0  0  0
   75.2369   49.8149   56.9543 N   0  0  0  0  0  0  0  0  0  0  0  0
   77.5344   49.9257   55.8598 C   0  0  0  0  0  0  0  0  0  0  0  0
   78.4011   48.9852   55.3549 C   0  0  0  0  0  0  0  0  0  0  0  0
   79.7677   49.1306   55.3589 C   0  0  0  0  0  0  0  0  0  0  0  0
   80.2726   50.2529   55.8851 N   0  0  0  0  0  0  0  0  0  0  0  0
   79.4810   51.2166   56.3975 C   0  0  0  0  0  0  0  0  0  0  0  0
   78.0829   51.0653   56.3925 C   0  0  0  0  0  0  0  0  0  0  0  0
   69.5476   49.3113   56.4135 C   0  0  0  0  0  0  0  0  0  0  0  0
   69.0459   48.0355   55.8864 C   0  0  0  0  0  0  0  0  0  0  0  0
   68.7787   46.9945   56.7404 N   0  0  0  0  0  0  0  0  0  0  0  0
   68.3952   45.8195   56.3259 N   0  0  0  0  0  0  0  0  0  0  0  0
   68.2331   45.5456   55.0269 C   0  0  0  0  0  0  0  0  0  0  0  0
   67.8603   44.3999   54.6385 O   0  0  0  0  0  0  0  0  0  0  0  0
   68.4892   46.5711   54.1010 C   0  0  0  0  0  0  0  0  0  0  0  0
   68.8972   47.8209   54.5501 C   0  0  0  0  0  0  0  0  0  0  0  0
   69.0809   48.8394   53.5081 C   0  0  0  0  0  0  0  0  0  0  0  0
   69.8770   48.1358   52.3984 C   0  0  0  0  0  0  0  0  0  0  0  0
   69.0185   47.0970   51.7549 C   0  0  0  0  0  0  0  0  0  0  0  0
   68.2837   46.2160   52.6870 C   0  0  0  0  0  0  0  0  0  0  0  0
  7  8  2  0
  8  9  1  0
  8 10  1  0
  9  1  1  0
  1  2  2  0
  1  6  1  0
  2  3  1  0
  3  4  2  0
  4 16  1  0
  4  5  1  0
 16 17  1  0
 17 18  2  0
 17 23  1  0
 18 19  1  0
 19 20  1  0
 20 21  2  0
 20 22  1  0
 22 23  2  0
 22 27  1  0
 23 24  1  0
 24 25  1  0
 25 26  1  0
 26 27  1  0
  5  6  2  0
 10 11  2  0
 10 15  1  0
 11 12  1  0
 12 13  2  0
 13 14  1  0
 14 15  2  0
M  END
>  <minimizedAffinity>  (34) 
-9.50334

$$$$
data/reference_output_2/data/smiles/130377.pdb
     RDKit          3D

 27 30  0  0  0  0  0  0  0  0999 V2000
   71.9908   47.3096   59.2169 Cl  0  0  0  0  0  0  0  0  0  0  0  0
   70.9480   46.2199   58.3272 C   0  0  0  0  0  0  0  0  0  0  0  0
   71.0835   44.8716   58.4839 N   0  0  0  0  0  0  0  0  0  0  0  0
   70.2965   44.0127   57.8150 C   0  0  0  0  0  0  0  0  0  0  0  0
   69.3633   44.4907   56.9788 N   0  0  0  0  0  0  0  0  0  0  0  0
   69.1397   45.7831   56.7458 C   0  0  0  0  0  0  0  0  0  0  0  0
   69.9804   46.6553   57.4621 C   0  0  0  0  0  0  0  0  0  0  0  0
   69.8039   48.3880   57.2569 Cl  0  0  0  0  0  0  0  0  0  0  0  0
   70.4825   42.6314   58.0186 N   0  0  0  0  0  0  0  0  0  0  0  0
   71.7085   42.1314   58.1968 C   0  0  0  0  0  0  0  0  0  0  0  0
   71.9191   40.7724   58.3986 C   0  0  0  0  0  0  0  0  0  0  0  0
   70.8515   39.8950   58.4194 C   0  0  0  0  0  0  0  0  0  0  0  0
   69.5950   40.4311   58.2327 C   0  0  0  0  0  0  0  0  0  0  0  0
   69.4359   41.8034   58.0343 C   0  0  0  0  0  0  0  0  0  0  0  0
   71.0289   38.4643   58.6265 C   0  0  0  0  0  0  0  0  0  0  0  0
   70.3425   37.7571   59.5896 C   0  0  0  0  0  0  0  0  0  0  0  0
   70.5251   36.3913   59.7728 C   0  0  0  0  0  0  0  0  0  0  0  0
   71.3912   35.7343   58.9961 N   0  0  0  0  0  0  0  0  0  0  0  0
   72.0710   36.4055   58.0513 C   0  0  0  0  0  0  0  0  0  0  0  0
   71.9201   37.7581   57.8363 C   0  0  0  0  0  0  0  0  0  0  0  0
   68.1798   46.3247   55.8843 N   0  0  0  0  0  0  0  0  0  0  0  0
   68.3364   46.4969   54.5168 C   0  0  0  0  0  0  0  0  0  0  0  0
   67.7297   45.6188   53.6332 C   0  0  0  0  0  0  0  0  0  0  0  0
   67.8407   45.7516   52.2645 C   0  0  0  0  0  0  0  0  0  0  0  0
   68.5847   46.7999   51.7532 C   0  0  0  0  0  0  0  0  0  0  0  0
   69.1987   47.6883   52.5993 C   0  0  0  0  0  0  0  0  0  0  0  0
   69.0659   47.5257   53.9894 C   0  0  0  0  0  0  0  0  0  0  0  0
  1  2  1  0
  2  3  2  0
  2  7  1  0
  3  4  1  0
  4  9  1  0
  4  5  2  0
  9 10  2  0
  9 14  1  0
 10 11  1  0
 11 12  2  0
 12 15  1  0
 12 13  1  0
 15 16  2  0
 15 20  1  0
 16 17  1  0
 17 18  2  0
 18 19  1  0
 19 20  2  0
 13 14  2  0
  5  6  1  0
  6 21  1  0
  6  7  2  0
 21 22  1  0
 22 23  2  0
 22 27  1  0
 23 24  1  0
 24 25  2  0
 25 26  1  0
 26 27  2  0
  7  8  1  0
M  CHG  1   9   1
M  END
>  <minimizedAffinity>  (35) 
-9.49122

$$$$
data/200k_reference_output/data/smiles/86806.pdb
     RDKit          3D

 27 29  0  0  0  0  0  0  0  0999 V2000
   68.4080   46.0363   54.0823 C   0  0  0  0  0  0  0  0  0  0  0  0
   67.9082   45.6526   52.8785 C   0  0  0  0  0  0  0  0  0  0  0  0
   68.0747   46.4356   51.7391 C   0  0  0  0  0  0  0  0  0  0  0  0
   68.7535   47.6220   51.8115 C   0  0  0  0  0  0  0  0  0  0  0  0
   69.2698   48.0386   53.0080 C   0  0  0  0  0  0  0  0  0  0  0  0
   69.0889   47.2357   54.1314 C   0  0  0  0  0  0  0  0  0  0  0  0
   67.7929   43.9093   55.3146 N   0  0  0  0  0  0  0  0  0  0  0  0
   68.2588   45.2495   55.3003 C   0  0  0  0  0  0  0  0  0  0  0  0
   68.5523   45.7569   56.4203 O   0  0  0  0  0  0  0  0  0  0  0  0
   67.4567   41.2241   55.4433 O   0  0  0  0  0  0  0  0  0  0  0  0
   67.4979   41.8007   56.5723 C   0  0  0  0  0  0  0  0  0  0  0  0
   67.6735   43.2065   56.5379 N   0  0  0  0  0  0  0  0  0  0  0  0
   67.3690   41.0294   57.8119 C   0  0  0  0  0  0  0  0  0  0  0  0
   66.6579   41.4598   58.9070 C   0  0  0  0  0  0  0  0  0  0  0  0
   66.5373   40.7440   60.0594 C   0  0  0  0  0  0  0  0  0  0  0  0
   67.1415   39.5279   60.1715 C   0  0  0  0  0  0  0  0  0  0  0  0
   67.8736   39.0553   59.0818 C   0  0  0  0  0  0  0  0  0  0  0  0
   67.9855   39.7939   57.9212 C   0  0  0  0  0  0  0  0  0  0  0  0
   70.1549   49.5489   53.1817 S   0  0  0  0  0  0  0  0  0  0  0  0
   71.6138   49.2184   53.0457 O   0  0  0  0  0  0  0  0  0  0  0  0
   69.7835   50.4578   52.0523 O   0  0  0  0  0  0  0  0  0  0  0  0
   69.9093   50.2881   54.6897 N   0  0  0  0  0  0  0  0  0  0  0  0
   71.0078   51.1397   55.0977 C   0  0  0  0  0  0  0  0  0  0  0  0
   70.6502   51.9825   56.3001 C   0  0  0  0  0  0  0  0  0  0  0  0
   69.4704   52.8904   56.0261 C   0  0  0  0  0  0  0  0  0  0  0  0
   68.9222   52.4611   54.6584 C   0  0  0  0  0  0  0  0  0  0  0  0
   68.6614   50.9840   54.7502 C   0  0  0  0  0  0  0  0  0  0  0  0
 10 11  2  0
 11 12  1  0
 11 13  1  0
 12  7  1  0
  7  8  1  0
  8  9  2  0
  8  1  1  0
  1  2  2  0
  1  6  1  0
  2  3  1  0
  3  4  2  0
  4  5  1  0
  5 19  1  0
  5  6  2  0
 19 20  2  0
 19 21  2  0
 19 22  1  0
 22 23  1  0
 22 27  1  0
 23 24  1  0
 24 25  1  0
 25 26  1  0
 26 27  1  0
 13 14  2  0
 13 18  1  0
 14 15  1  0
 15 16  2  0
 16 17  1  0
 17 18  2  0
M  END
>  <minimizedAffinity>  (36) 
-9.47724

$$$$
data/reference_output_2/data/smiles/196911.pdb
     RDKit          3D

 24 27  0  0  0  0  0  0  0  0999 V2000
   70.1269   44.4243   59.5260 O   0  0  0  0  0  0  0  0  0  0  0  0
   70.2721   44.1261   58.0664 S   0  0  0  0  0  0  0  0  0  0  0  0
   71.7380   43.9077   57.7320 O   0  0  0  0  0  0  0  0  0  0  0  0
   69.6981   45.4106   57.0767 N   0  0  0  0  0  0  0  0  0  0  0  0
   68.6605   45.1909   56.1380 C   0  0  0  0  0  0  0  0  0  0  0  0
   68.0969   44.0613   55.9414 N   0  0  0  0  0  0  0  0  0  0  0  0
   68.4036   42.8695   56.6120 C   0  0  0  0  0  0  0  0  0  0  0  0
   67.6637   41.7453   56.2310 C   0  0  0  0  0  0  0  0  0  0  0  0
   66.6731   41.8489   55.2331 O   0  0  0  0  0  0  0  0  0  0  0  0
   67.9042   40.5294   56.8330 C   0  0  0  0  0  0  0  0  0  0  0  0
   68.8712   40.4310   57.8063 C   0  0  0  0  0  0  0  0  0  0  0  0
   69.1522   38.8662   58.5539 Cl  0  0  0  0  0  0  0  0  0  0  0  0
   69.5946   41.5539   58.1717 C   0  0  0  0  0  0  0  0  0  0  0  0
   69.3519   42.7266   57.5797 C   0  0  0  0  0  0  0  0  0  0  0  0
   68.1963   46.2841   55.3347 N   0  0  0  0  0  0  0  0  0  0  0  0
   68.1447   46.2761   53.9325 C   0  0  0  0  0  0  0  0  0  0  0  0
   67.4156   45.3660   53.2205 C   0  0  0  0  0  0  0  0  0  0  0  0
   67.3855   45.4068   51.8139 C   0  0  0  0  0  0  0  0  0  0  0  0
   68.1033   46.3806   51.1354 C   0  0  0  0  0  0  0  0  0  0  0  0
   68.8385   47.3006   51.8508 C   0  0  0  0  0  0  0  0  0  0  0  0
   69.6021   48.3216   51.4262 N   0  0  0  0  0  0  0  0  0  0  0  0
   70.1298   48.9503   52.4916 C   0  0  0  0  0  0  0  0  0  0  0  0
   69.6799   48.2987   53.6205 C   0  0  0  0  0  0  0  0  0  0  0  0
   68.8520   47.2391   53.2324 C   0  0  0  0  0  0  0  0  0  0  0  0
  1  2  2  0
  2  3  2  0
  2  4  1  0
  2 14  1  0
  4  5  1  0
  5 15  1  0
  5  6  2  0
 15 16  1  0
 16 17  2  0
 16 24  1  0
 17 18  1  0
 18 19  2  0
 19 20  1  0
 20 21  1  0
 20 24  2  0
 21 22  1  0
 22 23  2  0
 23 24  1  0
  6  7  1  0
  7  8  1  0
  7 14  2  0
  8  9  1  0
  8 10  2  0
 10 11  1  0
 11 12  1  0
 11 13  2  0
 13 14  1  0
M  CHG  1   6   1
M  END
>  <minimizedAffinity>  (37) 
-9.46059

$$$$
data/reference_output_2/data/smiles/104556.pdb
     RDKit          3D

 28 32  0  0  0  0  0  0  0  0999 V2000
   75.2981   35.6732   53.5446 N   0  0  0  0  0  0  0  0  0  0  0  0
   74.0423   35.5593   53.0813 C   0  0  0  0  0  0  0  0  0  0  0  0
   73.2890   34.9466   54.0744 C   0  0  0  0  0  0  0  0  0  0  0  0
   74.0953   34.7101   55.0961 N   0  0  0  0  0  0  0  0  0  0  0  0
   75.3239   35.1467   54.7883 C   0  0  0  0  0  0  0  0  0  0  0  0
   76.4269   36.2563   52.8361 C   0  0  0  0  0  0  0  0  0  0  0  0
   77.8463   34.3497   52.8139 O   0  0  0  0  0  0  0  0  0  0  0  0
   77.1720   35.1900   52.1502 C   0  0  0  0  0  0  0  0  0  0  0  0
   77.1664   35.0575   50.7002 C   0  0  0  0  0  0  0  0  0  0  0  0
   78.0577   35.8197   49.9364 C   0  0  0  0  0  0  0  0  0  0  0  0
   78.0784   35.7208   48.5620 C   0  0  0  0  0  0  0  0  0  0  0  0
   77.2368   34.8822   47.8652 C   0  0  0  0  0  0  0  0  0  0  0  0
   77.2540   34.7811   46.4906 C   0  0  0  0  0  0  0  0  0  0  0  0
   76.4040   33.9346   45.7999 C   0  0  0  0  0  0  0  0  0  0  0  0
   75.5174   33.1768   46.5408 C   0  0  0  0  0  0  0  0  0  0  0  0
   75.5068   33.2833   47.9231 C   0  0  0  0  0  0  0  0  0  0  0  0
   76.3556   34.1285   48.6052 C   0  0  0  0  0  0  0  0  0  0  0  0
   76.3276   34.2203   50.0003 C   0  0  0  0  0  0  0  0  0  0  0  0
   73.7352   34.0738   56.3718 C   0  0  0  0  0  0  0  0  0  0  0  0
   72.9346   35.0574   57.1607 C   0  0  0  0  0  0  0  0  0  0  0  0
   72.1857   34.7384   58.2871 C   0  0  0  0  0  0  0  0  0  0  0  0
   71.5991   35.8925   58.7300 C   0  0  0  0  0  0  0  0  0  0  0  0
   70.7554   36.2324   59.7807 C   0  0  0  0  0  0  0  0  0  0  0  0
   70.3178   37.5058   59.9833 C   0  0  0  0  0  0  0  0  0  0  0  0
   70.7230   38.5026   59.1171 C   0  0  0  0  0  0  0  0  0  0  0  0
   71.5621   38.1869   58.0654 C   0  0  0  0  0  0  0  0  0  0  0  0
   72.0107   36.8791   57.8596 C   0  0  0  0  0  0  0  0  0  0  0  0
   72.7915   36.3339   56.9584 O   0  0  0  0  0  0  0  0  0  0  0  0
  7  8  2  0
  8  6  1  0
  8  9  1  0
  6  1  1  0
  1  2  1  0
  1  5  2  0
  2  3  2  0
  3  4  1  0
  4 19  1  0
  4  5  1  0
 19 20  1  0
 20 21  2  0
 20 28  1  0
 21 22  1  0
 22 23  2  0
 22 27  1  0
 23 24  1  0
 24 25  2  0
 25 26  1  0
 26 27  2  0
 27 28  1  0
  9 10  2  0
  9 18  1  0
 10 11  1  0
 11 12  2  0
 12 13  1  0
 12 17  1  0
 13 14  2  0
 14 15  1  0
 15 16  2  0
 16 17  1  0
 17 18  2  0
M  CHG  1   1   1
M  END
>  <minimizedAffinity>  (38) 
-9.45671

$$$$
data/200k_reference_output/data/smiles/78999.pdb
     RDKit          3D

 29 32  0  0  0  0  0  0  0  0999 V2000
   68.6740   39.1527   57.6610 O   0  0  0  0  0  0  0  0  0  0  0  0
   67.9902   39.9233   58.3520 C   0  0  0  0  0  0  0  0  0  0  0  0
   67.0800   39.4207   59.2080 N   0  0  0  0  0  0  0  0  0  0  0  0
   66.3534   40.2761   59.9436 C   0  0  0  0  0  0  0  0  0  0  0  0
   65.4421   39.8043   60.8030 C   0  0  0  0  0  0  0  0  0  0  0  0
   66.5656   41.6363   59.7964 C   0  0  0  0  0  0  0  0  0  0  0  0
   65.8748   42.4145   60.4950 O   0  0  0  0  0  0  0  0  0  0  0  0
   67.4750   42.1395   58.9404 N   0  0  0  0  0  0  0  0  0  0  0  0
   68.2066   41.2822   58.2002 C   0  0  0  0  0  0  0  0  0  0  0  0
   69.0997   41.7736   57.3587 C   0  0  0  0  0  0  0  0  0  0  0  0
   69.3338   43.2116   57.1938 C   0  0  0  0  0  0  0  0  0  0  0  0
   70.2398   43.9150   57.9339 C   0  0  0  0  0  0  0  0  0  0  0  0
   70.3793   45.2668   57.6940 C   0  0  0  0  0  0  0  0  0  0  0  0
   69.6282   45.9239   56.7292 C   0  0  0  0  0  0  0  0  0  0  0  0
   68.7105   45.2213   55.9770 C   0  0  0  0  0  0  0  0  0  0  0  0
   68.5900   43.8719   56.2348 C   0  0  0  0  0  0  0  0  0  0  0  0
   67.9394   45.8437   55.0018 O   0  0  0  0  0  0  0  0  0  0  0  0
   68.4852   46.6672   54.0514 C   0  0  0  0  0  0  0  0  0  0  0  0
   68.5588   46.2508   52.7387 C   0  0  0  0  0  0  0  0  0  0  0  0
   69.1175   47.0978   51.7785 C   0  0  0  0  0  0  0  0  0  0  0  0
   69.6029   48.3460   52.0966 C   0  0  0  0  0  0  0  0  0  0  0  0
   70.1467   49.1759   51.1735 F   0  0  0  0  0  0  0  0  0  0  0  0
   69.5257   48.7547   53.4101 C   0  0  0  0  0  0  0  0  0  0  0  0
   68.9745   47.9242   54.3706 C   0  0  0  0  0  0  0  0  0  0  0  0
   65.2044   38.3748   60.9715 C   0  0  0  0  0  0  0  0  0  0  0  0
   64.4511   37.5862   60.1202 C   0  0  0  0  0  0  0  0  0  0  0  0
   64.4577   36.2830   60.6131 C   0  0  0  0  0  0  0  0  0  0  0  0
   65.2364   36.3678   61.7638 C   0  0  0  0  0  0  0  0  0  0  0  0
   65.6483   37.5972   61.9322 O   0  0  0  0  0  0  0  0  0  0  0  0
  1  2  2  0
  2  3  1  0
  2  9  1  0
  3  4  1  0
  4  5  2  0
  4  6  1  0
  5 25  1  0
 25 26  2  0
 25 29  1  0
 26 27  1  0
 27 28  2  0
 28 29  1  0
  6  7  2  0
  6  8  1  0
  8  9  1  0
  9 10  2  0
 10 11  1  0
 11 12  2  0
 11 16  1  0
 12 13  1  0
 13 14  2  0
 14 15  1  0
 15 17  1  0
 15 16  2  0
 17 18  1  0
 18 19  2  0
 18 24  1  0
 19 20  1  0
 20 21  2  0
 21 22  1  0
 21 23  1  0
 23 24  2  0
M  END
>  <minimizedAffinity>  (39) 
-9.45283

$$$$
data/reference_output_2/data/smiles/184816.pdb
     RDKit          3D

 28 32  0  0  0  0  0  0  0  0999 V2000
   77.7710   35.0279   55.3808 O   0  0  0  0  0  0  0  0  0  0  0  0
   76.8477   35.0627   54.5266 C   0  0  0  0  0  0  0  0  0  0  0  0
   77.1589   35.0309   53.1932 N   0  0  0  0  0  0  0  0  0  0  0  0
   76.2257   35.0658   52.2255 C   0  0  0  0  0  0  0  0  0  0  0  0
   74.9181   35.1349   52.6544 C   0  0  0  0  0  0  0  0  0  0  0  0
   74.5727   35.1690   54.0118 C   0  0  0  0  0  0  0  0  0  0  0  0
   73.2651   35.2379   54.4324 C   0  0  0  0  0  0  0  0  0  0  0  0
   72.9810   35.2685   55.8019 C   0  0  0  0  0  0  0  0  0  0  0  0
   73.9440   35.2325   56.7396 N   0  0  0  0  0  0  0  0  0  0  0  0
   75.2199   35.1645   56.3153 C   0  0  0  0  0  0  0  0  0  0  0  0
   75.5519   35.1326   54.9730 C   0  0  0  0  0  0  0  0  0  0  0  0
   76.5891   35.0306   50.8060 C   0  0  0  0  0  0  0  0  0  0  0  0
   77.6207   35.7996   50.3153 C   0  0  0  0  0  0  0  0  0  0  0  0
   77.9921   35.7877   48.9606 C   0  0  0  0  0  0  0  0  0  0  0  0
   77.3200   34.9895   48.0683 C   0  0  0  0  0  0  0  0  0  0  0  0
   77.6580   34.9497   46.7202 C   0  0  0  0  0  0  0  0  0  0  0  0
   76.9894   34.1527   45.8219 C   0  0  0  0  0  0  0  0  0  0  0  0
   75.9533   33.3720   46.2831 C   0  0  0  0  0  0  0  0  0  0  0  0
   75.6170   33.4148   47.6390 C   0  0  0  0  0  0  0  0  0  0  0  0
   76.2888   34.2146   48.5357 C   0  0  0  0  0  0  0  0  0  0  0  0
   75.9334   34.2413   49.8915 C   0  0  0  0  0  0  0  0  0  0  0  0
   73.6151   35.2658   58.1578 C   0  0  0  0  0  0  0  0  0  0  0  0
   72.5108   36.2413   58.4319 C   0  0  0  0  0  0  0  0  0  0  0  0
   71.4248   35.8313   59.1780 C   0  0  0  0  0  0  0  0  0  0  0  0
   70.3845   36.7064   59.4513 C   0  0  0  0  0  0  0  0  0  0  0  0
   70.4034   38.0030   58.9893 C   0  0  0  0  0  0  0  0  0  0  0  0
   71.5021   38.3825   58.2471 C   0  0  0  0  0  0  0  0  0  0  0  0
   72.5418   37.5246   57.9686 C   0  0  0  0  0  0  0  0  0  0  0  0
  1  2  2  0
  2  3  1  0
  2 11  1  0
  3  4  1  0
  4 12  1  0
  4  5  2  0
 12 13  2  0
 12 21  1  0
 13 14  1  0
 14 15  2  0
 15 16  1  0
 15 20  1  0
 16 17  2  0
 17 18  1  0
 18 19  2  0
 19 20  1  0
 20 21  2  0
  5  6  1  0
  6  7  1  0
  6 11  2  0
  7  8  2  0
  8  9  1  0
  9 22  1  0
  9 10  2  0
 22 23  1  0
 23 24  2  0
 23 28  1  0
 24 25  1  0
 25 26  2  0
 26 27  1  0
 27 28  2  0
 10 11  1  0
M  CHG  1   9   1
M  END
>  <minimizedAffinity>  (40) 
-9.44700

$$$$
data/reference_output_2/data/smiles/139040.pdb
     RDKit          3D

 27 30  0  0  0  0  0  0  0  0999 V2000
   69.5777   50.6875   56.6992 N   0  0  2  0  0  0  0  0  0  0  0  0
   68.2737   51.2951   56.6424 C   0  0  0  0  0  0  0  0  0  0  0  0
   67.2782   50.7305   57.5788 C   0  0  0  0  0  0  0  0  0  0  0  0
   67.4221   49.2937   57.9122 C   0  0  0  0  0  0  0  0  0  0  0  0
   68.4492   48.5324   57.1498 C   0  0  2  0  0  0  0  0  0  0  0  0
   69.4307   49.3153   56.3609 C   0  0  0  0  0  0  0  0  0  0  0  0
   70.3104   50.9846   57.8767 C   0  0  0  0  0  0  0  0  0  0  0  0
   73.7956   50.3110   56.5764 C   0  0  0  0  0  0  0  0  0  0  0  0
   74.3444   49.6066   57.6192 C   0  0  0  0  0  0  0  0  0  0  0  0
   73.5821   49.3548   58.7389 C   0  0  0  0  0  0  0  0  0  0  0  0
   72.2871   49.8253   58.7694 C   0  0  0  0  0  0  0  0  0  0  0  0
   71.7157   50.5425   57.7191 C   0  0  0  0  0  0  0  0  0  0  0  0
   72.4883   50.7817   56.6167 C   0  0  0  0  0  0  0  0  0  0  0  0
   73.7895   50.4095   53.7220 N   0  0  0  0  0  0  0  0  0  0  0  0
   74.7454   50.6418   55.1432 S   0  0  0  0  0  0  0  0  0  0  0  0
   75.9475   49.7414   55.1109 O   0  0  0  0  0  0  0  0  0  0  0  0
   75.2052   52.0638   55.2195 O   0  0  0  0  0  0  0  0  0  0  0  0
   67.8456   47.5357   56.2689 N   0  0  0  0  0  0  0  0  0  0  0  0
   68.2624   47.3395   54.9293 C   0  0  0  0  0  0  0  0  0  0  0  0
   67.7680   46.2355   54.2452 C   0  0  0  0  0  0  0  0  0  0  0  0
   68.1397   46.0126   52.9490 C   0  0  0  0  0  0  0  0  0  0  0  0
   69.0004   46.8810   52.3267 C   0  0  0  0  0  0  0  0  0  0  0  0
   69.5222   46.9008   51.0780 N   0  0  0  0  0  0  0  0  0  0  0  0
   70.3194   47.9546   50.9273 N   0  0  0  0  0  0  0  0  0  0  0  0
   70.3232   48.6362   52.0928 C   0  0  0  0  0  0  0  0  0  0  0  0
   69.5028   47.9796   52.9791 C   0  0  0  0  0  0  0  0  0  0  0  0
   69.1217   48.1996   54.2926 C   0  0  0  0  0  0  0  0  0  0  0  0
 14 15  1  0
 15 16  2  0
 15 17  2  0
 15  8  1  0
  8  9  2  0
  8 13  1  0
  9 10  1  0
 10 11  2  0
 11 12  1  0
 12  7  1  0
 12 13  2  0
  1  7  1  1
  1  2  1  0
  1  6  1  0
  2  3  1  0
  3  4  1  0
  4  5  1  0
  5 18  1  6
  5  6  1  0
 18 19  1  0
 19 20  2  0
 19 27  1  0
 20 21  1  0
 21 22  2  0
 22 23  1  0
 22 26  1  0
 23 24  1  0
 24 25  2  0
 25 26  1  0
 26 27  2  0
M  CHG  1   1   1
M  END
>  <minimizedAffinity>  (41) 
-9.44312

$$$$
data/200k_reference_output/data/smiles/65922.pdb
     RDKit          3D

 28 31  0  0  0  0  0  0  0  0999 V2000
   71.2071   46.3150   58.1084 C   0  0  0  0  0  0  0  0  0  0  0  0
   71.9144   46.9897   59.0973 C   0  0  0  0  0  0  0  0  0  0  0  0
   71.8180   48.3521   59.1511 C   0  0  0  0  0  0  0  0  0  0  0  0
   71.0353   49.0320   58.2428 C   0  0  0  0  0  0  0  0  0  0  0  0
   70.3227   48.3805   57.2510 C   0  0  0  0  0  0  0  0  0  0  0  0
   70.4294   47.0231   57.2103 C   0  0  0  0  0  0  0  0  0  0  0  0
   69.6023   44.4259   59.4750 O   0  0  0  0  0  0  0  0  0  0  0  0
   70.4523   43.9846   58.6675 C   0  0  0  0  0  0  0  0  0  0  0  0
   71.2625   44.9073   57.9757 N   0  0  0  0  0  0  0  0  0  0  0  0
   70.6020   42.4966   58.4391 C   0  0  0  0  0  0  0  0  0  0  0  0
   69.4653   42.0281   57.6358 C   0  0  0  0  0  0  0  0  0  0  0  0
   68.7615   42.8820   56.8381 C   0  0  0  0  0  0  0  0  0  0  0  0
   67.6888   42.3964   56.0872 C   0  0  0  0  0  0  0  0  0  0  0  0
   67.3541   41.0709   56.1603 C   0  0  0  0  0  0  0  0  0  0  0  0
   68.0909   40.2355   56.9797 C   0  0  0  0  0  0  0  0  0  0  0  0
   69.1187   40.7383   57.6883 N   0  0  0  0  0  0  0  0  0  0  0  0
   69.5220   49.1835   56.3090 C   0  0  0  0  0  0  0  0  0  0  0  0
   69.7571   48.8385   54.8830 C   0  0  0  0  0  0  0  0  0  0  0  0
   70.8025   49.4229   54.2161 N   0  0  0  0  0  0  0  0  0  0  0  0
   71.0473   49.1635   52.9458 N   0  0  0  0  0  0  0  0  0  0  0  0
   70.2918   48.3102   52.2127 C   0  0  0  0  0  0  0  0  0  0  0  0
   70.5140   48.0569   51.0048 O   0  0  0  0  0  0  0  0  0  0  0  0
   69.2305   47.6921   52.8155 C   0  0  0  0  0  0  0  0  0  0  0  0
   68.9896   47.9793   54.1603 C   0  0  0  0  0  0  0  0  0  0  0  0
   67.8485   47.2784   54.7651 C   0  0  0  0  0  0  0  0  0  0  0  0
   67.9509   45.8071   54.4483 C   0  0  0  0  0  0  0  0  0  0  0  0
   68.2842   45.5117   53.0288 C   0  0  0  0  0  0  0  0  0  0  0  0
   68.2902   46.7535   52.1527 C   0  0  0  0  0  0  0  0  0  0  0  0
  7  8  2  0
  8 10  1  0
  8  9  1  0
 10 11  1  0
 11 12  2  0
 11 16  1  0
 12 13  1  0
 13 14  2  0
 14 15  1  0
 15 16  2  0
  9  1  1  0
  1  2  2  0
  1  6  1  0
  2  3  1  0
  3  4  2  0
  4  5  1  0
  5 17  1  0
  5  6  2  0
 17 18  1  0
 18 19  2  0
 18 24  1  0
 19 20  1  0
 20 21  1  0
 21 22  2  0
 21 23  1  0
 23 24  2  0
 23 28  1  0
 24 25  1  0
 25 26  1  0
 26 27  1  0
 27 28  1  0
M  END
>  <minimizedAffinity>  (42) 
-9.43587

$$$$
data/reference_output_2/data/smiles/135619.pdb
     RDKit          3D

 27 29  0  0  0  0  0  0  0  0999 V2000
   70.3824   49.6004   54.0605 C   0  0  0  0  0  0  0  0  0  0  0  0
   69.9100   49.0331   55.2423 C   0  0  0  0  0  0  0  0  0  0  0  0
   69.1463   47.9253   55.3213 N   0  0  0  0  0  0  0  0  0  0  0  0
   68.8087   47.3193   54.1507 C   0  0  0  0  0  0  0  0  0  0  0  0
   68.0192   46.2096   54.1188 C   0  0  0  0  0  0  0  0  0  0  0  0
   67.6281   45.5555   52.9377 C   0  0  0  0  0  0  0  0  0  0  0  0
   68.0748   46.0763   51.7421 C   0  0  0  0  0  0  0  0  0  0  0  0
   68.8697   47.1968   51.7411 C   0  0  0  0  0  0  0  0  0  0  0  0
   69.2294   47.8085   52.9292 C   0  0  0  0  0  0  0  0  0  0  0  0
   70.0244   48.9631   52.9074 C   0  0  0  0  0  0  0  0  0  0  0  0
   70.3853   49.3792   51.8005 O   0  0  0  0  0  0  0  0  0  0  0  0
   71.1971   50.7933   54.1663 C   0  0  0  0  0  0  0  0  0  0  0  0
   70.9926   51.7766   53.3755 O   0  0  0  0  0  0  0  0  0  0  0  0
   72.2748   50.9490   55.1523 C   0  0  0  0  0  0  0  0  0  0  0  0
   73.5083   51.2607   54.3449 C   0  0  0  0  0  0  0  0  0  0  0  0
   73.9181   50.3227   53.6105 O   0  0  0  0  0  0  0  0  0  0  0  0
   73.7798   53.4796   53.6860 O   0  0  0  0  0  0  0  0  0  0  0  0
   74.2016   52.5256   54.3839 C   0  0  0  0  0  0  0  0  0  0  0  0
   75.3172   52.6704   55.1873 O   0  0  0  0  0  0  0  0  0  0  0  0
   68.7124   47.3590   56.5583 C   0  0  0  0  0  0  0  0  0  0  0  0
   69.7709   46.7225   57.3710 C   0  0  0  0  0  0  0  0  0  0  0  0
   70.6013   47.4516   58.2040 C   0  0  0  0  0  0  0  0  0  0  0  0
   71.5866   46.8272   58.9826 C   0  0  0  0  0  0  0  0  0  0  0  0
   71.7112   45.4581   58.8979 C   0  0  0  0  0  0  0  0  0  0  0  0
   70.8965   44.7355   58.0789 C   0  0  0  0  0  0  0  0  0  0  0  0
   69.9298   45.3639   57.3178 C   0  0  0  0  0  0  0  0  0  0  0  0
   69.1883   44.5385   56.4930 F   0  0  0  0  0  0  0  0  0  0  0  0
 17 18  2  0
 18 19  1  0
 18 15  1  0
 15 16  2  0
 15 14  1  0
 14 12  1  0
 12 13  2  0
 12  1  1  0
  1  2  2  0
  1 10  1  0
  2  3  1  0
  3 20  1  0
  3  4  1  0
 20 21  1  0
 21 22  2  0
 21 26  1  0
 22 23  1  0
 23 24  2  0
 24 25  1  0
 25 26  2  0
 26 27  1  0
  4  5  1  0
  4  9  2  0
  5  6  2  0
  6  7  1  0
  7  8  2  0
  8  9  1  0
  9 10  1  0
 10 11  2  0
M  END
>  <minimizedAffinity>  (43) 
-9.43302

$$$$
data/reference_output_2/data/smiles/89075.pdb
     RDKit          3D

 25 28  0  0  0  0  0  0  0  0999 V2000
   69.3255   46.3064   57.0133 C   0  0  0  0  0  0  0  0  0  0  0  0
   69.9679   45.1470   57.2870 N   0  0  0  0  0  0  0  0  0  0  0  0
   71.0251   45.0505   58.1055 C   0  0  0  0  0  0  0  0  0  0  0  0
   71.4723   46.1746   58.6885 N   0  0  0  0  0  0  0  0  0  0  0  0
   70.8699   47.3594   58.4528 C   0  0  0  0  0  0  0  0  0  0  0  0
   71.1045   48.6090   58.8919 N   0  0  0  0  0  0  0  0  0  0  0  0
   70.2103   49.4754   58.3574 C   0  0  0  0  0  0  0  0  0  0  0  0
   70.0155   50.8417   58.4786 C   0  0  0  0  0  0  0  0  0  0  0  0
   68.9971   51.4735   57.7967 C   0  0  0  0  0  0  0  0  0  0  0  0
   68.1622   50.7342   56.9852 C   0  0  0  0  0  0  0  0  0  0  0  0
   68.3171   49.3722   56.8331 C   0  0  0  0  0  0  0  0  0  0  0  0
   69.3466   48.7735   57.5301 C   0  0  0  0  0  0  0  0  0  0  0  0
   69.7785   47.4646   57.6080 C   0  0  0  0  0  0  0  0  0  0  0  0
   68.2069   46.3045   56.1255 N   0  0  0  0  0  0  0  0  0  0  0  0
   69.1575   47.8431   52.9179 C   0  0  0  0  0  0  0  0  0  0  0  0
   68.6350   46.9359   52.0224 C   0  0  0  0  0  0  0  0  0  0  0  0
   67.9682   45.8157   52.4833 C   0  0  0  0  0  0  0  0  0  0  0  0
   67.8058   45.5713   53.8238 C   0  0  0  0  0  0  0  0  0  0  0  0
   68.3163   46.4593   54.7355 C   0  0  0  0  0  0  0  0  0  0  0  0
   68.9782   47.5694   54.2536 C   0  0  0  0  0  0  0  0  0  0  0  0
   70.0055   49.2692   52.4240 S   0  0  0  0  0  0  0  0  0  0  0  0
   71.4477   49.1291   52.8484 O   0  0  0  0  0  0  0  0  0  0  0  0
   69.9816   49.4682   50.9303 O   0  0  0  0  0  0  0  0  0  0  0  0
   70.3336   51.3596   53.9901 C   0  0  0  0  0  0  0  0  0  0  0  0
   69.3610   50.6966   53.1423 N   0  0  0  0  0  0  0  0  0  0  0  0
 24 25  1  0
 25 21  1  0
 21 22  2  0
 21 23  2  0
 21 15  1  0
 15 16  2  0
 15 20  1  0
 16 17  1  0
 17 18  2  0
 18 19  1  0
 19 14  1  0
 19 20  2  0
 14  1  1  0
  1  2  2  0
  1 13  1  0
  2  3  1  0
  3  4  2  0
  4  5  1  0
  5  6  1  0
  5 13  2  0
  6  7  1  0
  7  8  1  0
  7 12  2  0
  8  9  2  0
  9 10  1  0
 10 11  2  0
 11 12  1  0
 12 13  1  0
M  END
>  <minimizedAffinity>  (44) 
-9.42732

$$$$
data/reference_output_2/data/smiles/160782.pdb
     RDKit          3D

 26 28  0  0  0  0  0  0  0  0999 V2000
   70.0591   41.7023   58.5636 C   0  0  0  0  0  0  0  0  0  0  0  0
   70.4919   40.6312   59.2964 C   0  0  0  0  0  0  0  0  0  0  0  0
   69.9309   39.3797   59.1214 C   0  0  0  0  0  0  0  0  0  0  0  0
   68.9214   39.1864   58.2031 C   0  0  0  0  0  0  0  0  0  0  0  0
   68.4902   40.2672   57.4692 C   0  0  0  0  0  0  0  0  0  0  0  0
   69.0460   41.5150   57.6401 C   0  0  0  0  0  0  0  0  0  0  0  0
   68.3734   42.4452   56.7264 C   0  0  0  0  0  0  0  0  0  0  0  0
   68.6056   43.7074   56.5811 N   0  0  0  0  0  0  0  0  0  0  0  0
   67.3817   41.6594   56.0049 C   0  0  0  0  0  0  0  0  0  0  0  0
   66.6051   42.1473   55.1209 O   0  0  0  0  0  0  0  0  0  0  0  0
   67.4605   40.3319   56.4638 N   0  0  0  0  0  0  0  0  0  0  0  0
   72.2657   44.7707   58.4528 C   0  0  0  0  0  0  0  0  0  0  0  0
   71.7719   43.3623   58.2385 C   0  0  0  0  0  0  0  0  0  0  0  0
   72.6601   42.4285   57.5175 C   0  0  0  0  0  0  0  0  0  0  0  0
   70.6100   43.0503   58.7339 C   0  0  0  0  0  0  0  0  0  0  0  0
   67.8342   44.4006   55.6451 N   0  0  0  0  0  0  0  0  0  0  0  0
   68.3158   45.5702   54.9913 C   0  0  0  0  0  0  0  0  0  0  0  0
   68.9445   46.5831   55.7103 C   0  0  0  0  0  0  0  0  0  0  0  0
   69.4182   47.7284   55.0877 C   0  0  0  0  0  0  0  0  0  0  0  0
   69.2930   47.9201   53.7287 C   0  0  0  0  0  0  0  0  0  0  0  0
   68.6696   46.9158   53.0197 C   0  0  0  0  0  0  0  0  0  0  0  0
   68.1978   45.7776   53.6347 C   0  0  0  0  0  0  0  0  0  0  0  0
   69.9010   49.3630   52.9312 S   0  0  0  0  0  0  0  0  0  0  0  0
   69.9070   49.2197   51.2164 N   0  0  0  0  0  0  0  0  0  0  0  0
   69.0832   50.5578   53.3034 O   0  0  0  0  0  0  0  0  0  0  0  0
   71.3225   49.6448   53.3409 O   0  0  0  0  0  0  0  0  0  0  0  0
 12 13  1  0
 13 14  1  0
 13 15  2  0
 15  1  1  0
  1  2  2  0
  1  6  1  0
  2  3  1  0
  3  4  2  0
  4  5  1  0
  5  6  2  0
  5 11  1  0
  6  7  1  0
  7  8  2  0
  7  9  1  0
  8 16  1  0
 16 17  1  0
 17 18  2  0
 17 22  1  0
 18 19  1  0
 19 20  2  0
 20 23  1  0
 20 21  1  0
 23 24  1  0
 23 25  2  0
 23 26  2  0
 21 22  2  0
  9 10  2  0
  9 11  1  0
M  END
>  <minimizedAffinity>  (45) 
-9.41836

$$$$
data/200k_reference_output/data/smiles/17576.pdb
     RDKit          3D

 27 29  0  0  0  0  0  0  0  0999 V2000
   70.8862   43.0190   57.2613 O   0  0  0  0  0  0  0  0  0  0  0  0
   69.6685   42.6999   57.4938 C   0  0  0  0  0  0  0  0  0  0  0  0
   68.7196   43.6412   57.0444 N   0  0  0  0  0  0  0  0  0  0  0  0
   69.0768   44.8300   56.3841 N   0  0  0  0  0  0  0  0  0  0  0  0
   68.4145   45.2701   55.2067 C   0  0  0  0  0  0  0  0  0  0  0  0
   67.4862   44.5266   54.7919 O   0  0  0  0  0  0  0  0  0  0  0  0
   68.7509   46.4951   54.4903 C   0  0  0  0  0  0  0  0  0  0  0  0
   68.7988   46.4769   53.1198 C   0  0  0  0  0  0  0  0  0  0  0  0
   69.1081   47.5874   52.3744 C   0  0  0  0  0  0  0  0  0  0  0  0
   69.3819   48.7701   53.0298 C   0  0  0  0  0  0  0  0  0  0  0  0
   69.3435   48.8268   54.4237 C   0  0  0  0  0  0  0  0  0  0  0  0
   69.0269   47.6815   55.1297 C   0  0  0  0  0  0  0  0  0  0  0  0
   69.7032   49.9260   52.2616 N   0  0  0  0  0  0  0  0  0  0  0  0
   70.0355   50.9770   52.8327 O   0  0  0  0  0  0  0  0  0  0  0  0
   69.6480   49.8857   50.8947 O   0  0  0  0  0  0  0  0  0  0  0  0
   69.3991   41.4282   58.1873 C   0  0  0  0  0  0  0  0  0  0  0  0
   70.5214   40.6408   58.3737 O   0  0  0  0  0  0  0  0  0  0  0  0
   70.5857   39.3271   58.7500 C   0  0  0  0  0  0  0  0  0  0  0  0
   69.8517   38.7877   59.7890 C   0  0  0  0  0  0  0  0  0  0  0  0
   69.9637   37.4545   60.1180 C   0  0  0  0  0  0  0  0  0  0  0  0
   70.8006   36.6022   59.4374 C   0  0  0  0  0  0  0  0  0  0  0  0
   70.9170   35.2656   59.7621 C   0  0  0  0  0  0  0  0  0  0  0  0
   71.7702   34.4171   59.0625 C   0  0  0  0  0  0  0  0  0  0  0  0
   72.5011   34.9497   58.0308 C   0  0  0  0  0  0  0  0  0  0  0  0
   72.3789   36.2915   57.7112 C   0  0  0  0  0  0  0  0  0  0  0  0
   71.5343   37.1458   58.3984 C   0  0  0  0  0  0  0  0  0  0  0  0
   71.4288   38.4797   58.0628 C   0  0  0  0  0  0  0  0  0  0  0  0
  1  2  2  0
  2 16  1  0
  2  3  1  0
 16 17  1  0
 17 18  1  0
 18 19  2  0
 18 27  1  0
 19 20  1  0
 20 21  2  0
 21 22  1  0
 21 26  1  0
 22 23  2  0
 23 24  1  0
 24 25  2  0
 25 26  1  0
 26 27  2  0
  3  4  1  0
  4  5  1  0
  5  6  2  0
  5  7  1  0
  7  8  2  0
  7 12  1  0
  8  9  1  0
  9 10  2  0
 10 13  1  0
 10 11  1  0
 13 14  2  0
 13 15  1  0
 11 12  2  0
M  CHG  2  13   1  15  -1
M  END
>  <minimizedAffinity>  (46) 
-9.40769

$$$$
data/200k_reference_output/data/smiles/84986.pdb
     RDKit          3D

 27 29  0  0  0  0  0  0  0  0999 V2000
   70.9071   44.1809   58.0616 O   0  0  0  0  0  0  0  0  0  0  0  0
   69.8405   43.9916   57.4166 C   0  0  0  0  0  0  0  0  0  0  0  0
   69.2458   45.1618   56.8663 N   0  0  0  0  0  0  0  0  0  0  0  0
   69.2625   42.6652   57.2529 C   0  0  0  0  0  0  0  0  0  0  0  0
   68.2013   42.5304   56.3609 C   0  0  0  0  0  0  0  0  0  0  0  0
   67.6172   41.2939   56.1699 C   0  0  0  0  0  0  0  0  0  0  0  0
   66.5750   41.1219   55.3040 F   0  0  0  0  0  0  0  0  0  0  0  0
   68.0805   40.1927   56.8597 C   0  0  0  0  0  0  0  0  0  0  0  0
   69.1333   40.2851   57.7547 C   0  0  0  0  0  0  0  0  0  0  0  0
   69.6818   41.5434   57.9090 C   0  0  0  0  0  0  0  0  0  0  0  0
   69.5885   39.1049   58.4576 C   0  0  0  0  0  0  0  0  0  0  0  0
   68.8664   38.5118   59.4590 C   0  0  0  0  0  0  0  0  0  0  0  0
   69.4011   37.3765   60.0701 C   0  0  0  0  0  0  0  0  0  0  0  0
   70.6199   36.8594   59.6835 C   0  0  0  0  0  0  0  0  0  0  0  0
   71.3079   37.4882   58.6753 C   0  0  0  0  0  0  0  0  0  0  0  0
   70.7652   38.5710   58.1156 N   0  0  0  0  0  0  0  0  0  0  0  0
   69.8447   46.4372   57.0515 N   0  0  0  0  0  0  0  0  0  0  0  0
   68.8060   47.5871   56.2891 S   0  0  0  0  0  0  0  0  0  0  0  0
   69.2517   48.9787   56.6240 O   0  0  0  0  0  0  0  0  0  0  0  0
   67.3917   47.4571   56.7858 O   0  0  0  0  0  0  0  0  0  0  0  0
   68.8750   47.3880   54.5596 C   0  0  0  0  0  0  0  0  0  0  0  0
   69.5155   48.3237   53.7892 C   0  0  0  0  0  0  0  0  0  0  0  0
   69.6007   48.2165   52.4256 C   0  0  0  0  0  0  0  0  0  0  0  0
   69.0207   47.1277   51.7949 C   0  0  0  0  0  0  0  0  0  0  0  0
   68.3855   46.2028   52.5738 C   0  0  0  0  0  0  0  0  0  0  0  0
   68.3001   46.3058   53.9243 C   0  0  0  0  0  0  0  0  0  0  0  0
   67.6719   45.3849   54.6559 F   0  0  0  0  0  0  0  0  0  0  0  0
  1  2  2  0
  2  3  1  0
  2  4  1  0
  3 17  1  0
 17 18  1  0
 18 19  2  0
 18 20  2  0
 18 21  1  0
 21 22  2  0
 21 26  1  0
 22 23  1  0
 23 24  2  0
 24 25  1  0
 25 26  2  0
 26 27  1  0
  4  5  2  0
  4 10  1  0
  5  6  1  0
  6  7  1  0
  6  8  2  0
  8  9  1  0
  9 11  1  0
  9 10  2  0
 11 12  2  0
 11 16  1  0
 12 13  1  0
 13 14  2  0
 14 15  1  0
 15 16  2  0
M  END
>  <minimizedAffinity>  (47) 
-9.40742

$$$$
data/200k_reference_output/data/smiles/50346.pdb
     RDKit          3D

 28 30  0  0  0  0  0  0  0  0999 V2000
   70.9860   46.2068   58.1772 O   0  0  0  0  0  0  0  0  0  0  0  0
   70.3579   45.3589   57.5908 C   0  0  0  0  0  0  0  0  0  0  0  0
   69.5071   45.7559   56.5147 N   0  0  0  0  0  0  0  0  0  0  0  0
   70.3732   43.8874   57.9077 C   0  0  0  0  0  0  0  0  0  0  0  0
   69.3401   43.0546   57.7869 C   0  0  0  0  0  0  0  0  0  0  0  0
   69.4623   41.6380   57.9434 C   0  0  0  0  0  0  0  0  0  0  0  0
   70.6870   41.0840   58.2283 C   0  0  0  0  0  0  0  0  0  0  0  0
   71.7648   41.9891   58.3587 C   0  0  0  0  0  0  0  0  0  0  0  0
   71.6390   43.3642   58.2046 C   0  0  0  0  0  0  0  0  0  0  0  0
   70.9875   39.6855   58.3045 C   0  0  0  0  0  0  0  0  0  0  0  0
   71.2396   38.5202   58.3866 C   0  0  0  0  0  0  0  0  0  0  0  0
   71.5743   37.0871   58.4770 C   0  0  0  0  0  0  0  0  0  0  0  0
   70.9728   36.3431   59.5117 C   0  0  0  0  0  0  0  0  0  0  0  0
   71.3000   34.9854   59.4985 C   0  0  0  0  0  0  0  0  0  0  0  0
   72.1460   34.4109   58.5584 C   0  0  0  0  0  0  0  0  0  0  0  0
   72.7365   35.1878   57.5274 C   0  0  0  0  0  0  0  0  0  0  0  0
   72.3563   36.5135   57.6096 C   0  0  0  0  0  0  0  0  0  0  0  0
   69.1701   46.9458   55.9112 C   0  0  2  0  0  0  0  0  0  0  0  0
   68.4676   47.8608   56.9430 C   0  0  0  0  0  0  0  0  0  0  0  0
   69.1242   48.6836   57.6192 O   0  0  0  0  0  0  0  0  0  0  0  0
   67.0709   47.7431   57.1212 N   0  0  0  0  0  0  0  0  0  0  0  0
   66.4015   48.5085   58.0089 O   0  0  0  0  0  0  0  0  0  0  0  0
   68.2943   47.0296   54.7276 C   0  0  0  0  0  0  0  0  0  0  0  0
   68.9585   47.3889   53.4475 C   0  0  0  0  0  0  0  0  0  0  0  0
   68.8748   46.5899   52.2614 C   0  0  0  0  0  0  0  0  0  0  0  0
   69.5941   47.1772   51.3092 N   0  0  0  0  0  0  0  0  0  0  0  0
   70.1379   48.3247   51.8531 C   0  0  0  0  0  0  0  0  0  0  0  0
   69.7272   48.3795   53.1013 N   0  0  0  0  0  0  0  0  0  0  0  0
  1  2  2  0
  2  3  1  0
  2  4  1  0
  3 18  1  0
 18 23  1  6
 18 19  1  0
 23 24  1  0
 24 25  2  0
 24 28  1  0
 25 26  1  0
 26 27  2  0
 27 28  1  0
 19 20  2  0
 19 21  1  0
 21 22  1  0
  4  5  2  0
  4  9  1  0
  5  6  1  0
  6  7  2  0
  7 10  1  0
  7  8  1  0
 10 11  3  0
 11 12  1  0
 12 13  2  0
 12 17  1  0
 13 14  1  0
 14 15  2  0
 15 16  1  0
 16 17  2  0
  8  9  2  0
M  CHG  1  26   1
M  END
>  <minimizedAffinity>  (48) 
-9.39355

$$$$
data/reference_output_2/data/smiles/153382.pdb
     RDKit          3D

 29 32  0  0  0  0  0  0  0  0999 V2000
   70.3274   46.2782   57.9961 C   0  0  0  0  0  0  0  0  0  0  0  0
   70.6623   47.3656   58.5339 O   0  0  0  0  0  0  0  0  0  0  0  0
   69.3213   46.3211   57.0188 N   0  0  0  0  0  0  0  0  0  0  0  0
   71.5850   42.8624   58.0188 N   0  0  0  0  0  0  0  0  0  0  0  0
   70.5732   43.8242   57.6233 C   0  0  0  0  0  0  0  0  0  0  0  0
   71.0165   45.0452   58.4337 C   0  0  1  0  0  0  0  0  0  0  0  0
   72.4942   45.0697   58.1092 C   0  0  0  0  0  0  0  0  0  0  0  0
   72.7942   43.5975   58.0631 C   0  0  0  0  0  0  0  0  0  0  0  0
   73.9594   43.1673   58.0666 O   0  0  0  0  0  0  0  0  0  0  0  0
   70.7020   37.2906   59.1221 C   0  0  0  0  0  0  0  0  0  0  0  0
   70.9231   38.7368   58.8358 C   0  0  0  0  0  0  0  0  0  0  0  0
   72.1874   39.2786   58.9162 C   0  0  0  0  0  0  0  0  0  0  0  0
   72.4120   40.6294   58.6512 C   0  0  0  0  0  0  0  0  0  0  0  0
   71.3893   41.4811   58.2981 C   0  0  0  0  0  0  0  0  0  0  0  0
   70.1286   40.9239   58.2214 C   0  0  0  0  0  0  0  0  0  0  0  0
   69.8977   39.5873   58.4826 C   0  0  0  0  0  0  0  0  0  0  0  0
   68.5201   39.0468   58.3825 C   0  0  0  0  0  0  0  0  0  0  0  0
   68.6719   47.5638   56.6208 C   0  0  0  0  0  0  0  0  0  0  0  0
   69.2267   47.9533   55.3177 C   0  0  0  0  0  0  0  0  0  0  0  0
   70.1320   48.9278   55.2441 N   0  0  0  0  0  0  0  0  0  0  0  0
   70.6457   49.2954   54.0703 N   0  0  0  0  0  0  0  0  0  0  0  0
   70.2812   48.7104   52.9234 C   0  0  0  0  0  0  0  0  0  0  0  0
   70.7568   49.0487   51.8248 O   0  0  0  0  0  0  0  0  0  0  0  0
   69.3476   47.7000   52.9652 C   0  0  0  0  0  0  0  0  0  0  0  0
   68.9342   47.0566   51.7903 C   0  0  0  0  0  0  0  0  0  0  0  0
   68.0002   46.0445   51.8228 C   0  0  0  0  0  0  0  0  0  0  0  0
   67.4646   45.6588   53.0320 C   0  0  0  0  0  0  0  0  0  0  0  0
   67.8803   46.3003   54.1776 C   0  0  0  0  0  0  0  0  0  0  0  0
   68.8182   47.3214   54.1758 C   0  0  0  0  0  0  0  0  0  0  0  0
 10 11  1  0
 11 12  2  0
 11 16  1  0
 12 13  1  0
 13 14  2  0
 14  4  1  0
 14 15  1  0
  4  5  1  0
  4  8  1  0
  5  6  1  0
  6  1  1  6
  6  7  1  0
  1  2  2  0
  1  3  1  0
  3 18  1  0
 18 19  1  0
 19 20  2  0
 19 29  1  0
 20 21  1  0
 21 22  1  0
 22 23  2  0
 22 24  1  0
 24 25  1  0
 24 29  2  0
 25 26  2  0
 26 27  1  0
 27 28  2  0
 28 29  1  0
  7  8  1  0
  8  9  2  0
 15 16  2  0
 16 17  1  0
M  END
>  <minimizedAffinity>  (49) 
-9.39221

$$$$
data/200k_reference_output/data/smiles/86101.pdb
     RDKit          3D

 28 30  0  0  0  0  0  0  0  0999 V2000
   68.2758   45.9447   53.9105 C   0  0  0  0  0  0  0  0  0  0  0  0
   67.6721   45.3718   52.8449 C   0  0  0  0  0  0  0  0  0  0  0  0
   67.7395   45.9489   51.5830 C   0  0  0  0  0  0  0  0  0  0  0  0
   68.4323   47.1393   51.3882 C   0  0  0  0  0  0  0  0  0  0  0  0
   69.0542   47.7510   52.4462 C   0  0  0  0  0  0  0  0  0  0  0  0
   68.9673   47.1495   53.6769 C   0  0  0  0  0  0  0  0  0  0  0  0
   67.9160   44.2274   55.4328 N   0  0  0  0  0  0  0  0  0  0  0  0
   68.3709   45.3952   55.2557 C   0  0  0  0  0  0  0  0  0  0  0  0
   68.9803   46.1068   56.3380 C   0  0  0  0  0  0  0  0  0  0  0  0
   68.7524   47.4402   56.5553 C   0  0  0  0  0  0  0  0  0  0  0  0
   69.4726   48.1845   57.4992 C   0  0  0  0  0  0  0  0  0  0  0  0
   70.4555   47.5704   58.2541 C   0  0  0  0  0  0  0  0  0  0  0  0
   71.1948   48.2592   59.2004 O   0  0  0  0  0  0  0  0  0  0  0  0
   70.7138   46.2388   58.0674 C   0  0  0  0  0  0  0  0  0  0  0  0
   69.9809   45.5254   57.1176 C   0  0  0  0  0  0  0  0  0  0  0  0
   67.8527   43.4001   56.4970 N   0  0  0  0  0  0  0  0  0  0  0  0
   66.3773   41.7440   55.3689 N   0  0  0  0  0  0  0  0  0  0  0  0
   67.3768   42.0587   56.3224 C   0  0  0  0  0  0  0  0  0  0  0  0
   67.9709   40.8339   57.2162 S   0  0  0  0  0  0  0  0  0  0  0  0
   69.7588   48.9974   52.2781 C   0  0  0  0  0  0  0  0  0  0  0  0
   70.2336   49.2283   51.1192 O   0  0  0  0  0  0  0  0  0  0  0  0
   69.9855   50.0132   53.2847 C   0  0  0  0  0  0  0  0  0  0  0  0
   71.1032   50.0808   54.0863 C   0  0  0  0  0  0  0  0  0  0  0  0
   71.2522   51.0814   55.0554 C   0  0  0  0  0  0  0  0  0  0  0  0
   70.2841   52.0429   55.2470 C   0  0  0  0  0  0  0  0  0  0  0  0
   70.4559   53.0258   56.2162 O   0  0  0  0  0  0  0  0  0  0  0  0
   69.1605   51.9888   54.4511 C   0  0  0  0  0  0  0  0  0  0  0  0
   69.0174   51.0022   53.4987 C   0  0  0  0  0  0  0  0  0  0  0  0
 17 18  1  0
 18 19  2  0
 18 16  1  0
 16  7  1  0
  7  8  2  0
  8  9  1  0
  8  1  1  0
  9 10  2  0
  9 15  1  0
 10 11  1  0
 11 12  2  0
 12 13  1  0
 12 14  1  0
 14 15  2  0
  1  2  2  0
  1  6  1  0
  2  3  1  0
  3  4  2  0
  4  5  1  0
  5 20  1  0
  5  6  2  0
 20 21  2  0
 20 22  1  0
 22 23  2  0
 22 28  1  0
 23 24  1  0
 24 25  2  0
 25 26  1  0
 25 27  1  0
 27 28  2  0
M  END
>  <minimizedAffinity>  (50) 
-9.38183

$$$$
data/reference_output_2/data/smiles/161522.pdb
     RDKit          3D

 26 28  0  0  0  0  0  0  0  0999 V2000
   71.0072   43.7071   58.0668 O   0  0  0  0  0  0  0  0  0  0  0  0
   69.9006   43.6163   57.5225 C   0  0  0  0  0  0  0  0  0  0  0  0
   69.2857   44.7971   57.0539 N   0  0  0  0  0  0  0  0  0  0  0  0
   69.2579   42.3093   57.3749 C   0  0  0  0  0  0  0  0  0  0  0  0
   68.1024   42.2085   56.6429 C   0  0  0  0  0  0  0  0  0  0  0  0
   67.5115   40.9901   56.5107 C   0  0  0  0  0  0  0  0  0  0  0  0
   68.1125   39.8959   57.1286 C   0  0  0  0  0  0  0  0  0  0  0  0
   69.2656   40.0267   57.8518 C   0  0  0  0  0  0  0  0  0  0  0  0
   69.8192   41.2557   57.9578 N   0  0  0  0  0  0  0  0  0  0  0  0
   69.9214   38.9020   58.5123 C   0  0  0  0  0  0  0  0  0  0  0  0
   71.2257   38.5831   58.1340 C   0  0  0  0  0  0  0  0  0  0  0  0
   71.9002   37.5409   58.7112 C   0  0  0  0  0  0  0  0  0  0  0  0
   71.2962   36.7773   59.6901 C   0  0  0  0  0  0  0  0  0  0  0  0
   70.0193   37.0898   60.0606 C   0  0  0  0  0  0  0  0  0  0  0  0
   69.3158   38.1500   59.4809 C   0  0  0  0  0  0  0  0  0  0  0  0
   69.7814   46.0728   57.1309 N   0  0  0  0  0  0  0  0  0  0  0  0
   68.8801   47.2754   56.3415 S   0  0  0  0  0  0  0  0  0  0  0  0
   69.5552   48.6086   56.6438 O   0  0  0  0  0  0  0  0  0  0  0  0
   67.4834   47.4157   56.9330 O   0  0  0  0  0  0  0  0  0  0  0  0
   68.8214   47.1271   54.6196 C   0  0  0  0  0  0  0  0  0  0  0  0
   69.3679   48.1107   53.8381 C   0  0  0  0  0  0  0  0  0  0  0  0
   69.3298   48.0075   52.4523 C   0  0  0  0  0  0  0  0  0  0  0  0
   68.7378   46.9066   51.8473 C   0  0  0  0  0  0  0  0  0  0  0  0
   68.1963   45.9317   52.6479 C   0  0  0  0  0  0  0  0  0  0  0  0
   68.2337   46.0341   54.0360 C   0  0  0  0  0  0  0  0  0  0  0  0
   67.6732   45.0247   54.7475 F   0  0  0  0  0  0  0  0  0  0  0  0
  1  2  2  0
  2  3  1  0
  2  4  1  0
  3 16  1  0
 16 17  1  0
 17 18  2  0
 17 19  2  0
 17 20  1  0
 20 21  2  0
 20 25  1  0
 21 22  1  0
 22 23  2  0
 23 24  1  0
 24 25  2  0
 25 26  1  0
  4  5  2  0
  4  9  1  0
  5  6  1  0
  6  7  2  0
  7  8  1  0
  8 10  1  0
  8  9  2  0
 10 11  2  0
 10 15  1  0
 11 12  1  0
 12 13  2  0
 13 14  1  0
 14 15  2  0
M  END
>  <minimizedAffinity>  (51) 
-9.37828

$$$$
data/200k_reference_output/data/smiles/83484.pdb
     RDKit          3D

 28 31  0  0  0  0  0  0  0  0999 V2000
   68.5105   43.3028   56.4091 C   0  0  0  0  0  0  0  0  0  0  0  0
   69.6286   43.7600   56.7787 O   0  0  0  0  0  0  0  0  0  0  0  0
   67.7705   44.1056   55.4979 N   0  0  0  0  0  0  0  0  0  0  0  0
   68.2492   45.3585   55.0169 C   0  0  0  0  0  0  0  0  0  0  0  0
   68.5752   46.4179   55.8746 C   0  0  0  0  0  0  0  0  0  0  0  0
   69.0353   47.6147   55.3676 C   0  0  0  0  0  0  0  0  0  0  0  0
   69.1730   47.7619   54.0159 C   0  0  0  0  0  0  0  0  0  0  0  0
   68.8744   46.7713   53.1161 C   0  0  0  0  0  0  0  0  0  0  0  0
   68.4110   45.5754   53.6696 C   0  0  0  0  0  0  0  0  0  0  0  0
   69.1395   47.2706   51.7368 C   0  0  0  0  0  0  0  0  0  0  0  0
   69.6235   48.6645   51.9732 C   0  0  0  0  0  0  0  0  0  0  0  0
   69.9620   49.4518   51.0677 O   0  0  0  0  0  0  0  0  0  0  0  0
   69.6289   48.9218   53.3636 N   0  0  0  0  0  0  0  0  0  0  0  0
   69.9921   50.0762   54.1791 C   0  0  0  0  0  0  0  0  0  0  0  0
   69.2514   50.0703   55.4743 C   0  0  0  0  0  0  0  0  0  0  0  0
   69.3933   48.7638   56.2186 C   0  0  0  0  0  0  0  0  0  0  0  0
   66.7977   41.7769   56.8615 O   0  0  0  0  0  0  0  0  0  0  0  0
   68.0203   42.0150   56.9029 C   0  0  0  0  0  0  0  0  0  0  0  0
   68.9115   41.0397   57.4259 N   0  0  0  0  0  0  0  0  0  0  0  0
   68.5006   39.7627   57.9255 C   0  0  0  0  0  0  0  0  0  0  0  0
   69.1993   39.3344   59.1878 C   0  0  0  0  0  0  0  0  0  0  0  0
   70.1388   38.2222   59.0018 C   0  0  0  0  0  0  0  0  0  0  0  0
   71.1327   38.2918   58.0503 C   0  0  0  0  0  0  0  0  0  0  0  0
   72.0307   37.2492   57.8581 C   0  0  0  0  0  0  0  0  0  0  0  0
   71.9501   36.1181   58.6143 C   0  0  0  0  0  0  0  0  0  0  0  0
   73.1027   34.8025   58.3549 Cl  0  0  0  0  0  0  0  0  0  0  0  0
   70.9708   36.0191   59.5704 C   0  0  0  0  0  0  0  0  0  0  0  0
   70.0731   37.0705   59.7564 C   0  0  0  0  0  0  0  0  0  0  0  0
 17 18  2  0
 18 19  1  0
 18  1  1  0
 19 20  1  0
 20 21  1  0
 21 22  1  0
 22 23  2  0
 22 28  1  0
 23 24  1  0
 24 25  2  0
 25 26  1  0
 25 27  1  0
 27 28  2  0
  1  2  2  0
  1  3  1  0
  3  4  1  0
  4  5  2  0
  4  9  1  0
  5  6  1  0
  6  7  2  0
  6 16  1  0
  7  8  1  0
  7 13  1  0
  8  9  2  0
  8 10  1  0
 10 11  1  0
 11 12  2  0
 11 13  1  0
 13 14  1  0
 14 15  1  0
 15 16  1  0
M  END
>  <minimizedAffinity>  (52) 
-9.37799

$$$$
data/200k_reference_output/data/smiles/63729.pdb
     RDKit          3D

 28 30  0  0  0  0  0  0  0  0999 V2000
   69.3873   45.2604   56.4521 N   0  0  0  0  0  0  0  0  0  0  0  0
   69.4890   46.5548   56.9958 C   0  0  0  0  0  0  0  0  0  0  0  0
   69.6475   46.6967   58.2229 O   0  0  0  0  0  0  0  0  0  0  0  0
   68.5476   42.9750   57.0132 C   0  0  0  0  0  0  0  0  0  0  0  0
   67.6553   43.1549   56.1122 O   0  0  0  0  0  0  0  0  0  0  0  0
   69.4431   44.0660   57.1645 N   0  0  0  0  0  0  0  0  0  0  0  0
   68.8387   41.5650   59.0382 C   0  0  0  0  0  0  0  0  0  0  0  0
   68.7756   40.2904   59.6259 C   0  0  0  0  0  0  0  0  0  0  0  0
   68.3935   39.1783   58.8952 C   0  0  0  0  0  0  0  0  0  0  0  0
   68.0727   39.3487   57.5660 C   0  0  0  0  0  0  0  0  0  0  0  0
   68.1395   40.5850   57.0161 C   0  0  0  0  0  0  0  0  0  0  0  0
   68.5261   41.7438   57.7369 C   0  0  0  0  0  0  0  0  0  0  0  0
   70.4410   43.0069   60.0528 O   0  0  0  0  0  0  0  0  0  0  0  0
   69.2393   42.6777   59.8584 C   0  0  0  0  0  0  0  0  0  0  0  0
   68.2948   43.4559   60.4889 O   0  0  0  0  0  0  0  0  0  0  0  0
   69.4083   47.7792   56.1050 C   0  0  0  0  0  0  0  0  0  0  0  0
   68.4740   48.7632   56.6684 C   0  0  0  0  0  0  0  0  0  0  0  0
   67.3791   48.3700   57.3870 C   0  0  0  0  0  0  0  0  0  0  0  0
   66.4920   49.3263   57.9223 C   0  0  0  0  0  0  0  0  0  0  0  0
   66.7317   50.6591   57.7202 C   0  0  0  0  0  0  0  0  0  0  0  0
   67.8230   51.0603   57.0043 C   0  0  0  0  0  0  0  0  0  0  0  0
   68.6975   50.1016   56.4768 C   0  0  0  0  0  0  0  0  0  0  0  0
   68.9582   47.3465   54.7569 C   0  0  0  0  0  0  0  0  0  0  0  0
   69.4644   47.9683   53.6069 C   0  0  0  0  0  0  0  0  0  0  0  0
   69.0357   47.5447   52.3710 C   0  0  0  0  0  0  0  0  0  0  0  0
   68.1228   46.5306   52.1845 C   0  0  0  0  0  0  0  0  0  0  0  0
   67.6259   45.9191   53.3097 C   0  0  0  0  0  0  0  0  0  0  0  0
   68.0416   46.3276   54.5578 C   0  0  0  0  0  0  0  0  0  0  0  0
 13 14  2  0
 14 15  1  0
 14  7  1  0
  7  8  2  0
  7 12  1  0
  8  9  1  0
  9 10  2  0
 10 11  1  0
 11 12  2  0
 12  4  1  0
  4  5  2  0
  4  6  1  0
  6  1  1  0
  1  2  1  0
  2  3  2  0
  2 16  1  0
 16 17  1  0
 16 23  1  0
 17 18  2  0
 17 22  1  0
 18 19  1  0
 19 20  2  0
 20 21  1  0
 21 22  2  0
 23 24  2  0
 23 28  1  0
 24 25  1  0
 25 26  2  0
 26 27  1  0
 27 28  2  0
M  END
>  <minimizedAffinity>  (53) 
-9.37300

$$$$
data/200k_reference_output/data/smiles/39280.pdb
     RDKit          3D

 27 29  0  0  0  0  0  0  0  0999 V2000
   71.4300   51.4390   54.5439 C   0  0  0  0  0  0  0  0  0  0  0  0
   71.0584   52.5285   55.3302 C   0  0  0  0  0  0  0  0  0  0  0  0
   69.7456   52.9347   55.4450 C   0  0  0  0  0  0  0  0  0  0  0  0
   68.7281   52.2817   54.7839 C   0  0  0  0  0  0  0  0  0  0  0  0
   69.0765   51.2038   54.0020 C   0  0  0  0  0  0  0  0  0  0  0  0
   70.4139   50.8044   53.8965 C   0  0  0  0  0  0  0  0  0  0  0  0
   73.4989   50.1491   55.3036 N   0  0  0  0  0  0  0  0  0  0  0  0
   72.8373   51.1118   54.5048 C   0  0  0  0  0  0  0  0  0  0  0  0
   73.6220   51.7214   53.6838 O   0  0  0  0  0  0  0  0  0  0  0  0
   75.2903   50.6371   57.2636 O   0  0  0  0  0  0  0  0  0  0  0  0
   75.8073   50.2116   56.1774 C   0  0  0  0  0  0  0  0  0  0  0  0
   74.8981   49.9483   55.1391 N   0  0  0  0  0  0  0  0  0  0  0  0
   77.2392   50.0326   56.0850 C   0  0  0  0  0  0  0  0  0  0  0  0
   78.0699   50.7620   56.9039 C   0  0  0  0  0  0  0  0  0  0  0  0
   79.4492   50.6229   56.8504 C   0  0  0  0  0  0  0  0  0  0  0  0
   79.9910   49.7584   55.9823 N   0  0  0  0  0  0  0  0  0  0  0  0
   79.1894   49.0390   55.1753 C   0  0  0  0  0  0  0  0  0  0  0  0
   77.8078   49.1589   55.2090 C   0  0  0  0  0  0  0  0  0  0  0  0
   70.6888   49.7323   53.1076 O   0  0  0  0  0  0  0  0  0  0  0  0
   69.7937   49.1300   52.2254 C   0  0  0  0  0  0  0  0  0  0  0  0
   69.1889   47.9184   52.8165 C   0  0  0  0  0  0  0  0  0  0  0  0
   68.6681   46.9777   51.9569 C   0  0  0  0  0  0  0  0  0  0  0  0
   68.0935   45.8321   52.4620 C   0  0  0  0  0  0  0  0  0  0  0  0
   68.0626   45.6695   53.8339 C   0  0  0  0  0  0  0  0  0  0  0  0
   67.4781   44.5101   54.2770 F   0  0  0  0  0  0  0  0  0  0  0  0
   68.5794   46.6020   54.7104 C   0  0  0  0  0  0  0  0  0  0  0  0
   69.1463   47.7329   54.1967 C   0  0  0  0  0  0  0  0  0  0  0  0
 10 11  2  0
 11 12  1  0
 11 13  1  0
 12  7  1  0
  7  8  1  0
  8  9  2  0
  8  1  1  0
  1  2  2  0
  1  6  1  0
  2  3  1  0
  3  4  2  0
  4  5  1  0
  5  6  2  0
  6 19  1  0
 19 20  1  0
 20 21  1  0
 21 22  2  0
 21 27  1  0
 22 23  1  0
 23 24  2  0
 24 25  1  0
 24 26  1  0
 26 27  2  0
 13 14  2  0
 13 18  1  0
 14 15  1  0
 15 16  2  0
 16 17  1  0
 17 18  2  0
M  END
>  <minimizedAffinity>  (54) 
-9.36784

$$$$
data/200k_reference_output/data/smiles/63907.pdb
     RDKit          3D

 27 29  0  0  0  0  0  0  0  0999 V2000
   68.8669   42.5421   57.1196 C   0  0  0  0  0  0  0  0  0  0  0  0
   69.3142   41.4371   57.7868 N   0  0  0  0  0  0  0  0  0  0  0  0
   68.9146   40.1875   57.5906 C   0  0  0  0  0  0  0  0  0  0  0  0
   67.9840   39.9232   56.6632 N   0  0  0  0  0  0  0  0  0  0  0  0
   67.4732   40.9602   55.9418 C   0  0  0  0  0  0  0  0  0  0  0  0
   66.5991   40.7326   55.0674 O   0  0  0  0  0  0  0  0  0  0  0  0
   67.9271   42.2566   56.1867 C   0  0  0  0  0  0  0  0  0  0  0  0
   67.3785   43.2369   55.4362 O   0  0  0  0  0  0  0  0  0  0  0  0
   69.4788   39.0737   58.3805 C   0  0  0  0  0  0  0  0  0  0  0  0
   68.6870   38.4735   59.3423 C   0  0  0  0  0  0  0  0  0  0  0  0
   69.1409   37.4283   60.1213 C   0  0  0  0  0  0  0  0  0  0  0  0
   70.4194   36.9390   59.9629 C   0  0  0  0  0  0  0  0  0  0  0  0
   70.8819   35.9000   60.7306 F   0  0  0  0  0  0  0  0  0  0  0  0
   71.2213   37.5247   59.0087 C   0  0  0  0  0  0  0  0  0  0  0  0
   70.7473   38.5882   58.2231 C   0  0  0  0  0  0  0  0  0  0  0  0
   70.1721   43.8698   58.5174 O   0  0  0  0  0  0  0  0  0  0  0  0
   69.4206   43.8099   57.4733 C   0  0  0  0  0  0  0  0  0  0  0  0
   69.2258   45.0226   56.7871 N   0  0  0  0  0  0  0  0  0  0  0  0
   69.8368   46.2704   57.2344 C   0  0  0  0  0  0  0  0  0  0  0  0
   69.2092   47.4925   56.6014 C   0  0  0  0  0  0  0  0  0  0  0  0
   68.9643   47.3028   55.1539 C   0  0  0  0  0  0  0  0  0  0  0  0
   69.5652   48.1563   54.2659 C   0  0  0  0  0  0  0  0  0  0  0  0
   69.3393   47.9867   52.9288 C   0  0  0  0  0  0  0  0  0  0  0  0
   68.5246   46.9826   52.4324 C   0  0  0  0  0  0  0  0  0  0  0  0
   68.3129   46.8298   51.1025 F   0  0  0  0  0  0  0  0  0  0  0  0
   67.9222   46.1254   53.3322 C   0  0  0  0  0  0  0  0  0  0  0  0
   68.1522   46.2988   54.6966 C   0  0  0  0  0  0  0  0  0  0  0  0
 16 17  2  0
 17 18  1  0
 17  1  1  0
 18 19  1  0
 19 20  1  0
 20 21  1  0
 21 22  2  0
 21 27  1  0
 22 23  1  0
 23 24  2  0
 24 25  1  0
 24 26  1  0
 26 27  2  0
  1  2  1  0
  1  7  2  0
  2  3  2  0
  3  9  1  0
  3  4  1  0
  9 10  2  0
  9 15  1  0
 10 11  1  0
 11 12  2  0
 12 13  1  0
 12 14  1  0
 14 15  2  0
  4  5  1  0
  5  6  2  0
  5  7  1  0
  7  8  1  0
M  END
>  <minimizedAffinity>  (55) 
-9.36163

$$$$
data/200k_reference_output/data/smiles/22722.pdb
     RDKit          3D

 26 27  0  0  0  0  0  0  0  0999 V2000
   68.9640   50.2434   57.1283 C   0  0  0  0  0  0  0  0  0  0  0  0
   68.5521   51.7545   57.2162 C   0  0  0  0  0  0  0  0  0  0  0  0
   68.5352   52.1890   56.0423 C   0  0  0  0  0  0  0  0  0  0  0  0
   68.6008   52.3755   54.6933 C   0  0  0  0  0  0  0  0  0  0  0  0
   69.0462   50.7386   54.4434 C   0  0  0  0  0  0  0  0  0  0  0  0
   69.0620   50.3573   55.5145 C   0  0  0  0  0  0  0  0  0  0  0  0
   69.7007   48.0229   57.5621 C   0  0  0  0  0  0  0  0  0  0  0  0
   69.3426   49.0869   57.3624 C   0  0  0  0  0  0  0  0  0  0  0  0
   70.4833   45.6248   57.9698 C   0  0  0  0  0  0  0  0  0  0  0  0
   70.1065   46.7949   57.7813 C   0  0  0  0  0  0  0  0  0  0  0  0
   70.1922   43.3791   57.8529 C   0  0  0  0  0  0  0  0  0  0  0  0
   70.8462   44.4481   58.1463 C   0  0  0  0  0  0  0  0  0  0  0  0
   71.4820   41.4711   57.8234 O   0  0  0  0  0  0  0  0  0  0  0  0
   70.2464   41.9712   57.8438 C   0  0  0  0  0  0  0  0  0  0  0  0
   69.1624   41.1294   57.8656 N   0  0  0  0  0  0  0  0  0  0  0  0
   69.0888   39.7924   57.8361 O   0  0  0  0  0  0  0  0  0  0  0  0
   69.3072   50.5449   53.1118 N   0  0  0  0  0  0  0  0  0  0  0  0
   70.0585   49.1032   52.4623 S   0  0  0  0  0  0  0  0  0  0  0  0
   71.4596   49.0947   52.9937 O   0  0  0  0  0  0  0  0  0  0  0  0
   70.1634   49.2529   50.9577 O   0  0  0  0  0  0  0  0  0  0  0  0
   69.1447   47.6866   52.7941 C   0  0  0  0  0  0  0  0  0  0  0  0
   68.9248   47.2085   54.0217 C   0  0  0  0  0  0  0  0  0  0  0  0
   68.2616   46.1686   54.5303 C   0  0  0  0  0  0  0  0  0  0  0  0
   67.6096   45.3544   53.4405 C   0  0  0  0  0  0  0  0  0  0  0  0
   67.8277   45.8335   52.2253 C   0  0  0  0  0  0  0  0  0  0  0  0
   68.4975   46.8640   51.7397 C   0  0  0  0  0  0  0  0  0  0  0  0
 13 14  2  0
 14 11  1  0
 14 15  1  0
 11 12  2  0
 12  9  1  0
  9 10  3  0
 10  7  1  0
  7  8  3  0
  8  1  1  0
  1  2  2  0
  1  6  1  0
  2  3  1  0
  3  4  2  0
  4  5  1  0
  5 17  1  0
  5  6  2  0
 17 18  1  0
 18 19  2  0
 18 20  2  0
 18 21  1  0
 21 22  2  0
 21 26  1  0
 22 23  1  0
 23 24  2  0
 24 25  1  0
 25 26  2  0
 15 16  1  0
M  END
>  <minimizedAffinity>  (56) 
-9.35950

$$$$
data/reference_output_2/data/smiles/195011.pdb
     RDKit          3D

 29 33  0  0  0  0  0  0  0  0999 V2000
   69.4887   39.0879   58.3661 C   0  0  0  0  0  0  0  0  0  0  0  0
   68.1667   39.0843   58.0933 N   0  0  0  0  0  0  0  0  0  0  0  0
   67.7914   40.2841   57.6977 N   0  0  0  0  0  0  0  0  0  0  0  0
   68.8374   41.1179   57.6939 C   0  0  0  0  0  0  0  0  0  0  0  0
   69.0272   42.4581   57.3789 C   0  0  0  0  0  0  0  0  0  0  0  0
   70.2528   43.0817   57.4678 C   0  0  0  0  0  0  0  0  0  0  0  0
   71.2926   42.3358   57.8811 N   0  0  0  0  0  0  0  0  0  0  0  0
   71.1440   41.0186   58.1979 C   0  0  0  0  0  0  0  0  0  0  0  0
   69.9342   40.3639   58.1202 C   0  0  0  0  0  0  0  0  0  0  0  0
   73.3288   35.9766   57.7548 C   0  0  0  0  0  0  0  0  0  0  0  0
   72.1561   36.4711   58.5314 C   0  0  0  0  0  0  0  0  0  0  0  0
   71.3797   37.5285   58.0981 C   0  0  0  0  0  0  0  0  0  0  0  0
   70.2939   37.9782   58.8276 C   0  0  0  0  0  0  0  0  0  0  0  0
   70.0257   37.3149   60.0147 C   0  0  0  0  0  0  0  0  0  0  0  0
   70.8100   36.2592   60.4377 C   0  0  0  0  0  0  0  0  0  0  0  0
   71.8572   35.8566   59.6917 N   0  0  0  0  0  0  0  0  0  0  0  0
   70.4074   44.4584   57.1366 N   0  0  0  0  0  0  0  0  0  0  0  0
   69.3620   45.1936   56.4984 C   0  0  0  0  0  0  0  0  0  0  0  0
   68.3015   44.5225   56.2561 O   0  0  0  0  0  0  0  0  0  0  0  0
   69.4468   46.5461   56.1453 N   0  0  0  0  0  0  0  0  0  0  0  0
   68.3470   47.2360   55.4978 C   0  0  1  0  0  0  0  0  0  0  0  0
   68.5300   48.7243   55.4836 C   0  0  0  0  0  0  0  0  0  0  0  0
   69.6463   49.1885   54.6011 C   0  0  0  0  0  0  0  0  0  0  0  0
   69.7238   48.4387   53.3284 C   0  0  0  0  0  0  0  0  0  0  0  0
   70.3987   48.6984   52.2043 N   0  0  0  0  0  0  0  0  0  0  0  0
   70.1898   47.7662   51.3041 N   0  0  0  0  0  0  0  0  0  0  0  0
   69.3529   46.8625   51.8424 C   0  0  0  0  0  0  0  0  0  0  0  0
   69.0548   47.2758   53.1132 C   0  0  0  0  0  0  0  0  0  0  0  0
   68.1808   46.6426   54.1288 C   0  0  0  0  0  0  0  0  0  0  0  0
 10 11  1  0
 11 12  2  0
 11 16  1  0
 12 13  1  0
 13  1  1  0
 13 14  2  0
  1  2  2  0
  1  9  1  0
  2  3  1  0
  3  4  1  0
  4  5  1  0
  4  9  2  0
  5  6  2  0
  6 17  1  0
  6  7  1  0
 17 18  1  0
 18 19  2  0
 18 20  1  0
 21 20  1  6
 21 22  1  0
 21 29  1  0
 22 23  1  0
 23 24  1  0
 24 25  1  0
 24 28  2  0
 25 26  1  0
 26 27  2  0
 27 28  1  0
 28 29  1  0
  7  8  2  0
  8  9  1  0
 14 15  1  0
 15 16  2  0
M  END
>  <minimizedAffinity>  (57) 
-9.35204

$$$$
data/reference_output_2/data/smiles/137055.pdb
     RDKit          3D

 27 30  0  0  0  0  0  0  0  0999 V2000
   73.7829   50.0828   56.5895 C   0  0  0  0  0  0  0  0  0  0  0  0
   73.0650   49.2948   57.4642 C   0  0  0  0  0  0  0  0  0  0  0  0
   71.6979   49.1510   57.3773 C   0  0  0  0  0  0  0  0  0  0  0  0
   70.9930   49.7989   56.4016 C   0  0  0  0  0  0  0  0  0  0  0  0
   71.7397   50.5933   55.5232 C   0  0  0  0  0  0  0  0  0  0  0  0
   73.0504   50.6995   55.6471 N   0  0  0  0  0  0  0  0  0  0  0  0
   75.5994   49.3896   54.6316 O   0  0  0  0  0  0  0  0  0  0  0  0
   76.1027   49.8419   55.6953 C   0  0  0  0  0  0  0  0  0  0  0  0
   75.2011   50.2049   56.7102 N   0  0  0  0  0  0  0  0  0  0  0  0
   77.5544   49.9512   55.7843 C   0  0  0  0  0  0  0  0  0  0  0  0
   78.4142   48.9923   55.2906 C   0  0  0  0  0  0  0  0  0  0  0  0
   79.7984   49.1453   55.3996 C   0  0  0  0  0  0  0  0  0  0  0  0
   80.3600   50.2507   55.9997 C   0  0  0  0  0  0  0  0  0  0  0  0
   79.5051   51.2126   56.4948 C   0  0  0  0  0  0  0  0  0  0  0  0
   78.1328   51.0517   56.3821 C   0  0  0  0  0  0  0  0  0  0  0  0
   69.5432   49.7714   56.1758 C   0  0  0  0  0  0  0  0  0  0  0  0
   69.0653   48.4569   55.7085 C   0  0  0  0  0  0  0  0  0  0  0  0
   68.8021   47.5033   56.6785 N   0  0  0  0  0  0  0  0  0  0  0  0
   68.4139   46.2989   56.3557 N   0  0  0  0  0  0  0  0  0  0  0  0
   68.2614   45.9539   55.0800 C   0  0  0  0  0  0  0  0  0  0  0  0
   67.8865   44.7872   54.7921 O   0  0  0  0  0  0  0  0  0  0  0  0
   68.5032   46.8500   54.0721 C   0  0  0  0  0  0  0  0  0  0  0  0
   68.9153   48.1317   54.4126 C   0  0  0  0  0  0  0  0  0  0  0  0
   69.1249   49.0712   53.3074 C   0  0  0  0  0  0  0  0  0  0  0  0
   69.9366   48.4505   52.1833 C   0  0  0  0  0  0  0  0  0  0  0  0
   69.6322   47.0053   51.9541 C   0  0  0  0  0  0  0  0  0  0  0  0
   68.3601   46.5315   52.6282 C   0  0  0  0  0  0  0  0  0  0  0  0
  7  8  2  0
  8  9  1  0
  8 10  1  0
  9  1  1  0
  1  2  2  0
  1  6  1  0
  2  3  1  0
  3  4  2  0
  4 16  1  0
  4  5  1  0
 16 17  1  0
 17 18  2  0
 17 23  1  0
 18 19  1  0
 19 20  1  0
 20 21  2  0
 20 22  1  0
 22 23  2  0
 22 27  1  0
 23 24  1  0
 24 25  1  0
 25 26  1  0
 26 27  1  0
  5  6  2  0
 10 11  2  0
 10 15  1  0
 11 12  1  0
 12 13  2  0
 13 14  1  0
 14 15  2  0
M  END
>  <minimizedAffinity>  (58) 
-9.34898

$$$$
data/reference_output_2/data/smiles/99752.pdb
     RDKit          3D

 29 32  0  0  0  0  0  0  0  0999 V2000
   68.0682   44.5625   55.2989 N   0  0  0  0  0  0  0  0  0  0  0  0
   68.4932   43.7466   56.3564 C   0  0  0  0  0  0  0  0  0  0  0  0
   69.2248   44.1998   57.2497 O   0  0  0  0  0  0  0  0  0  0  0  0
   69.3874   51.0007   55.4146 C   0  0  0  0  0  0  0  0  0  0  0  0
   69.3559   49.9799   54.3293 C   0  0  0  0  0  0  0  0  0  0  0  0
   69.6501   50.3473   53.0266 C   0  0  0  0  0  0  0  0  0  0  0  0
   69.5986   49.3399   52.0895 C   0  0  0  0  0  0  0  0  0  0  0  0
   69.8619   49.6338   50.8762 O   0  0  0  0  0  0  0  0  0  0  0  0
   69.3012   48.1058   52.3326 O   0  0  0  0  0  0  0  0  0  0  0  0
   69.0095   47.6940   53.5687 C   0  0  0  0  0  0  0  0  0  0  0  0
   68.6963   46.3804   53.8136 C   0  0  0  0  0  0  0  0  0  0  0  0
   68.3864   45.9329   55.1075 C   0  0  0  0  0  0  0  0  0  0  0  0
   68.4220   46.8905   56.0880 C   0  0  0  0  0  0  0  0  0  0  0  0
   68.7428   48.2297   55.8251 C   0  0  0  0  0  0  0  0  0  0  0  0
   69.0446   48.6557   54.5532 C   0  0  0  0  0  0  0  0  0  0  0  0
   68.1040   42.3093   56.4770 C   0  0  0  0  0  0  0  0  0  0  0  0
   68.6796   41.6633   57.5983 N   0  0  0  0  0  0  0  0  0  0  0  0
   70.0698   41.8387   57.8172 C   0  0  0  0  0  0  0  0  0  0  0  0
   70.4594   41.0486   59.0580 C   0  0  0  0  0  0  0  0  0  0  0  0
   70.2773   39.6452   58.8909 N   0  0  0  0  0  0  0  0  0  0  0  0
   69.1026   39.3008   58.1468 C   0  0  0  0  0  0  0  0  0  0  0  0
   68.1147   40.4198   57.9937 C   0  0  0  0  0  0  0  0  0  0  0  0
   71.3855   38.9303   58.3388 C   0  0  0  0  0  0  0  0  0  0  0  0
   71.4297   37.4979   58.6388 C   0  0  0  0  0  0  0  0  0  0  0  0
   72.1316   36.6552   57.8128 C   0  0  0  0  0  0  0  0  0  0  0  0
   72.2279   35.3142   58.0179 C   0  0  0  0  0  0  0  0  0  0  0  0
   71.5817   34.7852   59.1153 C   0  0  0  0  0  0  0  0  0  0  0  0
   70.8715   35.6180   59.9550 C   0  0  0  0  0  0  0  0  0  0  0  0
   70.7862   36.9745   59.7302 C   0  0  0  0  0  0  0  0  0  0  0  0
  4  5  1  0
  5  6  2  0
  5 15  1  0
  6  7  1  0
  7  8  2  0
  7  9  1  0
  9 10  1  0
 10 11  1  0
 10 15  2  0
 11 12  2  0
 12  1  1  0
 12 13  1  0
  1  2  1  0
  2  3  2  0
  2 16  1  0
 16 17  1  0
 17 18  1  0
 17 22  1  0
 18 19  1  0
 19 20  1  0
 20 23  1  0
 20 21  1  0
 23 24  1  0
 24 25  2  0
 24 29  1  0
 25 26  1  0
 26 27  2  0
 27 28  1  0
 28 29  2  0
 21 22  1  0
 13 14  2  0
 14 15  1  0
M  CHG  2  17   1  20   1
M  END
>  <minimizedAffinity>  (59) 
-9.34890

$$$$
data/200k_reference_output/data/smiles/34509.pdb
     RDKit          3D

 26 28  0  0  0  0  0  0  0  0999 V2000
   73.2172   49.5234   57.9314 O   0  0  0  0  0  0  0  0  0  0  0  0
   72.6989   49.8891   56.8509 C   0  0  0  0  0  0  0  0  0  0  0  0
   73.5557   49.9457   55.7164 N   0  0  0  0  0  0  0  0  0  0  0  0
   74.9255   49.5959   55.8521 N   0  0  0  0  0  0  0  0  0  0  0  0
   75.9371   50.5531   55.6424 C   0  0  0  0  0  0  0  0  0  0  0  0
   75.5712   51.7154   55.3332 O   0  0  0  0  0  0  0  0  0  0  0  0
   77.3593   50.2560   55.7650 C   0  0  0  0  0  0  0  0  0  0  0  0
   77.8705   49.1058   55.1755 C   0  0  0  0  0  0  0  0  0  0  0  0
   79.2107   48.7517   55.2439 C   0  0  0  0  0  0  0  0  0  0  0  0
   80.0680   49.5787   55.9279 C   0  0  0  0  0  0  0  0  0  0  0  0
   81.7522   49.1598   56.0319 Cl  0  0  0  0  0  0  0  0  0  0  0  0
   79.6126   50.7276   56.5289 C   0  0  0  0  0  0  0  0  0  0  0  0
   78.2521   51.0584   56.4413 C   0  0  0  0  0  0  0  0  0  0  0  0
   71.2952   50.2577   56.6657 C   0  0  0  0  0  0  0  0  0  0  0  0
   70.9541   50.7714   55.3021 C   0  0  0  0  0  0  0  0  0  0  0  0
   70.4044   49.7623   54.3921 C   0  0  0  0  0  0  0  0  0  0  0  0
   69.6221   48.7798   54.8703 N   0  0  0  0  0  0  0  0  0  0  0  0
   69.0826   47.8257   54.1141 C   0  0  0  0  0  0  0  0  0  0  0  0
   68.2812   46.8233   54.6262 C   0  0  0  0  0  0  0  0  0  0  0  0
   67.7467   45.8605   53.8118 C   0  0  0  0  0  0  0  0  0  0  0  0
   67.9919   45.8620   52.4577 C   0  0  0  0  0  0  0  0  0  0  0  0
   68.7881   46.8536   51.9355 C   0  0  0  0  0  0  0  0  0  0  0  0
   69.3300   47.8259   52.7484 C   0  0  0  0  0  0  0  0  0  0  0  0
   70.1299   48.8267   52.2417 C   0  0  0  0  0  0  0  0  0  0  0  0
   70.3871   48.8740   50.9994 O   0  0  0  0  0  0  0  0  0  0  0  0
   70.6417   49.7592   53.0593 N   0  0  0  0  0  0  0  0  0  0  0  0
  1  2  2  0
  2 14  1  0
  2  3  1  0
 14 15  1  0
 15 16  1  0
 16 17  2  0
 16 26  1  0
 17 18  1  0
 18 19  2  0
 18 23  1  0
 19 20  1  0
 20 21  2  0
 21 22  1  0
 22 23  2  0
 23 24  1  0
 24 25  2  0
 24 26  1  0
  3  4  1  0
  4  5  1  0
  5  6  2  0
  5  7  1  0
  7  8  2  0
  7 13  1  0
  8  9  1  0
  9 10  2  0
 10 11  1  0
 10 12  1  0
 12 13  2  0
M  END
>  <minimizedAffinity>  (60) 
-9.34833

$$$$
data/200k_reference_output/data/smiles/18963.pdb
     RDKit          3D

 27 30  0  0  0  0  0  0  0  0999 V2000
   71.1120   46.2671   58.2600 C   0  0  0  0  0  0  0  0  0  0  0  0
   70.1169   46.7620   57.4376 C   0  0  0  0  0  0  0  0  0  0  0  0
   69.7769   48.1170   57.3431 C   0  0  0  0  0  0  0  0  0  0  0  0
   70.4657   49.0181   58.1074 C   0  0  0  0  0  0  0  0  0  0  0  0
   71.4600   48.5622   58.9361 C   0  0  0  0  0  0  0  0  0  0  0  0
   71.7886   47.2162   59.0230 C   0  0  0  0  0  0  0  0  0  0  0  0
   72.7664   46.8368   59.8790 F   0  0  0  0  0  0  0  0  0  0  0  0
   73.6127   44.9385   57.6408 O   0  0  0  0  0  0  0  0  0  0  0  0
   72.6821   44.3150   58.1243 C   0  0  0  0  0  0  0  0  0  0  0  0
   72.7340   42.8731   58.5597 C   0  0  0  0  0  0  0  0  0  0  0  0
   71.7347   42.1407   57.6724 C   0  0  0  0  0  0  0  0  0  0  0  0
   70.3326   42.6079   57.9771 C   0  0  0  0  0  0  0  0  0  0  0  0
   70.3712   43.9366   58.6918 C   0  0  0  0  0  0  0  0  0  0  0  0
   69.5622   44.2542   59.5946 O   0  0  0  0  0  0  0  0  0  0  0  0
   71.3782   44.9013   58.3407 N   0  0  0  0  0  0  0  0  0  0  0  0
   68.6822   48.4853   56.3757 C   0  0  0  0  0  0  0  0  0  0  0  0
   69.1623   48.5569   54.9767 C   0  0  0  0  0  0  0  0  0  0  0  0
   70.0466   49.5230   54.5950 N   0  0  0  0  0  0  0  0  0  0  0  0
   70.5289   49.5828   53.3665 N   0  0  0  0  0  0  0  0  0  0  0  0
   70.1896   48.7105   52.4128 C   0  0  0  0  0  0  0  0  0  0  0  0
   70.6659   48.7978   51.2638 O   0  0  0  0  0  0  0  0  0  0  0  0
   69.2993   47.6950   52.6979 C   0  0  0  0  0  0  0  0  0  0  0  0
   68.9132   46.7816   51.7356 C   0  0  0  0  0  0  0  0  0  0  0  0
   68.0119   45.7932   52.0537 C   0  0  0  0  0  0  0  0  0  0  0  0
   67.4929   45.7122   53.3257 C   0  0  0  0  0  0  0  0  0  0  0  0
   67.9012   46.6432   54.2657 C   0  0  0  0  0  0  0  0  0  0  0  0
   68.8043   47.6557   54.0066 C   0  0  0  0  0  0  0  0  0  0  0  0
  8  9  2  0
  9 10  1  0
  9 15  1  0
 10 11  1  0
 11 12  1  0
 12 13  1  0
 13 14  2  0
 13 15  1  0
 15  1  1  0
  1  2  2  0
  1  6  1  0
  2  3  1  0
  3 16  1  0
  3  4  2  0
 16 17  1  0
 17 18  2  0
 17 27  1  0
 18 19  1  0
 19 20  1  0
 20 21  2  0
 20 22  1  0
 22 23  1  0
 22 27  2  0
 23 24  2  0
 24 25  1  0
 25 26  2  0
 26 27  1  0
  4  5  1  0
  5  6  2  0
  6  7  1  0
M  END
>  <minimizedAffinity>  (61) 
-9.34719

$$$$
data/200k_reference_output/data/smiles/75230.pdb
     RDKit          3D

 28 31  0  0  0  0  0  0  0  0999 V2000
   68.7411   44.9140   56.3110 N   0  0  0  0  0  0  0  0  0  0  0  0
   68.9898   46.2479   56.7379 C   0  0  0  0  0  0  0  0  0  0  0  0
   69.7489   46.4281   57.7231 O   0  0  0  0  0  0  0  0  0  0  0  0
   66.9192   43.0690   55.6146 O   0  0  0  0  0  0  0  0  0  0  0  0
   67.6388   42.2770   56.3068 C   0  0  0  0  0  0  0  0  0  0  0  0
   67.4548   40.8967   56.5631 N   0  0  0  0  0  0  0  0  0  0  0  0
   68.4947   40.3887   57.3892 C   0  0  0  0  0  0  0  0  0  0  0  0
   68.7529   39.1326   57.9041 C   0  0  0  0  0  0  0  0  0  0  0  0
   69.8671   38.8915   58.7056 C   0  0  0  0  0  0  0  0  0  0  0  0
   70.6983   39.9624   58.9609 C   0  0  0  0  0  0  0  0  0  0  0  0
   70.4421   41.2211   58.4456 C   0  0  0  0  0  0  0  0  0  0  0  0
   69.3347   41.4514   57.6520 C   0  0  0  0  0  0  0  0  0  0  0  0
   68.8591   42.6672   57.0048 C   0  0  0  0  0  0  0  0  0  0  0  0
   69.3490   43.8550   57.0026 N   0  0  0  0  0  0  0  0  0  0  0  0
   68.4107   47.4448   56.0937 C   0  0  0  0  0  0  0  0  0  0  0  0
   67.0383   47.5504   56.3154 O   0  0  0  0  0  0  0  0  0  0  0  0
   68.9922   48.7200   56.6146 C   0  0  0  0  0  0  0  0  0  0  0  0
   68.1592   49.6874   57.1552 C   0  0  0  0  0  0  0  0  0  0  0  0
   68.6420   50.8804   57.6507 C   0  0  0  0  0  0  0  0  0  0  0  0
   70.0018   51.1403   57.6168 C   0  0  0  0  0  0  0  0  0  0  0  0
   70.8386   50.2064   57.0926 C   0  0  0  0  0  0  0  0  0  0  0  0
   70.3289   49.0136   56.5996 C   0  0  0  0  0  0  0  0  0  0  0  0
   68.6324   47.3073   54.6219 C   0  0  0  0  0  0  0  0  0  0  0  0
   67.9902   46.3079   53.8959 C   0  0  0  0  0  0  0  0  0  0  0  0
   68.1675   46.1506   52.5357 C   0  0  0  0  0  0  0  0  0  0  0  0
   69.0156   47.0165   51.8563 C   0  0  0  0  0  0  0  0  0  0  0  0
   69.6683   48.0200   52.5462 C   0  0  0  0  0  0  0  0  0  0  0  0
   69.4594   48.1377   53.9068 C   0  0  0  0  0  0  0  0  0  0  0  0
  4  5  2  0
  5  6  1  0
  5 13  1  0
  6  7  1  0
  7  8  2  0
  7 12  1  0
  8  9  1  0
  9 10  2  0
 10 11  1  0
 11 12  2  0
 12 13  1  0
 13 14  2  0
 14  1  1  0
  1  2  1  0
  2  3  2  0
  2 15  1  0
 15 16  1  0
 15 17  1  0
 15 23  1  0
 17 18  2  0
 17 22  1  0
 18 19  1  0
 19 20  2  0
 20 21  1  0
 21 22  2  0
 23 24  2  0
 23 28  1  0
 24 25  1  0
 25 26  2  0
 26 27  1  0
 27 28  2  0
M  END
>  <minimizedAffinity>  (62) 
-9.34644

$$$$
data/reference_output_2/data/smiles/191626.pdb
     RDKit          3D

 28 31  0  0  0  0  0  0  0  0999 V2000
   70.5146   45.5495   58.0160 C   0  0  0  0  0  0  0  0  0  0  0  0
   71.6746   45.9819   58.6187 C   0  0  0  0  0  0  0  0  0  0  0  0
   72.0598   47.3240   58.5151 C   0  0  0  0  0  0  0  0  0  0  0  0
   71.2626   48.1938   57.8066 C   0  0  0  0  0  0  0  0  0  0  0  0
   70.0765   47.7806   57.1834 C   0  0  0  0  0  0  0  0  0  0  0  0
   69.7615   46.4684   57.3205 C   0  0  0  0  0  0  0  0  0  0  0  0
   68.9246   44.1763   56.2920 O   0  0  0  0  0  0  0  0  0  0  0  0
   69.3601   43.4680   57.2683 C   0  0  0  0  0  0  0  0  0  0  0  0
   70.1795   44.1729   58.1596 N   0  0  0  0  0  0  0  0  0  0  0  0
   68.9658   42.0818   57.3284 C   0  0  0  0  0  0  0  0  0  0  0  0
   69.6310   41.2279   58.1995 C   0  0  0  0  0  0  0  0  0  0  0  0
   69.3166   39.8903   58.3186 C   0  0  0  0  0  0  0  0  0  0  0  0
   68.3063   39.3466   57.5576 C   0  0  0  0  0  0  0  0  0  0  0  0
   67.6604   40.1639   56.7157 N   0  0  0  0  0  0  0  0  0  0  0  0
   67.9705   41.4947   56.5948 C   0  0  0  0  0  0  0  0  0  0  0  0
   67.3144   42.2005   55.7779 O   0  0  0  0  0  0  0  0  0  0  0  0
   69.2863   48.7819   56.4257 C   0  0  0  0  0  0  0  0  0  0  0  0
   69.6019   48.6410   54.9889 C   0  0  0  0  0  0  0  0  0  0  0  0
   70.6657   49.3682   54.5313 N   0  0  0  0  0  0  0  0  0  0  0  0
   71.0621   49.3613   53.2767 N   0  0  0  0  0  0  0  0  0  0  0  0
   70.4018   48.6062   52.3882 C   0  0  0  0  0  0  0  0  0  0  0  0
   70.7478   48.5650   51.1599 O   0  0  0  0  0  0  0  0  0  0  0  0
   69.3246   47.8414   52.7459 C   0  0  0  0  0  0  0  0  0  0  0  0
   68.9200   47.8641   54.0843 C   0  0  0  0  0  0  0  0  0  0  0  0
   67.7730   47.0504   54.4950 C   0  0  0  0  0  0  0  0  0  0  0  0
   67.5872   45.7717   53.7377 C   0  0  0  0  0  0  0  0  0  0  0  0
   68.4295   45.6224   52.5068 C   0  0  0  0  0  0  0  0  0  0  0  0
   68.5414   46.9751   51.8346 C   0  0  0  0  0  0  0  0  0  0  0  0
  7  8  2  0
  8  9  1  0
  8 10  1  0
  9  1  1  0
  1  2  2  0
  1  6  1  0
  2  3  1  0
  3  4  2  0
  4  5  1  0
  5 17  1  0
  5  6  2  0
 17 18  1  0
 18 19  2  0
 18 24  1  0
 19 20  1  0
 20 21  1  0
 21 22  2  0
 21 23  1  0
 23 24  2  0
 23 28  1  0
 24 25  1  0
 25 26  1  0
 26 27  1  0
 27 28  1  0
 10 11  2  0
 10 15  1  0
 11 12  1  0
 12 13  2  0
 13 14  1  0
 14 15  1  0
 15 16  2  0
M  END
>  <minimizedAffinity>  (63) 
-9.34003

$$$$
data/200k_reference_output/data/smiles/65931.pdb
     RDKit          3D

 26 28  0  0  0  0  0  0  0  0999 V2000
   68.4581   51.0014   56.3191 C   0  0  0  0  0  0  0  0  0  0  0  0
   67.4723   51.0634   57.2861 C   0  0  0  0  0  0  0  0  0  0  0  0
   67.0140   49.8985   57.8378 C   0  0  0  0  0  0  0  0  0  0  0  0
   67.5224   48.6870   57.4406 C   0  0  0  0  0  0  0  0  0  0  0  0
   68.5124   48.6272   56.4702 C   0  0  0  0  0  0  0  0  0  0  0  0
   68.9245   49.7998   55.9622 N   0  0  0  0  0  0  0  0  0  0  0  0
   71.4050   51.8208   55.3479 N   0  0  0  0  0  0  0  0  0  0  0  0
   71.8074   53.1082   55.7959 C   0  0  0  0  0  0  0  0  0  0  0  0
   70.6394   53.9967   56.1710 C   0  0  0  0  0  0  0  0  0  0  0  0
   69.4625   53.2388   56.6855 C   0  0  0  0  0  0  0  0  0  0  0  0
   69.0072   52.2204   55.6735 C   0  0  1  0  0  0  0  0  0  0  0  0
   70.1144   51.7612   54.7539 C   0  0  0  0  0  0  0  0  0  0  0  0
   72.6106   50.8990   54.6031 S   0  0  0  0  0  0  0  0  0  0  0  0
   71.9715   49.9113   53.6371 O   0  0  0  0  0  0  0  0  0  0  0  0
   73.5655   51.7110   53.7850 O   0  0  0  0  0  0  0  0  0  0  0  0
   74.9188   50.4121   55.8051 C   0  0  0  0  0  0  0  0  0  0  0  0
   73.5549   49.9527   55.6937 N   0  0  0  0  0  0  0  0  0  0  0  0
   72.9743   49.9349   57.0214 C   0  0  0  0  0  0  0  0  0  0  0  0
   69.0580   47.3156   56.0473 C   0  0  0  0  0  0  0  0  0  0  0  0
   68.8438   47.0747   54.5968 C   0  0  0  0  0  0  0  0  0  0  0  0
   69.2849   47.9965   53.6708 C   0  0  0  0  0  0  0  0  0  0  0  0
   69.1139   47.8274   52.3113 C   0  0  0  0  0  0  0  0  0  0  0  0
   68.4718   46.6802   51.8915 C   0  0  0  0  0  0  0  0  0  0  0  0
   68.0291   45.7558   52.8173 C   0  0  0  0  0  0  0  0  0  0  0  0
   68.2023   45.9293   54.1743 C   0  0  0  0  0  0  0  0  0  0  0  0
   67.7511   44.9925   55.0610 F   0  0  0  0  0  0  0  0  0  0  0  0
 16 17  1  0
 17 18  1  0
 17 13  1  0
 13 14  2  0
 13 15  2  0
 13  7  1  0
  7  8  1  0
  7 12  1  0
  8  9  1  0
  9 10  1  0
 10 11  1  0
 11  1  1  1
 11 12  1  0
  1  2  2  0
  1  6  1  0
  2  3  1  0
  3  4  2  0
  4  5  1  0
  5 19  1  0
  5  6  2  0
 19 20  1  0
 20 21  2  0
 20 25  1  0
 21 22  1  0
 22 23  2  0
 23 24  1  0
 24 25  2  0
 25 26  1  0
M  END
>  <minimizedAffinity>  (64) 
-9.33762

$$$$
data/200k_reference_output/data/smiles/31781.pdb
     RDKit          3D

 23 24  0  0  0  0  0  0  0  0999 V2000
   71.1947   49.6566   53.3698 N   0  0  0  0  0  0  0  0  0  0  0  0
   71.9034   51.4385   54.8611 C   0  0  0  0  0  0  0  0  0  0  0  0
   71.5540   52.5373   55.5957 C   0  0  0  0  0  0  0  0  0  0  0  0
   70.2693   53.0391   55.6623 C   0  0  0  0  0  0  0  0  0  0  0  0
   69.9677   54.1195   56.3953 F   0  0  0  0  0  0  0  0  0  0  0  0
   69.2614   52.4169   54.9557 C   0  0  0  0  0  0  0  0  0  0  0  0
   69.5991   51.3076   54.2100 C   0  0  0  0  0  0  0  0  0  0  0  0
   70.9043   50.8058   54.1488 C   0  0  0  0  0  0  0  0  0  0  0  0
   74.5835   52.1486   55.2929 N   0  0  0  0  0  0  0  0  0  0  0  0
   73.5641   50.8627   54.8296 S   0  0  0  0  0  0  0  0  0  0  0  0
   73.7556   49.7276   55.8153 O   0  0  0  0  0  0  0  0  0  0  0  0
   73.8808   50.3317   53.4645 O   0  0  0  0  0  0  0  0  0  0  0  0
   70.0913   48.9281   52.2959 S   0  0  0  0  0  0  0  0  0  0  0  0
   69.1454   49.9571   51.7292 O   0  0  0  0  0  0  0  0  0  0  0  0
   70.8787   48.4135   51.0963 O   0  0  0  0  0  0  0  0  0  0  0  0
   69.1833   47.6358   53.0233 C   0  0  0  0  0  0  0  0  0  0  0  0
   69.1446   47.5298   54.3911 C   0  0  0  0  0  0  0  0  0  0  0  0
   68.4142   46.5020   55.0016 C   0  0  0  0  0  0  0  0  0  0  0  0
   67.7394   45.6029   54.2253 C   0  0  0  0  0  0  0  0  0  0  0  0
   67.7622   45.6865   52.8487 C   0  0  0  0  0  0  0  0  0  0  0  0
   67.0791   44.7743   52.1162 F   0  0  0  0  0  0  0  0  0  0  0  0
   68.4924   46.7145   52.2757 C   0  0  0  0  0  0  0  0  0  0  0  0
   68.5022   46.7805   50.9221 F   0  0  0  0  0  0  0  0  0  0  0  0
  9 10  1  0
 10 11  2  0
 10 12  2  0
 10  2  1  0
  2  3  2  0
  2  8  1  0
  3  4  1  0
  4  5  1  0
  4  6  2  0
  6  7  1  0
  7  8  2  0
  8  1  1  0
  1 13  1  0
 13 14  2  0
 13 15  2  0
 13 16  1  0
 16 17  2  0
 16 22  1  0
 17 18  1  0
 18 19  2  0
 19 20  1  0
 20 21  1  0
 20 22  2  0
 22 23  1  0
M  END
>  <minimizedAffinity>  (65) 
-9.33028

$$$$
data/200k_reference_output/data/smiles/23400.pdb
     RDKit          3D

 27 29  0  0  0  0  0  0  0  0999 V2000
   69.2431   40.1412   57.8362 C   0  0  0  0  0  0  0  0  0  0  0  0
   68.0844   39.9963   57.1031 C   0  0  0  0  0  0  0  0  0  0  0  0
   67.5144   41.0995   56.4694 C   0  0  0  0  0  0  0  0  0  0  0  0
   68.1151   42.3349   56.5802 C   0  0  0  0  0  0  0  0  0  0  0  0
   69.2723   42.5087   57.3048 C   0  0  0  0  0  0  0  0  0  0  0  0
   69.8024   41.3997   57.9132 C   0  0  0  0  0  0  0  0  0  0  0  0
   71.5491   37.2889   58.6685 C   0  0  0  0  0  0  0  0  0  0  0  0
   70.9100   36.6703   59.7224 C   0  0  0  0  0  0  0  0  0  0  0  0
   69.7138   37.2184   60.1387 C   0  0  0  0  0  0  0  0  0  0  0  0
   69.1643   38.3345   59.5429 C   0  0  0  0  0  0  0  0  0  0  0  0
   69.8056   38.9596   58.4822 C   0  0  0  0  0  0  0  0  0  0  0  0
   71.0028   38.4043   58.0709 C   0  0  0  0  0  0  0  0  0  0  0  0
   73.8028   36.2634   57.8532 N   0  0  0  0  0  0  0  0  0  0  0  0
   72.7932   36.7245   58.2301 C   0  0  0  0  0  0  0  0  0  0  0  0
   69.8800   43.8336   57.3992 C   0  0  0  0  0  0  0  0  0  0  0  0
   71.0119   43.9496   57.9355 O   0  0  0  0  0  0  0  0  0  0  0  0
   69.2484   44.9889   56.9110 N   0  0  0  0  0  0  0  0  0  0  0  0
   69.8955   46.2204   57.0390 N   0  0  0  0  0  0  0  0  0  0  0  0
   68.9103   47.4217   56.2704 S   0  0  0  0  0  0  0  0  0  0  0  0
   67.5845   47.4358   56.9660 O   0  0  0  0  0  0  0  0  0  0  0  0
   69.5516   48.7667   56.3987 O   0  0  0  0  0  0  0  0  0  0  0  0
   68.7132   47.0724   54.5746 C   0  0  0  0  0  0  0  0  0  0  0  0
   69.3042   47.8783   53.5996 C   0  0  0  0  0  0  0  0  0  0  0  0
   69.1419   47.5939   52.2622 C   0  0  0  0  0  0  0  0  0  0  0  0
   68.3963   46.5121   51.8477 C   0  0  0  0  0  0  0  0  0  0  0  0
   67.8137   45.7195   52.8232 C   0  0  0  0  0  0  0  0  0  0  0  0
   67.9698   45.9952   54.1619 C   0  0  0  0  0  0  0  0  0  0  0  0
 13 14  3  0
 14  7  1  0
  7  8  2  0
  7 12  1  0
  8  9  1  0
  9 10  2  0
 10 11  1  0
 11  1  1  0
 11 12  2  0
  1  2  2  0
  1  6  1  0
  2  3  1  0
  3  4  2  0
  4  5  1  0
  5 15  1  0
  5  6  2  0
 15 16  2  0
 15 17  1  0
 17 18  1  0
 18 19  1  0
 19 20  2  0
 19 21  2  0
 19 22  1  0
 22 23  2  0
 22 27  1  0
 23 24  1  0
 24 25  2  0
 25 26  1  0
 26 27  2  0
M  END
>  <minimizedAffinity>  (66) 
-9.32376

$$$$
data/reference_output_2/data/smiles/97852.pdb
     RDKit          3D

 27 29  0  0  0  0  0  0  0  0999 V2000
   69.1460   43.0269   57.1664 C   0  0  0  0  0  0  0  0  0  0  0  0
   67.9711   42.6306   57.3876 O   0  0  0  0  0  0  0  0  0  0  0  0
   69.2971   44.2452   56.4636 N   0  0  0  0  0  0  0  0  0  0  0  0
   73.9638   42.8203   58.2372 C   0  0  0  0  0  0  0  0  0  0  0  0
   72.6451   42.1433   58.1527 C   0  0  0  0  0  0  0  0  0  0  0  0
   71.5378   42.8404   57.7218 C   0  0  0  0  0  0  0  0  0  0  0  0
   70.2837   42.2414   57.6286 C   0  0  0  0  0  0  0  0  0  0  0  0
   70.1904   40.9209   57.9847 C   0  0  0  0  0  0  0  0  0  0  0  0
   71.2764   40.1662   58.4278 C   0  0  0  0  0  0  0  0  0  0  0  0
   72.4934   40.8113   58.5003 C   0  0  0  0  0  0  0  0  0  0  0  0
   71.1170   38.7922   58.7853 N   0  0  0  0  0  0  0  0  0  0  0  0
   71.7687   37.7384   58.2582 C   0  0  0  0  0  0  0  0  0  0  0  0
   71.3461   36.5709   58.8596 C   0  0  0  0  0  0  0  0  0  0  0  0
   70.3952   36.9775   59.7865 C   0  0  0  0  0  0  0  0  0  0  0  0
   70.3058   38.3152   59.6918 N   0  0  0  0  0  0  0  0  0  0  0  0
   68.2089   45.0010   56.0193 N   0  0  0  0  0  0  0  0  0  0  0  0
   68.5780   46.6851   56.0423 S   0  0  0  0  0  0  0  0  0  0  0  0
   67.5070   47.4979   56.6830 O   0  0  0  0  0  0  0  0  0  0  0  0
   69.8248   46.8534   56.8945 O   0  0  0  0  0  0  0  0  0  0  0  0
   68.9385   47.2710   54.4377 C   0  0  0  0  0  0  0  0  0  0  0  0
   69.7453   48.3583   54.2912 C   0  0  0  0  0  0  0  0  0  0  0  0
   70.0205   48.8094   53.0045 C   0  0  0  0  0  0  0  0  0  0  0  0
   69.4910   48.1733   51.8972 C   0  0  0  0  0  0  0  0  0  0  0  0
   68.6857   47.0822   52.1068 C   0  0  0  0  0  0  0  0  0  0  0  0
   68.1580   46.4479   51.0232 F   0  0  0  0  0  0  0  0  0  0  0  0
   68.3928   46.6118   53.3481 C   0  0  0  0  0  0  0  0  0  0  0  0
   67.5961   45.5332   53.5675 F   0  0  0  0  0  0  0  0  0  0  0  0
  4  5  1  0
  5  6  2  0
  5 10  1  0
  6  7  1  0
  7  1  1  0
  7  8  2  0
  1  2  2  0
  1  3  1  0
  3 16  1  0
 16 17  1  0
 17 18  2  0
 17 19  2  0
 17 20  1  0
 20 21  2  0
 20 26  1  0
 21 22  1  0
 22 23  2  0
 23 24  1  0
 24 25  1  0
 24 26  2  0
 26 27  1  0
  8  9  1  0
  9 11  1  0
  9 10  2  0
 11 12  1  0
 11 15  1  0
 12 13  2  0
 13 14  1  0
 14 15  2  0
M  END
>  <minimizedAffinity>  (67) 
-9.31927

$$$$
data/200k_reference_output/data/smiles/42792.pdb
     RDKit          3D

 25 27  0  0  0  0  0  0  0  0999 V2000
   70.4548   44.7685   58.2965 C   0  0  0  0  0  0  0  0  0  0  0  0
   70.8309   45.4351   59.2829 O   0  0  0  0  0  0  0  0  0  0  0  0
   69.8801   45.4300   57.1794 N   0  0  0  0  0  0  0  0  0  0  0  0
   72.0077   37.1255   58.3294 C   0  0  0  0  0  0  0  0  0  0  0  0
   71.3932   38.4674   58.3294 C   0  0  0  0  0  0  0  0  0  0  0  0
   70.0294   38.6354   58.3527 C   0  0  0  0  0  0  0  0  0  0  0  0
   69.3899   39.8480   58.3547 C   0  0  0  0  0  0  0  0  0  0  0  0
   70.1519   41.0416   58.3315 C   0  0  0  0  0  0  0  0  0  0  0  0
   69.7304   42.3227   58.3290 C   0  0  0  0  0  0  0  0  0  0  0  0
   68.3040   42.6749   58.3520 N   0  0  0  0  0  0  0  0  0  0  0  0
   70.6117   43.3226   58.3055 C   0  0  0  0  0  0  0  0  0  0  0  0
   72.2031   42.4830   58.2830 S   0  0  0  0  0  0  0  0  0  0  0  0
   71.4935   40.8134   58.3090 C   0  0  0  0  0  0  0  0  0  0  0  0
   72.1079   39.6216   58.3073 N   0  0  0  0  0  0  0  0  0  0  0  0
   69.7001   46.8502   57.1101 C   0  0  0  0  0  0  0  0  0  0  0  0
   68.4587   47.1807   56.3254 C   0  0  0  0  0  0  0  0  0  0  0  0
   68.6102   47.1314   54.8693 C   0  0  0  0  0  0  0  0  0  0  0  0
   68.0030   46.0481   54.2228 C   0  0  0  0  0  0  0  0  0  0  0  0
   68.0443   45.8657   52.8683 C   0  0  0  0  0  0  0  0  0  0  0  0
   68.7096   46.7828   52.1071 C   0  0  0  0  0  0  0  0  0  0  0  0
   69.3213   47.8667   52.7209 C   0  0  0  0  0  0  0  0  0  0  0  0
   69.2707   48.0390   54.0947 C   0  0  0  0  0  0  0  0  0  0  0  0
   70.0257   48.8351   51.9075 C   0  0  0  0  0  0  0  0  0  0  0  0
   70.6293   48.4642   50.8853 O   0  0  0  0  0  0  0  0  0  0  0  0
   70.0253   50.1616   52.2651 O   0  0  0  0  0  0  0  0  0  0  0  0
  4  5  1  0
  5  6  2  0
  5 14  1  0
  6  7  1  0
  7  8  2  0
  8  9  1  0
  8 13  1  0
  9 10  1  0
  9 11  2  0
 11  1  1  0
 11 12  1  0
  1  2  2  0
  1  3  1  0
  3 15  1  0
 15 16  1  0
 16 17  1  0
 17 18  2  0
 17 22  1  0
 18 19  1  0
 19 20  2  0
 20 21  1  0
 21 23  1  0
 21 22  2  0
 23 24  2  0
 23 25  1  0
 12 13  1  0
 13 14  2  0
M  END
>  <minimizedAffinity>  (68) 
-9.31764

$$$$
data/reference_output_2/data/smiles/104439.pdb
     RDKit          3D

 26 27  0  0  0  0  0  0  0  0999 V2000
   69.8488   39.0826   58.6518 C   0  0  0  0  0  0  0  0  0  0  0  0
   68.6578   39.1379   57.9574 C   0  0  0  0  0  0  0  0  0  0  0  0
   68.2153   40.2898   57.3382 C   0  0  0  0  0  0  0  0  0  0  0  0
   68.9422   41.4598   57.3780 C   0  0  0  0  0  0  0  0  0  0  0  0
   70.1341   41.3990   58.0743 C   0  0  0  0  0  0  0  0  0  0  0  0
   70.5801   40.2513   58.6944 C   0  0  0  0  0  0  0  0  0  0  0  0
   71.3568   37.0723   58.7959 C   0  0  0  0  0  0  0  0  0  0  0  0
   71.9020   37.4806   57.7376 O   0  0  0  0  0  0  0  0  0  0  0  0
   70.2933   37.8853   59.2864 N   0  0  0  0  0  0  0  0  0  0  0  0
   72.2287   34.8023   58.3876 C   0  0  0  0  0  0  0  0  0  0  0  0
   71.8248   35.8462   59.4311 C   0  0  0  0  0  0  0  0  0  0  0  0
   70.7211   35.2730   60.2888 C   0  0  0  0  0  0  0  0  0  0  0  0
   73.0278   36.0443   60.3215 C   0  0  0  0  0  0  0  0  0  0  0  0
   68.4982   42.6914   56.7327 C   0  0  0  0  0  0  0  0  0  0  0  0
   67.5221   42.6213   55.9380 O   0  0  0  0  0  0  0  0  0  0  0  0
   69.0718   43.9675   56.9235 N   0  0  0  0  0  0  0  0  0  0  0  0
   68.5995   45.1250   56.2720 N   0  0  0  0  0  0  0  0  0  0  0  0
   69.1376   46.3995   56.4566 C   0  0  0  0  0  0  0  0  0  0  0  0
   70.1068   46.5368   57.2555 O   0  0  0  0  0  0  0  0  0  0  0  0
   68.5464   47.5420   55.7065 C   0  0  0  0  0  0  0  0  0  0  0  0
   68.5801   47.2863   54.2261 C   0  0  0  0  0  0  0  0  0  0  0  0
   69.4152   48.0124   53.4025 C   0  0  0  0  0  0  0  0  0  0  0  0
   69.4392   47.7720   52.0489 C   0  0  0  0  0  0  0  0  0  0  0  0
   68.6253   46.7984   51.5043 C   0  0  0  0  0  0  0  0  0  0  0  0
   67.7763   46.0535   52.3002 C   0  0  0  0  0  0  0  0  0  0  0  0
   67.7797   46.3221   53.6512 C   0  0  0  0  0  0  0  0  0  0  0  0
 10 11  1  0
 11 12  1  0
 11 13  1  0
 11  7  1  0
  7  8  2  0
  7  9  1  0
  9  1  1  0
  1  2  2  0
  1  6  1  0
  2  3  1  0
  3  4  2  0
  4 14  1  0
  4  5  1  0
 14 15  2  0
 14 16  1  0
 16 17  1  0
 17 18  1  0
 18 19  2  0
 18 20  1  0
 20 21  1  0
 21 22  2  0
 21 26  1  0
 22 23  1  0
 23 24  2  0
 24 25  1  0
 25 26  2  0
  5  6  2  0
M  END
>  <minimizedAffinity>  (69) 
-9.31557

$$$$
data/reference_output_2/data/smiles/186180.pdb
     RDKit          3D

 28 30  0  0  0  0  0  0  0  0999 V2000
   68.8554   42.6006   57.1880 C   0  0  0  0  0  0  0  0  0  0  0  0
   69.0100   43.8278   56.6822 N   0  0  0  0  0  0  0  0  0  0  0  0
   68.2497   44.3549   55.6807 C   0  0  0  0  0  0  0  0  0  0  0  0
   67.2854   43.5660   55.1862 N   0  0  0  0  0  0  0  0  0  0  0  0
   67.0789   42.3016   55.6631 C   0  0  0  0  0  0  0  0  0  0  0  0
   66.1584   41.5752   55.1775 O   0  0  0  0  0  0  0  0  0  0  0  0
   67.8515   41.7966   56.6633 C   0  0  0  0  0  0  0  0  0  0  0  0
   67.6616   40.5070   57.1698 O   0  0  0  0  0  0  0  0  0  0  0  0
   68.5014   45.7050   55.1988 C   0  0  0  0  0  0  0  0  0  0  0  0
   68.2769   46.0356   53.8960 C   0  0  0  0  0  0  0  0  0  0  0  0
   68.5145   47.3382   53.4191 C   0  0  0  0  0  0  0  0  0  0  0  0
   68.9803   48.3110   54.2619 C   0  0  0  0  0  0  0  0  0  0  0  0
   69.2096   49.5690   53.8004 F   0  0  0  0  0  0  0  0  0  0  0  0
   69.2093   47.9747   55.5913 C   0  0  0  0  0  0  0  0  0  0  0  0
   68.9700   46.6866   56.0453 C   0  0  0  0  0  0  0  0  0  0  0  0
   69.7783   42.6786   59.3278 O   0  0  0  0  0  0  0  0  0  0  0  0
   69.6892   42.0742   58.2550 C   0  0  0  0  0  0  0  0  0  0  0  0
   70.3900   40.8699   58.0447 N   0  0  0  0  0  0  0  0  0  0  0  0
   71.2513   40.2527   59.0338 C   0  0  0  0  0  0  0  0  0  0  0  0
   71.3126   38.7883   58.9065 C   0  0  0  0  0  0  0  0  0  0  0  0
   70.5353   38.0289   59.7923 C   0  0  0  0  0  0  0  0  0  0  0  0
   70.5625   36.6547   59.7240 C   0  0  0  0  0  0  0  0  0  0  0  0
   69.8378   35.8560   60.5474 F   0  0  0  0  0  0  0  0  0  0  0  0
   71.3609   36.0404   58.7763 C   0  0  0  0  0  0  0  0  0  0  0  0
   71.3877   34.6870   58.7093 F   0  0  0  0  0  0  0  0  0  0  0  0
   72.1305   36.7583   57.8982 C   0  0  0  0  0  0  0  0  0  0  0  0
   72.9248   36.2237   56.9571 F   0  0  0  0  0  0  0  0  0  0  0  0
   72.0977   38.1547   57.9735 C   0  0  0  0  0  0  0  0  0  0  0  0
 16 17  2  0
 17 18  1  0
 17  1  1  0
 18 19  1  0
 19 20  1  0
 20 21  2  0
 20 28  1  0
 21 22  1  0
 22 23  1  0
 22 24  2  0
 24 25  1  0
 24 26  1  0
 26 27  1  0
 26 28  2  0
  1  2  1  0
  1  7  2  0
  2  3  2  0
  3  9  1  0
  3  4  1  0
  9 10  2  0
  9 15  1  0
 10 11  1  0
 11 12  2  0
 12 13  1  0
 12 14  1  0
 14 15  2  0
  4  5  1  0
  5  6  2  0
  5  7  1  0
  7  8  1  0
M  END
>  <minimizedAffinity>  (70) 
-9.31494

$$$$
data/200k_reference_output/data/smiles/58074.pdb
     RDKit          3D

 28 31  0  0  0  0  0  0  0  0999 V2000
   73.9525   51.3440   55.6285 C   0  0  0  0  0  0  0  0  0  0  0  0
   72.7315   50.7187   55.7060 C   0  0  0  0  0  0  0  0  0  0  0  0
   71.5766   51.1781   55.0968 C   0  0  0  0  0  0  0  0  0  0  0  0
   71.6980   52.3405   54.3736 C   0  0  0  0  0  0  0  0  0  0  0  0
   72.9178   53.0118   54.2646 C   0  0  0  0  0  0  0  0  0  0  0  0
   74.0391   52.5055   54.8958 C   0  0  0  0  0  0  0  0  0  0  0  0
   75.2371   53.1290   54.8126 F   0  0  0  0  0  0  0  0  0  0  0  0
   75.6769   49.4863   54.5342 O   0  0  0  0  0  0  0  0  0  0  0  0
   75.9870   49.8946   55.6807 C   0  0  0  0  0  0  0  0  0  0  0  0
   75.1181   50.8490   56.2654 N   0  0  0  0  0  0  0  0  0  0  0  0
   77.2052   49.3740   56.3405 C   0  0  2  0  0  0  0  0  0  0  0  0
   76.8785   49.0652   57.7750 C   0  0  0  0  0  0  0  0  0  0  0  0
   77.0919   50.2609   58.6794 C   0  0  0  0  0  0  0  0  0  0  0  0
   78.4848   50.8216   58.5633 C   0  0  0  0  0  0  0  0  0  0  0  0
   79.1532   50.1785   57.4463 N   0  0  0  0  0  0  0  0  0  0  0  0
   78.3390   50.3930   56.2657 C   0  0  0  0  0  0  0  0  0  0  0  0
   70.2896   50.4511   55.2483 C   0  0  0  0  0  0  0  0  0  0  0  0
   70.1068   49.4775   54.1218 C   0  0  0  0  0  0  0  0  0  0  0  0
   70.6688   49.7725   52.9053 N   0  0  0  0  0  0  0  0  0  0  0  0
   70.5179   48.9548   51.8902 N   0  0  0  0  0  0  0  0  0  0  0  0
   69.8289   47.8161   51.9687 C   0  0  0  0  0  0  0  0  0  0  0  0
   69.7265   47.0882   50.9621 O   0  0  0  0  0  0  0  0  0  0  0  0
   69.2265   47.4414   53.1686 C   0  0  0  0  0  0  0  0  0  0  0  0
   69.3909   48.3114   54.2392 C   0  0  0  0  0  0  0  0  0  0  0  0
   68.7858   47.9800   55.5806 C   0  0  0  0  0  0  0  0  0  0  0  0
   68.7570   46.4631   55.6754 C   0  0  0  0  0  0  0  0  0  0  0  0
   67.8020   46.0194   54.5672 C   0  0  0  0  0  0  0  0  0  0  0  0
   68.4633   46.1717   53.2303 C   0  0  0  0  0  0  0  0  0  0  0  0
  8  9  2  0
  9 10  1  0
 11  9  1  1
 10  1  1  0
  1  2  2  0
  1  6  1  0
  2  3  1  0
  3 17  1  0
  3  4  2  0
 17 18  1  0
 18 19  2  0
 18 24  1  0
 19 20  1  0
 20 21  1  0
 21 22  2  0
 21 23  1  0
 23 24  2  0
 23 28  1  0
 24 25  1  0
 25 26  1  0
 26 27  1  0
 27 28  1  0
  4  5  1  0
  5  6  2  0
  6  7  1  0
 11 12  1  0
 11 16  1  0
 12 13  1  0
 13 14  1  0
 14 15  1  0
 15 16  1  0
M  CHG  1  15   1
M  END
>  <minimizedAffinity>  (71) 
-9.31467

$$$$
data/reference_output_2/data/smiles/115337.pdb
     RDKit          3D

 25 27  0  0  0  0  0  0  0  0999 V2000
   68.0692   43.5105   55.7868 N   0  0  0  0  0  0  0  0  0  0  0  0
   67.5962   42.3694   56.1893 C   0  0  0  0  0  0  0  0  0  0  0  0
   68.4444   41.4857   57.0082 C   0  0  0  0  0  0  0  0  0  0  0  0
   68.0202   40.1903   57.2382 C   0  0  0  0  0  0  0  0  0  0  0  0
   68.7508   39.2980   58.0132 C   0  0  0  0  0  0  0  0  0  0  0  0
   69.9537   39.7051   58.5871 C   0  0  0  0  0  0  0  0  0  0  0  0
   70.3713   40.9756   58.3636 C   0  0  0  0  0  0  0  0  0  0  0  0
   69.6277   41.8759   57.5772 C   0  0  0  0  0  0  0  0  0  0  0  0
   70.6652   38.7598   59.3693 N   0  0  0  0  0  0  0  0  0  0  0  0
   72.1319   38.7208   59.4045 C   0  0  0  0  0  0  0  0  0  0  0  0
   72.4972   37.5815   58.4629 C   0  0  0  0  0  0  0  0  0  0  0  0
   71.5061   36.4400   58.6317 C   0  0  0  0  0  0  0  0  0  0  0  0
   70.8525   36.4784   59.9972 C   0  0  0  0  0  0  0  0  0  0  0  0
   70.0223   37.7319   60.1842 C   0  0  0  0  0  0  0  0  0  0  0  0
   67.3993   44.4399   55.0191 N   0  0  0  0  0  0  0  0  0  0  0  0
   69.2518   47.9678   53.5187 C   0  0  0  0  0  0  0  0  0  0  0  0
   68.7199   47.0033   52.6852 C   0  0  0  0  0  0  0  0  0  0  0  0
   68.1258   45.8616   53.1872 C   0  0  0  0  0  0  0  0  0  0  0  0
   68.0393   45.6401   54.5607 C   0  0  0  0  0  0  0  0  0  0  0  0
   68.5653   46.5928   55.3860 C   0  0  0  0  0  0  0  0  0  0  0  0
   69.1690   47.7515   54.8809 C   0  0  0  0  0  0  0  0  0  0  0  0
   69.9587   49.3397   51.1178 N   0  0  0  0  0  0  0  0  0  0  0  0
   69.9867   49.4280   52.8643 S   0  0  0  0  0  0  0  0  0  0  0  0
   71.4459   49.4024   53.2475 O   0  0  0  0  0  0  0  0  0  0  0  0
   69.3163   50.6629   53.3417 O   0  0  0  0  0  0  0  0  0  0  0  0
 22 23  1  0
 23 24  2  0
 23 25  2  0
 23 16  1  0
 16 17  2  0
 16 21  1  0
 17 18  1  0
 18 19  2  0
 19 15  1  0
 19 20  1  0
 15  1  1  0
  1  2  2  0
  2  3  1  0
  3  4  2  0
  3  8  1  0
  4  5  1  0
  5  6  2  0
  6  9  1  0
  6  7  1  0
  9 10  1  0
  9 14  1  0
 10 11  1  0
 11 12  1  0
 12 13  1  0
 13 14  1  0
  7  8  2  0
 20 21  2  0
M  END
>  <minimizedAffinity>  (72) 
-9.31157

$$$$
data/200k_reference_output/data/smiles/2939.pdb
     RDKit          3D

 29 32  0  0  0  0  0  0  0  0999 V2000
   68.6639   43.3200   56.5631 C   0  0  0  0  0  0  0  0  0  0  0  0
   69.7272   43.0376   57.4390 C   0  0  0  0  0  0  0  0  0  0  0  0
   70.8053   44.0135   57.7884 C   0  0  0  0  0  0  0  0  0  0  0  0
   69.5837   41.7889   57.8693 N   0  0  0  0  0  0  0  0  0  0  0  0
   68.4927   41.2073   57.3414 N   0  0  0  0  0  0  0  0  0  0  0  0
   67.9457   42.1615   56.5484 C   0  0  0  0  0  0  0  0  0  0  0  0
   66.6675   41.9693   55.8137 C   0  0  0  0  0  0  0  0  0  0  0  0
   67.6881   45.7604   52.4226 C   0  0  0  0  0  0  0  0  0  0  0  0
   68.0282   45.7548   53.8732 C   0  0  0  0  0  0  0  0  0  0  0  0
   68.1827   46.9789   54.4912 C   0  0  0  0  0  0  0  0  0  0  0  0
   68.4967   46.9711   55.8243 C   0  0  0  0  0  0  0  0  0  0  0  0
   68.6449   48.0616   56.4164 O   0  0  0  0  0  0  0  0  0  0  0  0
   68.6470   45.7835   56.4981 N   0  0  0  0  0  0  0  0  0  0  0  0
   68.5007   44.6036   55.9138 C   0  0  0  0  0  0  0  0  0  0  0  0
   68.1864   44.6516   54.5805 N   0  0  0  0  0  0  0  0  0  0  0  0
   68.0981   39.8338   57.5787 C   0  0  0  0  0  0  0  0  0  0  0  0
   67.9120   39.4831   58.9954 C   0  0  0  0  0  0  0  0  0  0  0  0
   68.4801   38.2810   59.5613 C   0  0  0  0  0  0  0  0  0  0  0  0
   67.7520   37.3438   59.9434 O   0  0  0  0  0  0  0  0  0  0  0  0
   69.9144   38.1182   59.7081 N   0  0  0  0  0  0  0  0  0  0  0  0
   70.8709   39.1151   59.3127 C   0  0  0  0  0  0  0  0  0  0  0  0
   72.0139   38.5310   58.5289 C   0  0  0  0  0  0  0  0  0  0  0  0
   72.0528   37.0702   58.4503 C   0  0  0  0  0  0  0  0  0  0  0  0
   72.8775   36.4985   57.5067 C   0  0  0  0  0  0  0  0  0  0  0  0
   72.9456   35.1309   57.4039 C   0  0  0  0  0  0  0  0  0  0  0  0
   72.2123   34.3011   58.2183 C   0  0  0  0  0  0  0  0  0  0  0  0
   71.3974   34.8809   59.1512 C   0  0  0  0  0  0  0  0  0  0  0  0
   71.3122   36.2734   59.2746 C   0  0  0  0  0  0  0  0  0  0  0  0
   70.4281   36.8977   60.2803 C   0  0  0  0  0  0  0  0  0  0  0  0
  8  9  1  0
  9 10  2  0
  9 15  1  0
 10 11  1  0
 11 12  2  0
 11 13  1  0
 13 14  1  0
 14  1  1  0
 14 15  2  0
  1  2  1  0
  1  6  2  0
  2  3  1  0
  2  4  2  0
  4  5  1  0
  5 16  1  0
  5  6  1  0
 16 17  1  0
 17 18  1  0
 18 19  2  0
 18 20  1  0
 20 21  1  0
 20 29  1  0
 21 22  1  0
 22 23  1  0
 23 24  2  0
 23 28  1  0
 24 25  1  0
 25 26  2  0
 26 27  1  0
 27 28  2  0
 28 29  1  0
  6  7  1  0
M  END
>  <minimizedAffinity>  (73) 
-9.31149

$$$$
data/200k_reference_output/data/smiles/35736.pdb
     RDKit          3D

 25 27  0  0  0  0  0  0  0  0999 V2000
   68.9458   46.5655   56.3930 C   0  0  0  0  0  0  0  0  0  0  0  0
   69.0553   46.7938   57.6270 O   0  0  0  0  0  0  0  0  0  0  0  0
   68.6075   47.6091   55.5550 N   0  0  0  0  0  0  0  0  0  0  0  0
   68.3171   48.9151   56.1606 C   0  0  0  0  0  0  0  0  0  0  0  0
   67.5598   48.7010   57.2862 C   0  0  0  0  0  0  0  0  0  0  0  0
   67.1708   49.7783   58.0269 C   0  0  0  0  0  0  0  0  0  0  0  0
   67.5510   51.0455   57.6173 C   0  0  0  0  0  0  0  0  0  0  0  0
   68.3103   51.2204   56.4798 C   0  0  0  0  0  0  0  0  0  0  0  0
   68.7296   50.1470   55.6946 C   0  0  0  0  0  0  0  0  0  0  0  0
   69.4860   50.5612   54.5675 N   0  0  0  0  0  0  0  0  0  0  0  0
   69.7678   51.9989   54.4844 C   0  0  0  0  0  0  0  0  0  0  0  0
   70.1158   49.5984   53.2701 S   0  0  0  0  0  0  0  0  0  0  0  0
   71.5988   49.4365   53.3770 O   0  0  0  0  0  0  0  0  0  0  0  0
   69.8431   50.3761   51.9885 O   0  0  0  0  0  0  0  0  0  0  0  0
   69.2589   48.0979   53.1587 C   0  0  0  0  0  0  0  0  0  0  0  0
   69.1960   47.6205   51.8519 C   0  0  0  0  0  0  0  0  0  0  0  0
   68.5369   46.4498   51.5669 C   0  0  0  0  0  0  0  0  0  0  0  0
   67.9166   45.7064   52.5497 C   0  0  0  0  0  0  0  0  0  0  0  0
   67.9830   46.1824   53.8322 C   0  0  0  0  0  0  0  0  0  0  0  0
   68.6463   47.3579   54.1246 C   0  0  0  0  0  0  0  0  0  0  0  0
   69.2317   45.1675   56.1328 C   0  0  0  0  0  0  0  0  0  0  0  0
   68.0936   44.2442   56.3202 N   0  0  0  0  0  0  0  0  0  0  0  0
   68.9499   42.2269   57.5477 C   0  0  0  0  0  0  0  0  0  0  0  0
   68.3920   42.8775   56.3423 C   0  0  0  0  0  0  0  0  0  0  0  0
   67.0443   42.1532   56.0716 C   0  0  0  0  0  0  0  0  0  0  0  0
 23 24  1  0
 24 25  1  0
 24 22  1  0
 22 21  1  0
 21  1  1  0
  1  2  2  0
  1  3  1  0
  3  4  1  0
  3 20  1  0
  4  5  2  0
  4  9  1  0
  5  6  1  0
  6  7  2  0
  7  8  1  0
  8  9  2  0
  9 10  1  0
 10 11  1  0
 10 12  1  0
 12 13  2  0
 12 14  2  0
 12 15  1  0
 15 16  2  0
 15 20  1  0
 16 17  1  0
 17 18  2  0
 18 19  1  0
 19 20  2  0
M  CHG  1  22   1
M  END
>  <minimizedAffinity>  (74) 
-9.30786

$$$$
data/200k_reference_output/data/smiles/87028.pdb
     RDKit          3D

 27 29  0  0  0  0  0  0  0  0999 V2000
   69.0575   42.8114   57.3102 C   0  0  0  0  0  0  0  0  0  0  0  0
   67.8636   42.4247   57.5151 O   0  0  0  0  0  0  0  0  0  0  0  0
   69.2225   44.0406   56.6661 N   0  0  0  0  0  0  0  0  0  0  0  0
   73.8909   42.7337   58.2068 C   0  0  0  0  0  0  0  0  0  0  0  0
   72.5914   42.0141   58.1576 C   0  0  0  0  0  0  0  0  0  0  0  0
   71.4344   42.6382   57.7986 C   0  0  0  0  0  0  0  0  0  0  0  0
   70.1795   42.0007   57.7366 C   0  0  0  0  0  0  0  0  0  0  0  0
   70.1737   40.6803   58.0647 C   0  0  0  0  0  0  0  0  0  0  0  0
   69.0071   39.9830   58.0592 F   0  0  0  0  0  0  0  0  0  0  0  0
   71.3302   39.9763   58.4430 C   0  0  0  0  0  0  0  0  0  0  0  0
   72.5006   40.6697   58.4757 C   0  0  0  0  0  0  0  0  0  0  0  0
   71.2212   38.5904   58.7685 N   0  0  0  0  0  0  0  0  0  0  0  0
   71.8064   37.5767   58.1364 C   0  0  0  0  0  0  0  0  0  0  0  0
   71.4627   36.3813   58.7448 C   0  0  0  0  0  0  0  0  0  0  0  0
   70.6320   36.7330   59.7850 C   0  0  0  0  0  0  0  0  0  0  0  0
   70.5169   38.0638   59.7599 N   0  0  0  0  0  0  0  0  0  0  0  0
   68.2982   44.9212   56.2079 N   0  0  0  0  0  0  0  0  0  0  0  0
   68.6429   46.5290   55.9402 S   0  0  0  0  0  0  0  0  0  0  0  0
   67.4604   47.3366   56.4905 O   0  0  0  0  0  0  0  0  0  0  0  0
   69.8147   47.0131   56.8051 O   0  0  0  0  0  0  0  0  0  0  0  0
   68.8831   47.0268   54.2985 C   0  0  0  0  0  0  0  0  0  0  0  0
   69.5291   48.1958   53.9967 C   0  0  0  0  0  0  0  0  0  0  0  0
   69.6903   48.6111   52.6909 C   0  0  0  0  0  0  0  0  0  0  0  0
   69.1982   47.8515   51.6502 C   0  0  0  0  0  0  0  0  0  0  0  0
   68.5489   46.6794   51.9433 C   0  0  0  0  0  0  0  0  0  0  0  0
   68.3903   46.2662   53.2618 C   0  0  0  0  0  0  0  0  0  0  0  0
   67.7404   45.0984   53.4878 F   0  0  0  0  0  0  0  0  0  0  0  0
  4  5  1  0
  5  6  2  0
  5 11  1  0
  6  7  1  0
  7  1  1  0
  7  8  2  0
  1  2  2  0
  1  3  1  0
  3 17  1  0
 17 18  1  0
 18 19  2  0
 18 20  2  0
 18 21  1  0
 21 22  2  0
 21 26  1  0
 22 23  1  0
 23 24  2  0
 24 25  1  0
 25 26  2  0
 26 27  1  0
  8  9  1  0
  8 10  1  0
 10 12  1  0
 10 11  2  0
 12 13  1  0
 12 16  1  0
 13 14  2  0
 14 15  1  0
 15 16  2  0
M  END
>  <minimizedAffinity>  (75) 
-9.29235

$$$$
data/reference_output_2/data/smiles/167394.pdb
     RDKit          3D

 28 30  0  0  0  0  0  0  0  0999 V2000
   68.6502   41.5412   57.2263 C   0  0  0  0  0  0  0  0  0  0  0  0
   69.8167   41.4804   57.9495 C   0  0  0  0  0  0  0  0  0  0  0  0
   70.2607   40.3179   58.5485 C   0  0  0  0  0  0  0  0  0  0  0  0
   69.5490   39.1374   58.4534 C   0  0  0  0  0  0  0  0  0  0  0  0
   68.3766   39.1948   57.7282 C   0  0  0  0  0  0  0  0  0  0  0  0
   67.9385   40.3607   57.1312 C   0  0  0  0  0  0  0  0  0  0  0  0
   68.8896   43.9624   56.5853 N   0  0  0  0  0  0  0  0  0  0  0  0
   68.1702   42.7679   56.5876 C   0  0  0  0  0  0  0  0  0  0  0  0
   67.0395   42.7913   55.9897 O   0  0  0  0  0  0  0  0  0  0  0  0
   69.9344   46.4706   57.0372 O   0  0  0  0  0  0  0  0  0  0  0  0
   68.9812   46.4182   56.2247 C   0  0  0  0  0  0  0  0  0  0  0  0
   68.4106   45.1480   55.9594 N   0  0  0  0  0  0  0  0  0  0  0  0
   68.5237   47.6815   55.6034 C   0  0  0  0  0  0  0  0  0  0  0  0
   68.9660   47.7493   54.1918 C   0  0  0  0  0  0  0  0  0  0  0  0
   68.5715   46.8751   53.2021 C   0  0  0  0  0  0  0  0  0  0  0  0
   69.0463   47.0278   51.9081 C   0  0  0  0  0  0  0  0  0  0  0  0
   69.9129   48.0314   51.5475 C   0  0  0  0  0  0  0  0  0  0  0  0
   70.3025   48.9054   52.5502 C   0  0  0  0  0  0  0  0  0  0  0  0
   69.8306   48.7529   53.8338 C   0  0  0  0  0  0  0  0  0  0  0  0
   70.0067   37.9417   59.0711 N   0  0  0  0  0  0  0  0  0  0  0  0
   71.1364   37.1977   58.6506 C   0  0  0  0  0  0  0  0  0  0  0  0
   71.7562   37.6562   57.6566 O   0  0  0  0  0  0  0  0  0  0  0  0
   71.5918   35.9793   59.2921 C   0  0  0  0  0  0  0  0  0  0  0  0
   71.6917   35.8309   60.6526 C   0  0  0  0  0  0  0  0  0  0  0  0
   72.1335   34.6398   61.2254 C   0  0  0  0  0  0  0  0  0  0  0  0
   72.4821   33.5789   60.4065 C   0  0  0  0  0  0  0  0  0  0  0  0
   72.3881   33.7099   59.0513 C   0  0  0  0  0  0  0  0  0  0  0  0
   71.9456   34.9037   58.5100 C   0  0  0  0  0  0  0  0  0  0  0  0
 10 11  2  0
 11 13  1  0
 11 12  1  0
 13 14  1  0
 14 15  2  0
 14 19  1  0
 15 16  1  0
 16 17  2  0
 17 18  1  0
 18 19  2  0
 12  7  1  0
  7  8  1  0
  8  9  2  0
  8  1  1  0
  1  2  2  0
  1  6  1  0
  2  3  1  0
  3  4  2  0
  4 20  1  0
  4  5  1  0
 20 21  1  0
 21 22  2  0
 21 23  1  0
 23 24  2  0
 23 28  1  0
 24 25  1  0
 25 26  2  0
 26 27  1  0
 27 28  2  0
  5  6  2  0
M  END
>  <minimizedAffinity>  (76) 
-9.29056

$$$$
data/200k_reference_output/data/smiles/34426.pdb
     RDKit          3D

 27 30  0  0  0  0  0  0  0  0999 V2000
   69.0575   45.6465   56.5703 C   0  0  0  0  0  0  0  0  0  0  0  0
   69.8588   46.6453   57.1604 C   0  0  0  0  0  0  0  0  0  0  0  0
   70.8918   46.3226   57.9901 C   0  0  0  0  0  0  0  0  0  0  0  0
   71.1073   45.0281   58.2160 N   0  0  0  0  0  0  0  0  0  0  0  0
   70.3661   44.0211   57.6771 C   0  0  0  0  0  0  0  0  0  0  0  0
   69.3090   44.3323   56.8322 C   0  0  0  0  0  0  0  0  0  0  0  0
   68.4589   43.2570   56.3075 C   0  0  0  0  0  0  0  0  0  0  0  0
   67.5067   43.5079   55.5577 O   0  0  0  0  0  0  0  0  0  0  0  0
   68.7668   41.9015   56.6970 N   0  0  0  0  0  0  0  0  0  0  0  0
   69.4626   41.7272   57.9491 C   0  0  0  0  0  0  0  0  0  0  0  0
   70.6844   42.6093   57.9651 C   0  0  0  0  0  0  0  0  0  0  0  0
   71.7423   47.3390   58.6169 C   0  0  0  0  0  0  0  0  0  0  0  0
   72.2611   47.1244   59.8750 C   0  0  0  0  0  0  0  0  0  0  0  0
   73.0681   48.0581   60.5058 C   0  0  0  0  0  0  0  0  0  0  0  0
   73.3788   49.2312   59.8945 C   0  0  0  0  0  0  0  0  0  0  0  0
   72.8725   49.4751   58.6307 C   0  0  0  0  0  0  0  0  0  0  0  0
   72.0658   48.5264   58.0171 C   0  0  0  0  0  0  0  0  0  0  0  0
   67.9961   46.0413   55.7171 N   0  0  0  0  0  0  0  0  0  0  0  0
   69.3282   47.6917   52.6480 C   0  0  0  0  0  0  0  0  0  0  0  0
   68.7592   46.9417   51.6330 C   0  0  0  0  0  0  0  0  0  0  0  0
   67.9469   45.8923   52.0008 C   0  0  0  0  0  0  0  0  0  0  0  0
   67.7162   45.6080   53.3307 C   0  0  0  0  0  0  0  0  0  0  0  0
   68.2795   46.3501   54.3617 C   0  0  0  0  0  0  0  0  0  0  0  0
   69.1036   47.4140   53.9781 C   0  0  0  0  0  0  0  0  0  0  0  0
   71.1870   49.2346   53.1649 N   0  0  0  0  0  0  0  0  0  0  0  0
   70.1843   48.7975   52.2488 C   0  0  0  0  0  0  0  0  0  0  0  0
   70.0757   49.3726   51.1436 O   0  0  0  0  0  0  0  0  0  0  0  0
 25 26  1  0
 26 27  2  0
 26 19  1  0
 19 20  2  0
 19 24  1  0
 20 21  1  0
 21 22  2  0
 22 23  1  0
 23 18  1  0
 23 24  2  0
 18  1  1  0
  1  2  2  0
  1  6  1  0
  2  3  1  0
  3 12  1  0
  3  4  2  0
 12 13  2  0
 12 17  1  0
 13 14  1  0
 14 15  2  0
 15 16  1  0
 16 17  2  0
  4  5  1  0
  5  6  2  0
  5 11  1  0
  6  7  1  0
  7  8  2  0
  7  9  1  0
  9 10  1  0
 10 11  1  0
M  END
>  <minimizedAffinity>  (77) 
-9.29008

$$$$
data/reference_output_2/data/smiles/102447.pdb
     RDKit          3D

 28 31  0  0  0  0  0  0  0  0999 V2000
   67.5103   41.1845   57.8923 C   0  0  2  0  0  0  0  0  0  0  0  0
   68.3575   41.9288   58.8528 C   0  0  0  0  0  0  0  0  0  0  0  0
   68.2466   42.8453   59.7060 O   0  0  0  0  0  0  0  0  0  0  0  0
   69.4703   41.1570   58.4258 N   0  0  0  0  0  0  0  0  0  0  0  0
   68.5759   40.1427   57.9583 C   0  0  1  0  0  0  0  0  0  0  0  0
   70.8815   41.3443   58.4632 C   0  0  0  0  0  0  0  0  0  0  0  0
   71.7050   40.5918   59.2657 C   0  0  0  0  0  0  0  0  0  0  0  0
   73.0706   40.8022   59.2763 C   0  0  0  0  0  0  0  0  0  0  0  0
   73.6679   41.7579   58.4979 C   0  0  0  0  0  0  0  0  0  0  0  0
   72.8541   42.5202   57.6881 C   0  0  0  0  0  0  0  0  0  0  0  0
   71.4810   42.3083   57.6791 C   0  0  0  0  0  0  0  0  0  0  0  0
   68.3342   39.0867   58.9568 C   0  0  0  0  0  0  0  0  0  0  0  0
   69.2051   38.2149   59.5378 C   0  0  0  0  0  0  0  0  0  0  0  0
   68.7494   37.3343   60.4290 C   0  0  0  0  0  0  0  0  0  0  0  0
   67.4144   37.3304   60.7354 C   0  0  0  0  0  0  0  0  0  0  0  0
   66.8209   38.6782   59.6665 S   0  0  0  0  0  0  0  0  0  0  0  0
   67.7401   43.2626   56.4327 N   0  0  0  0  0  0  0  0  0  0  0  0
   67.5370   41.8712   56.5733 C   0  0  0  0  0  0  0  0  0  0  0  0
   67.3726   41.1945   55.5330 O   0  0  0  0  0  0  0  0  0  0  0  0
   68.5842   45.8295   56.0669 O   0  0  0  0  0  0  0  0  0  0  0  0
   68.2103   45.2433   55.0286 C   0  0  0  0  0  0  0  0  0  0  0  0
   67.7638   43.9080   55.1699 N   0  0  0  0  0  0  0  0  0  0  0  0
   68.2544   45.9544   53.7524 C   0  0  0  0  0  0  0  0  0  0  0  0
   68.9804   47.1229   53.6350 C   0  0  0  0  0  0  0  0  0  0  0  0
   69.0417   47.8173   52.4439 C   0  0  0  0  0  0  0  0  0  0  0  0
   68.3856   47.3742   51.3347 N   0  0  0  0  0  0  0  0  0  0  0  0
   67.6699   46.2387   51.4192 C   0  0  0  0  0  0  0  0  0  0  0  0
   67.5997   45.5239   52.6209 C   0  0  0  0  0  0  0  0  0  0  0  0
 20 21  2  0
 21 22  1  0
 21 23  1  0
 22 17  1  0
 17 18  1  0
 18 19  2  0
  1 18  1  6
  1  2  1  0
  1  5  1  0
  2  3  2  0
  2  4  1  0
  4  6  1  0
  4  5  1  0
  6  7  2  0
  6 11  1  0
  7  8  1  0
  8  9  2  0
  9 10  1  0
 10 11  2  0
  5 12  1  1
 12 13  2  0
 12 16  1  0
 13 14  1  0
 14 15  2  0
 15 16  1  0
 23 24  2  0
 23 28  1  0
 24 25  1  0
 25 26  2  0
 26 27  1  0
 27 28  2  0
M  END
>  <minimizedAffinity>  (78) 
-9.28875

$$$$
data/200k_reference_output/data/smiles/64361.pdb
     RDKit          3D

 27 28  0  0  0  0  0  0  0  0999 V2000
   67.3120   41.4377   57.9459 C   0  0  0  0  0  0  0  0  0  0  0  0
   69.3066   40.0690   58.6673 C   0  0  0  0  0  0  0  0  0  0  0  0
   69.7765   41.1492   59.1395 O   0  0  0  0  0  0  0  0  0  0  0  0
   68.0366   40.1676   58.0415 N   0  0  0  0  0  0  0  0  0  0  0  0
   71.4939   36.4048   59.0398 C   0  0  0  0  0  0  0  0  0  0  0  0
   71.9065   37.3859   58.1678 C   0  0  0  0  0  0  0  0  0  0  0  0
   71.1959   38.5859   58.0410 C   0  0  0  0  0  0  0  0  0  0  0  0
   70.0614   38.8213   58.7851 C   0  0  0  0  0  0  0  0  0  0  0  0
   69.6742   37.8177   59.6508 C   0  0  0  0  0  0  0  0  0  0  0  0
   70.3593   36.6294   59.7907 C   0  0  0  0  0  0  0  0  0  0  0  0
   71.3942   34.0705   59.8911 C   0  0  0  0  0  0  0  0  0  0  0  0
   72.2006   35.1207   59.2165 C   0  0  0  0  0  0  0  0  0  0  0  0
   72.6318   34.6206   57.8631 C   0  0  0  0  0  0  0  0  0  0  0  0
   73.4713   35.3346   60.0450 C   0  0  0  0  0  0  0  0  0  0  0  0
   67.5161   42.0484   56.6186 C   0  0  0  0  0  0  0  0  0  0  0  0
   67.4556   41.3313   55.6045 O   0  0  0  0  0  0  0  0  0  0  0  0
   67.7777   43.4252   56.4878 N   0  0  0  0  0  0  0  0  0  0  0  0
   67.9794   44.0482   55.2275 N   0  0  0  0  0  0  0  0  0  0  0  0
   68.2059   45.4284   55.1840 C   0  0  0  0  0  0  0  0  0  0  0  0
   68.2240   46.0747   56.2618 O   0  0  0  0  0  0  0  0  0  0  0  0
   68.4261   46.1826   53.9485 C   0  0  0  0  0  0  0  0  0  0  0  0
   69.2384   47.2999   53.9101 C   0  0  0  0  0  0  0  0  0  0  0  0
   69.4390   48.0056   52.7385 C   0  0  0  0  0  0  0  0  0  0  0  0
   68.8365   47.6244   51.5563 C   0  0  0  0  0  0  0  0  0  0  0  0
   68.0301   46.5143   51.5957 C   0  0  0  0  0  0  0  0  0  0  0  0
   67.8261   45.8077   52.7585 C   0  0  0  0  0  0  0  0  0  0  0  0
   66.9973   44.7041   52.7001 O   0  0  0  0  0  0  0  0  0  0  0  0
 11 12  1  0
 12 13  1  0
 12 14  1  0
 12  5  1  0
  5  6  2  0
  5 10  1  0
  6  7  1  0
  7  8  2  0
  8  2  1  0
  8  9  1  0
  2  3  2  0
  2  4  1  0
  4  1  1  0
  1 15  1  0
 15 16  2  0
 15 17  1  0
 17 18  1  0
 18 19  1  0
 19 20  2  0
 19 21  1  0
 21 22  2  0
 21 26  1  0
 22 23  1  0
 23 24  2  0
 24 25  1  0
 25 26  2  0
 26 27  1  0
  9 10  2  0
M  END
>  <minimizedAffinity>  (79) 
-9.28348

$$$$
data/reference_output_2/data/smiles/104024.pdb
     RDKit          3D

 26 28  0  0  0  0  0  0  0  0999 V2000
   70.1258   41.9218   57.8811 C   0  0  0  0  0  0  0  0  0  0  0  0
   70.6194   40.8897   58.6424 C   0  0  0  0  0  0  0  0  0  0  0  0
   70.0052   39.6695   58.7488 C   0  0  0  0  0  0  0  0  0  0  0  0
   68.8342   39.4636   58.0582 C   0  0  0  0  0  0  0  0  0  0  0  0
   68.3065   40.5051   57.2706 C   0  0  0  0  0  0  0  0  0  0  0  0
   68.9476   41.7212   57.1856 C   0  0  0  0  0  0  0  0  0  0  0  0
   68.1452   42.5806   56.3133 C   0  0  0  0  0  0  0  0  0  0  0  0
   68.3867   43.7850   55.9906 N   0  0  0  0  0  0  0  0  0  0  0  0
   67.0004   41.8065   55.8867 C   0  0  0  0  0  0  0  0  0  0  0  0
   66.0506   42.1789   55.1139 O   0  0  0  0  0  0  0  0  0  0  0  0
   67.1299   40.5341   56.4931 N   0  0  0  0  0  0  0  0  0  0  0  0
   70.8469   43.1739   57.7826 C   0  0  0  0  0  0  0  0  0  0  0  0
   70.5843   45.5799   58.4087 C   0  0  0  0  0  0  0  0  0  0  0  0
   70.5965   44.1532   58.9032 C   0  0  0  0  0  0  0  0  0  0  0  0
   71.6727   44.0728   59.9706 C   0  0  0  0  0  0  0  0  0  0  0  0
   67.5882   44.5548   55.1592 N   0  0  0  0  0  0  0  0  0  0  0  0
   68.1628   45.7146   54.5981 C   0  0  0  0  0  0  0  0  0  0  0  0
   68.7002   46.7076   55.4049 C   0  0  0  0  0  0  0  0  0  0  0  0
   69.2609   47.8473   54.8842 C   0  0  0  0  0  0  0  0  0  0  0  0
   69.2921   48.0082   53.5251 C   0  0  0  0  0  0  0  0  0  0  0  0
   68.7722   47.0508   52.6905 C   0  0  0  0  0  0  0  0  0  0  0  0
   68.2049   45.8972   53.2429 C   0  0  0  0  0  0  0  0  0  0  0  0
   69.9934   49.4478   52.8476 S   0  0  0  0  0  0  0  0  0  0  0  0
   69.9005   49.3751   51.1236 N   0  0  0  0  0  0  0  0  0  0  0  0
   71.4794   49.4649   53.1909 O   0  0  0  0  0  0  0  0  0  0  0  0
   69.3637   50.7066   53.3807 O   0  0  0  0  0  0  0  0  0  0  0  0
 13 14  1  0
 14 15  1  0
 14 12  1  0
 12  1  1  0
  1  2  2  0
  1  6  1  0
  2  3  1  0
  3  4  2  0
  4  5  1  0
  5  6  2  0
  5 11  1  0
  6  7  1  0
  7  8  2  0
  7  9  1  0
  8 16  1  0
 16 17  1  0
 17 18  2  0
 17 22  1  0
 18 19  1  0
 19 20  2  0
 20 23  1  0
 20 21  1  0
 23 24  1  0
 23 25  2  0
 23 26  2  0
 21 22  2  0
  9 10  2  0
  9 11  1  0
M  END
>  <minimizedAffinity>  (80) 
-9.27969

$$$$
data/reference_output_2/data/smiles/186691.pdb
     RDKit          3D

 26 28  0  0  0  0  0  0  0  0999 V2000
   68.1043   45.4820   54.4219 C   0  0  0  0  0  0  0  0  0  0  0  0
   68.6434   46.4389   55.2569 C   0  0  0  0  0  0  0  0  0  0  0  0
   69.2417   47.5859   54.7745 C   0  0  0  0  0  0  0  0  0  0  0  0
   69.3307   47.8339   53.4210 C   0  0  0  0  0  0  0  0  0  0  0  0
   68.7933   46.8804   52.5798 C   0  0  0  0  0  0  0  0  0  0  0  0
   68.1966   45.7367   53.0678 C   0  0  0  0  0  0  0  0  0  0  0  0
   69.1254   43.8566   56.4235 O   0  0  0  0  0  0  0  0  0  0  0  0
   68.0326   43.4783   55.9272 C   0  0  0  0  0  0  0  0  0  0  0  0
   67.4476   42.3092   56.4177 N   0  0  0  0  0  0  0  0  0  0  0  0
   67.4911   44.2905   54.8994 N   0  0  0  0  0  0  0  0  0  0  0  0
   67.9755   41.4502   57.4562 C   0  0  0  0  0  0  0  0  0  0  0  0
   67.6666   41.9095   58.8187 C   0  0  0  0  0  0  0  0  0  0  0  0
   66.5622   41.4330   59.4748 C   0  0  0  0  0  0  0  0  0  0  0  0
   66.3218   41.9132   60.7570 C   0  0  0  0  0  0  0  0  0  0  0  0
   67.1400   42.8343   61.3799 C   0  0  0  0  0  0  0  0  0  0  0  0
   68.2107   43.2541   60.6656 N   0  0  0  0  0  0  0  0  0  0  0  0
   68.4662   42.8176   59.4459 N   0  0  0  0  0  0  0  0  0  0  0  0
   70.0883   49.2848   52.7833 S   0  0  0  0  0  0  0  0  0  0  0  0
   71.5879   49.0599   52.8296 O   0  0  0  0  0  0  0  0  0  0  0  0
   69.7014   49.5449   51.3743 O   0  0  0  0  0  0  0  0  0  0  0  0
   69.7592   50.6780   53.8163 C   0  0  0  0  0  0  0  0  0  0  0  0
   70.8263   51.3861   54.3452 C   0  0  0  0  0  0  0  0  0  0  0  0
   70.6872   52.4854   55.1585 C   0  0  0  0  0  0  0  0  0  0  0  0
   69.3930   52.8839   55.4489 C   0  0  0  0  0  0  0  0  0  0  0  0
   68.3072   52.1988   54.9382 C   0  0  0  0  0  0  0  0  0  0  0  0
   68.4793   51.0884   54.1157 C   0  0  0  0  0  0  0  0  0  0  0  0
  7  8  2  0
  8  9  1  0
  8 10  1  0
  9 11  1  0
 11 12  1  0
 12 13  2  0
 12 17  1  0
 13 14  1  0
 14 15  2  0
 15 16  1  0
 16 17  2  0
 10  1  1  0
  1  2  2  0
  1  6  1  0
  2  3  1  0
  3  4  2  0
  4 18  1  0
  4  5  1  0
 18 19  2  0
 18 20  2  0
 18 21  1  0
 21 22  2  0
 21 26  1  0
 22 23  1  0
 23 24  2  0
 24 25  1  0
 25 26  2  0
  5  6  2  0
M  END
>  <minimizedAffinity>  (81) 
-9.27630

$$$$
data/200k_reference_output/data/smiles/38497.pdb
     RDKit          3D

 28 31  0  0  0  0  0  0  0  0999 V2000
   70.8987   46.0740   58.1910 C   0  0  0  0  0  0  0  0  0  0  0  0
   71.6989   46.9401   58.9551 C   0  0  0  0  0  0  0  0  0  0  0  0
   71.5408   48.3033   58.9397 C   0  0  0  0  0  0  0  0  0  0  0  0
   70.5534   48.8517   58.1384 C   0  0  0  0  0  0  0  0  0  0  0  0
   69.7382   48.0669   57.3675 C   0  0  0  0  0  0  0  0  0  0  0  0
   69.9513   46.6909   57.4299 C   0  0  0  0  0  0  0  0  0  0  0  0
   69.4541   44.1058   59.7104 O   0  0  0  0  0  0  0  0  0  0  0  0
   70.4300   43.7523   59.0131 C   0  0  0  0  0  0  0  0  0  0  0  0
   71.1329   44.7004   58.2751 N   0  0  0  0  0  0  0  0  0  0  0  0
   70.8322   42.2887   58.9844 C   0  0  0  0  0  0  0  0  0  0  0  0
   69.8151   41.5471   58.2227 C   0  0  0  0  0  0  0  0  0  0  0  0
   68.9923   42.1758   57.2824 C   0  0  0  0  0  0  0  0  0  0  0  0
   68.0444   41.5022   56.5696 C   0  0  0  0  0  0  0  0  0  0  0  0
   67.9100   40.1377   56.8042 C   0  0  0  0  0  0  0  0  0  0  0  0
   68.6959   39.5276   57.7040 N   0  0  0  0  0  0  0  0  0  0  0  0
   69.6365   40.1931   58.4133 C   0  0  0  0  0  0  0  0  0  0  0  0
   68.6577   48.6020   56.4648 C   0  0  0  0  0  0  0  0  0  0  0  0
   69.0377   48.7238   55.0725 C   0  0  0  0  0  0  0  0  0  0  0  0
   69.4628   49.9228   54.6261 N   0  0  0  0  0  0  0  0  0  0  0  0
   69.8186   50.1901   53.3921 N   0  0  0  0  0  0  0  0  0  0  0  0
   69.7716   49.2170   52.4602 C   0  0  0  0  0  0  0  0  0  0  0  0
   70.1070   49.4292   51.2521 O   0  0  0  0  0  0  0  0  0  0  0  0
   69.3501   47.9609   52.8289 C   0  0  0  0  0  0  0  0  0  0  0  0
   68.9766   47.7095   54.1580 C   0  0  0  0  0  0  0  0  0  0  0  0
   68.5716   46.3401   54.4244 C   0  0  0  0  0  0  0  0  0  0  0  0
   67.4486   46.0319   53.4163 C   0  0  0  0  0  0  0  0  0  0  0  0
   67.9231   46.1166   52.0006 C   0  0  0  0  0  0  0  0  0  0  0  0
   69.2646   46.8344   51.8652 C   0  0  0  0  0  0  0  0  0  0  0  0
  7  8  2  0
  8 10  1  0
  8  9  1  0
 10 11  1  0
 11 12  2  0
 11 16  1  0
 12 13  1  0
 13 14  2  0
 14 15  1  0
 15 16  2  0
  9  1  1  0
  1  2  2  0
  1  6  1  0
  2  3  1  0
  3  4  2  0
  4  5  1  0
  5 17  1  0
  5  6  2  0
 17 18  1  0
 18 19  2  0
 18 24  1  0
 19 20  1  0
 20 21  1  0
 21 22  2  0
 21 23  1  0
 23 24  2  0
 23 28  1  0
 24 25  1  0
 25 26  1  0
 26 27  1  0
 27 28  1  0
M  END
>  <minimizedAffinity>  (82) 
-9.27299

$$$$
data/200k_reference_output/data/smiles/56178.pdb
     RDKit          3D

 27 31  0  0  0  0  0  0  0  0999 V2000
   77.1626   35.9976   53.4823 C   0  0  0  0  0  0  0  0  0  0  0  0
   76.3468   35.1269   52.5933 C   0  0  0  0  0  0  0  0  0  0  0  0
   76.6389   35.0372   51.2549 C   0  0  0  0  0  0  0  0  0  0  0  0
   77.5814   35.6030   50.4636 N   0  0  0  0  0  0  0  0  0  0  0  0
   77.4653   35.2006   49.1899 C   0  0  0  0  0  0  0  0  0  0  0  0
   78.1372   35.4553   48.0122 C   0  0  0  0  0  0  0  0  0  0  0  0
   77.7893   34.8832   46.8075 C   0  0  0  0  0  0  0  0  0  0  0  0
   76.7181   34.0157   46.7792 C   0  0  0  0  0  0  0  0  0  0  0  0
   76.0203   33.7356   47.9426 C   0  0  0  0  0  0  0  0  0  0  0  0
   76.3941   34.3242   49.1321 C   0  0  0  0  0  0  0  0  0  0  0  0
   75.8961   34.2359   50.4161 C   0  0  0  0  0  0  0  0  0  0  0  0
   74.8602   33.5462   51.0105 C   0  0  0  0  0  0  0  0  0  0  0  0
   74.5898   33.6549   52.3524 C   0  0  0  0  0  0  0  0  0  0  0  0
   75.3260   34.4445   53.1705 N   0  0  0  0  0  0  0  0  0  0  0  0
   74.9870   34.5486   54.5348 C   0  0  0  0  0  0  0  0  0  0  0  0
   73.8099   35.2082   55.0128 C   0  0  0  0  0  0  0  0  0  0  0  0
   73.2544   36.0006   54.1343 O   0  0  0  0  0  0  0  0  0  0  0  0
   73.1257   35.1637   56.2762 C   0  0  0  0  0  0  0  0  0  0  0  0
   73.0363   33.9492   56.9899 C   0  0  0  0  0  0  0  0  0  0  0  0
   72.4029   33.8291   58.1976 C   0  0  0  0  0  0  0  0  0  0  0  0
   71.7974   34.8952   58.8166 C   0  0  0  0  0  0  0  0  0  0  0  0
   71.1549   34.7876   60.0340 C   0  0  0  0  0  0  0  0  0  0  0  0
   70.5513   35.8736   60.6397 C   0  0  0  0  0  0  0  0  0  0  0  0
   70.6184   37.0773   59.9703 C   0  0  0  0  0  0  0  0  0  0  0  0
   71.2641   37.1843   58.7467 C   0  0  0  0  0  0  0  0  0  0  0  0
   71.8633   36.0935   58.1506 C   0  0  0  0  0  0  0  0  0  0  0  0
   72.5112   36.2126   56.9173 C   0  0  0  0  0  0  0  0  0  0  0  0
  1  2  1  0
  2  3  2  0
  2 14  1  0
  3  4  1  0
  3 11  1  0
  4  5  1  0
  5  6  2  0
  5 10  1  0
  6  7  1  0
  7  8  2  0
  8  9  1  0
  9 10  2  0
 10 11  1  0
 11 12  2  0
 12 13  1  0
 13 14  2  0
 14 15  1  0
 15 16  1  0
 16 17  2  0
 16 18  1  0
 18 19  2  0
 18 27  1  0
 19 20  1  0
 20 21  2  0
 21 22  1  0
 21 26  1  0
 22 23  2  0
 23 24  1  0
 24 25  2  0
 25 26  1  0
 26 27  2  0
M  CHG  1  14   1
M  END
>  <minimizedAffinity>  (83) 
-9.27123

$$$$
data/reference_output_2/data/smiles/201012.pdb
     RDKit          3D

 28 31  0  0  0  0  0  0  0  0999 V2000
   70.4722   44.3851   57.7837 C   0  0  0  0  0  0  0  0  0  0  0  0
   71.6220   44.4257   58.5740 C   0  0  0  0  0  0  0  0  0  0  0  0
   72.1734   45.6024   59.0077 C   0  0  0  0  0  0  0  0  0  0  0  0
   71.5952   46.8003   58.6685 C   0  0  0  0  0  0  0  0  0  0  0  0
   71.9014   48.1005   58.9410 N   0  0  0  0  0  0  0  0  0  0  0  0
   71.0103   48.8642   58.3673 N   0  0  0  0  0  0  0  0  0  0  0  0
   70.0955   48.1582   57.7049 C   0  0  0  0  0  0  0  0  0  0  0  0
   70.4736   46.8263   57.8997 C   0  0  0  0  0  0  0  0  0  0  0  0
   69.9335   45.6020   57.4723 C   0  0  0  0  0  0  0  0  0  0  0  0
   68.9925   42.3887   58.0266 C   0  0  0  0  0  0  0  0  0  0  0  0
   68.4702   42.7592   59.0867 O   0  0  0  0  0  0  0  0  0  0  0  0
   69.9615   43.1524   57.3755 N   0  0  0  0  0  0  0  0  0  0  0  0
   68.5390   41.0809   57.4714 C   0  0  0  0  0  0  0  0  0  0  0  0
   67.6207   40.3258   55.3210 N   0  0  0  0  0  0  0  0  0  0  0  0
   67.4810   41.2378   56.4265 C   0  0  0  0  0  0  0  0  0  0  0  0
   68.6987   48.6184   56.7772 S   0  0  0  0  0  0  0  0  0  0  0  0
   68.2561   49.9836   57.2778 O   0  0  0  0  0  0  0  0  0  0  0  0
   67.5235   47.7186   57.0664 O   0  0  0  0  0  0  0  0  0  0  0  0
   69.0633   48.7354   55.1089 C   0  0  0  0  0  0  0  0  0  0  0  0
   69.7341   49.8509   54.6139 C   0  0  0  0  0  0  0  0  0  0  0  0
   70.0793   49.9496   53.2834 C   0  0  0  0  0  0  0  0  0  0  0  0
   69.7659   48.9386   52.4092 C   0  0  0  0  0  0  0  0  0  0  0  0
   69.1010   47.8213   52.8696 C   0  0  0  0  0  0  0  0  0  0  0  0
   68.7805   46.8170   51.9729 C   0  0  0  0  0  0  0  0  0  0  0  0
   68.1047   45.7176   52.4525 C   0  0  0  0  0  0  0  0  0  0  0  0
   67.7453   45.5920   53.7749 C   0  0  0  0  0  0  0  0  0  0  0  0
   68.0829   46.6161   54.6386 C   0  0  0  0  0  0  0  0  0  0  0  0
   68.7594   47.7392   54.2177 C   0  0  0  0  0  0  0  0  0  0  0  0
 14 15  1  0
 15 13  1  0
 13 10  1  0
 10 11  2  0
 10 12  1  0
 12  1  1  0
  1  2  2  0
  1  9  1  0
  2  3  1  0
  3  4  2  0
  4  5  1  0
  4  8  1  0
  5  6  1  0
  6  7  2  0
  7 16  1  0
  7  8  1  0
 16 17  2  0
 16 18  2  0
 16 19  1  0
 19 20  2  0
 19 28  1  0
 20 21  1  0
 21 22  2  0
 22 23  1  0
 23 24  1  0
 23 28  2  0
 24 25  2  0
 25 26  1  0
 26 27  2  0
 27 28  1  0
  8  9  2  0
M  CHG  1  14   1
M  END
>  <minimizedAffinity>  (84) 
-9.26831

$$$$
data/200k_reference_output/data/smiles/3385.pdb
     RDKit          3D

 28 30  0  0  0  0  0  0  0  0999 V2000
   68.8124   43.8008   56.4804 N   0  0  0  0  0  0  0  0  0  0  0  0
   68.1159   42.6868   56.3547 N   0  0  0  0  0  0  0  0  0  0  0  0
   68.5683   41.7295   57.1760 C   0  0  0  0  0  0  0  0  0  0  0  0
   68.0733   40.3318   57.3541 C   0  0  0  0  0  0  0  0  0  0  0  0
   69.6415   42.3264   57.8639 C   0  0  0  0  0  0  0  0  0  0  0  0
   69.7722   43.6192   57.4125 C   0  0  0  0  0  0  0  0  0  0  0  0
   70.7316   44.6480   57.8543 C   0  0  0  0  0  0  0  0  0  0  0  0
   67.7447   45.9940   52.2072 C   0  0  0  0  0  0  0  0  0  0  0  0
   68.0243   46.0225   53.6582 C   0  0  0  0  0  0  0  0  0  0  0  0
   68.0245   47.2262   54.3236 C   0  0  0  0  0  0  0  0  0  0  0  0
   68.2815   47.2676   55.6687 C   0  0  0  0  0  0  0  0  0  0  0  0
   68.2835   48.3692   56.2845 O   0  0  0  0  0  0  0  0  0  0  0  0
   68.5410   46.1597   56.3886 N   0  0  0  0  0  0  0  0  0  0  0  0
   68.5360   44.9836   55.7143 C   0  0  0  0  0  0  0  0  0  0  0  0
   68.2858   44.9137   54.3907 N   0  0  0  0  0  0  0  0  0  0  0  0
   70.3925   41.6094   58.9048 C   0  0  0  0  0  0  0  0  0  0  0  0
   71.7751   41.2638   58.4815 C   0  0  0  0  0  0  0  0  0  0  0  0
   72.0670   39.8435   58.6230 C   0  0  0  0  0  0  0  0  0  0  0  0
   73.0902   39.4178   59.1627 O   0  0  0  0  0  0  0  0  0  0  0  0
   71.1687   38.8221   58.1366 N   0  0  0  0  0  0  0  0  0  0  0  0
   71.4664   37.4500   58.2831 C   0  0  0  0  0  0  0  0  0  0  0  0
   72.3543   36.8113   57.4226 C   0  0  0  0  0  0  0  0  0  0  0  0
   72.6473   35.4713   57.5630 C   0  0  0  0  0  0  0  0  0  0  0  0
   72.0527   34.7385   58.5726 C   0  0  0  0  0  0  0  0  0  0  0  0
   72.3315   33.4098   58.7256 F   0  0  0  0  0  0  0  0  0  0  0  0
   71.1758   35.3825   59.4160 C   0  0  0  0  0  0  0  0  0  0  0  0
   70.5641   34.7081   60.4238 F   0  0  0  0  0  0  0  0  0  0  0  0
   70.8686   36.7196   59.2950 C   0  0  0  0  0  0  0  0  0  0  0  0
  8  9  1  0
  9 10  2  0
  9 15  1  0
 10 11  1  0
 11 12  2  0
 11 13  1  0
 13 14  1  0
 14  1  1  0
 14 15  2  0
  1  2  1  0
  1  6  1  0
  2  3  2  0
  3  4  1  0
  3  5  1  0
  5 16  1  0
  5  6  2  0
 16 17  1  0
 17 18  1  0
 18 19  2  0
 18 20  1  0
 20 21  1  0
 21 22  2  0
 21 28  1  0
 22 23  1  0
 23 24  2  0
 24 25  1  0
 24 26  1  0
 26 27  1  0
 26 28  2  0
  6  7  1  0
M  END
>  <minimizedAffinity>  (85) 
-9.26823

$$$$
data/200k_reference_output/data/smiles/86231.pdb
     RDKit          3D

 26 28  0  0  0  0  0  0  0  0999 V2000
   66.9024   42.0382   55.7111 O   0  0  0  0  0  0  0  0  0  0  0  0
   67.6418   41.4757   56.5638 C   0  0  0  0  0  0  0  0  0  0  0  0
   67.4254   40.1204   56.9706 N   0  0  0  0  0  0  0  0  0  0  0  0
   68.2511   39.4699   57.9324 C   0  0  0  0  0  0  0  0  0  0  0  0
   67.9919   38.2799   58.2326 O   0  0  0  0  0  0  0  0  0  0  0  0
   69.3466   40.1420   58.5466 N   0  0  0  0  0  0  0  0  0  0  0  0
   69.5789   41.4898   58.1563 C   0  0  0  0  0  0  0  0  0  0  0  0
   70.5304   42.1735   58.6462 O   0  0  0  0  0  0  0  0  0  0  0  0
   68.7487   42.1851   57.1715 C   0  0  0  0  0  0  0  0  0  0  0  0
   68.9750   43.4441   56.8148 C   0  0  0  0  0  0  0  0  0  0  0  0
   70.2095   39.5210   59.5250 C   0  0  0  0  0  0  0  0  0  0  0  0
   70.8198   38.2788   59.0784 C   0  0  0  0  0  0  0  0  0  0  0  0
   71.6620   38.2174   57.9934 C   0  0  0  0  0  0  0  0  0  0  0  0
   72.2291   37.0121   57.5937 C   0  0  0  0  0  0  0  0  0  0  0  0
   71.9575   35.8498   58.2807 C   0  0  0  0  0  0  0  0  0  0  0  0
   72.5167   34.6531   57.8890 F   0  0  0  0  0  0  0  0  0  0  0  0
   71.1223   35.8956   59.3600 C   0  0  0  0  0  0  0  0  0  0  0  0
   70.5721   37.0989   59.7376 C   0  0  0  0  0  0  0  0  0  0  0  0
   68.1959   44.1461   55.8689 N   0  0  0  0  0  0  0  0  0  0  0  0
   68.2276   45.5325   55.7843 N   0  0  0  0  0  0  0  0  0  0  0  0
   68.4404   46.1929   54.5339 C   0  0  0  0  0  0  0  0  0  0  0  0
   67.9918   45.6483   53.3500 C   0  0  0  0  0  0  0  0  0  0  0  0
   68.1829   46.2638   52.1322 C   0  0  0  0  0  0  0  0  0  0  0  0
   68.8531   47.4836   52.0834 C   0  0  0  0  0  0  0  0  0  0  0  0
   69.3022   48.0295   53.2617 C   0  0  0  0  0  0  0  0  0  0  0  0
   69.1038   47.3990   54.4873 C   0  0  0  0  0  0  0  0  0  0  0  0
  1  2  2  0
  2  3  1  0
  2  9  1  0
  3  4  1  0
  4  5  2  0
  4  6  1  0
  6 11  1  0
  6  7  1  0
 11 12  1  0
 12 13  2  0
 12 18  1  0
 13 14  1  0
 14 15  2  0
 15 16  1  0
 15 17  1  0
 17 18  2  0
  7  8  2  0
  7  9  1  0
  9 10  2  0
 10 19  1  0
 19 20  1  0
 20 21  1  0
 21 22  2  0
 21 26  1  0
 22 23  1  0
 23 24  2  0
 24 25  1  0
 25 26  2  0
M  END
>  <minimizedAffinity>  (86) 
-9.26818

$$$$
data/reference_output_2/data/smiles/151447.pdb
     RDKit          3D

 27 31  0  0  0  0  0  0  0  0999 V2000
   71.0543   46.0099   58.3091 C   0  0  0  0  0  0  0  0  0  0  0  0
   70.1736   46.5997   57.4355 C   0  0  0  0  0  0  0  0  0  0  0  0
   69.9467   47.9638   57.3492 C   0  0  0  0  0  0  0  0  0  0  0  0
   70.6702   48.7482   58.2140 C   0  0  0  0  0  0  0  0  0  0  0  0
   71.5835   48.2173   59.1315 C   0  0  0  0  0  0  0  0  0  0  0  0
   71.7538   46.8514   59.1552 C   0  0  0  0  0  0  0  0  0  0  0  0
   72.6246   46.3046   60.0232 F   0  0  0  0  0  0  0  0  0  0  0  0
   73.3433   44.2460   57.3076 O   0  0  0  0  0  0  0  0  0  0  0  0
   72.4342   43.8272   58.0554 C   0  0  0  0  0  0  0  0  0  0  0  0
   72.2616   42.5852   58.7769 C   0  0  2  0  0  0  0  0  0  0  0  0
   71.7022   41.3301   58.5085 C   0  0  0  0  0  0  0  0  0  0  0  0
   70.8179   42.3528   58.1586 C   0  0  1  0  0  0  0  0  0  0  0  0
   70.3066   43.5748   58.7783 C   0  0  0  0  0  0  0  0  0  0  0  0
   69.3026   43.7844   59.4963 O   0  0  0  0  0  0  0  0  0  0  0  0
   71.2661   44.5885   58.3694 N   0  0  0  0  0  0  0  0  0  0  0  0
   68.9377   48.5054   56.3781 C   0  0  0  0  0  0  0  0  0  0  0  0
   69.3912   48.4589   54.9857 C   0  0  0  0  0  0  0  0  0  0  0  0
   70.3432   49.3723   54.6164 N   0  0  0  0  0  0  0  0  0  0  0  0
   70.7581   49.4156   53.3760 N   0  0  0  0  0  0  0  0  0  0  0  0
   70.3140   48.6128   52.4051 C   0  0  0  0  0  0  0  0  0  0  0  0
   70.7245   48.6661   51.2076 O   0  0  0  0  0  0  0  0  0  0  0  0
   69.3570   47.6724   52.7183 C   0  0  0  0  0  0  0  0  0  0  0  0
   68.8677   46.8030   51.7534 C   0  0  0  0  0  0  0  0  0  0  0  0
   67.9245   45.8848   52.1485 C   0  0  0  0  0  0  0  0  0  0  0  0
   67.4729   45.8175   53.4500 C   0  0  0  0  0  0  0  0  0  0  0  0
   67.9510   46.6692   54.3985 C   0  0  0  0  0  0  0  0  0  0  0  0
   68.9112   47.6207   54.0341 C   0  0  0  0  0  0  0  0  0  0  0  0
  8  9  2  0
  9 10  1  0
  9 15  1  0
 10 11  1  6
 10 12  1  0
 12 11  1  1
 12 13  1  0
 13 14  2  0
 13 15  1  0
 15  1  1  0
  1  2  2  0
  1  6  1  0
  2  3  1  0
  3 16  1  0
  3  4  2  0
 16 17  1  0
 17 18  2  0
 17 27  1  0
 18 19  1  0
 19 20  1  0
 20 21  2  0
 20 22  1  0
 22 23  1  0
 22 27  2  0
 23 24  2  0
 24 25  1  0
 25 26  2  0
 26 27  1  0
  4  5  1  0
  5  6  2  0
  6  7  1  0
M  END
>  <minimizedAffinity>  (87) 
-9.26310

$$$$
data/200k_reference_output/data/smiles/73060.pdb
     RDKit          3D

 28 31  0  0  0  0  0  0  0  0999 V2000
   71.0817   45.8764   58.4451 C   0  0  0  0  0  0  0  0  0  0  0  0
   72.2364   46.5592   58.8648 C   0  0  0  0  0  0  0  0  0  0  0  0
   72.4833   47.8718   58.5364 C   0  0  0  0  0  0  0  0  0  0  0  0
   71.5563   48.5362   57.7668 C   0  0  0  0  0  0  0  0  0  0  0  0
   70.3884   47.9303   57.3119 C   0  0  0  0  0  0  0  0  0  0  0  0
   70.2090   46.6120   57.6801 C   0  0  0  0  0  0  0  0  0  0  0  0
   71.9055   43.7534   58.9184 O   0  0  0  0  0  0  0  0  0  0  0  0
   70.8999   44.4922   58.8320 C   0  0  0  0  0  0  0  0  0  0  0  0
   69.6370   43.9565   59.1142 N   0  0  0  0  0  0  0  0  0  0  0  0
   69.3926   42.5571   59.5157 C   0  0  0  0  0  0  0  0  0  0  0  0
   68.8215   41.8480   58.3668 C   0  0  0  0  0  0  0  0  0  0  0  0
   68.7358   40.4492   58.3481 C   0  0  0  0  0  0  0  0  0  0  0  0
   68.1895   39.7957   57.2765 C   0  0  0  0  0  0  0  0  0  0  0  0
   67.7142   40.4549   56.2062 N   0  0  0  0  0  0  0  0  0  0  0  0
   67.7704   41.7857   56.1717 C   0  0  0  0  0  0  0  0  0  0  0  0
   68.3211   42.4787   57.2480 C   0  0  0  0  0  0  0  0  0  0  0  0
   69.4169   48.6855   56.4659 C   0  0  0  0  0  0  0  0  0  0  0  0
   69.6693   48.5791   55.0206 C   0  0  0  0  0  0  0  0  0  0  0  0
   70.6780   49.3550   54.5191 N   0  0  0  0  0  0  0  0  0  0  0  0
   71.0090   49.3650   53.2413 N   0  0  0  0  0  0  0  0  0  0  0  0
   70.3608   48.6014   52.3503 C   0  0  0  0  0  0  0  0  0  0  0  0
   70.6576   48.5908   51.1150 O   0  0  0  0  0  0  0  0  0  0  0  0
   69.3479   47.8130   52.8093 C   0  0  0  0  0  0  0  0  0  0  0  0
   68.9898   47.7889   54.1356 C   0  0  0  0  0  0  0  0  0  0  0  0
   67.9099   46.9358   54.6143 C   0  0  0  0  0  0  0  0  0  0  0  0
   67.6128   45.7377   53.7807 C   0  0  0  0  0  0  0  0  0  0  0  0
   68.3427   45.6475   52.4904 C   0  0  0  0  0  0  0  0  0  0  0  0
   68.6173   46.9567   51.8281 C   0  0  0  0  0  0  0  0  0  0  0  0
  7  8  2  0
  8  9  1  0
  8  1  1  0
  9 10  1  0
 10 11  1  0
 11 12  2  0
 11 16  1  0
 12 13  1  0
 13 14  2  0
 14 15  1  0
 15 16  2  0
  1  2  2  0
  1  6  1  0
  2  3  1  0
  3  4  2  0
  4  5  1  0
  5 17  1  0
  5  6  2  0
 17 18  1  0
 18 19  2  0
 18 24  1  0
 19 20  1  0
 20 21  1  0
 21 22  2  0
 21 23  1  0
 23 24  2  0
 23 28  1  0
 24 25  1  0
 25 26  1  0
 26 27  1  0
 27 28  1  0
M  END
>  <minimizedAffinity>  (88) 
-9.25846

$$$$
data/reference_output_2/data/smiles/92412.pdb
     RDKit          3D

 28 31  0  0  0  0  0  0  0  0999 V2000
   71.1559   45.7617   58.2695 C   0  0  0  0  0  0  0  0  0  0  0  0
   71.8819   46.5926   59.0860 C   0  0  0  0  0  0  0  0  0  0  0  0
   71.6556   47.9374   59.1821 C   0  0  0  0  0  0  0  0  0  0  0  0
   70.6356   48.4784   58.4082 C   0  0  0  0  0  0  0  0  0  0  0  0
   69.8782   47.7068   57.5778 C   0  0  0  0  0  0  0  0  0  0  0  0
   70.1562   46.3422   57.5229 C   0  0  0  0  0  0  0  0  0  0  0  0
   70.5370   43.4478   58.8324 C   0  0  0  0  0  0  0  0  0  0  0  0
   69.5643   43.8429   59.5063 O   0  0  0  0  0  0  0  0  0  0  0  0
   71.3945   44.3660   58.1727 N   0  0  0  0  0  0  0  0  0  0  0  0
   71.6252   37.8418   58.3432 C   0  0  0  0  0  0  0  0  0  0  0  0
   71.3544   39.3099   58.4728 C   0  0  0  0  0  0  0  0  0  0  0  0
   70.0615   39.7828   58.5270 C   0  0  0  0  0  0  0  0  0  0  0  0
   69.8205   41.1088   58.6432 N   0  0  0  0  0  0  0  0  0  0  0  0
   70.8178   42.0036   58.7071 C   0  0  0  0  0  0  0  0  0  0  0  0
   72.1104   41.5377   58.6524 C   0  0  0  0  0  0  0  0  0  0  0  0
   72.3502   40.2090   58.5367 N   0  0  0  0  0  0  0  0  0  0  0  0
   68.7752   48.2469   56.7468 C   0  0  0  0  0  0  0  0  0  0  0  0
   68.5374   47.3612   55.6029 C   0  0  0  0  0  0  0  0  0  0  0  0
   68.0370   46.1060   55.8196 N   0  0  0  0  0  0  0  0  0  0  0  0
   67.7659   45.2821   54.8268 N   0  0  0  0  0  0  0  0  0  0  0  0
   67.9595   45.6152   53.5384 C   0  0  0  0  0  0  0  0  0  0  0  0
   67.6959   44.8191   52.6009 O   0  0  0  0  0  0  0  0  0  0  0  0
   68.4615   46.8650   53.2485 C   0  0  0  0  0  0  0  0  0  0  0  0
   68.7445   47.7246   54.3176 C   0  0  0  0  0  0  0  0  0  0  0  0
   69.3197   49.0387   53.9757 C   0  0  0  0  0  0  0  0  0  0  0  0
   70.4337   48.7419   52.9627 C   0  0  0  0  0  0  0  0  0  0  0  0
   69.9498   48.0674   51.7318 C   0  0  0  0  0  0  0  0  0  0  0  0
   68.6784   47.3078   51.8616 C   0  0  0  0  0  0  0  0  0  0  0  0
 10 11  1  0
 11 12  2  0
 11 16  1  0
 12 13  1  0
 13 14  2  0
 14  7  1  0
 14 15  1  0
  7  8  2  0
  7  9  1  0
  9  1  1  0
  1  2  2  0
  1  6  1  0
  2  3  1  0
  3  4  2  0
  4  5  1  0
  5 17  1  0
  5  6  2  0
 17 18  1  0
 18 19  2  0
 18 24  1  0
 19 20  1  0
 20 21  1  0
 21 22  2  0
 21 23  1  0
 23 24  2  0
 23 28  1  0
 24 25  1  0
 25 26  1  0
 26 27  1  0
 27 28  1  0
 15 16  2  0
M  END
>  <minimizedAffinity>  (89) 
-9.25721

$$$$
data/reference_output_2/data/smiles/170402.pdb
     RDKit          3D

 28 31  0  0  0  0  0  0  0  0999 V2000
   70.3626   40.5232   58.1725 C   0  0  0  0  0  0  0  0  0  0  0  0
   71.3824   41.4487   58.1239 C   0  0  0  0  0  0  0  0  0  0  0  0
   71.1367   42.7673   57.7874 C   0  0  0  0  0  0  0  0  0  0  0  0
   69.8743   43.2294   57.4844 C   0  0  0  0  0  0  0  0  0  0  0  0
   68.8513   42.3137   57.5296 C   0  0  0  0  0  0  0  0  0  0  0  0
   69.1025   40.9893   57.8688 C   0  0  0  0  0  0  0  0  0  0  0  0
   72.1128   35.9430   58.2459 C   0  0  0  0  0  0  0  0  0  0  0  0
   71.9044   34.7894   58.9924 C   0  0  0  0  0  0  0  0  0  0  0  0
   70.9722   34.8357   60.0302 C   0  0  0  0  0  0  0  0  0  0  0  0
   70.2997   36.0089   60.2709 C   0  0  0  0  0  0  0  0  0  0  0  0
   70.5233   37.1441   59.5126 C   0  0  0  0  0  0  0  0  0  0  0  0
   70.0227   38.4331   59.5018 C   0  0  0  0  0  0  0  0  0  0  0  0
   70.5998   39.1548   58.5235 N   0  0  0  0  0  0  0  0  0  0  0  0
   71.4392   38.3598   57.9292 N   0  0  0  0  0  0  0  0  0  0  0  0
   71.4461   37.1248   58.4761 C   0  0  0  0  0  0  0  0  0  0  0  0
   72.6810   35.8878   55.8045 N   0  0  0  0  0  0  0  0  0  0  0  0
   73.0835   35.8962   57.1650 C   0  0  0  0  0  0  0  0  0  0  0  0
   74.3162   35.8618   57.4444 O   0  0  0  0  0  0  0  0  0  0  0  0
   69.6898   44.6507   57.1350 C   0  0  0  0  0  0  0  0  0  0  0  0
   70.3754   45.5383   57.7450 O   0  0  0  0  0  0  0  0  0  0  0  0
   68.7973   45.0996   56.1643 N   0  0  0  0  0  0  0  0  0  0  0  0
   68.5683   46.4719   55.7712 C   0  0  0  0  0  0  0  0  0  0  0  0
   68.4769   46.5182   54.3012 C   0  0  0  0  0  0  0  0  0  0  0  0
   67.7162   45.5833   53.6171 C   0  0  0  0  0  0  0  0  0  0  0  0
   67.5935   45.5857   52.2446 C   0  0  0  0  0  0  0  0  0  0  0  0
   68.2378   46.5373   51.5223 N   0  0  0  0  0  0  0  0  0  0  0  0
   68.9820   47.4612   52.1330 C   0  0  0  0  0  0  0  0  0  0  0  0
   69.1080   47.4594   53.5265 C   0  0  0  0  0  0  0  0  0  0  0  0
 16 17  1  0
 17 18  2  0
 17  7  1  0
  7  8  2  0
  7 15  1  0
  8  9  1  0
  9 10  2  0
 10 11  1  0
 11 12  2  0
 11 15  1  0
 12 13  1  0
 13  1  1  0
 13 14  1  0
  1  2  2  0
  1  6  1  0
  2  3  1  0
  3  4  2  0
  4 19  1  0
  4  5  1  0
 19 20  2  0
 19 21  1  0
 21 22  1  0
 22 23  1  0
 23 24  2  0
 23 28  1  0
 24 25  1  0
 25 26  2  0
 26 27  1  0
 27 28  2  0
  5  6  2  0
 14 15  2  0
M  END
>  <minimizedAffinity>  (90) 
-9.25375

$$$$
data/200k_reference_output/data/smiles/71661.pdb
     RDKit          3D

 28 31  0  0  0  0  0  0  0  0999 V2000
   71.2214   50.4838   54.3512 S   0  0  0  0  0  0  0  0  0  0  0  0
   72.6939   50.1789   54.1299 O   0  0  0  0  0  0  0  0  0  0  0  0
   70.9474   51.8251   53.7357 O   0  0  0  0  0  0  0  0  0  0  0  0
   66.7275   44.4607   51.6485 O   0  0  0  0  0  0  0  0  0  0  0  0
   67.3648   45.3719   52.2470 C   0  0  0  0  0  0  0  0  0  0  0  0
   67.2294   45.5510   53.5760 N   0  0  0  0  0  0  0  0  0  0  0  0
   67.9108   46.5258   54.2169 C   0  0  0  0  0  0  0  0  0  0  0  0
   67.7628   46.6687   55.4594 O   0  0  0  0  0  0  0  0  0  0  0  0
   68.7702   47.3719   53.5401 C   0  0  0  0  0  0  0  0  0  0  0  0
   69.4770   48.3740   54.1695 C   0  0  0  0  0  0  0  0  0  0  0  0
   70.3452   49.2296   53.4887 C   0  0  0  0  0  0  0  0  0  0  0  0
   70.4572   49.0148   52.1345 C   0  0  0  0  0  0  0  0  0  0  0  0
   69.7455   48.0042   51.4902 C   0  0  0  0  0  0  0  0  0  0  0  0
   68.8933   47.1699   52.1802 C   0  0  0  0  0  0  0  0  0  0  0  0
   68.1990   46.1890   51.5733 N   0  0  0  0  0  0  0  0  0  0  0  0
   70.9003   50.4596   56.0429 N   0  0  0  0  0  0  0  0  0  0  0  0
   69.5866   50.5086   56.5746 C   0  0  0  0  0  0  0  0  0  0  0  0
   68.6996   51.4950   56.1356 C   0  0  0  0  0  0  0  0  0  0  0  0
   67.4206   51.5850   56.6413 C   0  0  0  0  0  0  0  0  0  0  0  0
   67.0487   50.6651   57.5983 C   0  0  0  0  0  0  0  0  0  0  0  0
   67.9219   49.6893   58.0344 C   0  0  0  0  0  0  0  0  0  0  0  0
   69.2044   49.5904   57.5333 C   0  0  0  0  0  0  0  0  0  0  0  0
   70.1115   48.5309   58.0132 C   0  0  0  0  0  0  0  0  0  0  0  0
   71.1002   48.8561   58.9387 C   0  0  0  0  0  0  0  0  0  0  0  0
   71.9673   47.8965   59.4197 C   0  0  0  0  0  0  0  0  0  0  0  0
   71.8652   46.5940   58.9872 C   0  0  0  0  0  0  0  0  0  0  0  0
   70.8919   46.2440   58.0690 C   0  0  0  0  0  0  0  0  0  0  0  0
   70.0352   47.2318   57.6035 C   0  0  0  0  0  0  0  0  0  0  0  0
  4  5  2  0
  5  6  1  0
  5 15  1  0
  6  7  1  0
  7  8  2  0
  7  9  1  0
  9 10  1  0
  9 14  2  0
 10 11  2  0
 11  1  1  0
 11 12  1  0
  1  2  2  0
  1  3  2  0
  1 16  1  0
 16 17  1  0
 17 18  2  0
 17 22  1  0
 18 19  1  0
 19 20  2  0
 20 21  1  0
 21 22  2  0
 22 23  1  0
 23 24  2  0
 23 28  1  0
 24 25  1  0
 25 26  2  0
 26 27  1  0
 27 28  2  0
 12 13  2  0
 13 14  1  0
 14 15  1  0
M  END
>  <minimizedAffinity>  (91) 
-9.25143

$$$$
data/200k_reference_output/data/smiles/87045.pdb
     RDKit          3D

 28 30  0  0  0  0  0  0  0  0999 V2000
   68.2320   46.1739   54.0457 C   0  0  0  0  0  0  0  0  0  0  0  0
   68.1850   45.9820   52.6482 C   0  0  0  0  0  0  0  0  0  0  0  0
   68.7445   46.8601   51.7589 C   0  0  0  0  0  0  0  0  0  0  0  0
   69.3843   47.9846   52.2175 C   0  0  0  0  0  0  0  0  0  0  0  0
   69.4636   48.2306   53.5744 C   0  0  0  0  0  0  0  0  0  0  0  0
   68.8848   47.3162   54.4352 C   0  0  0  0  0  0  0  0  0  0  0  0
   70.1499   49.4332   54.0231 C   0  0  0  0  0  0  0  0  0  0  0  0
   71.3441   49.6207   53.6042 O   0  0  0  0  0  0  0  0  0  0  0  0
   69.5402   50.3770   54.8908 N   0  0  0  0  0  0  0  0  0  0  0  0
   70.3235   51.5304   55.2651 C   0  0  2  0  0  0  0  0  0  0  0  0
   70.9984   51.3419   56.6217 C   0  0  0  0  0  0  0  0  0  0  0  0
   71.3921   52.7689   56.9466 C   0  0  0  0  0  0  0  0  0  0  0  0
   70.5176   53.6703   56.1392 C   0  0  0  0  0  0  0  0  0  0  0  0
   69.4654   52.7378   55.5772 C   0  0  2  0  0  0  0  0  0  0  0  0
   68.6060   52.3931   56.6131 O   0  0  0  0  0  0  0  0  0  0  0  0
   67.6413   45.2337   54.8275 O   0  0  0  0  0  0  0  0  0  0  0  0
   68.3782   42.2246   56.7151 C   0  0  0  0  0  0  0  0  0  0  0  0
   67.8203   43.1011   55.8293 C   0  0  0  0  0  0  0  0  0  0  0  0
   68.2638   44.4441   55.7444 C   0  0  0  0  0  0  0  0  0  0  0  0
   69.2495   44.7797   56.5810 N   0  0  0  0  0  0  0  0  0  0  0  0
   69.8351   43.9668   57.4704 C   0  0  0  0  0  0  0  0  0  0  0  0
   69.3877   42.6609   57.5370 C   0  0  0  0  0  0  0  0  0  0  0  0
   70.9329   44.4330   58.3665 C   0  0  0  0  0  0  0  0  0  0  0  0
   72.1637   44.1475   57.8321 F   0  0  0  0  0  0  0  0  0  0  0  0
   70.8099   45.8025   58.4873 F   0  0  0  0  0  0  0  0  0  0  0  0
   70.7978   43.8502   59.6333 F   0  0  0  0  0  0  0  0  0  0  0  0
   67.5843   40.3412   55.4570 N   0  0  0  0  0  0  0  0  0  0  0  0
   67.8836   40.7979   56.7825 C   0  0  0  0  0  0  0  0  0  0  0  0
 27 28  1  0
 28 17  1  0
 17 18  2  0
 17 22  1  0
 18 19  1  0
 19 16  1  0
 19 20  2  0
 16  1  1  0
  1  2  2  0
  1  6  1  0
  2  3  1  0
  3  4  2  0
  4  5  1  0
  5  7  1  0
  5  6  2  0
  7  8  2  0
  7  9  1  0
 10  9  1  1
 10 11  1  0
 10 14  1  0
 11 12  1  0
 12 13  1  0
 13 14  1  0
 14 15  1  1
 20 21  1  0
 21 23  1  0
 21 22  2  0
 23 24  1  0
 23 25  1  0
 23 26  1  0
M  CHG  1  27   1
M  END
>  <minimizedAffinity>  (92) 
-9.25091

$$$$
data/reference_output_2/data/smiles/199085.pdb
     RDKit          3D

 29 32  0  0  0  0  0  0  0  0999 V2000
   70.7182   45.7078   58.1471 C   0  0  0  0  0  0  0  0  0  0  0  0
   71.4910   46.2972   59.1429 C   0  0  0  0  0  0  0  0  0  0  0  0
   71.5403   47.6718   59.1463 C   0  0  0  0  0  0  0  0  0  0  0  0
   70.8529   48.3942   58.2053 C   0  0  0  0  0  0  0  0  0  0  0  0
   70.0759   47.7993   57.2031 C   0  0  0  0  0  0  0  0  0  0  0  0
   70.0302   46.4387   57.2028 C   0  0  0  0  0  0  0  0  0  0  0  0
   72.5063   41.5085   59.0811 C   0  0  1  0  0  0  0  0  0  0  0  0
   73.9296   41.7752   58.6728 C   0  0  0  0  0  0  0  0  0  0  0  0
   74.2225   43.1605   58.2430 C   0  0  0  0  0  0  0  0  0  0  0  0
   73.1092   43.9473   57.6519 C   0  0  0  0  0  0  0  0  0  0  0  0
   71.8059   43.4413   57.9102 N   0  0  0  0  0  0  0  0  0  0  0  0
   70.6682   44.2476   58.1476 C   0  0  0  0  0  0  0  0  0  0  0  0
   69.5385   43.7449   58.3738 O   0  0  0  0  0  0  0  0  0  0  0  0
   71.6300   42.0087   57.9283 C   0  0  0  0  0  0  0  0  0  0  0  0
   72.6843   39.3818   60.4150 N   0  0  0  0  0  0  0  0  0  0  0  0
   72.2848   40.0622   59.2413 C   0  0  0  0  0  0  0  0  0  0  0  0
   71.7325   39.4027   58.3330 O   0  0  0  0  0  0  0  0  0  0  0  0
   69.4281   48.7219   56.2772 C   0  0  0  0  0  0  0  0  0  0  0  0
   69.7370   48.6046   54.8676 C   0  0  0  0  0  0  0  0  0  0  0  0
   70.7765   49.2441   54.2814 N   0  0  0  0  0  0  0  0  0  0  0  0
   71.0379   49.1107   52.9921 N   0  0  0  0  0  0  0  0  0  0  0  0
   70.3024   48.3410   52.1775 C   0  0  0  0  0  0  0  0  0  0  0  0
   70.5504   48.2085   50.9405 O   0  0  0  0  0  0  0  0  0  0  0  0
   69.2311   47.6613   52.7018 C   0  0  0  0  0  0  0  0  0  0  0  0
   68.9720   47.8105   54.0480 C   0  0  0  0  0  0  0  0  0  0  0  0
   67.8071   47.0947   54.6068 C   0  0  0  0  0  0  0  0  0  0  0  0
   67.8460   45.6760   54.0904 C   0  0  0  0  0  0  0  0  0  0  0  0
   68.0399   45.5427   52.6196 C   0  0  0  0  0  0  0  0  0  0  0  0
   68.3377   46.8032   51.8894 C   0  0  0  0  0  0  0  0  0  0  0  0
 15 16  1  0
 16 17  2  0
  7 16  1  6
  7  8  1  0
  7 14  1  0
  8  9  1  0
  9 10  1  0
 10 11  1  0
 11 12  1  0
 11 14  1  0
 12 13  2  0
 12  1  1  0
  1  2  2  0
  1  6  1  0
  2  3  1  0
  3  4  2  0
  4  5  1  0
  5 18  1  0
  5  6  2  0
 18 19  1  0
 19 20  2  0
 19 25  1  0
 20 21  1  0
 21 22  1  0
 22 23  2  0
 22 24  1  0
 24 25  2  0
 24 29  1  0
 25 26  1  0
 26 27  1  0
 27 28  1  0
 28 29  1  0
M  END
>  <minimizedAffinity>  (93) 
-9.24381

$$$$
data/200k_reference_output/data/smiles/17221.pdb
     RDKit          3D

 25 27  0  0  0  0  0  0  0  0999 V2000
   70.3839   41.6183   58.1021 C   0  0  0  0  0  0  0  0  0  0  0  0
   70.9024   40.5393   58.7887 C   0  0  0  0  0  0  0  0  0  0  0  0
   70.2602   39.3256   58.7931 C   0  0  0  0  0  0  0  0  0  0  0  0
   69.0801   39.1951   58.0965 C   0  0  0  0  0  0  0  0  0  0  0  0
   68.5606   40.2733   57.4103 C   0  0  0  0  0  0  0  0  0  0  0  0
   69.1856   41.5093   57.3887 C   0  0  0  0  0  0  0  0  0  0  0  0
   68.4023   42.4471   56.5956 C   0  0  0  0  0  0  0  0  0  0  0  0
   68.6543   43.6897   56.3530 N   0  0  0  0  0  0  0  0  0  0  0  0
   67.2414   41.7052   56.1213 C   0  0  0  0  0  0  0  0  0  0  0  0
   66.3335   42.1755   55.4045 O   0  0  0  0  0  0  0  0  0  0  0  0
   67.3604   40.3905   56.6292 N   0  0  0  0  0  0  0  0  0  0  0  0
   72.5658   42.7777   57.7024 C   0  0  0  0  0  0  0  0  0  0  0  0
   71.1089   42.9173   58.0879 C   0  0  0  0  0  0  0  0  0  0  0  0
   70.8469   43.7998   59.2571 C   0  0  0  0  0  0  0  0  0  0  0  0
   67.8196   44.4914   55.5720 N   0  0  0  0  0  0  0  0  0  0  0  0
   68.3215   45.6685   54.9513 C   0  0  0  0  0  0  0  0  0  0  0  0
   68.9091   46.6877   55.6691 C   0  0  0  0  0  0  0  0  0  0  0  0
   69.3922   47.8250   55.0561 C   0  0  0  0  0  0  0  0  0  0  0  0
   69.3085   47.9896   53.6937 C   0  0  0  0  0  0  0  0  0  0  0  0
   68.7235   46.9814   52.9558 C   0  0  0  0  0  0  0  0  0  0  0  0
   68.2423   45.8477   53.5757 C   0  0  0  0  0  0  0  0  0  0  0  0
   69.9326   49.4509   52.9352 S   0  0  0  0  0  0  0  0  0  0  0  0
   71.5235   49.7635   53.5269 N   0  0  0  0  0  0  0  0  0  0  0  0
   70.0314   49.2182   51.4546 O   0  0  0  0  0  0  0  0  0  0  0  0
   69.0115   50.5911   53.2564 O   0  0  0  0  0  0  0  0  0  0  0  0
 12 13  1  0
 13 14  1  0
 13  1  1  0
  1  2  2  0
  1  6  1  0
  2  3  1  0
  3  4  2  0
  4  5  1  0
  5  6  2  0
  5 11  1  0
  6  7  1  0
  7  8  2  0
  7  9  1  0
  8 15  1  0
 15 16  1  0
 16 17  2  0
 16 21  1  0
 17 18  1  0
 18 19  2  0
 19 22  1  0
 19 20  1  0
 22 23  1  0
 22 24  2  0
 22 25  2  0
 20 21  2  0
  9 10  2  0
  9 11  1  0
M  END
>  <minimizedAffinity>  (94) 
-9.23854

$$$$
data/reference_output_2/data/smiles/122678.pdb
     RDKit          3D

 29 31  0  0  0  0  0  0  0  0999 V2000
   67.5913   42.3869   56.6557 N   0  0  0  0  0  0  0  0  0  0  0  0
   67.7600   40.9778   56.6250 C   0  0  0  0  0  0  0  0  0  0  0  0
   67.6566   40.4289   55.4994 O   0  0  0  0  0  0  0  0  0  0  0  0
   67.8071   45.1597   54.1599 N   0  0  0  0  0  0  0  0  0  0  0  0
   68.0011   44.3523   55.2988 C   0  0  0  0  0  0  0  0  0  0  0  0
   68.7768   44.7032   56.1873 O   0  0  0  0  0  0  0  0  0  0  0  0
   67.3259   43.1039   55.4930 N   0  0  0  0  0  0  0  0  0  0  0  0
   69.6686   48.8136   53.1446 C   0  0  0  0  0  0  0  0  0  0  0  0
   69.4552   47.8189   52.2187 C   0  0  0  0  0  0  0  0  0  0  0  0
   68.8442   46.6395   52.5878 C   0  0  0  0  0  0  0  0  0  0  0  0
   68.4198   46.3935   53.8807 C   0  0  0  0  0  0  0  0  0  0  0  0
   68.6373   47.3879   54.7889 C   0  0  0  0  0  0  0  0  0  0  0  0
   69.2555   48.5893   54.4340 C   0  0  0  0  0  0  0  0  0  0  0  0
   69.9749   51.1755   53.5303 C   0  0  0  0  0  0  0  0  0  0  0  0
   70.2950   50.0236   52.7718 O   0  0  0  0  0  0  0  0  0  0  0  0
   68.0441   40.1405   57.8049 C   0  0  0  0  0  0  0  0  0  0  0  0
   67.7772   38.7910   57.5779 O   0  0  0  0  0  0  0  0  0  0  0  0
   67.3049   40.5169   59.0165 C   0  0  0  0  0  0  0  0  0  0  0  0
   66.4952   39.5838   59.6251 C   0  0  0  0  0  0  0  0  0  0  0  0
   65.7695   39.9037   60.7805 C   0  0  0  0  0  0  0  0  0  0  0  0
   65.8649   41.1600   61.3123 C   0  0  0  0  0  0  0  0  0  0  0  0
   66.6614   42.0845   60.7171 C   0  0  0  0  0  0  0  0  0  0  0  0
   67.3761   41.7614   59.5750 C   0  0  0  0  0  0  0  0  0  0  0  0
   69.4831   40.2750   58.1043 C   0  0  0  0  0  0  0  0  0  0  0  0
   70.1831   39.1977   58.5857 C   0  0  0  0  0  0  0  0  0  0  0  0
   71.5502   39.3188   58.8734 C   0  0  0  0  0  0  0  0  0  0  0  0
   72.2028   40.4946   58.6829 C   0  0  0  0  0  0  0  0  0  0  0  0
   71.5089   41.5852   58.1989 C   0  0  0  0  0  0  0  0  0  0  0  0
   70.1583   41.4584   57.9165 C   0  0  0  0  0  0  0  0  0  0  0  0
 14 15  1  0
 15  8  1  0
  8  9  2  0
  8 13  1  0
  9 10  1  0
 10 11  2  0
 11  4  1  0
 11 12  1  0
  4  5  1  0
  5  6  2  0
  5  7  1  0
  7  1  1  0
  1  2  1  0
  2  3  2  0
  2 16  1  0
 16 17  1  0
 16 18  1  0
 16 24  1  0
 18 19  2  0
 18 23  1  0
 19 20  1  0
 20 21  2  0
 21 22  1  0
 22 23  2  0
 24 25  2  0
 24 29  1  0
 25 26  1  0
 26 27  2  0
 27 28  1  0
 28 29  2  0
 12 13  2  0
M  END
>  <minimizedAffinity>  (95) 
-9.23504

$$$$
data/reference_output_2/data/smiles/160226.pdb
     RDKit          3D

 27 30  0  0  0  0  0  0  0  0999 V2000
   73.8145   50.8979   55.4717 C   0  0  0  0  0  0  0  0  0  0  0  0
   72.4828   50.5663   55.4843 C   0  0  0  0  0  0  0  0  0  0  0  0
   71.4803   51.3674   54.9348 C   0  0  0  0  0  0  0  0  0  0  0  0
   71.8887   52.5370   54.3607 C   0  0  0  0  0  0  0  0  0  0  0  0
   73.2471   52.8803   54.3466 C   0  0  0  0  0  0  0  0  0  0  0  0
   74.1418   52.0632   54.8915 N   0  0  0  0  0  0  0  0  0  0  0  0
   74.4237   48.9574   56.6178 O   0  0  0  0  0  0  0  0  0  0  0  0
   74.8101   50.0088   56.0550 C   0  0  0  0  0  0  0  0  0  0  0  0
   76.1896   50.2475   56.0303 N   0  0  0  0  0  0  0  0  0  0  0  0
   77.2201   49.3935   56.5856 C   0  0  0  0  0  0  0  0  0  0  0  0
   77.6878   49.7850   57.9398 C   0  0  0  0  0  0  0  0  0  0  0  0
   78.7705   50.8148   57.9800 C   0  0  0  0  0  0  0  0  0  0  0  0
   79.3872   51.1039   56.6489 C   0  0  0  0  0  0  0  0  0  0  0  0
   79.6181   49.8038   55.9562 C   0  0  0  0  0  0  0  0  0  0  0  0
   78.2828   49.2270   55.5596 C   0  0  0  0  0  0  0  0  0  0  0  0
   70.0946   50.8719   54.9856 C   0  0  0  0  0  0  0  0  0  0  0  0
   69.8728   49.7939   54.0045 C   0  0  0  0  0  0  0  0  0  0  0  0
   70.4016   50.0129   52.7605 N   0  0  0  0  0  0  0  0  0  0  0  0
   70.3501   49.1571   51.7822 N   0  0  0  0  0  0  0  0  0  0  0  0
   69.7584   47.9786   51.9483 C   0  0  0  0  0  0  0  0  0  0  0  0
   69.7059   47.1513   51.0127 O   0  0  0  0  0  0  0  0  0  0  0  0
   69.1908   47.6546   53.1629 C   0  0  0  0  0  0  0  0  0  0  0  0
   69.2620   48.5986   54.1972 C   0  0  0  0  0  0  0  0  0  0  0  0
   68.6215   48.2916   55.4896 C   0  0  0  0  0  0  0  0  0  0  0  0
   68.7653   46.8215   55.8258 C   0  0  0  0  0  0  0  0  0  0  0  0
   68.2562   45.9413   54.7268 C   0  0  0  0  0  0  0  0  0  0  0  0
   68.5336   46.3552   53.3397 C   0  0  0  0  0  0  0  0  0  0  0  0
  7  8  2  0
  8  9  1  0
  8  1  1  0
  9 10  1  0
 10 11  1  0
 10 15  1  0
 11 12  1  0
 12 13  1  0
 13 14  1  0
 14 15  1  0
  1  2  2  0
  1  6  1  0
  2  3  1  0
  3 16  1  0
  3  4  2  0
 16 17  1  0
 17 18  2  0
 17 23  1  0
 18 19  1  0
 19 20  1  0
 20 21  2  0
 20 22  1  0
 22 23  2  0
 22 27  1  0
 23 24  1  0
 24 25  1  0
 25 26  1  0
 26 27  1  0
  4  5  1  0
  5  6  2  0
M  END
>  <minimizedAffinity>  (96) 
-9.23397

$$$$
data/reference_output_2/data/smiles/99365.pdb
     RDKit          3D

 28 32  0  0  0  0  0  0  0  0999 V2000
   71.3060   46.8073   58.9295 C   0  0  0  0  0  0  0  0  0  0  0  0
   70.5186   47.6819   58.1852 C   0  0  0  0  0  0  0  0  0  0  0  0
   69.7178   47.2737   57.1530 C   0  0  0  0  0  0  0  0  0  0  0  0
   69.6737   45.9156   56.8082 C   0  0  0  0  0  0  0  0  0  0  0  0
   70.4508   45.0551   57.5408 C   0  0  0  0  0  0  0  0  0  0  0  0
   71.2537   45.4760   58.5804 C   0  0  0  0  0  0  0  0  0  0  0  0
   72.0160   44.5978   59.2930 F   0  0  0  0  0  0  0  0  0  0  0  0
   71.8173   47.0111   61.2346 O   0  0  0  0  0  0  0  0  0  0  0  0
   72.1389   47.2732   60.0295 C   0  0  0  0  0  0  0  0  0  0  0  0
   73.3199   48.0263   59.7407 N   0  0  0  0  0  0  0  0  0  0  0  0
   74.3897   48.6614   60.5021 C   0  0  0  0  0  0  0  0  0  0  0  0
   74.7438   49.4269   59.3098 C   0  0  0  0  0  0  0  0  0  0  0  0
   74.4819   50.8667   59.2065 C   0  0  0  0  0  0  0  0  0  0  0  0
   75.7800   51.0178   58.6653 O   0  0  0  0  0  0  0  0  0  0  0  0
   76.1475   49.6989   58.9609 C   0  0  0  0  0  0  0  0  0  0  0  0
   73.9524   48.4702   58.5144 C   0  0  0  0  0  0  0  0  0  0  0  0
   68.8396   48.1653   56.3467 C   0  0  0  0  0  0  0  0  0  0  0  0
   69.2953   48.3026   54.9405 C   0  0  0  0  0  0  0  0  0  0  0  0
   70.2612   49.1954   54.6206 N   0  0  0  0  0  0  0  0  0  0  0  0
   70.7665   49.3429   53.4191 N   0  0  0  0  0  0  0  0  0  0  0  0
   70.3277   48.5789   52.4127 C   0  0  0  0  0  0  0  0  0  0  0  0
   70.7811   48.6826   51.2506 O   0  0  0  0  0  0  0  0  0  0  0  0
   69.3402   47.6486   52.6812 C   0  0  0  0  0  0  0  0  0  0  0  0
   68.8448   46.8445   51.6615 C   0  0  0  0  0  0  0  0  0  0  0  0
   67.8532   45.9242   51.8986 C   0  0  0  0  0  0  0  0  0  0  0  0
   67.3286   45.7828   53.1670 C   0  0  0  0  0  0  0  0  0  0  0  0
   67.8038   46.5706   54.2015 C   0  0  0  0  0  0  0  0  0  0  0  0
   68.8023   47.4933   53.9584 C   0  0  0  0  0  0  0  0  0  0  0  0
  8  9  2  0
  9  1  1  0
  9 10  1  0
  1  2  2  0
  1  6  1  0
  2  3  1  0
  3 17  1  0
  3  4  2  0
 17 18  1  0
 18 19  2  0
 18 28  1  0
 19 20  1  0
 20 21  1  0
 21 22  2  0
 21 23  1  0
 23 24  1  0
 23 28  2  0
 24 25  2  0
 25 26  1  0
 26 27  2  0
 27 28  1  0
  4  5  1  0
  5  6  2  0
  6  7  1  0
 10 11  1  0
 10 16  1  0
 11 12  1  0
 12 13  1  0
 12 15  1  0
 12 16  1  0
 13 14  1  0
 14 15  1  0
M  END
>  <minimizedAffinity>  (97) 
-9.23371

$$$$
data/200k_reference_output/data/smiles/17715.pdb
     RDKit          3D

 26 29  0  0  0  0  0  0  0  0999 V2000
   68.7078   41.1324   58.3190 C   0  0  0  0  0  0  0  0  0  0  0  0
   68.4485   38.8430   57.8676 O   0  0  0  0  0  0  0  0  0  0  0  0
   69.2447   39.7491   58.2225 C   0  0  0  0  0  0  0  0  0  0  0  0
   70.5773   39.4149   58.5028 N   0  0  0  0  0  0  0  0  0  0  0  0
   71.0955   38.0835   58.4096 C   0  0  0  0  0  0  0  0  0  0  0  0
   70.7730   37.0975   59.2656 N   0  0  0  0  0  0  0  0  0  0  0  0
   71.4253   35.9528   58.9141 C   0  0  0  0  0  0  0  0  0  0  0  0
   71.4412   34.6822   59.4527 C   0  0  0  0  0  0  0  0  0  0  0  0
   72.2080   33.6880   58.8854 C   0  0  0  0  0  0  0  0  0  0  0  0
   72.9626   33.9750   57.7692 C   0  0  0  0  0  0  0  0  0  0  0  0
   72.9380   35.2496   57.2412 C   0  0  0  0  0  0  0  0  0  0  0  0
   72.1802   36.2570   57.7907 C   0  0  0  0  0  0  0  0  0  0  0  0
   71.9436   37.5513   57.5320 N   0  0  0  0  0  0  0  0  0  0  0  0
   67.7914   41.4739   57.1909 C   0  0  0  0  0  0  0  0  0  0  0  0
   68.2444   42.7260   56.5479 C   0  0  0  0  0  0  0  0  0  0  0  0
   69.3844   43.1693   56.8259 O   0  0  0  0  0  0  0  0  0  0  0  0
   67.4567   43.4633   55.6247 N   0  0  0  0  0  0  0  0  0  0  0  0
   67.9095   44.6686   55.0138 C   0  0  0  0  0  0  0  0  0  0  0  0
   68.3467   45.7844   55.6055 N   0  0  0  0  0  0  0  0  0  0  0  0
   68.6904   46.7160   54.6852 C   0  0  0  0  0  0  0  0  0  0  0  0
   69.1850   48.0030   54.7409 C   0  0  0  0  0  0  0  0  0  0  0  0
   69.4580   48.7572   53.6205 C   0  0  0  0  0  0  0  0  0  0  0  0
   69.2135   48.1685   52.3768 C   0  0  0  0  0  0  0  0  0  0  0  0
   68.7191   46.8811   52.3171 C   0  0  0  0  0  0  0  0  0  0  0  0
   68.4484   46.1318   53.4443 C   0  0  0  0  0  0  0  0  0  0  0  0
   67.9774   44.8963   53.6879 N   0  0  0  0  0  0  0  0  0  0  0  0
  2  3  2  0
  3  1  1  0
  3  4  1  0
  1 14  1  0
 14 15  1  0
 15 16  2  0
 15 17  1  0
 17 18  1  0
 18 19  2  0
 18 26  1  0
 19 20  1  0
 20 21  2  0
 20 25  1  0
 21 22  1  0
 22 23  2  0
 23 24  1  0
 24 25  2  0
 25 26  1  0
  4  5  1  0
  5  6  2  0
  5 13  1  0
  6  7  1  0
  7  8  2  0
  7 12  1  0
  8  9  1  0
  9 10  2  0
 10 11  1  0
 11 12  2  0
 12 13  1  0
M  CHG  2   6   1  19   1
M  END
>  <minimizedAffinity>  (98) 
-9.21431

$$$$
data/reference_output_2/data/smiles/145907.pdb
     RDKit          3D

 25 27  0  0  0  0  0  0  0  0999 V2000
   67.9164   42.0179   57.2672 C   0  0  0  0  0  0  0  0  0  0  0  0
   67.2579   42.4161   56.0986 C   0  0  0  0  0  0  0  0  0  0  0  0
   67.8118   43.5834   55.6293 C   0  0  0  0  0  0  0  0  0  0  0  0
   68.7876   43.8747   56.5119 N   0  0  0  0  0  0  0  0  0  0  0  0
   68.8496   42.9622   57.4670 N   0  0  0  0  0  0  0  0  0  0  0  0
   67.0763   38.5896   59.5750 C   0  0  0  0  0  0  0  0  0  0  0  0
   68.0141   38.5030   58.5597 C   0  0  0  0  0  0  0  0  0  0  0  0
   68.2626   39.6245   57.8283 C   0  0  0  0  0  0  0  0  0  0  0  0
   67.6273   40.8257   58.0520 C   0  0  0  0  0  0  0  0  0  0  0  0
   66.6924   40.8788   59.0783 C   0  0  0  0  0  0  0  0  0  0  0  0
   66.4079   39.7708   59.8448 C   0  0  0  0  0  0  0  0  0  0  0  0
   65.4986   39.7975   60.8545 F   0  0  0  0  0  0  0  0  0  0  0  0
   65.6578   36.6688   60.0049 C   0  0  0  0  0  0  0  0  0  0  0  0
   66.7967   37.4598   60.3448 O   0  0  0  0  0  0  0  0  0  0  0  0
   67.4275   44.3087   54.4701 N   0  0  0  0  0  0  0  0  0  0  0  0
   67.9998   45.5239   54.0490 C   0  0  0  0  0  0  0  0  0  0  0  0
   68.1078   45.8183   52.7162 C   0  0  0  0  0  0  0  0  0  0  0  0
   68.7046   47.0113   52.2853 C   0  0  0  0  0  0  0  0  0  0  0  0
   69.1961   47.9107   53.2029 C   0  0  0  0  0  0  0  0  0  0  0  0
   69.0888   47.6184   54.5453 C   0  0  0  0  0  0  0  0  0  0  0  0
   68.4896   46.4231   54.9604 C   0  0  0  0  0  0  0  0  0  0  0  0
   69.9657   49.4273   52.7053 S   0  0  0  0  0  0  0  0  0  0  0  0
   69.8321   49.6224   51.0167 N   0  0  0  0  0  0  0  0  0  0  0  0
   69.3638   50.5930   53.4422 O   0  0  0  0  0  0  0  0  0  0  0  0
   71.4288   49.3109   53.0501 O   0  0  0  0  0  0  0  0  0  0  0  0
 13 14  1  0
 14  6  1  0
  6  7  2  0
  6 11  1  0
  7  8  1  0
  8  9  2  0
  9  1  1  0
  9 10  1  0
  1  2  1  0
  1  5  2  0
  2  3  2  0
  3 15  1  0
  3  4  1  0
 15 16  1  0
 16 17  2  0
 16 21  1  0
 17 18  1  0
 18 19  2  0
 19 22  1  0
 19 20  1  0
 22 23  1  0
 22 24  2  0
 22 25  2  0
 20 21  2  0
  4  5  1  0
 10 11  2  0
 11 12  1  0
M  END
>  <minimizedAffinity>  (99) 
-9.21306

$$$$
data/200k_reference_output/data/smiles/1835.pdb
     RDKit          3D

 28 31  0  0  0  0  0  0  0  0999 V2000
   73.0387   47.0927   60.1083 C   0  0  0  0  0  0  0  0  0  0  0  0
   72.4757   48.2763   59.6713 C   0  0  0  0  0  0  0  0  0  0  0  0
   71.3721   48.3129   58.8438 C   0  0  0  0  0  0  0  0  0  0  0  0
   70.7679   47.1544   58.4034 C   0  0  0  0  0  0  0  0  0  0  0  0
   69.6732   46.8854   57.5851 C   0  0  0  0  0  0  0  0  0  0  0  0
   69.5984   45.5475   57.5443 N   0  0  0  0  0  0  0  0  0  0  0  0
   70.5617   45.0052   58.2743 N   0  0  0  0  0  0  0  0  0  0  0  0
   71.3224   45.9657   58.8336 C   0  0  0  0  0  0  0  0  0  0  0  0
   72.4285   45.9363   59.6631 C   0  0  0  0  0  0  0  0  0  0  0  0
   74.2004   47.5811   62.2779 C   0  0  0  0  0  0  0  0  0  0  0  0
   73.1009   48.0810   62.6963 O   0  0  0  0  0  0  0  0  0  0  0  0
   74.1786   47.0755   60.9635 N   0  0  0  0  0  0  0  0  0  0  0  0
   75.3423   47.5839   63.1845 C   0  0  0  0  0  0  0  0  0  0  0  0
   74.9420   47.3043   65.5837 N   0  0  0  0  0  0  0  0  0  0  0  0
   75.1470   46.6187   64.3339 C   0  0  0  0  0  0  0  0  0  0  0  0
   68.6608   48.0858   56.8116 S   0  0  0  0  0  0  0  0  0  0  0  0
   68.6792   49.3070   57.7078 O   0  0  0  0  0  0  0  0  0  0  0  0
   67.2374   47.5568   56.7492 O   0  0  0  0  0  0  0  0  0  0  0  0
   69.1678   48.4409   55.2052 C   0  0  0  0  0  0  0  0  0  0  0  0
   69.9150   49.5292   54.8276 C   0  0  0  0  0  0  0  0  0  0  0  0
   70.2991   49.7763   53.5310 C   0  0  0  0  0  0  0  0  0  0  0  0
   69.9228   48.9005   52.5567 C   0  0  0  0  0  0  0  0  0  0  0  0
   69.1693   47.7881   52.8779 C   0  0  0  0  0  0  0  0  0  0  0  0
   68.8107   46.9293   51.8629 C   0  0  0  0  0  0  0  0  0  0  0  0
   68.0589   45.8041   52.1315 C   0  0  0  0  0  0  0  0  0  0  0  0
   67.6829   45.5728   53.4422 C   0  0  0  0  0  0  0  0  0  0  0  0
   68.0406   46.4289   54.4467 C   0  0  0  0  0  0  0  0  0  0  0  0
   68.7947   47.5642   54.2058 C   0  0  0  0  0  0  0  0  0  0  0  0
 14 15  1  0
 15 13  1  0
 13 10  1  0
 10 11  2  0
 10 12  1  0
 12  1  1  0
  1  2  2  0
  1  9  1  0
  2  3  1  0
  3  4  2  0
  4  5  1  0
  4  8  1  0
  5 16  1  0
  5  6  2  0
 16 17  2  0
 16 18  2  0
 16 19  1  0
 19 20  2  0
 19 28  1  0
 20 21  1  0
 21 22  2  0
 22 23  1  0
 23 24  1  0
 23 28  2  0
 24 25  2  0
 25 26  1  0
 26 27  2  0
 27 28  1  0
  6  7  1  0
  7  8  1  0
  8  9  2  0
M  CHG  1  14   1
M  END
>  <minimizedAffinity>  (100) 
-9.21285

$$$$
data/200k_reference_output/data/smiles/9603.pdb
     RDKit          3D

 29 32  0  0  0  0  0  0  0  0999 V2000
   68.6614   39.2855   57.4865 O   0  0  0  0  0  0  0  0  0  0  0  0
   67.9780   40.0162   58.2465 C   0  0  0  0  0  0  0  0  0  0  0  0
   67.1005   39.4895   59.1184 N   0  0  0  0  0  0  0  0  0  0  0  0
   66.3922   40.3113   59.9111 C   0  0  0  0  0  0  0  0  0  0  0  0
   65.5342   39.7843   60.7606 C   0  0  0  0  0  0  0  0  0  0  0  0
   66.5953   41.6851   59.7995 C   0  0  0  0  0  0  0  0  0  0  0  0
   65.9275   42.4395   60.5457 O   0  0  0  0  0  0  0  0  0  0  0  0
   67.4752   42.1974   58.9246 N   0  0  0  0  0  0  0  0  0  0  0  0
   68.1880   41.3860   58.1286 C   0  0  0  0  0  0  0  0  0  0  0  0
   69.0637   41.8708   57.2558 C   0  0  0  0  0  0  0  0  0  0  0  0
   69.2944   43.2882   57.1194 C   0  0  0  0  0  0  0  0  0  0  0  0
   70.2276   43.9650   57.8747 C   0  0  0  0  0  0  0  0  0  0  0  0
   70.3848   45.3200   57.6816 C   0  0  0  0  0  0  0  0  0  0  0  0
   69.6319   46.0228   56.7496 C   0  0  0  0  0  0  0  0  0  0  0  0
   68.7062   45.3316   56.0061 C   0  0  0  0  0  0  0  0  0  0  0  0
   68.5380   43.9810   56.1869 C   0  0  0  0  0  0  0  0  0  0  0  0
   67.9308   45.9994   55.0600 O   0  0  0  0  0  0  0  0  0  0  0  0
   68.5270   46.7534   54.0588 C   0  0  0  0  0  0  0  0  0  0  0  0
   68.6126   46.2429   52.7878 C   0  0  0  0  0  0  0  0  0  0  0  0
   69.2133   47.0274   51.8229 C   0  0  0  0  0  0  0  0  0  0  0  0
   69.7235   48.2845   52.0839 C   0  0  0  0  0  0  0  0  0  0  0  0
   70.3021   48.9966   51.0779 F   0  0  0  0  0  0  0  0  0  0  0  0
   69.6312   48.7838   53.3667 C   0  0  0  0  0  0  0  0  0  0  0  0
   69.0298   48.0039   54.3385 C   0  0  0  0  0  0  0  0  0  0  0  0
   65.3767   38.3194   60.8187 C   0  0  0  0  0  0  0  0  0  0  0  0
   64.4180   37.6822   60.0647 C   0  0  0  0  0  0  0  0  0  0  0  0
   64.5172   36.3689   60.3276 N   0  0  0  0  0  0  0  0  0  0  0  0
   65.5119   36.2209   61.2177 C   0  0  0  0  0  0  0  0  0  0  0  0
   66.0378   37.4183   61.5182 N   0  0  0  0  0  0  0  0  0  0  0  0
  1  2  2  0
  2  3  1  0
  2  9  1  0
  3  4  1  0
  4  5  2  0
  4  6  1  0
  5 25  1  0
 25 26  2  0
 25 29  1  0
 26 27  1  0
 27 28  1  0
 28 29  2  0
  6  7  2  0
  6  8  1  0
  8  9  1  0
  9 10  2  0
 10 11  1  0
 11 12  2  0
 11 16  1  0
 12 13  1  0
 13 14  2  0
 14 15  1  0
 15 17  1  0
 15 16  2  0
 17 18  1  0
 18 19  2  0
 18 24  1  0
 19 20  1  0
 20 21  2  0
 21 22  1  0
 21 23  1  0
 23 24  2  0
M  CHG  1  29   1
M  END
>  <minimizedAffinity>  (101) 
-9.21253

$$$$
data/reference_output_2/data/smiles/108410.pdb
     RDKit          3D

 28 30  0  0  0  0  0  0  0  0999 V2000
   66.6116   42.0799   55.2487 O   0  0  0  0  0  0  0  0  0  0  0  0
   67.3846   41.6767   56.1556 C   0  0  0  0  0  0  0  0  0  0  0  0
   67.2742   40.3509   56.6925 N   0  0  0  0  0  0  0  0  0  0  0  0
   68.1340   39.8675   57.7185 C   0  0  0  0  0  0  0  0  0  0  0  0
   68.0118   38.6826   58.1759 O   0  0  0  0  0  0  0  0  0  0  0  0
   69.1751   40.6793   58.2868 N   0  0  0  0  0  0  0  0  0  0  0  0
   69.3092   42.0006   57.7737 C   0  0  0  0  0  0  0  0  0  0  0  0
   70.2038   42.7671   58.2282 O   0  0  0  0  0  0  0  0  0  0  0  0
   68.4233   42.5144   56.7102 C   0  0  0  0  0  0  0  0  0  0  0  0
   68.5544   43.7405   56.2386 C   0  0  0  0  0  0  0  0  0  0  0  0
   70.0140   40.1414   59.3180 C   0  0  0  0  0  0  0  0  0  0  0  0
   70.5998   38.8258   59.0199 C   0  0  0  0  0  0  0  0  0  0  0  0
   70.2414   37.7435   59.8273 C   0  0  0  0  0  0  0  0  0  0  0  0
   70.7757   36.4990   59.5699 C   0  0  0  0  0  0  0  0  0  0  0  0
   71.6637   36.2483   58.5402 C   0  0  0  0  0  0  0  0  0  0  0  0
   72.1720   35.0113   58.3117 F   0  0  0  0  0  0  0  0  0  0  0  0
   72.0006   37.3334   57.7590 C   0  0  0  0  0  0  0  0  0  0  0  0
   71.4764   38.5821   58.0030 C   0  0  0  0  0  0  0  0  0  0  0  0
   67.7401   44.3008   55.2166 N   0  0  0  0  0  0  0  0  0  0  0  0
   68.2056   45.4298   54.5036 C   0  0  0  0  0  0  0  0  0  0  0  0
   68.1237   45.5327   53.1253 C   0  0  0  0  0  0  0  0  0  0  0  0
   68.5831   46.6458   52.4553 C   0  0  0  0  0  0  0  0  0  0  0  0
   69.1387   47.6928   53.1472 C   0  0  0  0  0  0  0  0  0  0  0  0
   69.2216   47.5966   54.5128 C   0  0  0  0  0  0  0  0  0  0  0  0
   68.7606   46.4745   55.2026 C   0  0  0  0  0  0  0  0  0  0  0  0
   69.6322   48.8905   52.4304 C   0  0  0  0  0  0  0  0  0  0  0  0
   69.3645   50.0344   52.8783 O   0  0  0  0  0  0  0  0  0  0  0  0
   70.3792   48.7865   51.2804 O   0  0  0  0  0  0  0  0  0  0  0  0
  1  2  2  0
  2  3  1  0
  2  9  1  0
  3  4  1  0
  4  5  2  0
  4  6  1  0
  6 11  1  0
  6  7  1  0
 11 12  1  0
 12 13  2  0
 12 18  1  0
 13 14  1  0
 14 15  2  0
 15 16  1  0
 15 17  1  0
 17 18  2  0
  7  8  2  0
  7  9  1  0
  9 10  2  0
 10 19  1  0
 19 20  1  0
 20 21  2  0
 20 25  1  0
 21 22  1  0
 22 23  2  0
 23 26  1  0
 23 24  1  0
 26 27  2  0
 26 28  1  0
 24 25  2  0
M  END
>  <minimizedAffinity>  (102) 
-9.21222

$$$$
data/200k_reference_output/data/smiles/17491.pdb
     RDKit          3D

 28 31  0  0  0  0  0  0  0  0999 V2000
   69.0204   42.2258   57.4586 C   0  0  0  0  0  0  0  0  0  0  0  0
   67.8406   41.4698   57.4814 C   0  0  0  0  0  0  0  0  0  0  0  0
   66.7907   41.8058   56.6581 C   0  0  0  0  0  0  0  0  0  0  0  0
   66.8967   42.8653   55.8267 N   0  0  0  0  0  0  0  0  0  0  0  0
   68.0075   43.6165   55.7737 C   0  0  0  0  0  0  0  0  0  0  0  0
   69.0751   43.2953   56.5941 C   0  0  0  0  0  0  0  0  0  0  0  0
   68.1022   44.7406   54.8838 N   0  0  0  0  0  0  0  0  0  0  0  0
   67.6536   44.8232   53.6436 N   0  0  0  0  0  0  0  0  0  0  0  0
   67.9152   46.0185   53.1101 C   0  0  0  0  0  0  0  0  0  0  0  0
   68.5792   46.7764   54.0573 C   0  0  0  0  0  0  0  0  0  0  0  0
   68.6740   45.9269   55.1608 C   0  0  0  0  0  0  0  0  0  0  0  0
   69.2051   46.2125   56.2438 O   0  0  0  0  0  0  0  0  0  0  0  0
   69.0669   48.1465   53.9299 C   0  0  0  0  0  0  0  0  0  0  0  0
   68.8541   49.1262   54.8802 C   0  0  0  0  0  0  0  0  0  0  0  0
   69.3259   50.4167   54.7402 C   0  0  0  0  0  0  0  0  0  0  0  0
   70.0473   50.7449   53.5936 C   0  0  0  0  0  0  0  0  0  0  0  0
   70.2526   49.7802   52.6648 N   0  0  0  0  0  0  0  0  0  0  0  0
   69.7876   48.5268   52.8123 C   0  0  0  0  0  0  0  0  0  0  0  0
   70.1314   41.8546   58.3622 C   0  0  0  0  0  0  0  0  0  0  0  0
   69.6834   39.7195   60.0572 O   0  0  0  0  0  0  0  0  0  0  0  0
   70.4074   39.4671   59.0510 C   0  0  0  0  0  0  0  0  0  0  0  0
   70.6546   40.5356   58.1660 N   0  0  0  0  0  0  0  0  0  0  0  0
   70.9209   38.1292   58.8827 C   0  0  0  0  0  0  0  0  0  0  0  0
   70.5358   37.0841   59.6670 C   0  0  0  0  0  0  0  0  0  0  0  0
   71.0473   35.7929   59.4909 C   0  0  0  0  0  0  0  0  0  0  0  0
   71.9666   35.5801   58.4936 C   0  0  0  0  0  0  0  0  0  0  0  0
   72.3784   36.6142   57.6827 C   0  0  0  0  0  0  0  0  0  0  0  0
   71.8447   37.8838   57.8910 C   0  0  0  0  0  0  0  0  0  0  0  0
 20 21  2  0
 21 22  1  0
 21 23  1  0
 22 19  1  0
 19  1  1  0
  1  2  2  0
  1  6  1  0
  2  3  1  0
  3  4  2  0
  4  5  1  0
  5  7  1  0
  5  6  2  0
  7  8  1  0
  7 11  1  0
  8  9  1  0
  9 10  2  0
 10 13  1  0
 10 11  1  0
 13 14  2  0
 13 18  1  0
 14 15  1  0
 15 16  2  0
 16 17  1  0
 17 18  2  0
 11 12  2  0
 23 24  2  0
 23 28  1  0
 24 25  1  0
 25 26  2  0
 26 27  1  0
 27 28  2  0
M  END
>  <minimizedAffinity>  (103) 
-9.20861

$$$$
data/reference_output_2/data/smiles/196980.pdb
     RDKit          3D

 27 30  0  0  0  0  0  0  0  0999 V2000
   70.0324   45.2811   57.8719 C   0  0  0  0  0  0  0  0  0  0  0  0
   69.9425   46.1288   58.8024 O   0  0  0  0  0  0  0  0  0  0  0  0
   69.5056   45.6227   56.6271 N   0  0  0  0  0  0  0  0  0  0  0  0
   70.7023   43.9967   58.2353 C   0  0  0  0  0  0  0  0  0  0  0  0
   66.7813   42.0568   55.9582 C   0  0  0  0  0  0  0  0  0  0  0  0
   68.0037   41.8828   56.7533 N   0  0  0  0  0  0  0  0  0  0  0  0
   68.7330   42.9366   57.1288 N   0  0  0  0  0  0  0  0  0  0  0  0
   69.8567   42.8307   57.8545 C   0  0  0  0  0  0  0  0  0  0  0  0
   70.2628   41.5638   58.2228 C   0  0  0  0  0  0  0  0  0  0  0  0
   71.3765   41.3337   58.9729 C   0  0  0  0  0  0  0  0  0  0  0  0
   71.8068   40.0746   59.3758 C   0  0  0  0  0  0  0  0  0  0  0  0
   71.0760   38.9775   59.0020 C   0  0  0  0  0  0  0  0  0  0  0  0
   69.9504   39.1722   58.2473 C   0  0  0  0  0  0  0  0  0  0  0  0
   69.5356   40.4261   57.8559 C   0  0  0  0  0  0  0  0  0  0  0  0
   68.3916   40.6465   57.1061 C   0  0  0  0  0  0  0  0  0  0  0  0
   67.6946   39.6692   56.7451 O   0  0  0  0  0  0  0  0  0  0  0  0
   68.8921   46.9408   56.4379 C   0  0  0  0  0  0  0  0  0  0  0  0
   69.1737   47.5615   55.1630 C   0  0  0  0  0  0  0  0  0  0  0  0
   69.9246   48.7497   55.1215 C   0  0  0  0  0  0  0  0  0  0  0  0
   70.1923   49.3682   53.9230 C   0  0  0  0  0  0  0  0  0  0  0  0
   69.7405   48.8506   52.7288 C   0  0  0  0  0  0  0  0  0  0  0  0
   68.9964   47.6731   52.7570 C   0  0  0  0  0  0  0  0  0  0  0  0
   68.5282   47.1006   51.6056 C   0  0  0  0  0  0  0  0  0  0  0  0
   67.8046   45.9326   51.6178 C   0  0  0  0  0  0  0  0  0  0  0  0
   67.5282   45.3025   52.8089 C   0  0  0  0  0  0  0  0  0  0  0  0
   67.9916   45.8674   53.9696 C   0  0  0  0  0  0  0  0  0  0  0  0
   68.7243   47.0477   53.9664 C   0  0  0  0  0  0  0  0  0  0  0  0
  5  6  1  0
  6  7  1  0
  6 15  1  0
  7  8  2  0
  8  4  1  0
  8  9  1  0
  4  1  1  0
  1  2  2  0
  1  3  1  0
  3 17  1  0
 17 18  1  0
 18 19  2  0
 18 27  1  0
 19 20  1  0
 20 21  2  0
 21 22  1  0
 22 23  1  0
 22 27  2  0
 23 24  2  0
 24 25  1  0
 25 26  2  0
 26 27  1  0
  9 10  1  0
  9 14  2  0
 10 11  2  0
 11 12  1  0
 12 13  2  0
 13 14  1  0
 14 15  1  0
 15 16  2  0
M  END
>  <minimizedAffinity>  (104) 
-9.20416

$$$$
data/reference_output_2/data/smiles/152757.pdb
     RDKit          3D

 30 33  0  0  0  0  0  0  0  0999 V2000
   70.9468   43.6019   58.1474 C   0  0  0  0  0  0  0  0  0  0  0  0
   69.8040   42.9082   57.7900 C   0  0  0  0  0  0  0  0  0  0  0  0
   69.7500   41.5296   57.8488 C   0  0  0  0  0  0  0  0  0  0  0  0
   70.8246   40.7720   58.2649 C   0  0  0  0  0  0  0  0  0  0  0  0
   70.7975   39.3934   58.3324 C   0  0  0  0  0  0  0  0  0  0  0  0
   69.7302   38.7795   57.9966 O   0  0  0  0  0  0  0  0  0  0  0  0
   71.8503   38.6552   58.7394 N   0  0  0  0  0  0  0  0  0  0  0  0
   72.9545   39.3546   59.0842 C   0  0  0  0  0  0  0  0  0  0  0  0
   73.9496   38.6590   59.4685 O   0  0  0  0  0  0  0  0  0  0  0  0
   73.0115   40.6994   59.0277 N   0  0  0  0  0  0  0  0  0  0  0  0
   71.9702   41.4519   58.6234 C   0  0  0  0  0  0  0  0  0  0  0  0
   72.0137   42.8322   58.5616 C   0  0  0  0  0  0  0  0  0  0  0  0
   71.8120   37.2321   58.8068 C   0  0  0  0  0  0  0  0  0  0  0  0
   72.3660   36.4850   57.7870 C   0  0  0  0  0  0  0  0  0  0  0  0
   72.3475   35.0971   57.8192 C   0  0  0  0  0  0  0  0  0  0  0  0
   71.7760   34.4097   58.8690 C   0  0  0  0  0  0  0  0  0  0  0  0
   71.2217   35.1506   59.8902 C   0  0  0  0  0  0  0  0  0  0  0  0
   71.2416   36.5388   59.8552 C   0  0  0  0  0  0  0  0  0  0  0  0
   69.8891   45.8968   57.8359 N   0  0  0  0  0  0  0  0  0  0  0  0
   70.9962   45.0637   58.0824 C   0  0  0  0  0  0  0  0  0  0  0  0
   72.1089   45.6223   58.2590 O   0  0  0  0  0  0  0  0  0  0  0  0
   69.9504   47.3367   57.7738 C   0  0  0  0  0  0  0  0  0  0  0  0
   68.7495   47.9329   57.0806 C   0  0  0  0  0  0  0  0  0  0  0  0
   68.5935   46.7570   51.4605 C   0  0  0  0  0  0  0  0  0  0  0  0
   68.6188   47.0334   52.9100 C   0  0  0  0  0  0  0  0  0  0  0  0
   68.0788   46.1315   53.8025 C   0  0  0  0  0  0  0  0  0  0  0  0
   68.1116   46.4087   55.1706 C   0  0  0  0  0  0  0  0  0  0  0  0
   68.6693   47.5573   55.6448 C   0  0  0  0  0  0  0  0  0  0  0  0
   69.2020   48.4403   54.7225 C   0  0  0  0  0  0  0  0  0  0  0  0
   69.2000   48.2234   53.3612 C   0  0  0  0  0  0  0  0  0  0  0  0
 24 25  1  0
 25 26  2  0
 25 30  1  0
 26 27  1  0
 27 28  2  0
 28 23  1  0
 28 29  1  0
 23 22  1  0
 22 19  1  0
 19 20  1  0
 20 21  2  0
 20  1  1  0
  1  2  2  0
  1 12  1  0
  2  3  1  0
  3  4  2  0
  4  5  1  0
  4 11  1  0
  5  6  2  0
  5  7  1  0
  7 13  1  0
  7  8  1  0
 13 14  2  0
 13 18  1  0
 14 15  1  0
 15 16  2  0
 16 17  1  0
 17 18  2  0
  8  9  2  0
  8 10  1  0
 10 11  1  0
 11 12  2  0
 29 30  2  0
M  END
>  <minimizedAffinity>  (105) 
-9.19853

$$$$
data/reference_output_2/data/smiles/89553.pdb
     RDKit          3D

 28 31  0  0  0  0  0  0  0  0999 V2000
   70.6658   45.3034   57.8511 C   0  0  0  0  0  0  0  0  0  0  0  0
   71.6595   45.7361   58.7096 C   0  0  0  0  0  0  0  0  0  0  0  0
   71.8767   47.0900   58.8313 C   0  0  0  0  0  0  0  0  0  0  0  0
   71.1392   48.0188   58.1286 C   0  0  0  0  0  0  0  0  0  0  0  0
   70.1247   47.5967   57.2525 C   0  0  0  0  0  0  0  0  0  0  0  0
   69.9326   46.2470   57.1515 C   0  0  0  0  0  0  0  0  0  0  0  0
   69.2347   43.7722   59.6580 O   0  0  0  0  0  0  0  0  0  0  0  0
   69.6754   43.1738   58.6483 C   0  0  0  0  0  0  0  0  0  0  0  0
   70.4125   43.9194   57.6988 N   0  0  0  0  0  0  0  0  0  0  0  0
   69.4158   41.7386   58.4861 C   0  0  0  0  0  0  0  0  0  0  0  0
   70.0742   40.8279   59.2072 N   0  0  0  0  0  0  0  0  0  0  0  0
   69.8281   39.5070   59.0495 C   0  0  0  0  0  0  0  0  0  0  0  0
   68.8951   39.0401   58.1443 C   0  0  0  0  0  0  0  0  0  0  0  0
   68.2043   39.9613   57.3892 C   0  0  0  0  0  0  0  0  0  0  0  0
   68.4836   41.2985   57.5796 C   0  0  0  0  0  0  0  0  0  0  0  0
   67.7799   42.2358   56.8101 O   0  0  0  0  0  0  0  0  0  0  0  0
   69.3586   48.6222   56.5024 C   0  0  0  0  0  0  0  0  0  0  0  0
   69.6618   48.5527   55.0545 C   0  0  0  0  0  0  0  0  0  0  0  0
   70.7015   49.2984   54.5727 N   0  0  0  0  0  0  0  0  0  0  0  0
   71.0524   49.3318   53.3049 N   0  0  0  0  0  0  0  0  0  0  0  0
   70.3738   48.6013   52.3846 C   0  0  0  0  0  0  0  0  0  0  0  0
   70.6863   48.6130   51.1604 O   0  0  0  0  0  0  0  0  0  0  0  0
   69.3254   47.8309   52.7755 C   0  0  0  0  0  0  0  0  0  0  0  0
   68.9742   47.8121   54.1195 C   0  0  0  0  0  0  0  0  0  0  0  0
   67.8547   46.9692   54.5551 C   0  0  0  0  0  0  0  0  0  0  0  0
   67.6756   45.6934   53.7891 C   0  0  0  0  0  0  0  0  0  0  0  0
   68.3043   45.6747   52.4451 C   0  0  0  0  0  0  0  0  0  0  0  0
   68.5298   47.0119   51.8347 C   0  0  0  0  0  0  0  0  0  0  0  0
  7  8  2  0
  8  9  1  0
  8 10  1  0
  9  1  1  0
  1  2  2  0
  1  6  1  0
  2  3  1  0
  3  4  2  0
  4  5  1  0
  5 17  1  0
  5  6  2  0
 17 18  1  0
 18 19  2  0
 18 24  1  0
 19 20  1  0
 20 21  1  0
 21 22  2  0
 21 23  1  0
 23 24  2  0
 23 28  1  0
 24 25  1  0
 25 26  1  0
 26 27  1  0
 27 28  1  0
 10 11  2  0
 10 15  1  0
 11 12  1  0
 12 13  2  0
 13 14  1  0
 14 15  2  0
 15 16  1  0
M  END
>  <minimizedAffinity>  (106) 
-9.19374

$$$$
data/200k_reference_output/data/smiles/12633.pdb
     RDKit          3D

 25 27  0  0  0  0  0  0  0  0999 V2000
   71.7510   46.5242   58.9221 C   0  0  0  0  0  0  0  0  0  0  0  0
   70.7590   45.7678   58.1193 C   0  0  0  0  0  0  0  0  0  0  0  0
   69.8001   46.3561   57.3322 C   0  0  0  0  0  0  0  0  0  0  0  0
   69.7462   47.7117   57.2755 F   0  0  0  0  0  0  0  0  0  0  0  0
   68.8884   45.6282   56.5947 C   0  0  0  0  0  0  0  0  0  0  0  0
   68.9610   44.2954   56.6645 N   0  0  0  0  0  0  0  0  0  0  0  0
   69.8885   43.6310   57.4278 C   0  0  0  0  0  0  0  0  0  0  0  0
   70.7874   44.3650   58.1541 C   0  0  0  0  0  0  0  0  0  0  0  0
   71.6985   43.7136   58.9036 F   0  0  0  0  0  0  0  0  0  0  0  0
   67.9294   46.2726   55.8057 O   0  0  0  0  0  0  0  0  0  0  0  0
   68.2112   46.4933   54.4635 C   0  0  0  0  0  0  0  0  0  0  0  0
   67.6524   45.6564   53.5185 C   0  0  0  0  0  0  0  0  0  0  0  0
   67.9037   45.8369   52.1596 C   0  0  0  0  0  0  0  0  0  0  0  0
   68.7243   46.8645   51.7299 C   0  0  0  0  0  0  0  0  0  0  0  0
   69.2896   47.7089   52.6676 C   0  0  0  0  0  0  0  0  0  0  0  0
   69.0255   47.5110   54.0156 C   0  0  0  0  0  0  0  0  0  0  0  0
   70.1504   48.7856   52.1993 C   0  0  0  0  0  0  0  0  0  0  0  0
   69.9169   49.4177   51.0999 N   0  0  0  0  0  0  0  0  0  0  0  0
   71.2919   49.1759   52.9523 N   0  0  0  0  0  0  0  0  0  0  0  0
   69.8581   42.2877   57.4147 O   0  0  0  0  0  0  0  0  0  0  0  0
   69.0277   41.3185   57.8897 C   0  0  2  0  0  0  0  0  0  0  0  0
   69.7930   40.0408   58.3058 C   0  0  0  0  0  0  0  0  0  0  0  0
   68.6142   39.0756   58.4066 C   0  0  0  0  0  0  0  0  0  0  0  0
   67.7487   39.4021   57.3041 N   0  0  0  0  0  0  0  0  0  0  0  0
   68.1728   40.6732   56.7747 C   0  0  0  0  0  0  0  0  0  0  0  0
  1  2  1  0
  2  3  2  0
  2  8  1  0
  3  4  1  0
  3  5  1  0
  5 10  1  0
  5  6  2  0
 10 11  1  0
 11 12  2  0
 11 16  1  0
 12 13  1  0
 13 14  2  0
 14 15  1  0
 15 17  1  0
 15 16  2  0
 17 18  2  0
 17 19  1  0
  6  7  1  0
  7 20  1  0
  7  8  2  0
 21 20  1  6
 21 22  1  0
 21 25  1  0
 22 23  1  0
 23 24  1  0
 24 25  1  0
  8  9  1  0
M  CHG  2  18   1  24   1
M  END
>  <minimizedAffinity>  (107) 
-9.19297

$$$$
data/200k_reference_output/data/smiles/67525.pdb
     RDKit          3D

 27 29  0  0  0  0  0  0  0  0999 V2000
   69.2033   42.8759   57.0057 C   0  0  0  0  0  0  0  0  0  0  0  0
   68.0938   42.3209   56.8777 O   0  0  0  0  0  0  0  0  0  0  0  0
   69.3014   44.2252   56.5777 N   0  0  0  0  0  0  0  0  0  0  0  0
   73.9428   42.6865   58.5068 C   0  0  0  0  0  0  0  0  0  0  0  0
   72.6252   42.0662   58.2972 C   0  0  0  0  0  0  0  0  0  0  0  0
   71.5453   42.7261   57.7648 C   0  0  0  0  0  0  0  0  0  0  0  0
   70.3142   42.1224   57.5768 C   0  0  0  0  0  0  0  0  0  0  0  0
   70.2257   40.8010   57.9581 C   0  0  0  0  0  0  0  0  0  0  0  0
   71.2745   40.0832   58.4987 C   0  0  0  0  0  0  0  0  0  0  0  0
   72.4721   40.7435   58.6601 C   0  0  0  0  0  0  0  0  0  0  0  0
   71.1498   38.7144   58.8840 N   0  0  0  0  0  0  0  0  0  0  0  0
   71.5600   37.6589   58.1918 C   0  0  0  0  0  0  0  0  0  0  0  0
   71.2560   36.5263   58.9063 C   0  0  0  0  0  0  0  0  0  0  0  0
   71.4825   35.2256   58.5978 F   0  0  0  0  0  0  0  0  0  0  0  0
   70.6422   36.9465   60.0652 C   0  0  0  0  0  0  0  0  0  0  0  0
   70.6084   38.2875   59.9901 N   0  0  0  0  0  0  0  0  0  0  0  0
   68.1812   44.9066   56.0282 N   0  0  0  0  0  0  0  0  0  0  0  0
   68.5857   46.6047   55.9839 S   0  0  0  0  0  0  0  0  0  0  0  0
   67.5559   47.4372   56.6542 O   0  0  0  0  0  0  0  0  0  0  0  0
   69.8669   46.7478   56.7912 O   0  0  0  0  0  0  0  0  0  0  0  0
   68.9048   47.1250   54.3589 C   0  0  0  0  0  0  0  0  0  0  0  0
   69.6148   48.2873   54.1441 C   0  0  0  0  0  0  0  0  0  0  0  0
   69.8903   48.7383   52.8760 C   0  0  0  0  0  0  0  0  0  0  0  0
   69.4523   48.0191   51.7853 C   0  0  0  0  0  0  0  0  0  0  0  0
   68.7363   46.8469   52.0038 C   0  0  0  0  0  0  0  0  0  0  0  0
   68.4604   46.3965   53.2775 C   0  0  0  0  0  0  0  0  0  0  0  0
   67.7512   45.2361   53.4344 F   0  0  0  0  0  0  0  0  0  0  0  0
  4  5  1  0
  5  6  2  0
  5 10  1  0
  6  7  1  0
  7  1  1  0
  7  8  2  0
  1  2  2  0
  1  3  1  0
  3 17  1  0
 17 18  1  0
 18 19  2  0
 18 20  2  0
 18 21  1  0
 21 22  2  0
 21 26  1  0
 22 23  1  0
 23 24  2  0
 24 25  1  0
 25 26  2  0
 26 27  1  0
  8  9  1  0
  9 11  1  0
  9 10  2  0
 11 12  1  0
 11 16  1  0
 12 13  2  0
 13 14  1  0
 13 15  1  0
 15 16  2  0
M  END
>  <minimizedAffinity>  (108) 
-9.19043

$$$$
data/reference_output_2/data/smiles/161687.pdb
     RDKit          3D

 28 31  0  0  0  0  0  0  0  0999 V2000
   70.0255   44.8149   59.1108 O   0  0  0  0  0  0  0  0  0  0  0  0
   69.7840   45.2693   57.9285 C   0  0  0  0  0  0  0  0  0  0  0  0
   69.4952   44.2772   56.9738 N   0  0  0  0  0  0  0  0  0  0  0  0
   69.4981   42.8740   57.3175 C   0  0  0  0  0  0  0  0  0  0  0  0
   68.3411   42.1427   57.2364 C   0  0  0  0  0  0  0  0  0  0  0  0
   68.3414   40.7828   57.5733 C   0  0  0  0  0  0  0  0  0  0  0  0
   69.5046   40.1534   57.9934 C   0  0  0  0  0  0  0  0  0  0  0  0
   69.5660   38.8645   58.3272 N   0  0  0  0  0  0  0  0  0  0  0  0
   70.6712   38.2206   58.7388 C   0  0  0  0  0  0  0  0  0  0  0  0
   71.8229   38.9494   58.8190 N   0  0  0  0  0  0  0  0  0  0  0  0
   71.8003   40.2511   58.4907 C   0  0  0  0  0  0  0  0  0  0  0  0
   72.8643   40.9455   58.5596 O   0  0  0  0  0  0  0  0  0  0  0  0
   70.6563   40.8902   58.0721 C   0  0  0  0  0  0  0  0  0  0  0  0
   70.6445   42.2385   57.7349 C   0  0  0  0  0  0  0  0  0  0  0  0
   72.9054   38.1000   59.2745 C   0  0  0  0  0  0  0  0  0  0  0  0
   72.4452   36.7392   58.7385 C   0  0  0  0  0  0  0  0  0  0  0  0
   70.9693   36.8160   59.1562 C   0  0  0  0  0  0  0  0  0  0  0  0
   69.8299   46.7264   57.7157 C   0  0  0  0  0  0  0  0  0  0  0  0
   68.7234   47.2113   56.9801 N   0  0  0  0  0  0  0  0  0  0  0  0
   68.9528   48.2733   56.0625 C   0  0  0  0  0  0  0  0  0  0  0  0
   68.8496   47.6843   54.6809 C   0  0  0  0  0  0  0  0  0  0  0  0
   68.0885   46.5839   54.3848 C   0  0  0  0  0  0  0  0  0  0  0  0
   68.0438   46.1014   53.1014 C   0  0  0  0  0  0  0  0  0  0  0  0
   67.2898   45.0065   52.7858 F   0  0  0  0  0  0  0  0  0  0  0  0
   68.7702   46.7194   52.0743 C   0  0  0  0  0  0  0  0  0  0  0  0
   69.5266   47.8153   52.3774 C   0  0  0  0  0  0  0  0  0  0  0  0
   70.2599   48.4686   51.4397 F   0  0  0  0  0  0  0  0  0  0  0  0
   69.5594   48.2843   53.6686 C   0  0  0  0  0  0  0  0  0  0  0  0
  1  2  2  0
  2 18  1  0
  2  3  1  0
 18 19  1  0
 19 20  1  0
 20 21  1  0
 21 22  2  0
 21 28  1  0
 22 23  1  0
 23 24  1  0
 23 25  2  0
 25 26  1  0
 26 27  1  0
 26 28  2  0
  3  4  1  0
  4  5  2  0
  4 14  1  0
  5  6  1  0
  6  7  2  0
  7  8  1  0
  7 13  1  0
  8  9  2  0
  9 10  1  0
  9 17  1  0
 10 11  1  0
 10 15  1  0
 11 12  2  0
 11 13  1  0
 13 14  2  0
 15 16  1  0
 16 17  1  0
M  CHG  1  19   1
M  END
>  <minimizedAffinity>  (109) 
-9.19013

$$$$
data/reference_output_2/data/smiles/194454.pdb
     RDKit          3D

 30 33  0  0  0  0  0  0  0  0999 V2000
   69.4213   42.1293   57.4046 C   0  0  0  0  0  0  0  0  0  0  0  0
   68.5404   41.6557   58.2699 C   0  0  0  0  0  0  0  0  0  0  0  0
   67.9760   42.5398   59.1129 N   0  0  0  0  0  0  0  0  0  0  0  0
   67.0845   42.0828   60.0092 C   0  0  0  0  0  0  0  0  0  0  0  0
   66.5307   42.8710   60.8175 O   0  0  0  0  0  0  0  0  0  0  0  0
   66.7293   40.7464   60.0968 C   0  0  0  0  0  0  0  0  0  0  0  0
   65.8561   40.2910   60.9785 C   0  0  0  0  0  0  0  0  0  0  0  0
   67.2870   39.8619   59.2605 N   0  0  0  0  0  0  0  0  0  0  0  0
   68.1841   40.3251   58.3579 C   0  0  0  0  0  0  0  0  0  0  0  0
   68.7244   39.5293   57.5611 O   0  0  0  0  0  0  0  0  0  0  0  0
   69.2813   45.7861   56.5899 C   0  0  0  0  0  0  0  0  0  0  0  0
   70.3568   46.2800   57.3104 C   0  0  0  0  0  0  0  0  0  0  0  0
   71.1122   45.3985   58.0498 C   0  0  0  0  0  0  0  0  0  0  0  0
   70.8374   44.0496   58.0965 C   0  0  0  0  0  0  0  0  0  0  0  0
   69.7660   43.5738   57.3757 C   0  0  0  0  0  0  0  0  0  0  0  0
   69.0173   44.4474   56.6427 C   0  0  0  0  0  0  0  0  0  0  0  0
   67.5921   47.4485   56.3846 O   0  0  0  0  0  0  0  0  0  0  0  0
   68.4271   46.7148   55.8163 C   0  0  0  0  0  0  0  0  0  0  0  0
   68.5295   46.8066   54.3633 C   0  0  0  0  0  0  0  0  0  0  0  0
   69.3027   47.7580   53.7361 C   0  0  0  0  0  0  0  0  0  0  0  0
   69.3847   47.7667   52.3393 C   0  0  0  0  0  0  0  0  0  0  0  0
   68.6955   46.8281   51.6181 C   0  0  0  0  0  0  0  0  0  0  0  0
   67.9305   45.8875   52.2553 C   0  0  0  0  0  0  0  0  0  0  0  0
   67.8419   45.8680   53.6087 C   0  0  0  0  0  0  0  0  0  0  0  0
   65.5086   38.8513   61.0338 C   0  0  0  0  0  0  0  0  0  0  0  0
   64.6019   38.2981   60.1729 C   0  0  0  0  0  0  0  0  0  0  0  0
   64.3214   36.9563   60.2829 C   0  0  0  0  0  0  0  0  0  0  0  0
   64.9276   36.1975   61.2208 N   0  0  0  0  0  0  0  0  0  0  0  0
   65.8167   36.7480   62.0621 C   0  0  0  0  0  0  0  0  0  0  0  0
   66.1410   38.1018   61.9968 C   0  0  0  0  0  0  0  0  0  0  0  0
 17 18  2  0
 18 19  1  0
 18 11  1  0
 19 20  2  0
 19 24  1  0
 20 21  1  0
 21 22  2  0
 22 23  1  0
 23 24  2  0
 11 12  2  0
 11 16  1  0
 12 13  1  0
 13 14  2  0
 14 15  1  0
 15  1  1  0
 15 16  2  0
  1  2  2  0
  2  3  1  0
  2  9  1  0
  3  4  1  0
  4  5  2  0
  4  6  1  0
  6  7  2  0
  6  8  1  0
  7 25  1  0
 25 26  2  0
 25 30  1  0
 26 27  1  0
 27 28  2  0
 28 29  1  0
 29 30  2  0
  8  9  1  0
  9 10  2  0
M  END
>  <minimizedAffinity>  (110) 
-9.18737

$$$$
data/200k_reference_output/data/smiles/64559.pdb
     RDKit          3D

 27 29  0  0  0  0  0  0  0  0999 V2000
   74.4056   42.4507   58.4587 C   0  0  0  0  0  0  0  0  0  0  0  0
   73.0486   41.8704   58.3593 C   0  0  0  0  0  0  0  0  0  0  0  0
   72.8269   40.5378   58.6096 C   0  0  0  0  0  0  0  0  0  0  0  0
   71.5524   40.0253   58.5088 C   0  0  0  0  0  0  0  0  0  0  0  0
   70.5521   40.8842   58.1577 C   0  0  0  0  0  0  0  0  0  0  0  0
   70.7163   42.2462   57.8906 C   0  0  0  0  0  0  0  0  0  0  0  0
   71.9939   42.7285   57.9985 C   0  0  0  0  0  0  0  0  0  0  0  0
   72.2548   44.0236   57.7482 F   0  0  0  0  0  0  0  0  0  0  0  0
   71.3478   38.6486   58.7735 N   0  0  0  0  0  0  0  0  0  0  0  0
   71.8549   37.6104   58.0942 C   0  0  0  0  0  0  0  0  0  0  0  0
   71.4088   36.4201   58.6800 C   0  0  0  0  0  0  0  0  0  0  0  0
   71.7148   35.1545   58.2679 F   0  0  0  0  0  0  0  0  0  0  0  0
   70.6193   36.8239   59.7326 C   0  0  0  0  0  0  0  0  0  0  0  0
   70.6110   38.1760   59.7506 N   0  0  0  0  0  0  0  0  0  0  0  0
   69.5712   43.0659   57.5449 C   0  0  0  0  0  0  0  0  0  0  0  0
   68.4768   42.7192   58.1102 O   0  0  0  0  0  0  0  0  0  0  0  0
   69.4937   44.1634   56.6968 N   0  0  0  0  0  0  0  0  0  0  0  0
   68.4573   44.9657   56.3482 N   0  0  0  0  0  0  0  0  0  0  0  0
   68.6000   46.5247   55.8214 S   0  0  0  0  0  0  0  0  0  0  0  0
   69.8469   47.2076   56.3935 O   0  0  0  0  0  0  0  0  0  0  0  0
   67.3781   47.3155   56.3150 O   0  0  0  0  0  0  0  0  0  0  0  0
   68.6198   46.7692   54.0876 C   0  0  0  0  0  0  0  0  0  0  0  0
   69.2856   47.8396   53.5595 C   0  0  0  0  0  0  0  0  0  0  0  0
   69.2886   47.9933   52.1885 C   0  0  0  0  0  0  0  0  0  0  0  0
   68.6547   47.1245   51.3315 C   0  0  0  0  0  0  0  0  0  0  0  0
   67.9934   46.0576   51.9083 C   0  0  0  0  0  0  0  0  0  0  0  0
   67.9575   45.8545   53.2626 C   0  0  0  0  0  0  0  0  0  0  0  0
  1  2  1  0
  2  3  2  0
  2  7  1  0
  3  4  1  0
  4  9  1  0
  4  5  2  0
  9 10  1  0
  9 14  1  0
 10 11  2  0
 11 12  1  0
 11 13  1  0
 13 14  2  0
  5  6  1  0
  6 15  1  0
  6  7  2  0
 15 16  2  0
 15 17  1  0
 17 18  1  0
 18 19  1  0
 19 20  2  0
 19 21  2  0
 19 22  1  0
 22 23  2  0
 22 27  1  0
 23 24  1  0
 24 25  2  0
 25 26  1  0
 26 27  2  0
  7  8  1  0
M  END
>  <minimizedAffinity>  (111) 
-9.18637

$$$$
data/reference_output_2/data/smiles/199651.pdb
     RDKit          3D

 30 33  0  0  0  0  0  0  0  0999 V2000
   69.2879   42.0747   57.3569 C   0  0  0  0  0  0  0  0  0  0  0  0
   68.4039   41.5674   58.2149 C   0  0  0  0  0  0  0  0  0  0  0  0
   67.7773   42.3819   59.0827 N   0  0  0  0  0  0  0  0  0  0  0  0
   66.8811   41.8690   59.9522 C   0  0  0  0  0  0  0  0  0  0  0  0
   66.2953   42.6420   60.7654 O   0  0  0  0  0  0  0  0  0  0  0  0
   66.5647   40.5266   60.0025 C   0  0  0  0  0  0  0  0  0  0  0  0
   65.6790   40.0264   60.8642 C   0  0  0  0  0  0  0  0  0  0  0  0
   67.1961   39.7184   59.1307 N   0  0  0  0  0  0  0  0  0  0  0  0
   68.0919   40.2240   58.2606 C   0  0  0  0  0  0  0  0  0  0  0  0
   68.6881   39.4543   57.4360 O   0  0  0  0  0  0  0  0  0  0  0  0
   69.2087   45.7352   56.5093 C   0  0  0  0  0  0  0  0  0  0  0  0
   70.2962   46.1934   57.2439 C   0  0  0  0  0  0  0  0  0  0  0  0
   71.0360   45.3161   58.0006 C   0  0  0  0  0  0  0  0  0  0  0  0
   70.6868   43.9622   58.0240 C   0  0  0  0  0  0  0  0  0  0  0  0
   69.6186   43.4866   57.3058 C   0  0  0  0  0  0  0  0  0  0  0  0
   68.8879   44.3773   56.5546 C   0  0  0  0  0  0  0  0  0  0  0  0
   67.5924   47.4215   56.2714 O   0  0  0  0  0  0  0  0  0  0  0  0
   68.4134   46.6352   55.6885 C   0  0  0  0  0  0  0  0  0  0  0  0
   68.4915   46.7001   54.2547 C   0  0  0  0  0  0  0  0  0  0  0  0
   69.2670   47.6902   53.6519 C   0  0  0  0  0  0  0  0  0  0  0  0
   69.3474   47.7802   52.2872 C   0  0  0  0  0  0  0  0  0  0  0  0
   68.6533   46.8847   51.4798 C   0  0  0  0  0  0  0  0  0  0  0  0
   67.8995   45.9252   52.0834 C   0  0  0  0  0  0  0  0  0  0  0  0
   67.8095   45.8202   53.4490 C   0  0  0  0  0  0  0  0  0  0  0  0
   65.3494   38.6253   60.9152 C   0  0  0  0  0  0  0  0  0  0  0  0
   65.9907   37.8131   61.8170 C   0  0  0  0  0  0  0  0  0  0  0  0
   65.6802   36.4437   61.8805 C   0  0  0  0  0  0  0  0  0  0  0  0
   64.7398   35.9354   61.0375 C   0  0  0  0  0  0  0  0  0  0  0  0
   64.1154   36.7315   60.1574 N   0  0  0  0  0  0  0  0  0  0  0  0
   64.4130   38.0589   60.0942 C   0  0  0  0  0  0  0  0  0  0  0  0
 17 18  2  0
 18 19  1  0
 18 11  1  0
 19 20  2  0
 19 24  1  0
 20 21  1  0
 21 22  2  0
 22 23  1  0
 23 24  2  0
 11 12  2  0
 11 16  1  0
 12 13  1  0
 13 14  2  0
 14 15  1  0
 15  1  1  0
 15 16  2  0
  1  2  2  0
  2  3  1  0
  2  9  1  0
  3  4  1  0
  4  5  2  0
  4  6  1  0
  6  7  2  0
  6  8  1  0
  7 25  1  0
 25 26  2  0
 25 30  1  0
 26 27  1  0
 27 28  2  0
 28 29  1  0
 29 30  2  0
  8  9  1  0
  9 10  2  0
M  END
>  <minimizedAffinity>  (112) 
-9.18630

$$$$
data/reference_output_2/data/smiles/190510.pdb
     RDKit          3D

 26 29  0  0  0  0  0  0  0  0999 V2000
   70.2446   47.5404   57.3040 C   0  0  0  0  0  0  0  0  0  0  0  0
   69.4566   46.5684   56.4857 C   0  0  0  0  0  0  0  0  0  0  0  0
   69.3151   45.2866   56.8226 N   0  0  0  0  0  0  0  0  0  0  0  0
   68.6112   44.3829   56.1056 C   0  0  0  0  0  0  0  0  0  0  0  0
   68.0231   44.8569   54.9703 N   0  0  0  0  0  0  0  0  0  0  0  0
   68.1366   46.1425   54.5875 C   0  0  0  0  0  0  0  0  0  0  0  0
   68.8613   47.0454   55.3362 C   0  0  0  0  0  0  0  0  0  0  0  0
   68.9978   48.4431   54.9401 C   0  0  0  0  0  0  0  0  0  0  0  0
   68.7210   49.4835   55.8128 C   0  0  0  0  0  0  0  0  0  0  0  0
   68.8454   50.8123   55.4535 C   0  0  0  0  0  0  0  0  0  0  0  0
   69.2623   51.1097   54.1742 C   0  0  0  0  0  0  0  0  0  0  0  0
   69.5492   50.1093   53.2740 C   0  0  0  0  0  0  0  0  0  0  0  0
   69.9640   50.1513   51.9951 N   0  0  0  0  0  0  0  0  0  0  0  0
   70.0917   48.8950   51.5811 N   0  0  0  0  0  0  0  0  0  0  0  0
   69.7646   48.0436   52.5722 C   0  0  0  0  0  0  0  0  0  0  0  0
   69.4115   48.8000   53.6736 C   0  0  0  0  0  0  0  0  0  0  0  0
   68.5480   51.9232   56.3901 C   0  0  0  0  0  0  0  0  0  0  0  0
   67.2441   51.7351   56.8541 F   0  0  0  0  0  0  0  0  0  0  0  0
   68.5962   53.1488   55.7696 F   0  0  0  0  0  0  0  0  0  0  0  0
   69.4321   51.8823   57.4554 F   0  0  0  0  0  0  0  0  0  0  0  0
   68.4835   43.0328   56.4950 N   0  0  0  0  0  0  0  0  0  0  0  0
   67.3951   42.1634   56.1191 C   0  0  0  0  0  0  0  0  0  0  0  0
   67.6960   40.8251   56.7725 C   0  0  0  0  0  0  0  0  0  0  0  0
   68.5989   41.2053   57.9241 C   0  0  1  0  0  0  0  0  0  0  0  0
   69.4130   40.1283   58.2361 O   0  0  0  0  0  0  0  0  0  0  0  0
   69.4226   42.3227   57.3279 C   0  0  0  0  0  0  0  0  0  0  0  0
  1  2  1  0
  2  3  2  0
  2  7  1  0
  3  4  1  0
  4 21  1  0
  4  5  2  0
 21 22  1  0
 21 26  1  0
 22 23  1  0
 23 24  1  0
 24 25  1  6
 24 26  1  0
  5  6  1  0
  6  7  2  0
  7  8  1  0
  8  9  2  0
  8 16  1  0
  9 10  1  0
 10 17  1  0
 10 11  2  0
 17 18  1  0
 17 19  1  0
 17 20  1  0
 11 12  1  0
 12 13  1  0
 12 16  2  0
 13 14  1  0
 14 15  2  0
 15 16  1  0
M  END
>  <minimizedAffinity>  (113) 
-9.18493

$$$$
data/200k_reference_output/data/smiles/85010.pdb
     RDKit          3D

 28 30  0  0  0  0  0  0  0  0999 V2000
   71.6485   43.4687   57.6934 S   0  0  0  0  0  0  0  0  0  0  0  0
   70.7254   36.2852   60.2204 C   0  0  0  0  0  0  0  0  0  0  0  0
   70.1828   37.5903   59.7594 C   0  0  0  0  0  0  0  0  0  0  0  0
   68.8370   37.7451   59.6122 C   0  0  0  0  0  0  0  0  0  0  0  0
   68.2822   38.7903   58.9180 C   0  0  0  0  0  0  0  0  0  0  0  0
   69.0908   39.7453   58.3946 C   0  0  0  0  0  0  0  0  0  0  0  0
   68.7202   40.8459   57.7456 C   0  0  0  0  0  0  0  0  0  0  0  0
   69.4545   41.8598   57.3858 C   0  0  0  0  0  0  0  0  0  0  0  0
   70.8223   41.8397   57.6457 C   0  0  0  0  0  0  0  0  0  0  0  0
   71.3169   40.7331   58.2000 N   0  0  0  0  0  0  0  0  0  0  0  0
   70.4508   39.6818   58.5750 C   0  0  0  0  0  0  0  0  0  0  0  0
   71.0177   38.5880   59.2279 C   0  0  0  0  0  0  0  0  0  0  0  0
   68.7369   43.0578   56.7168 C   0  0  0  0  0  0  0  0  0  0  0  0
   68.1805   44.0015   56.2118 N   0  0  0  0  0  0  0  0  0  0  0  0
   71.3212   44.2203   59.5026 C   0  0  0  0  0  0  0  0  0  0  0  0
   70.9852   45.4918   58.8994 C   0  0  0  0  0  0  0  0  0  0  0  0
   71.9857   46.2780   58.7179 O   0  0  0  0  0  0  0  0  0  0  0  0
   69.7625   45.9774   58.3892 N   0  0  0  0  0  0  0  0  0  0  0  0
   69.8952   46.9578   57.3162 N   0  0  0  0  0  0  0  0  0  0  0  0
   68.7863   47.5542   56.7435 C   0  0  0  0  0  0  0  0  0  0  0  0
   67.6882   47.4490   57.1117 O   0  0  0  0  0  0  0  0  0  0  0  0
   69.0506   48.4252   55.4739 C   0  0  0  0  0  0  0  0  0  0  0  0
   69.0721   47.5682   54.2698 C   0  0  0  0  0  0  0  0  0  0  0  0
   68.1457   46.5757   54.2952 C   0  0  0  0  0  0  0  0  0  0  0  0
   67.7006   45.9014   53.1237 C   0  0  0  0  0  0  0  0  0  0  0  0
   68.3270   46.4003   52.0199 C   0  0  0  0  0  0  0  0  0  0  0  0
   69.2118   47.3647   51.9138 C   0  0  0  0  0  0  0  0  0  0  0  0
   69.6421   48.0370   53.1063 C   0  0  0  0  0  0  0  0  0  0  0  0
  2  3  1  0
  3  4  2  0
  3 12  1  0
  4  5  1  0
  5  6  2  0
  6  7  1  0
  6 11  1  0
  7  8  2  0
  8 13  1  0
  8  9  1  0
 13 14  3  0
  9  1  1  0
  9 10  2  0
  1 15  1  0
 15 16  1  0
 16 17  2  0
 16 18  1  0
 18 19  1  0
 19 20  1  0
 20 21  2  0
 20 22  1  0
 22 23  1  0
 23 24  2  0
 23 28  1  0
 24 25  1  0
 25 26  2  0
 26 27  1  0
 27 28  2  0
 10 11  1  0
 11 12  2  0
M  END
>  <minimizedAffinity>  (114) 
-9.17819

$$$$
data/reference_output_2/data/smiles/142039.pdb
     RDKit          3D

 29 32  0  0  0  0  0  0  0  0999 V2000
   71.5034   47.3192   58.8280 C   0  0  0  0  0  0  0  0  0  0  0  0
   70.5319   47.8965   58.0591 C   0  0  0  0  0  0  0  0  0  0  0  0
   69.7021   47.1654   57.2146 C   0  0  0  0  0  0  0  0  0  0  0  0
   69.8728   45.8198   57.1580 C   0  0  0  0  0  0  0  0  0  0  0  0
   70.8550   45.1694   57.9260 C   0  0  0  0  0  0  0  0  0  0  0  0
   71.6589   45.9535   58.7557 C   0  0  0  0  0  0  0  0  0  0  0  0
   72.5916   45.2872   59.4783 F   0  0  0  0  0  0  0  0  0  0  0  0
   75.7096   50.1162   57.9990 N   0  0  0  0  0  0  0  0  0  0  0  0
   75.7577   49.6092   59.3309 C   0  0  0  0  0  0  0  0  0  0  0  0
   74.4021   49.5389   60.0060 C   0  0  0  0  0  0  0  0  0  0  0  0
   73.4815   48.7711   59.1890 N   0  0  0  0  0  0  0  0  0  0  0  0
   72.3765   48.0609   59.7160 C   0  0  0  0  0  0  0  0  0  0  0  0
   72.1763   48.0900   60.9462 O   0  0  0  0  0  0  0  0  0  0  0  0
   73.7519   48.7597   57.7636 C   0  0  0  0  0  0  0  0  0  0  0  0
   74.4172   50.0457   57.4017 C   0  0  0  0  0  0  0  0  0  0  0  0
   76.7291   50.0638   55.7704 C   0  0  0  0  0  0  0  0  0  0  0  0
   76.7905   49.6186   57.2111 C   0  0  0  0  0  0  0  0  0  0  0  0
   68.7014   47.8723   56.4032 C   0  0  0  0  0  0  0  0  0  0  0  0
   69.1505   48.0522   55.0026 C   0  0  0  0  0  0  0  0  0  0  0  0
   70.0457   49.0469   54.7055 N   0  0  0  0  0  0  0  0  0  0  0  0
   70.4703   49.3106   53.4915 N   0  0  0  0  0  0  0  0  0  0  0  0
   70.0531   48.6110   52.4152 C   0  0  0  0  0  0  0  0  0  0  0  0
   70.5063   48.9267   51.2915 O   0  0  0  0  0  0  0  0  0  0  0  0
   69.1571   47.5971   52.6296 C   0  0  0  0  0  0  0  0  0  0  0  0
   68.7057   46.8438   51.5814 C   0  0  0  0  0  0  0  0  0  0  0  0
   67.8097   45.8028   51.7718 C   0  0  0  0  0  0  0  0  0  0  0  0
   67.3802   45.5437   53.0588 C   0  0  0  0  0  0  0  0  0  0  0  0
   67.8324   46.3015   54.1169 C   0  0  0  0  0  0  0  0  0  0  0  0
   68.7164   47.3279   53.9182 C   0  0  0  0  0  0  0  0  0  0  0  0
 16 17  1  0
 17  8  1  0
  8  9  1  0
  8 15  1  0
  9 10  1  0
 10 11  1  0
 11 12  1  0
 11 14  1  0
 12 13  2  0
 12  1  1  0
  1  2  2  0
  1  6  1  0
  2  3  1  0
  3 18  1  0
  3  4  2  0
 18 19  1  0
 19 20  2  0
 19 29  1  0
 20 21  1  0
 21 22  1  0
 22 23  2  0
 22 24  1  0
 24 25  1  0
 24 29  2  0
 25 26  2  0
 26 27  1  0
 27 28  2  0
 28 29  1  0
  4  5  1  0
  5  6  2  0
  6  7  1  0
 14 15  1  0
M  CHG  1   8   1
M  END
>  <minimizedAffinity>  (115) 
-9.17752

$$$$
data/reference_output_2/data/smiles/130472.pdb
     RDKit          3D

 28 31  0  0  0  0  0  0  0  0999 V2000
   67.6969   41.4685   56.8997 C   0  0  0  0  0  0  0  0  0  0  0  0
   66.6143   41.5823   56.0402 C   0  0  0  0  0  0  0  0  0  0  0  0
   66.7075   42.7597   55.4043 N   0  0  0  0  0  0  0  0  0  0  0  0
   67.7816   43.4296   55.7887 N   0  0  0  0  0  0  0  0  0  0  0  0
   68.3919   42.6549   56.6977 C   0  0  0  0  0  0  0  0  0  0  0  0
   69.6441   43.0565   57.3736 C   0  0  0  0  0  0  0  0  0  0  0  0
   68.1402   44.7093   55.2861 C   0  0  0  0  0  0  0  0  0  0  0  0
   68.1134   44.9928   53.9563 N   0  0  0  0  0  0  0  0  0  0  0  0
   68.4534   46.2069   53.4755 C   0  0  0  0  0  0  0  0  0  0  0  0
   68.8441   47.2100   54.3346 C   0  0  0  0  0  0  0  0  0  0  0  0
   68.8701   46.9180   55.6774 C   0  0  0  0  0  0  0  0  0  0  0  0
   69.2170   47.7925   56.5004 O   0  0  0  0  0  0  0  0  0  0  0  0
   68.5232   45.6956   56.1089 N   0  0  0  0  0  0  0  0  0  0  0  0
   69.1672   48.4448   53.5746 C   0  0  0  0  0  0  0  0  0  0  0  0
   69.5684   47.8266   52.2284 C   0  0  0  0  0  0  0  0  0  0  0  0
   68.5043   46.7584   52.0999 C   0  0  0  0  0  0  0  0  0  0  0  0
   67.4845   40.3661   59.1101 N   0  0  0  0  0  0  0  0  0  0  0  0
   68.0337   40.3736   57.8002 C   0  0  0  0  0  0  0  0  0  0  0  0
   68.7959   39.4304   57.4576 O   0  0  0  0  0  0  0  0  0  0  0  0
   67.0680   42.1764   60.7270 C   0  0  0  0  0  0  0  0  0  0  0  0
   66.6155   41.4340   59.5133 C   0  0  0  0  0  0  0  0  0  0  0  0
   67.7906   39.2939   60.0466 C   0  0  0  0  0  0  0  0  0  0  0  0
   66.6809   38.3556   60.2356 C   0  0  0  0  0  0  0  0  0  0  0  0
   66.0101   38.3598   61.4406 C   0  0  0  0  0  0  0  0  0  0  0  0
   64.9494   37.4854   61.6666 C   0  0  0  0  0  0  0  0  0  0  0  0
   64.5869   36.6192   60.6644 C   0  0  0  0  0  0  0  0  0  0  0  0
   65.2416   36.5946   59.4506 C   0  0  0  0  0  0  0  0  0  0  0  0
   66.2925   37.4730   59.2501 C   0  0  0  0  0  0  0  0  0  0  0  0
 20 21  1  0
 21 17  1  0
 17 22  1  0
 17 18  1  0
 22 23  1  0
 23 24  2  0
 23 28  1  0
 24 25  1  0
 25 26  2  0
 26 27  1  0
 27 28  2  0
 18 19  2  0
 18  1  1  0
  1  2  1  0
  1  5  2  0
  2  3  2  0
  3  4  1  0
  4  7  1  0
  4  5  1  0
  7  8  2  0
  7 13  1  0
  8  9  1  0
  9 10  2  0
  9 16  1  0
 10 11  1  0
 10 14  1  0
 11 12  2  0
 11 13  1  0
 14 15  1  0
 15 16  1  0
  5  6  1  0
M  END
>  <minimizedAffinity>  (116) 
-9.17710

$$$$
data/200k_reference_output/data/smiles/19410.pdb
     RDKit          3D

 26 28  0  0  0  0  0  0  0  0999 V2000
   69.8646   43.5107   57.4992 C   0  0  0  0  0  0  0  0  0  0  0  0
   71.0083   43.6544   57.9796 O   0  0  0  0  0  0  0  0  0  0  0  0
   69.1988   44.6496   56.9922 N   0  0  0  0  0  0  0  0  0  0  0  0
   69.4796   39.7951   57.9566 C   0  0  0  0  0  0  0  0  0  0  0  0
   68.1969   39.6126   57.4762 C   0  0  0  0  0  0  0  0  0  0  0  0
   67.4419   40.6639   57.0034 C   0  0  0  0  0  0  0  0  0  0  0  0
   67.9920   41.9480   57.0125 C   0  0  0  0  0  0  0  0  0  0  0  0
   69.2659   42.1847   57.4807 C   0  0  0  0  0  0  0  0  0  0  0  0
   69.9667   41.0789   57.9395 C   0  0  0  0  0  0  0  0  0  0  0  0
   73.1301   36.4691   58.1081 C   0  0  0  0  0  0  0  0  0  0  0  0
   71.8881   37.2366   58.4527 C   0  0  0  0  0  0  0  0  0  0  0  0
   71.0859   36.9395   59.5349 C   0  0  0  0  0  0  0  0  0  0  0  0
   70.0648   37.8804   59.4811 C   0  0  0  0  0  0  0  0  0  0  0  0
   70.2393   38.6913   58.4368 N   0  0  0  0  0  0  0  0  0  0  0  0
   71.3499   38.2810   57.8288 N   0  0  0  0  0  0  0  0  0  0  0  0
   69.7800   45.8999   57.0178 N   0  0  0  0  0  0  0  0  0  0  0  0
   68.9514   47.1853   56.3208 S   0  0  0  0  0  0  0  0  0  0  0  0
   67.5806   47.3925   56.9321 O   0  0  0  0  0  0  0  0  0  0  0  0
   69.7441   48.4595   56.6198 O   0  0  0  0  0  0  0  0  0  0  0  0
   68.8214   46.9973   54.6000 C   0  0  0  0  0  0  0  0  0  0  0  0
   69.3599   47.9784   53.7908 C   0  0  0  0  0  0  0  0  0  0  0  0
   69.2660   47.9182   52.4159 C   0  0  0  0  0  0  0  0  0  0  0  0
   68.6267   46.8677   51.7972 C   0  0  0  0  0  0  0  0  0  0  0  0
   68.0826   45.8783   52.5868 C   0  0  0  0  0  0  0  0  0  0  0  0
   68.1905   45.9594   53.9760 C   0  0  0  0  0  0  0  0  0  0  0  0
   67.6663   44.9365   54.6848 F   0  0  0  0  0  0  0  0  0  0  0  0
 10 11  1  0
 11 12  1  0
 11 15  2  0
 12 13  2  0
 13 14  1  0
 14  4  1  0
 14 15  1  0
  4  5  2  0
  4  9  1  0
  5  6  1  0
  6  7  2  0
  7  8  1  0
  8  1  1  0
  8  9  2  0
  1  2  2  0
  1  3  1  0
  3 16  1  0
 16 17  1  0
 17 18  2  0
 17 19  2  0
 17 20  1  0
 20 21  2  0
 20 25  1  0
 21 22  1  0
 22 23  2  0
 23 24  1  0
 24 25  2  0
 25 26  1  0
M  END
>  <minimizedAffinity>  (117) 
-9.16966

$$$$
data/200k_reference_output/data/smiles/32047.pdb
     RDKit          3D

 30 33  0  0  0  0  0  0  0  0999 V2000
   69.3191   42.0580   57.3124 C   0  0  0  0  0  0  0  0  0  0  0  0
   68.4281   41.5405   58.1573 C   0  0  0  0  0  0  0  0  0  0  0  0
   67.7872   42.3899   58.9789 N   0  0  0  0  0  0  0  0  0  0  0  0
   66.8760   41.8892   59.8423 C   0  0  0  0  0  0  0  0  0  0  0  0
   66.2652   42.6490   60.6173 O   0  0  0  0  0  0  0  0  0  0  0  0
   66.5822   40.5205   59.9068 C   0  0  0  0  0  0  0  0  0  0  0  0
   65.6867   40.0407   60.7496 C   0  0  0  0  0  0  0  0  0  0  0  0
   67.2251   39.6823   59.0849 N   0  0  0  0  0  0  0  0  0  0  0  0
   68.1393   40.1992   58.2216 C   0  0  0  0  0  0  0  0  0  0  0  0
   68.7432   39.4198   57.4503 O   0  0  0  0  0  0  0  0  0  0  0  0
   69.2262   45.7660   56.5376 C   0  0  0  0  0  0  0  0  0  0  0  0
   70.3284   46.1309   57.2840 C   0  0  0  0  0  0  0  0  0  0  0  0
   71.0912   45.2349   58.0170 C   0  0  0  0  0  0  0  0  0  0  0  0
   70.7075   43.9229   57.9845 C   0  0  0  0  0  0  0  0  0  0  0  0
   69.6098   43.4925   57.2562 C   0  0  0  0  0  0  0  0  0  0  0  0
   68.8976   44.4010   56.5564 C   0  0  0  0  0  0  0  0  0  0  0  0
   67.6633   47.5084   56.3421 O   0  0  0  0  0  0  0  0  0  0  0  0
   68.4488   46.7032   55.7434 C   0  0  0  0  0  0  0  0  0  0  0  0
   68.5335   46.7528   54.2950 C   0  0  0  0  0  0  0  0  0  0  0  0
   69.2697   47.7131   53.6382 C   0  0  0  0  0  0  0  0  0  0  0  0
   69.3573   47.8040   52.2485 C   0  0  0  0  0  0  0  0  0  0  0  0
   68.6727   46.8860   51.4810 C   0  0  0  0  0  0  0  0  0  0  0  0
   67.9341   45.9211   52.1429 C   0  0  0  0  0  0  0  0  0  0  0  0
   67.8440   45.8272   53.5028 C   0  0  0  0  0  0  0  0  0  0  0  0
   65.3311   38.6396   60.8695 C   0  0  0  0  0  0  0  0  0  0  0  0
   65.6478   37.9826   62.0625 C   0  0  0  0  0  0  0  0  0  0  0  0
   65.3341   36.6532   62.2567 C   0  0  0  0  0  0  0  0  0  0  0  0
   64.6914   35.9337   61.2637 C   0  0  0  0  0  0  0  0  0  0  0  0
   64.3939   36.6140   60.0968 C   0  0  0  0  0  0  0  0  0  0  0  0
   64.7112   37.8999   59.9430 N   0  0  0  0  0  0  0  0  0  0  0  0
 17 18  2  0
 18 19  1  0
 18 11  1  0
 19 20  2  0
 19 24  1  0
 20 21  1  0
 21 22  2  0
 22 23  1  0
 23 24  2  0
 11 12  2  0
 11 16  1  0
 12 13  1  0
 13 14  2  0
 14 15  1  0
 15  1  1  0
 15 16  2  0
  1  2  2  0
  2  3  1  0
  2  9  1  0
  3  4  1  0
  4  5  2  0
  4  6  1  0
  6  7  2  0
  6  8  1  0
  7 25  1  0
 25 26  2  0
 25 30  1  0
 26 27  1  0
 27 28  2  0
 28 29  1  0
 29 30  2  0
  8  9  1  0
  9 10  2  0
M  END
>  <minimizedAffinity>  (118) 
-9.16960

$$$$
data/200k_reference_output/data/smiles/68731.pdb
     RDKit          3D

 25 27  0  0  0  0  0  0  0  0999 V2000
   70.1113   46.9974   57.5590 N   0  0  0  0  0  0  0  0  0  0  0  0
   72.8661   45.6475   58.6153 C   0  0  0  0  0  0  0  0  0  0  0  0
   71.5576   45.0506   58.1830 C   0  0  0  0  0  0  0  0  0  0  0  0
   71.3005   43.6689   58.1746 C   0  0  0  0  0  0  0  0  0  0  0  0
   70.0553   43.4531   57.7491 N   0  0  0  0  0  0  0  0  0  0  0  0
   69.5226   44.6139   57.4927 N   0  0  0  0  0  0  0  0  0  0  0  0
   70.4155   45.6416   57.7457 C   0  0  0  0  0  0  0  0  0  0  0  0
   69.4302   42.1610   57.6058 C   0  0  0  0  0  0  0  0  0  0  0  0
   68.3656   41.9569   56.7568 C   0  0  0  0  0  0  0  0  0  0  0  0
   67.7922   40.7073   56.6503 C   0  0  0  0  0  0  0  0  0  0  0  0
   68.2435   39.6221   57.3693 C   0  0  0  0  0  0  0  0  0  0  0  0
   69.3102   39.8246   58.2195 C   0  0  0  0  0  0  0  0  0  0  0  0
   69.8847   41.0773   58.3263 C   0  0  0  0  0  0  0  0  0  0  0  0
   68.9118   47.8049   56.7210 S   0  0  0  0  0  0  0  0  0  0  0  0
   67.5564   47.5592   57.3586 O   0  0  0  0  0  0  0  0  0  0  0  0
   69.1349   49.3158   56.8754 O   0  0  0  0  0  0  0  0  0  0  0  0
   68.7811   47.4770   55.0143 C   0  0  0  0  0  0  0  0  0  0  0  0
   68.0854   46.3473   54.5586 C   0  0  0  0  0  0  0  0  0  0  0  0
   68.0084   46.0434   53.2275 C   0  0  0  0  0  0  0  0  0  0  0  0
   68.6220   46.8528   52.2928 C   0  0  0  0  0  0  0  0  0  0  0  0
   69.3149   47.9713   52.7053 C   0  0  0  0  0  0  0  0  0  0  0  0
   69.3755   48.2532   54.0588 C   0  0  0  0  0  0  0  0  0  0  0  0
   69.9848   48.8672   51.7797 C   0  0  0  0  0  0  0  0  0  0  0  0
   70.6956   48.4262   50.8366 O   0  0  0  0  0  0  0  0  0  0  0  0
   69.8644   50.2383   51.9041 O   0  0  0  0  0  0  0  0  0  0  0  0
  2  3  1  0
  3  4  2  0
  3  7  1  0
  4  5  1  0
  5  8  1  0
  5  6  1  0
  8  9  2  0
  8 13  1  0
  9 10  1  0
 10 11  2  0
 11 12  1  0
 12 13  2  0
  6  7  2  0
  7  1  1  0
  1 14  1  0
 14 15  2  0
 14 16  2  0
 14 17  1  0
 17 18  2  0
 17 22  1  0
 18 19  1  0
 19 20  2  0
 20 21  1  0
 21 23  1  0
 21 22  2  0
 23 24  2  0
 23 25  1  0
M  END
>  <minimizedAffinity>  (119) 
-9.16622

$$$$
data/reference_output_2/data/smiles/92495.pdb
     RDKit          3D

 27 30  0  0  0  0  0  0  0  0999 V2000
   71.1176   46.6593   58.3889 C   0  0  0  0  0  0  0  0  0  0  0  0
   70.1166   47.0437   57.4949 C   0  0  0  0  0  0  0  0  0  0  0  0
   69.7142   48.3620   57.3233 C   0  0  0  0  0  0  0  0  0  0  0  0
   70.3182   49.3407   58.0558 C   0  0  0  0  0  0  0  0  0  0  0  0
   71.3018   48.9860   58.9385 C   0  0  0  0  0  0  0  0  0  0  0  0
   71.6923   47.6775   59.1019 C   0  0  0  0  0  0  0  0  0  0  0  0
   72.6502   47.4465   60.0021 F   0  0  0  0  0  0  0  0  0  0  0  0
   73.6461   42.4779   57.6839 C   0  0  0  0  0  0  0  0  0  0  0  0
   72.4645   43.3951   57.6416 C   0  0  1  0  0  0  0  0  0  0  0  0
   71.3023   42.9403   58.4388 C   0  0  0  0  0  0  0  0  0  0  0  0
   70.6744   44.1796   58.9500 C   0  0  0  0  0  0  0  0  0  0  0  0
   69.6272   44.1937   59.6265 O   0  0  0  0  0  0  0  0  0  0  0  0
   71.4794   45.2899   58.5283 N   0  0  0  0  0  0  0  0  0  0  0  0
   72.7690   44.7441   58.2386 C   0  0  0  0  0  0  0  0  0  0  0  0
   73.8644   45.2915   58.4478 O   0  0  0  0  0  0  0  0  0  0  0  0
   68.6397   48.6410   56.3050 C   0  0  0  0  0  0  0  0  0  0  0  0
   69.1082   48.6052   54.9261 C   0  0  0  0  0  0  0  0  0  0  0  0
   70.0042   49.5585   54.5156 N   0  0  0  0  0  0  0  0  0  0  0  0
   70.5184   49.5966   53.3042 N   0  0  0  0  0  0  0  0  0  0  0  0
   70.2139   48.7064   52.3529 C   0  0  0  0  0  0  0  0  0  0  0  0
   70.7027   48.7487   51.2138 O   0  0  0  0  0  0  0  0  0  0  0  0
   69.3216   47.7209   52.6879 C   0  0  0  0  0  0  0  0  0  0  0  0
   68.9483   46.7729   51.7620 C   0  0  0  0  0  0  0  0  0  0  0  0
   68.0373   45.7760   52.0821 C   0  0  0  0  0  0  0  0  0  0  0  0
   67.5051   45.7447   53.3471 C   0  0  0  0  0  0  0  0  0  0  0  0
   67.8778   46.6992   54.2885 C   0  0  0  0  0  0  0  0  0  0  0  0
   68.7699   47.6756   53.9773 C   0  0  0  0  0  0  0  0  0  0  0  0
  9  8  1  1
  9 10  1  0
  9 14  1  0
 10 11  1  0
 11 12  2  0
 11 13  1  0
 13  1  1  0
 13 14  1  0
  1  2  2  0
  1  6  1  0
  2  3  1  0
  3 16  1  0
  3  4  2  0
 16 17  1  0
 17 18  2  0
 17 27  1  0
 18 19  1  0
 19 20  1  0
 20 21  2  0
 20 22  1  0
 22 23  1  0
 22 27  2  0
 23 24  2  0
 24 25  1  0
 25 26  2  0
 26 27  1  0
  4  5  1  0
  5  6  2  0
  6  7  1  0
 14 15  2  0
M  END
>  <minimizedAffinity>  (120) 
-9.16069

$$$$
data/200k_reference_output/data/smiles/83525.pdb
     RDKit          3D

 27 29  0  0  0  0  0  0  0  0999 V2000
   69.8445   44.0935   57.3752 C   0  0  0  0  0  0  0  0  0  0  0  0
   70.9287   44.2096   57.9977 O   0  0  0  0  0  0  0  0  0  0  0  0
   69.2373   45.2547   56.8527 N   0  0  0  0  0  0  0  0  0  0  0  0
   69.0921   40.4133   57.6767 C   0  0  0  0  0  0  0  0  0  0  0  0
   68.0231   40.3041   56.8178 C   0  0  0  0  0  0  0  0  0  0  0  0
   67.5489   41.4112   56.1453 C   0  0  0  0  0  0  0  0  0  0  0  0
   66.5025   41.2605   55.3151 F   0  0  0  0  0  0  0  0  0  0  0  0
   68.1627   42.6264   56.3488 C   0  0  0  0  0  0  0  0  0  0  0  0
   69.2529   42.7892   57.2122 C   0  0  0  0  0  0  0  0  0  0  0  0
   69.6813   41.6538   57.8530 C   0  0  0  0  0  0  0  0  0  0  0  0
   71.7226   36.4183   59.0543 C   0  0  0  0  0  0  0  0  0  0  0  0
   70.6712   37.4757   59.0091 C   0  0  0  0  0  0  0  0  0  0  0  0
   69.5950   37.5989   59.8567 C   0  0  0  0  0  0  0  0  0  0  0  0
   68.9077   38.7291   59.4167 C   0  0  0  0  0  0  0  0  0  0  0  0
   69.5541   39.2471   58.3530 N   0  0  0  0  0  0  0  0  0  0  0  0
   70.5922   38.4896   58.1320 N   0  0  0  0  0  0  0  0  0  0  0  0
   69.8287   46.5388   57.0184 N   0  0  0  0  0  0  0  0  0  0  0  0
   68.7850   47.6801   56.2883 S   0  0  0  0  0  0  0  0  0  0  0  0
   69.1256   49.0671   56.7556 O   0  0  0  0  0  0  0  0  0  0  0  0
   67.3584   47.4181   56.6669 O   0  0  0  0  0  0  0  0  0  0  0  0
   68.9294   47.5302   54.5568 C   0  0  0  0  0  0  0  0  0  0  0  0
   69.5863   48.4967   53.8508 C   0  0  0  0  0  0  0  0  0  0  0  0
   69.6968   48.3738   52.4889 C   0  0  0  0  0  0  0  0  0  0  0  0
   69.1464   47.2866   51.8767 C   0  0  0  0  0  0  0  0  0  0  0  0
   68.4795   46.2992   52.5678 C   0  0  0  0  0  0  0  0  0  0  0  0
   68.3810   46.4449   53.9403 C   0  0  0  0  0  0  0  0  0  0  0  0
   67.7130   45.4538   54.6185 F   0  0  0  0  0  0  0  0  0  0  0  0
 11 12  1  0
 12 13  1  0
 12 16  2  0
 13 14  2  0
 14 15  1  0
 15  4  1  0
 15 16  1  0
  4  5  2  0
  4 10  1  0
  5  6  1  0
  6  7  1  0
  6  8  2  0
  8  9  1  0
  9  1  1  0
  9 10  2  0
  1  2  2  0
  1  3  1  0
  3 17  1  0
 17 18  1  0
 18 19  2  0
 18 20  2  0
 18 21  1  0
 21 22  2  0
 21 26  1  0
 22 23  1  0
 23 24  2  0
 24 25  1  0
 25 26  2  0
 26 27  1  0
M  END
>  <minimizedAffinity>  (121) 
-9.15970

$$$$
data/reference_output_2/data/smiles/152002.pdb
     RDKit          3D

 26 29  0  0  0  0  0  0  0  0999 V2000
   68.6280   46.3713   55.1621 C   0  0  0  0  0  0  0  0  0  0  0  0
   68.1488   45.5105   54.1847 C   0  0  0  0  0  0  0  0  0  0  0  0
   68.1974   45.8537   52.8570 C   0  0  0  0  0  0  0  0  0  0  0  0
   68.7199   47.0586   52.4566 C   0  0  0  0  0  0  0  0  0  0  0  0
   68.9079   47.6824   51.2610 N   0  0  0  0  0  0  0  0  0  0  0  0
   69.4627   48.8484   51.4568 N   0  0  0  0  0  0  0  0  0  0  0  0
   69.6870   49.0996   52.7507 C   0  0  0  0  0  0  0  0  0  0  0  0
   69.2111   47.9519   53.3987 C   0  0  0  0  0  0  0  0  0  0  0  0
   69.1465   47.5720   54.7355 C   0  0  0  0  0  0  0  0  0  0  0  0
   70.3864   50.4730   53.5679 S   0  0  0  0  0  0  0  0  0  0  0  0
   71.8535   50.1472   53.8035 O   0  0  0  0  0  0  0  0  0  0  0  0
   70.3369   51.6766   52.6612 O   0  0  0  0  0  0  0  0  0  0  0  0
   69.6764   50.8035   55.1153 C   0  0  0  0  0  0  0  0  0  0  0  0
   68.4896   51.5147   55.2454 C   0  0  0  0  0  0  0  0  0  0  0  0
   67.9383   51.8219   56.4533 C   0  0  0  0  0  0  0  0  0  0  0  0
   68.5727   51.4169   57.6015 C   0  0  0  0  0  0  0  0  0  0  0  0
   69.7485   50.7102   57.5253 C   0  0  0  0  0  0  0  0  0  0  0  0
   70.4012   50.2812   58.6600 C   0  0  0  0  0  0  0  0  0  0  0  0
   71.5717   49.5626   58.5737 C   0  0  0  0  0  0  0  0  0  0  0  0
   72.1427   49.2408   57.3610 C   0  0  0  0  0  0  0  0  0  0  0  0
   71.4596   49.6903   56.2341 C   0  0  0  0  0  0  0  0  0  0  0  0
   70.2947   50.4067   56.2725 C   0  0  0  0  0  0  0  0  0  0  0  0
   68.5553   46.0186   56.5280 N   0  0  0  0  0  0  0  0  0  0  0  0
   69.4925   46.4068   57.5475 C   0  0  0  0  0  0  0  0  0  0  0  0
   69.9886   44.7066   59.2372 N   0  0  0  0  0  0  0  0  0  0  0  0
   70.4251   45.3122   57.9824 C   0  0  0  0  0  0  0  0  0  0  0  0
 25 26  1  0
 26 24  1  0
 24 23  1  0
 23  1  1  0
  1  2  2  0
  1  9  1  0
  2  3  1  0
  3  4  2  0
  4  5  1  0
  4  8  1  0
  5  6  1  0
  6  7  2  0
  7 10  1  0
  7  8  1  0
 10 11  2  0
 10 12  2  0
 10 13  1  0
 13 14  2  0
 13 22  1  0
 14 15  1  0
 15 16  2  0
 16 17  1  0
 17 18  1  0
 17 22  2  0
 18 19  2  0
 19 20  1  0
 20 21  2  0
 21 22  1  0
  8  9  2  0
M  CHG  1  25   1
M  END
>  <minimizedAffinity>  (122) 
-9.15799

$$$$
data/reference_output_2/data/smiles/89271.pdb
     RDKit          3D

 27 29  0  0  0  0  0  0  0  0999 V2000
   70.8637   41.5955   58.3962 C   0  0  0  0  0  0  0  0  0  0  0  0
   71.9328   42.0621   59.1643 C   0  0  0  0  0  0  0  0  0  0  0  0
   72.1944   43.4126   59.2570 C   0  0  0  0  0  0  0  0  0  0  0  0
   71.4351   44.3622   58.6123 C   0  0  0  0  0  0  0  0  0  0  0  0
   70.3688   43.9240   57.8444 C   0  0  0  0  0  0  0  0  0  0  0  0
   70.1191   42.5670   57.7613 C   0  0  0  0  0  0  0  0  0  0  0  0
   69.7463   45.1171   57.2715 C   0  0  0  0  0  0  0  0  0  0  0  0
   68.7167   45.1661   56.4909 N   0  0  0  0  0  0  0  0  0  0  0  0
   70.4732   46.3054   57.7198 C   0  0  0  0  0  0  0  0  0  0  0  0
   70.2357   47.5140   57.4386 O   0  0  0  0  0  0  0  0  0  0  0  0
   71.5139   45.7860   58.5512 N   0  0  0  0  0  0  0  0  0  0  0  0
   71.4949   39.1346   58.6004 N   0  0  0  0  0  0  0  0  0  0  0  0
   70.5870   40.1677   58.2843 C   0  0  0  0  0  0  0  0  0  0  0  0
   69.4462   39.8288   57.8708 O   0  0  0  0  0  0  0  0  0  0  0  0
   70.9247   37.0283   59.7700 C   0  0  0  0  0  0  0  0  0  0  0  0
   71.1945   37.7187   58.4826 C   0  0  0  0  0  0  0  0  0  0  0  0
   72.3595   37.0262   57.7472 C   0  0  0  0  0  0  0  0  0  0  0  0
   68.2246   46.4108   56.0100 N   0  0  0  0  0  0  0  0  0  0  0  0
   68.4007   46.5796   54.6027 C   0  0  0  0  0  0  0  0  0  0  0  0
   67.7587   45.7214   53.7089 C   0  0  0  0  0  0  0  0  0  0  0  0
   67.8980   45.8395   52.3444 C   0  0  0  0  0  0  0  0  0  0  0  0
   68.6967   46.8359   51.8244 C   0  0  0  0  0  0  0  0  0  0  0  0
   69.3428   47.6980   52.6713 C   0  0  0  0  0  0  0  0  0  0  0  0
   69.1813   47.5521   54.0297 C   0  0  0  0  0  0  0  0  0  0  0  0
   70.1787   48.7376   52.1058 C   0  0  0  0  0  0  0  0  0  0  0  0
   69.8632   49.3712   51.0821 O   0  0  0  0  0  0  0  0  0  0  0  0
   71.3781   49.0418   52.7274 O   0  0  0  0  0  0  0  0  0  0  0  0
 15 16  1  0
 16 17  1  0
 16 12  1  0
 12 13  1  0
 13 14  2  0
 13  1  1  0
  1  2  2  0
  1  6  1  0
  2  3  1  0
  3  4  2  0
  4  5  1  0
  4 11  1  0
  5  6  2  0
  5  7  1  0
  7  8  2  0
  7  9  1  0
  8 18  1  0
 18 19  1  0
 19 20  2  0
 19 24  1  0
 20 21  1  0
 21 22  2  0
 22 23  1  0
 23 25  1  0
 23 24  2  0
 25 26  2  0
 25 27  1  0
  9 10  2  0
  9 11  1  0
M  END
>  <minimizedAffinity>  (123) 
-9.15459

$$$$
data/reference_output_2/data/smiles/171870.pdb
     RDKit          3D

 25 27  0  0  0  0  0  0  0  0999 V2000
   68.4178   46.4542   54.4606 C   0  0  0  0  0  0  0  0  0  0  0  0
   67.6521   45.4757   53.8300 C   0  0  0  0  0  0  0  0  0  0  0  0
   67.5420   45.4609   52.4606 C   0  0  0  0  0  0  0  0  0  0  0  0
   66.8488   44.5722   51.9149 O   0  0  0  0  0  0  0  0  0  0  0  0
   68.1649   46.3804   51.7021 N   0  0  0  0  0  0  0  0  0  0  0  0
   68.9126   47.3397   52.2741 C   0  0  0  0  0  0  0  0  0  0  0  0
   69.5513   48.2820   51.4998 C   0  0  0  0  0  0  0  0  0  0  0  0
   70.3268   49.2829   52.0448 C   0  0  0  0  0  0  0  0  0  0  0  0
   70.4641   49.3354   53.4083 C   0  0  0  0  0  0  0  0  0  0  0  0
   69.8189   48.3843   54.1830 C   0  0  0  0  0  0  0  0  0  0  0  0
   69.0372   47.3728   53.6702 C   0  0  0  0  0  0  0  0  0  0  0  0
   67.7168   47.1776   56.5868 O   0  0  0  0  0  0  0  0  0  0  0  0
   68.5039   46.4308   55.8976 C   0  0  0  0  0  0  0  0  0  0  0  0
   69.3542   45.6824   56.6619 O   0  0  0  0  0  0  0  0  0  0  0  0
   71.4358   50.5784   54.1936 S   0  0  0  0  0  0  0  0  0  0  0  0
   71.1141   51.9033   53.6148 O   0  0  0  0  0  0  0  0  0  0  0  0
   72.8713   50.2112   53.9518 O   0  0  0  0  0  0  0  0  0  0  0  0
   71.1271   50.6082   55.9033 N   0  0  0  0  0  0  0  0  0  0  0  0
   69.8074   50.7005   56.4181 C   0  0  0  0  0  0  0  0  0  0  0  0
   68.8630   51.5316   55.8024 C   0  0  0  0  0  0  0  0  0  0  0  0
   67.5813   51.6368   56.2835 C   0  0  0  0  0  0  0  0  0  0  0  0
   67.1809   50.9297   57.3842 C   0  0  0  0  0  0  0  0  0  0  0  0
   65.9023   51.0646   57.8254 F   0  0  0  0  0  0  0  0  0  0  0  0
   68.0947   50.1114   57.9988 C   0  0  0  0  0  0  0  0  0  0  0  0
   69.4041   49.9906   57.5249 C   0  0  0  0  0  0  0  0  0  0  0  0
 12 13  2  0
 13 14  1  0
 13  1  1  0
  1  2  2  0
  1 11  1  0
  2  3  1  0
  3  4  2  0
  3  5  1  0
  5  6  1  0
  6  7  1  0
  6 11  2  0
  7  8  2  0
  8  9  1  0
  9 15  1  0
  9 10  2  0
 15 16  2  0
 15 17  2  0
 15 18  1  0
 18 19  1  0
 19 20  2  0
 19 25  1  0
 20 21  1  0
 21 22  2  0
 22 23  1  0
 22 24  1  0
 24 25  2  0
 10 11  1  0
M  END
>  <minimizedAffinity>  (124) 
-9.15439

$$$$
data/200k_reference_output/data/smiles/74199.pdb
     RDKit          3D

 25 27  0  0  0  0  0  0  0  0999 V2000
   71.9206   51.5625   54.5647 C   0  0  0  0  0  0  0  0  0  0  0  0
   73.9423   50.8377   53.4500 O   0  0  0  0  0  0  0  0  0  0  0  0
   73.3700   51.2795   54.4929 C   0  0  0  0  0  0  0  0  0  0  0  0
   74.2073   51.4937   55.6124 N   0  0  0  0  0  0  0  0  0  0  0  0
   75.5751   51.2306   55.5574 N   0  0  0  0  0  0  0  0  0  0  0  0
   76.1651   50.3199   56.2263 C   0  0  0  0  0  0  0  0  0  0  0  0
   77.6126   50.0686   56.1444 C   0  0  0  0  0  0  0  0  0  0  0  0
   78.1156   49.0819   55.3227 C   0  0  0  0  0  0  0  0  0  0  0  0
   79.4662   48.8226   55.2246 C   0  0  0  0  0  0  0  0  0  0  0  0
   80.3777   49.5550   55.9579 C   0  0  0  0  0  0  0  0  0  0  0  0
   82.1060   49.2735   55.8758 Cl  0  0  0  0  0  0  0  0  0  0  0  0
   79.8722   50.5471   56.7832 C   0  0  0  0  0  0  0  0  0  0  0  0
   78.5169   50.7988   56.8735 C   0  0  0  0  0  0  0  0  0  0  0  0
   71.1874   50.4593   55.3184 C   0  0  0  0  0  0  0  0  0  0  0  0
   70.5281   49.5158   54.4109 C   0  0  0  0  0  0  0  0  0  0  0  0
   69.6675   48.5515   54.8333 N   0  0  0  0  0  0  0  0  0  0  0  0
   69.0771   47.7006   53.9805 C   0  0  0  0  0  0  0  0  0  0  0  0
   68.2003   46.7167   54.4071 C   0  0  0  0  0  0  0  0  0  0  0  0
   67.5988   45.8475   53.5191 C   0  0  0  0  0  0  0  0  0  0  0  0
   67.8602   45.9396   52.1753 C   0  0  0  0  0  0  0  0  0  0  0  0
   68.7263   46.9057   51.7237 C   0  0  0  0  0  0  0  0  0  0  0  0
   69.3235   47.7739   52.6296 C   0  0  0  0  0  0  0  0  0  0  0  0
   70.2006   48.7575   52.2050 C   0  0  0  0  0  0  0  0  0  0  0  0
   70.4259   48.8271   50.9818 O   0  0  0  0  0  0  0  0  0  0  0  0
   70.7660   49.5869   53.1102 N   0  0  0  0  0  0  0  0  0  0  0  0
  2  3  2  0
  3  1  1  0
  3  4  1  0
  1 14  1  0
 14 15  1  0
 15 16  2  0
 15 25  1  0
 16 17  1  0
 17 18  2  0
 17 22  1  0
 18 19  1  0
 19 20  2  0
 20 21  1  0
 21 22  2  0
 22 23  1  0
 23 24  2  0
 23 25  1  0
  4  5  1  0
  5  6  2  0
  6  7  1  0
  7  8  2  0
  7 13  1  0
  8  9  1  0
  9 10  2  0
 10 11  1  0
 10 12  1  0
 12 13  2  0
M  END
>  <minimizedAffinity>  (125) 
-9.15327

$$$$
data/reference_output_2/data/smiles/155913.pdb
     RDKit          3D

 28 31  0  0  0  0  0  0  0  0999 V2000
   71.1463   45.1865   58.2844 C   0  0  0  0  0  0  0  0  0  0  0  0
   72.4648   45.5767   58.5583 C   0  0  0  0  0  0  0  0  0  0  0  0
   72.8369   46.8988   58.5116 C   0  0  0  0  0  0  0  0  0  0  0  0
   71.8930   47.8805   58.1879 C   0  0  0  0  0  0  0  0  0  0  0  0
   70.6505   47.5223   57.9282 N   0  0  0  0  0  0  0  0  0  0  0  0
   70.2961   46.2150   57.9773 C   0  0  0  0  0  0  0  0  0  0  0  0
   69.0231   43.7781   56.9598 O   0  0  0  0  0  0  0  0  0  0  0  0
   69.7969   43.1292   57.7066 C   0  0  0  0  0  0  0  0  0  0  0  0
   70.8303   43.8169   58.3512 N   0  0  0  0  0  0  0  0  0  0  0  0
   69.5449   41.6906   57.8396 C   0  0  0  0  0  0  0  0  0  0  0  0
   70.4918   40.8485   58.3815 C   0  0  0  0  0  0  0  0  0  0  0  0
   70.3029   39.4851   58.5287 C   0  0  0  0  0  0  0  0  0  0  0  0
   69.1064   38.9301   58.1121 C   0  0  0  0  0  0  0  0  0  0  0  0
   68.1401   39.7438   57.5670 C   0  0  0  0  0  0  0  0  0  0  0  0
   68.3634   41.1204   57.4327 C   0  0  0  0  0  0  0  0  0  0  0  0
   69.6647   48.5456   57.5855 C   0  0  0  0  0  0  0  0  0  0  0  0
   68.7439   48.1057   56.5153 C   0  0  0  0  0  0  0  0  0  0  0  0
   67.6744   47.5772   56.8695 O   0  0  0  0  0  0  0  0  0  0  0  0
   69.0821   48.2871   55.1232 C   0  0  0  0  0  0  0  0  0  0  0  0
   69.8212   49.3980   54.7072 C   0  0  0  0  0  0  0  0  0  0  0  0
   70.1416   49.6117   53.3906 C   0  0  0  0  0  0  0  0  0  0  0  0
   69.7626   48.7568   52.3989 C   0  0  0  0  0  0  0  0  0  0  0  0
   69.0272   47.6430   52.7821 C   0  0  0  0  0  0  0  0  0  0  0  0
   68.6590   46.7858   51.7349 C   0  0  0  0  0  0  0  0  0  0  0  0
   67.9323   45.6677   52.0754 C   0  0  0  0  0  0  0  0  0  0  0  0
   67.5829   45.4009   53.3764 C   0  0  0  0  0  0  0  0  0  0  0  0
   67.9636   46.2768   54.4076 C   0  0  0  0  0  0  0  0  0  0  0  0
   68.6945   47.4099   54.1007 C   0  0  0  0  0  0  0  0  0  0  0  0
  7  8  2  0
  8  9  1  0
  8 10  1  0
  9  1  1  0
  1  2  2  0
  1  6  1  0
  2  3  1  0
  3  4  2  0
  4  5  1  0
  5 16  1  0
  5  6  2  0
 16 17  1  0
 17 18  2  0
 17 19  1  0
 19 20  2  0
 19 28  1  0
 20 21  1  0
 21 22  2  0
 22 23  1  0
 23 24  1  0
 23 28  2  0
 24 25  2  0
 25 26  1  0
 26 27  2  0
 27 28  1  0
 10 11  2  0
 10 15  1  0
 11 12  1  0
 12 13  2  0
 13 14  1  0
 14 15  2  0
M  CHG  1   5   1
M  END
>  <minimizedAffinity>  (126) 
-9.15312

$$$$
data/200k_reference_output/data/smiles/32144.pdb
     RDKit          3D

 29 31  0  0  0  0  0  0  0  0999 V2000
   71.9783   50.4843   58.5487 C   0  0  0  0  0  0  0  0  0  0  0  0
   70.7877   50.1006   57.8706 N   0  0  0  0  0  0  0  0  0  0  0  0
   69.8264   51.0476   57.4316 C   0  0  0  0  0  0  0  0  0  0  0  0
   70.1558   52.2410   57.4899 O   0  0  0  0  0  0  0  0  0  0  0  0
   68.4616   50.7766   56.9069 C   0  0  2  0  0  0  0  0  0  0  0  0
   67.6001   50.3149   57.9257 O   0  0  0  0  0  0  0  0  0  0  0  0
   68.4773   49.8451   55.7828 N   0  0  0  0  0  0  0  0  0  0  0  0
   69.0969   48.6796   55.7048 C   0  0  0  0  0  0  0  0  0  0  0  0
   69.8229   48.0301   56.7866 C   0  0  0  0  0  0  0  0  0  0  0  0
   69.6727   46.6684   56.8244 C   0  0  0  0  0  0  0  0  0  0  0  0
   70.3270   45.8738   57.7649 C   0  0  0  0  0  0  0  0  0  0  0  0
   71.1378   46.5374   58.6615 C   0  0  0  0  0  0  0  0  0  0  0  0
   71.3023   47.9242   58.6447 C   0  0  0  0  0  0  0  0  0  0  0  0
   70.6358   48.6671   57.7013 C   0  0  0  0  0  0  0  0  0  0  0  0
   68.9734   47.9267   54.4737 C   0  0  0  0  0  0  0  0  0  0  0  0
   68.1507   46.8887   54.2278 C   0  0  0  0  0  0  0  0  0  0  0  0
   68.0341   46.2856   52.9985 C   0  0  0  0  0  0  0  0  0  0  0  0
   68.8001   46.7657   51.9649 C   0  0  0  0  0  0  0  0  0  0  0  0
   69.6511   47.8221   52.1849 C   0  0  0  0  0  0  0  0  0  0  0  0
   69.7662   48.4242   53.4106 C   0  0  0  0  0  0  0  0  0  0  0  0
   70.1220   44.4524   57.7528 C   0  0  0  0  0  0  0  0  0  0  0  0
   69.9621   43.2377   57.7569 C   0  0  0  0  0  0  0  0  0  0  0  0
   69.7456   41.7691   57.7610 C   0  0  0  0  0  0  0  0  0  0  0  0
   68.2421   41.4816   57.7086 C   0  0  0  0  0  0  0  0  0  0  0  0
   67.5664   42.2463   56.5947 C   0  0  0  0  0  0  0  0  0  0  0  0
   67.1070   41.2828   55.5802 C   0  0  0  0  0  0  0  0  0  0  0  0
   67.6959   40.1842   55.4591 O   0  0  0  0  0  0  0  0  0  0  0  0
   65.9906   41.5755   54.7197 N   0  0  0  0  0  0  0  0  0  0  0  0
   65.5834   40.6706   53.7957 O   0  0  0  0  0  0  0  0  0  0  0  0
  1  2  1  0
  2  3  1  0
  2 14  1  0
  3  4  2  0
  3  5  1  0
  5  6  1  1
  5  7  1  0
  7  8  2  0
  8 15  1  0
  8  9  1  0
 15 16  2  0
 15 20  1  0
 16 17  1  0
 17 18  2  0
 18 19  1  0
 19 20  2  0
  9 10  2  0
  9 14  1  0
 10 11  1  0
 11 21  1  0
 11 12  2  0
 21 22  3  0
 22 23  1  0
 23 24  1  0
 24 25  1  0
 25 26  1  0
 26 27  2  0
 26 28  1  0
 28 29  1  0
 12 13  1  0
 13 14  2  0
M  END
>  <minimizedAffinity>  (127) 
-9.14279

$$$$
data/200k_reference_output/data/smiles/52362.pdb
     RDKit          3D

 28 31  0  0  0  0  0  0  0  0999 V2000
   71.7474   50.5466   56.1196 C   0  0  0  0  0  0  0  0  0  0  0  0
   71.7452   49.5743   57.0884 C   0  0  0  0  0  0  0  0  0  0  0  0
   70.8391   48.5254   57.1133 C   0  0  0  0  0  0  0  0  0  0  0  0
   69.9017   48.4699   56.1109 C   0  0  0  0  0  0  0  0  0  0  0  0
   69.9040   49.4434   55.1402 C   0  0  0  0  0  0  0  0  0  0  0  0
   70.8057   50.4805   55.1228 C   0  0  0  0  0  0  0  0  0  0  0  0
   68.7231   47.1565   56.0974 S   0  0  0  0  0  0  0  0  0  0  0  0
   69.3583   45.9939   56.7817 O   0  0  0  0  0  0  0  0  0  0  0  0
   67.4420   47.5559   56.7450 O   0  0  0  0  0  0  0  0  0  0  0  0
   68.4747   46.7378   54.4172 C   0  0  0  0  0  0  0  0  0  0  0  0
   68.9894   47.4787   53.3731 C   0  0  0  0  0  0  0  0  0  0  0  0
   68.7761   47.1197   52.0558 C   0  0  0  0  0  0  0  0  0  0  0  0
   68.0321   45.9957   51.7638 C   0  0  0  0  0  0  0  0  0  0  0  0
   67.5207   45.2579   52.7939 C   0  0  0  0  0  0  0  0  0  0  0  0
   67.7373   45.6226   54.1069 C   0  0  0  0  0  0  0  0  0  0  0  0
   72.7093   51.6434   56.1175 C   0  0  0  0  0  0  0  0  0  0  0  0
   74.3755   50.1895   54.3076 O   0  0  0  0  0  0  0  0  0  0  0  0
   74.8849   50.5506   55.3992 C   0  0  0  0  0  0  0  0  0  0  0  0
   74.0745   51.2667   56.2937 N   0  0  0  0  0  0  0  0  0  0  0  0
   76.2835   50.2099   55.6753 C   0  0  0  0  0  0  0  0  0  0  0  0
   76.9676   50.7167   56.7169 N   0  0  0  0  0  0  0  0  0  0  0  0
   78.2298   50.2100   56.6997 C   0  0  0  0  0  0  0  0  0  0  0  0
   79.3511   50.3482   57.4751 C   0  0  0  0  0  0  0  0  0  0  0  0
   80.4891   49.6916   57.1907 N   0  0  0  0  0  0  0  0  0  0  0  0
   80.5815   48.8688   56.1323 C   0  0  0  0  0  0  0  0  0  0  0  0
   79.4876   48.6892   55.3150 C   0  0  0  0  0  0  0  0  0  0  0  0
   78.3216   49.3623   55.6078 C   0  0  0  0  0  0  0  0  0  0  0  0
   77.0998   49.4010   55.0182 N   0  0  0  0  0  0  0  0  0  0  0  0
 17 18  2  0
 18 19  1  0
 18 20  1  0
 19 16  1  0
 16  1  1  0
  1  2  2  0
  1  6  1  0
  2  3  1  0
  3  4  2  0
  4  7  1  0
  4  5  1  0
  7  8  2  0
  7  9  2  0
  7 10  1  0
 10 11  2  0
 10 15  1  0
 11 12  1  0
 12 13  2  0
 13 14  1  0
 14 15  2  0
  5  6  2  0
 20 21  2  0
 20 28  1  0
 21 22  1  0
 22 23  2  0
 22 27  1  0
 23 24  1  0
 24 25  2  0
 25 26  1  0
 26 27  2  0
 27 28  1  0
M  CHG  1  21   1
M  END
>  <minimizedAffinity>  (128) 
-9.14202

$$$$
data/reference_output_2/data/smiles/148373.pdb
     RDKit          3D

 25 27  0  0  0  0  0  0  0  0999 V2000
   68.5667   46.2969   54.1358 C   0  0  0  0  0  0  0  0  0  0  0  0
   68.2681   45.9843   52.8267 C   0  0  0  0  0  0  0  0  0  0  0  0
   68.5509   46.8615   51.7733 C   0  0  0  0  0  0  0  0  0  0  0  0
   69.1437   48.0812   52.0150 C   0  0  0  0  0  0  0  0  0  0  0  0
   69.4483   48.4082   53.3190 C   0  0  0  0  0  0  0  0  0  0  0  0
   69.1632   47.5339   54.3453 C   0  0  0  0  0  0  0  0  0  0  0  0
   68.4987   45.8323   56.4257 O   0  0  0  0  0  0  0  0  0  0  0  0
   68.2897   45.4148   55.2652 C   0  0  0  0  0  0  0  0  0  0  0  0
   67.7931   44.0948   55.1383 N   0  0  0  0  0  0  0  0  0  0  0  0
   67.5430   43.2809   56.2748 N   0  0  0  0  0  0  0  0  0  0  0  0
   67.8124   42.0397   56.3046 C   0  0  0  0  0  0  0  0  0  0  0  0
   67.5737   41.1671   57.4469 C   0  0  0  0  0  0  0  0  0  0  0  0
   66.7947   41.5535   58.5142 C   0  0  0  0  0  0  0  0  0  0  0  0
   66.5921   40.6980   59.5757 C   0  0  0  0  0  0  0  0  0  0  0  0
   67.1432   39.4639   59.6125 N   0  0  0  0  0  0  0  0  0  0  0  0
   67.9121   39.0555   58.5814 C   0  0  0  0  0  0  0  0  0  0  0  0
   68.1208   39.9051   57.5111 C   0  0  0  0  0  0  0  0  0  0  0  0
   70.2011   49.9621   53.6034 S   0  0  0  0  0  0  0  0  0  0  0  0
   70.0145   50.8756   52.4239 O   0  0  0  0  0  0  0  0  0  0  0  0
   71.6540   49.8392   53.9095 O   0  0  0  0  0  0  0  0  0  0  0  0
   69.3381   50.6959   54.9321 N   0  0  0  0  0  0  0  0  0  0  0  0
   69.1529   52.1029   54.5995 C   0  0  0  0  0  0  0  0  0  0  0  0
   69.1217   52.8567   55.8965 C   0  0  0  0  0  0  0  0  0  0  0  0
   69.4020   51.7865   56.9523 C   0  0  0  0  0  0  0  0  0  0  0  0
   70.1781   50.7733   56.1104 C   0  0  0  0  0  0  0  0  0  0  0  0
  7  8  2  0
  8  9  1  0
  8  1  1  0
  9 10  1  0
 10 11  2  0
 11 12  1  0
 12 13  2  0
 12 17  1  0
 13 14  1  0
 14 15  2  0
 15 16  1  0
 16 17  2  0
  1  2  2  0
  1  6  1  0
  2  3  1  0
  3  4  2  0
  4  5  1  0
  5 18  1  0
  5  6  2  0
 18 19  2  0
 18 20  2  0
 18 21  1  0
 21 22  1  0
 21 25  1  0
 22 23  1  0
 23 24  1  0
 24 25  1  0
M  END
>  <minimizedAffinity>  (129) 
-9.14193

$$$$
data/reference_output_2/data/smiles/163804.pdb
     RDKit          3D

 28 30  0  0  0  0  0  0  0  0999 V2000
   68.3870   41.7574   58.4254 C   0  0  0  0  0  0  0  0  0  0  0  0
   67.3110   42.3004   58.7977 O   0  0  0  0  0  0  0  0  0  0  0  0
   68.8125   42.0493   57.0987 N   0  0  0  0  0  0  0  0  0  0  0  0
   68.0571   42.8963   56.2791 N   0  0  0  0  0  0  0  0  0  0  0  0
   68.5165   44.1857   55.9127 C   0  0  0  0  0  0  0  0  0  0  0  0
   69.6359   44.5575   56.3478 O   0  0  0  0  0  0  0  0  0  0  0  0
   67.7587   45.0622   55.0769 N   0  0  0  0  0  0  0  0  0  0  0  0
   68.2995   46.3386   54.7608 C   0  0  0  0  0  0  0  0  0  0  0  0
   68.3757   47.3424   55.7027 C   0  0  0  0  0  0  0  0  0  0  0  0
   68.9050   48.5786   55.3777 C   0  0  0  0  0  0  0  0  0  0  0  0
   69.3700   48.8259   54.0854 C   0  0  0  0  0  0  0  0  0  0  0  0
   69.2969   47.8297   53.1381 C   0  0  0  0  0  0  0  0  0  0  0  0
   68.7676   46.6140   53.4905 C   0  0  0  0  0  0  0  0  0  0  0  0
   69.7698   48.0759   51.8179 N   0  0  0  0  0  0  0  0  0  0  0  0
   70.0195   47.1563   51.0148 O   0  0  0  0  0  0  0  0  0  0  0  0
   69.9668   49.3632   51.3835 O   0  0  0  0  0  0  0  0  0  0  0  0
   70.0449   41.6573   60.2693 C   0  0  0  0  0  0  0  0  0  0  0  0
   69.1728   40.8563   59.3243 C   0  0  2  0  0  0  0  0  0  0  0  0
   69.9230   40.0088   58.5109 O   0  0  0  0  0  0  0  0  0  0  0  0
   70.3776   38.7552   58.7254 C   0  0  0  0  0  0  0  0  0  0  0  0
   69.7417   37.9523   59.6837 C   0  0  0  0  0  0  0  0  0  0  0  0
   70.1917   36.6715   59.9139 C   0  0  0  0  0  0  0  0  0  0  0  0
   71.2717   36.1879   59.1947 C   0  0  0  0  0  0  0  0  0  0  0  0
   71.9030   36.9697   58.2506 C   0  0  0  0  0  0  0  0  0  0  0  0
   71.4451   38.2547   58.0236 C   0  0  0  0  0  0  0  0  0  0  0  0
   73.0262   36.1900   57.6374 C   0  0  0  0  0  0  0  0  0  0  0  0
   72.5055   34.7627   57.8340 C   0  0  0  0  0  0  0  0  0  0  0  0
   71.9558   34.8549   59.2441 C   0  0  0  0  0  0  0  0  0  0  0  0
 18 17  1  1
 18 19  1  0
 18  1  1  0
 19 20  1  0
 20 21  2  0
 20 25  1  0
 21 22  1  0
 22 23  2  0
 23 24  1  0
 23 28  1  0
 24 25  2  0
 24 26  1  0
 26 27  1  0
 27 28  1  0
  1  2  2  0
  1  3  1  0
  3  4  1  0
  4  5  1  0
  5  6  2  0
  5  7  1  0
  7  8  1  0
  8  9  2  0
  8 13  1  0
  9 10  1  0
 10 11  2  0
 11 12  1  0
 12 14  1  0
 12 13  2  0
 14 15  2  0
 14 16  1  0
M  CHG  2  14   1  16  -1
M  END
>  <minimizedAffinity>  (130) 
-9.14162

$$$$
data/200k_reference_output/data/smiles/69862.pdb
     RDKit          3D

 28 31  0  0  0  0  0  0  0  0999 V2000
   68.9910   46.4604   55.5422 C   0  0  0  0  0  0  0  0  0  0  0  0
   68.2351   45.5519   54.7968 C   0  0  0  0  0  0  0  0  0  0  0  0
   67.8941   45.8254   53.4880 C   0  0  0  0  0  0  0  0  0  0  0  0
   68.2877   46.9879   52.8940 C   0  0  0  0  0  0  0  0  0  0  0  0
   69.0483   47.9272   53.6086 C   0  0  0  0  0  0  0  0  0  0  0  0
   69.3644   47.6231   54.8943 C   0  0  0  0  0  0  0  0  0  0  0  0
   68.9159   46.9404   57.8197 O   0  0  0  0  0  0  0  0  0  0  0  0
   69.3366   46.1529   56.9232 C   0  0  0  0  0  0  0  0  0  0  0  0
   70.1046   45.0473   57.3513 N   0  0  0  0  0  0  0  0  0  0  0  0
   70.4615   44.7131   58.6931 C   0  0  0  0  0  0  0  0  0  0  0  0
   70.1010   43.3305   59.1406 C   0  0  2  0  0  0  0  0  0  0  0  0
   70.2085   42.3248   58.0197 C   0  0  0  0  0  0  0  0  0  0  0  0
   68.9026   42.0019   57.3738 C   0  0  0  0  0  0  0  0  0  0  0  0
   67.7790   41.7508   58.3246 C   0  0  0  0  0  0  0  0  0  0  0  0
   68.2498   41.9537   59.7479 C   0  0  0  0  0  0  0  0  0  0  0  0
   68.8950   43.2280   59.9114 N   0  0  0  0  0  0  0  0  0  0  0  0
   69.4356   49.1582   52.8763 C   0  0  0  0  0  0  0  0  0  0  0  0
   70.3820   50.0186   53.5768 C   0  0  0  0  0  0  0  0  0  0  0  0
   71.7011   49.7133   53.5216 N   0  0  0  0  0  0  0  0  0  0  0  0
   72.6451   50.4484   54.0908 N   0  0  0  0  0  0  0  0  0  0  0  0
   72.3172   51.5613   54.7655 C   0  0  0  0  0  0  0  0  0  0  0  0
   73.1774   52.3080   55.3315 O   0  0  0  0  0  0  0  0  0  0  0  0
   70.9896   51.9220   54.8560 C   0  0  0  0  0  0  0  0  0  0  0  0
   70.0118   51.1390   54.2546 C   0  0  0  0  0  0  0  0  0  0  0  0
   68.6067   51.5789   54.4302 C   0  0  0  0  0  0  0  0  0  0  0  0
   68.4193   51.8812   55.9287 C   0  0  0  0  0  0  0  0  0  0  0  0
   69.3599   52.9076   56.4451 C   0  0  0  0  0  0  0  0  0  0  0  0
   70.5501   53.1457   55.5791 C   0  0  0  0  0  0  0  0  0  0  0  0
  7  8  2  0
  8  9  1  0
  8  1  1  0
  9 10  1  0
 11 10  1  6
 11 12  1  0
 11 16  1  0
 12 13  1  0
 13 14  1  0
 14 15  1  0
 15 16  1  0
  1  2  2  0
  1  6  1  0
  2  3  1  0
  3  4  2  0
  4  5  1  0
  5 17  1  0
  5  6  2  0
 17 18  1  0
 18 19  2  0
 18 24  1  0
 19 20  1  0
 20 21  1  0
 21 22  2  0
 21 23  1  0
 23 24  2  0
 23 28  1  0
 24 25  1  0
 25 26  1  0
 26 27  1  0
 27 28  1  0
M  CHG  1  16   1
M  END
>  <minimizedAffinity>  (131) 
-9.14040

$$$$
data/200k_reference_output/data/smiles/212.pdb
     RDKit          3D

 27 29  0  0  0  0  0  0  0  0999 V2000
   71.3437   48.4623   58.6266 O   0  0  0  0  0  0  0  0  0  0  0  0
   70.3996   48.0284   57.9214 C   0  0  0  0  0  0  0  0  0  0  0  0
   70.1700   46.6263   57.9138 N   0  0  0  0  0  0  0  0  0  0  0  0
   69.5698   48.9776   57.1337 C   0  0  0  0  0  0  0  0  0  0  0  0
   69.4560   48.5942   55.7586 N   0  0  0  0  0  0  0  0  0  0  0  0
   70.1470   49.2202   54.7708 C   0  0  0  0  0  0  0  0  0  0  0  0
   70.0201   48.8308   53.4540 C   0  0  0  0  0  0  0  0  0  0  0  0
   69.1812   47.7882   53.1029 C   0  0  0  0  0  0  0  0  0  0  0  0
   69.0380   47.3782   51.7761 C   0  0  0  0  0  0  0  0  0  0  0  0
   68.2051   46.3399   51.4140 C   0  0  0  0  0  0  0  0  0  0  0  0
   67.5121   45.7168   52.4305 C   0  0  0  0  0  0  0  0  0  0  0  0
   67.6393   46.1063   53.7483 C   0  0  0  0  0  0  0  0  0  0  0  0
   68.4824   47.1541   54.0980 C   0  0  0  0  0  0  0  0  0  0  0  0
   68.6460   47.5820   55.3927 C   0  0  0  0  0  0  0  0  0  0  0  0
   67.9885   46.9770   56.2801 O   0  0  0  0  0  0  0  0  0  0  0  0
   70.9784   45.7006   58.6649 C   0  0  0  0  0  0  0  0  0  0  0  0
   70.3529   44.3618   58.6262 C   0  0  0  0  0  0  0  0  0  0  0  0
   69.5973   43.9746   59.5990 O   0  0  0  0  0  0  0  0  0  0  0  0
   70.4912   43.4121   57.5902 N   0  0  0  0  0  0  0  0  0  0  0  0
   69.8346   42.1352   57.6731 C   0  0  0  0  0  0  0  0  0  0  0  0
   70.3290   41.0580   58.3690 C   0  0  0  0  0  0  0  0  0  0  0  0
   69.6367   39.8431   58.4084 C   0  0  0  0  0  0  0  0  0  0  0  0
   68.4359   39.6939   57.7482 C   0  0  0  0  0  0  0  0  0  0  0  0
   67.7850   38.5037   57.8022 F   0  0  0  0  0  0  0  0  0  0  0  0
   67.9409   40.7743   57.0504 C   0  0  0  0  0  0  0  0  0  0  0  0
   68.6358   41.9722   57.0194 C   0  0  0  0  0  0  0  0  0  0  0  0
   68.0783   42.9786   56.3113 F   0  0  0  0  0  0  0  0  0  0  0  0
  1  2  2  0
  2  4  1  0
  2  3  1  0
  4  5  1  0
  5  6  1  0
  5 14  1  0
  6  7  2  0
  7  8  1  0
  8  9  2  0
  8 13  1  0
  9 10  1  0
 10 11  2  0
 11 12  1  0
 12 13  2  0
 13 14  1  0
 14 15  2  0
  3 16  1  0
 16 17  1  0
 17 18  2  0
 17 19  1  0
 19 20  1  0
 20 21  2  0
 20 26  1  0
 21 22  1  0
 22 23  2  0
 23 24  1  0
 23 25  1  0
 25 26  2  0
 26 27  1  0
M  END
>  <minimizedAffinity>  (132) 
-9.13312

$$$$
data/200k_reference_output/data/smiles/9981.pdb
     RDKit          3D

 26 28  0  0  0  0  0  0  0  0999 V2000
   71.5521   43.9881   57.6877 C   0  0  2  0  0  0  0  0  0  0  0  0
   72.4277   45.0573   58.2586 C   0  0  0  0  0  0  0  0  0  0  0  0
   71.6385   46.1815   58.9118 C   0  0  0  0  0  0  0  0  0  0  0  0
   70.6111   46.7619   57.9421 C   0  0  0  0  0  0  0  0  0  0  0  0
   69.8748   45.6562   57.3618 N   0  0  0  0  0  0  0  0  0  0  0  0
   69.0119   45.8085   56.2817 C   0  0  0  0  0  0  0  0  0  0  0  0
   68.3943   44.8293   55.8143 O   0  0  0  0  0  0  0  0  0  0  0  0
   70.0889   44.3677   57.9700 C   0  0  0  0  0  0  0  0  0  0  0  0
   71.8442   42.6150   58.1465 C   0  0  0  0  0  0  0  0  0  0  0  0
   70.8077   41.5934   58.2741 C   0  0  0  0  0  0  0  0  0  0  0  0
   68.7446   39.4651   58.1446 C   0  0  0  0  0  0  0  0  0  0  0  0
   70.2005   39.2123   58.4184 C   0  0  0  0  0  0  0  0  0  0  0  0
   70.6008   37.8860   58.6219 C   0  0  0  0  0  0  0  0  0  0  0  0
   71.9021   37.5603   58.9217 C   0  0  0  0  0  0  0  0  0  0  0  0
   72.8216   38.5944   59.0206 C   0  0  0  0  0  0  0  0  0  0  0  0
   72.4468   39.8899   58.8250 C   0  0  0  0  0  0  0  0  0  0  0  0
   71.1423   40.2077   58.5232 C   0  0  0  0  0  0  0  0  0  0  0  0
   68.8185   47.1432   55.6746 C   0  0  0  0  0  0  0  0  0  0  0  0
   68.7863   47.1049   54.2081 C   0  0  0  0  0  0  0  0  0  0  0  0
   67.8989   46.2818   53.5471 C   0  0  0  0  0  0  0  0  0  0  0  0
   67.8327   46.2113   52.1755 C   0  0  0  0  0  0  0  0  0  0  0  0
   67.0428   45.4791   51.5451 O   0  0  0  0  0  0  0  0  0  0  0  0
   68.6775   46.9869   51.4822 N   0  0  0  0  0  0  0  0  0  0  0  0
   69.5527   47.7972   52.0947 C   0  0  0  0  0  0  0  0  0  0  0  0
   70.4169   48.5904   51.3010 N   0  0  0  0  0  0  0  0  0  0  0  0
   69.6013   47.8507   53.4566 N   0  0  0  0  0  0  0  0  0  0  0  0
 11 12  1  0
 12 13  2  0
 12 17  1  0
 13 14  1  0
 14 15  2  0
 15 16  1  0
 16 17  2  0
 17 10  1  0
 10  9  1  0
  1  9  1  1
  1  2  1  0
  1  8  1  0
  2  3  1  0
  3  4  1  0
  4  5  1  0
  5  6  1  0
  5  8  1  0
  6  7  2  0
  6 18  1  0
 18 19  1  0
 19 20  2  0
 19 26  1  0
 20 21  1  0
 21 22  2  0
 21 23  1  0
 23 24  1  0
 24 25  1  0
 24 26  2  0
M  END
>  <minimizedAffinity>  (133) 
-9.13312

$$$$
data/reference_output_2/data/smiles/154887.pdb
     RDKit          3D

 29 32  0  0  0  0  0  0  0  0999 V2000
   68.0400   48.6771   57.3976 C   0  0  2  0  0  0  0  0  0  0  0  0
   67.0118   49.6262   57.8555 C   0  0  0  0  0  0  0  0  0  0  0  0
   67.5341   50.9435   57.3352 C   0  0  0  0  0  0  0  0  0  0  0  0
   68.9942   50.7787   57.7070 C   0  0  0  0  0  0  0  0  0  0  0  0
   69.9723   51.7086   57.9868 C   0  0  0  0  0  0  0  0  0  0  0  0
   71.2630   51.3670   58.3108 C   0  0  0  0  0  0  0  0  0  0  0  0
   71.5182   49.9808   58.3373 C   0  0  0  0  0  0  0  0  0  0  0  0
   70.5673   49.0485   58.0650 C   0  0  0  0  0  0  0  0  0  0  0  0
   69.2924   49.4409   57.7461 C   0  0  0  0  0  0  0  0  0  0  0  0
   68.3452   47.1955   55.3874 C   0  0  0  0  0  0  0  0  0  0  0  0
   68.5002   46.2422   56.2188 O   0  0  0  0  0  0  0  0  0  0  0  0
   68.1057   48.4656   55.9746 N   0  0  0  0  0  0  0  0  0  0  0  0
   70.3105   48.4754   53.7142 N   0  0  0  0  0  0  0  0  0  0  0  0
   69.3581   47.5933   53.1718 C   0  0  0  0  0  0  0  0  0  0  0  0
   68.4128   46.9729   53.9563 C   0  0  0  0  0  0  0  0  0  0  0  0
   67.5408   46.1475   53.3663 N   0  0  0  0  0  0  0  0  0  0  0  0
   67.5799   45.9184   52.0202 C   0  0  0  0  0  0  0  0  0  0  0  0
   66.7613   45.1426   51.4655 O   0  0  0  0  0  0  0  0  0  0  0  0
   68.4989   46.5222   51.2654 N   0  0  0  0  0  0  0  0  0  0  0  0
   69.3847   47.3493   51.8027 C   0  0  0  0  0  0  0  0  0  0  0  0
   70.2443   47.9087   51.0747 O   0  0  0  0  0  0  0  0  0  0  0  0
   72.2677   52.2160   58.5936 O   0  0  0  0  0  0  0  0  0  0  0  0
   72.8837   53.2985   58.0885 C   0  0  0  0  0  0  0  0  0  0  0  0
   73.1737   53.2577   56.6195 C   0  0  0  0  0  0  0  0  0  0  0  0
   73.1375   54.3741   55.8283 C   0  0  0  0  0  0  0  0  0  0  0  0
   73.4015   54.2854   54.4740 C   0  0  0  0  0  0  0  0  0  0  0  0
   73.7047   53.0903   53.8869 C   0  0  0  0  0  0  0  0  0  0  0  0
   73.7352   51.9818   54.7007 C   0  0  0  0  0  0  0  0  0  0  0  0
   73.4816   52.0161   56.0475 C   0  0  0  0  0  0  0  0  0  0  0  0
 13 14  1  0
 14 15  2  0
 14 20  1  0
 15 10  1  0
 15 16  1  0
 10 11  2  0
 10 12  1  0
  1 12  1  6
  1  2  1  0
  1  9  1  0
  2  3  1  0
  3  4  1  0
  4  5  1  0
  4  9  2  0
  5  6  2  0
  6 22  1  0
  6  7  1  0
 22 23  1  0
 23 24  1  0
 24 25  2  0
 24 29  1  0
 25 26  1  0
 26 27  2  0
 27 28  1  0
 28 29  2  0
  7  8  2  0
  8  9  1  0
 16 17  1  0
 17 18  2  0
 17 19  1  0
 19 20  1  0
 20 21  2  0
M  END
>  <minimizedAffinity>  (134) 
-9.12716

$$$$
data/reference_output_2/data/smiles/106934.pdb
     RDKit          3D

 27 29  0  0  0  0  0  0  0  0999 V2000
   69.0609   41.8036   57.3144 C   0  0  0  0  0  0  0  0  0  0  0  0
   68.0026   41.9309   56.4615 C   0  0  0  0  0  0  0  0  0  0  0  0
   67.7187   43.1470   55.7920 C   0  0  0  0  0  0  0  0  0  0  0  0
   68.4719   44.2622   55.9498 C   0  0  0  0  0  0  0  0  0  0  0  0
   69.5718   44.1089   56.8437 C   0  0  0  0  0  0  0  0  0  0  0  0
   69.8335   42.9311   57.4818 C   0  0  0  0  0  0  0  0  0  0  0  0
   70.0808   38.1875   59.3509 C   0  0  0  0  0  0  0  0  0  0  0  0
   71.0132   39.1398   59.0421 C   0  0  0  0  0  0  0  0  0  0  0  0
   70.6886   40.3280   58.3749 C   0  0  0  0  0  0  0  0  0  0  0  0
   69.3898   40.5641   58.0096 C   0  0  0  0  0  0  0  0  0  0  0  0
   68.4479   39.6086   58.3190 C   0  0  0  0  0  0  0  0  0  0  0  0
   68.7584   38.4370   58.9743 C   0  0  0  0  0  0  0  0  0  0  0  0
   71.7359   36.9204   61.3223 N   0  0  0  0  0  0  0  0  0  0  0  0
   70.4427   36.6931   60.1708 S   0  0  0  0  0  0  0  0  0  0  0  0
   70.9953   35.7021   59.1585 O   0  0  0  0  0  0  0  0  0  0  0  0
   69.2454   36.0512   60.7916 O   0  0  0  0  0  0  0  0  0  0  0  0
   68.2863   45.5634   55.3519 C   0  0  0  0  0  0  0  0  0  0  0  0
   68.0569   46.5539   56.1767 O   0  0  0  0  0  0  0  0  0  0  0  0
   68.3027   45.9559   53.9634 C   0  0  0  0  0  0  0  0  0  0  0  0
   67.5791   45.4342   52.9496 C   0  0  0  0  0  0  0  0  0  0  0  0
   67.6670   45.9676   51.6672 C   0  0  0  0  0  0  0  0  0  0  0  0
   68.4737   47.0240   51.3614 C   0  0  0  0  0  0  0  0  0  0  0  0
   69.2171   47.5624   52.3897 C   0  0  0  0  0  0  0  0  0  0  0  0
   69.1362   47.0481   53.6468 C   0  0  0  0  0  0  0  0  0  0  0  0
   70.1037   48.7046   52.0826 C   0  0  0  0  0  0  0  0  0  0  0  0
   71.1279   48.8456   52.7860 O   0  0  0  0  0  0  0  0  0  0  0  0
   69.8578   49.6104   51.0734 O   0  0  0  0  0  0  0  0  0  0  0  0
 13 14  1  0
 14 15  2  0
 14 16  2  0
 14  7  1  0
  7  8  2  0
  7 12  1  0
  8  9  1  0
  9 10  2  0
 10  1  1  0
 10 11  1  0
  1  2  2  0
  1  6  1  0
  2  3  1  0
  3  4  2  0
  4 17  1  0
  4  5  1  0
 17 18  2  0
 17 19  1  0
 19 20  2  0
 19 24  1  0
 20 21  1  0
 21 22  2  0
 22 23  1  0
 23 25  1  0
 23 24  2  0
 25 26  2  0
 25 27  1  0
  5  6  2  0
 11 12  2  0
M  END
>  <minimizedAffinity>  (135) 
-9.12679

$$$$
data/reference_output_2/data/smiles/188113.pdb
     RDKit          3D

 27 29  0  0  0  0  0  0  0  0999 V2000
   70.9070   43.5064   58.9115 S   0  0  0  0  0  0  0  0  0  0  0  0
   70.4147   43.8000   60.3078 O   0  0  0  0  0  0  0  0  0  0  0  0
   72.1791   44.2759   58.7175 O   0  0  0  0  0  0  0  0  0  0  0  0
   71.4733   39.0163   58.4877 C   0  0  0  0  0  0  0  0  0  0  0  0
   72.5198   39.8469   58.9193 C   0  0  0  0  0  0  0  0  0  0  0  0
   72.3643   41.2051   59.0537 C   0  0  0  0  0  0  0  0  0  0  0  0
   71.1473   41.7831   58.7576 C   0  0  0  0  0  0  0  0  0  0  0  0
   70.1286   40.9518   58.3344 C   0  0  0  0  0  0  0  0  0  0  0  0
   70.2614   39.5930   58.1941 C   0  0  0  0  0  0  0  0  0  0  0  0
   73.1440   34.7360   56.6514 C   0  0  0  0  0  0  0  0  0  0  0  0
   72.4453   35.7323   57.5147 C   0  0  0  0  0  0  0  0  0  0  0  0
   71.6999   35.4030   58.6047 C   0  0  0  0  0  0  0  0  0  0  0  0
   71.2237   36.6095   59.1300 C   0  0  0  0  0  0  0  0  0  0  0  0
   70.3734   36.7944   60.3063 C   0  0  0  0  0  0  0  0  0  0  0  0
   71.6822   37.6123   58.3630 N   0  0  0  0  0  0  0  0  0  0  0  0
   72.4144   37.0700   57.3972 N   0  0  0  0  0  0  0  0  0  0  0  0
   69.7195   44.0031   57.7636 N   0  0  0  0  0  0  0  0  0  0  0  0
   69.6684   45.3477   57.2759 C   0  0  0  0  0  0  0  0  0  0  0  0
   70.4960   46.2002   57.6769 O   0  0  0  0  0  0  0  0  0  0  0  0
   68.6914   45.7456   56.3390 N   0  0  0  0  0  0  0  0  0  0  0  0
   68.5376   47.0533   55.7713 C   0  0  0  0  0  0  0  0  0  0  0  0
   68.5511   46.9690   54.2925 C   0  0  0  0  0  0  0  0  0  0  0  0
   67.8014   46.0032   53.6403 C   0  0  0  0  0  0  0  0  0  0  0  0
   67.7588   45.8672   52.2784 C   0  0  0  0  0  0  0  0  0  0  0  0
   68.4914   46.7220   51.4836 C   0  0  0  0  0  0  0  0  0  0  0  0
   69.2625   47.7101   52.0891 C   0  0  0  0  0  0  0  0  0  0  0  0
   69.2750   47.8107   53.4780 C   0  0  0  0  0  0  0  0  0  0  0  0
 10 11  1  0
 11 12  1  0
 11 16  2  0
 12 13  2  0
 13 14  1  0
 13 15  1  0
 15  4  1  0
 15 16  1  0
  4  5  2  0
  4  9  1  0
  5  6  1  0
  6  7  2  0
  7  1  1  0
  7  8  1  0
  1  2  2  0
  1  3  2  0
  1 17  1  0
 17 18  1  0
 18 19  2  0
 18 20  1  0
 20 21  1  0
 21 22  1  0
 22 23  2  0
 22 27  1  0
 23 24  1  0
 24 25  2  0
 25 26  1  0
 26 27  2  0
  8  9  2  0
M  END
>  <minimizedAffinity>  (136) 
-9.12472

$$$$
data/reference_output_2/data/smiles/195216.pdb
     RDKit          3D

 26 28  0  0  0  0  0  0  0  0999 V2000
   68.7740   41.0642   58.6249 O   0  0  0  0  0  0  0  0  0  0  0  0
   70.4673   35.2661   60.6836 C   0  0  0  0  0  0  0  0  0  0  0  0
   71.0179   36.0578   59.5700 C   0  0  0  0  0  0  0  0  0  0  0  0
   72.0487   35.6251   58.7610 C   0  0  0  0  0  0  0  0  0  0  0  0
   72.4947   36.4433   57.7408 C   0  0  0  0  0  0  0  0  0  0  0  0
   73.4357   36.0327   57.0143 O   0  0  0  0  0  0  0  0  0  0  0  0
   71.9445   37.6179   57.5429 O   0  0  0  0  0  0  0  0  0  0  0  0
   70.9602   38.0736   58.2858 C   0  0  0  0  0  0  0  0  0  0  0  0
   70.3942   39.3269   58.0522 C   0  0  0  0  0  0  0  0  0  0  0  0
   69.3643   39.8399   58.8085 C   0  0  0  0  0  0  0  0  0  0  0  0
   68.8927   39.0288   59.8501 C   0  0  0  0  0  0  0  0  0  0  0  0
   69.4453   37.7951   60.0851 C   0  0  0  0  0  0  0  0  0  0  0  0
   70.4737   37.3021   59.3195 C   0  0  0  0  0  0  0  0  0  0  0  0
   67.5066   41.2305   58.0674 C   0  0  0  0  0  0  0  0  0  0  0  0
   67.6309   41.9362   56.7730 C   0  0  0  0  0  0  0  0  0  0  0  0
   67.5183   41.2783   55.7105 O   0  0  0  0  0  0  0  0  0  0  0  0
   67.8749   43.3417   56.7047 N   0  0  0  0  0  0  0  0  0  0  0  0
   67.9790   43.9346   55.4452 N   0  0  0  0  0  0  0  0  0  0  0  0
   68.1988   45.3143   55.2445 C   0  0  0  0  0  0  0  0  0  0  0  0
   68.3019   46.0262   56.2765 O   0  0  0  0  0  0  0  0  0  0  0  0
   68.3105   45.9475   53.9345 C   0  0  0  0  0  0  0  0  0  0  0  0
   69.0990   47.0491   53.6914 C   0  0  0  0  0  0  0  0  0  0  0  0
   69.1693   47.6153   52.4174 C   0  0  0  0  0  0  0  0  0  0  0  0
   68.4560   47.0971   51.3574 C   0  0  0  0  0  0  0  0  0  0  0  0
   67.6667   45.9928   51.6019 C   0  0  0  0  0  0  0  0  0  0  0  0
   67.6049   45.4434   52.8623 C   0  0  0  0  0  0  0  0  0  0  0  0
  2  3  1  0
  3  4  2  0
  3 13  1  0
  4  5  1  0
  5  6  2  0
  5  7  1  0
  7  8  1  0
  8  9  1  0
  8 13  2  0
  9 10  2  0
 10  1  1  0
 10 11  1  0
  1 14  1  0
 14 15  1  0
 15 16  2  0
 15 17  1  0
 17 18  1  0
 18 19  1  0
 19 20  2  0
 19 21  1  0
 21 22  2  0
 21 26  1  0
 22 23  1  0
 23 24  2  0
 24 25  1  0
 25 26  2  0
 11 12  2  0
 12 13  1  0
M  END
>  <minimizedAffinity>  (137) 
-9.12349

$$$$
data/200k_reference_output/data/smiles/30343.pdb
     RDKit          3D

 26 28  0  0  0  0  0  0  0  0999 V2000
   70.0184   43.7807   57.4787 C   0  0  0  0  0  0  0  0  0  0  0  0
   71.1803   43.9496   57.9245 O   0  0  0  0  0  0  0  0  0  0  0  0
   69.2892   44.9191   57.0438 N   0  0  0  0  0  0  0  0  0  0  0  0
   69.2499   40.0789   57.8547 C   0  0  0  0  0  0  0  0  0  0  0  0
   68.0822   40.0376   57.1230 C   0  0  0  0  0  0  0  0  0  0  0  0
   67.5619   41.1784   56.5267 C   0  0  0  0  0  0  0  0  0  0  0  0
   68.2141   42.3827   56.6607 C   0  0  0  0  0  0  0  0  0  0  0  0
   69.4047   42.4690   57.3953 C   0  0  0  0  0  0  0  0  0  0  0  0
   69.8704   41.3287   57.9568 C   0  0  0  0  0  0  0  0  0  0  0  0
   72.4111   36.3371   58.9531 C   0  0  0  0  0  0  0  0  0  0  0  0
   71.2573   37.2708   58.9322 C   0  0  0  0  0  0  0  0  0  0  0  0
   70.1680   37.1805   59.7675 C   0  0  0  0  0  0  0  0  0  0  0  0
   69.3412   38.1905   59.4532 N   0  0  0  0  0  0  0  0  0  0  0  0
   69.8092   38.9299   58.4781 N   0  0  0  0  0  0  0  0  0  0  0  0
   71.0051   38.3697   58.1409 C   0  0  0  0  0  0  0  0  0  0  0  0
   69.8154   46.2105   57.0941 N   0  0  0  0  0  0  0  0  0  0  0  0
   68.9346   47.3979   56.2791 S   0  0  0  0  0  0  0  0  0  0  0  0
   69.3672   48.7982   56.6648 O   0  0  0  0  0  0  0  0  0  0  0  0
   67.4853   47.2750   56.7506 O   0  0  0  0  0  0  0  0  0  0  0  0
   68.8904   47.2705   54.5540 C   0  0  0  0  0  0  0  0  0  0  0  0
   69.4201   48.1761   53.6683 C   0  0  0  0  0  0  0  0  0  0  0  0
   69.3424   47.9782   52.2988 C   0  0  0  0  0  0  0  0  0  0  0  0
   68.7222   46.8514   51.8094 C   0  0  0  0  0  0  0  0  0  0  0  0
   68.1832   45.9288   52.6681 C   0  0  0  0  0  0  0  0  0  0  0  0
   68.2746   46.1516   54.0221 C   0  0  0  0  0  0  0  0  0  0  0  0
   67.7221   45.2015   54.8394 F   0  0  0  0  0  0  0  0  0  0  0  0
 10 11  1  0
 11 12  1  0
 11 15  2  0
 12 13  2  0
 13 14  1  0
 14  4  1  0
 14 15  1  0
  4  5  2  0
  4  9  1  0
  5  6  1  0
  6  7  2  0
  7  8  1  0
  8  1  1  0
  8  9  2  0
  1  2  2  0
  1  3  1  0
  3 16  1  0
 16 17  1  0
 17 18  2  0
 17 19  2  0
 17 20  1  0
 20 21  2  0
 20 25  1  0
 21 22  1  0
 22 23  2  0
 23 24  1  0
 24 25  2  0
 25 26  1  0
M  END
>  <minimizedAffinity>  (138) 
-9.12120

$$$$
data/200k_reference_output/data/smiles/50174.pdb
     RDKit          3D

 27 30  0  0  0  0  0  0  0  0999 V2000
   71.8689   46.6774   58.8999 C   0  0  0  0  0  0  0  0  0  0  0  0
   71.7525   48.0466   58.7971 C   0  0  0  0  0  0  0  0  0  0  0  0
   70.7648   48.6228   57.9837 C   0  0  0  0  0  0  0  0  0  0  0  0
   69.8964   47.8430   57.2746 C   0  0  0  0  0  0  0  0  0  0  0  0
   70.0436   46.4657   57.4033 C   0  0  0  0  0  0  0  0  0  0  0  0
   70.9961   45.8761   58.1888 C   0  0  0  0  0  0  0  0  0  0  0  0
   71.1318   44.4490   58.3086 N   0  0  0  0  0  0  0  0  0  0  0  0
   72.2044   43.6547   57.8349 C   0  0  0  0  0  0  0  0  0  0  0  0
   73.2691   44.0732   57.3174 O   0  0  0  0  0  0  0  0  0  0  0  0
   71.9139   42.2169   58.0288 C   0  0  0  0  0  0  0  0  0  0  0  0
   70.4965   42.1532   58.4991 C   0  0  0  0  0  0  0  0  0  0  0  0
   70.2232   43.5499   58.9228 C   0  0  0  0  0  0  0  0  0  0  0  0
   69.3192   43.9495   59.7188 O   0  0  0  0  0  0  0  0  0  0  0  0
   72.9279   46.4240   61.0369 C   0  0  0  0  0  0  0  0  0  0  0  0
   72.8298   46.0659   59.6919 O   0  0  0  0  0  0  0  0  0  0  0  0
   68.8241   48.3076   56.3743 C   0  0  0  0  0  0  0  0  0  0  0  0
   69.2680   48.3518   54.9721 C   0  0  0  0  0  0  0  0  0  0  0  0
   70.1524   49.3195   54.5881 N   0  0  0  0  0  0  0  0  0  0  0  0
   70.5760   49.4712   53.3566 N   0  0  0  0  0  0  0  0  0  0  0  0
   70.1407   48.6495   52.3789 C   0  0  0  0  0  0  0  0  0  0  0  0
   70.5783   48.8397   51.2124 O   0  0  0  0  0  0  0  0  0  0  0  0
   69.2471   47.6390   52.6602 C   0  0  0  0  0  0  0  0  0  0  0  0
   68.8265   46.8057   51.6568 C   0  0  0  0  0  0  0  0  0  0  0  0
   67.9474   45.8052   51.9861 C   0  0  0  0  0  0  0  0  0  0  0  0
   67.4917   45.6259   53.2765 C   0  0  0  0  0  0  0  0  0  0  0  0
   67.9383   46.4899   54.2752 C   0  0  0  0  0  0  0  0  0  0  0  0
   68.8199   47.5096   53.9916 C   0  0  0  0  0  0  0  0  0  0  0  0
 14 15  1  0
 15  1  1  0
  1  2  2  0
  1  6  1  0
  2  3  1  0
  3  4  2  0
  4 16  1  0
  4  5  1  0
 16 17  1  0
 17 18  2  0
 17 27  1  0
 18 19  1  0
 19 20  1  0
 20 21  2  0
 20 22  1  0
 22 23  1  0
 22 27  2  0
 23 24  2  0
 24 25  1  0
 25 26  2  0
 26 27  1  0
  5  6  2  0
  6  7  1  0
  7  8  1  0
  7 12  1  0
  8  9  2  0
  8 10  1  0
 10 11  1  0
 11 12  1  0
 12 13  2  0
M  END
>  <minimizedAffinity>  (139) 
-9.11976

$$$$
data/reference_output_2/data/smiles/107318.pdb
     RDKit          3D

 25 27  0  0  0  0  0  0  0  0999 V2000
   69.5362   48.0657   57.3357 C   0  0  0  0  0  0  0  0  0  0  0  0
   68.2727   48.5801   57.5208 C   0  0  0  0  0  0  0  0  0  0  0  0
   67.9072   49.7936   56.9906 C   0  0  0  0  0  0  0  0  0  0  0  0
   68.8029   50.5687   56.2355 C   0  0  0  0  0  0  0  0  0  0  0  0
   70.0540   50.0214   56.0730 C   0  0  0  0  0  0  0  0  0  0  0  0
   70.4356   48.8067   56.5971 C   0  0  0  0  0  0  0  0  0  0  0  0
   71.0333   50.8328   55.2552 C   0  0  0  0  0  0  0  0  0  0  0  0
   70.1504   51.3244   54.0974 C   0  0  2  0  0  0  0  0  0  0  0  0
   69.3159   52.4228   54.7036 C   0  0  0  0  0  0  0  0  0  0  0  0
   68.3479   51.8707   55.7014 C   0  0  0  0  0  0  0  0  0  0  0  0
   69.6740   45.7027   57.2686 O   0  0  0  0  0  0  0  0  0  0  0  0
   69.9560   46.7794   57.8847 C   0  0  0  0  0  0  0  0  0  0  0  0
   70.6792   46.6300   59.0936 N   0  0  0  0  0  0  0  0  0  0  0  0
   71.0530   45.4087   59.5700 O   0  0  0  0  0  0  0  0  0  0  0  0
   69.2853   50.3468   53.5732 N   0  0  0  0  0  0  0  0  0  0  0  0
   69.9568   49.2119   52.5028 S   0  0  0  0  0  0  0  0  0  0  0  0
   69.7643   49.7068   51.0959 O   0  0  0  0  0  0  0  0  0  0  0  0
   71.3983   48.9167   52.7792 O   0  0  0  0  0  0  0  0  0  0  0  0
   69.0661   47.7228   52.6757 C   0  0  0  0  0  0  0  0  0  0  0  0
   68.5500   47.1162   51.5551 C   0  0  0  0  0  0  0  0  0  0  0  0
   67.8327   45.9377   51.6045 C   0  0  0  0  0  0  0  0  0  0  0  0
   67.6238   45.3460   52.8083 C   0  0  0  0  0  0  0  0  0  0  0  0
   68.1191   45.9123   53.9612 C   0  0  0  0  0  0  0  0  0  0  0  0
   67.8959   45.2989   55.1509 F   0  0  0  0  0  0  0  0  0  0  0  0
   68.8442   47.1081   53.8864 C   0  0  0  0  0  0  0  0  0  0  0  0
 11 12  2  0
 12 13  1  0
 12  1  1  0
 13 14  1  0
  1  2  2  0
  1  6  1  0
  2  3  1  0
  3  4  2  0
  4  5  1  0
  4 10  1  0
  5  6  2  0
  5  7  1  0
  7  8  1  0
  8 15  1  1
  8  9  1  0
 15 16  1  0
 16 17  2  0
 16 18  2  0
 16 19  1  0
 19 20  2  0
 19 25  1  0
 20 21  1  0
 21 22  2  0
 22 23  1  0
 23 24  1  0
 23 25  2  0
  9 10  1  0
M  END
>  <minimizedAffinity>  (140) 
-9.11906

$$$$
data/reference_output_2/data/smiles/132940.pdb
     RDKit          3D

 27 29  0  0  0  0  0  0  0  0999 V2000
   68.9940   42.8348   57.2323 C   0  0  0  0  0  0  0  0  0  0  0  0
   67.8130   42.4324   57.3611 O   0  0  0  0  0  0  0  0  0  0  0  0
   69.2262   44.0555   56.5674 N   0  0  0  0  0  0  0  0  0  0  0  0
   71.2642   40.0463   58.4139 C   0  0  0  0  0  0  0  0  0  0  0  0
   72.3590   40.8004   58.7641 C   0  0  0  0  0  0  0  0  0  0  0  0
   72.3561   42.1900   58.6174 C   0  0  0  0  0  0  0  0  0  0  0  0
   71.2432   42.8096   58.1166 C   0  0  0  0  0  0  0  0  0  0  0  0
   70.1113   42.0712   57.7501 C   0  0  0  0  0  0  0  0  0  0  0  0
   70.1548   40.7205   57.9085 C   0  0  0  0  0  0  0  0  0  0  0  0
   72.5819   35.3715   57.6417 C   0  0  0  0  0  0  0  0  0  0  0  0
   71.8798   36.5403   58.2605 C   0  0  0  0  0  0  0  0  0  0  0  0
   70.9753   36.5464   59.2918 C   0  0  0  0  0  0  0  0  0  0  0  0
   70.6391   37.8855   59.4659 C   0  0  0  0  0  0  0  0  0  0  0  0
   69.6784   38.3481   60.4890 C   0  0  0  0  0  0  0  0  0  0  0  0
   71.3119   38.6393   58.5794 N   0  0  0  0  0  0  0  0  0  0  0  0
   72.0570   37.7897   57.8627 N   0  0  0  0  0  0  0  0  0  0  0  0
   68.1904   44.8409   56.0448 N   0  0  0  0  0  0  0  0  0  0  0  0
   68.6402   46.4865   56.0025 S   0  0  0  0  0  0  0  0  0  0  0  0
   67.5466   47.3524   56.5756 O   0  0  0  0  0  0  0  0  0  0  0  0
   69.8890   46.7167   56.8036 O   0  0  0  0  0  0  0  0  0  0  0  0
   68.8533   46.9813   54.3327 C   0  0  0  0  0  0  0  0  0  0  0  0
   69.5528   48.1144   53.9744 C   0  0  0  0  0  0  0  0  0  0  0  0
   69.7209   48.5057   52.6612 C   0  0  0  0  0  0  0  0  0  0  0  0
   69.1800   47.7524   51.6402 C   0  0  0  0  0  0  0  0  0  0  0  0
   68.4759   46.6135   51.9701 C   0  0  0  0  0  0  0  0  0  0  0  0
   68.3130   46.2324   53.2857 C   0  0  0  0  0  0  0  0  0  0  0  0
   67.6237   45.1178   53.6020 F   0  0  0  0  0  0  0  0  0  0  0  0
 10 11  1  0
 11 12  1  0
 11 16  2  0
 12 13  2  0
 13 14  1  0
 13 15  1  0
 15  4  1  0
 15 16  1  0
  4  5  2  0
  4  9  1  0
  5  6  1  0
  6  7  2  0
  7  8  1  0
  8  1  1  0
  8  9  2  0
  1  2  2  0
  1  3  1  0
  3 17  1  0
 17 18  1  0
 18 19  2  0
 18 20  2  0
 18 21  1  0
 21 22  2  0
 21 26  1  0
 22 23  1  0
 23 24  2  0
 24 25  1  0
 25 26  2  0
 26 27  1  0
M  END
>  <minimizedAffinity>  (141) 
-9.11716

$$$$
data/reference_output_2/data/smiles/128048.pdb
     RDKit          3D

 29 32  0  0  0  0  0  0  0  0999 V2000
   68.5604   38.9976   57.6517 O   0  0  0  0  0  0  0  0  0  0  0  0
   67.8734   39.8096   58.3299 C   0  0  0  0  0  0  0  0  0  0  0  0
   66.9990   39.3422   59.2418 N   0  0  0  0  0  0  0  0  0  0  0  0
   66.2913   40.2473   59.9379 C   0  0  0  0  0  0  0  0  0  0  0  0
   65.4396   39.8008   60.8258 C   0  0  0  0  0  0  0  0  0  0  0  0
   66.4833   41.6118   59.6936 C   0  0  0  0  0  0  0  0  0  0  0  0
   65.7976   42.4159   60.3701 O   0  0  0  0  0  0  0  0  0  0  0  0
   67.3661   42.0424   58.7735 N   0  0  0  0  0  0  0  0  0  0  0  0
   68.0717   41.1552   58.0807 C   0  0  0  0  0  0  0  0  0  0  0  0
   68.9279   41.6142   57.1874 C   0  0  0  0  0  0  0  0  0  0  0  0
   69.0960   43.0449   56.9660 C   0  0  0  0  0  0  0  0  0  0  0  0
   70.0802   43.6663   57.7060 C   0  0  0  0  0  0  0  0  0  0  0  0
   70.3620   45.0092   57.6117 C   0  0  0  0  0  0  0  0  0  0  0  0
   69.5975   45.7507   56.7147 C   0  0  0  0  0  0  0  0  0  0  0  0
   68.6127   45.1282   55.9753 C   0  0  0  0  0  0  0  0  0  0  0  0
   68.3470   43.7787   56.0849 C   0  0  0  0  0  0  0  0  0  0  0  0
   67.8873   45.9264   55.0999 O   0  0  0  0  0  0  0  0  0  0  0  0
   68.4847   46.6637   54.0970 C   0  0  0  0  0  0  0  0  0  0  0  0
   68.5624   46.1869   52.8094 C   0  0  0  0  0  0  0  0  0  0  0  0
   69.1716   46.9559   51.8226 C   0  0  0  0  0  0  0  0  0  0  0  0
   69.7000   48.2089   52.1512 C   0  0  0  0  0  0  0  0  0  0  0  0
   70.2970   48.9759   51.2103 F   0  0  0  0  0  0  0  0  0  0  0  0
   69.6240   48.6875   53.4333 C   0  0  0  0  0  0  0  0  0  0  0  0
   69.0139   47.9025   54.3910 C   0  0  0  0  0  0  0  0  0  0  0  0
   65.2719   38.3486   61.0471 C   0  0  0  0  0  0  0  0  0  0  0  0
   65.8907   37.5654   61.9255 N   0  0  0  0  0  0  0  0  0  0  0  0
   65.4017   36.3263   61.7444 C   0  0  0  0  0  0  0  0  0  0  0  0
   64.4621   36.3392   60.7354 C   0  0  0  0  0  0  0  0  0  0  0  0
   64.4062   37.6254   60.3208 N   0  0  0  0  0  0  0  0  0  0  0  0
  1  2  2  0
  2  3  1  0
  2  9  1  0
  3  4  1  0
  4  5  2  0
  4  6  1  0
  5 25  1  0
 25 26  2  0
 25 29  1  0
 26 27  1  0
 27 28  2  0
 28 29  1  0
  6  7  2  0
  6  8  1  0
  8  9  1  0
  9 10  2  0
 10 11  1  0
 11 12  2  0
 11 16  1  0
 12 13  1  0
 13 14  2  0
 14 15  1  0
 15 17  1  0
 15 16  2  0
 17 18  1  0
 18 19  2  0
 18 24  1  0
 19 20  1  0
 20 21  2  0
 21 22  1  0
 21 23  1  0
 23 24  2  0
M  CHG  1  26   1
M  END
>  <minimizedAffinity>  (142) 
-9.10918

$$$$
data/reference_output_2/data/smiles/118732.pdb
     RDKit          3D

 27 30  0  0  0  0  0  0  0  0999 V2000
   71.4259   47.0791   58.7887 C   0  0  0  0  0  0  0  0  0  0  0  0
   70.6464   47.8531   57.9602 C   0  0  0  0  0  0  0  0  0  0  0  0
   69.7718   47.3369   57.0331 C   0  0  0  0  0  0  0  0  0  0  0  0
   69.6667   45.9746   56.9252 C   0  0  0  0  0  0  0  0  0  0  0  0
   70.4279   45.1614   57.7341 C   0  0  0  0  0  0  0  0  0  0  0  0
   71.3014   45.6960   58.6598 C   0  0  0  0  0  0  0  0  0  0  0  0
   72.0392   44.8767   59.4437 F   0  0  0  0  0  0  0  0  0  0  0  0
   71.9563   47.7335   60.9501 O   0  0  0  0  0  0  0  0  0  0  0  0
   72.3488   47.6486   59.7662 C   0  0  0  0  0  0  0  0  0  0  0  0
   73.6542   48.1088   59.4636 N   0  0  0  0  0  0  0  0  0  0  0  0
   74.4336   48.6432   60.5555 C   0  0  0  0  0  0  0  0  0  0  0  0
   74.4062   50.1650   60.4617 C   0  0  0  0  0  0  0  0  0  0  0  0
   74.6030   50.5182   58.9825 C   0  0  0  0  0  0  0  0  0  0  0  0
   75.6764   49.6885   58.5047 N   0  0  0  0  0  0  0  0  0  0  0  0
   75.2556   48.6113   57.6638 C   0  0  0  0  0  0  0  0  0  0  0  0
   73.9870   47.9546   58.0610 C   0  0  0  0  0  0  0  0  0  0  0  0
   68.9865   48.2534   56.1997 C   0  0  0  0  0  0  0  0  0  0  0  0
   69.3149   48.2925   54.7824 C   0  0  0  0  0  0  0  0  0  0  0  0
   70.2186   49.2584   54.3767 C   0  0  0  0  0  0  0  0  0  0  0  0
   70.6120   49.4086   53.0986 N   0  0  0  0  0  0  0  0  0  0  0  0
   70.1186   48.5980   52.1679 C   0  0  0  0  0  0  0  0  0  0  0  0
   70.4893   48.7387   50.9653 O   0  0  0  0  0  0  0  0  0  0  0  0
   69.2243   47.6328   52.5358 C   0  0  0  0  0  0  0  0  0  0  0  0
   68.5825   46.6841   51.7503 C   0  0  0  0  0  0  0  0  0  0  0  0
   67.7885   45.9688   52.6534 C   0  0  0  0  0  0  0  0  0  0  0  0
   67.9646   46.4851   53.9132 C   0  0  0  0  0  0  0  0  0  0  0  0
   68.8315   47.4894   53.8363 N   0  0  0  0  0  0  0  0  0  0  0  0
  8  9  2  0
  9  1  1  0
  9 10  1  0
  1  2  2  0
  1  6  1  0
  2  3  1  0
  3 17  1  0
  3  4  2  0
 17 18  1  0
 18 19  2  0
 18 27  1  0
 19 20  1  0
 20 21  1  0
 21 22  2  0
 21 23  1  0
 23 24  2  0
 23 27  1  0
 24 25  1  0
 25 26  2  0
 26 27  1  0
  4  5  1  0
  5  6  2  0
  6  7  1  0
 10 11  1  0
 10 16  1  0
 11 12  1  0
 12 13  1  0
 13 14  1  0
 14 15  1  0
 15 16  1  0
M  CHG  1  14   1
M  END
>  <minimizedAffinity>  (143) 
-9.10749

$$$$
data/reference_output_2/data/smiles/94508.pdb
     RDKit          3D

 27 31  0  0  0  0  0  0  0  0999 V2000
   71.4227   47.2946   57.9347 O   0  0  0  0  0  0  0  0  0  0  0  0
   71.0970   46.0647   57.8954 C   0  0  0  0  0  0  0  0  0  0  0  0
   71.9614   45.1065   58.2821 N   0  0  0  0  0  0  0  0  0  0  0  0
   71.6348   43.7905   58.2478 C   0  0  0  0  0  0  0  0  0  0  0  0
   72.5180   42.7984   58.6438 C   0  0  0  0  0  0  0  0  0  0  0  0
   72.1764   41.4577   58.6057 C   0  0  0  0  0  0  0  0  0  0  0  0
   73.0399   40.4826   58.9918 N   0  0  0  0  0  0  0  0  0  0  0  0
   72.7002   39.1807   58.9512 C   0  0  0  0  0  0  0  0  0  0  0  0
   73.5822   38.1775   59.3458 C   0  0  0  0  0  0  0  0  0  0  0  0
   73.2475   36.8403   59.3094 C   0  0  0  0  0  0  0  0  0  0  0  0
   71.9858   36.5103   58.8599 C   0  0  0  0  0  0  0  0  0  0  0  0
   71.0907   37.5095   58.4611 C   0  0  0  0  0  0  0  0  0  0  0  0
   71.4398   38.8490   58.5025 C   0  0  0  0  0  0  0  0  0  0  0  0
   70.5802   39.8232   58.1175 N   0  0  0  0  0  0  0  0  0  0  0  0
   70.9130   41.1263   58.1561 C   0  0  0  0  0  0  0  0  0  0  0  0
   70.0376   42.1272   57.7627 C   0  0  0  0  0  0  0  0  0  0  0  0
   70.3723   43.4623   57.7997 C   0  0  0  0  0  0  0  0  0  0  0  0
   69.5072   44.4343   57.4109 N   0  0  0  0  0  0  0  0  0  0  0  0
   69.8385   45.7333   57.4482 C   0  0  0  0  0  0  0  0  0  0  0  0
   68.9482   46.7674   57.0466 N   0  0  0  0  0  0  0  0  0  0  0  0
   68.0081   46.6073   56.0424 N   0  0  0  0  0  0  0  0  0  0  0  0
   68.3048   46.7394   54.6367 C   0  0  0  0  0  0  0  0  0  0  0  0
   69.1208   47.7549   54.1894 C   0  0  0  0  0  0  0  0  0  0  0  0
   69.4099   47.8898   52.8523 C   0  0  0  0  0  0  0  0  0  0  0  0
   68.8957   47.0193   51.9210 C   0  0  0  0  0  0  0  0  0  0  0  0
   68.0821   46.0121   52.3893 C   0  0  0  0  0  0  0  0  0  0  0  0
   67.7800   45.8581   53.7217 C   0  0  0  0  0  0  0  0  0  0  0  0
  1  2  2  0
  2  3  1  0
  2 19  1  0
  3  4  1  0
  4  5  2  0
  4 17  1  0
  5  6  1  0
  6  7  2  0
  6 15  1  0
  7  8  1  0
  8  9  2  0
  8 13  1  0
  9 10  1  0
 10 11  2  0
 11 12  1  0
 12 13  2  0
 13 14  1  0
 14 15  2  0
 15 16  1  0
 16 17  2  0
 17 18  1  0
 18 19  2  0
 19 20  1  0
 20 21  1  0
 21 22  1  0
 22 23  2  0
 22 27  1  0
 23 24  1  0
 24 25  2  0
 25 26  1  0
 26 27  2  0
M  END
>  <minimizedAffinity>  (144) 
-9.10057

$$$$
data/200k_reference_output/data/smiles/71901.pdb
     RDKit          3D

 29 31  0  0  0  0  0  0  0  0999 V2000
   69.6348   47.2924   57.4219 C   0  0  0  0  0  0  0  0  0  0  0  0
   68.4719   47.5521   57.8099 O   0  0  0  0  0  0  0  0  0  0  0  0
   69.9789   47.6448   56.1026 N   0  0  0  0  0  0  0  0  0  0  0  0
   69.0801   48.2859   55.1704 C   0  0  1  0  0  0  0  0  0  0  0  0
   69.5946   49.6313   54.8938 C   0  0  0  0  0  0  0  0  0  0  0  0
   69.7296   50.3280   55.9450 O   0  0  0  0  0  0  0  0  0  0  0  0
   69.9811   50.3487   53.7316 N   0  0  0  0  0  0  0  0  0  0  0  0
   70.0554   51.7912   53.8529 C   0  0  0  0  0  0  0  0  0  0  0  0
   70.2963   49.7890   52.4841 N   0  0  0  0  0  0  0  0  0  0  0  0
   69.9379   48.6264   52.0182 C   0  0  0  0  0  0  0  0  0  0  0  0
   69.1039   47.6219   52.7147 C   0  0  0  0  0  0  0  0  0  0  0  0
   68.6845   46.7341   51.7273 C   0  0  0  0  0  0  0  0  0  0  0  0
   67.8788   45.6699   52.0716 C   0  0  0  0  0  0  0  0  0  0  0  0
   67.5261   45.5384   53.3958 C   0  0  0  0  0  0  0  0  0  0  0  0
   67.9378   46.4126   54.3738 C   0  0  0  0  0  0  0  0  0  0  0  0
   68.7384   47.4676   54.0215 C   0  0  0  0  0  0  0  0  0  0  0  0
   71.8666   47.5616   58.3054 C   0  0  0  0  0  0  0  0  0  0  0  0
   70.6471   46.6337   58.2918 C   0  0  2  0  0  0  0  0  0  0  0  0
   70.9731   45.3130   57.8582 N   0  0  0  0  0  0  0  0  0  0  0  0
   70.4236   44.1943   58.5372 C   0  0  0  0  0  0  0  0  0  0  0  0
   69.6563   44.4112   59.5102 O   0  0  0  0  0  0  0  0  0  0  0  0
   70.7069   42.8030   58.1608 C   0  0  0  0  0  0  0  0  0  0  0  0
   69.5640   42.1270   57.5303 C   0  0  0  0  0  0  0  0  0  0  0  0
   69.3135   40.7847   57.7592 C   0  0  0  0  0  0  0  0  0  0  0  0
   68.2543   40.1335   57.1801 C   0  0  0  0  0  0  0  0  0  0  0  0
   67.4025   40.8154   56.3422 C   0  0  0  0  0  0  0  0  0  0  0  0
   67.6133   42.1495   56.0871 C   0  0  0  0  0  0  0  0  0  0  0  0
   66.7810   42.8212   55.2663 F   0  0  0  0  0  0  0  0  0  0  0  0
   68.6857   42.7841   56.6808 C   0  0  0  0  0  0  0  0  0  0  0  0
 18 17  1  6
 18 19  1  0
 18  1  1  0
 19 20  1  0
 20 21  2  0
 20 22  1  0
 22 23  1  0
 23 24  2  0
 23 29  1  0
 24 25  1  0
 25 26  2  0
 26 27  1  0
 27 28  1  0
 27 29  2  0
  1  2  2  0
  1  3  1  0
  4  3  1  6
  4  5  1  0
  4 16  1  0
  5  6  2  0
  5  7  1  0
  7  8  1  0
  7  9  1  0
  9 10  2  0
 10 11  1  0
 11 12  1  0
 11 16  2  0
 12 13  2  0
 13 14  1  0
 14 15  2  0
 15 16  1  0
M  END
>  <minimizedAffinity>  (145) 
-9.09868

$$$$
data/200k_reference_output/data/smiles/55407.pdb
     RDKit          3D

 26 28  0  0  0  0  0  0  0  0999 V2000
   69.8336   42.7422   57.4813 C   0  0  0  0  0  0  0  0  0  0  0  0
   68.8492   43.0465   56.5640 C   0  0  0  0  0  0  0  0  0  0  0  0
   68.6077   44.3499   56.1813 C   0  0  0  0  0  0  0  0  0  0  0  0
   69.3228   45.4151   56.6849 C   0  0  0  0  0  0  0  0  0  0  0  0
   70.3072   45.1130   57.6022 C   0  0  0  0  0  0  0  0  0  0  0  0
   70.5497   43.8097   57.9849 C   0  0  0  0  0  0  0  0  0  0  0  0
   70.6739   38.7328   58.6943 C   0  0  0  0  0  0  0  0  0  0  0  0
   69.4037   39.1175   58.3312 C   0  0  0  0  0  0  0  0  0  0  0  0
   69.1064   40.4045   57.9357 C   0  0  0  0  0  0  0  0  0  0  0  0
   70.0999   41.3651   57.8934 C   0  0  0  0  0  0  0  0  0  0  0  0
   71.3770   40.9678   58.2622 C   0  0  0  0  0  0  0  0  0  0  0  0
   71.6759   39.6990   58.6531 C   0  0  0  0  0  0  0  0  0  0  0  0
   70.2020   36.9304   60.2587 N   0  0  0  0  0  0  0  0  0  0  0  0
   71.0238   37.3631   59.1222 C   0  0  0  0  0  0  0  0  0  0  0  0
   69.0354   46.8115   56.2511 C   0  0  0  0  0  0  0  0  0  0  0  0
   68.8621   46.8576   54.8124 N   0  0  0  0  0  0  0  0  0  0  0  0
   68.0498   45.9487   54.2469 C   0  0  0  0  0  0  0  0  0  0  0  0
   67.8116   45.9031   52.8828 C   0  0  0  0  0  0  0  0  0  0  0  0
   66.9674   44.9529   52.3215 O   0  0  0  0  0  0  0  0  0  0  0  0
   68.4585   46.8527   52.1002 C   0  0  0  0  0  0  0  0  0  0  0  0
   68.2809   46.8601   50.8522 O   0  0  0  0  0  0  0  0  0  0  0  0
   69.2947   47.7926   52.6564 C   0  0  0  0  0  0  0  0  0  0  0  0
   69.4806   47.7726   54.0275 C   0  0  0  0  0  0  0  0  0  0  0  0
   69.9920   48.8052   51.8721 C   0  0  0  0  0  0  0  0  0  0  0  0
   70.6692   48.5179   50.8507 O   0  0  0  0  0  0  0  0  0  0  0  0
   69.9406   50.1477   52.2174 O   0  0  0  0  0  0  0  0  0  0  0  0
 13 14  1  0
 14  7  1  0
  7  8  2  0
  7 12  1  0
  8  9  1  0
  9 10  2  0
 10  1  1  0
 10 11  1  0
  1  2  2  0
  1  6  1  0
  2  3  1  0
  3  4  2  0
  4 15  1  0
  4  5  1  0
 15 16  1  0
 16 17  1  0
 16 23  1  0
 17 18  2  0
 18 19  1  0
 18 20  1  0
 20 21  2  0
 20 22  1  0
 22 24  1  0
 22 23  2  0
 24 25  2  0
 24 26  1  0
  5  6  2  0
 11 12  2  0
M  CHG  1  13   1
M  END
>  <minimizedAffinity>  (146) 
-9.09817

$$$$
data/reference_output_2/data/smiles/190438.pdb
     RDKit          3D

 27 29  0  0  0  0  0  0  0  0999 V2000
   71.3098   40.0685   59.1368 N   0  0  0  0  0  0  0  0  0  0  0  0
   72.1923   40.8869   58.3283 C   0  0  0  0  0  0  0  0  0  0  0  0
   71.5171   42.2286   58.0029 C   0  0  0  0  0  0  0  0  0  0  0  0
   70.0218   41.9320   57.9633 C   0  0  0  0  0  0  0  0  0  0  0  0
   69.5158   41.7530   59.3729 C   0  0  0  0  0  0  0  0  0  0  0  0
   70.3853   40.7117   60.0441 C   0  0  0  0  0  0  0  0  0  0  0  0
   69.9372   35.7236   60.9309 C   0  0  0  0  0  0  0  0  0  0  0  0
   70.6895   36.5305   59.8970 C   0  0  0  0  0  0  0  0  0  0  0  0
   71.3921   35.8930   58.8956 C   0  0  0  0  0  0  0  0  0  0  0  0
   72.0654   36.6844   57.9768 C   0  0  0  0  0  0  0  0  0  0  0  0
   72.8211   35.9779   56.8957 C   0  0  0  0  0  0  0  0  0  0  0  0
   72.0360   38.0254   58.0573 N   0  0  0  0  0  0  0  0  0  0  0  0
   71.3470   38.6224   59.0396 C   0  0  0  0  0  0  0  0  0  0  0  0
   70.6941   37.8639   59.9293 N   0  0  0  0  0  0  0  0  0  0  0  0
   69.2730   42.9152   57.1905 C   0  0  0  0  0  0  0  0  0  0  0  0
   68.3541   42.5310   56.4299 O   0  0  0  0  0  0  0  0  0  0  0  0
   69.5059   44.3263   57.2306 N   0  0  0  0  0  0  0  0  0  0  0  0
   68.7454   45.2091   56.4596 N   0  0  0  0  0  0  0  0  0  0  0  0
   69.0739   46.5897   56.4280 C   0  0  0  0  0  0  0  0  0  0  0  0
   70.0644   46.9395   57.1224 O   0  0  0  0  0  0  0  0  0  0  0  0
   68.3127   47.5881   55.6328 C   0  0  0  0  0  0  0  0  0  0  0  0
   68.5346   47.3261   54.1897 C   0  0  0  0  0  0  0  0  0  0  0  0
   69.4455   48.1094   53.5150 C   0  0  0  0  0  0  0  0  0  0  0  0
   69.6859   47.8996   52.1697 C   0  0  0  0  0  0  0  0  0  0  0  0
   69.0131   46.8995   51.4887 C   0  0  0  0  0  0  0  0  0  0  0  0
   68.1078   46.1307   52.1862 C   0  0  0  0  0  0  0  0  0  0  0  0
   67.8598   46.3299   53.5263 C   0  0  0  0  0  0  0  0  0  0  0  0
  7  8  1  0
  8  9  2  0
  8 14  1  0
  9 10  1  0
 10 11  1  0
 10 12  2  0
 12 13  1  0
 13  1  1  0
 13 14  2  0
  1  2  1  0
  1  6  1  0
  2  3  1  0
  3  4  1  0
  4 15  1  0
  4  5  1  0
 15 16  2  0
 15 17  1  0
 17 18  1  0
 18 19  1  0
 19 20  2  0
 19 21  1  0
 21 22  1  0
 22 23  2  0
 22 27  1  0
 23 24  1  0
 24 25  2  0
 25 26  1  0
 26 27  2  0
  5  6  1  0
M  END
>  <minimizedAffinity>  (147) 
-9.09758

$$$$
data/reference_output_2/data/smiles/161648.pdb
     RDKit          3D

 29 32  0  0  0  0  0  0  0  0999 V2000
   71.9573   46.8747   59.2790 C   0  0  0  0  0  0  0  0  0  0  0  0
   72.0532   45.5300   59.0185 C   0  0  0  0  0  0  0  0  0  0  0  0
   71.1587   44.9173   58.1333 C   0  0  0  0  0  0  0  0  0  0  0  0
   70.1840   45.6696   57.5257 C   0  0  0  0  0  0  0  0  0  0  0  0
   70.0516   47.0265   57.7583 C   0  0  0  0  0  0  0  0  0  0  0  0
   70.9518   47.5823   58.6355 C   0  0  0  0  0  0  0  0  0  0  0  0
   76.6276   48.9040   58.6933 C   0  0  0  0  0  0  0  0  0  0  0  0
   75.3212   48.8380   57.9424 C   0  0  0  0  0  0  0  0  0  0  0  0
   74.6521   47.5435   58.4523 C   0  0  0  0  0  0  0  0  0  0  0  0
   74.1722   47.8770   59.7575 N   0  0  0  0  0  0  0  0  0  0  0  0
   72.8827   47.5605   60.1907 C   0  0  0  0  0  0  0  0  0  0  0  0
   72.4981   47.8619   61.3698 O   0  0  0  0  0  0  0  0  0  0  0  0
   75.0795   48.5772   60.6375 C   0  0  0  0  0  0  0  0  0  0  0  0
   76.4846   48.3551   60.1094 C   0  0  0  0  0  0  0  0  0  0  0  0
   78.6270   50.4686   58.6249 N   0  0  0  0  0  0  0  0  0  0  0  0
   77.2165   50.2458   58.7338 C   0  0  0  0  0  0  0  0  0  0  0  0
   76.4572   51.2274   58.8659 O   0  0  0  0  0  0  0  0  0  0  0  0
   69.0042   47.8239   57.0494 C   0  0  0  0  0  0  0  0  0  0  0  0
   68.7098   47.2034   55.7489 C   0  0  0  0  0  0  0  0  0  0  0  0
   68.0100   46.0391   55.7659 N   0  0  0  0  0  0  0  0  0  0  0  0
   67.7068   45.3432   54.7071 N   0  0  0  0  0  0  0  0  0  0  0  0
   68.0965   45.7829   53.4957 C   0  0  0  0  0  0  0  0  0  0  0  0
   67.7881   45.0936   52.4997 O   0  0  0  0  0  0  0  0  0  0  0  0
   68.8126   46.9572   53.3656 C   0  0  0  0  0  0  0  0  0  0  0  0
   69.1087   47.6573   54.5192 C   0  0  0  0  0  0  0  0  0  0  0  0
   69.8516   48.9516   54.4672 C   0  0  0  0  0  0  0  0  0  0  0  0
   70.4533   49.2204   53.1083 C   0  0  0  0  0  0  0  0  0  0  0  0
   69.5384   48.8536   51.9695 C   0  0  0  0  0  0  0  0  0  0  0  0
   69.2134   47.3848   52.0042 C   0  0  0  0  0  0  0  0  0  0  0  0
 15 16  1  0
 16 17  2  0
 16  7  1  0
  7  8  1  0
  7 14  1  0
  8  9  1  0
  9 10  1  0
 10 11  1  0
 10 13  1  0
 11 12  2  0
 11  1  1  0
  1  2  2  0
  1  6  1  0
  2  3  1  0
  3  4  2  0
  4  5  1  0
  5 18  1  0
  5  6  2  0
 18 19  1  0
 19 20  2  0
 19 25  1  0
 20 21  1  0
 21 22  1  0
 22 23  2  0
 22 24  1  0
 24 25  2  0
 24 29  1  0
 25 26  1  0
 26 27  1  0
 27 28  1  0
 28 29  1  0
 13 14  1  0
M  END
>  <minimizedAffinity>  (148) 
-9.09551

$$$$
data/reference_output_2/data/smiles/152918.pdb
     RDKit          3D

 26 28  0  0  0  0  0  0  0  0999 V2000
   69.1452   40.1866   57.8493 C   0  0  0  0  0  0  0  0  0  0  0  0
   68.1546   40.0992   56.8944 C   0  0  0  0  0  0  0  0  0  0  0  0
   67.7088   41.2116   56.2011 C   0  0  0  0  0  0  0  0  0  0  0  0
   66.7334   41.1406   55.2577 F   0  0  0  0  0  0  0  0  0  0  0  0
   68.2674   42.4430   56.4688 C   0  0  0  0  0  0  0  0  0  0  0  0
   69.2770   42.5825   57.4307 C   0  0  0  0  0  0  0  0  0  0  0  0
   69.6682   41.4583   58.0723 C   0  0  0  0  0  0  0  0  0  0  0  0
   71.8216   36.1722   59.1539 C   0  0  0  0  0  0  0  0  0  0  0  0
   70.8102   37.2583   59.1398 C   0  0  0  0  0  0  0  0  0  0  0  0
   69.8195   37.4737   60.0669 C   0  0  0  0  0  0  0  0  0  0  0  0
   69.1148   38.5739   59.6751 N   0  0  0  0  0  0  0  0  0  0  0  0
   69.6078   39.0513   58.5648 N   0  0  0  0  0  0  0  0  0  0  0  0
   70.6443   38.2776   58.2035 C   0  0  0  0  0  0  0  0  0  0  0  0
   69.8044   43.9197   57.6429 C   0  0  0  0  0  0  0  0  0  0  0  0
   70.7681   44.1458   58.4225 O   0  0  0  0  0  0  0  0  0  0  0  0
   69.2466   45.0306   56.9719 N   0  0  0  0  0  0  0  0  0  0  0  0
   69.7278   46.3418   57.1489 N   0  0  0  0  0  0  0  0  0  0  0  0
   68.7490   47.4394   56.2887 S   0  0  0  0  0  0  0  0  0  0  0  0
   69.2724   48.8578   56.4542 O   0  0  0  0  0  0  0  0  0  0  0  0
   67.3593   47.4392   56.8699 O   0  0  0  0  0  0  0  0  0  0  0  0
   68.6199   47.0626   54.6049 C   0  0  0  0  0  0  0  0  0  0  0  0
   69.2368   47.9061   53.6880 C   0  0  0  0  0  0  0  0  0  0  0  0
   69.1339   47.6034   52.3340 C   0  0  0  0  0  0  0  0  0  0  0  0
   68.4516   46.5161   51.8934 C   0  0  0  0  0  0  0  0  0  0  0  0
   67.8247   45.6551   52.7924 C   0  0  0  0  0  0  0  0  0  0  0  0
   67.9382   45.9701   54.1193 C   0  0  0  0  0  0  0  0  0  0  0  0
  8  9  1  0
  9 10  1  0
  9 13  2  0
 10 11  2  0
 11 12  1  0
 12  1  1  0
 12 13  1  0
  1  2  2  0
  1  7  1  0
  2  3  1  0
  3  4  1  0
  3  5  2  0
  5  6  1  0
  6 14  1  0
  6  7  2  0
 14 15  2  0
 14 16  1  0
 16 17  1  0
 17 18  1  0
 18 19  2  0
 18 20  2  0
 18 21  1  0
 21 22  2  0
 21 26  1  0
 22 23  1  0
 23 24  2  0
 24 25  1  0
 25 26  2  0
M  END
>  <minimizedAffinity>  (149) 
-9.09438

$$$$
data/reference_output_2/data/smiles/89716.pdb
     RDKit          3D

 28 31  0  0  0  0  0  0  0  0999 V2000
   71.6141   47.2779   58.9425 C   0  0  0  0  0  0  0  0  0  0  0  0
   70.7459   47.9645   58.1303 C   0  0  0  0  0  0  0  0  0  0  0  0
   69.8928   47.3473   57.2120 C   0  0  0  0  0  0  0  0  0  0  0  0
   69.9607   45.9862   57.1538 C   0  0  0  0  0  0  0  0  0  0  0  0
   70.8279   45.2366   57.9585 C   0  0  0  0  0  0  0  0  0  0  0  0
   71.6484   45.8900   58.8483 C   0  0  0  0  0  0  0  0  0  0  0  0
   72.5006   45.1993   59.6436 F   0  0  0  0  0  0  0  0  0  0  0  0
   72.1934   47.9034   61.0949 O   0  0  0  0  0  0  0  0  0  0  0  0
   72.4831   47.9766   59.8784 C   0  0  0  0  0  0  0  0  0  0  0  0
   73.6270   48.7292   59.5014 N   0  0  0  0  0  0  0  0  0  0  0  0
   74.3841   49.3646   60.5663 C   0  0  0  0  0  0  0  0  0  0  0  0
   75.3861   48.4175   61.1384 C   0  0  0  0  0  0  0  0  0  0  0  0
   76.2514   47.7376   60.1278 C   0  0  0  0  0  0  0  0  0  0  0  0
   75.5512   47.1819   59.0045 N   0  0  0  0  0  0  0  0  0  0  0  0
   75.3228   48.1362   57.9356 C   0  0  0  0  0  0  0  0  0  0  0  0
   73.9811   48.8240   58.0975 C   0  0  0  0  0  0  0  0  0  0  0  0
   68.9676   48.1563   56.3964 C   0  0  0  0  0  0  0  0  0  0  0  0
   69.3732   48.3044   54.9804 C   0  0  0  0  0  0  0  0  0  0  0  0
   70.3200   49.2288   54.6369 N   0  0  0  0  0  0  0  0  0  0  0  0
   70.7491   49.3664   53.4054 N   0  0  0  0  0  0  0  0  0  0  0  0
   70.2771   48.6003   52.4133 C   0  0  0  0  0  0  0  0  0  0  0  0
   70.6712   48.7086   51.2219 O   0  0  0  0  0  0  0  0  0  0  0  0
   69.3096   47.6376   52.6844 C   0  0  0  0  0  0  0  0  0  0  0  0
   68.8150   46.8557   51.6446 C   0  0  0  0  0  0  0  0  0  0  0  0
   67.8531   45.9221   51.9220 C   0  0  0  0  0  0  0  0  0  0  0  0
   67.4136   45.7947   53.2166 C   0  0  0  0  0  0  0  0  0  0  0  0
   67.8818   46.5508   54.2618 C   0  0  0  0  0  0  0  0  0  0  0  0
   68.8694   47.5077   53.9849 C   0  0  0  0  0  0  0  0  0  0  0  0
  8  9  2  0
  9  1  1  0
  9 10  1  0
  1  2  2  0
  1  6  1  0
  2  3  1  0
  3 17  1  0
  3  4  2  0
 17 18  1  0
 18 19  2  0
 18 28  1  0
 19 20  1  0
 20 21  1  0
 21 22  2  0
 21 23  1  0
 23 24  1  0
 23 28  2  0
 24 25  2  0
 25 26  1  0
 26 27  2  0
 27 28  1  0
  4  5  1  0
  5  6  2  0
  6  7  1  0
 10 11  1  0
 10 16  1  0
 11 12  1  0
 12 13  1  0
 13 14  1  0
 14 15  1  0
 15 16  1  0
M  CHG  1  14   1
M  END
>  <minimizedAffinity>  (150) 
-9.09208

$$$$
data/reference_output_2/data/smiles/122778.pdb
     RDKit          3D

 28 30  0  0  0  0  0  0  0  0999 V2000
   69.9266   41.4286   58.1020 N   0  0  0  0  0  0  0  0  0  0  0  0
   69.0565   40.4084   58.0694 C   0  0  0  0  0  0  0  0  0  0  0  0
   69.5032   39.1073   58.2263 C   0  0  0  0  0  0  0  0  0  0  0  0
   70.8005   38.8056   58.4133 N   0  0  0  0  0  0  0  0  0  0  0  0
   71.6573   39.8429   58.4421 C   0  0  0  0  0  0  0  0  0  0  0  0
   72.8653   39.5810   58.6155 O   0  0  0  0  0  0  0  0  0  0  0  0
   71.2392   41.1511   58.2889 C   0  0  0  0  0  0  0  0  0  0  0  0
   72.0884   42.1010   58.3236 O   0  0  0  0  0  0  0  0  0  0  0  0
   71.1812   37.4444   58.5654 C   0  0  0  0  0  0  0  0  0  0  0  0
   70.7574   36.6659   59.6242 C   0  0  0  0  0  0  0  0  0  0  0  0
   71.1334   35.3426   59.7613 C   0  0  0  0  0  0  0  0  0  0  0  0
   71.9607   34.7342   58.8319 C   0  0  0  0  0  0  0  0  0  0  0  0
   72.3666   33.3072   58.9805 C   0  0  0  0  0  0  0  0  0  0  0  0
   72.3874   35.5061   57.7732 C   0  0  0  0  0  0  0  0  0  0  0  0
   73.2778   34.8852   56.7576 C   0  0  0  0  0  0  0  0  0  0  0  0
   72.0105   36.8244   57.6401 C   0  0  0  0  0  0  0  0  0  0  0  0
   69.5566   42.8068   57.9502 C   0  0  0  0  0  0  0  0  0  0  0  0
   68.5786   44.3209   56.1540 N   0  0  0  0  0  0  0  0  0  0  0  0
   68.7550   43.0329   56.6925 C   0  0  0  0  0  0  0  0  0  0  0  0
   68.2464   42.0346   56.1384 O   0  0  0  0  0  0  0  0  0  0  0  0
   67.8246   44.5953   54.9683 C   0  0  0  0  0  0  0  0  0  0  0  0
   69.6668   49.5776   52.6975 C   0  0  0  0  0  0  0  0  0  0  0  0
   69.1953   48.2918   53.2526 C   0  0  0  0  0  0  0  0  0  0  0  0
   68.8006   47.2433   52.4364 C   0  0  0  0  0  0  0  0  0  0  0  0
   68.3596   46.0419   52.9792 C   0  0  0  0  0  0  0  0  0  0  0  0
   68.2971   45.8464   54.3309 C   0  0  0  0  0  0  0  0  0  0  0  0
   68.6897   46.8878   55.1600 C   0  0  0  0  0  0  0  0  0  0  0  0
   69.1243   48.0729   54.6123 C   0  0  0  0  0  0  0  0  0  0  0  0
 22 23  1  0
 23 24  2  0
 23 28  1  0
 24 25  1  0
 25 26  2  0
 26 21  1  0
 26 27  1  0
 21 18  1  0
 18 19  1  0
 19 20  2  0
 19 17  1  0
 17  1  1  0
  1  2  1  0
  1  7  1  0
  2  3  2  0
  3  4  1  0
  4  9  1  0
  4  5  1  0
  9 10  2  0
  9 16  1  0
 10 11  1  0
 11 12  2  0
 12 13  1  0
 12 14  1  0
 14 15  1  0
 14 16  2  0
  5  6  2  0
  5  7  1  0
  7  8  2  0
 27 28  2  0
M  END
>  <minimizedAffinity>  (151) 
-9.09033

$$$$
data/200k_reference_output/data/smiles/32315.pdb
     RDKit          3D

 28 30  0  0  0  0  0  0  0  0999 V2000
   69.7047   42.3474   57.8460 C   0  0  0  0  0  0  0  0  0  0  0  0
   70.9013   42.4063   57.4087 O   0  0  0  0  0  0  0  0  0  0  0  0
   69.2273   43.3706   58.6839 N   0  0  0  0  0  0  0  0  0  0  0  0
   67.1185   42.2095   55.9217 C   0  0  0  0  0  0  0  0  0  0  0  0
   67.8005   41.1363   56.6523 C   0  0  0  0  0  0  0  0  0  0  0  0
   67.4140   39.8896   56.6126 O   0  0  0  0  0  0  0  0  0  0  0  0
   68.1654   39.1603   57.3234 N   0  0  0  0  0  0  0  0  0  0  0  0
   69.1249   39.9126   57.8946 C   0  0  0  0  0  0  0  0  0  0  0  0
   68.8914   41.2179   57.4551 C   0  0  0  0  0  0  0  0  0  0  0  0
   70.1714   39.4118   58.7675 C   0  0  0  0  0  0  0  0  0  0  0  0
   70.0117   39.3899   60.1188 C   0  0  0  0  0  0  0  0  0  0  0  0
   71.0220   38.9320   60.9604 C   0  0  0  0  0  0  0  0  0  0  0  0
   72.2205   38.4842   60.4562 C   0  0  0  0  0  0  0  0  0  0  0  0
   72.3703   38.5106   59.0846 C   0  0  0  0  0  0  0  0  0  0  0  0
   71.3861   38.9581   58.2399 C   0  0  0  0  0  0  0  0  0  0  0  0
   70.0618   44.4732   59.0444 N   0  0  0  0  0  0  0  0  0  0  0  0
   70.3588   45.5052   58.1596 C   0  0  0  0  0  0  0  0  0  0  0  0
   71.2475   46.7626   58.7727 S   0  0  0  0  0  0  0  0  0  0  0  0
   69.9827   45.5851   56.8097 N   0  0  0  0  0  0  0  0  0  0  0  0
   68.9193   46.3446   56.2809 C   0  0  0  0  0  0  0  0  0  0  0  0
   68.1940   47.0477   57.0607 O   0  0  0  0  0  0  0  0  0  0  0  0
   68.6258   46.3483   54.8645 C   0  0  0  0  0  0  0  0  0  0  0  0
   69.1077   47.4247   54.1136 C   0  0  0  0  0  0  0  0  0  0  0  0
   68.9023   47.5538   52.7584 C   0  0  0  0  0  0  0  0  0  0  0  0
   68.1761   46.5484   52.1412 C   0  0  0  0  0  0  0  0  0  0  0  0
   67.9535   46.6414   50.8064 F   0  0  0  0  0  0  0  0  0  0  0  0
   67.7012   45.4941   52.8631 C   0  0  0  0  0  0  0  0  0  0  0  0
   67.9127   45.3681   54.2336 C   0  0  0  0  0  0  0  0  0  0  0  0
  4  5  1  0
  5  6  1  0
  5  9  2  0
  6  7  1  0
  7  8  2  0
  8 10  1  0
  8  9  1  0
 10 11  2  0
 10 15  1  0
 11 12  1  0
 12 13  2  0
 13 14  1  0
 14 15  2  0
  9  1  1  0
  1  2  2  0
  1  3  1  0
  3 16  1  0
 16 17  1  0
 17 18  2  0
 17 19  1  0
 19 20  1  0
 20 21  2  0
 20 22  1  0
 22 23  2  0
 22 28  1  0
 23 24  1  0
 24 25  2  0
 25 26  1  0
 25 27  1  0
 27 28  2  0
M  END
>  <minimizedAffinity>  (152) 
-9.08966

$$$$
data/200k_reference_output/data/smiles/17768.pdb
     RDKit          3D

 26 28  0  0  0  0  0  0  0  0999 V2000
   70.1730   44.0427   57.6826 C   0  0  0  0  0  0  0  0  0  0  0  0
   69.0545   43.3606   56.9718 C   0  0  0  0  0  0  0  0  0  0  0  0
   68.8126   42.1060   57.3079 C   0  0  0  0  0  0  0  0  0  0  0  0
   67.7157   41.3926   56.6322 C   0  0  0  0  0  0  0  0  0  0  0  0
   67.0454   41.9832   55.7652 O   0  0  0  0  0  0  0  0  0  0  0  0
   67.4668   40.0441   57.0034 N   0  0  0  0  0  0  0  0  0  0  0  0
   68.2538   39.3698   58.0141 C   0  0  0  0  0  0  0  0  0  0  0  0
   67.9602   38.1795   58.2805 O   0  0  0  0  0  0  0  0  0  0  0  0
   69.3107   40.0256   58.6780 N   0  0  0  0  0  0  0  0  0  0  0  0
   69.5627   41.3809   58.3062 C   0  0  0  0  0  0  0  0  0  0  0  0
   70.5098   41.9392   58.9114 O   0  0  0  0  0  0  0  0  0  0  0  0
   68.2935   44.0238   55.9635 N   0  0  0  0  0  0  0  0  0  0  0  0
   68.2746   45.4267   55.8747 N   0  0  0  0  0  0  0  0  0  0  0  0
   68.4166   46.0719   54.5934 C   0  0  0  0  0  0  0  0  0  0  0  0
   69.0531   47.2855   54.5360 C   0  0  0  0  0  0  0  0  0  0  0  0
   69.2007   47.9189   53.3336 C   0  0  0  0  0  0  0  0  0  0  0  0
   68.7128   47.3391   52.1841 C   0  0  0  0  0  0  0  0  0  0  0  0
   68.0706   46.1132   52.2324 C   0  0  0  0  0  0  0  0  0  0  0  0
   67.9330   45.4967   53.4507 C   0  0  0  0  0  0  0  0  0  0  0  0
   70.0903   39.3769   59.7039 C   0  0  0  0  0  0  0  0  0  0  0  0
   70.7858   38.1685   59.1927 C   0  0  0  0  0  0  0  0  0  0  0  0
   70.6055   36.9507   59.7625 C   0  0  0  0  0  0  0  0  0  0  0  0
   71.2204   35.7924   59.2914 C   0  0  0  0  0  0  0  0  0  0  0  0
   72.0422   35.9128   58.1980 C   0  0  0  0  0  0  0  0  0  0  0  0
   72.2567   37.1121   57.5906 C   0  0  0  0  0  0  0  0  0  0  0  0
   71.6278   38.2543   58.0851 C   0  0  0  0  0  0  0  0  0  0  0  0
  1  2  1  0
  2 12  1  0
  2  3  2  0
 12 13  1  0
 13 14  1  0
 14 15  2  0
 14 19  1  0
 15 16  1  0
 16 17  2  0
 17 18  1  0
 18 19  2  0
  3  4  1  0
  3 10  1  0
  4  5  2  0
  4  6  1  0
  6  7  1  0
  7  8  2  0
  7  9  1  0
  9 20  1  0
  9 10  1  0
 20 21  1  0
 21 22  2  0
 21 26  1  0
 22 23  1  0
 23 24  2  0
 24 25  1  0
 25 26  2  0
 10 11  2  0
M  END
>  <minimizedAffinity>  (153) 
-9.08851

$$$$
data/reference_output_2/data/smiles/122433.pdb
     RDKit          3D

 27 29  0  0  0  0  0  0  0  0999 V2000
   70.2950   49.6369   54.1751 C   0  0  0  0  0  0  0  0  0  0  0  0
   69.7839   49.1022   55.3262 C   0  0  0  0  0  0  0  0  0  0  0  0
   69.0182   47.9815   55.3995 N   0  0  0  0  0  0  0  0  0  0  0  0
   68.7480   47.3602   54.2391 C   0  0  0  0  0  0  0  0  0  0  0  0
   67.9610   46.2286   54.2386 C   0  0  0  0  0  0  0  0  0  0  0  0
   67.6565   45.5780   53.0603 C   0  0  0  0  0  0  0  0  0  0  0  0
   68.1103   46.0109   51.8334 C   0  0  0  0  0  0  0  0  0  0  0  0
   68.8953   47.1453   51.8559 C   0  0  0  0  0  0  0  0  0  0  0  0
   69.2091   47.8082   53.0186 C   0  0  0  0  0  0  0  0  0  0  0  0
   69.9814   48.9454   52.9957 C   0  0  0  0  0  0  0  0  0  0  0  0
   70.4448   49.4196   51.9129 O   0  0  0  0  0  0  0  0  0  0  0  0
   71.1128   50.8385   54.1244 C   0  0  0  0  0  0  0  0  0  0  0  0
   70.8251   51.7185   53.2778 O   0  0  0  0  0  0  0  0  0  0  0  0
   72.2406   51.0377   55.0218 C   0  0  0  0  0  0  0  0  0  0  0  0
   73.5213   51.2813   54.3017 C   0  0  0  0  0  0  0  0  0  0  0  0
   73.9950   50.3412   53.6254 O   0  0  0  0  0  0  0  0  0  0  0  0
   73.7993   53.5381   53.7113 O   0  0  0  0  0  0  0  0  0  0  0  0
   74.2102   52.5548   54.3706 C   0  0  0  0  0  0  0  0  0  0  0  0
   75.3372   52.7325   55.1598 O   0  0  0  0  0  0  0  0  0  0  0  0
   68.5828   47.5003   56.7039 C   0  0  0  0  0  0  0  0  0  0  0  0
   69.7058   46.8705   57.4825 C   0  0  0  0  0  0  0  0  0  0  0  0
   70.0409   45.5485   57.3345 C   0  0  0  0  0  0  0  0  0  0  0  0
   71.0796   45.0077   58.0652 C   0  0  0  0  0  0  0  0  0  0  0  0
   71.7648   45.8152   58.9334 C   0  0  0  0  0  0  0  0  0  0  0  0
   71.4295   47.1516   59.0847 C   0  0  0  0  0  0  0  0  0  0  0  0
   72.1486   47.8939   59.9631 F   0  0  0  0  0  0  0  0  0  0  0  0
   70.4000   47.7066   58.3684 C   0  0  0  0  0  0  0  0  0  0  0  0
 17 18  2  0
 18 19  1  0
 18 15  1  0
 15 16  2  0
 15 14  1  0
 14 12  1  0
 12 13  2  0
 12  1  1  0
  1  2  2  0
  1 10  1  0
  2  3  1  0
  3 20  1  0
  3  4  1  0
 20 21  1  0
 21 22  2  0
 21 27  1  0
 22 23  1  0
 23 24  2  0
 24 25  1  0
 25 26  1  0
 25 27  2  0
  4  5  1  0
  4  9  2  0
  5  6  2  0
  6  7  1  0
  7  8  2  0
  8  9  1  0
  9 10  1  0
 10 11  2  0
M  END
>  <minimizedAffinity>  (154) 
-9.08794

$$$$
data/200k_reference_output/data/smiles/53341.pdb
     RDKit          3D

 27 30  0  0  0  0  0  0  0  0999 V2000
   68.1632   46.0994   54.1204 C   0  0  0  0  0  0  0  0  0  0  0  0
   67.6641   45.2850   53.1360 C   0  0  0  0  0  0  0  0  0  0  0  0
   67.7853   45.6191   51.7812 C   0  0  0  0  0  0  0  0  0  0  0  0
   68.4270   46.7985   51.4585 C   0  0  0  0  0  0  0  0  0  0  0  0
   68.9441   47.6442   52.4393 C   0  0  0  0  0  0  0  0  0  0  0  0
   68.8038   47.2825   53.7571 C   0  0  0  0  0  0  0  0  0  0  0  0
   69.4092   48.3305   54.5944 C   0  0  0  0  0  0  0  0  0  0  0  0
   69.9597   49.3093   53.6782 N   0  0  0  0  0  0  0  0  0  0  0  0
   69.6631   48.9131   52.3615 C   0  0  0  0  0  0  0  0  0  0  0  0
   69.9380   49.4995   51.2560 O   0  0  0  0  0  0  0  0  0  0  0  0
   70.7120   50.5051   54.0493 C   0  0  1  0  0  0  0  0  0  0  0  0
   69.9548   51.7568   53.7280 C   0  0  0  0  0  0  0  0  0  0  0  0
   69.0467   52.2981   54.7742 C   0  0  0  0  0  0  0  0  0  0  0  0
   69.5275   52.1496   56.1450 C   0  0  0  0  0  0  0  0  0  0  0  0
   68.9812   52.7712   57.0783 O   0  0  0  0  0  0  0  0  0  0  0  0
   70.6242   51.2928   56.4204 N   0  0  0  0  0  0  0  0  0  0  0  0
   71.2248   50.4920   55.4111 C   0  0  0  0  0  0  0  0  0  0  0  0
   72.2073   49.7776   55.7376 O   0  0  0  0  0  0  0  0  0  0  0  0
   68.0258   45.7378   55.4749 N   0  0  0  0  0  0  0  0  0  0  0  0
   69.1127   45.1720   56.2361 C   0  0  0  0  0  0  0  0  0  0  0  0
   68.2160   39.6149   57.6325 C   0  0  0  0  0  0  0  0  0  0  0  0
   68.4420   41.0495   57.2682 C   0  0  0  0  0  0  0  0  0  0  0  0
   69.4813   41.7746   57.8131 C   0  0  0  0  0  0  0  0  0  0  0  0
   69.6930   43.0966   57.4791 C   0  0  0  0  0  0  0  0  0  0  0  0
   68.8727   43.7519   56.5844 C   0  0  0  0  0  0  0  0  0  0  0  0
   67.8300   43.0214   56.0393 C   0  0  0  0  0  0  0  0  0  0  0  0
   67.6191   41.7004   56.3728 C   0  0  0  0  0  0  0  0  0  0  0  0
 21 22  1  0
 22 23  2  0
 22 27  1  0
 23 24  1  0
 24 25  2  0
 25 20  1  0
 25 26  1  0
 20 19  1  0
 19  1  1  0
  1  2  2  0
  1  6  1  0
  2  3  1  0
  3  4  2  0
  4  5  1  0
  5  6  2  0
  5  9  1  0
  6  7  1  0
  7  8  1  0
 11  8  1  1
  8  9  1  0
 11 12  1  0
 11 17  1  0
 12 13  1  0
 13 14  1  0
 14 15  2  0
 14 16  1  0
 16 17  1  0
 17 18  2  0
  9 10  2  0
 26 27  2  0
M  END
>  <minimizedAffinity>  (155) 
-9.08695

$$$$
data/reference_output_2/data/smiles/126619.pdb
     RDKit          3D

 29 32  0  0  0  0  0  0  0  0999 V2000
   68.1028   41.1427   58.1996 C   0  0  2  0  0  0  0  0  0  0  0  0
   69.4824   40.8383   58.6692 C   0  0  0  0  0  0  0  0  0  0  0  0
   70.4306   41.5991   59.0169 O   0  0  0  0  0  0  0  0  0  0  0  0
   69.3180   39.4327   58.5758 N   0  0  0  0  0  0  0  0  0  0  0  0
   67.9575   39.6349   58.2086 C   0  0  1  0  0  0  0  0  0  0  0  0
   70.2135   38.3601   58.7716 C   0  0  0  0  0  0  0  0  0  0  0  0
   70.0294   37.4955   59.8241 C   0  0  0  0  0  0  0  0  0  0  0  0
   70.9053   36.4585   60.0028 C   0  0  0  0  0  0  0  0  0  0  0  0
   71.9751   36.2475   59.1608 C   0  0  0  0  0  0  0  0  0  0  0  0
   72.1716   37.1033   58.1039 C   0  0  0  0  0  0  0  0  0  0  0  0
   71.3047   38.1509   57.9063 C   0  0  0  0  0  0  0  0  0  0  0  0
   66.8926   39.2131   59.1069 C   0  0  0  0  0  0  0  0  0  0  0  0
   66.2457   40.0591   59.9793 C   0  0  0  0  0  0  0  0  0  0  0  0
   65.2289   39.6405   60.8301 C   0  0  0  0  0  0  0  0  0  0  0  0
   64.8580   38.3552   60.8048 N   0  0  0  0  0  0  0  0  0  0  0  0
   65.4460   37.4877   59.9819 C   0  0  0  0  0  0  0  0  0  0  0  0
   66.4745   37.9048   59.1197 C   0  0  0  0  0  0  0  0  0  0  0  0
   67.9554   43.1639   56.7501 N   0  0  0  0  0  0  0  0  0  0  0  0
   68.0223   41.7619   56.8781 C   0  0  0  0  0  0  0  0  0  0  0  0
   68.0119   41.0393   55.8588 O   0  0  0  0  0  0  0  0  0  0  0  0
   68.7229   45.7280   56.2509 O   0  0  0  0  0  0  0  0  0  0  0  0
   68.2884   45.0795   55.2391 C   0  0  0  0  0  0  0  0  0  0  0  0
   67.8784   43.7389   55.4573 N   0  0  0  0  0  0  0  0  0  0  0  0
   68.2489   45.7558   53.9623 C   0  0  0  0  0  0  0  0  0  0  0  0
   67.5595   45.2649   52.8792 C   0  0  0  0  0  0  0  0  0  0  0  0
   67.5424   45.9462   51.6571 C   0  0  0  0  0  0  0  0  0  0  0  0
   68.2015   47.1039   51.5073 N   0  0  0  0  0  0  0  0  0  0  0  0
   68.8749   47.5910   52.5560 C   0  0  0  0  0  0  0  0  0  0  0  0
   68.9176   46.9523   53.7766 C   0  0  0  0  0  0  0  0  0  0  0  0
 21 22  2  0
 22 23  1  0
 22 24  1  0
 23 18  1  0
 18 19  1  0
 19 20  2  0
  1 19  1  6
  1  2  1  0
  1  5  1  0
  2  3  2  0
  2  4  1  0
  4  6  1  0
  4  5  1  0
  6  7  2  0
  6 11  1  0
  7  8  1  0
  8  9  2  0
  9 10  1  0
 10 11  2  0
  5 12  1  1
 12 13  2  0
 12 17  1  0
 13 14  1  0
 14 15  2  0
 15 16  1  0
 16 17  2  0
 24 25  2  0
 24 29  1  0
 25 26  1  0
 26 27  2  0
 27 28  1  0
 28 29  2  0
M  END
>  <minimizedAffinity>  (156) 
-9.08476

$$$$
data/200k_reference_output/data/smiles/70528.pdb
     RDKit          3D

 27 30  0  0  0  0  0  0  0  0999 V2000
   69.3520   47.7485   52.5451 C   0  0  0  0  0  0  0  0  0  0  0  0
   68.8695   46.7264   51.7207 C   0  0  0  0  0  0  0  0  0  0  0  0
   68.1196   45.6910   52.1978 C   0  0  0  0  0  0  0  0  0  0  0  0
   67.8067   45.6127   53.5200 C   0  0  0  0  0  0  0  0  0  0  0  0
   67.0434   44.5688   54.0388 O   0  0  0  0  0  0  0  0  0  0  0  0
   68.2722   46.6101   54.3529 C   0  0  0  0  0  0  0  0  0  0  0  0
   67.9462   46.5009   55.6418 N   0  0  0  0  0  0  0  0  0  0  0  0
   68.3587   47.4284   56.5171 C   0  0  0  0  0  0  0  0  0  0  0  0
   69.1200   48.5133   56.1405 C   0  0  0  0  0  0  0  0  0  0  0  0
   69.4586   48.6191   54.7766 C   0  0  0  0  0  0  0  0  0  0  0  0
   69.0363   47.6699   53.8836 C   0  0  0  0  0  0  0  0  0  0  0  0
   69.5739   49.5013   57.0361 N   0  0  0  0  0  0  0  0  0  0  0  0
   68.7031   50.2550   57.8736 C   0  0  0  0  0  0  0  0  0  0  0  0
   68.8636   51.7228   57.4317 C   0  0  0  0  0  0  0  0  0  0  0  0
   70.2384   52.0436   57.3726 N   0  0  0  0  0  0  0  0  0  0  0  0
   71.1634   51.1110   57.8882 C   0  0  0  0  0  0  0  0  0  0  0  0
   70.9823   49.7907   57.1237 C   0  0  0  0  0  0  0  0  0  0  0  0
   70.6466   52.9293   56.3598 C   0  0  0  0  0  0  0  0  0  0  0  0
   71.8703   53.6633   56.6677 C   0  0  0  0  0  0  0  0  0  0  0  0
   72.7631   54.0544   55.7083 C   0  0  0  0  0  0  0  0  0  0  0  0
   73.9309   54.7553   56.0128 C   0  0  0  0  0  0  0  0  0  0  0  0
   74.1810   55.0568   57.3415 C   0  0  0  0  0  0  0  0  0  0  0  0
   73.2977   54.6763   58.3442 C   0  0  0  0  0  0  0  0  0  0  0  0
   72.1528   53.9817   57.9792 C   0  0  0  0  0  0  0  0  0  0  0  0
   71.3299   48.9282   52.4323 O   0  0  0  0  0  0  0  0  0  0  0  0
   70.1330   48.8066   51.9928 C   0  0  0  0  0  0  0  0  0  0  0  0
   69.7687   49.7093   51.0534 O   0  0  0  0  0  0  0  0  0  0  0  0
 25 26  2  0
 26 27  1  0
 26  1  1  0
  1  2  2  0
  1 11  1  0
  2  3  1  0
  3  4  2  0
  4  5  1  0
  4  6  1  0
  6  7  1  0
  6 11  2  0
  7  8  2  0
  8  9  1  0
  9 12  1  0
  9 10  2  0
 12 13  1  0
 12 17  1  0
 13 14  1  0
 14 15  1  0
 15 18  1  0
 15 16  1  0
 18 19  1  0
 19 20  2  0
 19 24  1  0
 20 21  1  0
 21 22  2  0
 22 23  1  0
 23 24  2  0
 16 17  1  0
 10 11  1  0
M  CHG  1  15   1
M  END
>  <minimizedAffinity>  (157) 
-9.08369

$$$$
data/200k_reference_output/data/smiles/8272.pdb
     RDKit          3D

 27 29  0  0  0  0  0  0  0  0999 V2000
   68.7501   43.4209   56.5776 N   0  0  0  0  0  0  0  0  0  0  0  0
   68.1623   42.2581   56.4899 N   0  0  0  0  0  0  0  0  0  0  0  0
   68.6944   41.3737   57.3613 C   0  0  0  0  0  0  0  0  0  0  0  0
   68.2090   39.9702   57.5581 C   0  0  0  0  0  0  0  0  0  0  0  0
   69.6915   41.9839   58.0610 C   0  0  0  0  0  0  0  0  0  0  0  0
   69.6919   43.3005   57.5253 C   0  0  0  0  0  0  0  0  0  0  0  0
   70.6251   44.3650   57.9805 C   0  0  0  0  0  0  0  0  0  0  0  0
   68.8727   48.3169   56.1928 C   0  0  0  0  0  0  0  0  0  0  0  0
   68.5372   46.9825   55.6207 C   0  0  0  0  0  0  0  0  0  0  0  0
   67.9686   46.8933   54.3701 C   0  0  0  0  0  0  0  0  0  0  0  0
   67.6736   45.6345   53.8850 C   0  0  0  0  0  0  0  0  0  0  0  0
   67.1488   45.5544   52.7302 O   0  0  0  0  0  0  0  0  0  0  0  0
   67.9267   44.5340   54.5966 N   0  0  0  0  0  0  0  0  0  0  0  0
   68.4918   44.6101   55.8408 C   0  0  0  0  0  0  0  0  0  0  0  0
   68.7718   45.8420   56.2960 N   0  0  0  0  0  0  0  0  0  0  0  0
   70.6543   41.5164   59.0769 C   0  0  0  0  0  0  0  0  0  0  0  0
   71.9129   40.9210   58.5763 C   0  0  0  0  0  0  0  0  0  0  0  0
   72.2057   39.5294   58.7939 C   0  0  0  0  0  0  0  0  0  0  0  0
   73.0612   39.0867   59.5627 O   0  0  0  0  0  0  0  0  0  0  0  0
   71.4496   38.5285   58.0674 N   0  0  0  0  0  0  0  0  0  0  0  0
   71.6734   37.1555   58.2224 C   0  0  0  0  0  0  0  0  0  0  0  0
   72.5002   36.4880   57.3381 C   0  0  0  0  0  0  0  0  0  0  0  0
   72.7354   35.1255   57.4720 C   0  0  0  0  0  0  0  0  0  0  0  0
   72.1469   34.4054   58.4966 C   0  0  0  0  0  0  0  0  0  0  0  0
   71.3284   35.0981   59.3630 C   0  0  0  0  0  0  0  0  0  0  0  0
   70.7061   34.4587   60.4033 F   0  0  0  0  0  0  0  0  0  0  0  0
   71.0777   36.4464   59.2521 C   0  0  0  0  0  0  0  0  0  0  0  0
  8  9  1  0
  9 10  2  0
  9 15  1  0
 10 11  1  0
 11 12  2  0
 11 13  1  0
 13 14  1  0
 14  1  1  0
 14 15  2  0
  1  2  1  0
  1  6  1  0
  2  3  2  0
  3  4  1  0
  3  5  1  0
  5 16  1  0
  5  6  2  0
 16 17  1  0
 17 18  1  0
 18 19  2  0
 18 20  1  0
 20 21  1  0
 21 22  2  0
 21 27  1  0
 22 23  1  0
 23 24  2  0
 24 25  1  0
 25 26  1  0
 25 27  2  0
  6  7  1  0
M  END
>  <minimizedAffinity>  (158) 
-9.08250

$$$$
data/reference_output_2/data/smiles/200652.pdb
     RDKit          3D

 26 29  0  0  0  0  0  0  0  0999 V2000
   70.1008   47.3974   57.0416 C   0  0  0  0  0  0  0  0  0  0  0  0
   69.3093   46.4129   56.2448 C   0  0  0  0  0  0  0  0  0  0  0  0
   69.0602   45.1785   56.7349 N   0  0  0  0  0  0  0  0  0  0  0  0
   68.3527   44.2326   56.0748 C   0  0  0  0  0  0  0  0  0  0  0  0
   67.8745   44.5608   54.8535 N   0  0  0  0  0  0  0  0  0  0  0  0
   68.1058   45.7803   54.3409 C   0  0  0  0  0  0  0  0  0  0  0  0
   68.8217   46.7405   55.0076 C   0  0  0  0  0  0  0  0  0  0  0  0
   69.0369   48.0292   54.4066 C   0  0  0  0  0  0  0  0  0  0  0  0
   68.8037   49.2270   55.0708 C   0  0  0  0  0  0  0  0  0  0  0  0
   69.0017   50.4676   54.5163 C   0  0  0  0  0  0  0  0  0  0  0  0
   69.4661   50.5211   53.2033 C   0  0  0  0  0  0  0  0  0  0  0  0
   69.7154   49.3664   52.4945 C   0  0  0  0  0  0  0  0  0  0  0  0
   70.1583   49.2011   51.2407 N   0  0  0  0  0  0  0  0  0  0  0  0
   70.2326   47.8810   51.0273 N   0  0  0  0  0  0  0  0  0  0  0  0
   69.8396   47.2135   52.1349 C   0  0  0  0  0  0  0  0  0  0  0  0
   69.5019   48.1454   53.0914 C   0  0  0  0  0  0  0  0  0  0  0  0
   68.7413   51.7317   55.2569 C   0  0  0  0  0  0  0  0  0  0  0  0
   68.7791   52.8273   54.4184 F   0  0  0  0  0  0  0  0  0  0  0  0
   67.5058   51.6368   55.8992 F   0  0  0  0  0  0  0  0  0  0  0  0
   69.6844   51.8575   56.2577 F   0  0  0  0  0  0  0  0  0  0  0  0
   68.1217   42.9504   56.6379 N   0  0  0  0  0  0  0  0  0  0  0  0
   67.2770   41.9171   56.1089 C   0  0  0  0  0  0  0  0  0  0  0  0
   67.9395   40.6358   56.5704 C   0  0  0  0  0  0  0  0  0  0  0  0
   69.1130   41.0365   57.4266 C   0  0  2  0  0  0  0  0  0  0  0  0
   69.2220   40.1803   58.4920 O   0  0  0  0  0  0  0  0  0  0  0  0
   68.7006   42.4506   57.8526 C   0  0  0  0  0  0  0  0  0  0  0  0
  1  2  1  0
  2  3  2  0
  2  7  1  0
  3  4  1  0
  4 21  1  0
  4  5  2  0
 21 22  1  0
 21 26  1  0
 22 23  1  0
 23 24  1  0
 24 25  1  1
 24 26  1  0
  5  6  1  0
  6  7  2  0
  7  8  1  0
  8  9  2  0
  8 16  1  0
  9 10  1  0
 10 17  1  0
 10 11  2  0
 17 18  1  0
 17 19  1  0
 17 20  1  0
 11 12  1  0
 12 13  1  0
 12 16  2  0
 13 14  1  0
 14 15  2  0
 15 16  1  0
M  END
>  <minimizedAffinity>  (159) 
-9.08092

$$$$
data/reference_output_2/data/smiles/188173.pdb
     RDKit          3D

 28 31  0  0  0  0  0  0  0  0999 V2000
   71.5043   47.0487   58.8840 C   0  0  0  0  0  0  0  0  0  0  0  0
   70.6177   47.7726   58.0662 C   0  0  0  0  0  0  0  0  0  0  0  0
   69.7608   47.2174   57.1995 C   0  0  0  0  0  0  0  0  0  0  0  0
   69.7715   45.8069   57.1227 C   0  0  0  0  0  0  0  0  0  0  0  0
   70.6171   45.0622   57.8999 C   0  0  0  0  0  0  0  0  0  0  0  0
   71.4963   45.6859   58.7929 C   0  0  0  0  0  0  0  0  0  0  0  0
   72.3413   44.9535   59.5715 F   0  0  0  0  0  0  0  0  0  0  0  0
   72.0780   47.7690   61.0282 O   0  0  0  0  0  0  0  0  0  0  0  0
   72.4005   47.7434   59.8174 C   0  0  0  0  0  0  0  0  0  0  0  0
   73.5933   48.3681   59.3749 N   0  0  0  0  0  0  0  0  0  0  0  0
   74.4285   49.0390   60.3457 C   0  0  0  0  0  0  0  0  0  0  0  0
   74.7629   50.4024   59.7831 C   0  0  0  0  0  0  0  0  0  0  0  0
   73.8290   50.7233   58.6393 C   0  0  0  0  0  0  0  0  0  0  0  0
   74.0054   52.0534   58.2643 O   0  0  0  0  0  0  0  0  0  0  0  0
   73.9899   49.7774   57.4832 C   0  0  0  0  0  0  0  0  0  0  0  0
   74.0245   48.3675   58.0003 C   0  0  0  0  0  0  0  0  0  0  0  0
   68.7783   47.9244   56.3387 C   0  0  0  0  0  0  0  0  0  0  0  0
   69.3595   48.0949   54.9929 C   0  0  0  0  0  0  0  0  0  0  0  0
   70.2623   49.0992   54.7742 N   0  0  0  0  0  0  0  0  0  0  0  0
   70.7051   49.3325   53.5464 N   0  0  0  0  0  0  0  0  0  0  0  0
   70.2954   48.6100   52.4936 C   0  0  0  0  0  0  0  0  0  0  0  0
   70.7515   48.8827   51.3571 O   0  0  0  0  0  0  0  0  0  0  0  0
   69.3823   47.5807   52.6747 C   0  0  0  0  0  0  0  0  0  0  0  0
   68.9004   47.3085   53.9483 C   0  0  0  0  0  0  0  0  0  0  0  0
   68.0294   46.1701   54.2442 C   0  0  0  0  0  0  0  0  0  0  0  0
   67.6544   45.4100   52.9989 C   0  0  0  0  0  0  0  0  0  0  0  0
   67.5993   46.2551   51.7621 C   0  0  0  0  0  0  0  0  0  0  0  0
   68.9679   46.8361   51.4546 C   0  0  0  0  0  0  0  0  0  0  0  0
  8  9  2  0
  9  1  1  0
  9 10  1  0
  1  2  2  0
  1  6  1  0
  2  3  1  0
  3 17  1  0
  3  4  2  0
 17 18  1  0
 18 19  2  0
 18 24  1  0
 19 20  1  0
 20 21  1  0
 21 22  2  0
 21 23  1  0
 23 24  2  0
 23 28  1  0
 24 25  1  0
 25 26  1  0
 26 27  1  0
 27 28  1  0
  4  5  1  0
  5  6  2  0
  6  7  1  0
 10 11  1  0
 10 16  1  0
 11 12  1  0
 12 13  1  0
 13 14  1  0
 13 15  1  0
 15 16  1  0
M  END
>  <minimizedAffinity>  (160) 
-9.07903

$$$$
data/200k_reference_output/data/smiles/39572.pdb
     RDKit          3D

 25 27  0  0  0  0  0  0  0  0999 V2000
   72.6628   50.5693   54.3477 N   0  0  0  0  0  0  0  0  0  0  0  0
   69.7554   50.9012   54.0900 C   0  0  0  0  0  0  0  0  0  0  0  0
   70.5359   49.7421   53.5657 C   0  0  0  0  0  0  0  0  0  0  0  0
   71.7570   49.7753   53.7697 N   0  0  0  0  0  0  0  0  0  0  0  0
   69.8232   48.6638   52.8610 C   0  0  0  0  0  0  0  0  0  0  0  0
   69.6779   48.5093   51.5021 C   0  0  0  0  0  0  0  0  0  0  0  0
   68.9538   47.3853   51.2699 N   0  0  0  0  0  0  0  0  0  0  0  0
   68.6105   46.7835   52.4209 C   0  0  0  0  0  0  0  0  0  0  0  0
   67.8964   45.6442   52.7489 C   0  0  0  0  0  0  0  0  0  0  0  0
   67.7045   45.2725   54.0590 C   0  0  0  0  0  0  0  0  0  0  0  0
   68.2469   46.0684   55.0437 C   0  0  0  0  0  0  0  0  0  0  0  0
   68.9585   47.2037   54.7201 C   0  0  0  0  0  0  0  0  0  0  0  0
   69.1590   47.5901   53.4110 C   0  0  0  0  0  0  0  0  0  0  0  0
   73.7454   50.4876   55.6282 S   0  0  0  0  0  0  0  0  0  0  0  0
   74.1045   51.9295   56.0252 O   0  0  0  0  0  0  0  0  0  0  0  0
   75.0911   49.9145   55.1607 O   0  0  0  0  0  0  0  0  0  0  0  0
   73.2729   49.6199   57.0390 C   0  0  0  0  0  0  0  0  0  0  0  0
   74.1452   48.6835   57.5982 C   0  0  0  0  0  0  0  0  0  0  0  0
   73.8188   48.0006   58.7483 C   0  0  0  0  0  0  0  0  0  0  0  0
   72.6212   48.2110   59.3965 C   0  0  0  0  0  0  0  0  0  0  0  0
   71.7530   49.1395   58.8458 C   0  0  0  0  0  0  0  0  0  0  0  0
   72.0835   49.8212   57.6940 C   0  0  0  0  0  0  0  0  0  0  0  0
   72.2772   47.5012   60.5969 N   0  0  0  0  0  0  0  0  0  0  0  0
   71.5199   46.5221   60.4688 O   0  0  0  0  0  0  0  0  0  0  0  0
   72.7774   47.9135   61.8000 O   0  0  0  0  0  0  0  0  0  0  0  0
  2  3  1  0
  3  4  2  0
  3  5  1  0
  4  1  1  0
  1 14  1  0
 14 15  2  0
 14 16  2  0
 14 17  1  0
 17 18  2  0
 17 22  1  0
 18 19  1  0
 19 20  2  0
 20 23  1  0
 20 21  1  0
 23 24  2  0
 23 25  1  0
 21 22  2  0
  5  6  2  0
  5 13  1  0
  6  7  1  0
  7  8  1  0
  8  9  1  0
  8 13  2  0
  9 10  2  0
 10 11  1  0
 11 12  2  0
 12 13  1  0
M  CHG  2  23   1  25  -1
M  END
>  <minimizedAffinity>  (161) 
-9.07821

$$$$
data/reference_output_2/data/smiles/161371.pdb
     RDKit          3D

 27 30  0  0  0  0  0  0  0  0999 V2000
   73.9951   49.2254   57.3295 C   0  0  0  0  0  0  0  0  0  0  0  0
   73.4000   48.3771   58.2038 C   0  0  0  0  0  0  0  0  0  0  0  0
   72.0352   48.1571   58.2600 C   0  0  0  0  0  0  0  0  0  0  0  0
   71.2142   48.8174   57.3959 C   0  0  0  0  0  0  0  0  0  0  0  0
   71.7644   49.7094   56.4644 C   0  0  0  0  0  0  0  0  0  0  0  0
   73.1232   49.8901   56.4523 C   0  0  0  0  0  0  0  0  0  0  0  0
   75.4634   49.4371   54.8994 O   0  0  0  0  0  0  0  0  0  0  0  0
   76.1078   49.6156   55.9950 C   0  0  0  0  0  0  0  0  0  0  0  0
   75.3648   49.5124   57.1980 N   0  0  0  0  0  0  0  0  0  0  0  0
   77.5318   49.9094   55.9365 C   0  0  0  0  0  0  0  0  0  0  0  0
   78.3793   49.0170   55.3325 C   0  0  0  0  0  0  0  0  0  0  0  0
   79.7585   49.2746   55.2740 C   0  0  0  0  0  0  0  0  0  0  0  0
   80.2413   50.4133   55.8218 N   0  0  0  0  0  0  0  0  0  0  0  0
   79.4325   51.3056   56.4212 C   0  0  0  0  0  0  0  0  0  0  0  0
   78.0575   51.0434   56.4763 C   0  0  0  0  0  0  0  0  0  0  0  0
   70.7885   50.3645   55.5755 C   0  0  0  0  0  0  0  0  0  0  0  0
   70.5068   49.5364   54.4178 C   0  0  0  0  0  0  0  0  0  0  0  0
   71.3251   49.5924   53.3311 N   0  0  0  0  0  0  0  0  0  0  0  0
   71.1492   48.8062   52.2758 N   0  0  0  0  0  0  0  0  0  0  0  0
   70.1498   47.8983   52.2066 C   0  0  0  0  0  0  0  0  0  0  0  0
   69.9948   47.1694   51.2171 O   0  0  0  0  0  0  0  0  0  0  0  0
   69.2995   47.7969   53.2608 C   0  0  0  0  0  0  0  0  0  0  0  0
   69.5024   48.6418   54.3708 C   0  0  0  0  0  0  0  0  0  0  0  0
   68.4991   48.5155   55.4252 C   0  0  0  0  0  0  0  0  0  0  0  0
   68.3250   47.0652   55.8639 C   0  0  0  0  0  0  0  0  0  0  0  0
   68.4001   46.1107   54.7042 C   0  0  0  0  0  0  0  0  0  0  0  0
   68.1598   46.8547   53.3832 C   0  0  0  0  0  0  0  0  0  0  0  0
  7  8  2  0
  8  9  1  0
  8 10  1  0
  9  1  1  0
  1  2  2  0
  1  6  1  0
  2  3  1  0
  3  4  2  0
  4  5  1  0
  5 16  1  0
  5  6  2  0
 16 17  1  0
 17 18  2  0
 17 23  1  0
 18 19  1  0
 19 20  1  0
 20 21  2  0
 20 22  1  0
 22 23  2  0
 22 27  1  0
 23 24  1  0
 24 25  1  0
 25 26  1  0
 26 27  1  0
 10 11  2  0
 10 15  1  0
 11 12  1  0
 12 13  2  0
 13 14  1  0
 14 15  2  0
M  END
>  <minimizedAffinity>  (162) 
-9.07651

$$$$
data/200k_reference_output/data/smiles/25648.pdb
     RDKit          3D

 26 29  0  0  0  0  0  0  0  0999 V2000
   71.0557   45.9778   58.3316 C   0  0  0  0  0  0  0  0  0  0  0  0
   70.0876   46.5071   57.4582 C   0  0  0  0  0  0  0  0  0  0  0  0
   69.8868   47.8524   57.3510 C   0  0  0  0  0  0  0  0  0  0  0  0
   70.6725   48.6845   58.1357 C   0  0  0  0  0  0  0  0  0  0  0  0
   71.6278   48.1843   58.9977 C   0  0  0  0  0  0  0  0  0  0  0  0
   71.8180   46.8278   59.0947 C   0  0  0  0  0  0  0  0  0  0  0  0
   73.0180   46.1265   60.1759 Cl  0  0  0  0  0  0  0  0  0  0  0  0
   73.3803   44.3371   57.3985 O   0  0  0  0  0  0  0  0  0  0  0  0
   72.2764   43.8454   57.8516 C   0  0  0  0  0  0  0  0  0  0  0  0
   71.9639   42.4109   57.8830 C   0  0  0  0  0  0  0  0  0  0  0  0
   70.6571   42.2722   58.5966 C   0  0  0  0  0  0  0  0  0  0  0  0
   70.2940   43.6691   58.9760 C   0  0  0  0  0  0  0  0  0  0  0  0
   69.2952   43.9109   59.7288 O   0  0  0  0  0  0  0  0  0  0  0  0
   71.1981   44.5704   58.3861 N   0  0  0  0  0  0  0  0  0  0  0  0
   68.8477   48.3859   56.4417 C   0  0  0  0  0  0  0  0  0  0  0  0
   69.2981   48.3348   55.0643 C   0  0  0  0  0  0  0  0  0  0  0  0
   70.2608   49.2475   54.7072 N   0  0  0  0  0  0  0  0  0  0  0  0
   70.7274   49.3546   53.4779 N   0  0  0  0  0  0  0  0  0  0  0  0
   70.3085   48.5826   52.4595 C   0  0  0  0  0  0  0  0  0  0  0  0
   70.7731   48.7089   51.2906 O   0  0  0  0  0  0  0  0  0  0  0  0
   69.3336   47.6308   52.7382 C   0  0  0  0  0  0  0  0  0  0  0  0
   68.8586   46.7868   51.7539 C   0  0  0  0  0  0  0  0  0  0  0  0
   67.9030   45.8311   52.0409 C   0  0  0  0  0  0  0  0  0  0  0  0
   67.4512   45.7606   53.3447 C   0  0  0  0  0  0  0  0  0  0  0  0
   67.9286   46.6021   54.3112 C   0  0  0  0  0  0  0  0  0  0  0  0
   68.8703   47.5510   54.0441 C   0  0  0  0  0  0  0  0  0  0  0  0
  8  9  2  0
  9 10  1  0
  9 14  1  0
 10 11  1  0
 11 12  1  0
 12 13  2  0
 12 14  1  0
 14  1  1  0
  1  2  2  0
  1  6  1  0
  2  3  1  0
  3 15  1  0
  3  4  2  0
 15 16  1  0
 16 17  2  0
 16 26  1  0
 17 18  1  0
 18 19  1  0
 19 20  2  0
 19 21  1  0
 21 22  1  0
 21 26  2  0
 22 23  2  0
 23 24  1  0
 24 25  2  0
 25 26  1  0
  4  5  1  0
  5  6  2  0
  6  7  1  0
M  END
>  <minimizedAffinity>  (163) 
-9.07630

$$$$
data/reference_output_2/data/smiles/101995.pdb
     RDKit          3D

 27 29  0  0  0  0  0  0  0  0999 V2000
   70.0575   47.5589   57.2631 C   0  0  0  0  0  0  0  0  0  0  0  0
   70.5210   48.5594   58.0995 C   0  0  0  0  0  0  0  0  0  0  0  0
   69.8256   49.7588   58.1548 C   0  0  0  0  0  0  0  0  0  0  0  0
   68.6960   49.9867   57.4103 C   0  0  0  0  0  0  0  0  0  0  0  0
   67.8335   51.5105   57.4956 Cl  0  0  0  0  0  0  0  0  0  0  0  0
   68.2511   48.9573   56.5739 C   0  0  0  0  0  0  0  0  0  0  0  0
   68.9205   47.7436   56.4934 C   0  0  0  0  0  0  0  0  0  0  0  0
   70.6107   45.2638   58.1405 C   0  0  0  0  0  0  0  0  0  0  0  0
   69.8480   45.5156   59.0888 O   0  0  0  0  0  0  0  0  0  0  0  0
   70.7314   46.3230   57.1749 N   0  0  0  0  0  0  0  0  0  0  0  0
   70.8400   42.7521   57.8595 C   0  0  0  0  0  0  0  0  0  0  0  0
   71.8877   41.8760   57.7615 N   0  0  0  0  0  0  0  0  0  0  0  0
   73.0141   42.6052   57.8446 C   0  0  0  0  0  0  0  0  0  0  0  0
   72.6888   43.8895   57.9874 N   0  0  0  0  0  0  0  0  0  0  0  0
   71.3250   44.0189   58.0013 C   0  0  0  0  0  0  0  0  0  0  0  0
   67.2452   42.0808   58.7356 N   0  0  0  0  0  0  0  0  0  0  0  0
   68.5546   42.5635   58.8591 N   0  0  0  0  0  0  0  0  0  0  0  0
   69.4682   42.2867   57.8059 C   0  0  0  0  0  0  0  0  0  0  0  0
   69.0310   41.6317   56.8468 O   0  0  0  0  0  0  0  0  0  0  0  0
   68.5199   46.6836   55.6132 C   0  0  0  0  0  0  0  0  0  0  0  0
   68.1220   45.5691   56.0540 O   0  0  0  0  0  0  0  0  0  0  0  0
   68.5444   46.8144   54.1748 C   0  0  0  0  0  0  0  0  0  0  0  0
   69.3239   47.7417   53.5457 C   0  0  0  0  0  0  0  0  0  0  0  0
   69.3991   47.8518   52.1521 C   0  0  0  0  0  0  0  0  0  0  0  0
   68.6596   46.9962   51.3639 C   0  0  0  0  0  0  0  0  0  0  0  0
   67.8718   46.0628   52.0030 C   0  0  0  0  0  0  0  0  0  0  0  0
   67.7981   45.9533   53.3625 C   0  0  0  0  0  0  0  0  0  0  0  0
 16 17  1  0
 17 18  1  0
 18 19  2  0
 18 11  1  0
 11 12  1  0
 11 15  2  0
 12 13  1  0
 13 14  2  0
 14 15  1  0
 15  8  1  0
  8  9  2  0
  8 10  1  0
 10  1  1  0
  1  2  2  0
  1  7  1  0
  2  3  1  0
  3  4  2  0
  4  5  1  0
  4  6  1  0
  6  7  2  0
  7 20  1  0
 20 21  2  0
 20 22  1  0
 22 23  2  0
 22 27  1  0
 23 24  1  0
 24 25  2  0
 25 26  1  0
 26 27  2  0
M  CHG  1  14   1
M  END
>  <minimizedAffinity>  (164) 
-9.07422

$$$$
data/reference_output_2/data/smiles/96095.pdb
     RDKit          3D

 28 30  0  0  0  0  0  0  0  0999 V2000
   68.2819   46.3567   53.9033 C   0  0  0  0  0  0  0  0  0  0  0  0
   68.5071   46.0396   52.5896 C   0  0  0  0  0  0  0  0  0  0  0  0
   69.2738   46.8820   51.8117 C   0  0  0  0  0  0  0  0  0  0  0  0
   69.8004   48.0324   52.3775 C   0  0  0  0  0  0  0  0  0  0  0  0
   69.5923   48.3806   53.6963 C   0  0  0  0  0  0  0  0  0  0  0  0
   68.8267   47.5259   54.4489 C   0  0  0  0  0  0  0  0  0  0  0  0
   70.1785   49.6076   54.2231 C   0  0  0  0  0  0  0  0  0  0  0  0
   69.4380   50.4790   54.7359 O   0  0  0  0  0  0  0  0  0  0  0  0
   71.5653   49.8887   54.1957 N   0  0  0  0  0  0  0  0  0  0  0  0
   72.1542   51.1066   54.7181 C   0  0  1  0  0  0  0  0  0  0  0  0
   72.0866   51.1861   56.2137 C   0  0  0  0  0  0  0  0  0  0  0  0
   73.5099   51.4195   56.6721 C   0  0  0  0  0  0  0  0  0  0  0  0
   74.3072   50.6077   55.6528 C   0  0  0  0  0  0  0  0  0  0  0  0
   73.6432   51.0388   54.3615 C   0  0  1  0  0  0  0  0  0  0  0  0
   73.9004   50.1094   53.3857 O   0  0  0  0  0  0  0  0  0  0  0  0
   67.5077   45.4907   54.6606 O   0  0  0  0  0  0  0  0  0  0  0  0
   68.4119   42.4912   56.5988 C   0  0  0  0  0  0  0  0  0  0  0  0
   67.8088   43.3462   55.7151 C   0  0  0  0  0  0  0  0  0  0  0  0
   68.1528   44.6714   55.5709 C   0  0  0  0  0  0  0  0  0  0  0  0
   69.1479   45.1242   56.3650 N   0  0  0  0  0  0  0  0  0  0  0  0
   69.7849   44.3393   57.2552 C   0  0  0  0  0  0  0  0  0  0  0  0
   69.4261   43.0100   57.3862 C   0  0  0  0  0  0  0  0  0  0  0  0
   70.8823   44.8465   58.1275 C   0  0  0  0  0  0  0  0  0  0  0  0
   72.1191   44.5049   57.6492 F   0  0  0  0  0  0  0  0  0  0  0  0
   70.7318   44.4212   59.4371 F   0  0  0  0  0  0  0  0  0  0  0  0
   70.7887   46.2432   58.1626 F   0  0  0  0  0  0  0  0  0  0  0  0
   67.5939   40.5288   55.4067 N   0  0  0  0  0  0  0  0  0  0  0  0
   67.9789   41.0654   56.6923 C   0  0  0  0  0  0  0  0  0  0  0  0
 27 28  1  0
 28 17  1  0
 17 18  2  0
 17 22  1  0
 18 19  1  0
 19 16  1  0
 19 20  2  0
 16  1  1  0
  1  2  2  0
  1  6  1  0
  2  3  1  0
  3  4  2  0
  4  5  1  0
  5  7  1  0
  5  6  2  0
  7  8  2  0
  7  9  1  0
 10  9  1  1
 10 11  1  0
 10 14  1  0
 11 12  1  0
 12 13  1  0
 13 14  1  0
 14 15  1  6
 20 21  1  0
 21 23  1  0
 21 22  2  0
 23 24  1  0
 23 25  1  0
 23 26  1  0
M  CHG  1  27   1
M  END
>  <minimizedAffinity>  (165) 
-9.07371

$$$$
data/200k_reference_output/data/smiles/35967.pdb
     RDKit          3D

 27 29  0  0  0  0  0  0  0  0999 V2000
   69.7988   43.9580   57.3287 C   0  0  0  0  0  0  0  0  0  0  0  0
   70.9231   44.0895   57.8884 O   0  0  0  0  0  0  0  0  0  0  0  0
   69.1863   45.1554   56.8695 N   0  0  0  0  0  0  0  0  0  0  0  0
   69.0053   40.2894   57.7430 C   0  0  0  0  0  0  0  0  0  0  0  0
   67.9743   40.1835   56.8363 C   0  0  0  0  0  0  0  0  0  0  0  0
   67.5536   41.2819   56.1143 C   0  0  0  0  0  0  0  0  0  0  0  0
   66.5425   41.1743   55.2252 F   0  0  0  0  0  0  0  0  0  0  0  0
   68.1400   42.5211   56.2642 C   0  0  0  0  0  0  0  0  0  0  0  0
   69.1764   42.6394   57.1704 C   0  0  0  0  0  0  0  0  0  0  0  0
   69.5987   41.5449   57.8936 C   0  0  0  0  0  0  0  0  0  0  0  0
   71.8458   36.4671   59.3346 C   0  0  0  0  0  0  0  0  0  0  0  0
   70.7241   37.4629   59.2122 C   0  0  0  0  0  0  0  0  0  0  0  0
   69.5882   37.5612   59.9895 C   0  0  0  0  0  0  0  0  0  0  0  0
   68.8637   38.5961   59.5244 N   0  0  0  0  0  0  0  0  0  0  0  0
   69.4566   39.1719   58.4997 N   0  0  0  0  0  0  0  0  0  0  0  0
   70.6164   38.4832   58.2883 C   0  0  0  0  0  0  0  0  0  0  0  0
   69.8276   46.3932   57.0476 N   0  0  0  0  0  0  0  0  0  0  0  0
   68.8347   47.6599   56.3685 S   0  0  0  0  0  0  0  0  0  0  0  0
   69.3913   48.9500   56.8571 O   0  0  0  0  0  0  0  0  0  0  0  0
   67.4101   47.4568   56.7519 O   0  0  0  0  0  0  0  0  0  0  0  0
   68.9555   47.5000   54.6244 C   0  0  0  0  0  0  0  0  0  0  0  0
   69.6137   48.4139   53.8394 C   0  0  0  0  0  0  0  0  0  0  0  0
   69.7048   48.2820   52.4645 C   0  0  0  0  0  0  0  0  0  0  0  0
   69.1150   47.1913   51.8286 C   0  0  0  0  0  0  0  0  0  0  0  0
   68.4553   46.2785   52.6252 C   0  0  0  0  0  0  0  0  0  0  0  0
   68.3676   46.4114   53.9799 C   0  0  0  0  0  0  0  0  0  0  0  0
   67.7153   45.5035   54.7370 F   0  0  0  0  0  0  0  0  0  0  0  0
 11 12  1  0
 12 13  1  0
 12 16  2  0
 13 14  2  0
 14 15  1  0
 15  4  1  0
 15 16  1  0
  4  5  2  0
  4 10  1  0
  5  6  1  0
  6  7  1  0
  6  8  2  0
  8  9  1  0
  9  1  1  0
  9 10  2  0
  1  2  2  0
  1  3  1  0
  3 17  1  0
 17 18  1  0
 18 19  2  0
 18 20  2  0
 18 21  1  0
 21 22  2  0
 21 26  1  0
 22 23  1  0
 23 24  2  0
 24 25  1  0
 25 26  2  0
 26 27  1  0
M  END
>  <minimizedAffinity>  (166) 
-9.07265

$$$$
data/reference_output_2/data/smiles/143927.pdb
     RDKit          3D

 27 29  0  0  0  0  0  0  0  0999 V2000
   69.1469   40.2373   57.7950 C   0  0  0  0  0  0  0  0  0  0  0  0
   68.0158   40.1612   57.0103 C   0  0  0  0  0  0  0  0  0  0  0  0
   67.5138   41.2905   56.3806 C   0  0  0  0  0  0  0  0  0  0  0  0
   68.1274   42.5082   56.5240 C   0  0  0  0  0  0  0  0  0  0  0  0
   69.2788   42.6372   57.3101 C   0  0  0  0  0  0  0  0  0  0  0  0
   69.7392   41.4861   57.9148 C   0  0  0  0  0  0  0  0  0  0  0  0
   70.6460   36.7883   59.7777 C   0  0  0  0  0  0  0  0  0  0  0  0
   69.4036   37.2924   60.0814 C   0  0  0  0  0  0  0  0  0  0  0  0
   68.9406   38.4098   59.4270 C   0  0  0  0  0  0  0  0  0  0  0  0
   69.6853   39.0545   58.4622 C   0  0  0  0  0  0  0  0  0  0  0  0
   70.9274   38.5275   58.1775 C   0  0  0  0  0  0  0  0  0  0  0  0
   71.4289   37.3998   58.8184 C   0  0  0  0  0  0  0  0  0  0  0  0
   71.5369   34.6830   60.9959 N   0  0  0  0  0  0  0  0  0  0  0  0
   71.1374   35.6112   60.4644 C   0  0  0  0  0  0  0  0  0  0  0  0
   69.9224   43.9293   57.4542 C   0  0  0  0  0  0  0  0  0  0  0  0
   71.0326   43.9812   58.0221 O   0  0  0  0  0  0  0  0  0  0  0  0
   69.3245   45.0955   56.9728 N   0  0  0  0  0  0  0  0  0  0  0  0
   69.9339   46.3766   57.1010 N   0  0  0  0  0  0  0  0  0  0  0  0
   68.8760   47.4765   56.2913 S   0  0  0  0  0  0  0  0  0  0  0  0
   67.4890   47.4319   56.8967 O   0  0  0  0  0  0  0  0  0  0  0  0
   69.3647   48.8897   56.4747 O   0  0  0  0  0  0  0  0  0  0  0  0
   68.7098   47.1234   54.6032 C   0  0  0  0  0  0  0  0  0  0  0  0
   69.3350   47.9089   53.6787 C   0  0  0  0  0  0  0  0  0  0  0  0
   69.1894   47.6075   52.3240 C   0  0  0  0  0  0  0  0  0  0  0  0
   68.4308   46.5401   51.9169 C   0  0  0  0  0  0  0  0  0  0  0  0
   67.8110   45.7640   52.8669 C   0  0  0  0  0  0  0  0  0  0  0  0
   67.9531   46.0592   54.2056 C   0  0  0  0  0  0  0  0  0  0  0  0
 13 14  3  0
 14  7  1  0
  7  8  2  0
  7 12  1  0
  8  9  1  0
  9 10  2  0
 10  1  1  0
 10 11  1  0
  1  2  2  0
  1  6  1  0
  2  3  1  0
  3  4  2  0
  4  5  1  0
  5 15  1  0
  5  6  2  0
 15 16  2  0
 15 17  1  0
 17 18  1  0
 18 19  1  0
 19 20  2  0
 19 21  2  0
 19 22  1  0
 22 23  2  0
 22 27  1  0
 23 24  1  0
 24 25  2  0
 25 26  1  0
 26 27  2  0
 11 12  2  0
M  END
>  <minimizedAffinity>  (167) 
-9.06960

$$$$
data/reference_output_2/data/smiles/175422.pdb
     RDKit          3D

 27 29  0  0  0  0  0  0  0  0999 V2000
   74.2503   42.5431   58.6300 C   0  0  0  0  0  0  0  0  0  0  0  0
   72.8860   41.9532   58.3841 C   0  0  0  0  0  0  0  0  0  0  0  0
   72.6599   40.6365   58.6885 C   0  0  0  0  0  0  0  0  0  0  0  0
   71.4201   40.0435   58.4804 C   0  0  0  0  0  0  0  0  0  0  0  0
   70.4404   40.8470   57.9571 C   0  0  0  0  0  0  0  0  0  0  0  0
   70.6292   42.1990   57.6315 C   0  0  0  0  0  0  0  0  0  0  0  0
   71.8627   42.7113   57.8597 C   0  0  0  0  0  0  0  0  0  0  0  0
   72.1373   43.9868   57.5842 F   0  0  0  0  0  0  0  0  0  0  0  0
   71.2043   38.6468   58.8113 C   0  0  0  0  0  0  0  0  0  0  0  0
   72.0296   37.7052   58.2482 C   0  0  0  0  0  0  0  0  0  0  0  0
   71.8342   36.3795   58.5553 C   0  0  0  0  0  0  0  0  0  0  0  0
   70.8584   35.9967   59.3874 N   0  0  0  0  0  0  0  0  0  0  0  0
   70.0693   36.9173   59.9226 N   0  0  0  0  0  0  0  0  0  0  0  0
   70.2097   38.2256   59.6621 C   0  0  0  0  0  0  0  0  0  0  0  0
   69.4898   42.9160   57.0795 C   0  0  0  0  0  0  0  0  0  0  0  0
   68.4187   42.2635   56.8193 O   0  0  0  0  0  0  0  0  0  0  0  0
   69.4311   44.2970   56.7888 N   0  0  0  0  0  0  0  0  0  0  0  0
   68.2595   44.8902   56.2507 N   0  0  0  0  0  0  0  0  0  0  0  0
   68.5944   46.5597   55.8794 S   0  0  0  0  0  0  0  0  0  0  0  0
   67.4747   47.3641   56.5029 O   0  0  0  0  0  0  0  0  0  0  0  0
   69.8598   46.9544   56.5564 O   0  0  0  0  0  0  0  0  0  0  0  0
   68.6791   46.8011   54.1666 C   0  0  0  0  0  0  0  0  0  0  0  0
   67.9757   45.9814   53.3021 C   0  0  0  0  0  0  0  0  0  0  0  0
   68.0057   46.1287   51.9351 C   0  0  0  0  0  0  0  0  0  0  0  0
   68.7570   47.1229   51.3813 C   0  0  0  0  0  0  0  0  0  0  0  0
   69.4816   47.9716   52.2176 C   0  0  0  0  0  0  0  0  0  0  0  0
   69.4314   47.7998   53.5784 C   0  0  0  0  0  0  0  0  0  0  0  0
  1  2  1  0
  2  3  2  0
  2  7  1  0
  3  4  1  0
  4  9  1  0
  4  5  2  0
  9 10  2  0
  9 14  1  0
 10 11  1  0
 11 12  2  0
 12 13  1  0
 13 14  2  0
  5  6  1  0
  6 15  1  0
  6  7  2  0
 15 16  2  0
 15 17  1  0
 17 18  1  0
 18 19  1  0
 19 20  2  0
 19 21  2  0
 19 22  1  0
 22 23  2  0
 22 27  1  0
 23 24  1  0
 24 25  2  0
 25 26  1  0
 26 27  2  0
  7  8  1  0
M  END
>  <minimizedAffinity>  (168) 
-9.06853

$$$$
data/200k_reference_output/data/smiles/55764.pdb
     RDKit          3D

 27 29  0  0  0  0  0  0  0  0999 V2000
   69.9915   47.5159   57.0988 C   0  0  0  0  0  0  0  0  0  0  0  0
   69.5437   45.1477   56.5045 N   0  0  0  0  0  0  0  0  0  0  0  0
   69.7718   46.1624   57.5243 C   0  0  0  0  0  0  0  0  0  0  0  0
   69.7465   45.7076   58.6774 O   0  0  0  0  0  0  0  0  0  0  0  0
   68.7067   41.1623   57.5388 C   0  0  0  0  0  0  0  0  0  0  0  0
   67.8744   41.8801   56.6971 C   0  0  0  0  0  0  0  0  0  0  0  0
   68.1993   43.1863   56.3916 C   0  0  0  0  0  0  0  0  0  0  0  0
   69.3272   43.8233   56.8885 C   0  0  0  0  0  0  0  0  0  0  0  0
   70.1473   43.1012   57.7237 C   0  0  0  0  0  0  0  0  0  0  0  0
   69.8282   41.7967   58.0320 C   0  0  0  0  0  0  0  0  0  0  0  0
   67.2501   38.0648   59.3279 C   0  0  0  0  0  0  0  0  0  0  0  0
   67.5647   39.4712   58.9825 C   0  0  0  0  0  0  0  0  0  0  0  0
   67.1161   40.4514   59.6398 O   0  0  0  0  0  0  0  0  0  0  0  0
   68.4028   39.8142   57.8742 N   0  0  0  0  0  0  0  0  0  0  0  0
   69.0571   48.2271   56.1991 C   0  0  0  0  0  0  0  0  0  0  0  0
   69.4017   48.3970   54.8313 N   0  0  0  0  0  0  0  0  0  0  0  0
   70.2834   49.3587   54.4994 C   0  0  0  0  0  0  0  0  0  0  0  0
   70.7769   50.1644   55.3715 O   0  0  0  0  0  0  0  0  0  0  0  0
   70.6445   49.4748   53.2112 N   0  0  0  0  0  0  0  0  0  0  0  0
   70.1556   48.6677   52.2582 C   0  0  0  0  0  0  0  0  0  0  0  0
   70.5020   48.7855   51.0563 O   0  0  0  0  0  0  0  0  0  0  0  0
   69.2534   47.6859   52.5953 C   0  0  0  0  0  0  0  0  0  0  0  0
   68.7341   46.8500   51.6260 C   0  0  0  0  0  0  0  0  0  0  0  0
   67.8301   45.8680   51.9280 C   0  0  0  0  0  0  0  0  0  0  0  0
   67.4546   45.7436   53.2481 C   0  0  0  0  0  0  0  0  0  0  0  0
   67.9463   46.5538   54.2460 C   0  0  0  0  0  0  0  0  0  0  0  0
   68.8549   47.5379   53.9312 C   0  0  0  0  0  0  0  0  0  0  0  0
 11 12  1  0
 12 13  2  0
 12 14  1  0
 14  5  1  0
  5  6  2  0
  5 10  1  0
  6  7  1  0
  7  8  2  0
  8  2  1  0
  8  9  1  0
  2  3  1  0
  3  4  2  0
  3  1  1  0
  1 15  1  0
 15 16  1  0
 16 17  1  0
 16 27  1  0
 17 18  2  0
 17 19  1  0
 19 20  1  0
 20 21  2  0
 20 22  1  0
 22 23  1  0
 22 27  2  0
 23 24  2  0
 24 25  1  0
 25 26  2  0
 26 27  1  0
  9 10  2  0
M  END
>  <minimizedAffinity>  (169) 
-9.06797

$$$$
data/reference_output_2/data/smiles/114019.pdb
     RDKit          3D

 27 29  0  0  0  0  0  0  0  0999 V2000
   68.9042   42.5988   57.1985 C   0  0  0  0  0  0  0  0  0  0  0  0
   69.0349   43.8203   56.6682 N   0  0  0  0  0  0  0  0  0  0  0  0
   68.2618   44.3289   55.6691 C   0  0  0  0  0  0  0  0  0  0  0  0
   67.3028   43.5128   55.2031 N   0  0  0  0  0  0  0  0  0  0  0  0
   67.1167   42.2578   55.6980 C   0  0  0  0  0  0  0  0  0  0  0  0
   66.2079   41.4964   55.2499 O   0  0  0  0  0  0  0  0  0  0  0  0
   67.9193   41.7796   56.7083 C   0  0  0  0  0  0  0  0  0  0  0  0
   67.7719   40.5185   57.2445 O   0  0  0  0  0  0  0  0  0  0  0  0
   68.4806   45.6677   55.1593 C   0  0  0  0  0  0  0  0  0  0  0  0
   68.2744   45.9734   53.8551 C   0  0  0  0  0  0  0  0  0  0  0  0
   68.4789   47.2555   53.3415 C   0  0  0  0  0  0  0  0  0  0  0  0
   68.9061   48.2535   54.1862 C   0  0  0  0  0  0  0  0  0  0  0  0
   69.0985   49.4850   53.6739 F   0  0  0  0  0  0  0  0  0  0  0  0
   69.1249   47.9654   55.5309 C   0  0  0  0  0  0  0  0  0  0  0  0
   68.9082   46.6651   56.0027 C   0  0  0  0  0  0  0  0  0  0  0  0
   69.9503   42.8738   59.2928 O   0  0  0  0  0  0  0  0  0  0  0  0
   69.8038   42.1509   58.2833 C   0  0  0  0  0  0  0  0  0  0  0  0
   70.4912   40.9389   58.2026 N   0  0  0  0  0  0  0  0  0  0  0  0
   71.3869   40.3789   59.1577 C   0  0  0  0  0  0  0  0  0  0  0  0
   71.3842   38.9020   59.0012 C   0  0  0  0  0  0  0  0  0  0  0  0
   70.7090   38.0851   59.9170 C   0  0  0  0  0  0  0  0  0  0  0  0
   70.6832   36.7158   59.8198 C   0  0  0  0  0  0  0  0  0  0  0  0
   71.3414   36.0962   58.7867 C   0  0  0  0  0  0  0  0  0  0  0  0
   71.3556   34.7404   58.6335 F   0  0  0  0  0  0  0  0  0  0  0  0
   72.0212   36.8508   57.8576 C   0  0  0  0  0  0  0  0  0  0  0  0
   72.6726   36.2328   56.8353 F   0  0  0  0  0  0  0  0  0  0  0  0
   72.0300   38.2377   57.9824 C   0  0  0  0  0  0  0  0  0  0  0  0
 16 17  2  0
 17 18  1  0
 17  1  1  0
 18 19  1  0
 19 20  1  0
 20 21  2  0
 20 27  1  0
 21 22  1  0
 22 23  2  0
 23 24  1  0
 23 25  1  0
 25 26  1  0
 25 27  2  0
  1  2  1  0
  1  7  2  0
  2  3  2  0
  3  9  1  0
  3  4  1  0
  9 10  2  0
  9 15  1  0
 10 11  1  0
 11 12  2  0
 12 13  1  0
 12 14  1  0
 14 15  2  0
  4  5  1  0
  5  6  2  0
  5  7  1  0
  7  8  1  0
M  END
>  <minimizedAffinity>  (170) 
-9.06772

$$$$
data/200k_reference_output/data/smiles/79116.pdb
     RDKit          3D

 29 32  0  0  0  0  0  0  0  0999 V2000
   67.8043   44.0197   55.5281 N   0  0  0  0  0  0  0  0  0  0  0  0
   68.5066   43.1991   56.4541 C   0  0  0  0  0  0  0  0  0  0  0  0
   69.5805   43.6742   56.9038 O   0  0  0  0  0  0  0  0  0  0  0  0
   70.5691   48.5691   57.2971 C   0  0  0  0  0  0  0  0  0  0  0  0
   69.4370   48.8083   56.3357 C   0  0  1  0  0  0  0  0  0  0  0  0
   69.7663   49.7437   55.2623 C   0  0  0  0  0  0  0  0  0  0  0  0
   70.1676   50.9201   55.4235 O   0  0  0  0  0  0  0  0  0  0  0  0
   69.5655   49.1228   54.0026 N   0  0  0  0  0  0  0  0  0  0  0  0
   69.7094   49.5439   52.6123 C   0  0  0  0  0  0  0  0  0  0  0  0
   69.9935   48.3384   51.7727 C   0  0  0  0  0  0  0  0  0  0  0  0
   68.9589   47.2394   51.9187 C   0  0  0  0  0  0  0  0  0  0  0  0
   68.8026   46.8709   53.3524 C   0  0  0  0  0  0  0  0  0  0  0  0
   68.3730   45.6282   53.7454 C   0  0  0  0  0  0  0  0  0  0  0  0
   68.2487   45.3038   55.1043 C   0  0  0  0  0  0  0  0  0  0  0  0
   68.5795   46.2963   56.0033 C   0  0  0  0  0  0  0  0  0  0  0  0
   69.0181   47.5661   55.6376 C   0  0  0  0  0  0  0  0  0  0  0  0
   69.1176   47.8198   54.2910 C   0  0  0  0  0  0  0  0  0  0  0  0
   68.0434   41.8883   56.8806 C   0  0  0  0  0  0  0  0  0  0  0  0
   66.8632   41.5106   56.7055 O   0  0  0  0  0  0  0  0  0  0  0  0
   68.9636   41.0155   57.5128 N   0  0  0  0  0  0  0  0  0  0  0  0
   68.6090   39.7103   57.9668 C   0  0  0  0  0  0  0  0  0  0  0  0
   69.3796   39.3039   59.1799 C   0  0  0  0  0  0  0  0  0  0  0  0
   70.2864   38.1661   58.9673 C   0  0  0  0  0  0  0  0  0  0  0  0
   71.2893   38.2632   58.0311 C   0  0  0  0  0  0  0  0  0  0  0  0
   72.1373   37.1806   57.8491 C   0  0  0  0  0  0  0  0  0  0  0  0
   71.9755   36.0396   58.5862 C   0  0  0  0  0  0  0  0  0  0  0  0
   72.7919   34.9556   58.4321 F   0  0  0  0  0  0  0  0  0  0  0  0
   70.9798   35.9399   59.5172 C   0  0  0  0  0  0  0  0  0  0  0  0
   70.1334   37.0130   59.7042 C   0  0  0  0  0  0  0  0  0  0  0  0
  5  4  1  1
  5  6  1  0
  5 16  1  0
  6  7  2  0
  6  8  1  0
  8  9  1  0
  8 17  1  0
  9 10  1  0
 10 11  1  0
 11 12  1  0
 12 13  1  0
 12 17  2  0
 13 14  2  0
 14  1  1  0
 14 15  1  0
  1  2  1  0
  2  3  2  0
  2 18  1  0
 18 19  2  0
 18 20  1  0
 20 21  1  0
 21 22  1  0
 22 23  1  0
 23 24  2  0
 23 29  1  0
 24 25  1  0
 25 26  2  0
 26 27  1  0
 26 28  1  0
 28 29  2  0
 15 16  2  0
 16 17  1  0
M  END
>  <minimizedAffinity>  (171) 
-9.06729

$$$$
data/200k_reference_output/data/smiles/52131.pdb
     RDKit          3D

 29 33  0  0  0  0  0  0  0  0999 V2000
   71.4243   46.7654   58.7428 C   0  0  0  0  0  0  0  0  0  0  0  0
   70.4847   47.4813   58.0280 C   0  0  0  0  0  0  0  0  0  0  0  0
   69.5579   46.9203   57.1990 C   0  0  0  0  0  0  0  0  0  0  0  0
   69.6074   45.5193   57.1028 C   0  0  0  0  0  0  0  0  0  0  0  0
   70.5265   44.7669   57.7974 C   0  0  0  0  0  0  0  0  0  0  0  0
   71.4394   45.3962   58.6217 C   0  0  0  0  0  0  0  0  0  0  0  0
   72.3387   44.6353   59.2988 F   0  0  0  0  0  0  0  0  0  0  0  0
   71.9802   47.7829   60.7430 O   0  0  0  0  0  0  0  0  0  0  0  0
   72.3816   47.4428   59.6074 C   0  0  0  0  0  0  0  0  0  0  0  0
   73.7081   47.7242   59.2268 N   0  0  0  0  0  0  0  0  0  0  0  0
   74.3866   47.4254   57.9698 C   0  0  0  0  0  0  0  0  0  0  0  0
   75.2035   48.6908   57.7044 C   0  0  0  0  0  0  0  0  0  0  0  0
   75.2462   49.4019   59.0277 C   0  0  0  0  0  0  0  0  0  0  0  0
   76.5165   50.0801   59.3956 C   0  0  0  0  0  0  0  0  0  0  0  0
   75.8844   51.3623   59.1563 N   0  0  0  0  0  0  0  0  0  0  0  0
   74.5904   50.7421   59.0728 C   0  0  0  0  0  0  0  0  0  0  0  0
   74.7203   48.3922   60.0233 C   0  0  0  0  0  0  0  0  0  0  0  0
   68.5253   47.6545   56.4280 C   0  0  0  0  0  0  0  0  0  0  0  0
   69.0704   47.9763   55.1144 C   0  0  0  0  0  0  0  0  0  0  0  0
   70.0242   48.9559   55.0642 N   0  0  0  0  0  0  0  0  0  0  0  0
   70.5940   49.2568   53.9209 N   0  0  0  0  0  0  0  0  0  0  0  0
   70.2776   48.6346   52.7784 C   0  0  0  0  0  0  0  0  0  0  0  0
   70.8388   48.9396   51.6978 O   0  0  0  0  0  0  0  0  0  0  0  0
   69.3205   47.6323   52.7532 C   0  0  0  0  0  0  0  0  0  0  0  0
   68.9837   47.0002   51.5776 C   0  0  0  0  0  0  0  0  0  0  0  0
   68.0137   46.0256   51.6253 C   0  0  0  0  0  0  0  0  0  0  0  0
   67.4106   45.7098   52.8221 C   0  0  0  0  0  0  0  0  0  0  0  0
   67.7489   46.3413   53.9929 C   0  0  0  0  0  0  0  0  0  0  0  0
   68.7137   47.3147   53.9794 C   0  0  0  0  0  0  0  0  0  0  0  0
  8  9  2  0
  9  1  1  0
  9 10  1  0
  1  2  2  0
  1  6  1  0
  2  3  1  0
  3 18  1  0
  3  4  2  0
 18 19  1  0
 19 20  2  0
 19 29  1  0
 20 21  1  0
 21 22  1  0
 22 23  2  0
 22 24  1  0
 24 25  1  0
 24 29  2  0
 25 26  2  0
 26 27  1  0
 27 28  2  0
 28 29  1  0
  4  5  1  0
  5  6  2  0
  6  7  1  0
 10 11  1  0
 10 17  1  0
 11 12  1  0
 12 13  1  0
 13 14  1  0
 13 16  1  0
 13 17  1  0
 14 15  1  0
 15 16  1  0
M  CHG  1  15   1
M  END
>  <minimizedAffinity>  (172) 
-9.06453

$$$$
data/reference_output_2/data/smiles/114418.pdb
     RDKit          3D

 27 29  0  0  0  0  0  0  0  0999 V2000
   69.3080   42.8037   57.4644 C   0  0  0  0  0  0  0  0  0  0  0  0
   68.1701   42.3714   57.7494 O   0  0  0  0  0  0  0  0  0  0  0  0
   69.3695   44.0314   56.7761 N   0  0  0  0  0  0  0  0  0  0  0  0
   74.1795   42.5373   58.4252 C   0  0  0  0  0  0  0  0  0  0  0  0
   72.8486   41.9126   58.3262 C   0  0  0  0  0  0  0  0  0  0  0  0
   71.7203   42.6146   57.9531 C   0  0  0  0  0  0  0  0  0  0  0  0
   70.4706   42.0146   57.8631 C   0  0  0  0  0  0  0  0  0  0  0  0
   70.4295   40.6747   58.1699 C   0  0  0  0  0  0  0  0  0  0  0  0
   71.5321   39.9262   58.5484 C   0  0  0  0  0  0  0  0  0  0  0  0
   72.7493   40.5681   58.6223 C   0  0  0  0  0  0  0  0  0  0  0  0
   71.4380   38.5364   58.8556 N   0  0  0  0  0  0  0  0  0  0  0  0
   71.7008   37.4703   58.0812 C   0  0  0  0  0  0  0  0  0  0  0  0
   71.4638   36.3084   58.8165 C   0  0  0  0  0  0  0  0  0  0  0  0
   71.0531   36.7390   60.0520 C   0  0  0  0  0  0  0  0  0  0  0  0
   71.0503   38.0864   60.0359 N   0  0  0  0  0  0  0  0  0  0  0  0
   68.3699   44.8441   56.3661 N   0  0  0  0  0  0  0  0  0  0  0  0
   68.6154   46.4099   55.9296 S   0  0  0  0  0  0  0  0  0  0  0  0
   67.4775   47.2601   56.4924 O   0  0  0  0  0  0  0  0  0  0  0  0
   69.8686   46.9867   56.5767 O   0  0  0  0  0  0  0  0  0  0  0  0
   68.6845   46.7774   54.2274 C   0  0  0  0  0  0  0  0  0  0  0  0
   69.2803   47.8740   53.6915 C   0  0  0  0  0  0  0  0  0  0  0  0
   69.2850   48.0480   52.3324 C   0  0  0  0  0  0  0  0  0  0  0  0
   69.9136   49.2183   51.6628 C   0  0  0  0  0  0  0  0  0  0  0  0
   68.6898   47.1235   51.4738 C   0  0  0  0  0  0  0  0  0  0  0  0
   68.0898   46.0173   52.0136 C   0  0  0  0  0  0  0  0  0  0  0  0
   68.0950   45.8611   53.3716 C   0  0  0  0  0  0  0  0  0  0  0  0
   67.4882   44.7512   53.8604 F   0  0  0  0  0  0  0  0  0  0  0  0
  4  5  1  0
  5  6  2  0
  5 10  1  0
  6  7  1  0
  7  1  1  0
  7  8  2  0
  1  2  2  0
  1  3  1  0
  3 16  1  0
 16 17  1  0
 17 18  2  0
 17 19  2  0
 17 20  1  0
 20 21  2  0
 20 26  1  0
 21 22  1  0
 22 23  1  0
 22 24  2  0
 24 25  1  0
 25 26  2  0
 26 27  1  0
  8  9  1  0
  9 11  1  0
  9 10  2  0
 11 12  1  0
 11 15  1  0
 12 13  2  0
 13 14  1  0
 14 15  2  0
M  END
>  <minimizedAffinity>  (173) 
-9.05782

$$$$
data/reference_output_2/data/smiles/105659.pdb
     RDKit          3D

 27 29  0  0  0  0  0  0  0  0999 V2000
   68.7333   43.4004   56.5781 N   0  0  0  0  0  0  0  0  0  0  0  0
   68.1446   42.2418   56.5104 N   0  0  0  0  0  0  0  0  0  0  0  0
   68.6572   41.3612   57.3867 C   0  0  0  0  0  0  0  0  0  0  0  0
   68.2101   39.9423   57.5713 C   0  0  0  0  0  0  0  0  0  0  0  0
   69.6654   42.0085   58.0804 C   0  0  0  0  0  0  0  0  0  0  0  0
   69.6844   43.2877   57.5455 C   0  0  0  0  0  0  0  0  0  0  0  0
   70.5809   44.3756   57.9419 C   0  0  0  0  0  0  0  0  0  0  0  0
   68.7092   48.2568   56.2071 C   0  0  0  0  0  0  0  0  0  0  0  0
   68.4477   46.9197   55.6186 C   0  0  0  0  0  0  0  0  0  0  0  0
   67.9485   46.8577   54.3357 C   0  0  0  0  0  0  0  0  0  0  0  0
   67.7129   45.5956   53.8112 C   0  0  0  0  0  0  0  0  0  0  0  0
   67.2584   45.5413   52.6442 O   0  0  0  0  0  0  0  0  0  0  0  0
   67.9760   44.5122   54.5580 N   0  0  0  0  0  0  0  0  0  0  0  0
   68.4637   44.5671   55.8095 C   0  0  0  0  0  0  0  0  0  0  0  0
   68.6890   45.7934   56.3120 N   0  0  0  0  0  0  0  0  0  0  0  0
   70.5190   41.4227   59.1499 C   0  0  0  0  0  0  0  0  0  0  0  0
   71.8285   41.0821   58.5267 C   0  0  0  0  0  0  0  0  0  0  0  0
   72.1816   39.6352   58.6172 C   0  0  0  0  0  0  0  0  0  0  0  0
   73.2384   39.3944   59.2167 O   0  0  0  0  0  0  0  0  0  0  0  0
   71.3868   38.6245   58.0706 N   0  0  0  0  0  0  0  0  0  0  0  0
   71.6965   37.2512   58.1407 C   0  0  0  0  0  0  0  0  0  0  0  0
   72.5478   36.5502   57.3330 C   0  0  0  0  0  0  0  0  0  0  0  0
   72.8060   35.1869   57.4637 C   0  0  0  0  0  0  0  0  0  0  0  0
   72.1864   34.4751   58.4513 C   0  0  0  0  0  0  0  0  0  0  0  0
   71.3206   35.1317   59.2921 C   0  0  0  0  0  0  0  0  0  0  0  0
   71.0792   36.4728   59.1485 C   0  0  0  0  0  0  0  0  0  0  0  0
   70.2177   37.0656   60.0035 F   0  0  0  0  0  0  0  0  0  0  0  0
  8  9  1  0
  9 10  2  0
  9 15  1  0
 10 11  1  0
 11 12  2  0
 11 13  1  0
 13 14  1  0
 14  1  1  0
 14 15  2  0
  1  2  1  0
  1  6  1  0
  2  3  2  0
  3  4  1  0
  3  5  1  0
  5 16  1  0
  5  6  2  0
 16 17  1  0
 17 18  1  0
 18 19  2  0
 18 20  1  0
 20 21  1  0
 21 22  2  0
 21 26  1  0
 22 23  1  0
 23 24  2  0
 24 25  1  0
 25 26  2  0
 26 27  1  0
  6  7  1  0
M  END
>  <minimizedAffinity>  (174) 
-9.05705

$$$$
data/200k_reference_output/data/smiles/54742.pdb
     RDKit          3D

 27 30  0  0  0  0  0  0  0  0999 V2000
   68.7667   46.6614   56.0810 N   0  0  0  0  0  0  0  0  0  0  0  0
   66.6005   41.8216   55.3972 C   0  0  0  0  0  0  0  0  0  0  0  0
   67.7972   41.9365   56.2095 N   0  0  0  0  0  0  0  0  0  0  0  0
   68.3844   40.9001   56.7906 C   0  0  0  0  0  0  0  0  0  0  0  0
   67.8526   39.7618   56.6133 O   0  0  0  0  0  0  0  0  0  0  0  0
   69.5087   41.0353   57.5483 N   0  0  0  0  0  0  0  0  0  0  0  0
   70.0684   42.2572   57.7320 C   0  0  0  0  0  0  0  0  0  0  0  0
   71.1009   42.4022   58.4250 O   0  0  0  0  0  0  0  0  0  0  0  0
   69.4880   43.3558   57.1439 C   0  0  0  0  0  0  0  0  0  0  0  0
   69.8102   44.6813   57.1403 N   0  0  0  0  0  0  0  0  0  0  0  0
   68.8987   45.2937   56.4020 C   0  0  0  0  0  0  0  0  0  0  0  0
   67.9977   44.3504   55.9386 N   0  0  0  0  0  0  0  0  0  0  0  0
   68.3628   43.1656   56.3950 C   0  0  0  0  0  0  0  0  0  0  0  0
   69.3777   47.7462   56.7444 C   0  0  0  0  0  0  0  0  0  0  0  0
   68.5464   48.9310   57.0316 C   0  0  0  0  0  0  0  0  0  0  0  0
   67.3518   48.7485   57.7370 C   0  0  0  0  0  0  0  0  0  0  0  0
   66.5788   49.8299   58.0086 C   0  0  0  0  0  0  0  0  0  0  0  0
   66.9131   51.1248   57.6181 C   0  0  0  0  0  0  0  0  0  0  0  0
   68.1067   51.2628   56.9213 C   0  0  0  0  0  0  0  0  0  0  0  0
   68.8984   50.1864   56.6390 C   0  0  0  0  0  0  0  0  0  0  0  0
   67.8847   46.9651   54.9348 C   0  0  0  0  0  0  0  0  0  0  0  0
   68.6872   47.3954   53.7606 C   0  0  0  0  0  0  0  0  0  0  0  0
   69.3357   48.5931   53.7119 C   0  0  0  0  0  0  0  0  0  0  0  0
   70.0725   48.9641   52.6114 C   0  0  0  0  0  0  0  0  0  0  0  0
   70.1685   48.1161   51.5206 C   0  0  0  0  0  0  0  0  0  0  0  0
   69.5051   46.9063   51.5890 C   0  0  0  0  0  0  0  0  0  0  0  0
   68.7694   46.5232   52.6752 C   0  0  0  0  0  0  0  0  0  0  0  0
  2  3  1  0
  3  4  1  0
  3 13  1  0
  4  5  2  0
  4  6  1  0
  6  7  1  0
  7  8  2  0
  7  9  1  0
  9 10  1  0
  9 13  2  0
 10 11  1  0
 11  1  1  0
 11 12  2  0
  1 14  1  0
  1 21  1  0
 14 15  1  0
 15 16  2  0
 15 20  1  0
 16 17  1  0
 17 18  2  0
 18 19  1  0
 19 20  2  0
 21 22  1  0
 22 23  2  0
 22 27  1  0
 23 24  1  0
 24 25  2  0
 25 26  1  0
 26 27  2  0
 12 13  1  0
M  CHG  1  12   1
M  END
>  <minimizedAffinity>  (175) 
-9.05554

$$$$
data/reference_output_2/data/smiles/151272.pdb
     RDKit          3D

 26 27  0  0  0  0  0  0  0  0999 V2000
   68.8061   46.6973   54.0970 C   0  0  0  0  0  0  0  0  0  0  0  0
   68.5376   46.3798   52.7788 C   0  0  0  0  0  0  0  0  0  0  0  0
   68.9757   47.1561   51.7261 C   0  0  0  0  0  0  0  0  0  0  0  0
   69.7077   48.2874   52.0270 C   0  0  0  0  0  0  0  0  0  0  0  0
   70.1080   48.9978   51.0704 O   0  0  0  0  0  0  0  0  0  0  0  0
   69.9716   48.6006   53.2960 N   0  0  0  0  0  0  0  0  0  0  0  0
   69.5363   47.8307   54.3321 C   0  0  0  0  0  0  0  0  0  0  0  0
   68.0640   44.4406   54.9276 N   0  0  0  0  0  0  0  0  0  0  0  0
   68.3059   45.8218   55.1515 C   0  0  0  0  0  0  0  0  0  0  0  0
   68.0675   46.2617   56.3115 O   0  0  0  0  0  0  0  0  0  0  0  0
   67.5762   43.6637   56.0126 N   0  0  0  0  0  0  0  0  0  0  0  0
   70.4817   42.1895   57.7012 C   0  0  0  0  0  0  0  0  0  0  0  0
   69.5761   43.1310   57.0821 N   0  0  0  0  0  0  0  0  0  0  0  0
   68.4565   42.7117   56.6220 C   0  0  0  0  0  0  0  0  0  0  0  0
   68.0056   40.9771   56.7376 S   0  0  0  0  0  0  0  0  0  0  0  0
   70.7331   49.7693   53.6566 C   0  0  0  0  0  0  0  0  0  0  0  0
   69.9090   50.6525   54.5308 C   0  0  0  0  0  0  0  0  0  0  0  0
   69.8436   52.0012   54.2495 C   0  0  0  0  0  0  0  0  0  0  0  0
   69.0803   52.8061   55.0666 C   0  0  0  0  0  0  0  0  0  0  0  0
   68.3965   52.2992   56.1343 C   0  0  0  0  0  0  0  0  0  0  0  0
   68.4621   50.9621   56.4125 C   0  0  0  0  0  0  0  0  0  0  0  0
   69.2171   50.1351   55.6132 C   0  0  0  0  0  0  0  0  0  0  0  0
   67.7105   50.4362   57.5771 C   0  0  0  0  0  0  0  0  0  0  0  0
   67.4290   49.1015   57.2942 F   0  0  0  0  0  0  0  0  0  0  0  0
   66.4900   51.0695   57.7113 F   0  0  0  0  0  0  0  0  0  0  0  0
   68.4655   50.4932   58.7066 F   0  0  0  0  0  0  0  0  0  0  0  0
 12 13  1  0
 13 14  2  0
 14 15  1  0
 14 11  1  0
 11  8  1  0
  8  9  1  0
  9 10  2  0
  9  1  1  0
  1  2  1  0
  1  7  2  0
  2  3  2  0
  3  4  1  0
  4  5  2  0
  4  6  1  0
  6 16  1  0
  6  7  1  0
 16 17  1  0
 17 18  2  0
 17 22  1  0
 18 19  1  0
 19 20  2  0
 20 21  1  0
 21 23  1  0
 21 22  2  0
 23 24  1  0
 23 25  1  0
 23 26  1  0
M  CHG  1  13   1
M  END
>  <minimizedAffinity>  (176) 
-9.05482

$$$$
data/200k_reference_output/data/smiles/23024.pdb
     RDKit          3D

 25 27  0  0  0  0  0  0  0  0999 V2000
   69.8335   42.8116   57.3134 O   0  0  0  0  0  0  0  0  0  0  0  0
   68.6182   42.5250   57.2281 C   0  0  0  0  0  0  0  0  0  0  0  0
   67.8207   43.4307   56.5084 N   0  0  0  0  0  0  0  0  0  0  0  0
   68.1191   41.2916   57.8716 C   0  0  0  0  0  0  0  0  0  0  0  0
   68.6126   40.0541   57.5251 C   0  0  0  0  0  0  0  0  0  0  0  0
   68.1302   38.9137   58.1414 C   0  0  0  0  0  0  0  0  0  0  0  0
   67.1525   39.0099   59.1057 C   0  0  0  0  0  0  0  0  0  0  0  0
   66.6779   40.2516   59.4324 C   0  0  0  0  0  0  0  0  0  0  0  0
   67.1408   41.3803   58.8379 C   0  0  0  0  0  0  0  0  0  0  0  0
   66.5924   37.8258   59.8048 C   0  0  0  0  0  0  0  0  0  0  0  0
   67.5977   37.0008   60.3045 F   0  0  0  0  0  0  0  0  0  0  0  0
   65.8638   37.0578   58.9139 F   0  0  0  0  0  0  0  0  0  0  0  0
   65.7387   38.2418   60.8112 F   0  0  0  0  0  0  0  0  0  0  0  0
   68.2652   44.5875   55.9005 N   0  0  0  0  0  0  0  0  0  0  0  0
   67.9664   45.0147   54.7527 C   0  0  0  0  0  0  0  0  0  0  0  0
   68.4692   46.2520   54.1575 C   0  0  0  0  0  0  0  0  0  0  0  0
   68.4936   47.4458   54.8499 C   0  0  0  0  0  0  0  0  0  0  0  0
   68.9720   48.6130   54.2770 C   0  0  0  0  0  0  0  0  0  0  0  0
   69.4455   48.6212   52.9803 C   0  0  0  0  0  0  0  0  0  0  0  0
   69.4292   47.4367   52.2725 C   0  0  0  0  0  0  0  0  0  0  0  0
   68.9449   46.2699   52.8625 C   0  0  0  0  0  0  0  0  0  0  0  0
   69.9386   47.7352   51.0622 N   0  0  0  0  0  0  0  0  0  0  0  0
   70.2466   49.0026   51.0221 O   0  0  0  0  0  0  0  0  0  0  0  0
   69.9598   49.5611   52.1636 N   0  0  0  0  0  0  0  0  0  0  0  0
   70.1454   50.8964   52.5015 O   0  0  0  0  0  0  0  0  0  0  0  0
  1  2  2  0
  2  3  1  0
  2  4  1  0
  3 14  1  0
 14 15  2  0
 15 16  1  0
 16 17  1  0
 16 21  2  0
 17 18  2  0
 18 19  1  0
 19 20  1  0
 19 24  2  0
 20 21  1  0
 20 22  2  0
 22 23  1  0
 23 24  1  0
 24 25  1  0
  4  5  2  0
  4  9  1  0
  5  6  1  0
  6  7  2  0
  7 10  1  0
  7  8  1  0
 10 11  1  0
 10 12  1  0
 10 13  1  0
  8  9  2  0
M  CHG  2  24   1  25  -1
M  END
>  <minimizedAffinity>  (177) 
-9.05193

$$$$
data/200k_reference_output/data/smiles/27479.pdb
     RDKit          3D

 27 30  0  0  0  0  0  0  0  0999 V2000
   72.3808   47.3246   58.7268 C   0  0  0  0  0  0  0  0  0  0  0  0
   71.2353   47.8276   58.1558 C   0  0  0  0  0  0  0  0  0  0  0  0
   70.2110   47.0788   57.6326 C   0  0  0  0  0  0  0  0  0  0  0  0
   70.3506   45.6820   57.6876 C   0  0  0  0  0  0  0  0  0  0  0  0
   71.4793   45.1437   58.2511 C   0  0  0  0  0  0  0  0  0  0  0  0
   72.4843   45.9274   58.7663 C   0  0  0  0  0  0  0  0  0  0  0  0
   73.6095   45.4077   59.3267 F   0  0  0  0  0  0  0  0  0  0  0  0
   72.6228   47.8443   61.4008 O   0  0  0  0  0  0  0  0  0  0  0  0
   73.4618   48.4307   60.6471 C   0  0  0  0  0  0  0  0  0  0  0  0
   74.4100   49.4198   61.2379 C   0  0  0  0  0  0  0  0  0  0  0  0
   74.9261   50.3615   60.1864 C   0  0  0  0  0  0  0  0  0  0  0  0
   75.4913   49.6174   58.9913 C   0  0  0  0  0  0  0  0  0  0  0  0
   74.5381   48.5856   58.5037 C   0  0  0  0  0  0  0  0  0  0  0  0
   74.7108   48.1151   57.3474 O   0  0  0  0  0  0  0  0  0  0  0  0
   73.4413   48.0984   59.2617 N   0  0  0  0  0  0  0  0  0  0  0  0
   68.9826   47.6550   57.0285 C   0  0  0  0  0  0  0  0  0  0  0  0
   68.7058   47.0144   55.7376 C   0  0  0  0  0  0  0  0  0  0  0  0
   68.1136   45.7863   55.8202 N   0  0  0  0  0  0  0  0  0  0  0  0
   67.7592   45.0750   54.7772 N   0  0  0  0  0  0  0  0  0  0  0  0
   67.9865   45.5741   53.5549 C   0  0  0  0  0  0  0  0  0  0  0  0
   67.6535   44.9101   52.5232 O   0  0  0  0  0  0  0  0  0  0  0  0
   68.5800   46.8083   53.3671 C   0  0  0  0  0  0  0  0  0  0  0  0
   68.9412   47.5297   54.5087 C   0  0  0  0  0  0  0  0  0  0  0  0
   69.6286   48.8432   54.4003 C   0  0  0  0  0  0  0  0  0  0  0  0
   69.7994   49.3013   52.9553 C   0  0  0  0  0  0  0  0  0  0  0  0
   70.0684   48.1369   52.0304 C   0  0  0  0  0  0  0  0  0  0  0  0
   68.7982   47.2875   51.9941 C   0  0  0  0  0  0  0  0  0  0  0  0
  8  9  2  0
  9 10  1  0
  9 15  1  0
 10 11  1  0
 11 12  1  0
 12 13  1  0
 13 14  2  0
 13 15  1  0
 15  1  1  0
  1  2  2  0
  1  6  1  0
  2  3  1  0
  3 16  1  0
  3  4  2  0
 16 17  1  0
 17 18  2  0
 17 23  1  0
 18 19  1  0
 19 20  1  0
 20 21  2  0
 20 22  1  0
 22 23  2  0
 22 27  1  0
 23 24  1  0
 24 25  1  0
 25 26  1  0
 26 27  1  0
  4  5  1  0
  5  6  2  0
  6  7  1  0
M  END
>  <minimizedAffinity>  (178) 
-9.05009

$$$$
data/200k_reference_output/data/smiles/7171.pdb
     RDKit          3D

 24 26  0  0  0  0  0  0  0  0999 V2000
   71.9550   41.6062   59.6518 C   0  0  0  0  0  0  0  0  0  0  0  0
   70.7475   41.2304   58.8557 C   0  0  0  0  0  0  0  0  0  0  0  0
   70.2323   39.9573   58.9489 C   0  0  0  0  0  0  0  0  0  0  0  0
   69.1130   39.5972   58.2211 C   0  0  0  0  0  0  0  0  0  0  0  0
   68.5129   40.5316   57.3961 C   0  0  0  0  0  0  0  0  0  0  0  0
   68.9989   41.8148   57.2762 C   0  0  0  0  0  0  0  0  0  0  0  0
   70.1136   42.1217   58.0218 C   0  0  0  0  0  0  0  0  0  0  0  0
   70.7726   43.7315   57.9064 Cl  0  0  0  0  0  0  0  0  0  0  0  0
   68.1679   42.5812   56.3438 C   0  0  0  0  0  0  0  0  0  0  0  0
   68.2950   43.7972   55.9698 N   0  0  0  0  0  0  0  0  0  0  0  0
   67.1247   41.6891   55.8833 C   0  0  0  0  0  0  0  0  0  0  0  0
   66.2056   41.9728   55.0684 O   0  0  0  0  0  0  0  0  0  0  0  0
   67.3718   40.4507   56.5486 N   0  0  0  0  0  0  0  0  0  0  0  0
   67.4771   44.4822   55.0785 N   0  0  0  0  0  0  0  0  0  0  0  0
   68.0691   45.6152   54.4458 C   0  0  0  0  0  0  0  0  0  0  0  0
   68.1063   45.7750   53.0906 C   0  0  0  0  0  0  0  0  0  0  0  0
   68.6975   46.8797   52.5094 C   0  0  0  0  0  0  0  0  0  0  0  0
   69.2731   47.8607   53.2908 C   0  0  0  0  0  0  0  0  0  0  0  0
   69.2464   47.7186   54.6533 C   0  0  0  0  0  0  0  0  0  0  0  0
   68.6593   46.6226   55.2198 C   0  0  0  0  0  0  0  0  0  0  0  0
   70.0374   49.2708   52.6215 S   0  0  0  0  0  0  0  0  0  0  0  0
   69.2739   50.6741   53.2518 N   0  0  0  0  0  0  0  0  0  0  0  0
   69.9993   49.2628   51.1060 O   0  0  0  0  0  0  0  0  0  0  0  0
   71.4881   49.2821   53.0308 O   0  0  0  0  0  0  0  0  0  0  0  0
  1  2  1  0
  2  3  2  0
  2  7  1  0
  3  4  1  0
  4  5  2  0
  5  6  1  0
  5 13  1  0
  6  7  2  0
  6  9  1  0
  7  8  1  0
  9 10  2  0
  9 11  1  0
 10 14  1  0
 14 15  1  0
 15 16  2  0
 15 20  1  0
 16 17  1  0
 17 18  2  0
 18 21  1  0
 18 19  1  0
 21 22  1  0
 21 23  2  0
 21 24  2  0
 19 20  2  0
 11 12  2  0
 11 13  1  0
M  END
>  <minimizedAffinity>  (179) 
-9.04985

$$$$
data/200k_reference_output/data/smiles/60376.pdb
     RDKit          3D

 25 27  0  0  0  0  0  0  0  0999 V2000
   66.3852   42.0274   55.7711 C   0  0  0  0  0  0  0  0  0  0  0  0
   67.7493   42.4194   56.1922 C   0  0  0  0  0  0  0  0  0  0  0  0
   68.1849   43.5717   55.8510 N   0  0  0  0  0  0  0  0  0  0  0  0
   68.5218   41.4625   56.9768 C   0  0  0  0  0  0  0  0  0  0  0  0
   68.0613   40.1736   57.2097 C   0  0  0  0  0  0  0  0  0  0  0  0
   68.7873   39.2640   57.9464 C   0  0  0  0  0  0  0  0  0  0  0  0
   70.0296   39.5789   58.5057 C   0  0  0  0  0  0  0  0  0  0  0  0
   70.4744   40.8648   58.2660 C   0  0  0  0  0  0  0  0  0  0  0  0
   69.7449   41.7746   57.5262 C   0  0  0  0  0  0  0  0  0  0  0  0
   70.7640   38.6391   59.2593 N   0  0  0  0  0  0  0  0  0  0  0  0
   70.2690   37.6286   60.1606 C   0  0  0  0  0  0  0  0  0  0  0  0
   71.0767   36.4096   59.6895 C   0  0  0  0  0  0  0  0  0  0  0  0
   72.2992   36.9692   58.9920 C   0  0  0  0  0  0  0  0  0  0  0  0
   72.1954   38.4728   59.2965 C   0  0  0  0  0  0  0  0  0  0  0  0
   67.4692   44.5181   55.0969 N   0  0  0  0  0  0  0  0  0  0  0  0
   68.0818   45.6795   54.5729 C   0  0  0  0  0  0  0  0  0  0  0  0
   68.1147   45.8750   53.2154 C   0  0  0  0  0  0  0  0  0  0  0  0
   68.6966   46.9918   52.6572 C   0  0  0  0  0  0  0  0  0  0  0  0
   69.2689   47.9560   53.4630 C   0  0  0  0  0  0  0  0  0  0  0  0
   69.2353   47.7601   54.8249 C   0  0  0  0  0  0  0  0  0  0  0  0
   68.6533   46.6413   55.3751 C   0  0  0  0  0  0  0  0  0  0  0  0
   70.0268   49.4037   52.8299 S   0  0  0  0  0  0  0  0  0  0  0  0
   69.9061   49.4208   51.1024 N   0  0  0  0  0  0  0  0  0  0  0  0
   69.3616   50.6450   53.3467 O   0  0  0  0  0  0  0  0  0  0  0  0
   71.4942   49.4173   53.2140 O   0  0  0  0  0  0  0  0  0  0  0  0
  1  2  1  0
  2  3  2  0
  2  4  1  0
  3 15  1  0
 15 16  1  0
 16 17  2  0
 16 21  1  0
 17 18  1  0
 18 19  2  0
 19 22  1  0
 19 20  1  0
 22 23  1  0
 22 24  2  0
 22 25  2  0
 20 21  2  0
  4  5  2  0
  4  9  1  0
  5  6  1  0
  6  7  2  0
  7 10  1  0
  7  8  1  0
 10 11  1  0
 10 14  1  0
 11 12  1  0
 12 13  1  0
 13 14  1  0
  8  9  2  0
M  END
>  <minimizedAffinity>  (180) 
-9.04958

$$$$
data/reference_output_2/data/smiles/191948.pdb
     RDKit          3D

 26 29  0  0  0  0  0  0  0  0999 V2000
   71.0438   45.7827   58.2061 C   0  0  0  0  0  0  0  0  0  0  0  0
   70.0600   46.3497   57.4123 C   0  0  0  0  0  0  0  0  0  0  0  0
   69.9412   47.7232   57.2661 C   0  0  0  0  0  0  0  0  0  0  0  0
   70.8513   48.5033   57.9478 C   0  0  0  0  0  0  0  0  0  0  0  0
   71.8396   47.9624   58.7439 C   0  0  0  0  0  0  0  0  0  0  0  0
   71.9353   46.5840   58.8734 C   0  0  0  0  0  0  0  0  0  0  0  0
   72.9203   46.0936   59.6641 F   0  0  0  0  0  0  0  0  0  0  0  0
   69.2629   43.8411   59.7007 O   0  0  0  0  0  0  0  0  0  0  0  0
   70.1779   43.4897   58.9183 C   0  0  0  0  0  0  0  0  0  0  0  0
   70.4463   42.1017   58.4692 C   0  0  0  0  0  0  0  0  0  0  0  0
   71.8649   42.1487   58.0000 C   0  0  0  0  0  0  0  0  0  0  0  0
   72.2104   43.5816   57.8375 C   0  0  0  0  0  0  0  0  0  0  0  0
   73.2858   44.0101   57.3529 O   0  0  0  0  0  0  0  0  0  0  0  0
   71.1220   44.3665   58.3239 N   0  0  0  0  0  0  0  0  0  0  0  0
   68.8666   48.2790   56.4009 C   0  0  0  0  0  0  0  0  0  0  0  0
   69.3520   48.3699   55.0145 C   0  0  0  0  0  0  0  0  0  0  0  0
   70.2867   49.2742   54.6732 N   0  0  0  0  0  0  0  0  0  0  0  0
   70.7432   49.3755   53.4171 N   0  0  0  0  0  0  0  0  0  0  0  0
   70.2883   48.5769   52.4346 C   0  0  0  0  0  0  0  0  0  0  0  0
   70.7321   48.6869   51.2526 O   0  0  0  0  0  0  0  0  0  0  0  0
   69.3300   47.6262   52.7090 C   0  0  0  0  0  0  0  0  0  0  0  0
   68.8553   46.8023   51.7098 C   0  0  0  0  0  0  0  0  0  0  0  0
   67.8954   45.8573   52.0036 C   0  0  0  0  0  0  0  0  0  0  0  0
   67.4416   45.7724   53.3058 C   0  0  0  0  0  0  0  0  0  0  0  0
   67.9231   46.5979   54.2843 C   0  0  0  0  0  0  0  0  0  0  0  0
   68.8798   47.5481   54.0150 C   0  0  0  0  0  0  0  0  0  0  0  0
  8  9  2  0
  9 10  1  0
  9 14  1  0
 10 11  1  0
 11 12  1  0
 12 13  2  0
 12 14  1  0
 14  1  1  0
  1  2  2  0
  1  6  1  0
  2  3  1  0
  3 15  1  0
  3  4  2  0
 15 16  1  0
 16 17  2  0
 16 26  1  0
 17 18  1  0
 18 19  1  0
 19 20  2  0
 19 21  1  0
 21 22  1  0
 21 26  2  0
 22 23  2  0
 23 24  1  0
 24 25  2  0
 25 26  1  0
  4  5  1  0
  5  6  2  0
  6  7  1  0
M  END
>  <minimizedAffinity>  (181) 
-9.04883

$$$$
data/200k_reference_output/data/smiles/40678.pdb
     RDKit          3D

 26 28  0  0  0  0  0  0  0  0999 V2000
   69.2528   43.3642   57.5281 N   0  0  0  0  0  0  0  0  0  0  0  0
   68.4301   42.2602   57.1814 C   0  0  0  0  0  0  0  0  0  0  0  0
   67.7103   42.4191   56.1549 O   0  0  0  0  0  0  0  0  0  0  0  0
   68.3771   41.0037   57.9218 C   0  0  0  0  0  0  0  0  0  0  0  0
   67.2391   40.7035   58.6410 C   0  0  0  0  0  0  0  0  0  0  0  0
   67.0921   39.5466   59.3700 C   0  0  0  0  0  0  0  0  0  0  0  0
   68.1741   38.6687   59.3492 C   0  0  0  0  0  0  0  0  0  0  0  0
   69.3245   38.9104   58.6581 C   0  0  0  0  0  0  0  0  0  0  0  0
   69.4141   40.1024   57.9368 C   0  0  0  0  0  0  0  0  0  0  0  0
   70.4224   38.0077   58.6433 N   0  0  0  0  0  0  0  0  0  0  0  0
   70.4970   36.8768   59.3737 C   0  0  0  0  0  0  0  0  0  0  0  0
   71.6719   36.2197   59.1481 C   0  0  0  0  0  0  0  0  0  0  0  0
   72.3688   36.9693   58.2342 C   0  0  0  0  0  0  0  0  0  0  0  0
   71.5618   38.0733   57.9446 C   0  0  0  0  0  0  0  0  0  0  0  0
   69.8062   45.6911   58.7081 O   0  0  0  0  0  0  0  0  0  0  0  0
   69.5773   45.7577   57.4848 C   0  0  0  0  0  0  0  0  0  0  0  0
   69.2749   44.5546   56.7907 N   0  0  0  0  0  0  0  0  0  0  0  0
   69.6291   47.0794   56.8060 C   0  0  0  0  0  0  0  0  0  0  0  0
   68.5330   47.2312   55.9397 O   0  0  0  0  0  0  0  0  0  0  0  0
   68.5305   47.0467   54.5758 C   0  0  0  0  0  0  0  0  0  0  0  0
   69.2634   47.9368   53.8173 C   0  0  0  0  0  0  0  0  0  0  0  0
   69.3231   47.8319   52.4453 C   0  0  0  0  0  0  0  0  0  0  0  0
   68.6241   46.8067   51.8477 C   0  0  0  0  0  0  0  0  0  0  0  0
   67.8753   45.8888   52.5552 C   0  0  0  0  0  0  0  0  0  0  0  0
   67.1936   44.8824   51.9317 F   0  0  0  0  0  0  0  0  0  0  0  0
   67.8452   46.0345   53.9423 C   0  0  0  0  0  0  0  0  0  0  0  0
 15 16  2  0
 16 18  1  0
 16 17  1  0
 18 19  1  0
 19 20  1  0
 20 21  2  0
 20 26  1  0
 21 22  1  0
 22 23  2  0
 23 24  1  0
 24 25  1  0
 24 26  2  0
 17  1  1  0
  1  2  1  0
  2  3  2  0
  2  4  1  0
  4  5  2  0
  4  9  1  0
  5  6  1  0
  6  7  2  0
  7  8  1  0
  8 10  1  0
  8  9  2  0
 10 11  1  0
 10 14  1  0
 11 12  2  0
 12 13  1  0
 13 14  2  0
M  END
>  <minimizedAffinity>  (182) 
-9.04842

$$$$
data/reference_output_2/data/smiles/130073.pdb
     RDKit          3D

 29 32  0  0  0  0  0  0  0  0999 V2000
   68.2653   46.3244   54.3309 C   0  0  0  0  0  0  0  0  0  0  0  0
   67.7905   45.4150   53.3977 C   0  0  0  0  0  0  0  0  0  0  0  0
   67.9137   45.6706   52.0457 C   0  0  0  0  0  0  0  0  0  0  0  0
   68.5130   46.8339   51.6093 C   0  0  0  0  0  0  0  0  0  0  0  0
   68.9961   47.7587   52.5252 C   0  0  0  0  0  0  0  0  0  0  0  0
   68.8593   47.4765   53.8758 C   0  0  0  0  0  0  0  0  0  0  0  0
   69.4579   48.5986   54.5881 C   0  0  0  0  0  0  0  0  0  0  0  0
   69.5181   48.6863   55.8408 O   0  0  0  0  0  0  0  0  0  0  0  0
   69.9672   49.5821   53.6577 N   0  0  0  0  0  0  0  0  0  0  0  0
   69.6708   49.0432   52.3881 C   0  0  0  0  0  0  0  0  0  0  0  0
   69.9272   49.5541   51.2801 O   0  0  0  0  0  0  0  0  0  0  0  0
   70.5873   50.8055   54.0704 C   0  0  1  0  0  0  0  0  0  0  0  0
   69.7219   52.0094   54.1373 C   0  0  0  0  0  0  0  0  0  0  0  0
   68.8455   52.1529   55.3298 C   0  0  0  0  0  0  0  0  0  0  0  0
   69.5084   51.7263   56.5646 C   0  0  0  0  0  0  0  0  0  0  0  0
   68.8700   51.7736   57.6748 O   0  0  0  0  0  0  0  0  0  0  0  0
   70.8434   51.2641   56.5458 N   0  0  0  0  0  0  0  0  0  0  0  0
   71.2865   50.6195   55.3503 C   0  0  0  0  0  0  0  0  0  0  0  0
   72.2951   49.8764   55.3865 O   0  0  0  0  0  0  0  0  0  0  0  0
   68.1544   46.0750   55.6975 N   0  0  0  0  0  0  0  0  0  0  0  0
   70.7015   43.7437   58.0888 C   0  0  0  0  0  0  0  0  0  0  0  0
   69.7503   43.1545   57.2873 C   0  0  0  0  0  0  0  0  0  0  0  0
   68.9226   43.9319   56.5074 C   0  0  0  0  0  0  0  0  0  0  0  0
   69.0234   45.3054   56.5109 C   0  0  0  0  0  0  0  0  0  0  0  0
   69.9634   45.8925   57.3028 C   0  0  0  0  0  0  0  0  0  0  0  0
   70.7864   45.1204   58.0765 C   0  0  0  0  0  0  0  0  0  0  0  0
   71.5987   42.9029   58.9335 C   0  0  0  0  0  0  0  0  0  0  0  0
   73.6993   42.7973   57.6414 C   0  0  0  0  0  0  0  0  0  0  0  0
   72.4809   42.0270   58.0426 C   0  0  0  0  0  0  0  0  0  0  0  0
 28 29  1  0
 29 27  1  0
 27 21  1  0
 21 22  2  0
 21 26  1  0
 22 23  1  0
 23 24  2  0
 24 20  1  0
 24 25  1  0
 20  1  1  0
  1  2  2  0
  1  6  1  0
  2  3  1  0
  3  4  2  0
  4  5  1  0
  5  6  2  0
  5 10  1  0
  6  7  1  0
  7  8  2  0
  7  9  1  0
 12  9  1  1
  9 10  1  0
 12 13  1  0
 12 18  1  0
 13 14  1  0
 14 15  1  0
 15 16  2  0
 15 17  1  0
 17 18  1  0
 18 19  2  0
 10 11  2  0
 25 26  2  0
M  END
>  <minimizedAffinity>  (183) 
-9.04774

$$$$
data/200k_reference_output/data/smiles/63098.pdb
     RDKit          3D

 27 29  0  0  0  0  0  0  0  0999 V2000
   68.2264   45.7895   53.9250 C   0  0  0  0  0  0  0  0  0  0  0  0
   67.6081   45.2494   52.8406 C   0  0  0  0  0  0  0  0  0  0  0  0
   67.6653   45.8965   51.6127 C   0  0  0  0  0  0  0  0  0  0  0  0
   68.3539   47.1062   51.4673 C   0  0  0  0  0  0  0  0  0  0  0  0
   68.9777   47.6466   52.5681 C   0  0  0  0  0  0  0  0  0  0  0  0
   68.9010   46.9815   53.7658 C   0  0  0  0  0  0  0  0  0  0  0  0
   67.8921   43.8083   55.4868 N   0  0  0  0  0  0  0  0  0  0  0  0
   68.2123   45.1711   55.2503 C   0  0  0  0  0  0  0  0  0  0  0  0
   68.4986   45.8592   56.2787 O   0  0  0  0  0  0  0  0  0  0  0  0
   67.3656   41.1750   55.8320 C   0  0  0  0  0  0  0  0  0  0  0  0
   67.6531   42.0259   57.0150 C   0  0  0  0  0  0  0  0  0  0  0  0
   67.8952   43.2659   56.7966 N   0  0  0  0  0  0  0  0  0  0  0  0
   67.6457   41.4319   58.3397 C   0  0  0  0  0  0  0  0  0  0  0  0
   66.5490   41.5529   59.1579 C   0  0  0  0  0  0  0  0  0  0  0  0
   66.5151   40.9913   60.4337 C   0  0  0  0  0  0  0  0  0  0  0  0
   67.5858   40.2942   60.9169 C   0  0  0  0  0  0  0  0  0  0  0  0
   68.6994   40.1655   60.0995 C   0  0  0  0  0  0  0  0  0  0  0  0
   68.7276   40.7279   58.8259 C   0  0  0  0  0  0  0  0  0  0  0  0
   69.8192   40.5972   58.0342 F   0  0  0  0  0  0  0  0  0  0  0  0
   69.8605   49.1459   52.5001 S   0  0  0  0  0  0  0  0  0  0  0  0
   69.9604   49.6934   51.1280 O   0  0  0  0  0  0  0  0  0  0  0  0
   71.2518   48.8822   52.9972 O   0  0  0  0  0  0  0  0  0  0  0  0
   69.1209   50.2678   53.5840 N   0  0  0  0  0  0  0  0  0  0  0  0
   69.3513   49.8755   54.9762 C   0  0  0  0  0  0  0  0  0  0  0  0
   68.9566   51.1446   55.7185 C   0  0  0  0  0  0  0  0  0  0  0  0
   69.0511   52.2676   54.7069 C   0  0  0  0  0  0  0  0  0  0  0  0
   69.7725   51.5589   53.5522 C   0  0  0  0  0  0  0  0  0  0  0  0
 10 11  1  0
 11 12  2  0
 11 13  1  0
 12  7  1  0
  7  8  1  0
  8  9  2  0
  8  1  1  0
  1  2  2  0
  1  6  1  0
  2  3  1  0
  3  4  2  0
  4  5  1  0
  5 20  1  0
  5  6  2  0
 20 21  2  0
 20 22  2  0
 20 23  1  0
 23 24  1  0
 23 27  1  0
 24 25  1  0
 25 26  1  0
 26 27  1  0
 13 14  2  0
 13 18  1  0
 14 15  1  0
 15 16  2  0
 16 17  1  0
 17 18  2  0
 18 19  1  0
M  END
>  <minimizedAffinity>  (184) 
-9.04653

$$$$
data/reference_output_2/data/smiles/106895.pdb
     RDKit          3D

 27 30  0  0  0  0  0  0  0  0999 V2000
   69.7116   49.5932   53.3416 C   0  0  0  0  0  0  0  0  0  0  0  0
   69.3258   48.3680   53.9584 N   0  0  0  0  0  0  0  0  0  0  0  0
   68.7240   47.3508   53.3188 C   0  0  0  0  0  0  0  0  0  0  0  0
   68.4477   47.4413   51.9643 C   0  0  0  0  0  0  0  0  0  0  0  0
   67.8310   46.4017   51.2898 C   0  0  0  0  0  0  0  0  0  0  0  0
   67.4628   45.2407   51.9172 C   0  0  0  0  0  0  0  0  0  0  0  0
   67.7450   45.1555   53.2868 C   0  0  0  0  0  0  0  0  0  0  0  0
   68.3613   46.1759   53.9909 C   0  0  0  0  0  0  0  0  0  0  0  0
   68.6337   46.0776   55.3328 C   0  0  0  0  0  0  0  0  0  0  0  0
   68.3568   45.0924   56.0144 N   0  0  0  0  0  0  0  0  0  0  0  0
   69.2707   47.1510   56.0133 C   0  0  0  0  0  0  0  0  0  0  0  0
   69.5363   47.0159   57.3744 C   0  0  0  0  0  0  0  0  0  0  0  0
   70.1566   48.0537   58.0366 C   0  0  0  0  0  0  0  0  0  0  0  0
   70.5024   49.1974   57.3485 C   0  0  0  0  0  0  0  0  0  0  0  0
   70.2233   49.3028   55.9817 C   0  0  0  0  0  0  0  0  0  0  0  0
   69.5935   48.2564   55.2990 C   0  0  0  0  0  0  0  0  0  0  0  0
   67.8122   43.8941   55.9620 N   0  0  0  0  0  0  0  0  0  0  0  0
   68.3249   42.7275   56.6484 C   0  0  0  0  0  0  0  0  0  0  0  0
   67.6766   41.5170   56.6144 C   0  0  0  0  0  0  0  0  0  0  0  0
   68.1667   40.4117   57.2666 C   0  0  0  0  0  0  0  0  0  0  0  0
   69.3385   40.4887   57.9853 C   0  0  0  0  0  0  0  0  0  0  0  0
   69.9773   41.7182   58.0069 C   0  0  0  0  0  0  0  0  0  0  0  0
   69.5016   42.8218   57.3642 C   0  0  0  0  0  0  0  0  0  0  0  0
   70.0358   39.1554   58.8398 S   0  0  0  0  0  0  0  0  0  0  0  0
   71.2186   38.3097   57.9128 N   0  0  0  0  0  0  0  0  0  0  0  0
   68.9353   38.1545   59.1558 O   0  0  0  0  0  0  0  0  0  0  0  0
   70.6674   39.6404   60.1211 O   0  0  0  0  0  0  0  0  0  0  0  0
  1  2  1  0
  2  3  1  0
  2 16  1  0
  3  4  2  0
  3  8  1  0
  4  5  1  0
  5  6  2  0
  6  7  1  0
  7  8  2  0
  8  9  1  0
  9 10  2  0
  9 11  1  0
 10 17  1  0
 17 18  1  0
 18 19  2  0
 18 23  1  0
 19 20  1  0
 20 21  2  0
 21 24  1  0
 21 22  1  0
 24 25  1  0
 24 26  2  0
 24 27  2  0
 22 23  2  0
 11 12  1  0
 11 16  2  0
 12 13  2  0
 13 14  1  0
 14 15  2  0
 15 16  1  0
M  END
>  <minimizedAffinity>  (185) 
-9.04643

$$$$
data/200k_reference_output/data/smiles/14231.pdb
     RDKit          3D

 27 30  0  0  0  0  0  0  0  0999 V2000
   72.1084   52.2417   57.9939 C   0  0  0  0  0  0  0  0  0  0  0  0
   73.0090   51.0149   57.7981 C   0  0  1  0  0  0  0  0  0  0  0  0
   73.9444   51.0126   58.9368 C   0  0  0  0  0  0  0  0  0  0  0  0
   74.8324   51.8732   59.2313 O   0  0  0  0  0  0  0  0  0  0  0  0
   73.7019   49.8482   59.7048 N   0  0  0  0  0  0  0  0  0  0  0  0
   74.2793   49.2823   60.9208 C   0  0  0  0  0  0  0  0  0  0  0  0
   74.1489   47.7767   60.8587 C   0  0  0  0  0  0  0  0  0  0  0  0
   72.7004   47.3478   60.7711 C   0  0  0  0  0  0  0  0  0  0  0  0
   72.1379   47.9484   59.5416 C   0  0  0  0  0  0  0  0  0  0  0  0
   71.1070   47.3878   58.8034 C   0  0  0  0  0  0  0  0  0  0  0  0
   70.6223   47.9926   57.6630 C   0  0  0  0  0  0  0  0  0  0  0  0
   71.1796   49.1831   57.2520 C   0  0  0  0  0  0  0  0  0  0  0  0
   72.2167   49.7793   57.9666 C   0  0  0  0  0  0  0  0  0  0  0  0
   72.6626   49.1390   59.0909 C   0  0  0  0  0  0  0  0  0  0  0  0
   69.3208   47.2613   56.7517 S   0  0  0  0  0  0  0  0  0  0  0  0
   69.3407   45.7730   56.7933 O   0  0  0  0  0  0  0  0  0  0  0  0
   67.9965   47.7944   57.2930 O   0  0  0  0  0  0  0  0  0  0  0  0
   69.4667   47.8841   55.1291 N   0  0  0  0  0  0  0  0  0  0  0  0
   68.9231   47.2040   54.0125 C   0  0  0  0  0  0  0  0  0  0  0  0
   68.0461   46.1287   54.2275 C   0  0  0  0  0  0  0  0  0  0  0  0
   67.5025   45.4951   53.1252 C   0  0  0  0  0  0  0  0  0  0  0  0
   67.7894   45.8773   51.8403 C   0  0  0  0  0  0  0  0  0  0  0  0
   68.6466   46.9265   51.6315 C   0  0  0  0  0  0  0  0  0  0  0  0
   69.2150   47.5917   52.7326 C   0  0  0  0  0  0  0  0  0  0  0  0
   70.1332   48.6725   52.4635 C   0  0  0  0  0  0  0  0  0  0  0  0
   69.8873   49.5061   51.3125 N   0  0  0  0  0  0  0  0  0  0  0  0
   71.1402   48.9821   53.1228 O   0  0  0  0  0  0  0  0  0  0  0  0
  2  1  1  1
  2  3  1  0
  2 13  1  0
  3  4  2  0
  3  5  1  0
  5  6  1  0
  5 14  1  0
  6  7  1  0
  7  8  1  0
  8  9  1  0
  9 10  1  0
  9 14  2  0
 10 11  2  0
 11 15  1  0
 11 12  1  0
 15 16  2  0
 15 17  2  0
 15 18  1  0
 18 19  1  0
 19 20  2  0
 19 24  1  0
 20 21  1  0
 21 22  2  0
 22 23  1  0
 23 24  2  0
 24 25  1  0
 25 26  1  0
 25 27  2  0
 12 13  2  0
 13 14  1  0
M  END
>  <minimizedAffinity>  (186) 
-9.04600

$$$$
data/reference_output_2/data/smiles/87938.pdb
     RDKit          3D

 28 31  0  0  0  0  0  0  0  0999 V2000
   70.2450   48.6316   57.3561 N   0  0  0  0  0  0  0  0  0  0  0  0
   70.5851   49.3493   56.3182 N   0  0  0  0  0  0  0  0  0  0  0  0
   70.1977   49.0219   55.0452 C   0  0  0  0  0  0  0  0  0  0  0  0
   70.6195   49.8734   53.9150 C   0  0  0  0  0  0  0  0  0  0  0  0
   69.4421   47.9261   54.8481 N   0  0  0  0  0  0  0  0  0  0  0  0
   69.0653   47.1508   55.9031 C   0  0  0  0  0  0  0  0  0  0  0  0
   68.3038   46.0792   55.4805 C   0  0  0  0  0  0  0  0  0  0  0  0
   68.1996   46.1837   54.1208 C   0  0  0  0  0  0  0  0  0  0  0  0
   67.5676   45.4050   53.1595 C   0  0  0  0  0  0  0  0  0  0  0  0
   67.6106   45.7231   51.8260 C   0  0  0  0  0  0  0  0  0  0  0  0
   67.0026   44.9740   50.8728 F   0  0  0  0  0  0  0  0  0  0  0  0
   68.3066   46.8481   51.4733 C   0  0  0  0  0  0  0  0  0  0  0  0
   68.9515   47.6470   52.4280 C   0  0  0  0  0  0  0  0  0  0  0  0
   68.9039   47.3237   53.7536 C   0  0  0  0  0  0  0  0  0  0  0  0
   69.4982   47.5507   57.1587 C   0  0  0  0  0  0  0  0  0  0  0  0
   69.1470   46.8292   58.1395 O   0  0  0  0  0  0  0  0  0  0  0  0
   70.6422   48.9159   58.7276 C   0  0  0  0  0  0  0  0  0  0  0  0
   72.5963   47.3262   58.3096 N   0  0  0  0  0  0  0  0  0  0  0  0
   71.6337   47.8772   59.1711 C   0  0  0  0  0  0  0  0  0  0  0  0
   71.5680   47.5020   60.3817 O   0  0  0  0  0  0  0  0  0  0  0  0
   73.5198   46.3002   58.7805 C   0  0  0  0  0  0  0  0  0  0  0  0
   69.8018   43.1796   57.5894 C   0  0  0  0  0  0  0  0  0  0  0  0
   71.2820   43.3820   57.7268 C   0  0  0  0  0  0  0  0  0  0  0  0
   72.2147   42.4357   57.4470 C   0  0  0  0  0  0  0  0  0  0  0  0
   73.5579   42.7070   57.5916 C   0  0  0  0  0  0  0  0  0  0  0  0
   73.9597   43.9506   58.0233 C   0  0  0  0  0  0  0  0  0  0  0  0
   73.0259   44.9561   58.3222 C   0  0  0  0  0  0  0  0  0  0  0  0
   71.7085   44.6332   58.1627 C   0  0  0  0  0  0  0  0  0  0  0  0
 22 23  1  0
 23 24  2  0
 23 28  1  0
 24 25  1  0
 25 26  2  0
 26 27  1  0
 27 21  1  0
 27 28  2  0
 21 18  1  0
 18 19  1  0
 19 20  2  0
 19 17  1  0
 17  1  1  0
  1  2  1  0
  1 15  1  0
  2  3  2  0
  3  4  1  0
  3  5  1  0
  5  6  1  0
  5 14  1  0
  6  7  2  0
  6 15  1  0
  7  8  1  0
  8  9  1  0
  8 14  2  0
  9 10  2  0
 10 11  1  0
 10 12  1  0
 12 13  2  0
 13 14  1  0
 15 16  2  0
M  END
>  <minimizedAffinity>  (187) 
-9.04406

$$$$
data/reference_output_2/data/smiles/89015.pdb
     RDKit          3D

 27 29  0  0  0  0  0  0  0  0999 V2000
   69.7333   43.8465   57.5669 C   0  0  0  0  0  0  0  0  0  0  0  0
   70.7038   43.9703   58.3633 O   0  0  0  0  0  0  0  0  0  0  0  0
   69.2382   45.0134   56.9594 N   0  0  0  0  0  0  0  0  0  0  0  0
   69.1199   40.1147   57.7988 C   0  0  0  0  0  0  0  0  0  0  0  0
   68.1320   39.9835   56.8433 C   0  0  0  0  0  0  0  0  0  0  0  0
   67.6669   41.0796   56.1315 C   0  0  0  0  0  0  0  0  0  0  0  0
   66.6989   40.9526   55.1933 F   0  0  0  0  0  0  0  0  0  0  0  0
   68.1918   42.3329   56.3707 C   0  0  0  0  0  0  0  0  0  0  0  0
   69.1846   42.4972   57.3249 C   0  0  0  0  0  0  0  0  0  0  0  0
   69.6193   41.3873   58.0100 C   0  0  0  0  0  0  0  0  0  0  0  0
   67.5925   38.8486   60.0509 C   0  0  0  0  0  0  0  0  0  0  0  0
   68.8957   38.3922   59.5406 C   0  0  0  0  0  0  0  0  0  0  0  0
   69.6456   37.3187   59.9915 C   0  0  0  0  0  0  0  0  0  0  0  0
   70.7879   37.2712   59.2208 C   0  0  0  0  0  0  0  0  0  0  0  0
   70.6984   38.2898   58.3489 N   0  0  0  0  0  0  0  0  0  0  0  0
   69.5796   38.9755   58.5167 N   0  0  0  0  0  0  0  0  0  0  0  0
   69.7046   46.2954   57.1480 N   0  0  0  0  0  0  0  0  0  0  0  0
   68.8009   47.5101   56.3423 S   0  0  0  0  0  0  0  0  0  0  0  0
   67.3660   47.5011   56.8015 O   0  0  0  0  0  0  0  0  0  0  0  0
   69.4214   48.8353   56.7282 O   0  0  0  0  0  0  0  0  0  0  0  0
   68.8560   47.3435   54.6106 C   0  0  0  0  0  0  0  0  0  0  0  0
   69.4771   48.3251   53.8309 C   0  0  0  0  0  0  0  0  0  0  0  0
   69.5305   48.2122   52.4768 C   0  0  0  0  0  0  0  0  0  0  0  0
   68.9675   47.1193   51.8352 C   0  0  0  0  0  0  0  0  0  0  0  0
   68.3495   46.1433   52.6153 C   0  0  0  0  0  0  0  0  0  0  0  0
   68.2943   46.2534   53.9850 C   0  0  0  0  0  0  0  0  0  0  0  0
   67.6982   45.3161   54.7527 F   0  0  0  0  0  0  0  0  0  0  0  0
 11 12  1  0
 12 13  2  0
 12 16  1  0
 13 14  1  0
 14 15  2  0
 15 16  1  0
 16  4  1  0
  4  5  2  0
  4 10  1  0
  5  6  1  0
  6  7  1  0
  6  8  2  0
  8  9  1  0
  9  1  1  0
  9 10  2  0
  1  2  2  0
  1  3  1  0
  3 17  1  0
 17 18  1  0
 18 19  2  0
 18 20  2  0
 18 21  1  0
 21 22  2  0
 21 26  1  0
 22 23  1  0
 23 24  2  0
 24 25  1  0
 25 26  2  0
 26 27  1  0
M  END
>  <minimizedAffinity>  (188) 
-9.04391

$$$$
data/200k_reference_output/data/smiles/84438.pdb
     RDKit          3D

 28 30  0  0  0  0  0  0  0  0999 V2000
   68.1906   45.9317   53.9783 C   0  0  0  0  0  0  0  0  0  0  0  0
   67.7515   45.7390   52.6928 C   0  0  0  0  0  0  0  0  0  0  0  0
   68.0988   46.5792   51.6259 C   0  0  0  0  0  0  0  0  0  0  0  0
   68.9236   47.6499   51.8932 C   0  0  0  0  0  0  0  0  0  0  0  0
   69.3956   47.8934   53.1609 C   0  0  0  0  0  0  0  0  0  0  0  0
   69.0365   47.0591   54.1575 C   0  0  0  0  0  0  0  0  0  0  0  0
   70.2505   49.0422   53.3858 C   0  0  0  0  0  0  0  0  0  0  0  0
   71.3199   49.0865   52.6941 O   0  0  0  0  0  0  0  0  0  0  0  0
   69.9744   50.0809   54.2968 N   0  0  0  0  0  0  0  0  0  0  0  0
   70.8118   51.2547   54.5455 C   0  0  0  0  0  0  0  0  0  0  0  0
   70.8894   51.2161   56.0680 C   0  0  0  0  0  0  0  0  0  0  0  0
   69.4801   50.7789   56.4391 C   0  0  2  0  0  0  0  0  0  0  0  0
   68.8527   50.2385   55.1734 C   0  0  0  0  0  0  0  0  0  0  0  0
   68.6731   51.9664   56.9244 C   0  0  0  0  0  0  0  0  0  0  0  0
   67.3801   51.5614   57.1713 O   0  0  0  0  0  0  0  0  0  0  0  0
   67.9058   45.1839   55.0217 O   0  0  0  0  0  0  0  0  0  0  0  0
   68.4610   42.1009   56.9463 C   0  0  0  0  0  0  0  0  0  0  0  0
   67.9325   42.9795   56.0111 C   0  0  0  0  0  0  0  0  0  0  0  0
   68.3426   44.2722   55.8785 C   0  0  0  0  0  0  0  0  0  0  0  0
   69.3314   44.6605   56.7437 N   0  0  0  0  0  0  0  0  0  0  0  0
   69.8873   43.8914   57.6605 C   0  0  0  0  0  0  0  0  0  0  0  0
   69.4511   42.5750   57.7768 C   0  0  0  0  0  0  0  0  0  0  0  0
   70.9625   44.4047   58.5579 C   0  0  0  0  0  0  0  0  0  0  0  0
   70.6295   45.6549   59.0318 F   0  0  0  0  0  0  0  0  0  0  0  0
   71.0802   43.5068   59.5988 F   0  0  0  0  0  0  0  0  0  0  0  0
   72.1532   44.4653   57.8400 F   0  0  0  0  0  0  0  0  0  0  0  0
   67.7371   40.1785   55.7330 N   0  0  0  0  0  0  0  0  0  0  0  0
   68.0156   40.7017   57.0712 C   0  0  0  0  0  0  0  0  0  0  0  0
 27 28  1  0
 28 17  1  0
 17 18  2  0
 17 22  1  0
 18 19  1  0
 19 16  1  0
 19 20  2  0
 16  1  1  0
  1  2  2  0
  1  6  1  0
  2  3  1  0
  3  4  2  0
  4  5  1  0
  5  7  1  0
  5  6  2  0
  7  8  2  0
  7  9  1  0
  9 10  1  0
  9 13  1  0
 10 11  1  0
 11 12  1  0
 12 14  1  6
 12 13  1  0
 14 15  1  0
 20 21  1  0
 21 23  1  0
 21 22  2  0
 23 24  1  0
 23 25  1  0
 23 26  1  0
M  CHG  1  27   1
M  END
>  <minimizedAffinity>  (189) 
-9.04263

$$$$
data/reference_output_2/data/smiles/155597.pdb
     RDKit          3D

 27 29  0  0  0  0  0  0  0  0999 V2000
   68.9701   42.8043   57.0798 C   0  0  0  0  0  0  0  0  0  0  0  0
   69.7894   42.0462   57.8232 N   0  0  0  0  0  0  0  0  0  0  0  0
   69.6132   40.7204   58.0228 C   0  0  0  0  0  0  0  0  0  0  0  0
   68.5287   40.1030   57.4295 C   0  0  0  0  0  0  0  0  0  0  0  0
   67.6652   40.8415   56.6614 C   0  0  0  0  0  0  0  0  0  0  0  0
   67.8884   42.1885   56.4891 C   0  0  0  0  0  0  0  0  0  0  0  0
   67.0163   42.9268   55.7143 O   0  0  0  0  0  0  0  0  0  0  0  0
   70.4871   39.9467   58.8075 N   0  0  0  0  0  0  0  0  0  0  0  0
   70.0626   38.7038   59.3769 C   0  0  0  0  0  0  0  0  0  0  0  0
   70.8272   37.5767   58.7923 C   0  0  0  0  0  0  0  0  0  0  0  0
   72.2655   37.7348   58.5579 C   0  0  0  0  0  0  0  0  0  0  0  0
   72.9864   38.8522   59.2225 C   0  0  0  0  0  0  0  0  0  0  0  0
   72.1023   40.3903   59.1523 S   0  0  0  0  0  0  0  0  0  0  0  0
   72.1222   40.9883   60.5400 O   0  0  0  0  0  0  0  0  0  0  0  0
   72.6809   41.3665   58.2093 O   0  0  0  0  0  0  0  0  0  0  0  0
   69.9574   44.8770   57.5449 O   0  0  0  0  0  0  0  0  0  0  0  0
   69.1464   44.2321   56.8562 C   0  0  0  0  0  0  0  0  0  0  0  0
   68.4212   44.9402   55.8645 N   0  0  0  0  0  0  0  0  0  0  0  0
   68.5263   46.3465   55.5741 C   0  0  0  0  0  0  0  0  0  0  0  0
   68.5022   46.5407   54.1059 C   0  0  0  0  0  0  0  0  0  0  0  0
   67.7260   45.8100   53.2377 C   0  0  0  0  0  0  0  0  0  0  0  0
   67.7253   46.0048   51.8604 C   0  0  0  0  0  0  0  0  0  0  0  0
   66.9574   45.2733   51.0508 F   0  0  0  0  0  0  0  0  0  0  0  0
   68.5417   46.9780   51.3419 C   0  0  0  0  0  0  0  0  0  0  0  0
   69.3410   47.7398   52.1678 C   0  0  0  0  0  0  0  0  0  0  0  0
   70.1233   48.6840   51.5944 F   0  0  0  0  0  0  0  0  0  0  0  0
   69.3207   47.5239   53.5323 C   0  0  0  0  0  0  0  0  0  0  0  0
 16 17  2  0
 17 18  1  0
 17  1  1  0
 18 19  1  0
 19 20  1  0
 20 21  2  0
 20 27  1  0
 21 22  1  0
 22 23  1  0
 22 24  2  0
 24 25  1  0
 25 26  1  0
 25 27  2  0
  1  2  2  0
  1  6  1  0
  2  3  1  0
  3  8  1  0
  3  4  2  0
  8  9  1  0
  8 13  1  0
  9 10  1  0
 10 11  1  0
 11 12  1  0
 12 13  1  0
 13 14  2  0
 13 15  2  0
  4  5  1  0
  5  6  2  0
  6  7  1  0
M  END
>  <minimizedAffinity>  (190) 
-9.04183

$$$$
data/reference_output_2/data/smiles/174451.pdb
     RDKit          3D

 28 31  0  0  0  0  0  0  0  0999 V2000
   70.0725   45.9121   57.6437 N   0  0  0  0  0  0  0  0  0  0  0  0
   70.1413   47.2930   57.9043 C   0  0  0  0  0  0  0  0  0  0  0  0
   71.0027   47.7218   58.6587 O   0  0  0  0  0  0  0  0  0  0  0  0
   69.1894   48.2857   57.2884 C   0  0  2  0  0  0  0  0  0  0  0  0
   68.3051   47.4722   56.3517 C   0  0  0  0  0  0  0  0  0  0  0  0
   68.8597   47.8051   55.0082 C   0  0  0  0  0  0  0  0  0  0  0  0
   69.7701   48.8348   55.1542 C   0  0  0  0  0  0  0  0  0  0  0  0
   70.3976   49.2889   54.0124 C   0  0  0  0  0  0  0  0  0  0  0  0
   70.1235   48.7355   52.7797 C   0  0  0  0  0  0  0  0  0  0  0  0
   69.2084   47.7022   52.6341 C   0  0  0  0  0  0  0  0  0  0  0  0
   68.9167   47.1305   51.4126 C   0  0  0  0  0  0  0  0  0  0  0  0
   67.9996   46.1054   51.3179 C   0  0  0  0  0  0  0  0  0  0  0  0
   67.3500   45.6224   52.4347 C   0  0  0  0  0  0  0  0  0  0  0  0
   67.6564   46.2064   53.6454 C   0  0  0  0  0  0  0  0  0  0  0  0
   68.5678   47.2335   53.7784 C   0  0  0  0  0  0  0  0  0  0  0  0
   69.8640   49.2116   56.4917 O   0  0  0  0  0  0  0  0  0  0  0  0
   70.8020   44.8816   58.0638 N   0  0  0  0  0  0  0  0  0  0  0  0
   70.2450   43.4812   58.7354 S   0  0  0  0  0  0  0  0  0  0  0  0
   71.3115   42.5845   59.3229 O   0  0  0  0  0  0  0  0  0  0  0  0
   69.3824   43.8551   59.9504 O   0  0  0  0  0  0  0  0  0  0  0  0
   67.4222   41.3973   55.8382 C   0  0  0  0  0  0  0  0  0  0  0  0
   68.0361   40.6643   56.8232 C   0  0  0  0  0  0  0  0  0  0  0  0
   68.8941   41.2692   57.7217 C   0  0  0  0  0  0  0  0  0  0  0  0
   69.1797   42.6005   57.6864 C   0  0  0  0  0  0  0  0  0  0  0  0
   68.5512   43.3452   56.6797 C   0  0  0  0  0  0  0  0  0  0  0  0
   67.6900   42.7475   55.7755 C   0  0  0  0  0  0  0  0  0  0  0  0
   65.5759   41.5136   54.2230 C   0  0  0  0  0  0  0  0  0  0  0  0
   66.5580   40.8150   54.9251 O   0  0  0  0  0  0  0  0  0  0  0  0
 27 28  1  0
 28 21  1  0
 21 22  2  0
 21 26  1  0
 22 23  1  0
 23 24  2  0
 24 18  1  0
 24 25  1  0
 18 19  2  0
 18 20  2  0
 18 17  1  0
 17  1  1  0
  1  2  1  0
  2  3  2  0
  4  2  1  6
  4  5  1  0
  4 16  1  0
  5  6  1  0
  6  7  2  0
  6 15  1  0
  7  8  1  0
  7 16  1  0
  8  9  2  0
  9 10  1  0
 10 11  1  0
 10 15  2  0
 11 12  2  0
 12 13  1  0
 13 14  2  0
 14 15  1  0
 25 26  2  0
M  END
>  <minimizedAffinity>  (191) 
-9.03654

$$$$
data/reference_output_2/data/smiles/148928.pdb
     RDKit          3D

 27 30  0  0  0  0  0  0  0  0999 V2000
   69.3261   48.3399   57.0472 C   0  0  0  0  0  0  0  0  0  0  0  0
   68.5886   49.4730   57.3115 C   0  0  0  0  0  0  0  0  0  0  0  0
   69.1206   50.3732   58.2091 C   0  0  0  0  0  0  0  0  0  0  0  0
   70.3394   50.1583   58.8245 C   0  0  0  0  0  0  0  0  0  0  0  0
   71.0917   49.0284   58.5715 C   0  0  0  0  0  0  0  0  0  0  0  0
   70.5487   48.1352   57.6705 C   0  0  0  0  0  0  0  0  0  0  0  0
   69.4396   47.9893   52.4532 C   0  0  0  0  0  0  0  0  0  0  0  0
   68.8547   46.8084   52.0167 C   0  0  0  0  0  0  0  0  0  0  0  0
   68.3220   45.8956   52.9115 C   0  0  0  0  0  0  0  0  0  0  0  0
   68.3606   46.1399   54.2673 C   0  0  0  0  0  0  0  0  0  0  0  0
   67.9471   45.4785   55.3607 N   0  0  0  0  0  0  0  0  0  0  0  0
   68.2383   46.1725   56.4271 N   0  0  0  0  0  0  0  0  0  0  0  0
   68.8573   47.3244   56.1105 C   0  0  0  0  0  0  0  0  0  0  0  0
   68.9428   47.3182   54.7356 C   0  0  0  0  0  0  0  0  0  0  0  0
   69.4586   48.1960   53.8226 C   0  0  0  0  0  0  0  0  0  0  0  0
   69.7573   50.3320   51.7624 N   0  0  0  0  0  0  0  0  0  0  0  0
   70.0031   48.9588   51.5356 C   0  0  0  0  0  0  0  0  0  0  0  0
   70.6870   48.6077   50.5696 O   0  0  0  0  0  0  0  0  0  0  0  0
   72.3515   48.7884   59.1945 N   0  0  0  0  0  0  0  0  0  0  0  0
   72.5620   47.8797   60.2594 C   0  0  0  0  0  0  0  0  0  0  0  0
   71.5352   47.2612   60.6495 O   0  0  0  0  0  0  0  0  0  0  0  0
   73.8639   47.6330   60.9028 C   0  0  0  0  0  0  0  0  0  0  0  0
   74.8603   48.6440   60.3231 C   0  0  0  0  0  0  0  0  0  0  0  0
   76.2371   48.1482   60.7595 C   0  0  0  0  0  0  0  0  0  0  0  0
   76.1687   47.1777   61.7922 N   0  0  0  0  0  0  0  0  0  0  0  0
   75.2766   47.4654   62.8615 C   0  0  0  0  0  0  0  0  0  0  0  0
   73.8673   47.8250   62.3812 C   0  0  0  0  0  0  0  0  0  0  0  0
 16 17  1  0
 17 18  2  0
 17  7  1  0
  7  8  2  0
  7 15  1  0
  8  9  1  0
  9 10  2  0
 10 11  1  0
 10 14  1  0
 11 12  1  0
 12 13  2  0
 13  1  1  0
 13 14  1  0
  1  2  2  0
  1  6  1  0
  2  3  1  0
  3  4  2  0
  4  5  1  0
  5 19  1  0
  5  6  2  0
 19 20  1  0
 20 21  2  0
 20 22  1  0
 22 23  1  0
 22 27  1  0
 23 24  1  0
 24 25  1  0
 25 26  1  0
 26 27  1  0
 14 15  2  0
M  CHG  1  25   1
M  END
>  <minimizedAffinity>  (192) 
-9.03070

$$$$
data/200k_reference_output/data/smiles/3667.pdb
     RDKit          3D

 29 32  0  0  0  0  0  0  0  0999 V2000
   68.5286   47.9513   56.4824 C   0  0  0  0  0  0  0  0  0  0  0  0
   67.3417   47.5750   57.1370 O   0  0  0  0  0  0  0  0  0  0  0  0
   68.4722   47.4557   55.0896 C   0  0  0  0  0  0  0  0  0  0  0  0
   67.9265   46.3282   54.6077 C   0  0  0  0  0  0  0  0  0  0  0  0
   67.9519   45.9099   53.2656 C   0  0  0  0  0  0  0  0  0  0  0  0
   68.6006   46.7467   52.3447 C   0  0  0  0  0  0  0  0  0  0  0  0
   68.7044   46.4594   51.0244 F   0  0  0  0  0  0  0  0  0  0  0  0
   69.1624   47.9020   52.8115 C   0  0  0  0  0  0  0  0  0  0  0  0
   69.1278   48.2908   54.1324 C   0  0  0  0  0  0  0  0  0  0  0  0
   68.6343   49.3983   56.6448 C   0  0  0  0  0  0  0  0  0  0  0  0
   67.6530   50.1547   57.3118 C   0  0  0  0  0  0  0  0  0  0  0  0
   67.8077   51.5053   57.4053 C   0  0  0  0  0  0  0  0  0  0  0  0
   68.8736   52.2086   56.8810 C   0  0  0  0  0  0  0  0  0  0  0  0
   69.0130   53.5434   56.9894 F   0  0  0  0  0  0  0  0  0  0  0  0
   69.8724   51.4706   56.2074 C   0  0  0  0  0  0  0  0  0  0  0  0
   69.6873   50.1030   56.1364 C   0  0  0  0  0  0  0  0  0  0  0  0
   70.6281   47.9840   57.5954 O   0  0  0  0  0  0  0  0  0  0  0  0
   69.6841   47.2903   57.2145 C   0  0  0  0  0  0  0  0  0  0  0  0
   69.7047   45.9201   57.4633 N   0  0  0  0  0  0  0  0  0  0  0  0
   70.7144   45.0808   58.1248 C   0  0  0  0  0  0  0  0  0  0  0  0
   70.1793   43.6590   57.9318 C   0  0  0  0  0  0  0  0  0  0  0  0
   69.7496   42.5588   57.7865 C   0  0  0  0  0  0  0  0  0  0  0  0
   69.2126   41.1668   57.6178 C   0  0  0  0  0  0  0  0  0  0  0  0
   69.8821   40.3910   58.6165 N   0  0  2  0  0  0  0  0  0  0  0  0
   71.3023   40.4020   58.5078 C   0  0  0  0  0  0  0  0  0  0  0  0
   71.8035   39.0443   58.9391 C   0  0  2  0  0  0  0  0  0  0  0  0
   71.5655   37.8496   58.1028 C   0  0  0  0  0  0  0  0  0  0  0  0
   70.6150   38.2290   59.2110 C   0  0  2  0  0  0  0  0  0  0  0  0
   69.4257   39.0425   58.7374 C   0  0  0  0  0  0  0  0  0  0  0  0
 17 18  2  0
 18 19  1  0
 18  1  1  0
 19 20  1  0
 20 21  1  0
 21 22  3  0
 22 23  1  0
 24 23  1  6
 24 25  1  0
 24 29  1  0
 26 25  1  6
 26 27  1  0
 26 28  1  0
 28 27  1  6
 28 29  1  0
  1  2  1  0
  1  3  1  0
  1 10  1  0
  3  4  2  0
  3  9  1  0
  4  5  1  0
  5  6  2  0
  6  7  1  0
  6  8  1  0
  8  9  2  0
 10 11  2  0
 10 16  1  0
 11 12  1  0
 12 13  2  0
 13 14  1  0
 13 15  1  0
 15 16  2  0
M  CHG  1  24   1
M  END
>  <minimizedAffinity>  (193) 
-9.02960

$$$$
data/200k_reference_output/data/smiles/5570.pdb
     RDKit          3D

 28 31  0  0  0  0  0  0  0  0999 V2000
   67.4051   42.5514   55.8073 O   0  0  0  0  0  0  0  0  0  0  0  0
   68.4037   42.7400   56.6148 C   0  0  0  0  0  0  0  0  0  0  0  0
   68.7095   41.6656   57.4815 N   0  0  0  0  0  0  0  0  0  0  0  0
   67.9313   40.4126   57.3520 C   0  0  0  0  0  0  0  0  0  0  0  0
   68.4571   39.2815   58.1338 C   0  0  0  0  0  0  0  0  0  0  0  0
   69.8832   39.3095   58.3531 N   0  0  0  0  0  0  0  0  0  0  0  0
   70.6450   40.5491   58.3175 C   0  0  0  0  0  0  0  0  0  0  0  0
   69.6653   41.6452   58.5423 C   0  0  0  0  0  0  0  0  0  0  0  0
   70.5727   38.1217   58.6084 C   0  0  0  0  0  0  0  0  0  0  0  0
   71.6532   37.7429   57.8492 C   0  0  0  0  0  0  0  0  0  0  0  0
   72.3491   36.5693   58.0857 C   0  0  0  0  0  0  0  0  0  0  0  0
   71.9553   35.7438   59.1144 C   0  0  0  0  0  0  0  0  0  0  0  0
   70.8770   36.1021   59.8871 C   0  0  0  0  0  0  0  0  0  0  0  0
   70.1972   37.2799   59.6315 C   0  0  0  0  0  0  0  0  0  0  0  0
   69.1209   37.6177   60.4177 F   0  0  0  0  0  0  0  0  0  0  0  0
   69.0455   44.0284   56.5047 C   0  0  0  0  0  0  0  0  0  0  0  0
   68.2735   45.1463   56.1980 O   0  0  0  0  0  0  0  0  0  0  0  0
   68.2498   45.7589   54.9570 C   0  0  0  0  0  0  0  0  0  0  0  0
   67.6648   45.1458   53.8716 C   0  0  0  0  0  0  0  0  0  0  0  0
   67.6487   45.7847   52.6213 C   0  0  0  0  0  0  0  0  0  0  0  0
   67.1220   45.2449   51.6234 O   0  0  0  0  0  0  0  0  0  0  0  0
   68.1885   46.9528   52.5075 O   0  0  0  0  0  0  0  0  0  0  0  0
   68.7728   47.6156   53.4979 C   0  0  0  0  0  0  0  0  0  0  0  0
   69.3233   48.8569   53.2815 C   0  0  0  0  0  0  0  0  0  0  0  0
   69.9288   49.5460   54.3055 C   0  0  0  0  0  0  0  0  0  0  0  0
   69.9668   48.9555   55.5465 C   0  0  0  0  0  0  0  0  0  0  0  0
   69.4191   47.7163   55.7653 C   0  0  0  0  0  0  0  0  0  0  0  0
   68.8014   46.9966   54.7539 C   0  0  0  0  0  0  0  0  0  0  0  0
  1  2  2  0
  2 16  1  0
  2  3  1  0
 16 17  1  0
 17 18  1  0
 18 19  2  0
 18 28  1  0
 19 20  1  0
 20 21  2  0
 20 22  1  0
 22 23  1  0
 23 24  1  0
 23 28  2  0
 24 25  2  0
 25 26  1  0
 26 27  2  0
 27 28  1  0
  3  4  1  0
  3  8  1  0
  4  5  1  0
  5  6  1  0
  6  9  1  0
  6  7  1  0
  9 10  2  0
  9 14  1  0
 10 11  1  0
 11 12  2  0
 12 13  1  0
 13 14  2  0
 14 15  1  0
  7  8  1  0
M  END
>  <minimizedAffinity>  (194) 
-9.02463

$$$$
data/reference_output_2/data/smiles/169029.pdb
     RDKit          3D

 25 27  0  0  0  0  0  0  0  0999 V2000
   70.9453   43.8962   58.0678 O   0  0  0  0  0  0  0  0  0  0  0  0
   69.8504   43.7653   57.4853 C   0  0  0  0  0  0  0  0  0  0  0  0
   69.2395   44.9418   56.9748 N   0  0  0  0  0  0  0  0  0  0  0  0
   69.2494   42.4396   57.3527 C   0  0  0  0  0  0  0  0  0  0  0  0
   68.0981   42.2639   56.6138 C   0  0  0  0  0  0  0  0  0  0  0  0
   67.5098   41.0291   56.4701 C   0  0  0  0  0  0  0  0  0  0  0  0
   68.0800   39.9163   57.0820 C   0  0  0  0  0  0  0  0  0  0  0  0
   69.2206   40.0959   57.8146 C   0  0  0  0  0  0  0  0  0  0  0  0
   69.7638   41.3481   57.9226 N   0  0  0  0  0  0  0  0  0  0  0  0
   69.8674   38.9749   58.4798 C   0  0  0  0  0  0  0  0  0  0  0  0
   71.1792   38.6434   58.1292 C   0  0  0  0  0  0  0  0  0  0  0  0
   71.8205   37.5908   58.7378 C   0  0  0  0  0  0  0  0  0  0  0  0
   71.1713   36.8371   59.7154 C   0  0  0  0  0  0  0  0  0  0  0  0
   69.8833   37.1605   60.0629 C   0  0  0  0  0  0  0  0  0  0  0  0
   69.2356   38.2356   59.4369 C   0  0  0  0  0  0  0  0  0  0  0  0
   69.8127   46.2085   57.1015 N   0  0  0  0  0  0  0  0  0  0  0  0
   68.8354   47.3215   56.2554 S   0  0  0  0  0  0  0  0  0  0  0  0
   67.5034   47.4099   56.9618 O   0  0  0  0  0  0  0  0  0  0  0  0
   69.4711   48.6919   56.4112 O   0  0  0  0  0  0  0  0  0  0  0  0
   68.6563   46.9902   54.5690 C   0  0  0  0  0  0  0  0  0  0  0  0
   69.2802   47.8248   53.6688 C   0  0  0  0  0  0  0  0  0  0  0  0
   69.2077   47.6554   52.2987 C   0  0  0  0  0  0  0  0  0  0  0  0
   68.4700   46.5904   51.8226 C   0  0  0  0  0  0  0  0  0  0  0  0
   67.8361   45.7411   52.7060 C   0  0  0  0  0  0  0  0  0  0  0  0
   67.9254   45.9347   54.0672 C   0  0  0  0  0  0  0  0  0  0  0  0
  1  2  2  0
  2  3  1  0
  2  4  1  0
  3 16  1  0
 16 17  1  0
 17 18  2  0
 17 19  2  0
 17 20  1  0
 20 21  2  0
 20 25  1  0
 21 22  1  0
 22 23  2  0
 23 24  1  0
 24 25  2  0
  4  5  2  0
  4  9  1  0
  5  6  1  0
  6  7  2  0
  7  8  1  0
  8 10  1  0
  8  9  2  0
 10 11  2  0
 10 15  1  0
 11 12  1  0
 12 13  2  0
 13 14  1  0
 14 15  2  0
M  END
>  <minimizedAffinity>  (195) 
-9.02011

$$$$
data/200k_reference_output/data/smiles/35398.pdb
     RDKit          3D

 26 28  0  0  0  0  0  0  0  0999 V2000
   69.0214   43.3934   57.0166 O   0  0  0  0  0  0  0  0  0  0  0  0
   68.0640   43.0014   56.2670 C   0  0  0  0  0  0  0  0  0  0  0  0
   67.6315   43.9167   55.2970 N   0  0  0  0  0  0  0  0  0  0  0  0
   68.2106   45.1964   55.1411 N   0  0  0  0  0  0  0  0  0  0  0  0
   68.1756   45.8644   53.9028 C   0  0  0  0  0  0  0  0  0  0  0  0
   67.5752   45.1885   52.9771 O   0  0  0  0  0  0  0  0  0  0  0  0
   68.7203   47.1672   53.5913 C   0  0  0  0  0  0  0  0  0  0  0  0
   68.7395   48.1971   54.5183 C   0  0  0  0  0  0  0  0  0  0  0  0
   69.2440   49.4493   54.2827 C   0  0  0  0  0  0  0  0  0  0  0  0
   69.7728   49.7246   53.0472 C   0  0  0  0  0  0  0  0  0  0  0  0
   69.7780   48.7372   52.0928 C   0  0  0  0  0  0  0  0  0  0  0  0
   69.2498   47.4608   52.3721 C   0  0  0  0  0  0  0  0  0  0  0  0
   69.3184   46.5954   51.3467 F   0  0  0  0  0  0  0  0  0  0  0  0
   67.5567   41.6543   56.5294 C   0  0  0  0  0  0  0  0  0  0  0  0
   67.9009   41.0893   57.7515 O   0  0  0  0  0  0  0  0  0  0  0  0
   68.5512   39.8725   57.8889 C   0  0  0  0  0  0  0  0  0  0  0  0
   68.0726   38.8217   57.3497 O   0  0  0  0  0  0  0  0  0  0  0  0
   69.8178   39.7812   58.6686 C   0  0  0  0  0  0  0  0  0  0  0  0
   69.9313   40.7471   59.7909 C   0  0  0  0  0  0  0  0  0  0  0  0
   70.8100   40.8985   58.5254 C   0  0  0  0  0  0  0  0  0  0  0  0
   70.4053   38.4250   58.7768 C   0  0  0  0  0  0  0  0  0  0  0  0
   69.9366   37.5721   59.7538 C   0  0  0  0  0  0  0  0  0  0  0  0
   70.4717   36.3039   59.8694 C   0  0  0  0  0  0  0  0  0  0  0  0
   71.4724   35.8726   59.0218 C   0  0  0  0  0  0  0  0  0  0  0  0
   71.9423   36.7055   58.0527 C   0  0  0  0  0  0  0  0  0  0  0  0
   71.3938   37.9824   57.9463 C   0  0  0  0  0  0  0  0  0  0  0  0
  1  2  2  0
  2 14  1  0
  2  3  1  0
 14 15  1  0
 15 16  1  0
 16 17  2  0
 16 18  1  0
 18 21  1  0
 18 19  1  0
 18 20  1  0
 21 22  2  0
 21 26  1  0
 22 23  1  0
 23 24  2  0
 24 25  1  0
 25 26  2  0
 19 20  1  0
  3  4  1  0
  4  5  1  0
  5  6  2  0
  5  7  1  0
  7  8  2  0
  7 12  1  0
  8  9  1  0
  9 10  2  0
 10 11  1  0
 11 12  2  0
 12 13  1  0
M  END
>  <minimizedAffinity>  (196) 
-9.01800

$$$$
data/reference_output_2/data/smiles/92521.pdb
     RDKit          3D

 25 28  0  0  0  0  0  0  0  0999 V2000
   68.7696   47.2058   56.0946 C   0  0  2  0  0  0  0  0  0  0  0  0
   67.3885   47.2562   56.2906 O   0  0  0  0  0  0  0  0  0  0  0  0
   66.8353   45.0995   50.9520 O   0  0  0  0  0  0  0  0  0  0  0  0
   67.5186   45.8867   51.6376 C   0  0  0  0  0  0  0  0  0  0  0  0
   68.3441   46.8757   51.4022 N   0  0  0  0  0  0  0  0  0  0  0  0
   68.9223   47.5282   52.3900 C   0  0  0  0  0  0  0  0  0  0  0  0
   69.8242   48.6067   52.2521 C   0  0  0  0  0  0  0  0  0  0  0  0
   70.2149   49.1115   51.0198 O   0  0  0  0  0  0  0  0  0  0  0  0
   70.3549   49.2019   53.3748 C   0  0  0  0  0  0  0  0  0  0  0  0
   70.0593   48.8075   54.6597 C   0  0  0  0  0  0  0  0  0  0  0  0
   69.1822   47.7588   54.8033 C   0  0  0  0  0  0  0  0  0  0  0  0
   68.6530   47.1661   53.6539 C   0  0  0  0  0  0  0  0  0  0  0  0
   67.5283   45.8360   53.5012 S   0  0  0  0  0  0  0  0  0  0  0  0
   69.2612   45.7588   56.2611 C   0  0  0  0  0  0  0  0  0  0  0  0
   69.8183   45.6471   57.5636 N   0  0  0  0  0  0  0  0  0  0  0  0
   70.1366   44.3324   58.0157 C   0  0  1  0  0  0  0  0  0  0  0  0
   69.4036   43.3011   57.2034 C   0  0  0  0  0  0  0  0  0  0  0  0
   69.6454   41.8928   57.6688 C   0  0  0  0  0  0  0  0  0  0  0  0
   71.0534   41.5855   58.0471 C   0  0  0  0  0  0  0  0  0  0  0  0
   71.9793   42.7164   58.0393 C   0  0  0  0  0  0  0  0  0  0  0  0
   73.3439   42.4529   58.0504 C   0  0  0  0  0  0  0  0  0  0  0  0
   74.2549   43.5018   58.0543 C   0  0  0  0  0  0  0  0  0  0  0  0
   73.8264   44.8122   58.0465 C   0  0  0  0  0  0  0  0  0  0  0  0
   72.4797   45.0959   58.0359 C   0  0  0  0  0  0  0  0  0  0  0  0
   71.5847   44.0295   58.0320 C   0  0  0  0  0  0  0  0  0  0  0  0
  3  4  2  0
  4  5  1  0
  4 13  1  0
  5  6  1  0
  6  7  2  0
  6 12  1  0
  7  8  1  0
  7  9  1  0
  9 10  2  0
 10 11  1  0
 11  1  1  0
 11 12  2  0
  1  2  1  6
  1 14  1  0
 14 15  1  0
 16 15  1  6
 16 17  1  0
 16 25  1  0
 17 18  1  0
 18 19  1  0
 19 20  1  0
 20 21  2  0
 20 25  1  0
 21 22  1  0
 22 23  2  0
 23 24  1  0
 24 25  2  0
 12 13  1  0
M  CHG  1  15   1
M  END
>  <minimizedAffinity>  (197) 
-9.01722

$$$$
data/reference_output_2/data/smiles/106617.pdb
     RDKit          3D

 26 28  0  0  0  0  0  0  0  0999 V2000
   70.4274   44.2397   57.7221 C   0  0  0  0  0  0  0  0  0  0  0  0
   69.5709   44.9637   56.8694 C   0  0  0  0  0  0  0  0  0  0  0  0
   69.6105   46.2657   57.1136 N   0  0  0  0  0  0  0  0  0  0  0  0
   70.4656   46.4532   58.1046 C   0  0  0  0  0  0  0  0  0  0  0  0
   70.8911   47.5917   58.7515 C   0  0  0  0  0  0  0  0  0  0  0  0
   71.8045   47.5993   59.7765 C   0  0  0  0  0  0  0  0  0  0  0  0
   72.2955   46.3727   60.1422 C   0  0  0  0  0  0  0  0  0  0  0  0
   71.8945   45.1865   59.5149 C   0  0  0  0  0  0  0  0  0  0  0  0
   70.9916   45.2181   58.5073 C   0  0  0  0  0  0  0  0  0  0  0  0
   68.6791   47.4644   56.2671 S   0  0  0  0  0  0  0  0  0  0  0  0
   69.3528   48.7979   56.3468 O   0  0  0  0  0  0  0  0  0  0  0  0
   67.3305   47.6112   56.9142 O   0  0  0  0  0  0  0  0  0  0  0  0
   68.5541   47.0419   54.5778 C   0  0  0  0  0  0  0  0  0  0  0  0
   67.8353   45.9993   54.0786 C   0  0  0  0  0  0  0  0  0  0  0  0
   67.7933   45.7266   52.7308 C   0  0  0  0  0  0  0  0  0  0  0  0
   68.4834   46.5075   51.8276 C   0  0  0  0  0  0  0  0  0  0  0  0
   69.2022   47.5542   52.3446 C   0  0  0  0  0  0  0  0  0  0  0  0
   69.2489   47.8284   53.6755 C   0  0  0  0  0  0  0  0  0  0  0  0
   70.5389   42.8000   57.6254 C   0  0  0  0  0  0  0  0  0  0  0  0
   69.6185   41.9952   57.5435 N   0  0  0  0  0  0  0  0  0  0  0  0
   72.1158   41.2091   58.6700 C   0  0  0  0  0  0  0  0  0  0  0  0
   71.9798   42.2616   57.6225 C   0  0  0  0  0  0  0  0  0  0  0  0
   68.3166   41.9475   57.5075 N   0  0  0  0  0  0  0  0  0  0  0  0
   67.6149   41.7286   56.2514 C   0  0  0  0  0  0  0  0  0  0  0  0
   66.9996   42.7489   55.7571 N   0  0  0  0  0  0  0  0  0  0  0  0
   67.6035   40.4776   55.6046 N   0  0  0  0  0  0  0  0  0  0  0  0
 21 22  1  0
 22 19  1  0
 19 20  2  0
 19  1  1  0
 20 23  1  0
 23 24  1  0
 24 25  2  0
 24 26  1  0
  1  2  2  0
  1  9  1  0
  2  3  1  0
  3 10  1  0
  3  4  1  0
 10 11  2  0
 10 12  2  0
 10 13  1  0
 13 14  2  0
 13 18  1  0
 14 15  1  0
 15 16  2  0
 16 17  1  0
 17 18  2  0
  4  5  1  0
  4  9  2  0
  5  6  2  0
  6  7  1  0
  7  8  2  0
  8  9  1  0
M  CHG  1  25   1
M  END
>  <minimizedAffinity>  (198) 
-9.01657

$$$$
data/200k_reference_output/data/smiles/78695.pdb
     RDKit          3D

 27 29  0  0  0  0  0  0  0  0999 V2000
   69.7066   42.6697   57.1608 O   0  0  0  0  0  0  0  0  0  0  0  0
   68.5342   42.6473   56.8018 C   0  0  0  0  0  0  0  0  0  0  0  0
   67.9289   43.8194   56.2356 N   0  0  0  0  0  0  0  0  0  0  0  0
   67.6411   41.4424   56.9281 C   0  0  2  0  0  0  0  0  0  0  0  0
   67.0573   41.4960   58.3721 C   0  0  0  0  0  0  0  0  0  0  0  0
   68.2620   40.9753   59.1241 C   0  0  0  0  0  0  0  0  0  0  0  0
   68.5648   41.2893   60.3252 O   0  0  0  0  0  0  0  0  0  0  0  0
   68.9866   40.1011   58.3020 N   0  0  0  0  0  0  0  0  0  0  0  0
   68.3197   40.1358   56.9639 C   0  0  0  0  0  0  0  0  0  0  0  0
   70.1576   39.3478   58.5577 C   0  0  0  0  0  0  0  0  0  0  0  0
   70.1666   37.9853   58.8594 C   0  0  0  0  0  0  0  0  0  0  0  0
   71.3617   37.3494   59.0913 C   0  0  0  0  0  0  0  0  0  0  0  0
   72.6067   37.9400   59.0553 C   0  0  0  0  0  0  0  0  0  0  0  0
   73.7647   37.2877   59.3074 F   0  0  0  0  0  0  0  0  0  0  0  0
   72.5910   39.3291   58.7432 C   0  0  0  0  0  0  0  0  0  0  0  0
   71.4012   39.9453   58.5191 C   0  0  0  0  0  0  0  0  0  0  0  0
   68.5484   45.0636   56.0574 N   0  0  0  0  0  0  0  0  0  0  0  0
   68.2095   45.7843   55.0435 C   0  0  0  0  0  0  0  0  0  0  0  0
   68.7512   47.1050   54.6840 C   0  0  0  0  0  0  0  0  0  0  0  0
   69.1013   48.0060   55.6427 C   0  0  0  0  0  0  0  0  0  0  0  0
   69.7316   49.1830   55.3037 C   0  0  0  0  0  0  0  0  0  0  0  0
   69.9954   49.4190   53.9542 C   0  0  0  0  0  0  0  0  0  0  0  0
   69.6626   48.5529   52.9756 C   0  0  0  0  0  0  0  0  0  0  0  0
   69.0174   47.3534   53.3484 C   0  0  0  0  0  0  0  0  0  0  0  0
   69.9633   48.7362   51.6060 N   0  0  0  0  0  0  0  0  0  0  0  0
   70.3821   47.7336   50.9460 O   0  0  0  0  0  0  0  0  0  0  0  0
   69.8270   49.8961   50.9192 O   0  0  0  0  0  0  0  0  0  0  0  0
  1  2  2  0
  2  3  1  0
  4  2  1  1
  3 17  1  0
 17 18  2  0
 18 19  1  0
 19 20  2  0
 19 24  1  0
 20 21  1  0
 21 22  2  0
 22 23  1  0
 23 25  1  0
 23 24  2  0
 25 26  2  0
 25 27  1  0
  4  5  1  0
  4  9  1  0
  5  6  1  0
  6  7  2  0
  6  8  1  0
  8 10  1  0
  8  9  1  0
 10 11  2  0
 10 16  1  0
 11 12  1  0
 12 13  2  0
 13 14  1  0
 13 15  1  0
 15 16  2  0
M  CHG  2  25   1  27  -1
M  END
>  <minimizedAffinity>  (199) 
-9.01653

$$$$
data/200k_reference_output/data/smiles/33013.pdb
     RDKit          3D

 29 32  0  0  0  0  0  0  0  0999 V2000
   71.3820   48.3040   58.0027 N   0  0  0  0  0  0  0  0  0  0  0  0
   70.6106   47.1816   58.3953 C   0  0  0  0  0  0  0  0  0  0  0  0
   70.8372   46.4441   59.4079 O   0  0  0  0  0  0  0  0  0  0  0  0
   69.5313   46.9751   57.5019 N   0  0  0  0  0  0  0  0  0  0  0  0
   69.4834   48.1239   56.6235 C   0  0  0  0  0  0  0  0  0  0  0  0
   70.7519   48.8026   56.8272 C   0  0  0  0  0  0  0  0  0  0  0  0
   71.3262   49.7095   56.1492 O   0  0  0  0  0  0  0  0  0  0  0  0
   68.3945   49.0634   57.0239 C   0  0  0  0  0  0  0  0  0  0  0  0
   67.2866   48.6242   57.7100 C   0  0  0  0  0  0  0  0  0  0  0  0
   66.3166   49.5382   58.0450 C   0  0  0  0  0  0  0  0  0  0  0  0
   66.4446   50.8709   57.7038 C   0  0  0  0  0  0  0  0  0  0  0  0
   67.5453   51.3227   57.0197 C   0  0  0  0  0  0  0  0  0  0  0  0
   68.5234   50.3859   56.6849 C   0  0  0  0  0  0  0  0  0  0  0  0
   69.1813   47.7052   55.2413 C   0  0  0  0  0  0  0  0  0  0  0  0
   68.4769   46.5195   55.1070 C   0  0  0  0  0  0  0  0  0  0  0  0
   68.1378   46.0263   53.8646 C   0  0  0  0  0  0  0  0  0  0  0  0
   68.4848   46.6926   52.7083 C   0  0  0  0  0  0  0  0  0  0  0  0
   69.1852   47.8724   52.8465 C   0  0  0  0  0  0  0  0  0  0  0  0
   69.5330   48.3771   54.1055 C   0  0  0  0  0  0  0  0  0  0  0  0
   72.5573   48.7796   58.7076 C   0  0  0  0  0  0  0  0  0  0  0  0
   74.4157   49.6860   57.2111 N   0  0  0  0  0  0  0  0  0  0  0  0
   73.7672   48.6018   57.8423 C   0  0  0  0  0  0  0  0  0  0  0  0
   74.2563   47.4548   57.6447 O   0  0  0  0  0  0  0  0  0  0  0  0
   79.1323   49.0801   55.5131 C   0  0  0  0  0  0  0  0  0  0  0  0
   77.6416   49.2620   55.6026 C   0  0  0  0  0  0  0  0  0  0  0  0
   76.8864   49.3789   56.7508 C   0  0  0  0  0  0  0  0  0  0  0  0
   75.5626   49.5308   56.3882 C   0  0  0  0  0  0  0  0  0  0  0  0
   75.5731   49.4998   55.0394 N   0  0  0  0  0  0  0  0  0  0  0  0
   76.7896   49.3430   54.6089 O   0  0  0  0  0  0  0  0  0  0  0  0
 24 25  1  0
 25 26  2  0
 25 29  1  0
 26 27  1  0
 27 21  1  0
 27 28  2  0
 21 22  1  0
 22 23  2  0
 22 20  1  0
 20  1  1  0
  1  2  1  0
  1  6  1  0
  2  3  2  0
  2  4  1  0
  4  5  1  0
  5  8  1  0
  5 14  1  0
  5  6  1  0
  8  9  2  0
  8 13  1  0
  9 10  1  0
 10 11  2  0
 11 12  1  0
 12 13  2  0
 14 15  2  0
 14 19  1  0
 15 16  1  0
 16 17  2  0
 17 18  1  0
 18 19  2  0
  6  7  2  0
 28 29  1  0
M  END
>  <minimizedAffinity>  (200) 
-9.01640

$$$$
data/reference_output_2/data/smiles/184985.pdb
     RDKit          3D

 27 29  0  0  0  0  0  0  0  0999 V2000
   70.2817   49.6514   54.1559 C   0  0  0  0  0  0  0  0  0  0  0  0
   69.7909   49.1337   55.3184 C   0  0  0  0  0  0  0  0  0  0  0  0
   69.0283   47.9940   55.3068 N   0  0  0  0  0  0  0  0  0  0  0  0
   68.7215   47.3342   54.1822 C   0  0  0  0  0  0  0  0  0  0  0  0
   67.9440   46.2021   54.2036 C   0  0  0  0  0  0  0  0  0  0  0  0
   67.6581   45.5709   52.9859 C   0  0  0  0  0  0  0  0  0  0  0  0
   68.1402   46.0670   51.7947 C   0  0  0  0  0  0  0  0  0  0  0  0
   68.9158   47.2016   51.7910 C   0  0  0  0  0  0  0  0  0  0  0  0
   69.2096   47.8373   52.9661 C   0  0  0  0  0  0  0  0  0  0  0  0
   69.9782   48.9876   52.9972 C   0  0  0  0  0  0  0  0  0  0  0  0
   70.4179   49.4431   51.9113 O   0  0  0  0  0  0  0  0  0  0  0  0
   71.1062   50.8820   54.1390 C   0  0  0  0  0  0  0  0  0  0  0  0
   70.7644   51.7533   53.3004 O   0  0  0  0  0  0  0  0  0  0  0  0
   72.2459   51.0792   55.0343 C   0  0  0  0  0  0  0  0  0  0  0  0
   73.5266   51.3190   54.3156 C   0  0  0  0  0  0  0  0  0  0  0  0
   74.0077   50.3709   53.6433 O   0  0  0  0  0  0  0  0  0  0  0  0
   75.0917   52.7968   55.2284 O   0  0  0  0  0  0  0  0  0  0  0  0
   74.2417   52.5687   54.3478 C   0  0  0  0  0  0  0  0  0  0  0  0
   73.9900   53.5331   53.3946 O   0  0  0  0  0  0  0  0  0  0  0  0
   68.5662   47.4650   56.5892 C   0  0  0  0  0  0  0  0  0  0  0  0
   69.6608   46.7811   57.3236 C   0  0  0  0  0  0  0  0  0  0  0  0
   69.9551   45.4477   57.2736 C   0  0  0  0  0  0  0  0  0  0  0  0
   71.0114   44.8849   58.0031 C   0  0  0  0  0  0  0  0  0  0  0  0
   71.8057   45.6605   58.8111 C   0  0  0  0  0  0  0  0  0  0  0  0
   72.8398   45.1347   59.5300 F   0  0  0  0  0  0  0  0  0  0  0  0
   71.5215   47.0040   58.8714 C   0  0  0  0  0  0  0  0  0  0  0  0
   70.4860   47.5556   58.1562 C   0  0  0  0  0  0  0  0  0  0  0  0
 17 18  2  0
 18 19  1  0
 18 15  1  0
 15 16  2  0
 15 14  1  0
 14 12  1  0
 12 13  2  0
 12  1  1  0
  1  2  2  0
  1 10  1  0
  2  3  1  0
  3 20  1  0
  3  4  1  0
 20 21  1  0
 21 22  2  0
 21 27  1  0
 22 23  1  0
 23 24  2  0
 24 25  1  0
 24 26  1  0
 26 27  2  0
  4  5  1  0
  4  9  2  0
  5  6  2  0
  6  7  1  0
  7  8  2  0
  8  9  1  0
  9 10  1  0
 10 11  2  0
M  END
>  <minimizedAffinity>  (201) 
-9.01328

$$$$
data/reference_output_2/data/smiles/166653.pdb
     RDKit          3D

 27 29  0  0  0  0  0  0  0  0999 V2000
   69.6142   42.1535   57.4736 C   0  0  0  0  0  0  0  0  0  0  0  0
   70.7031   41.5600   58.0817 N   0  0  0  0  0  0  0  0  0  0  0  0
   70.7704   40.2795   58.4064 C   0  0  0  0  0  0  0  0  0  0  0  0
   69.7152   39.5106   58.1291 N   0  0  0  0  0  0  0  0  0  0  0  0
   68.6177   40.0094   57.5386 C   0  0  0  0  0  0  0  0  0  0  0  0
   67.6123   39.3076   57.2667 O   0  0  0  0  0  0  0  0  0  0  0  0
   68.5379   41.3642   57.1907 C   0  0  0  0  0  0  0  0  0  0  0  0
   67.3818   41.8391   56.5815 O   0  0  0  0  0  0  0  0  0  0  0  0
   70.6970   44.1813   57.5906 O   0  0  0  0  0  0  0  0  0  0  0  0
   69.6589   43.5613   57.1708 C   0  0  0  0  0  0  0  0  0  0  0  0
   68.7050   44.3077   56.4796 N   0  0  0  0  0  0  0  0  0  0  0  0
   68.8232   45.7405   56.2089 C   0  0  0  0  0  0  0  0  0  0  0  0
   68.5796   46.0598   54.7807 C   0  0  0  0  0  0  0  0  0  0  0  0
   69.0381   47.1972   54.1532 C   0  0  0  0  0  0  0  0  0  0  0  0
   68.7723   47.4180   52.8048 C   0  0  0  0  0  0  0  0  0  0  0  0
   68.0558   46.5319   52.0475 C   0  0  0  0  0  0  0  0  0  0  0  0
   67.8207   46.7900   50.7276 F   0  0  0  0  0  0  0  0  0  0  0  0
   67.5867   45.3860   52.6539 C   0  0  0  0  0  0  0  0  0  0  0  0
   67.8512   45.1725   53.9840 C   0  0  0  0  0  0  0  0  0  0  0  0
   71.9665   39.6956   59.0576 C   0  0  0  0  0  0  0  0  0  0  0  0
   71.8418   38.2205   58.9510 C   0  0  0  0  0  0  0  0  0  0  0  0
   72.3566   37.5137   57.8959 C   0  0  0  0  0  0  0  0  0  0  0  0
   72.2428   36.1239   57.7914 C   0  0  0  0  0  0  0  0  0  0  0  0
   71.5857   35.4190   58.7877 C   0  0  0  0  0  0  0  0  0  0  0  0
   71.4852   34.0723   58.6677 F   0  0  0  0  0  0  0  0  0  0  0  0
   71.0616   36.1158   59.8560 C   0  0  0  0  0  0  0  0  0  0  0  0
   71.1872   37.4995   59.9387 C   0  0  0  0  0  0  0  0  0  0  0  0
  9 10  2  0
 10 11  1  0
 10  1  1  0
 11 12  1  0
 12 13  1  0
 13 14  2  0
 13 19  1  0
 14 15  1  0
 15 16  2  0
 16 17  1  0
 16 18  1  0
 18 19  2  0
  1  2  1  0
  1  7  2  0
  2  3  2  0
  3 20  1  0
  3  4  1  0
 20 21  1  0
 21 22  2  0
 21 27  1  0
 22 23  1  0
 23 24  2  0
 24 25  1  0
 24 26  1  0
 26 27  2  0
  4  5  1  0
  5  6  2  0
  5  7  1  0
  7  8  1  0
M  END
>  <minimizedAffinity>  (202) 
-9.01041

$$$$
data/reference_output_2/data/smiles/128226.pdb
     RDKit          3D

 25 26  0  0  0  0  0  0  0  0999 V2000
   71.5995   49.9049   54.7246 N   0  0  0  0  0  0  0  0  0  0  0  0
   70.5606   49.7687   53.8127 C   0  0  0  0  0  0  0  0  0  0  0  0
   70.3372   50.8148   53.0949 O   0  0  0  0  0  0  0  0  0  0  0  0
   69.7457   48.5802   53.6250 C   0  0  0  0  0  0  0  0  0  0  0  0
   69.1906   47.8352   54.6242 C   0  0  0  0  0  0  0  0  0  0  0  0
   69.3818   48.1854   55.9132 F   0  0  0  0  0  0  0  0  0  0  0  0
   68.4141   46.7009   54.4223 C   0  0  0  0  0  0  0  0  0  0  0  0
   67.8960   46.0110   55.4798 F   0  0  0  0  0  0  0  0  0  0  0  0
   68.1923   46.3046   53.1228 C   0  0  0  0  0  0  0  0  0  0  0  0
   67.4413   45.2054   52.8991 F   0  0  0  0  0  0  0  0  0  0  0  0
   68.7314   47.0226   52.0695 C   0  0  0  0  0  0  0  0  0  0  0  0
   68.5063   46.6240   50.7941 F   0  0  0  0  0  0  0  0  0  0  0  0
   69.4893   48.1335   52.3136 C   0  0  0  0  0  0  0  0  0  0  0  0
   70.0405   48.8719   51.3017 F   0  0  0  0  0  0  0  0  0  0  0  0
   72.3868   51.1304   54.8702 C   0  0  2  0  0  0  0  0  0  0  0  0
   74.8553   51.5044   55.3003 N   0  0  0  0  0  0  0  0  0  0  0  0
   73.8040   50.9224   54.5560 C   0  0  0  0  0  0  0  0  0  0  0  0
   74.1213   50.1982   53.5871 O   0  0  0  0  0  0  0  0  0  0  0  0
   72.2549   51.5222   56.3387 C   0  0  0  0  0  0  0  0  0  0  0  0
   70.8075   51.5362   56.7311 C   0  0  0  0  0  0  0  0  0  0  0  0
   70.3596   50.6639   57.7023 C   0  0  0  0  0  0  0  0  0  0  0  0
   69.0281   50.6809   58.0593 C   0  0  0  0  0  0  0  0  0  0  0  0
   68.1326   51.5488   57.4689 C   0  0  0  0  0  0  0  0  0  0  0  0
   68.6144   52.4152   56.4951 C   0  0  0  0  0  0  0  0  0  0  0  0
   69.9328   52.4335   56.1077 C   0  0  0  0  0  0  0  0  0  0  0  0
 16 17  1  0
 17 18  2  0
 17 15  1  0
 15 19  1  1
 15  1  1  0
 19 20  1  0
 20 21  2  0
 20 25  1  0
 21 22  1  0
 22 23  2  0
 23 24  1  0
 24 25  2  0
  1  2  1  0
  2  3  2  0
  2  4  1  0
  4  5  2  0
  4 13  1  0
  5  6  1  0
  5  7  1  0
  7  8  1  0
  7  9  2  0
  9 10  1  0
  9 11  1  0
 11 12  1  0
 11 13  2  0
 13 14  1  0
M  END
>  <minimizedAffinity>  (203) 
-9.00947

$$$$
data/200k_reference_output/data/smiles/77359.pdb
     RDKit          3D

 26 29  0  0  0  0  0  0  0  0999 V2000
   69.2432   47.6913   52.5505 C   0  0  0  0  0  0  0  0  0  0  0  0
   68.8606   46.7071   51.6143 C   0  0  0  0  0  0  0  0  0  0  0  0
   68.0365   45.6995   52.0374 C   0  0  0  0  0  0  0  0  0  0  0  0
   67.5976   45.6534   53.3425 C   0  0  0  0  0  0  0  0  0  0  0  0
   67.9632   46.6024   54.2626 C   0  0  0  0  0  0  0  0  0  0  0  0
   67.7048   46.7943   55.5781 N   0  0  0  0  0  0  0  0  0  0  0  0
   68.3002   47.8444   56.0276 N   0  0  0  0  0  0  0  0  0  0  0  0
   68.9906   48.3913   54.9824 C   0  0  0  0  0  0  0  0  0  0  0  0
   69.6960   49.4357   55.0612 O   0  0  0  0  0  0  0  0  0  0  0  0
   68.8027   47.6358   53.8473 C   0  0  0  0  0  0  0  0  0  0  0  0
   68.3309   48.4496   57.3690 C   0  0  0  0  0  0  0  0  0  0  0  0
   67.1180   49.2390   57.6531 C   0  0  0  0  0  0  0  0  0  0  0  0
   67.2943   50.7381   57.6869 C   0  0  0  0  0  0  0  0  0  0  0  0
   68.5866   51.2269   57.6194 N   0  0  0  0  0  0  0  0  0  0  0  0
   69.5503   50.4691   58.2820 C   0  0  0  0  0  0  0  0  0  0  0  0
   69.6340   49.0885   57.6676 C   0  0  0  0  0  0  0  0  0  0  0  0
   68.9124   52.3536   56.9041 C   0  0  0  0  0  0  0  0  0  0  0  0
   70.2801   52.5286   56.3338 C   0  0  1  0  0  0  0  0  0  0  0  0
   70.3240   52.2602   54.8166 C   0  0  0  0  0  0  0  0  0  0  0  0
   71.7883   52.1011   54.5192 C   0  0  0  0  0  0  0  0  0  0  0  0
   72.6495   52.8846   55.0950 C   0  0  0  0  0  0  0  0  0  0  0  0
   72.3060   53.9440   56.0403 C   0  0  0  0  0  0  0  0  0  0  0  0
   70.8693   53.8808   56.5350 C   0  0  0  0  0  0  0  0  0  0  0  0
   69.7840   49.6213   51.0328 N   0  0  0  0  0  0  0  0  0  0  0  0
   70.1157   48.7050   52.0440 C   0  0  0  0  0  0  0  0  0  0  0  0
   71.3201   48.8143   52.5278 O   0  0  0  0  0  0  0  0  0  0  0  0
 24 25  1  0
 25 26  2  0
 25  1  1  0
  1  2  2  0
  1 10  1  0
  2  3  1  0
  3  4  2  0
  4  5  1  0
  5  6  1  0
  5 10  2  0
  6  7  1  0
  7 11  1  0
  7  8  1  0
 11 12  1  0
 11 16  1  0
 12 13  1  0
 13 14  1  0
 14 17  1  0
 14 15  1  0
 18 17  1  6
 18 19  1  0
 18 23  1  0
 19 20  1  0
 20 21  2  0
 21 22  1  0
 22 23  1  0
 15 16  1  0
  8  9  2  0
  8 10  1  0
M  CHG  1  14   1
M  END
>  <minimizedAffinity>  (204) 
-9.00840

$$$$
data/reference_output_2/data/smiles/131962.pdb
     RDKit          3D

 29 31  0  0  0  0  0  0  0  0999 V2000
   69.7873   45.7074   57.6343 C   0  0  0  0  0  0  0  0  0  0  0  0
   70.0357   45.7281   58.8678 O   0  0  0  0  0  0  0  0  0  0  0  0
   69.4110   44.4679   57.0902 N   0  0  0  0  0  0  0  0  0  0  0  0
   69.3362   43.3571   57.9316 N   0  0  0  0  0  0  0  0  0  0  0  0
   68.7233   42.1650   57.5016 C   0  0  0  0  0  0  0  0  0  0  0  0
   68.2670   42.2303   56.2973 O   0  0  0  0  0  0  0  0  0  0  0  0
   68.5720   40.9380   58.2613 C   0  0  0  0  0  0  0  0  0  0  0  0
   69.6656   40.0698   58.2864 C   0  0  0  0  0  0  0  0  0  0  0  0
   69.6536   38.8748   58.9693 C   0  0  0  0  0  0  0  0  0  0  0  0
   70.7483   38.0342   58.9771 C   0  0  0  0  0  0  0  0  0  0  0  0
   70.7025   36.8572   59.6645 C   0  0  0  0  0  0  0  0  0  0  0  0
   69.5808   36.4700   60.3643 C   0  0  0  0  0  0  0  0  0  0  0  0
   68.4968   37.2920   60.3615 C   0  0  0  0  0  0  0  0  0  0  0  0
   68.5271   38.4881   59.6699 C   0  0  0  0  0  0  0  0  0  0  0  0
   67.4506   39.3155   59.6611 C   0  0  0  0  0  0  0  0  0  0  0  0
   67.4898   40.5251   58.9588 C   0  0  0  0  0  0  0  0  0  0  0  0
   66.3654   41.2846   59.0086 O   0  0  0  0  0  0  0  0  0  0  0  0
   69.9008   46.9489   56.8483 C   0  0  0  0  0  0  0  0  0  0  0  0
   68.6240   47.3142   56.1577 C   0  0  2  0  0  0  0  0  0  0  0  0
   68.6374   47.1361   54.6891 C   0  0  0  0  0  0  0  0  0  0  0  0
   69.3073   48.0012   53.8427 C   0  0  0  0  0  0  0  0  0  0  0  0
   69.3093   47.8525   52.4748 C   0  0  0  0  0  0  0  0  0  0  0  0
   68.6106   46.7897   51.8860 C   0  0  0  0  0  0  0  0  0  0  0  0
   67.9321   45.9106   52.7014 C   0  0  0  0  0  0  0  0  0  0  0  0
   67.9632   46.1061   54.0686 C   0  0  0  0  0  0  0  0  0  0  0  0
   66.8004   50.3549   57.7899 C   0  0  0  0  0  0  0  0  0  0  0  0
   67.2073   48.9710   57.4274 C   0  0  0  0  0  0  0  0  0  0  0  0
   66.6249   47.9793   57.9560 O   0  0  0  0  0  0  0  0  0  0  0  0
   68.2413   48.6978   56.4975 N   0  0  0  0  0  0  0  0  0  0  0  0
 26 27  1  0
 27 28  2  0
 27 29  1  0
 29 19  1  0
 19 18  1  6
 19 20  1  0
 18  1  1  0
  1  2  2  0
  1  3  1  0
  3  4  1  0
  4  5  1  0
  5  6  2  0
  5  7  1  0
  7  8  2  0
  7 16  1  0
  8  9  1  0
  9 10  2  0
  9 14  1  0
 10 11  1  0
 11 12  2  0
 12 13  1  0
 13 14  2  0
 14 15  1  0
 15 16  2  0
 16 17  1  0
 20 21  2  0
 20 25  1  0
 21 22  1  0
 22 23  2  0
 23 24  1  0
 24 25  2  0
M  END
>  <minimizedAffinity>  (205) 
-9.00548

$$$$
data/reference_output_2/data/smiles/129890.pdb
     RDKit          3D

 26 27  0  0  0  0  0  0  0  0999 V2000
   70.2024   45.2940   59.1354 N   0  0  0  0  0  0  0  0  0  0  0  0
   70.2116   42.9648   58.3327 C   0  0  0  0  0  0  0  0  0  0  0  0
   71.2737   43.3433   57.7125 O   0  0  0  0  0  0  0  0  0  0  0  0
   69.6387   44.0354   59.1029 N   0  0  0  0  0  0  0  0  0  0  0  0
   68.5276   41.1873   57.7302 C   0  0  0  0  0  0  0  0  0  0  0  0
   68.2051   39.8396   57.6839 C   0  0  0  0  0  0  0  0  0  0  0  0
   69.0738   38.8776   58.1220 C   0  0  0  0  0  0  0  0  0  0  0  0
   70.2837   39.2820   58.6144 C   0  0  0  0  0  0  0  0  0  0  0  0
   71.4144   38.0711   59.1832 Cl  0  0  0  0  0  0  0  0  0  0  0  0
   70.5941   40.6123   58.6572 C   0  0  0  0  0  0  0  0  0  0  0  0
   69.7284   41.6270   58.2159 C   0  0  0  0  0  0  0  0  0  0  0  0
   67.1567   42.2906   55.9952 C   0  0  0  0  0  0  0  0  0  0  0  0
   67.6314   42.1071   57.2820 O   0  0  0  0  0  0  0  0  0  0  0  0
   70.3314   46.1930   58.1081 C   0  0  0  0  0  0  0  0  0  0  0  0
   71.1203   47.6352   58.6475 S   0  0  0  0  0  0  0  0  0  0  0  0
   70.0245   46.2226   56.7593 N   0  0  0  0  0  0  0  0  0  0  0  0
   68.8467   46.6874   56.1697 C   0  0  0  0  0  0  0  0  0  0  0  0
   67.9372   47.1448   56.8980 O   0  0  0  0  0  0  0  0  0  0  0  0
   68.6279   46.6616   54.7176 C   0  0  0  0  0  0  0  0  0  0  0  0
   67.8850   45.6520   54.1501 C   0  0  0  0  0  0  0  0  0  0  0  0
   67.6555   45.5884   52.7970 C   0  0  0  0  0  0  0  0  0  0  0  0
   68.1785   46.5626   51.9594 C   0  0  0  0  0  0  0  0  0  0  0  0
   67.9574   46.5113   50.6109 F   0  0  0  0  0  0  0  0  0  0  0  0
   68.9217   47.5767   52.5147 C   0  0  0  0  0  0  0  0  0  0  0  0
   69.4447   48.5380   51.7258 F   0  0  0  0  0  0  0  0  0  0  0  0
   69.1427   47.6176   53.9095 C   0  0  0  0  0  0  0  0  0  0  0  0
 12 13  1  0
 13  5  1  0
  5  6  2  0
  5 11  1  0
  6  7  1  0
  7  8  2  0
  8  9  1  0
  8 10  1  0
 10 11  2  0
 11  2  1  0
  2  3  2  0
  2  4  1  0
  4  1  1  0
  1 14  1  0
 14 15  2  0
 14 16  1  0
 16 17  1  0
 17 18  2  0
 17 19  1  0
 19 20  2  0
 19 26  1  0
 20 21  1  0
 21 22  2  0
 22 23  1  0
 22 24  1  0
 24 25  1  0
 24 26  2  0
M  END
>  <minimizedAffinity>  (206) 
-9.00105

$$$$
data/200k_reference_output/data/smiles/78493.pdb
     RDKit          3D

 26 28  0  0  0  0  0  0  0  0999 V2000
   69.7879   45.8277   58.5276 N   0  0  0  0  0  0  0  0  0  0  0  0
   68.7624   46.7054   56.4496 C   0  0  0  0  0  0  0  0  0  0  0  0
   67.8899   47.3285   57.1030 O   0  0  0  0  0  0  0  0  0  0  0  0
   69.7367   45.9386   57.1141 N   0  0  0  0  0  0  0  0  0  0  0  0
   69.2427   47.9230   52.8800 C   0  0  0  0  0  0  0  0  0  0  0  0
   68.6176   46.8858   52.2030 C   0  0  0  0  0  0  0  0  0  0  0  0
   68.0574   45.8231   52.8765 C   0  0  0  0  0  0  0  0  0  0  0  0
   68.1155   45.7839   54.2519 C   0  0  0  0  0  0  0  0  0  0  0  0
   68.7326   46.8020   54.9992 C   0  0  0  0  0  0  0  0  0  0  0  0
   69.2685   47.8272   54.2618 C   0  0  0  0  0  0  0  0  0  0  0  0
   69.8345   50.3870   52.7740 C   0  0  0  0  0  0  0  0  0  0  0  0
   69.8360   49.0465   52.1739 C   0  0  0  0  0  0  0  0  0  0  0  0
   70.3436   48.8618   51.0570 O   0  0  0  0  0  0  0  0  0  0  0  0
   71.1463   44.8635   58.9840 S   0  0  0  0  0  0  0  0  0  0  0  0
   71.5256   45.0776   60.4162 O   0  0  0  0  0  0  0  0  0  0  0  0
   72.3101   45.2437   58.1314 O   0  0  0  0  0  0  0  0  0  0  0  0
   70.7969   43.1420   58.7949 C   0  0  0  0  0  0  0  0  0  0  0  0
   69.5173   42.7067   58.5283 C   0  0  0  0  0  0  0  0  0  0  0  0
   69.2534   41.3637   58.3795 C   0  0  0  0  0  0  0  0  0  0  0  0
   70.2402   40.4082   58.4910 C   0  0  0  0  0  0  0  0  0  0  0  0
   69.9549   39.0491   58.3373 C   0  0  0  0  0  0  0  0  0  0  0  0
   70.9539   38.1053   58.4511 C   0  0  0  0  0  0  0  0  0  0  0  0
   72.2360   38.5467   58.7191 C   0  0  0  0  0  0  0  0  0  0  0  0
   72.5089   39.8896   58.8685 C   0  0  0  0  0  0  0  0  0  0  0  0
   71.5163   40.8579   58.7576 C   0  0  0  0  0  0  0  0  0  0  0  0
   71.7970   42.1990   58.9083 C   0  0  0  0  0  0  0  0  0  0  0  0
 11 12  1  0
 12 13  2  0
 12  5  1  0
  5  6  2  0
  5 10  1  0
  6  7  1  0
  7  8  2  0
  8  9  1  0
  9  2  1  0
  9 10  2  0
  2  3  2  0
  2  4  1  0
  4  1  1  0
  1 14  1  0
 14 15  2  0
 14 16  2  0
 14 17  1  0
 17 18  2  0
 17 26  1  0
 18 19  1  0
 19 20  2  0
 20 21  1  0
 20 25  1  0
 21 22  2  0
 22 23  1  0
 23 24  2  0
 24 25  1  0
 25 26  2  0
M  END
>  <minimizedAffinity>  (207) 
-9.00048

$$$$
data/200k_reference_output/data/smiles/84345.pdb
     RDKit          3D

 28 32  0  0  0  0  0  0  0  0999 V2000
   76.9453   36.1608   53.2663 N   0  0  0  0  0  0  0  0  0  0  0  0
   76.7146   35.5776   51.9861 C   0  0  0  0  0  0  0  0  0  0  0  0
   77.5156   35.8206   50.9410 N   0  0  0  0  0  0  0  0  0  0  0  0
   77.2555   35.2427   49.7389 C   0  0  0  0  0  0  0  0  0  0  0  0
   78.0957   35.5064   48.6713 C   0  0  0  0  0  0  0  0  0  0  0  0
   77.8381   34.9243   47.4506 C   0  0  0  0  0  0  0  0  0  0  0  0
   76.7603   34.0865   47.2798 C   0  0  0  0  0  0  0  0  0  0  0  0
   75.9159   33.8157   48.3356 C   0  0  0  0  0  0  0  0  0  0  0  0
   76.1856   34.4115   49.5711 C   0  0  0  0  0  0  0  0  0  0  0  0
   75.3222   34.1318   50.6383 C   0  0  0  0  0  0  0  0  0  0  0  0
   75.6121   34.7319   51.8436 C   0  0  0  0  0  0  0  0  0  0  0  0
   76.7470   33.6492   45.9632 O   0  0  0  0  0  0  0  0  0  0  0  0
   77.7667   34.3327   45.2671 C   0  0  0  0  0  0  0  0  0  0  0  0
   78.5250   35.0287   46.2318 O   0  0  0  0  0  0  0  0  0  0  0  0
   74.7749   34.4895   53.0093 C   0  0  0  0  0  0  0  0  0  0  0  0
   74.8957   33.3742   53.6261 O   0  0  0  0  0  0  0  0  0  0  0  0
   73.8477   35.4531   53.4606 N   0  0  0  0  0  0  0  0  0  0  0  0
   73.0341   35.1748   54.6272 C   0  0  0  0  0  0  0  0  0  0  0  0
   73.7238   35.4788   55.9042 C   0  0  0  0  0  0  0  0  0  0  0  0
   72.9178   35.2065   57.1104 C   0  0  0  0  0  0  0  0  0  0  0  0
   72.7716   33.9699   57.7092 C   0  0  0  0  0  0  0  0  0  0  0  0
   71.9662   34.1210   58.7787 N   0  0  0  0  0  0  0  0  0  0  0  0
   71.5809   35.3948   58.9041 C   0  0  0  0  0  0  0  0  0  0  0  0
   70.7797   36.0149   59.8133 C   0  0  0  0  0  0  0  0  0  0  0  0
   70.5600   37.3786   59.6782 C   0  0  0  0  0  0  0  0  0  0  0  0
   71.1374   38.0951   58.6473 C   0  0  0  0  0  0  0  0  0  0  0  0
   71.9412   37.4216   57.7529 C   0  0  0  0  0  0  0  0  0  0  0  0
   72.1788   36.0745   57.8579 C   0  0  0  0  0  0  0  0  0  0  0  0
  1  2  1  0
  2  3  2  0
  2 11  1  0
  3  4  1  0
  4  5  2  0
  4  9  1  0
  5  6  1  0
  6  7  2  0
  6 14  1  0
  7  8  1  0
  7 12  1  0
  8  9  2  0
  9 10  1  0
 10 11  2  0
 11 15  1  0
 15 16  2  0
 15 17  1  0
 17 18  1  0
 18 19  1  0
 19 20  1  0
 20 21  2  0
 20 28  1  0
 21 22  1  0
 22 23  1  0
 23 24  1  0
 23 28  2  0
 24 25  2  0
 25 26  1  0
 26 27  2  0
 27 28  1  0
 12 13  1  0
 13 14  1  0
M  END
>  <minimizedAffinity>  (208) 
-9.00018

$$$$
data/reference_output_2/data/smiles/190432.pdb
     RDKit          3D

 27 29  0  0  0  0  0  0  0  0999 V2000
   68.7969   42.5174   57.1454 C   0  0  0  0  0  0  0  0  0  0  0  0
   68.9665   43.7483   56.6391 N   0  0  0  0  0  0  0  0  0  0  0  0
   68.2019   44.2730   55.6433 C   0  0  0  0  0  0  0  0  0  0  0  0
   67.2371   43.4775   55.1722 N   0  0  0  0  0  0  0  0  0  0  0  0
   67.0078   42.2224   55.6359 C   0  0  0  0  0  0  0  0  0  0  0  0
   66.0902   41.4954   55.1724 O   0  0  0  0  0  0  0  0  0  0  0  0
   67.7903   41.7234   56.6347 C   0  0  0  0  0  0  0  0  0  0  0  0
   67.6217   40.4443   57.1684 O   0  0  0  0  0  0  0  0  0  0  0  0
   68.4462   45.6216   55.1451 C   0  0  0  0  0  0  0  0  0  0  0  0
   68.1936   45.9259   53.8202 C   0  0  0  0  0  0  0  0  0  0  0  0
   68.4052   47.1816   53.2934 C   0  0  0  0  0  0  0  0  0  0  0  0
   68.8896   48.2002   54.0967 C   0  0  0  0  0  0  0  0  0  0  0  0
   69.0964   49.4178   53.5926 F   0  0  0  0  0  0  0  0  0  0  0  0
   69.1486   47.9195   55.4210 C   0  0  0  0  0  0  0  0  0  0  0  0
   68.9245   46.6313   55.9338 C   0  0  0  0  0  0  0  0  0  0  0  0
   70.5611   40.9391   58.0280 N   0  0  0  0  0  0  0  0  0  0  0  0
   69.6662   42.0128   58.2289 C   0  0  0  0  0  0  0  0  0  0  0  0
   69.5999   42.5544   59.3420 O   0  0  0  0  0  0  0  0  0  0  0  0
   71.4446   40.3819   59.0180 C   0  0  0  0  0  0  0  0  0  0  0  0
   71.4822   34.6510   59.2078 C   0  0  0  0  0  0  0  0  0  0  0  0
   71.4860   36.1250   59.1354 C   0  0  0  0  0  0  0  0  0  0  0  0
   70.8699   36.8467   60.1235 C   0  0  0  0  0  0  0  0  0  0  0  0
   70.8710   38.2275   60.0577 C   0  0  0  0  0  0  0  0  0  0  0  0
   71.4813   38.9014   59.0157 C   0  0  0  0  0  0  0  0  0  0  0  0
   72.0890   38.1426   58.0420 C   0  0  0  0  0  0  0  0  0  0  0  0
   72.0999   36.7551   58.0878 C   0  0  0  0  0  0  0  0  0  0  0  0
   72.7827   36.0328   56.9872 C   0  0  0  0  0  0  0  0  0  0  0  0
 20 21  1  0
 21 22  2  0
 21 26  1  0
 22 23  1  0
 23 24  2  0
 24 19  1  0
 24 25  1  0
 19 16  1  0
 16 17  1  0
 17 18  2  0
 17  1  1  0
  1  2  1  0
  1  7  2  0
  2  3  2  0
  3  9  1  0
  3  4  1  0
  9 10  2  0
  9 15  1  0
 10 11  1  0
 11 12  2  0
 12 13  1  0
 12 14  1  0
 14 15  2  0
  4  5  1  0
  5  6  2  0
  5  7  1  0
  7  8  1  0
 25 26  2  0
 26 27  1  0
M  END
>  <minimizedAffinity>  (209) 
-8.99955

$$$$
data/200k_reference_output/data/smiles/11128.pdb
     RDKit          3D

 26 28  0  0  0  0  0  0  0  0999 V2000
   67.7986   43.4880   55.7378 N   0  0  0  0  0  0  0  0  0  0  0  0
   66.7403   42.7935   55.3436 N   0  0  0  0  0  0  0  0  0  0  0  0
   66.6843   41.5898   55.9084 C   0  0  0  0  0  0  0  0  0  0  0  0
   67.7858   41.4928   56.7306 C   0  0  0  0  0  0  0  0  0  0  0  0
   68.4552   42.6873   56.6015 C   0  0  0  0  0  0  0  0  0  0  0  0
   69.7123   43.0548   57.2989 C   0  0  0  0  0  0  0  0  0  0  0  0
   68.6143   46.8061   52.2006 C   0  0  0  0  0  0  0  0  0  0  0  0
   68.5610   46.4104   53.6369 C   0  0  0  0  0  0  0  0  0  0  0  0
   68.8802   47.3745   54.5704 C   0  0  0  0  0  0  0  0  0  0  0  0
   68.8300   47.0094   55.9019 C   0  0  0  0  0  0  0  0  0  0  0  0
   69.1195   47.8884   56.7534 O   0  0  0  0  0  0  0  0  0  0  0  0
   68.4811   45.7541   56.2456 N   0  0  0  0  0  0  0  0  0  0  0  0
   68.1660   44.8007   55.3356 C   0  0  0  0  0  0  0  0  0  0  0  0
   68.2209   45.1776   54.0343 N   0  0  0  0  0  0  0  0  0  0  0  0
   68.1160   40.3273   57.5442 C   0  0  0  0  0  0  0  0  0  0  0  0
   68.1535   39.1604   57.0416 O   0  0  0  0  0  0  0  0  0  0  0  0
   68.4145   40.4291   58.9285 N   0  0  0  0  0  0  0  0  0  0  0  0
   68.7450   39.3353   59.7988 C   0  0  0  0  0  0  0  0  0  0  0  0
   70.2287   39.2991   60.0371 C   0  0  0  0  0  0  0  0  0  0  0  0
   70.8382   38.1124   59.3369 C   0  0  0  0  0  0  0  0  0  0  0  0
   70.6200   36.8782   59.9324 C   0  0  0  0  0  0  0  0  0  0  0  0
   71.1690   35.7707   59.3303 C   0  0  0  0  0  0  0  0  0  0  0  0
   71.9201   35.8537   58.1694 C   0  0  0  0  0  0  0  0  0  0  0  0
   72.4627   34.7439   57.5791 F   0  0  0  0  0  0  0  0  0  0  0  0
   72.1253   37.0891   57.5942 C   0  0  0  0  0  0  0  0  0  0  0  0
   71.5783   38.2095   58.1889 C   0  0  0  0  0  0  0  0  0  0  0  0
  7  8  1  0
  8  9  2  0
  8 14  1  0
  9 10  1  0
 10 11  2  0
 10 12  1  0
 12 13  1  0
 13  1  1  0
 13 14  2  0
  1  2  1  0
  1  5  1  0
  2  3  2  0
  3  4  1  0
  4 15  1  0
  4  5  2  0
 15 16  2  0
 15 17  1  0
 17 18  1  0
 18 19  1  0
 19 20  1  0
 20 21  2  0
 20 26  1  0
 21 22  1  0
 22 23  2  0
 23 24  1  0
 23 25  1  0
 25 26  2  0
  5  6  1  0
M  END
>  <minimizedAffinity>  (210) 
-8.99913

$$$$
data/200k_reference_output/data/smiles/55238.pdb
     RDKit          3D

 23 25  0  0  0  0  0  0  0  0999 V2000
   68.4575   43.7774   56.2247 N   0  0  0  0  0  0  0  0  0  0  0  0
   68.1659   42.5251   56.4156 C   0  0  0  0  0  0  0  0  0  0  0  0
   67.0810   41.8048   55.7897 C   0  0  0  0  0  0  0  0  0  0  0  0
   66.2678   42.2978   54.9694 O   0  0  0  0  0  0  0  0  0  0  0  0
   67.1527   40.4792   56.2964 N   0  0  0  0  0  0  0  0  0  0  0  0
   68.2331   40.3400   57.2108 C   0  0  0  0  0  0  0  0  0  0  0  0
   68.7121   39.2592   57.9618 C   0  0  0  0  0  0  0  0  0  0  0  0
   69.8042   39.4136   58.7852 C   0  0  0  0  0  0  0  0  0  0  0  0
   70.4830   37.9440   59.8279 Br  0  0  0  0  0  0  0  0  0  0  0  0
   70.3930   40.6607   58.8352 C   0  0  0  0  0  0  0  0  0  0  0  0
   69.9460   41.7350   58.1111 C   0  0  0  0  0  0  0  0  0  0  0  0
   68.8476   41.5714   57.2858 C   0  0  0  0  0  0  0  0  0  0  0  0
   67.6553   44.4956   55.3380 N   0  0  0  0  0  0  0  0  0  0  0  0
   69.2909   47.9936   53.5475 C   0  0  0  0  0  0  0  0  0  0  0  0
   69.2979   47.8047   54.9156 C   0  0  0  0  0  0  0  0  0  0  0  0
   68.7684   46.6726   55.5001 C   0  0  0  0  0  0  0  0  0  0  0  0
   68.2043   45.6701   54.7378 C   0  0  0  0  0  0  0  0  0  0  0  0
   68.1987   45.8593   53.3716 C   0  0  0  0  0  0  0  0  0  0  0  0
   68.7282   46.9929   52.7822 C   0  0  0  0  0  0  0  0  0  0  0  0
   69.8905   49.3973   51.1164 N   0  0  0  0  0  0  0  0  0  0  0  0
   69.9747   49.4464   52.8502 S   0  0  0  0  0  0  0  0  0  0  0  0
   71.4302   49.5364   53.2188 O   0  0  0  0  0  0  0  0  0  0  0  0
   69.2593   50.6760   53.3523 O   0  0  0  0  0  0  0  0  0  0  0  0
 20 21  1  0
 21 22  2  0
 21 23  2  0
 21 14  1  0
 14 15  2  0
 14 19  1  0
 15 16  1  0
 16 17  2  0
 17 13  1  0
 17 18  1  0
 13  1  1  0
  1  2  2  0
  2  3  1  0
  2 12  1  0
  3  4  2  0
  3  5  1  0
  5  6  1  0
  6  7  1  0
  6 12  2  0
  7  8  2  0
  8  9  1  0
  8 10  1  0
 10 11  2  0
 11 12  1  0
 18 19  2  0
M  END
>  <minimizedAffinity>  (211) 
-8.99748

$$$$
data/reference_output_2/data/smiles/168980.pdb
     RDKit          3D

 28 31  0  0  0  0  0  0  0  0999 V2000
   70.4376   44.4759   58.3170 C   0  0  2  0  0  0  0  0  0  0  0  0
   69.8245   44.3039   59.5640 O   0  0  0  0  0  0  0  0  0  0  0  0
   70.1452   43.3577   57.3742 C   0  0  0  0  0  0  0  0  0  0  0  0
   71.0122   42.2274   57.9355 C   0  0  0  0  0  0  0  0  0  0  0  0
   72.1710   42.9362   58.4352 N   0  0  0  0  0  0  0  0  0  0  0  0
   71.8927   44.3236   58.5593 C   0  0  0  0  0  0  0  0  0  0  0  0
   72.7452   45.2164   58.8242 O   0  0  0  0  0  0  0  0  0  0  0  0
   73.4510   42.3619   58.7735 C   0  0  0  0  0  0  0  0  0  0  0  0
   73.6114   41.4577   59.8018 C   0  0  0  0  0  0  0  0  0  0  0  0
   74.8535   40.9214   60.1180 C   0  0  0  0  0  0  0  0  0  0  0  0
   75.9742   41.2799   59.4059 C   0  0  0  0  0  0  0  0  0  0  0  0
   77.2801   40.9435   59.4713 N   0  0  0  0  0  0  0  0  0  0  0  0
   77.9610   41.5844   58.5400 N   0  0  0  0  0  0  0  0  0  0  0  0
   77.0972   42.3561   57.8469 C   0  0  0  0  0  0  0  0  0  0  0  0
   75.8312   42.1848   58.3718 C   0  0  0  0  0  0  0  0  0  0  0  0
   74.5810   42.7144   58.0662 C   0  0  0  0  0  0  0  0  0  0  0  0
   70.6481   46.8156   58.2734 O   0  0  0  0  0  0  0  0  0  0  0  0
   70.1135   45.8100   57.7531 C   0  0  0  0  0  0  0  0  0  0  0  0
   69.2365   45.9405   56.6734 N   0  0  0  0  0  0  0  0  0  0  0  0
   68.8774   47.2024   56.0667 C   0  0  0  0  0  0  0  0  0  0  0  0
   68.7549   47.0278   54.6000 C   0  0  0  0  0  0  0  0  0  0  0  0
   68.0200   46.0038   54.0483 C   0  0  0  0  0  0  0  0  0  0  0  0
   67.9296   45.8841   52.6636 C   0  0  0  0  0  0  0  0  0  0  0  0
   67.1949   44.8618   52.1155 F   0  0  0  0  0  0  0  0  0  0  0  0
   68.5628   46.7735   51.8244 C   0  0  0  0  0  0  0  0  0  0  0  0
   69.2976   47.7959   52.3900 C   0  0  0  0  0  0  0  0  0  0  0  0
   69.9200   48.6699   51.5383 F   0  0  0  0  0  0  0  0  0  0  0  0
   69.3990   47.9309   53.7446 C   0  0  0  0  0  0  0  0  0  0  0  0
 17 18  2  0
 18 19  1  0
 19 20  1  0
 20 21  1  0
 21 22  2  0
 21 28  1  0
 22 23  1  0
 23 24  1  0
 23 25  2  0
 25 26  1  0
 26 27  1  0
 26 28  2  0
  1 18  1  0
  1  2  1  1
  1  3  1  0
  1  6  1  0
  3  4  1  0
  4  5  1  0
  5  8  1  0
  5  6  1  0
  8  9  2  0
  8 16  1  0
  9 10  1  0
 10 11  2  0
 11 12  1  0
 11 15  1  0
 12 13  1  0
 13 14  2  0
 14 15  1  0
 15 16  2  0
  6  7  2  0
M  END
>  <minimizedAffinity>  (212) 
-8.99678

$$$$
data/200k_reference_output/data/smiles/43822.pdb
     RDKit          3D

 27 29  0  0  0  0  0  0  0  0999 V2000
   70.3534   46.0629   58.9655 O   0  0  0  0  0  0  0  0  0  0  0  0
   69.9365   46.3043   57.7779 C   0  0  0  0  0  0  0  0  0  0  0  0
   69.5633   45.1720   57.0180 N   0  0  0  0  0  0  0  0  0  0  0  0
   69.6603   43.9077   57.5923 N   0  0  0  0  0  0  0  0  0  0  0  0
   68.9072   42.7905   57.2187 C   0  0  0  0  0  0  0  0  0  0  0  0
   68.0654   42.9064   56.2917 O   0  0  0  0  0  0  0  0  0  0  0  0
   69.0623   41.4723   57.8741 C   0  0  2  0  0  0  0  0  0  0  0  0
   68.0064   40.4878   57.4139 C   0  0  0  0  0  0  0  0  0  0  0  0
   68.4257   39.1339   57.9537 C   0  0  0  0  0  0  0  0  0  0  0  0
   68.3049   39.2133   59.4629 C   0  0  0  0  0  0  0  0  0  0  0  0
   69.3390   40.2058   59.9526 C   0  0  0  0  0  0  0  0  0  0  0  0
   69.1609   41.5686   59.3644 C   0  0  2  0  0  0  0  0  0  0  0  0
   68.0709   42.3154   59.9935 C   0  0  0  0  0  0  0  0  0  0  0  0
   66.8709   41.9443   60.0577 O   0  0  0  0  0  0  0  0  0  0  0  0
   68.3751   43.5406   60.5738 O   0  0  0  0  0  0  0  0  0  0  0  0
   69.8960   47.7007   57.3424 C   0  0  0  0  0  0  0  0  0  0  0  0
   68.9936   48.0021   56.3160 O   0  0  0  0  0  0  0  0  0  0  0  0
   69.3426   48.3225   55.0285 C   0  0  0  0  0  0  0  0  0  0  0  0
   70.1326   49.3995   54.6871 C   0  0  0  0  0  0  0  0  0  0  0  0
   70.4093   49.6068   53.3543 C   0  0  0  0  0  0  0  0  0  0  0  0
   69.9313   48.7864   52.3611 C   0  0  0  0  0  0  0  0  0  0  0  0
   69.1440   47.7143   52.7125 C   0  0  0  0  0  0  0  0  0  0  0  0
   68.6369   46.8563   51.7373 C   0  0  0  0  0  0  0  0  0  0  0  0
   67.8441   45.7687   52.0404 C   0  0  0  0  0  0  0  0  0  0  0  0
   67.5614   45.5533   53.3732 C   0  0  0  0  0  0  0  0  0  0  0  0
   68.0442   46.3805   54.3633 C   0  0  0  0  0  0  0  0  0  0  0  0
   68.8359   47.4629   54.0424 C   0  0  0  0  0  0  0  0  0  0  0  0
  1  2  2  0
  2 16  1  0
  2  3  1  0
 16 17  1  0
 17 18  1  0
 18 19  2  0
 18 27  1  0
 19 20  1  0
 20 21  2  0
 21 22  1  0
 22 23  1  0
 22 27  2  0
 23 24  2  0
 24 25  1  0
 25 26  2  0
 26 27  1  0
  3  4  1  0
  4  5  1  0
  5  6  2  0
  7  5  1  6
  7  8  1  0
  7 12  1  0
  8  9  1  0
  9 10  1  0
 10 11  1  0
 11 12  1  0
 12 13  1  1
 13 14  2  0
 13 15  1  0
M  END
>  <minimizedAffinity>  (213) 
-8.99577

$$$$
data/reference_output_2/data/smiles/146206.pdb
     RDKit          3D

 26 29  0  0  0  0  0  0  0  0999 V2000
   71.8432   40.6405   59.0696 O   0  0  0  0  0  0  0  0  0  0  0  0
   70.7045   40.6219   58.5270 C   0  0  0  0  0  0  0  0  0  0  0  0
   70.1752   41.8701   57.9930 C   0  0  0  0  0  0  0  0  0  0  0  0
   70.6342   43.1698   57.9237 C   0  0  0  0  0  0  0  0  0  0  0  0
   69.6456   43.8724   57.2918 C   0  0  0  0  0  0  0  0  0  0  0  0
   68.6293   43.0520   56.9876 N   0  0  0  0  0  0  0  0  0  0  0  0
   68.9515   41.8192   57.4170 N   0  0  0  0  0  0  0  0  0  0  0  0
   68.1504   40.6442   57.2966 C   0  0  0  0  0  0  0  0  0  0  0  0
   68.5396   39.5386   58.2251 C   0  0  0  0  0  0  0  0  0  0  0  0
   69.9549   39.4185   58.4370 N   0  0  0  0  0  0  0  0  0  0  0  0
   70.6179   38.1562   58.5565 C   0  0  0  0  0  0  0  0  0  0  0  0
   70.2615   37.2724   59.5552 C   0  0  0  0  0  0  0  0  0  0  0  0
   70.8958   36.0402   59.6855 C   0  0  0  0  0  0  0  0  0  0  0  0
   71.9026   35.6565   58.8253 C   0  0  0  0  0  0  0  0  0  0  0  0
   72.5240   34.4512   58.9512 F   0  0  0  0  0  0  0  0  0  0  0  0
   72.2603   36.5372   57.8266 C   0  0  0  0  0  0  0  0  0  0  0  0
   71.6250   37.7608   57.7013 C   0  0  0  0  0  0  0  0  0  0  0  0
   69.6592   45.3120   56.9792 C   0  0  0  0  0  0  0  0  0  0  0  0
   68.5446   45.7907   56.3013 O   0  0  0  0  0  0  0  0  0  0  0  0
   68.3915   45.9740   54.9551 C   0  0  0  0  0  0  0  0  0  0  0  0
   68.8801   47.1382   54.3623 C   0  0  0  0  0  0  0  0  0  0  0  0
   68.7625   47.3943   53.0140 C   0  0  0  0  0  0  0  0  0  0  0  0
   68.1335   46.4500   52.2332 C   0  0  0  0  0  0  0  0  0  0  0  0
   67.9903   46.6479   50.9032 F   0  0  0  0  0  0  0  0  0  0  0  0
   67.6499   45.2977   52.8194 C   0  0  0  0  0  0  0  0  0  0  0  0
   67.7879   45.0919   54.1397 N   0  0  0  0  0  0  0  0  0  0  0  0
  1  2  2  0
  2  3  1  0
  2 10  1  0
  3  4  2  0
  3  7  1  0
  4  5  1  0
  5 18  1  0
  5  6  2  0
 18 19  1  0
 19 20  1  0
 20 21  2  0
 20 26  1  0
 21 22  1  0
 22 23  2  0
 23 24  1  0
 23 25  1  0
 25 26  2  0
  6  7  1  0
  7  8  1  0
  8  9  1  0
  9 10  1  0
 10 11  1  0
 11 12  2  0
 11 17  1  0
 12 13  1  0
 13 14  2  0
 14 15  1  0
 14 16  1  0
 16 17  2  0
M  END
>  <minimizedAffinity>  (214) 
-8.99537

$$$$
data/reference_output_2/data/smiles/182948.pdb
     RDKit          3D

 25 26  0  0  0  0  0  0  0  0999 V2000
   69.5494   46.2143   57.9283 N   0  0  0  0  0  0  0  0  0  0  0  0
   68.0796   44.8857   56.0224 O   0  0  0  0  0  0  0  0  0  0  0  0
   68.7308   45.9012   55.6509 C   0  0  0  0  0  0  0  0  0  0  0  0
   69.5113   46.6323   56.5886 N   0  0  0  0  0  0  0  0  0  0  0  0
   68.6434   46.2737   54.2492 C   0  0  0  0  0  0  0  0  0  0  0  0
   67.8070   45.6441   53.3439 C   0  0  0  0  0  0  0  0  0  0  0  0
   67.7548   46.0365   52.0025 C   0  0  0  0  0  0  0  0  0  0  0  0
   68.5512   47.0740   51.5637 C   0  0  0  0  0  0  0  0  0  0  0  0
   69.3954   47.7242   52.4346 C   0  0  0  0  0  0  0  0  0  0  0  0
   69.4195   47.3077   53.7509 C   0  0  0  0  0  0  0  0  0  0  0  0
   70.2205   48.7932   51.9969 N   0  0  0  0  0  0  0  0  0  0  0  0
   69.9545   49.4241   50.9659 O   0  0  0  0  0  0  0  0  0  0  0  0
   71.3172   49.1177   52.7302 O   0  0  0  0  0  0  0  0  0  0  0  0
   70.3923   45.1447   58.3640 C   0  0  0  0  0  0  0  0  0  0  0  0
   71.9818   45.3851   58.6282 S   0  0  0  0  0  0  0  0  0  0  0  0
   69.8805   43.8430   58.5836 N   0  0  0  0  0  0  0  0  0  0  0  0
   70.3581   42.7459   57.8269 C   0  0  0  0  0  0  0  0  0  0  0  0
   71.2386   42.8766   56.9457 O   0  0  0  0  0  0  0  0  0  0  0  0
   69.8202   41.4113   58.0652 C   0  0  0  0  0  0  0  0  0  0  0  0
   70.4442   40.5223   58.9096 C   0  0  0  0  0  0  0  0  0  0  0  0
   69.9193   39.2691   59.1197 C   0  0  0  0  0  0  0  0  0  0  0  0
   68.7616   38.8928   58.4859 C   0  0  0  0  0  0  0  0  0  0  0  0
   68.1050   39.7542   57.6313 C   0  0  0  0  0  0  0  0  0  0  0  0
   68.6475   41.0002   57.4371 C   0  0  0  0  0  0  0  0  0  0  0  0
   67.8265   42.1131   56.3525 Cl  0  0  0  0  0  0  0  0  0  0  0  0
  2  3  2  0
  3  4  1  0
  3  5  1  0
  4  1  1  0
  1 14  1  0
 14 15  2  0
 14 16  1  0
 16 17  1  0
 17 18  2  0
 17 19  1  0
 19 20  2  0
 19 24  1  0
 20 21  1  0
 21 22  2  0
 22 23  1  0
 23 24  2  0
 24 25  1  0
  5  6  2  0
  5 10  1  0
  6  7  1  0
  7  8  2  0
  8  9  1  0
  9 11  1  0
  9 10  2  0
 11 12  2  0
 11 13  1  0
M  CHG  2  11   1  13  -1
M  END
>  <minimizedAffinity>  (215) 
-8.98991

$$$$
data/reference_output_2/data/smiles/118718.pdb
     RDKit          3D

 26 28  0  0  0  0  0  0  0  0999 V2000
   69.7860   45.1459   59.0715 O   0  0  0  0  0  0  0  0  0  0  0  0
   70.6214   45.0625   58.1493 C   0  0  0  0  0  0  0  0  0  0  0  0
   70.5960   46.0414   57.1289 N   0  0  0  0  0  0  0  0  0  0  0  0
   71.5854   43.9727   58.1487 C   0  0  0  0  0  0  0  0  0  0  0  0
   72.9445   44.2621   57.9835 C   0  0  0  0  0  0  0  0  0  0  0  0
   73.8887   43.2631   57.9755 C   0  0  0  0  0  0  0  0  0  0  0  0
   73.4907   41.9330   58.1358 C   0  0  0  0  0  0  0  0  0  0  0  0
   72.1669   41.6001   58.3007 C   0  0  0  0  0  0  0  0  0  0  0  0
   71.2568   42.6628   58.2989 C   0  0  0  0  0  0  0  0  0  0  0  0
   71.6977   40.2305   58.4713 C   0  0  0  0  0  0  0  0  0  0  0  0
   70.3693   39.9022   58.4589 C   0  0  0  0  0  0  0  0  0  0  0  0
   69.8984   38.6039   58.6194 C   0  0  0  0  0  0  0  0  0  0  0  0
   70.8354   37.6144   58.7983 C   0  0  0  0  0  0  0  0  0  0  0  0
   72.1631   37.9781   58.8059 C   0  0  0  0  0  0  0  0  0  0  0  0
   72.5834   39.2466   58.6472 N   0  0  0  0  0  0  0  0  0  0  0  0
   69.6948   47.1080   57.0660 N   0  0  0  0  0  0  0  0  0  0  0  0
   68.4783   46.7878   55.8949 S   0  0  0  0  0  0  0  0  0  0  0  0
   67.1712   47.4728   56.2779 O   0  0  0  0  0  0  0  0  0  0  0  0
   68.2055   45.2876   55.9059 O   0  0  0  0  0  0  0  0  0  0  0  0
   68.9337   47.3042   54.3008 C   0  0  0  0  0  0  0  0  0  0  0  0
   69.6584   48.4880   54.1428 C   0  0  0  0  0  0  0  0  0  0  0  0
   70.0510   48.9548   52.9119 C   0  0  0  0  0  0  0  0  0  0  0  0
   69.7185   48.2268   51.7918 C   0  0  0  0  0  0  0  0  0  0  0  0
   69.0085   47.0598   51.9047 C   0  0  0  0  0  0  0  0  0  0  0  0
   68.6350   46.6284   53.1549 C   0  0  0  0  0  0  0  0  0  0  0  0
   67.9252   45.4600   53.2578 F   0  0  0  0  0  0  0  0  0  0  0  0
  1  2  2  0
  2  3  1  0
  2  4  1  0
  3 16  1  0
 16 17  1  0
 17 18  2  0
 17 19  2  0
 17 20  1  0
 20 21  2  0
 20 25  1  0
 21 22  1  0
 22 23  2  0
 23 24  1  0
 24 25  2  0
 25 26  1  0
  4  5  2  0
  4  9  1  0
  5  6  1  0
  6  7  2  0
  7  8  1  0
  8 10  1  0
  8  9  2  0
 10 11  2  0
 10 15  1  0
 11 12  1  0
 12 13  2  0
 13 14  1  0
 14 15  2  0
M  END
>  <minimizedAffinity>  (216) 
-8.98959

$$$$
data/200k_reference_output/data/smiles/27688.pdb
     RDKit          3D

 29 32  0  0  0  0  0  0  0  0999 V2000
   68.9019   42.4477   57.1706 C   0  0  0  0  0  0  0  0  0  0  0  0
   67.9948   41.6656   56.4497 C   0  0  0  0  0  0  0  0  0  0  0  0
   67.6697   40.3825   56.7438 C   0  0  0  0  0  0  0  0  0  0  0  0
   68.2826   39.8006   57.8384 C   0  0  0  0  0  0  0  0  0  0  0  0
   69.1605   40.5120   58.5608 N   0  0  0  0  0  0  0  0  0  0  0  0
   69.4703   41.8089   58.2425 C   0  0  0  0  0  0  0  0  0  0  0  0
   70.2901   42.4012   58.9565 O   0  0  0  0  0  0  0  0  0  0  0  0
   68.3871   44.6497   55.9706 N   0  0  0  0  0  0  0  0  0  0  0  0
   69.1661   43.8144   56.7549 C   0  0  0  0  0  0  0  0  0  0  0  0
   70.2660   44.3148   57.1676 O   0  0  0  0  0  0  0  0  0  0  0  0
   69.7769   50.2332   51.5131 O   0  0  0  0  0  0  0  0  0  0  0  0
   69.5280   49.4149   52.4491 C   0  0  0  0  0  0  0  0  0  0  0  0
   69.3782   47.9601   52.2921 C   0  0  0  0  0  0  0  0  0  0  0  0
   69.0983   47.4840   53.6713 C   0  0  0  0  0  0  0  0  0  0  0  0
   68.8628   46.2269   54.1951 C   0  0  0  0  0  0  0  0  0  0  0  0
   68.6152   45.9817   55.5491 C   0  0  0  0  0  0  0  0  0  0  0  0
   68.6199   47.0897   56.3503 C   0  0  0  0  0  0  0  0  0  0  0  0
   68.8535   48.3735   55.8565 C   0  0  0  0  0  0  0  0  0  0  0  0
   69.0942   48.5663   54.5082 C   0  0  0  0  0  0  0  0  0  0  0  0
   69.3547   49.7825   53.7985 N   0  0  0  0  0  0  0  0  0  0  0  0
   69.7636   39.8377   59.6906 C   0  0  0  0  0  0  0  0  0  0  0  0
   70.3523   38.5331   59.3628 C   0  0  0  0  0  0  0  0  0  0  0  0
   70.0236   37.4399   60.1356 C   0  0  0  0  0  0  0  0  0  0  0  0
   70.5553   36.1808   59.8699 C   0  0  0  0  0  0  0  0  0  0  0  0
   71.4275   36.0167   58.8152 C   0  0  0  0  0  0  0  0  0  0  0  0
   71.9672   34.7903   58.5276 F   0  0  0  0  0  0  0  0  0  0  0  0
   71.7540   37.1077   58.0458 C   0  0  0  0  0  0  0  0  0  0  0  0
   72.6248   36.9400   56.9928 F   0  0  0  0  0  0  0  0  0  0  0  0
   71.2352   38.3599   58.2974 C   0  0  0  0  0  0  0  0  0  0  0  0
 11 12  2  0
 12 13  1  0
 12 20  1  0
 13 14  1  0
 14 15  2  0
 14 19  1  0
 15 16  1  0
 16  8  1  0
 16 17  2  0
  8  9  1  0
  9 10  2  0
  9  1  1  0
  1  2  2  0
  1  6  1  0
  2  3  1  0
  3  4  2  0
  4  5  1  0
  5 21  1  0
  5  6  1  0
 21 22  1  0
 22 23  2  0
 22 29  1  0
 23 24  1  0
 24 25  2  0
 25 26  1  0
 25 27  1  0
 27 28  1  0
 27 29  2  0
  6  7  2  0
 17 18  1  0
 18 19  2  0
 19 20  1  0
M  END
>  <minimizedAffinity>  (217) 
-8.98905

$$$$
data/reference_output_2/data/smiles/101508.pdb
     RDKit          3D

 27 30  0  0  0  0  0  0  0  0999 V2000
   71.4837   47.3536   58.7666 C   0  0  0  0  0  0  0  0  0  0  0  0
   70.5051   47.9572   58.0020 C   0  0  0  0  0  0  0  0  0  0  0  0
   69.6835   47.2432   57.1733 C   0  0  0  0  0  0  0  0  0  0  0  0
   69.8485   45.8689   57.1073 C   0  0  0  0  0  0  0  0  0  0  0  0
   70.8217   45.2546   57.8659 C   0  0  0  0  0  0  0  0  0  0  0  0
   71.6510   46.0011   58.7067 C   0  0  0  0  0  0  0  0  0  0  0  0
   72.5965   45.3602   59.4365 F   0  0  0  0  0  0  0  0  0  0  0  0
   72.2225   48.0752   60.8856 O   0  0  0  0  0  0  0  0  0  0  0  0
   72.3061   48.1969   59.6255 C   0  0  0  0  0  0  0  0  0  0  0  0
   73.1979   49.1487   59.0795 N   0  0  0  0  0  0  0  0  0  0  0  0
   73.9966   49.9726   59.9394 C   0  0  0  0  0  0  0  0  0  0  0  0
   75.2472   50.5114   59.3688 C   0  0  0  0  0  0  0  0  0  0  0  0
   75.5457   50.2513   58.0124 N   0  0  0  0  0  0  0  0  0  0  0  0
   74.8797   49.1098   57.4411 C   0  0  0  0  0  0  0  0  0  0  0  0
   73.3757   49.3496   57.6536 C   0  0  0  0  0  0  0  0  0  0  0  0
   68.6497   47.9499   56.3932 C   0  0  0  0  0  0  0  0  0  0  0  0
   69.1230   48.1577   55.0015 C   0  0  0  0  0  0  0  0  0  0  0  0
   70.0150   49.1481   54.7311 N   0  0  0  0  0  0  0  0  0  0  0  0
   70.4852   49.3920   53.5252 N   0  0  0  0  0  0  0  0  0  0  0  0
   70.0908   48.6528   52.4887 C   0  0  0  0  0  0  0  0  0  0  0  0
   70.5369   48.8816   51.3411 O   0  0  0  0  0  0  0  0  0  0  0  0
   69.1901   47.6255   52.6584 C   0  0  0  0  0  0  0  0  0  0  0  0
   68.7935   46.8767   51.5897 C   0  0  0  0  0  0  0  0  0  0  0  0
   67.8879   45.8567   51.7935 C   0  0  0  0  0  0  0  0  0  0  0  0
   67.3952   45.6003   53.0641 C   0  0  0  0  0  0  0  0  0  0  0  0
   67.8154   46.3766   54.1366 C   0  0  0  0  0  0  0  0  0  0  0  0
   68.7187   47.3982   53.9381 C   0  0  0  0  0  0  0  0  0  0  0  0
  8  9  2  0
  9  1  1  0
  9 10  1  0
  1  2  2  0
  1  6  1  0
  2  3  1  0
  3 16  1  0
  3  4  2  0
 16 17  1  0
 17 18  2  0
 17 27  1  0
 18 19  1  0
 19 20  1  0
 20 21  2  0
 20 22  1  0
 22 23  1  0
 22 27  2  0
 23 24  2  0
 24 25  1  0
 25 26  2  0
 26 27  1  0
  4  5  1  0
  5  6  2  0
  6  7  1  0
 10 11  1  0
 10 15  1  0
 11 12  1  0
 12 13  1  0
 13 14  1  0
 14 15  1  0
M  CHG  1  13   1
M  END
>  <minimizedAffinity>  (218) 
-8.98865

$$$$
data/reference_output_2/data/smiles/149663.pdb
     RDKit          3D

 26 28  0  0  0  0  0  0  0  0999 V2000
   71.1839   45.9072   58.5277 S   0  0  0  0  0  0  0  0  0  0  0  0
   71.2111   46.2868   59.9833 O   0  0  0  0  0  0  0  0  0  0  0  0
   72.5985   45.9771   58.0374 O   0  0  0  0  0  0  0  0  0  0  0  0
   70.5122   44.3102   58.3262 C   0  0  0  0  0  0  0  0  0  0  0  0
   70.9622   43.2900   59.1368 C   0  0  0  0  0  0  0  0  0  0  0  0
   70.4651   41.9950   59.0232 C   0  0  0  0  0  0  0  0  0  0  0  0
   69.5045   41.7120   58.0879 C   0  0  0  0  0  0  0  0  0  0  0  0
   68.9728   40.4550   57.9237 C   0  0  0  0  0  0  0  0  0  0  0  0
   68.0054   40.1753   56.9794 C   0  0  0  0  0  0  0  0  0  0  0  0
   67.5841   41.2323   56.1874 C   0  0  0  0  0  0  0  0  0  0  0  0
   68.1118   42.4979   56.3431 C   0  0  0  0  0  0  0  0  0  0  0  0
   67.6402   43.4708   55.5234 F   0  0  0  0  0  0  0  0  0  0  0  0
   69.0757   42.7522   57.2920 C   0  0  0  0  0  0  0  0  0  0  0  0
   69.5782   44.0151   57.4202 N   0  0  0  0  0  0  0  0  0  0  0  0
   68.8462   47.4603   55.6722 C   0  0  0  0  0  0  0  0  0  0  0  0
   68.7302   48.7654   56.0784 C   0  0  0  0  0  0  0  0  0  0  0  0
   69.3564   49.2329   57.2375 C   0  0  0  0  0  0  0  0  0  0  0  0
   70.1086   48.3446   57.9836 C   0  0  0  0  0  0  0  0  0  0  0  0
   70.2414   47.0360   57.6017 C   0  0  0  0  0  0  0  0  0  0  0  0
   69.6144   46.6260   56.4658 C   0  0  0  0  0  0  0  0  0  0  0  0
   68.7270   46.9642   53.2674 C   0  0  0  0  0  0  0  0  0  0  0  0
   68.2236   46.9189   54.4856 C   0  0  0  0  0  0  0  0  0  0  0  0
   68.3817   46.8750   50.9626 O   0  0  0  0  0  0  0  0  0  0  0  0
   68.0701   46.4060   52.0911 C   0  0  0  0  0  0  0  0  0  0  0  0
   67.1076   45.3803   52.0997 N   0  0  0  0  0  0  0  0  0  0  0  0
   66.5194   44.8884   50.9848 O   0  0  0  0  0  0  0  0  0  0  0  0
 23 24  2  0
 24 21  1  0
 24 25  1  0
 21 22  2  0
 22 15  1  0
 15 16  2  0
 15 20  1  0
 16 17  1  0
 17 18  2  0
 18 19  1  0
 19  1  1  0
 19 20  2  0
  1  2  2  0
  1  3  2  0
  1  4  1  0
  4  5  2  0
  4 14  1  0
  5  6  1  0
  6  7  2  0
  7  8  1  0
  7 13  1  0
  8  9  2  0
  9 10  1  0
 10 11  2  0
 11 12  1  0
 11 13  1  0
 13 14  2  0
 25 26  1  0
M  END
>  <minimizedAffinity>  (219) 
-8.98490

$$$$
data/200k_reference_output/data/smiles/81935.pdb
     RDKit          3D

 29 33  0  0  0  0  0  0  0  0999 V2000
   69.1683   49.6916   56.6687 C   0  0  0  0  0  0  0  0  0  0  0  0
   69.6362   48.4057   57.2118 N   0  0  0  0  0  0  0  0  0  0  0  0
   69.0248   47.2625   56.8329 C   0  0  0  0  0  0  0  0  0  0  0  0
   69.4110   46.0638   57.2979 N   0  0  0  0  0  0  0  0  0  0  0  0
   70.4228   45.9340   58.1631 C   0  0  0  0  0  0  0  0  0  0  0  0
   70.7863   44.6899   58.6141 C   0  0  0  0  0  0  0  0  0  0  0  0
   71.8501   44.6616   59.5108 C   0  0  0  0  0  0  0  0  0  0  0  0
   72.5007   45.8039   59.9238 C   0  0  0  0  0  0  0  0  0  0  0  0
   72.1040   47.0303   59.4460 C   0  0  0  0  0  0  0  0  0  0  0  0
   71.0578   47.1110   58.5583 C   0  0  0  0  0  0  0  0  0  0  0  0
   70.6547   48.3386   58.0757 C   0  0  0  0  0  0  0  0  0  0  0  0
   71.2226   49.4087   58.4269 O   0  0  0  0  0  0  0  0  0  0  0  0
   70.1401   43.4450   58.2163 C   0  0  0  0  0  0  0  0  0  0  0  0
   69.1805   43.2193   57.2718 C   0  0  0  0  0  0  0  0  0  0  0  0
   68.8576   41.8665   57.2334 C   0  0  0  0  0  0  0  0  0  0  0  0
   69.6449   41.2666   58.1799 C   0  0  0  0  0  0  0  0  0  0  0  0
   70.4064   42.2439   58.7552 N   0  0  0  0  0  0  0  0  0  0  0  0
   69.6069   39.8020   58.4406 C   0  0  0  0  0  0  0  0  0  0  0  0
   68.2823   39.2225   58.0241 C   0  0  0  0  0  0  0  0  0  0  0  0
   67.8575   39.6629   56.7187 N   0  0  0  0  0  0  0  0  0  0  0  0
   67.9186   41.0845   56.4503 C   0  0  0  0  0  0  0  0  0  0  0  0
   67.2035   41.6305   55.5885 O   0  0  0  0  0  0  0  0  0  0  0  0
   67.9476   47.3805   55.9135 N   0  0  0  0  0  0  0  0  0  0  0  0
   68.1609   47.0433   54.5576 C   0  0  0  0  0  0  0  0  0  0  0  0
   68.9294   47.8433   53.7347 C   0  0  0  0  0  0  0  0  0  0  0  0
   69.1423   47.5168   52.4017 C   0  0  0  0  0  0  0  0  0  0  0  0
   68.5812   46.3746   51.8774 C   0  0  0  0  0  0  0  0  0  0  0  0
   67.8207   45.5899   52.7062 C   0  0  0  0  0  0  0  0  0  0  0  0
   67.6007   45.8933   54.0140 C   0  0  0  0  0  0  0  0  0  0  0  0
  1  2  1  0
  2  3  1  0
  2 11  1  0
  3 23  1  0
  3  4  2  0
 23 24  1  0
 24 25  2  0
 24 29  1  0
 25 26  1  0
 26 27  2  0
 27 28  1  0
 28 29  2  0
  4  5  1  0
  5  6  1  0
  5 10  2  0
  6 13  1  0
  6  7  2  0
 13 14  2  0
 13 17  1  0
 14 15  1  0
 15 16  2  0
 15 21  1  0
 16 17  1  0
 16 18  1  0
 18 19  1  0
 19 20  1  0
 20 21  1  0
 21 22  2  0
  7  8  1  0
  8  9  2  0
  9 10  1  0
 10 11  1  0
 11 12  2  0
M  END
>  <minimizedAffinity>  (220) 
-8.98417

$$$$
data/200k_reference_output/data/smiles/32613.pdb
     RDKit          3D

 25 27  0  0  0  0  0  0  0  0999 V2000
   71.5313   51.4680   55.1144 N   0  0  0  0  0  0  0  0  0  0  0  0
   73.6170   53.0576   53.9559 C   0  0  0  0  0  0  0  0  0  0  0  0
   73.1704   51.5576   54.8178 S   0  0  0  0  0  0  0  0  0  0  0  0
   73.5809   50.3851   53.9163 O   0  0  0  0  0  0  0  0  0  0  0  0
   74.0558   51.4551   56.0138 O   0  0  0  0  0  0  0  0  0  0  0  0
   71.0573   51.9446   56.3522 C   0  0  0  0  0  0  0  0  0  0  0  0
   69.8015   51.3690   56.8660 C   0  0  0  0  0  0  0  0  0  0  0  0
   68.5738   51.9706   56.7425 C   0  0  0  0  0  0  0  0  0  0  0  0
   67.4233   51.3667   57.2628 C   0  0  0  0  0  0  0  0  0  0  0  0
   67.4765   50.1638   57.9105 C   0  0  0  0  0  0  0  0  0  0  0  0
   66.4029   49.5469   58.4253 F   0  0  0  0  0  0  0  0  0  0  0  0
   68.7155   49.5429   58.0420 C   0  0  0  0  0  0  0  0  0  0  0  0
   69.8454   50.1523   57.5218 C   0  0  0  0  0  0  0  0  0  0  0  0
   70.6270   51.4577   54.0159 C   0  0  0  0  0  0  0  0  0  0  0  0
   70.1564   50.1080   53.6083 C   0  0  0  0  0  0  0  0  0  0  0  0
   69.4068   49.3375   54.4496 N   0  0  0  0  0  0  0  0  0  0  0  0
   68.9670   48.1218   54.0874 C   0  0  0  0  0  0  0  0  0  0  0  0
   68.1993   47.3339   54.9500 C   0  0  0  0  0  0  0  0  0  0  0  0
   67.7410   46.0863   54.5956 C   0  0  0  0  0  0  0  0  0  0  0  0
   68.0388   45.5678   53.3390 C   0  0  0  0  0  0  0  0  0  0  0  0
   68.7948   46.3319   52.4763 C   0  0  0  0  0  0  0  0  0  0  0  0
   69.2459   47.5814   52.8501 C   0  0  0  0  0  0  0  0  0  0  0  0
   70.0022   48.3574   51.9999 C   0  0  0  0  0  0  0  0  0  0  0  0
   70.2916   47.9218   50.8530 O   0  0  0  0  0  0  0  0  0  0  0  0
   70.4310   49.5902   52.4039 N   0  0  0  0  0  0  0  0  0  0  0  0
  2  3  1  0
  3  4  2  0
  3  5  2  0
  3  1  1  0
  1  6  1  0
  1 14  1  0
  6  7  1  0
  7  8  2  0
  7 13  1  0
  8  9  1  0
  9 10  2  0
 10 11  1  0
 10 12  1  0
 12 13  2  0
 14 15  1  0
 15 16  2  0
 15 25  1  0
 16 17  1  0
 17 18  2  0
 17 22  1  0
 18 19  1  0
 19 20  2  0
 20 21  1  0
 21 22  2  0
 22 23  1  0
 23 24  2  0
 23 25  1  0
M  END
>  <minimizedAffinity>  (221) 
-8.98340

$$$$
data/reference_output_2/data/smiles/112226.pdb
     RDKit          3D

 26 28  0  0  0  0  0  0  0  0999 V2000
   70.4089   43.9849   58.5150 O   0  0  0  0  0  0  0  0  0  0  0  0
   69.5585   43.8491   57.5790 C   0  0  0  0  0  0  0  0  0  0  0  0
   69.1791   45.0125   56.8893 N   0  0  0  0  0  0  0  0  0  0  0  0
   69.0347   42.5219   57.2783 C   0  0  0  0  0  0  0  0  0  0  0  0
   68.1019   42.2787   56.2990 C   0  0  0  0  0  0  0  0  0  0  0  0
   67.6094   41.0012   56.0215 C   0  0  0  0  0  0  0  0  0  0  0  0
   66.6835   40.8137   55.0384 F   0  0  0  0  0  0  0  0  0  0  0  0
   68.0897   39.9613   56.7698 C   0  0  0  0  0  0  0  0  0  0  0  0
   69.0400   40.1541   57.7785 C   0  0  0  0  0  0  0  0  0  0  0  0
   69.4915   41.4255   58.0109 C   0  0  0  0  0  0  0  0  0  0  0  0
   69.5200   38.9877   58.5507 C   0  0  0  0  0  0  0  0  0  0  0  0
   70.7433   38.4303   58.3503 C   0  0  0  0  0  0  0  0  0  0  0  0
   71.1534   37.3488   59.0863 C   0  0  0  0  0  0  0  0  0  0  0  0
   70.2982   36.8381   60.0387 C   0  0  0  0  0  0  0  0  0  0  0  0
   69.0687   37.3959   60.2435 C   0  0  0  0  0  0  0  0  0  0  0  0
   68.7134   38.4493   59.4997 N   0  0  0  0  0  0  0  0  0  0  0  0
   69.7026   46.2650   57.2072 N   0  0  0  0  0  0  0  0  0  0  0  0
   68.8084   47.5371   56.4422 S   0  0  0  0  0  0  0  0  0  0  0  0
   69.5829   48.8097   56.6487 O   0  0  0  0  0  0  0  0  0  0  0  0
   67.4368   47.6707   57.0305 O   0  0  0  0  0  0  0  0  0  0  0  0
   68.7119   47.2164   54.7258 C   0  0  0  0  0  0  0  0  0  0  0  0
   67.9976   46.1527   54.2202 C   0  0  0  0  0  0  0  0  0  0  0  0
   67.9355   45.9215   52.8652 C   0  0  0  0  0  0  0  0  0  0  0  0
   68.6053   46.7803   52.0284 C   0  0  0  0  0  0  0  0  0  0  0  0
   69.3262   47.8506   52.5159 C   0  0  0  0  0  0  0  0  0  0  0  0
   69.3730   48.0617   53.8631 C   0  0  0  0  0  0  0  0  0  0  0  0
  1  2  2  0
  2  3  1  0
  2  4  1  0
  3 17  1  0
 17 18  1  0
 18 19  2  0
 18 20  2  0
 18 21  1  0
 21 22  2  0
 21 26  1  0
 22 23  1  0
 23 24  2  0
 24 25  1  0
 25 26  2  0
  4  5  2  0
  4 10  1  0
  5  6  1  0
  6  7  1  0
  6  8  2  0
  8  9  1  0
  9 11  1  0
  9 10  2  0
 11 12  2  0
 11 16  1  0
 12 13  1  0
 13 14  2  0
 14 15  1  0
 15 16  2  0
M  END
>  <minimizedAffinity>  (222) 
-8.98267

$$$$
data/reference_output_2/data/smiles/120249.pdb
     RDKit          3D

 28 31  0  0  0  0  0  0  0  0999 V2000
   71.0928   42.8697   58.1188 C   0  0  0  0  0  0  0  0  0  0  0  0
   72.1493   43.4471   58.8002 C   0  0  0  0  0  0  0  0  0  0  0  0
   72.3032   44.8181   58.8629 C   0  0  0  0  0  0  0  0  0  0  0  0
   71.4081   45.6631   58.2500 C   0  0  0  0  0  0  0  0  0  0  0  0
   70.3373   45.1180   57.5580 C   0  0  0  0  0  0  0  0  0  0  0  0
   69.3002   45.7064   56.8786 C   0  0  0  0  0  0  0  0  0  0  0  0
   68.5557   44.6526   56.4320 N   0  0  0  0  0  0  0  0  0  0  0  0
   69.1027   43.5105   56.8128 N   0  0  0  0  0  0  0  0  0  0  0  0
   70.2114   43.7421   57.5139 C   0  0  0  0  0  0  0  0  0  0  0  0
   70.0042   40.8118   58.9108 C   0  0  0  0  0  0  0  0  0  0  0  0
   69.3488   41.5479   59.6912 O   0  0  0  0  0  0  0  0  0  0  0  0
   70.9397   41.4563   58.0572 N   0  0  0  0  0  0  0  0  0  0  0  0
   69.8291   39.3242   58.8603 C   0  0  0  0  0  0  0  0  0  0  0  0
   68.0385   39.3605   57.1851 N   0  0  0  0  0  0  0  0  0  0  0  0
   68.4226   38.9530   58.5159 C   0  0  0  0  0  0  0  0  0  0  0  0
   68.9169   47.3632   56.5265 S   0  0  0  0  0  0  0  0  0  0  0  0
   67.4559   47.6005   56.8353 O   0  0  0  0  0  0  0  0  0  0  0  0
   69.6693   48.2855   57.4604 O   0  0  0  0  0  0  0  0  0  0  0  0
   69.2556   47.8745   54.9082 C   0  0  0  0  0  0  0  0  0  0  0  0
   70.0469   49.0118   54.7065 C   0  0  0  0  0  0  0  0  0  0  0  0
   70.3345   49.4900   53.4449 C   0  0  0  0  0  0  0  0  0  0  0  0
   69.8465   48.8561   52.3306 C   0  0  0  0  0  0  0  0  0  0  0  0
   69.0656   47.7336   52.5000 C   0  0  0  0  0  0  0  0  0  0  0  0
   68.5905   47.1065   51.3698 C   0  0  0  0  0  0  0  0  0  0  0  0
   67.7992   45.9580   51.4727 C   0  0  0  0  0  0  0  0  0  0  0  0
   67.5264   45.4972   52.7462 C   0  0  0  0  0  0  0  0  0  0  0  0
   68.0038   46.1308   53.8642 C   0  0  0  0  0  0  0  0  0  0  0  0
   68.7847   47.2651   53.7835 C   0  0  0  0  0  0  0  0  0  0  0  0
 14 15  1  0
 15 13  1  0
 13 10  1  0
 10 11  2  0
 10 12  1  0
 12  1  1  0
  1  2  2  0
  1  9  1  0
  2  3  1  0
  3  4  2  0
  4  5  1  0
  5  6  1  0
  5  9  2  0
  6 16  1  0
  6  7  2  0
 16 17  2  0
 16 18  2  0
 16 19  1  0
 19 20  2  0
 19 28  1  0
 20 21  1  0
 21 22  2  0
 22 23  1  0
 23 24  1  0
 23 28  2  0
 24 25  2  0
 25 26  1  0
 26 27  2  0
 27 28  1  0
  7  8  1  0
  8  9  1  0
M  CHG  1  14   1
M  END
>  <minimizedAffinity>  (223) 
-8.98254

$$$$
data/200k_reference_output/data/smiles/34217.pdb
     RDKit          3D

 29 32  0  0  0  0  0  0  0  0999 V2000
   67.9123   45.3618   54.2648 C   0  0  0  0  0  0  0  0  0  0  0  0
   68.0698   45.4308   52.8996 C   0  0  0  0  0  0  0  0  0  0  0  0
   68.6445   46.5182   52.2660 C   0  0  0  0  0  0  0  0  0  0  0  0
   69.0986   47.6080   53.0011 C   0  0  0  0  0  0  0  0  0  0  0  0
   68.9435   47.5426   54.3664 C   0  0  0  0  0  0  0  0  0  0  0  0
   68.3677   46.4527   54.9957 C   0  0  0  0  0  0  0  0  0  0  0  0
   69.4989   48.8025   54.8770 C   0  0  0  0  0  0  0  0  0  0  0  0
   69.5365   49.1140   56.1085 O   0  0  0  0  0  0  0  0  0  0  0  0
   69.9750   49.5968   53.7991 N   0  0  0  0  0  0  0  0  0  0  0  0
   69.7316   48.8608   52.6083 C   0  0  0  0  0  0  0  0  0  0  0  0
   70.0079   49.2154   51.4105 O   0  0  0  0  0  0  0  0  0  0  0  0
   70.6034   50.9261   53.8521 C   0  0  1  0  0  0  0  0  0  0  0  0
   69.6550   51.9937   54.2731 C   0  0  0  0  0  0  0  0  0  0  0  0
   69.6737   52.3867   55.6970 C   0  0  0  0  0  0  0  0  0  0  0  0
   70.9368   52.1669   56.4059 C   0  0  0  0  0  0  0  0  0  0  0  0
   71.0958   52.7151   57.5265 O   0  0  0  0  0  0  0  0  0  0  0  0
   72.0018   51.3711   55.9108 N   0  0  0  0  0  0  0  0  0  0  0  0
   71.8754   50.8891   54.5847 C   0  0  0  0  0  0  0  0  0  0  0  0
   72.9223   50.4122   54.0401 O   0  0  0  0  0  0  0  0  0  0  0  0
   67.2992   44.2479   54.9376 N   0  0  0  0  0  0  0  0  0  0  0  0
   69.2616   41.6942   57.6562 C   0  0  0  0  0  0  0  0  0  0  0  0
   69.7211   42.9722   57.4400 C   0  0  0  0  0  0  0  0  0  0  0  0
   69.0697   43.8050   56.5364 C   0  0  0  0  0  0  0  0  0  0  0  0
   67.9690   43.4071   55.8354 C   0  0  0  0  0  0  0  0  0  0  0  0
   67.5157   42.1297   56.0562 C   0  0  0  0  0  0  0  0  0  0  0  0
   68.1515   41.2778   56.9555 C   0  0  0  0  0  0  0  0  0  0  0  0
   71.4350   40.7835   58.4491 C   0  0  0  0  0  0  0  0  0  0  0  0
   69.9330   40.7703   58.6175 C   0  0  0  0  0  0  0  0  0  0  0  0
   69.4408   39.3742   58.3952 C   0  0  0  0  0  0  0  0  0  0  0  0
 27 28  1  0
 28 29  1  0
 28 21  1  0
 21 22  2  0
 21 26  1  0
 22 23  1  0
 23 24  2  0
 24 20  1  0
 24 25  1  0
 20  1  1  0
  1  2  2  0
  1  6  1  0
  2  3  1  0
  3  4  2  0
  4  5  1  0
  4 10  1  0
  5  6  2  0
  5  7  1  0
  7  8  2  0
  7  9  1  0
 12  9  1  1
  9 10  1  0
 12 13  1  0
 12 18  1  0
 13 14  1  0
 14 15  1  0
 15 16  2  0
 15 17  1  0
 17 18  1  0
 18 19  2  0
 10 11  2  0
 25 26  2  0
M  END
>  <minimizedAffinity>  (224) 
-8.98178

$$$$
data/reference_output_2/data/smiles/134259.pdb
     RDKit          3D

 27 29  0  0  0  0  0  0  0  0999 V2000
   72.0352   44.4473   59.4769 C   0  0  0  0  0  0  0  0  0  0  0  0
   73.4980   45.2869   59.5229 S   0  0  0  0  0  0  0  0  0  0  0  0
   70.9820   42.6445   57.4436 O   0  0  0  0  0  0  0  0  0  0  0  0
   71.6576   42.2093   58.3701 C   0  0  0  0  0  0  0  0  0  0  0  0
   72.1675   43.0767   59.3594 N   0  0  0  0  0  0  0  0  0  0  0  0
   71.9677   40.7577   58.4942 C   0  0  0  0  0  0  0  0  0  0  0  0
   71.0016   39.8668   58.5624 C   0  0  0  0  0  0  0  0  0  0  0  0
   71.1696   38.4312   58.6838 C   0  0  0  0  0  0  0  0  0  0  0  0
   72.0372   37.7448   57.8669 C   0  0  0  0  0  0  0  0  0  0  0  0
   72.1902   36.3572   57.9945 C   0  0  0  0  0  0  0  0  0  0  0  0
   71.4816   35.6434   58.9354 C   0  0  0  0  0  0  0  0  0  0  0  0
   71.6244   34.2968   59.0655 F   0  0  0  0  0  0  0  0  0  0  0  0
   70.6206   36.3243   59.7471 C   0  0  0  0  0  0  0  0  0  0  0  0
   70.4738   37.6855   59.6170 C   0  0  0  0  0  0  0  0  0  0  0  0
   70.9148   45.2691   59.5349 N   0  0  0  0  0  0  0  0  0  0  0  0
   69.9482   45.5654   58.5909 N   0  0  0  0  0  0  0  0  0  0  0  0
   69.9878   46.7683   57.8152 C   0  0  0  0  0  0  0  0  0  0  0  0
   70.9496   47.5494   58.0355 O   0  0  0  0  0  0  0  0  0  0  0  0
   68.9424   47.0532   56.8184 C   0  0  1  0  0  0  0  0  0  0  0  0
   68.4429   48.4252   56.5889 C   0  0  0  0  0  0  0  0  0  0  0  0
   69.4149   47.8971   55.6002 C   0  0  2  0  0  0  0  0  0  0  0  0
   68.9884   47.3567   54.3103 C   0  0  0  0  0  0  0  0  0  0  0  0
   69.4852   47.8955   53.1460 C   0  0  0  0  0  0  0  0  0  0  0  0
   69.1174   47.4262   51.9011 C   0  0  0  0  0  0  0  0  0  0  0  0
   68.2085   46.3651   51.8533 C   0  0  0  0  0  0  0  0  0  0  0  0
   67.6892   45.8012   52.9952 C   0  0  0  0  0  0  0  0  0  0  0  0
   68.0959   46.3146   54.2103 C   0  0  0  0  0  0  0  0  0  0  0  0
  3  4  2  0
  4  6  1  0
  4  5  1  0
  6  7  2  0
  7  8  1  0
  8  9  2  0
  8 14  1  0
  9 10  1  0
 10 11  2  0
 11 12  1  0
 11 13  1  0
 13 14  2  0
  5  1  1  0
  1  2  2  0
  1 15  1  0
 15 16  1  0
 16 17  1  0
 17 18  2  0
 19 17  1  1
 19 20  1  0
 19 21  1  0
 20 21  1  0
 21 22  1  6
 22 23  2  0
 22 27  1  0
 23 24  1  0
 24 25  2  0
 25 26  1  0
 26 27  2  0
M  END
>  <minimizedAffinity>  (225) 
-8.97741

$$$$
data/reference_output_2/data/smiles/176676.pdb
     RDKit          3D

 26 28  0  0  0  0  0  0  0  0999 V2000
   70.9179   43.8269   57.8388 O   0  0  0  0  0  0  0  0  0  0  0  0
   69.7583   43.7429   57.3138 C   0  0  0  0  0  0  0  0  0  0  0  0
   69.2018   44.9814   56.9196 N   0  0  0  0  0  0  0  0  0  0  0  0
   69.1290   42.4423   57.1683 C   0  0  0  0  0  0  0  0  0  0  0  0
   69.7263   41.3748   57.8079 C   0  0  0  0  0  0  0  0  0  0  0  0
   69.2225   40.0917   57.7442 C   0  0  0  0  0  0  0  0  0  0  0  0
   68.0762   39.8604   57.0129 C   0  0  0  0  0  0  0  0  0  0  0  0
   67.4546   40.9050   56.3607 C   0  0  0  0  0  0  0  0  0  0  0  0
   67.9978   42.1887   56.4517 C   0  0  0  0  0  0  0  0  0  0  0  0
   67.3548   43.1753   55.7976 F   0  0  0  0  0  0  0  0  0  0  0  0
   69.9197   39.0255   58.4524 C   0  0  0  0  0  0  0  0  0  0  0  0
   69.3335   38.3163   59.4623 C   0  0  0  0  0  0  0  0  0  0  0  0
   70.0510   37.3020   60.1073 C   0  0  0  0  0  0  0  0  0  0  0  0
   71.3455   37.0073   59.7376 C   0  0  0  0  0  0  0  0  0  0  0  0
   71.8975   37.7469   58.7160 C   0  0  0  0  0  0  0  0  0  0  0  0
   71.1911   38.7210   58.1048 N   0  0  0  0  0  0  0  0  0  0  0  0
   69.9283   46.1945   57.1201 N   0  0  0  0  0  0  0  0  0  0  0  0
   68.9941   47.4370   56.3639 S   0  0  0  0  0  0  0  0  0  0  0  0
   67.6701   47.4884   57.0744 O   0  0  0  0  0  0  0  0  0  0  0  0
   69.6436   48.7754   56.5328 O   0  0  0  0  0  0  0  0  0  0  0  0
   68.7712   47.1086   54.6611 C   0  0  0  0  0  0  0  0  0  0  0  0
   68.0179   46.0545   54.1887 C   0  0  0  0  0  0  0  0  0  0  0  0
   67.8537   45.8110   52.8352 C   0  0  0  0  0  0  0  0  0  0  0  0
   68.4675   46.6570   51.9194 C   0  0  0  0  0  0  0  0  0  0  0  0
   69.2194   47.7101   52.3869 C   0  0  0  0  0  0  0  0  0  0  0  0
   69.3689   47.9315   53.7402 C   0  0  0  0  0  0  0  0  0  0  0  0
  1  2  2  0
  2  3  1  0
  2  4  1  0
  3 17  1  0
 17 18  1  0
 18 19  2  0
 18 20  2  0
 18 21  1  0
 21 22  2  0
 21 26  1  0
 22 23  1  0
 23 24  2  0
 24 25  1  0
 25 26  2  0
  4  5  2  0
  4  9  1  0
  5  6  1  0
  6 11  1  0
  6  7  2  0
 11 12  2  0
 11 16  1  0
 12 13  1  0
 13 14  2  0
 14 15  1  0
 15 16  2  0
  7  8  1  0
  8  9  2  0
  9 10  1  0
M  END
>  <minimizedAffinity>  (226) 
-8.97693

$$$$
data/200k_reference_output/data/smiles/29126.pdb
     RDKit          3D

 28 30  0  0  0  0  0  0  0  0999 V2000
   66.5324   41.8709   57.0456 O   0  0  0  0  0  0  0  0  0  0  0  0
   67.4557   41.2795   57.6751 C   0  0  0  0  0  0  0  0  0  0  0  0
   67.2562   40.0743   58.3728 N   0  0  0  0  0  0  0  0  0  0  0  0
   68.3001   39.4187   59.0770 C   0  0  0  0  0  0  0  0  0  0  0  0
   68.0660   38.3573   59.6767 O   0  0  0  0  0  0  0  0  0  0  0  0
   69.6472   39.9358   59.1315 N   0  0  0  0  0  0  0  0  0  0  0  0
   69.8531   41.1554   58.4262 C   0  0  0  0  0  0  0  0  0  0  0  0
   70.9894   41.6748   58.4199 O   0  0  0  0  0  0  0  0  0  0  0  0
   68.7931   41.8542   57.6910 C   0  0  0  0  0  0  0  0  0  0  0  0
   68.9867   42.9758   57.0422 C   0  0  0  0  0  0  0  0  0  0  0  0
   70.6941   39.2495   59.8550 C   0  0  0  0  0  0  0  0  0  0  0  0
   71.1667   38.0139   59.1979 C   0  0  0  0  0  0  0  0  0  0  0  0
   71.8336   38.0537   57.9917 C   0  0  0  0  0  0  0  0  0  0  0  0
   72.2627   36.8645   57.4070 C   0  0  0  0  0  0  0  0  0  0  0  0
   72.0250   35.6545   58.0237 C   0  0  0  0  0  0  0  0  0  0  0  0
   72.4539   34.5136   57.4300 F   0  0  0  0  0  0  0  0  0  0  0  0
   71.3608   35.5892   59.2296 C   0  0  0  0  0  0  0  0  0  0  0  0
   70.9442   36.7754   59.7929 C   0  0  0  0  0  0  0  0  0  0  0  0
   67.9175   43.6082   56.3462 N   0  0  0  0  0  0  0  0  0  0  0  0
   68.2008   44.3711   55.1784 N   0  0  0  0  0  0  0  0  0  0  0  0
   68.3957   45.7773   55.2617 C   0  0  0  0  0  0  0  0  0  0  0  0
   68.2977   46.2701   56.4266 O   0  0  0  0  0  0  0  0  0  0  0  0
   68.6875   46.6058   54.0989 C   0  0  0  0  0  0  0  0  0  0  0  0
   68.4794   46.2087   52.7997 C   0  0  0  0  0  0  0  0  0  0  0  0
   68.7738   47.0358   51.7216 C   0  0  0  0  0  0  0  0  0  0  0  0
   69.2873   48.2846   51.9420 C   0  0  0  0  0  0  0  0  0  0  0  0
   69.5045   48.7064   53.2198 C   0  0  0  0  0  0  0  0  0  0  0  0
   69.2042   47.8667   54.2943 C   0  0  0  0  0  0  0  0  0  0  0  0
  1  2  2  0
  2  3  1  0
  2  9  1  0
  3  4  1  0
  4  5  2  0
  4  6  1  0
  6 11  1  0
  6  7  1  0
 11 12  1  0
 12 13  2  0
 12 18  1  0
 13 14  1  0
 14 15  2  0
 15 16  1  0
 15 17  1  0
 17 18  2  0
  7  8  2  0
  7  9  1  0
  9 10  2  0
 10 19  1  0
 19 20  1  0
 20 21  1  0
 21 22  2  0
 21 23  1  0
 23 24  2  0
 23 28  1  0
 24 25  1  0
 25 26  2  0
 26 27  1  0
 27 28  2  0
M  END
>  <minimizedAffinity>  (227) 
-8.97470

$$$$
data/reference_output_2/data/smiles/151476.pdb
     RDKit          3D

 27 29  0  0  0  0  0  0  0  0999 V2000
   69.7810   44.3422   58.9115 O   0  0  0  0  0  0  0  0  0  0  0  0
   69.4508   44.0719   57.7308 C   0  0  0  0  0  0  0  0  0  0  0  0
   69.5370   45.1251   56.7864 N   0  0  0  0  0  0  0  0  0  0  0  0
   69.0062   42.7186   57.4091 C   0  0  0  0  0  0  0  0  0  0  0  0
   68.0477   42.5200   56.4207 C   0  0  0  0  0  0  0  0  0  0  0  0
   67.6080   41.2327   56.0985 C   0  0  0  0  0  0  0  0  0  0  0  0
   66.6814   41.0556   55.1411 F   0  0  0  0  0  0  0  0  0  0  0  0
   68.1264   40.1412   56.7633 C   0  0  0  0  0  0  0  0  0  0  0  0
   69.0766   40.3037   57.7468 C   0  0  0  0  0  0  0  0  0  0  0  0
   69.4849   41.5902   58.0380 C   0  0  0  0  0  0  0  0  0  0  0  0
   69.6133   39.1361   58.4404 C   0  0  0  0  0  0  0  0  0  0  0  0
   70.8097   38.6426   58.0852 N   0  0  0  0  0  0  0  0  0  0  0  0
   71.3657   37.5719   58.6782 C   0  0  0  0  0  0  0  0  0  0  0  0
   70.6849   36.9451   59.6981 C   0  0  0  0  0  0  0  0  0  0  0  0
   69.4587   37.4385   60.0738 C   0  0  0  0  0  0  0  0  0  0  0  0
   68.9500   38.5298   59.4306 N   0  0  0  0  0  0  0  0  0  0  0  0
   69.9729   46.4236   57.1444 N   0  0  0  0  0  0  0  0  0  0  0  0
   68.9621   47.5731   56.3872 S   0  0  0  0  0  0  0  0  0  0  0  0
   67.5364   47.3203   56.8451 O   0  0  0  0  0  0  0  0  0  0  0  0
   69.3424   48.9696   56.7622 O   0  0  0  0  0  0  0  0  0  0  0  0
   68.9498   47.3848   54.6417 C   0  0  0  0  0  0  0  0  0  0  0  0
   69.5542   48.3122   53.8200 C   0  0  0  0  0  0  0  0  0  0  0  0
   69.5494   48.1719   52.4459 C   0  0  0  0  0  0  0  0  0  0  0  0
   68.9329   47.0883   51.8467 C   0  0  0  0  0  0  0  0  0  0  0  0
   68.3259   46.1559   52.6665 C   0  0  0  0  0  0  0  0  0  0  0  0
   68.3332   46.3012   54.0559 C   0  0  0  0  0  0  0  0  0  0  0  0
   67.7183   45.3478   54.7950 F   0  0  0  0  0  0  0  0  0  0  0  0
  1  2  2  0
  2  3  1  0
  2  4  1  0
  3 17  1  0
 17 18  1  0
 18 19  2  0
 18 20  2  0
 18 21  1  0
 21 22  2  0
 21 26  1  0
 22 23  1  0
 23 24  2  0
 24 25  1  0
 25 26  2  0
 26 27  1  0
  4  5  2  0
  4 10  1  0
  5  6  1  0
  6  7  1  0
  6  8  2  0
  8  9  1  0
  9 11  1  0
  9 10  2  0
 11 12  2  0
 11 16  1  0
 12 13  1  0
 13 14  2  0
 14 15  1  0
 15 16  2  0
M  END
>  <minimizedAffinity>  (228) 
-8.97240

$$$$
data/reference_output_2/data/smiles/98469.pdb
     RDKit          3D

 26 28  0  0  0  0  0  0  0  0999 V2000
   69.7197   43.8327   57.6902 O   0  0  0  0  0  0  0  0  0  0  0  0
   69.9095   42.6079   57.9208 C   0  0  0  0  0  0  0  0  0  0  0  0
   71.0727   42.1877   58.6276 N   0  0  0  0  0  0  0  0  0  0  0  0
   71.2994   40.7931   58.8962 C   0  0  0  0  0  0  0  0  0  0  0  0
   72.6472   40.3285   59.7133 S   0  0  0  0  0  0  0  0  0  0  0  0
   70.3917   39.7851   58.4773 N   0  0  0  0  0  0  0  0  0  0  0  0
   69.2221   40.1885   57.7686 C   0  0  0  0  0  0  0  0  0  0  0  0
   68.4133   39.3061   57.3943 O   0  0  0  0  0  0  0  0  0  0  0  0
   68.9515   41.5961   57.4733 C   0  0  0  0  0  0  0  0  0  0  0  0
   67.8876   42.0065   56.8244 C   0  0  0  0  0  0  0  0  0  0  0  0
   70.6755   38.4191   58.7757 C   0  0  0  0  0  0  0  0  0  0  0  0
   70.0920   37.7458   59.8186 C   0  0  0  0  0  0  0  0  0  0  0  0
   70.3877   36.4194   60.0836 C   0  0  0  0  0  0  0  0  0  0  0  0
   71.2883   35.7646   59.2797 C   0  0  0  0  0  0  0  0  0  0  0  0
   71.8881   36.4316   58.2200 C   0  0  0  0  0  0  0  0  0  0  0  0
   71.5823   37.7548   57.9695 C   0  0  0  0  0  0  0  0  0  0  0  0
   67.6769   43.3803   56.5671 N   0  0  0  0  0  0  0  0  0  0  0  0
   67.8165   43.9771   55.2959 N   0  0  0  0  0  0  0  0  0  0  0  0
   68.1437   45.3503   55.1618 C   0  0  0  0  0  0  0  0  0  0  0  0
   68.3058   46.0203   56.2146 O   0  0  0  0  0  0  0  0  0  0  0  0
   68.3022   46.0220   53.8512 C   0  0  0  0  0  0  0  0  0  0  0  0
   69.0774   47.1331   53.6710 C   0  0  0  0  0  0  0  0  0  0  0  0
   69.2034   47.7310   52.4428 C   0  0  0  0  0  0  0  0  0  0  0  0
   68.5275   47.1928   51.3663 C   0  0  0  0  0  0  0  0  0  0  0  0
   67.7355   46.0740   51.5053 C   0  0  0  0  0  0  0  0  0  0  0  0
   67.6289   45.4967   52.7465 C   0  0  0  0  0  0  0  0  0  0  0  0
  1  2  2  0
  2  3  1  0
  2  9  1  0
  3  4  1  0
  4  5  2  0
  4  6  1  0
  6 11  1  0
  6  7  1  0
 11 12  2  0
 11 16  1  0
 12 13  1  0
 13 14  2  0
 14 15  1  0
 15 16  2  0
  7  8  2  0
  7  9  1  0
  9 10  2  0
 10 17  1  0
 17 18  1  0
 18 19  1  0
 19 20  2  0
 19 21  1  0
 21 22  2  0
 21 26  1  0
 22 23  1  0
 23 24  2  0
 24 25  1  0
 25 26  2  0
M  END
>  <minimizedAffinity>  (229) 
-8.97149

$$$$
data/reference_output_2/data/smiles/169839.pdb
     RDKit          3D

 27 29  0  0  0  0  0  0  0  0999 V2000
   71.2181   47.8932   58.1210 N   0  0  0  0  0  0  0  0  0  0  0  0
   69.9929   47.2594   57.7728 C   0  0  0  0  0  0  0  0  0  0  0  0
   69.7236   46.1004   58.2575 O   0  0  0  0  0  0  0  0  0  0  0  0
   69.0896   47.9650   56.8719 C   0  0  1  0  0  0  0  0  0  0  0  0
   69.7752   49.0103   56.1935 N   0  0  0  0  0  0  0  0  0  0  0  0
   70.3595   50.0259   57.0195 C   0  0  0  0  0  0  0  0  0  0  0  0
   69.3996   50.7030   57.9213 C   0  0  0  0  0  0  0  0  0  0  0  0
   68.1823   51.2700   57.3419 C   0  0  0  0  0  0  0  0  0  0  0  0
   68.1455   51.5640   55.8941 C   0  0  0  0  0  0  0  0  0  0  0  0
   69.0389   52.6318   55.3995 C   0  0  0  0  0  0  0  0  0  0  0  0
   70.0291   53.1679   56.3769 C   0  0  0  0  0  0  0  0  0  0  0  0
   71.2433   52.3478   56.5835 C   0  0  0  0  0  0  0  0  0  0  0  0
   71.1714   50.9329   56.1469 C   0  0  0  0  0  0  0  0  0  0  0  0
   71.3358   49.2847   57.9099 C   0  0  0  0  0  0  0  0  0  0  0  0
   72.2523   49.9511   58.4511 O   0  0  0  0  0  0  0  0  0  0  0  0
   72.3016   47.1048   58.6801 C   0  0  0  0  0  0  0  0  0  0  0  0
   71.6375   46.1178   60.6922 O   0  0  0  0  0  0  0  0  0  0  0  0
   72.2578   47.0731   60.1601 C   0  0  0  0  0  0  0  0  0  0  0  0
   72.8889   48.0807   60.9384 N   0  0  0  0  0  0  0  0  0  0  0  0
   72.8451   48.0478   62.3021 O   0  0  0  0  0  0  0  0  0  0  0  0
   68.3201   47.1075   55.9075 C   0  0  0  0  0  0  0  0  0  0  0  0
   68.6612   47.2681   54.5009 C   0  0  0  0  0  0  0  0  0  0  0  0
   68.2135   46.2960   53.6142 C   0  0  0  0  0  0  0  0  0  0  0  0
   68.4937   46.3669   52.2822 C   0  0  0  0  0  0  0  0  0  0  0  0
   69.2259   47.3984   51.7723 C   0  0  0  0  0  0  0  0  0  0  0  0
   69.6862   48.3798   52.6242 C   0  0  0  0  0  0  0  0  0  0  0  0
   69.3940   48.2938   53.9664 C   0  0  0  0  0  0  0  0  0  0  0  0
 17 18  2  0
 18 16  1  0
 18 19  1  0
 16  1  1  0
  1  2  1  0
  1 14  1  0
  2  3  2  0
  2  4  1  0
  4 21  1  6
  4  5  1  0
 21 22  1  0
 22 23  2  0
 22 27  1  0
 23 24  1  0
 24 25  2  0
 25 26  1  0
 26 27  2  0
  5  6  1  0
  6  7  1  0
  6 13  1  0
  6 14  1  0
  7  8  1  0
  8  9  1  0
  9 10  1  0
 10 11  1  0
 11 12  1  0
 12 13  1  0
 14 15  2  0
 19 20  1  0
M  CHG  1   5   1
M  END
>  <minimizedAffinity>  (230) 
-8.97000

$$$$
data/reference_output_2/data/smiles/102121.pdb
     RDKit          3D

 26 28  0  0  0  0  0  0  0  0999 V2000
   69.6950   45.9843   57.8056 N   0  0  0  0  0  0  0  0  0  0  0  0
   70.8080   45.6233   58.2769 C   0  0  0  0  0  0  0  0  0  0  0  0
   71.3582   44.2607   58.1834 C   0  0  0  0  0  0  0  0  0  0  0  0
   72.5170   43.7865   57.7572 C   0  0  0  0  0  0  0  0  0  0  0  0
   72.7674   42.4702   57.7775 C   0  0  0  0  0  0  0  0  0  0  0  0
   71.7846   41.6591   58.2510 C   0  0  0  0  0  0  0  0  0  0  0  0
   70.4953   42.7823   58.6701 S   0  0  0  0  0  0  0  0  0  0  0  0
   71.7705   40.1956   58.3907 C   0  0  0  0  0  0  0  0  0  0  0  0
   71.7489   38.9972   58.4872 C   0  0  0  0  0  0  0  0  0  0  0  0
   71.7403   37.5528   58.5877 C   0  0  0  0  0  0  0  0  0  0  0  0
   72.4466   36.7491   57.7150 C   0  0  0  0  0  0  0  0  0  0  0  0
   72.4557   35.3732   57.7876 C   0  0  0  0  0  0  0  0  0  0  0  0
   71.7252   34.7714   58.7805 C   0  0  0  0  0  0  0  0  0  0  0  0
   71.0002   35.5493   59.6795 C   0  0  0  0  0  0  0  0  0  0  0  0
   71.0137   36.9248   59.5772 C   0  0  0  0  0  0  0  0  0  0  0  0
   69.1438   47.2670   57.8772 N   0  0  0  0  0  0  0  0  0  0  0  0
   69.4982   48.1775   56.8098 C   0  0  0  0  0  0  0  0  0  0  0  0
   69.0856   48.2412   53.0409 C   0  0  1  0  0  0  0  0  0  0  0  0
   68.6720   46.8049   53.0770 C   0  0  0  0  0  0  0  0  0  0  0  0
   67.5616   46.6238   54.0013 N   0  0  0  0  0  0  0  0  0  0  0  0
   67.9833   46.8432   55.3712 C   0  0  0  0  0  0  0  0  0  0  0  0
   69.3005   47.5716   55.4442 C   0  0  1  0  0  0  0  0  0  0  0  0
   69.3593   48.7182   54.4469 C   0  0  0  0  0  0  0  0  0  0  0  0
   71.3078   49.0018   52.7525 O   0  0  0  0  0  0  0  0  0  0  0  0
   70.3271   48.4040   52.2436 C   0  0  0  0  0  0  0  0  0  0  0  0
   70.4630   47.9268   50.9510 O   0  0  0  0  0  0  0  0  0  0  0  0
 24 25  2  0
 25 26  1  0
 18 25  1  6
 18 19  1  0
 18 23  1  0
 19 20  1  0
 20 21  1  0
 21 22  1  0
 22 17  1  1
 22 23  1  0
 17 16  1  0
 16  1  1  0
  1  2  2  0
  2  3  1  0
  3  4  2  0
  3  7  1  0
  4  5  1  0
  5  6  2  0
  6  8  1  0
  6  7  1  0
  8  9  3  0
  9 10  1  0
 10 11  2  0
 10 15  1  0
 11 12  1  0
 12 13  2  0
 13 14  1  0
 14 15  2  0
M  CHG  1  20   1
M  END
>  <minimizedAffinity>  (231) 
-8.96512

$$$$
data/reference_output_2/data/smiles/130820.pdb
     RDKit          3D

 29 32  0  0  0  0  0  0  0  0999 V2000
   71.5708   47.1495   59.0329 C   0  0  0  0  0  0  0  0  0  0  0  0
   70.5994   47.7468   58.2684 C   0  0  0  0  0  0  0  0  0  0  0  0
   69.7781   47.0442   57.3760 C   0  0  0  0  0  0  0  0  0  0  0  0
   69.9358   45.6854   57.2428 C   0  0  0  0  0  0  0  0  0  0  0  0
   70.9228   45.0824   58.0203 C   0  0  0  0  0  0  0  0  0  0  0  0
   71.7242   45.7807   58.8945 C   0  0  0  0  0  0  0  0  0  0  0  0
   72.6850   45.1751   59.6477 F   0  0  0  0  0  0  0  0  0  0  0  0
   76.5654   47.0241   59.5564 C   0  0  0  0  0  0  0  0  0  0  0  0
   76.3822   48.4354   59.6890 N   0  0  1  0  0  0  0  0  0  0  0  0
   76.0139   49.0306   58.4486 C   0  0  0  0  0  0  0  0  0  0  0  0
   74.9818   48.2799   57.6707 C   0  0  0  0  0  0  0  0  0  0  0  0
   73.6138   48.7624   58.0817 C   0  0  0  0  0  0  0  0  0  0  0  0
   73.4788   48.7206   59.5164 N   0  0  0  0  0  0  0  0  0  0  0  0
   72.4224   47.8825   59.9559 C   0  0  0  0  0  0  0  0  0  0  0  0
   72.2018   47.7599   61.1822 O   0  0  0  0  0  0  0  0  0  0  0  0
   74.2697   49.4125   60.4849 C   0  0  0  0  0  0  0  0  0  0  0  0
   75.5769   48.7763   60.8177 C   0  0  0  0  0  0  0  0  0  0  0  0
   68.7799   47.8138   56.5906 C   0  0  0  0  0  0  0  0  0  0  0  0
   69.2919   48.1123   55.2345 C   0  0  0  0  0  0  0  0  0  0  0  0
   70.2231   49.0805   55.0311 N   0  0  0  0  0  0  0  0  0  0  0  0
   70.7190   49.3635   53.8285 N   0  0  0  0  0  0  0  0  0  0  0  0
   70.2888   48.6676   52.7515 C   0  0  0  0  0  0  0  0  0  0  0  0
   70.7853   48.9682   51.6289 O   0  0  0  0  0  0  0  0  0  0  0  0
   69.3481   47.6696   52.8536 C   0  0  0  0  0  0  0  0  0  0  0  0
   68.9336   46.9974   51.7263 C   0  0  0  0  0  0  0  0  0  0  0  0
   67.9796   46.0114   51.8611 C   0  0  0  0  0  0  0  0  0  0  0  0
   67.4647   45.7209   53.1150 C   0  0  0  0  0  0  0  0  0  0  0  0
   67.8996   46.4108   54.2301 C   0  0  0  0  0  0  0  0  0  0  0  0
   68.8615   47.4115   54.1298 C   0  0  0  0  0  0  0  0  0  0  0  0
  9  8  1  6
  9 10  1  0
  9 17  1  0
 10 11  1  0
 11 12  1  0
 12 13  1  0
 13 14  1  0
 13 16  1  0
 14 15  2  0
 14  1  1  0
  1  2  2  0
  1  6  1  0
  2  3  1  0
  3 18  1  0
  3  4  2  0
 18 19  1  0
 19 20  2  0
 19 29  1  0
 20 21  1  0
 21 22  1  0
 22 23  2  0
 22 24  1  0
 24 25  1  0
 24 29  2  0
 25 26  2  0
 26 27  1  0
 27 28  2  0
 28 29  1  0
  4  5  1  0
  5  6  2  0
  6  7  1  0
 16 17  1  0
M  CHG  1   9   1
M  END
>  <minimizedAffinity>  (232) 
-8.96421

$$$$
data/200k_reference_output/data/smiles/41259.pdb
     RDKit          3D

 29 33  0  0  0  0  0  0  0  0999 V2000
   72.2628   49.7602   58.0170 N   0  0  0  0  0  0  0  0  0  0  0  0
   73.5729   49.8454   57.4012 C   0  0  0  0  0  0  0  0  0  0  0  0
   73.4666   50.5420   56.0549 C   0  0  0  0  0  0  0  0  0  0  0  0
   72.0982   51.0352   55.7990 N   0  0  0  0  0  0  0  0  0  0  0  0
   71.5467   50.7523   54.5539 C   0  0  0  0  0  0  0  0  0  0  0  0
   72.3039   50.0373   53.7561 O   0  0  0  0  0  0  0  0  0  0  0  0
   71.4664   51.7596   56.8652 C   0  0  0  0  0  0  0  0  0  0  0  0
   71.6269   51.0682   58.2272 C   0  0  0  0  0  0  0  0  0  0  0  0
   73.8660   49.2481   60.6324 C   0  0  0  0  0  0  0  0  0  0  0  0
   72.9884   48.0344   60.4770 C   0  0  0  0  0  0  0  0  0  0  0  0
   72.9415   46.9559   61.3266 C   0  0  0  0  0  0  0  0  0  0  0  0
   72.0352   46.1118   60.8454 N   0  0  0  0  0  0  0  0  0  0  0  0
   71.4911   46.5988   59.7142 C   0  0  0  0  0  0  0  0  0  0  0  0
   70.5393   46.1229   58.8755 N   0  0  0  0  0  0  0  0  0  0  0  0
   70.1503   46.8023   57.7993 C   0  0  0  0  0  0  0  0  0  0  0  0
   70.7069   47.9812   57.5360 N   0  0  0  0  0  0  0  0  0  0  0  0
   71.6805   48.5258   58.3449 C   0  0  0  0  0  0  0  0  0  0  0  0
   72.0765   47.8272   59.4465 C   0  0  0  0  0  0  0  0  0  0  0  0
   70.2748   51.0928   53.9413 C   0  0  2  0  0  0  0  0  0  0  0  0
   69.5681   52.0733   54.7022 N   0  0  0  0  0  0  0  0  0  0  0  0
   69.3703   49.9064   53.7484 C   0  0  0  0  0  0  0  0  0  0  0  0
   69.5393   48.8439   54.7874 C   0  0  0  0  0  0  0  0  0  0  0  0
   68.9273   47.6795   54.1198 C   0  0  0  0  0  0  0  0  0  0  0  0
   68.2750   46.5707   54.5909 C   0  0  0  0  0  0  0  0  0  0  0  0
   67.7789   45.5852   53.7391 C   0  0  0  0  0  0  0  0  0  0  0  0
   67.9629   45.7536   52.4019 C   0  0  0  0  0  0  0  0  0  0  0  0
   68.6281   46.8827   51.9218 C   0  0  0  0  0  0  0  0  0  0  0  0
   69.1137   47.8500   52.7648 C   0  0  0  0  0  0  0  0  0  0  0  0
   69.8399   49.1190   52.5129 C   0  0  0  0  0  0  0  0  0  0  0  0
  9 10  1  0
 10 11  2  0
 10 18  1  0
 11 12  1  0
 12 13  1  0
 13 14  1  0
 13 18  2  0
 14 15  2  0
 15 16  1  0
 16 17  2  0
 17  1  1  0
 17 18  1  0
  1  2  1  0
  1  8  1  0
  2  3  1  0
  3  4  1  0
  4  5  1  0
  4  7  1  0
  5  6  2  0
  5 19  1  0
 19 20  1  1
 19 21  1  0
 21 22  1  0
 21 29  1  0
 22 23  1  0
 23 24  1  0
 23 28  2  0
 24 25  2  0
 25 26  1  0
 26 27  2  0
 27 28  1  0
 28 29  1  0
  7  8  1  0
M  CHG  1  20   1
M  END
>  <minimizedAffinity>  (233) 
-8.96285

$$$$
data/200k_reference_output/data/smiles/32870.pdb
     RDKit          3D

 27 29  0  0  0  0  0  0  0  0999 V2000
   71.9111   50.7442   54.3209 C   0  0  0  0  0  0  0  0  0  0  0  0
   71.2056   49.6432   53.9330 N   0  0  0  0  0  0  0  0  0  0  0  0
   69.9017   49.6376   53.7587 N   0  0  0  0  0  0  0  0  0  0  0  0
   69.1667   50.7549   53.9609 C   0  0  0  0  0  0  0  0  0  0  0  0
   69.7909   51.9124   54.3530 C   0  0  0  0  0  0  0  0  0  0  0  0
   71.1755   51.8732   54.5255 C   0  0  0  0  0  0  0  0  0  0  0  0
   71.6890   52.9464   54.8808 O   0  0  0  0  0  0  0  0  0  0  0  0
   69.2755   48.4299   53.3471 C   0  0  0  0  0  0  0  0  0  0  0  0
   68.5858   47.6519   54.2676 C   0  0  0  0  0  0  0  0  0  0  0  0
   67.9663   46.4748   53.9009 C   0  0  0  0  0  0  0  0  0  0  0  0
   68.0156   46.0340   52.5944 C   0  0  0  0  0  0  0  0  0  0  0  0
   67.4073   44.8669   52.2065 F   0  0  0  0  0  0  0  0  0  0  0  0
   68.7032   46.8114   51.6836 C   0  0  0  0  0  0  0  0  0  0  0  0
   69.3326   48.0022   52.0402 C   0  0  0  0  0  0  0  0  0  0  0  0
   74.0807   51.0507   55.6313 N   0  0  0  0  0  0  0  0  0  0  0  0
   73.3516   50.6594   54.4913 C   0  0  0  0  0  0  0  0  0  0  0  0
   74.0813   50.1922   53.5505 O   0  0  0  0  0  0  0  0  0  0  0  0
   75.4674   48.8741   56.7034 O   0  0  0  0  0  0  0  0  0  0  0  0
   76.1585   49.8181   56.2507 C   0  0  0  0  0  0  0  0  0  0  0  0
   75.4794   50.9298   55.7048 N   0  0  0  0  0  0  0  0  0  0  0  0
   77.6093   49.6992   56.3209 C   0  0  0  0  0  0  0  0  0  0  0  0
   78.3426   49.1850   55.2744 C   0  0  0  0  0  0  0  0  0  0  0  0
   79.7229   49.0651   55.3275 C   0  0  0  0  0  0  0  0  0  0  0  0
   80.3979   49.4714   56.4602 C   0  0  0  0  0  0  0  0  0  0  0  0
   79.6772   49.9869   57.5133 C   0  0  0  0  0  0  0  0  0  0  0  0
   78.2871   50.1037   57.4512 C   0  0  0  0  0  0  0  0  0  0  0  0
   77.3540   50.7531   58.7680 Cl  0  0  0  0  0  0  0  0  0  0  0  0
 18 19  2  0
 19 20  1  0
 19 21  1  0
 20 15  1  0
 15 16  1  0
 16 17  2  0
 16  1  1  0
  1  2  2  0
  1  6  1  0
  2  3  1  0
  3  8  1  0
  3  4  1  0
  8  9  2  0
  8 14  1  0
  9 10  1  0
 10 11  2  0
 11 12  1  0
 11 13  1  0
 13 14  2  0
  4  5  2  0
  5  6  1  0
  6  7  2  0
 21 22  2  0
 21 26  1  0
 22 23  1  0
 23 24  2  0
 24 25  1  0
 25 26  2  0
 26 27  1  0
M  END
>  <minimizedAffinity>  (234) 
-8.96007

$$$$
data/200k_reference_output/data/smiles/62222.pdb
     RDKit          3D

 25 26  0  0  0  0  0  0  0  0999 V2000
   68.9036   43.5796   56.7256 C   0  0  0  0  0  0  0  0  0  0  0  0
   69.9080   43.8544   57.2650 O   0  0  0  0  0  0  0  0  0  0  0  0
   68.2822   44.5802   55.9530 N   0  0  0  0  0  0  0  0  0  0  0  0
   68.4340   45.8399   55.4085 C   0  0  0  0  0  0  0  0  0  0  0  0
   68.2028   45.7088   53.9741 C   0  0  0  0  0  0  0  0  0  0  0  0
   68.6429   46.9180   53.2239 C   0  0  0  0  0  0  0  0  0  0  0  0
   69.1515   47.9306   53.7639 C   0  0  0  0  0  0  0  0  0  0  0  0
   69.3682   48.0834   55.1435 C   0  0  0  0  0  0  0  0  0  0  0  0
   68.9609   46.9573   55.8947 C   0  0  0  0  0  0  0  0  0  0  0  0
   69.9717   49.1321   52.6494 S   0  0  0  0  0  0  0  0  0  0  0  0
   69.2687   50.7121   53.1261 N   0  0  0  0  0  0  0  0  0  0  0  0
   69.5623   48.8988   51.2598 O   0  0  0  0  0  0  0  0  0  0  0  0
   71.4080   49.0577   52.8552 O   0  0  0  0  0  0  0  0  0  0  0  0
   68.1764   42.2436   56.6590 C   0  0  0  0  0  0  0  0  0  0  0  0
   68.4711   41.2783   57.4799 C   0  0  0  0  0  0  0  0  0  0  0  0
   65.9586   41.8279   55.1929 N   0  0  0  0  0  0  0  0  0  0  0  0
   67.0148   42.0235   55.9043 C   0  0  0  0  0  0  0  0  0  0  0  0
   67.8531   40.0172   57.8197 C   0  0  0  0  0  0  0  0  0  0  0  0
   67.4034   39.9294   59.0617 C   0  0  0  0  0  0  0  0  0  0  0  0
   66.6863   38.9083   59.7954 C   0  0  0  0  0  0  0  0  0  0  0  0
   67.1126   37.5699   59.8928 C   0  0  0  0  0  0  0  0  0  0  0  0
   66.1650   36.5796   60.3316 C   0  0  0  0  0  0  0  0  0  0  0  0
   64.8894   36.9310   60.6504 C   0  0  0  0  0  0  0  0  0  0  0  0
   64.4816   38.2341   60.5650 C   0  0  0  0  0  0  0  0  0  0  0  0
   65.3998   39.2006   60.1346 C   0  0  0  0  0  0  0  0  0  0  0  0
 16 17  3  0
 17 14  1  0
 14 15  2  0
 14  1  1  0
 15 18  1  0
 18 19  2  0
 19 20  1  0
 20 21  2  0
 20 25  1  0
 21 22  1  0
 22 23  2  0
 23 24  1  0
 24 25  2  0
  1  2  2  0
  1  3  1  0
  3  4  1  0
  4  5  2  0
  4  9  1  0
  5  6  1  0
  6  7  2  0
  7 10  1  0
  7  8  1  0
 10 11  1  0
 10 12  2  0
 10 13  2  0
  8  9  2  0
M  END
>  <minimizedAffinity>  (235) 
-8.95899

$$$$
data/reference_output_2/data/smiles/90852.pdb
     RDKit          3D

 27 30  0  0  0  0  0  0  0  0999 V2000
   69.3080   48.2735   57.0360 C   0  0  0  0  0  0  0  0  0  0  0  0
   68.5360   49.4114   57.2538 C   0  0  0  0  0  0  0  0  0  0  0  0
   68.9945   50.3271   58.1529 C   0  0  0  0  0  0  0  0  0  0  0  0
   70.2026   50.1556   58.8509 C   0  0  0  0  0  0  0  0  0  0  0  0
   70.9798   49.0438   58.6528 C   0  0  0  0  0  0  0  0  0  0  0  0
   70.4880   48.1250   57.7302 C   0  0  0  0  0  0  0  0  0  0  0  0
   69.4290   48.0200   52.4570 C   0  0  0  0  0  0  0  0  0  0  0  0
   68.8571   46.8785   51.9575 C   0  0  0  0  0  0  0  0  0  0  0  0
   68.3277   45.9626   52.8594 C   0  0  0  0  0  0  0  0  0  0  0  0
   68.3517   46.1492   54.2195 C   0  0  0  0  0  0  0  0  0  0  0  0
   67.9307   45.4601   55.2933 N   0  0  0  0  0  0  0  0  0  0  0  0
   68.2264   46.1395   56.4089 N   0  0  0  0  0  0  0  0  0  0  0  0
   68.8424   47.2802   56.0882 C   0  0  0  0  0  0  0  0  0  0  0  0
   68.9371   47.3163   54.7224 C   0  0  0  0  0  0  0  0  0  0  0  0
   69.4621   48.2232   53.8123 C   0  0  0  0  0  0  0  0  0  0  0  0
   69.7284   50.3783   51.6209 N   0  0  0  0  0  0  0  0  0  0  0  0
   69.9861   48.9875   51.5299 C   0  0  0  0  0  0  0  0  0  0  0  0
   70.7415   48.5561   50.5922 O   0  0  0  0  0  0  0  0  0  0  0  0
   72.2014   48.7617   59.2888 N   0  0  0  0  0  0  0  0  0  0  0  0
   72.4506   47.7859   60.2726 C   0  0  0  0  0  0  0  0  0  0  0  0
   71.4940   47.0628   60.6523 O   0  0  0  0  0  0  0  0  0  0  0  0
   73.7920   47.5836   60.8712 C   0  0  0  0  0  0  0  0  0  0  0  0
   74.2819   48.5335   61.7538 C   0  0  0  0  0  0  0  0  0  0  0  0
   75.5275   48.3735   62.3275 C   0  0  0  0  0  0  0  0  0  0  0  0
   76.3220   47.2762   62.0476 C   0  0  0  0  0  0  0  0  0  0  0  0
   75.8247   46.3720   61.1912 N   0  0  0  0  0  0  0  0  0  0  0  0
   74.5950   46.5094   60.6115 C   0  0  0  0  0  0  0  0  0  0  0  0
 16 17  1  0
 17 18  2  0
 17  7  1  0
  7  8  2  0
  7 15  1  0
  8  9  1  0
  9 10  2  0
 10 11  1  0
 10 14  1  0
 11 12  1  0
 12 13  2  0
 13  1  1  0
 13 14  1  0
  1  2  2  0
  1  6  1  0
  2  3  1  0
  3  4  2  0
  4  5  1  0
  5 19  1  0
  5  6  2  0
 19 20  1  0
 20 21  2  0
 20 22  1  0
 22 23  2  0
 22 27  1  0
 23 24  1  0
 24 25  2  0
 25 26  1  0
 26 27  2  0
 14 15  2  0
M  END
>  <minimizedAffinity>  (236) 
-8.95807

$$$$
data/200k_reference_output/data/smiles/24010.pdb
     RDKit          3D

 26 28  0  0  0  0  0  0  0  0999 V2000
   69.1767   40.2375   57.7590 C   0  0  0  0  0  0  0  0  0  0  0  0
   68.1439   40.0946   56.8583 C   0  0  0  0  0  0  0  0  0  0  0  0
   67.6809   41.2126   56.1932 C   0  0  0  0  0  0  0  0  0  0  0  0
   66.6587   41.0277   55.3112 F   0  0  0  0  0  0  0  0  0  0  0  0
   68.2314   42.4505   56.4175 C   0  0  0  0  0  0  0  0  0  0  0  0
   69.2835   42.6350   57.3271 C   0  0  0  0  0  0  0  0  0  0  0  0
   69.7041   41.4927   57.9593 C   0  0  0  0  0  0  0  0  0  0  0  0
   69.5355   36.3478   60.8696 C   0  0  0  0  0  0  0  0  0  0  0  0
   69.8702   37.3766   59.8258 C   0  0  0  0  0  0  0  0  0  0  0  0
   71.0532   37.4837   59.1275 C   0  0  0  0  0  0  0  0  0  0  0  0
   70.9010   38.5682   58.2867 C   0  0  0  0  0  0  0  0  0  0  0  0
   69.6820   39.0918   58.4694 N   0  0  0  0  0  0  0  0  0  0  0  0
   69.0879   38.3701   59.3856 N   0  0  0  0  0  0  0  0  0  0  0  0
   69.8417   43.9638   57.5377 C   0  0  0  0  0  0  0  0  0  0  0  0
   70.8586   44.0870   58.2330 O   0  0  0  0  0  0  0  0  0  0  0  0
   69.2415   45.0990   56.9648 N   0  0  0  0  0  0  0  0  0  0  0  0
   69.7238   46.4007   57.1254 N   0  0  0  0  0  0  0  0  0  0  0  0
   68.7493   47.5569   56.3186 S   0  0  0  0  0  0  0  0  0  0  0  0
   67.3729   47.5535   56.9235 O   0  0  0  0  0  0  0  0  0  0  0  0
   69.3714   48.9138   56.5438 O   0  0  0  0  0  0  0  0  0  0  0  0
   68.6566   47.1877   54.5975 C   0  0  0  0  0  0  0  0  0  0  0  0
   67.9227   46.1223   54.1268 C   0  0  0  0  0  0  0  0  0  0  0  0
   67.8478   45.8291   52.7662 C   0  0  0  0  0  0  0  0  0  0  0  0
   68.5131   46.6065   51.8537 C   0  0  0  0  0  0  0  0  0  0  0  0
   69.2530   47.6787   52.3085 C   0  0  0  0  0  0  0  0  0  0  0  0
   69.3155   47.9535   53.6574 C   0  0  0  0  0  0  0  0  0  0  0  0
  8  9  1  0
  9 10  1  0
  9 13  2  0
 10 11  2  0
 11 12  1  0
 12  1  1  0
 12 13  1  0
  1  2  2  0
  1  7  1  0
  2  3  1  0
  3  4  1  0
  3  5  2  0
  5  6  1  0
  6 14  1  0
  6  7  2  0
 14 15  2  0
 14 16  1  0
 16 17  1  0
 17 18  1  0
 18 19  2  0
 18 20  2  0
 18 21  1  0
 21 22  2  0
 21 26  1  0
 22 23  1  0
 23 24  2  0
 24 25  1  0
 25 26  2  0
M  END
>  <minimizedAffinity>  (237) 
-8.95636

$$$$
data/200k_reference_output/data/smiles/75154.pdb
     RDKit          3D

 27 29  0  0  0  0  0  0  0  0999 V2000
   69.6747   49.0406   53.4426 C   0  0  0  0  0  0  0  0  0  0  0  0
   69.5501   49.0892   52.0341 C   0  0  0  0  0  0  0  0  0  0  0  0
   69.9766   50.1367   51.4781 O   0  0  0  0  0  0  0  0  0  0  0  0
   69.0336   48.1260   51.3438 O   0  0  0  0  0  0  0  0  0  0  0  0
   68.5838   47.0340   51.8833 C   0  0  0  0  0  0  0  0  0  0  0  0
   68.0383   46.0155   51.1187 O   0  0  0  0  0  0  0  0  0  0  0  0
   68.6719   46.9236   53.2530 C   0  0  0  0  0  0  0  0  0  0  0  0
   68.1940   45.7676   53.8268 C   0  0  0  0  0  0  0  0  0  0  0  0
   68.2323   45.5691   55.1843 C   0  0  0  0  0  0  0  0  0  0  0  0
   68.7556   46.5547   55.9623 C   0  0  0  0  0  0  0  0  0  0  0  0
   69.2568   47.7547   55.4278 C   0  0  0  0  0  0  0  0  0  0  0  0
   69.2202   47.9306   54.0788 C   0  0  0  0  0  0  0  0  0  0  0  0
   69.6145   48.7824   56.3771 C   0  0  0  0  0  0  0  0  0  0  0  0
   68.6507   49.6632   56.8043 C   0  0  0  0  0  0  0  0  0  0  0  0
   68.9040   50.6194   57.7814 C   0  0  0  0  0  0  0  0  0  0  0  0
   70.1605   50.6939   58.3455 C   0  0  0  0  0  0  0  0  0  0  0  0
   70.4235   51.6201   59.2987 F   0  0  0  0  0  0  0  0  0  0  0  0
   71.1196   49.8026   57.9057 C   0  0  0  0  0  0  0  0  0  0  0  0
   72.3647   49.9047   58.4900 F   0  0  0  0  0  0  0  0  0  0  0  0
   70.8701   48.8561   56.9399 C   0  0  0  0  0  0  0  0  0  0  0  0
   71.7882   50.1098   54.1157 N   0  0  0  0  0  0  0  0  0  0  0  0
   70.3476   50.1403   54.0651 C   0  0  0  0  0  0  0  0  0  0  0  0
   69.7661   51.1004   54.5620 O   0  0  0  0  0  0  0  0  0  0  0  0
   72.4709   51.1941   54.7460 C   0  0  0  0  0  0  0  0  0  0  0  0
   74.5144   50.0499   54.1437 O   0  0  0  0  0  0  0  0  0  0  0  0
   73.9011   50.7900   54.9496 C   0  0  0  0  0  0  0  0  0  0  0  0
   74.6214   51.2270   56.0618 O   0  0  0  0  0  0  0  0  0  0  0  0
 25 26  2  0
 26 27  1  0
 26 24  1  0
 24 21  1  0
 21 22  1  0
 22 23  2  0
 22  1  1  0
  1  2  1  0
  1 12  2  0
  2  3  2  0
  2  4  1  0
  4  5  1  0
  5  6  1  0
  5  7  2  0
  7  8  1  0
  7 12  1  0
  8  9  2  0
  9 10  1  0
 10 11  2  0
 11 13  1  0
 11 12  1  0
 13 14  2  0
 13 20  1  0
 14 15  1  0
 15 16  2  0
 16 17  1  0
 16 18  1  0
 18 19  1  0
 18 20  2  0
M  END
>  <minimizedAffinity>  (238) 
-8.95414

$$$$
data/200k_reference_output/data/smiles/74802.pdb
     RDKit          3D

 26 29  0  0  0  0  0  0  0  0999 V2000
   70.4604   45.4308   57.8908 C   0  0  0  0  0  0  0  0  0  0  0  0
   69.7357   46.3397   57.1102 C   0  0  0  0  0  0  0  0  0  0  0  0
   69.8660   47.7005   57.2040 C   0  0  0  0  0  0  0  0  0  0  0  0
   70.7685   48.2160   58.1255 C   0  0  0  0  0  0  0  0  0  0  0  0
   71.4934   47.3593   58.9047 C   0  0  0  0  0  0  0  0  0  0  0  0
   71.3441   45.9667   58.7921 C   0  0  0  0  0  0  0  0  0  0  0  0
   72.0695   45.1589   59.5756 F   0  0  0  0  0  0  0  0  0  0  0  0
   71.2141   43.2113   57.6823 O   0  0  0  0  0  0  0  0  0  0  0  0
   70.2181   44.0182   57.6710 C   0  0  0  0  0  0  0  0  0  0  0  0
   68.9767   43.4031   57.4388 N   0  0  0  0  0  0  0  0  0  0  0  0
   68.8522   41.9506   57.2254 C   0  0  0  0  0  0  0  0  0  0  0  0
   68.1771   41.3455   58.4413 C   0  0  0  0  0  0  0  0  0  0  0  0
   66.8513   41.5996   57.7428 C   0  0  0  0  0  0  0  0  0  0  0  0
   67.6399   41.5999   56.4343 C   0  0  0  0  0  0  0  0  0  0  0  0
   69.1146   48.6853   56.3805 C   0  0  0  0  0  0  0  0  0  0  0  0
   69.4744   48.6671   54.9539 C   0  0  0  0  0  0  0  0  0  0  0  0
   70.4233   49.5052   54.4415 N   0  0  0  0  0  0  0  0  0  0  0  0
   70.7840   49.4927   53.1749 N   0  0  0  0  0  0  0  0  0  0  0  0
   70.2115   48.6178   52.3003 C   0  0  0  0  0  0  0  0  0  0  0  0
   70.5723   48.6225   51.0940 O   0  0  0  0  0  0  0  0  0  0  0  0
   69.2438   47.7350   52.7293 C   0  0  0  0  0  0  0  0  0  0  0  0
   68.9033   47.7908   54.0612 C   0  0  0  0  0  0  0  0  0  0  0  0
   67.8708   46.8792   54.4808 N   0  0  0  0  0  0  0  0  0  0  0  0
   67.7543   45.6357   53.7928 C   0  0  0  0  0  0  0  0  0  0  0  0
   67.8094   45.7275   52.3061 C   0  0  0  0  0  0  0  0  0  0  0  0
   68.6582   46.8116   51.7460 C   0  0  0  0  0  0  0  0  0  0  0  0
  8  9  2  0
  9 10  1  0
  9  1  1  0
 10 11  1  0
 11 12  1  0
 11 14  1  0
 12 13  1  0
 13 14  1  0
  1  2  2  0
  1  6  1  0
  2  3  1  0
  3 15  1  0
  3  4  2  0
 15 16  1  0
 16 17  2  0
 16 22  1  0
 17 18  1  0
 18 19  1  0
 19 20  2  0
 19 21  1  0
 21 22  2  0
 21 26  1  0
 22 23  1  0
 23 24  1  0
 24 25  1  0
 25 26  1  0
  4  5  1  0
  5  6  2  0
  6  7  1  0
M  END
>  <minimizedAffinity>  (239) 
-8.94634

$$$$
data/200k_reference_output/data/smiles/12121.pdb
     RDKit          3D

 28 32  0  0  0  0  0  0  0  0999 V2000
   71.3474   46.9691   58.7167 C   0  0  0  0  0  0  0  0  0  0  0  0
   70.4131   47.6276   57.9677 C   0  0  0  0  0  0  0  0  0  0  0  0
   69.5379   47.0034   57.0720 C   0  0  0  0  0  0  0  0  0  0  0  0
   69.6535   45.6465   56.9625 C   0  0  0  0  0  0  0  0  0  0  0  0
   70.6000   44.9335   57.7125 C   0  0  0  0  0  0  0  0  0  0  0  0
   71.4259   45.5923   58.5694 C   0  0  0  0  0  0  0  0  0  0  0  0
   72.3378   44.8956   59.2904 F   0  0  0  0  0  0  0  0  0  0  0  0
   71.8490   47.7718   60.8358 O   0  0  0  0  0  0  0  0  0  0  0  0
   72.2445   47.6775   59.6487 C   0  0  0  0  0  0  0  0  0  0  0  0
   73.4796   48.2134   59.2069 N   0  0  0  0  0  0  0  0  0  0  0  0
   74.1876   48.2630   57.9436 C   0  0  0  0  0  0  0  0  0  0  0  0
   75.4919   48.5026   58.7201 C   0  0  0  0  0  0  0  0  0  0  0  0
   74.5453   48.9198   59.7920 C   0  0  0  0  0  0  0  0  0  0  0  0
   74.4047   50.3630   60.0842 C   0  0  0  0  0  0  0  0  0  0  0  0
   75.1403   50.1476   61.3238 N   0  0  0  0  0  0  0  0  0  0  0  0
   74.9074   48.7118   61.1989 C   0  0  0  0  0  0  0  0  0  0  0  0
   68.5443   47.8098   56.3301 C   0  0  0  0  0  0  0  0  0  0  0  0
   68.9697   48.0209   54.9581 C   0  0  0  0  0  0  0  0  0  0  0  0
   69.8673   49.0266   54.7278 N   0  0  0  0  0  0  0  0  0  0  0  0
   70.3692   49.3024   53.5412 N   0  0  0  0  0  0  0  0  0  0  0  0
   70.0464   48.6202   52.4302 C   0  0  0  0  0  0  0  0  0  0  0  0
   70.5474   48.9103   51.3033 O   0  0  0  0  0  0  0  0  0  0  0  0
   69.1433   47.5870   52.5746 C   0  0  0  0  0  0  0  0  0  0  0  0
   68.7726   46.8659   51.4598 C   0  0  0  0  0  0  0  0  0  0  0  0
   67.8596   45.8502   51.6366 C   0  0  0  0  0  0  0  0  0  0  0  0
   67.3366   45.5685   52.8824 C   0  0  0  0  0  0  0  0  0  0  0  0
   67.7135   46.2975   54.0017 C   0  0  0  0  0  0  0  0  0  0  0  0
   68.6172   47.3031   53.8420 C   0  0  0  0  0  0  0  0  0  0  0  0
  8  9  2  0
  9  1  1  0
  9 10  1  0
  1  2  2  0
  1  6  1  0
  2  3  1  0
  3 17  1  0
  3  4  2  0
 17 18  1  0
 18 19  2  0
 18 28  1  0
 19 20  1  0
 20 21  1  0
 21 22  2  0
 21 23  1  0
 23 24  1  0
 23 28  2  0
 24 25  2  0
 25 26  1  0
 26 27  2  0
 27 28  1  0
  4  5  1  0
  5  6  2  0
  6  7  1  0
 10 11  1  0
 10 13  1  0
 11 12  1  0
 12 13  1  0
 13 14  1  0
 13 16  1  0
 14 15  1  0
 15 16  1  0
M  CHG  1  15   1
M  END
>  <minimizedAffinity>  (240) 
-8.94535

$$$$
data/200k_reference_output/data/smiles/73082.pdb
     RDKit          3D

 29 32  0  0  0  0  0  0  0  0999 V2000
   69.2625   52.0423   57.3832 C   0  0  0  0  0  0  0  0  0  0  0  0
   70.4145   51.5056   56.5799 C   0  0  2  0  0  0  0  0  0  0  0  0
   69.8863   50.5099   55.5083 C   0  0  0  0  0  0  0  0  0  0  0  0
   69.2949   49.3453   56.1371 C   0  0  2  0  0  0  0  0  0  0  0  0
   70.3856   48.7816   57.0890 C   0  0  0  0  0  0  0  0  0  0  0  0
   71.6411   49.5730   56.9262 C   0  0  0  0  0  0  0  0  0  0  0  0
   71.4947   50.9701   57.3517 N   0  0  1  0  0  0  0  0  0  0  0  0
   68.8298   48.2420   55.3925 N   0  0  0  0  0  0  0  0  0  0  0  0
   68.0059   47.3234   55.9991 C   0  0  0  0  0  0  0  0  0  0  0  0
   67.6133   47.3637   57.1855 O   0  0  0  0  0  0  0  0  0  0  0  0
   67.6870   46.3757   55.1265 N   0  0  0  0  0  0  0  0  0  0  0  0
   68.3083   46.6892   53.9586 C   0  0  0  0  0  0  0  0  0  0  0  0
   68.3486   46.0924   52.7229 C   0  0  0  0  0  0  0  0  0  0  0  0
   69.0723   46.6273   51.6776 C   0  0  0  0  0  0  0  0  0  0  0  0
   69.7735   47.7949   51.8818 C   0  0  0  0  0  0  0  0  0  0  0  0
   69.7586   48.4283   53.1100 C   0  0  0  0  0  0  0  0  0  0  0  0
   69.0324   47.8747   54.1295 C   0  0  0  0  0  0  0  0  0  0  0  0
   72.7276   51.6407   57.0013 C   0  0  0  0  0  0  0  0  0  0  0  0
   73.6324   50.9465   56.0633 C   0  0  0  0  0  0  0  0  0  0  0  0
   75.0353   50.9219   56.3005 N   0  0  0  0  0  0  0  0  0  0  0  0
   75.8625   50.1252   55.4329 C   0  0  0  0  0  0  0  0  0  0  0  0
   75.3063   49.4913   54.5008 O   0  0  0  0  0  0  0  0  0  0  0  0
   77.2988   50.0815   55.6605 C   0  0  0  0  0  0  0  0  0  0  0  0
   78.0145   51.0430   56.3246 C   0  0  0  0  0  0  0  0  0  0  0  0
   79.3978   50.9342   56.4903 C   0  0  0  0  0  0  0  0  0  0  0  0
   80.0675   49.8427   55.9823 C   0  0  0  0  0  0  0  0  0  0  0  0
   81.4165   49.7005   56.1246 F   0  0  0  0  0  0  0  0  0  0  0  0
   79.3733   48.8436   55.3013 C   0  0  0  0  0  0  0  0  0  0  0  0
   78.0238   48.9902   55.1613 C   0  0  0  0  0  0  0  0  0  0  0  0
  2  1  1  1
  2  3  1  0
  2  7  1  0
  3  4  1  0
  4  8  1  6
  4  5  1  0
  8  9  1  0
  8 17  1  0
  9 10  2  0
  9 11  1  0
 11 12  1  0
 12 13  1  0
 12 17  2  0
 13 14  2  0
 14 15  1  0
 15 16  2  0
 16 17  1  0
  5  6  1  0
  6  7  1  0
  7 18  1  6
 18 19  1  0
 19 20  1  0
 20 21  1  0
 21 22  2  0
 21 23  1  0
 23 24  2  0
 23 29  1  0
 24 25  1  0
 25 26  2  0
 26 27  1  0
 26 28  1  0
 28 29  2  0
M  CHG  1   7   1
M  END
>  <minimizedAffinity>  (241) 
-8.94207

$$$$
data/200k_reference_output/data/smiles/23610.pdb
     RDKit          3D

 27 29  0  0  0  0  0  0  0  0999 V2000
   68.9976   46.6502   55.8439 C   0  0  0  0  0  0  0  0  0  0  0  0
   69.2401   47.8570   55.2380 C   0  0  0  0  0  0  0  0  0  0  0  0
   68.9133   48.0322   53.9035 C   0  0  0  0  0  0  0  0  0  0  0  0
   68.3528   46.9765   53.2364 C   0  0  0  0  0  0  0  0  0  0  0  0
   68.0966   45.7381   53.8304 C   0  0  0  0  0  0  0  0  0  0  0  0
   68.4296   45.5891   55.1573 C   0  0  0  0  0  0  0  0  0  0  0  0
   68.1940   44.3946   55.7684 F   0  0  0  0  0  0  0  0  0  0  0  0
   70.6888   46.7430   59.2269 N   0  0  0  0  0  0  0  0  0  0  0  0
   70.4594   47.0254   57.8346 C   0  0  0  0  0  0  0  0  0  0  0  0
   71.2256   47.7578   57.1856 O   0  0  0  0  0  0  0  0  0  0  0  0
   69.3217   46.4400   57.2132 N   0  0  0  0  0  0  0  0  0  0  0  0
   71.8126   47.2976   59.9202 C   0  0  0  0  0  0  0  0  0  0  0  0
   73.7026   46.4035   61.1114 O   0  0  0  0  0  0  0  0  0  0  0  0
   72.5078   46.2696   60.7456 C   0  0  0  0  0  0  0  0  0  0  0  0
   71.7845   45.1396   61.1039 O   0  0  0  0  0  0  0  0  0  0  0  0
   69.1684   49.3474   53.2594 C   0  0  0  0  0  0  0  0  0  0  0  0
   70.2928   50.1018   53.8150 C   0  0  0  0  0  0  0  0  0  0  0  0
   71.5660   49.6881   53.5258 N   0  0  0  0  0  0  0  0  0  0  0  0
   72.6426   50.3199   53.9498 N   0  0  0  0  0  0  0  0  0  0  0  0
   72.5659   51.4345   54.7068 C   0  0  0  0  0  0  0  0  0  0  0  0
   73.6088   52.0195   55.0977 O   0  0  0  0  0  0  0  0  0  0  0  0
   71.3130   51.9211   55.0457 C   0  0  0  0  0  0  0  0  0  0  0  0
   70.2073   51.2379   54.5890 C   0  0  0  0  0  0  0  0  0  0  0  0
   68.8823   51.7250   54.9692 C   0  0  0  0  0  0  0  0  0  0  0  0
   68.9867   52.3134   56.3646 C   0  0  0  0  0  0  0  0  0  0  0  0
   69.8720   53.5441   56.2438 C   0  0  0  0  0  0  0  0  0  0  0  0
   71.2847   53.1522   55.8677 C   0  0  0  0  0  0  0  0  0  0  0  0
 13 14  2  0
 14 15  1  0
 14 12  1  0
 12  8  1  0
  8  9  1  0
  9 10  2  0
  9 11  1  0
 11  1  1  0
  1  2  2  0
  1  6  1  0
  2  3  1  0
  3 16  1  0
  3  4  2  0
 16 17  1  0
 17 18  2  0
 17 23  1  0
 18 19  1  0
 19 20  1  0
 20 21  2  0
 20 22  1  0
 22 23  2  0
 22 27  1  0
 23 24  1  0
 24 25  1  0
 25 26  1  0
 26 27  1  0
  4  5  1  0
  5  6  2  0
  6  7  1  0
M  END
>  <minimizedAffinity>  (242) 
-8.94056

$$$$
data/reference_output_2/data/smiles/186142.pdb
     RDKit          3D

 28 31  0  0  0  0  0  0  0  0999 V2000
   68.7943   43.2033   56.7922 C   0  0  0  0  0  0  0  0  0  0  0  0
   67.7029   42.6272   56.1298 C   0  0  0  0  0  0  0  0  0  0  0  0
   67.5062   41.2647   56.1802 C   0  0  0  0  0  0  0  0  0  0  0  0
   68.3693   40.4433   56.8751 C   0  0  0  0  0  0  0  0  0  0  0  0
   69.4566   40.9802   57.5405 C   0  0  0  0  0  0  0  0  0  0  0  0
   69.6311   42.3496   57.4747 C   0  0  0  0  0  0  0  0  0  0  0  0
   68.1893   46.3440   53.5023 C   0  0  0  0  0  0  0  0  0  0  0  0
   68.5413   47.6055   53.9272 C   0  0  0  0  0  0  0  0  0  0  0  0
   69.0131   47.8361   55.1962 C   0  0  0  0  0  0  0  0  0  0  0  0
   69.1398   46.7833   56.0734 C   0  0  0  0  0  0  0  0  0  0  0  0
   69.5574   46.6675   57.3558 N   0  0  0  0  0  0  0  0  0  0  0  0
   69.4835   45.4075   57.7442 N   0  0  0  0  0  0  0  0  0  0  0  0
   69.0192   44.6345   56.7560 C   0  0  0  0  0  0  0  0  0  0  0  0
   68.7980   45.4806   55.6978 C   0  0  0  0  0  0  0  0  0  0  0  0
   68.3234   45.3038   54.3950 C   0  0  0  0  0  0  0  0  0  0  0  0
   68.1609   46.7880   51.0359 N   0  0  0  0  0  0  0  0  0  0  0  0
   67.6895   46.0596   52.1761 C   0  0  0  0  0  0  0  0  0  0  0  0
   66.8297   45.1730   51.9469 O   0  0  0  0  0  0  0  0  0  0  0  0
   70.3770   40.1733   58.2731 N   0  0  0  0  0  0  0  0  0  0  0  0
   69.9108   39.3601   59.3427 C   0  0  0  0  0  0  0  0  0  0  0  0
   68.6990   39.3189   59.6787 O   0  0  0  0  0  0  0  0  0  0  0  0
   70.8625   38.5091   60.1200 C   0  0  0  0  0  0  0  0  0  0  0  0
   71.3482   37.3690   59.3366 C   0  0  0  0  0  0  0  0  0  0  0  0
   71.0645   36.0567   59.6246 C   0  0  0  0  0  0  0  0  0  0  0  0
   71.5367   34.9956   58.8669 C   0  0  0  0  0  0  0  0  0  0  0  0
   72.3228   35.2746   57.7785 C   0  0  0  0  0  0  0  0  0  0  0  0
   72.5983   36.5845   57.5008 C   0  0  0  0  0  0  0  0  0  0  0  0
   72.1346   37.5905   58.2426 N   0  0  0  0  0  0  0  0  0  0  0  0
 16 17  1  0
 17 18  2  0
 17  7  1  0
  7  8  2  0
  7 15  1  0
  8  9  1  0
  9 10  2  0
 10 11  1  0
 10 14  1  0
 11 12  1  0
 12 13  2  0
 13  1  1  0
 13 14  1  0
  1  2  2  0
  1  6  1  0
  2  3  1  0
  3  4  2  0
  4  5  1  0
  5 19  1  0
  5  6  2  0
 19 20  1  0
 20 21  2  0
 20 22  1  0
 22 23  1  0
 23 24  2  0
 23 28  1  0
 24 25  1  0
 25 26  2  0
 26 27  1  0
 27 28  2  0
 14 15  2  0
M  END
>  <minimizedAffinity>  (243) 
-8.93874

$$$$
data/reference_output_2/data/smiles/112663.pdb
     RDKit          3D

 29 31  0  0  0  0  0  0  0  0999 V2000
   67.8241   51.4424   57.0436 C   0  0  0  0  0  0  0  0  0  0  0  0
   68.4466   50.1555   57.5349 C   0  0  1  0  0  0  0  0  0  0  0  0
   68.4607   49.2266   56.4224 N   0  0  0  0  0  0  0  0  0  0  0  0
   69.1129   48.1175   56.1923 C   0  0  0  0  0  0  0  0  0  0  0  0
   69.9783   47.5159   57.2096 C   0  0  0  0  0  0  0  0  0  0  0  0
   69.9334   46.1375   57.2050 C   0  0  0  0  0  0  0  0  0  0  0  0
   70.7034   45.3718   58.0531 C   0  0  0  0  0  0  0  0  0  0  0  0
   71.5454   46.0273   58.9374 C   0  0  0  0  0  0  0  0  0  0  0  0
   71.6006   47.4246   58.9597 C   0  0  0  0  0  0  0  0  0  0  0  0
   70.8137   48.1499   58.0965 C   0  0  0  0  0  0  0  0  0  0  0  0
   70.8922   49.5854   58.3045 N   0  0  0  0  0  0  0  0  0  0  0  0
   72.1251   50.0439   58.8739 C   0  0  0  0  0  0  0  0  0  0  0  0
   69.8252   50.4789   57.9965 C   0  0  0  0  0  0  0  0  0  0  0  0
   70.0850   51.6770   58.1338 O   0  0  0  0  0  0  0  0  0  0  0  0
   68.9137   47.4056   54.9616 C   0  0  0  0  0  0  0  0  0  0  0  0
   68.1469   46.2366   54.9997 C   0  0  0  0  0  0  0  0  0  0  0  0
   67.7957   45.5522   53.8643 C   0  0  0  0  0  0  0  0  0  0  0  0
   68.2192   46.0430   52.6546 C   0  0  0  0  0  0  0  0  0  0  0  0
   68.9705   47.1851   52.5799 C   0  0  0  0  0  0  0  0  0  0  0  0
   69.3127   47.8637   53.7549 C   0  0  0  0  0  0  0  0  0  0  0  0
   70.6222   43.9206   57.9986 C   0  0  0  0  0  0  0  0  0  0  0  0
   70.5449   42.7197   57.9717 C   0  0  0  0  0  0  0  0  0  0  0  0
   70.4309   41.2872   57.9500 C   0  0  0  0  0  0  0  0  0  0  0  0
   69.2673   40.6351   58.5687 C   0  0  0  0  0  0  0  0  0  0  0  0
   68.2040   40.0624   57.7316 C   0  0  0  0  0  0  0  0  0  0  0  0
   67.7323   40.8141   56.5676 C   0  0  0  0  0  0  0  0  0  0  0  0
   67.7466   40.2904   55.4188 O   0  0  0  0  0  0  0  0  0  0  0  0
   67.2599   42.1418   56.7592 N   0  0  0  0  0  0  0  0  0  0  0  0
   66.8260   42.8409   55.7098 O   0  0  0  0  0  0  0  0  0  0  0  0
  2  1  1  6
  2  3  1  0
  2 13  1  0
  3  4  2  0
  4 15  1  0
  4  5  1  0
 15 16  2  0
 15 20  1  0
 16 17  1  0
 17 18  2  0
 18 19  1  0
 19 20  2  0
  5  6  2  0
  5 10  1  0
  6  7  1  0
  7 21  1  0
  7  8  2  0
 21 22  3  0
 22 23  1  0
 23 24  1  0
 24 25  1  0
 25 26  1  0
 26 27  2  0
 26 28  1  0
 28 29  1  0
  8  9  1  0
  9 10  2  0
 10 11  1  0
 11 12  1  0
 11 13  1  0
 13 14  2  0
M  END
>  <minimizedAffinity>  (244) 
-8.93775

$$$$
data/reference_output_2/data/smiles/162313.pdb
     RDKit          3D

 28 31  0  0  0  0  0  0  0  0999 V2000
   69.1971   42.9423   57.2498 C   0  0  0  0  0  0  0  0  0  0  0  0
   68.0668   42.2466   56.8828 C   0  0  0  0  0  0  0  0  0  0  0  0
   67.9080   40.9101   57.2788 C   0  0  0  0  0  0  0  0  0  0  0  0
   68.8686   40.2748   58.0327 C   0  0  0  0  0  0  0  0  0  0  0  0
   70.0224   40.9515   58.4188 C   0  0  0  0  0  0  0  0  0  0  0  0
   70.1330   42.2671   58.0050 C   0  0  0  0  0  0  0  0  0  0  0  0
   70.8576   40.0548   59.2007 C   0  0  0  0  0  0  0  0  0  0  0  0
   71.9588   40.3385   59.7003 O   0  0  0  0  0  0  0  0  0  0  0  0
   70.2042   38.8103   59.2931 N   0  0  0  0  0  0  0  0  0  0  0  0
   68.9890   38.9367   58.5835 C   0  0  0  0  0  0  0  0  0  0  0  0
   68.1501   38.0146   58.4586 O   0  0  0  0  0  0  0  0  0  0  0  0
   70.4401   44.9038   57.2570 O   0  0  0  0  0  0  0  0  0  0  0  0
   69.3906   44.3355   56.8567 C   0  0  0  0  0  0  0  0  0  0  0  0
   68.4929   45.0846   56.0655 N   0  0  0  0  0  0  0  0  0  0  0  0
   68.6699   46.4661   55.6656 C   0  0  0  0  0  0  0  0  0  0  0  0
   68.5927   46.6118   54.1882 C   0  0  0  0  0  0  0  0  0  0  0  0
   67.8079   45.7234   53.4421 C   0  0  0  0  0  0  0  0  0  0  0  0
   67.7022   45.8237   52.0796 C   0  0  0  0  0  0  0  0  0  0  0  0
   68.3663   46.8091   51.3751 C   0  0  0  0  0  0  0  0  0  0  0  0
   69.1374   47.6855   52.0888 C   0  0  0  0  0  0  0  0  0  0  0  0
   69.2402   47.5804   53.4642 C   0  0  0  0  0  0  0  0  0  0  0  0
   70.6709   37.6139   59.9796 C   0  0  0  0  0  0  0  0  0  0  0  0
   71.4026   36.7544   58.9879 C   0  0  0  0  0  0  0  0  0  0  0  0
   71.4782   35.3871   59.1603 C   0  0  0  0  0  0  0  0  0  0  0  0
   72.1338   34.5532   58.2891 C   0  0  0  0  0  0  0  0  0  0  0  0
   72.7445   35.1510   57.1832 C   0  0  0  0  0  0  0  0  0  0  0  0
   72.6728   36.4845   57.0118 N   0  0  0  0  0  0  0  0  0  0  0  0
   72.0186   37.2983   57.8843 C   0  0  0  0  0  0  0  0  0  0  0  0
 12 13  2  0
 13 14  1  0
 13  1  1  0
 14 15  1  0
 15 16  1  0
 16 17  2  0
 16 21  1  0
 17 18  1  0
 18 19  2  0
 19 20  1  0
 20 21  2  0
  1  2  2  0
  1  6  1  0
  2  3  1  0
  3  4  2  0
  4  5  1  0
  4 10  1  0
  5  6  2  0
  5  7  1  0
  7  8  2  0
  7  9  1  0
  9 22  1  0
  9 10  1  0
 22 23  1  0
 23 24  2  0
 23 28  1  0
 24 25  1  0
 25 26  2  0
 26 27  1  0
 27 28  2  0
 10 11  2  0
M  END
>  <minimizedAffinity>  (245) 
-8.93764

$$$$
data/200k_reference_output/data/smiles/72357.pdb
     RDKit          3D

 27 29  0  0  0  0  0  0  0  0999 V2000
   69.7794   47.3738   57.0008 C   0  0  0  0  0  0  0  0  0  0  0  0
   68.5329   48.2055   57.1551 C   0  0  0  0  0  0  0  0  0  0  0  0
   68.7907   49.5175   56.4199 C   0  0  0  0  0  0  0  0  0  0  0  0
   70.0880   49.6064   55.9075 N   0  0  0  0  0  0  0  0  0  0  0  0
   71.1747   49.3584   56.7460 C   0  0  0  0  0  0  0  0  0  0  0  0
   70.9243   48.1339   57.6023 C   0  0  0  0  0  0  0  0  0  0  0  0
   69.3820   44.9501   56.5862 N   0  0  0  0  0  0  0  0  0  0  0  0
   69.6449   46.0048   57.5042 C   0  0  0  0  0  0  0  0  0  0  0  0
   69.7526   45.7228   58.7256 O   0  0  0  0  0  0  0  0  0  0  0  0
   68.8901   40.9107   57.6238 C   0  0  0  0  0  0  0  0  0  0  0  0
   69.9596   41.6247   58.0636 C   0  0  0  0  0  0  0  0  0  0  0  0
   70.1483   42.9711   57.7332 C   0  0  0  0  0  0  0  0  0  0  0  0
   69.2318   43.6080   56.9399 C   0  0  0  0  0  0  0  0  0  0  0  0
   68.1495   42.8962   56.4906 C   0  0  0  0  0  0  0  0  0  0  0  0
   67.9595   41.5532   56.8184 C   0  0  0  0  0  0  0  0  0  0  0  0
   69.5955   38.7650   58.8365 C   0  0  0  0  0  0  0  0  0  0  0  0
   68.6694   39.5042   57.9543 C   0  0  0  0  0  0  0  0  0  0  0  0
   67.6712   38.9345   57.4710 O   0  0  0  0  0  0  0  0  0  0  0  0
   70.3284   49.8966   54.2934 S   0  0  0  0  0  0  0  0  0  0  0  0
   69.6335   51.1489   53.8589 O   0  0  0  0  0  0  0  0  0  0  0  0
   71.7910   50.0679   54.0032 O   0  0  0  0  0  0  0  0  0  0  0  0
   69.7512   48.5850   53.2677 C   0  0  0  0  0  0  0  0  0  0  0  0
   68.7874   47.7103   53.7129 C   0  0  0  0  0  0  0  0  0  0  0  0
   68.3227   46.6848   52.9341 C   0  0  0  0  0  0  0  0  0  0  0  0
   68.8484   46.5339   51.6593 C   0  0  0  0  0  0  0  0  0  0  0  0
   69.7954   47.3854   51.2080 N   0  0  0  0  0  0  0  0  0  0  0  0
   70.2457   48.3953   51.9887 C   0  0  0  0  0  0  0  0  0  0  0  0
 16 17  1  0
 17 18  2  0
 17 10  1  0
 10 11  2  0
 10 15  1  0
 11 12  1  0
 12 13  2  0
 13  7  1  0
 13 14  1  0
  7  8  1  0
  8  9  2  0
  8  1  1  0
  1  2  1  0
  1  6  1  0
  2  3  1  0
  3  4  1  0
  4 19  1  0
  4  5  1  0
 19 20  2  0
 19 21  2  0
 19 22  1  0
 22 23  2  0
 22 27  1  0
 23 24  1  0
 24 25  2  0
 25 26  1  0
 26 27  2  0
  5  6  1  0
 14 15  2  0
M  END
>  <minimizedAffinity>  (246) 
-8.93562

$$$$
data/reference_output_2/data/smiles/162334.pdb
     RDKit          3D

 27 31  0  0  0  0  0  0  0  0999 V2000
   69.7557   51.5461   55.2395 C   0  0  1  0  0  0  0  0  0  0  0  0
   68.2768   51.4778   55.4692 C   0  0  0  0  0  0  0  0  0  0  0  0
   68.0119   51.6302   56.9231 C   0  0  0  0  0  0  0  0  0  0  0  0
   68.7290   50.6576   57.8058 C   0  0  0  0  0  0  0  0  0  0  0  0
   70.0720   50.2298   57.3568 C   0  0  2  0  0  0  0  0  0  0  0  0
   70.3139   50.2757   55.8820 C   0  0  1  0  0  0  0  0  0  0  0  0
   69.7187   49.1159   55.1975 C   0  0  0  0  0  0  0  0  0  0  0  0
   69.3359   47.9588   55.7848 C   0  0  0  0  0  0  0  0  0  0  0  0
   68.8270   47.1163   54.7872 C   0  0  0  0  0  0  0  0  0  0  0  0
   68.2996   45.8478   54.7553 C   0  0  0  0  0  0  0  0  0  0  0  0
   68.1942   45.1275   55.9355 O   0  0  0  0  0  0  0  0  0  0  0  0
   67.8680   45.2610   53.5793 C   0  0  0  0  0  0  0  0  0  0  0  0
   67.9806   45.9919   52.4133 C   0  0  0  0  0  0  0  0  0  0  0  0
   68.5133   47.2757   52.4423 C   0  0  0  0  0  0  0  0  0  0  0  0
   68.9414   47.8516   53.6220 C   0  0  0  0  0  0  0  0  0  0  0  0
   69.4869   49.0650   53.8985 N   0  0  0  0  0  0  0  0  0  0  0  0
   69.8214   50.2108   53.1251 C   0  0  0  0  0  0  0  0  0  0  0  0
   69.9434   50.0799   51.9013 O   0  0  0  0  0  0  0  0  0  0  0  0
   70.0224   51.5369   53.7511 C   0  0  0  0  0  0  0  0  0  0  0  0
   69.4811   47.7716   57.2254 C   0  0  0  0  0  0  0  0  0  0  0  0
   70.3433   48.8134   57.8389 C   0  0  1  0  0  0  0  0  0  0  0  0
   71.7708   48.4800   57.8137 C   0  0  0  0  0  0  0  0  0  0  0  0
   72.2032   47.5890   58.5842 O   0  0  0  0  0  0  0  0  0  0  0  0
   72.7034   49.1143   56.9578 N   0  0  0  0  0  0  0  0  0  0  0  0
   74.0803   48.7637   56.9625 N   0  0  0  0  0  0  0  0  0  0  0  0
   71.8412   52.8123   55.3622 C   0  0  0  0  0  0  0  0  0  0  0  0
   70.4065   52.7583   55.8192 C   0  0  0  0  0  0  0  0  0  0  0  0
 26 27  1  0
  1 27  1  1
  1  2  1  0
  1  6  1  0
  1 19  1  0
  2  3  1  0
  3  4  1  0
  5  4  1  6
  5  6  1  0
  5 21  1  0
  6  7  1  6
  7  8  2  0
  7 16  1  0
  8  9  1  0
  8 20  1  0
  9 10  2  0
  9 15  1  0
 10 11  1  0
 10 12  1  0
 12 13  2  0
 13 14  1  0
 14 15  2  0
 15 16  1  0
 16 17  1  0
 17 18  2  0
 17 19  1  0
 20 21  1  0
 21 22  1  6
 22 23  2  0
 22 24  1  0
 24 25  1  0
M  END
>  <minimizedAffinity>  (247) 
-8.93449

$$$$
data/200k_reference_output/data/smiles/85239.pdb
     RDKit          3D

 28 31  0  0  0  0  0  0  0  0999 V2000
   69.0952   49.4513   56.4361 C   0  0  0  0  0  0  0  0  0  0  0  0
   68.3454   50.6338   56.4675 C   0  0  0  0  0  0  0  0  0  0  0  0
   68.5311   51.5517   57.4707 C   0  0  0  0  0  0  0  0  0  0  0  0
   69.4347   51.3313   58.4369 N   0  0  0  0  0  0  0  0  0  0  0  0
   70.1966   50.2133   58.4751 C   0  0  0  0  0  0  0  0  0  0  0  0
   70.0032   49.2963   57.4646 C   0  0  0  0  0  0  0  0  0  0  0  0
   70.9542   48.1821   57.7466 C   0  0  0  0  0  0  0  0  0  0  0  0
   71.1049   48.3377   59.2503 C   0  0  2  0  0  0  0  0  0  0  0  0
   71.1931   49.7454   59.3560 O   0  0  0  0  0  0  0  0  0  0  0  0
   69.2202   47.7590   53.1124 C   0  0  0  0  0  0  0  0  0  0  0  0
   68.5865   46.5659   53.3780 C   0  0  0  0  0  0  0  0  0  0  0  0
   68.1227   46.3250   54.6433 C   0  0  0  0  0  0  0  0  0  0  0  0
   68.2915   47.2809   55.6569 C   0  0  0  0  0  0  0  0  0  0  0  0
   68.9219   48.4688   55.3968 C   0  0  0  0  0  0  0  0  0  0  0  0
   69.3784   48.6929   54.1281 C   0  0  0  0  0  0  0  0  0  0  0  0
   69.9707   49.3895   51.3799 N   0  0  0  0  0  0  0  0  0  0  0  0
   69.7262   48.0531   51.7834 C   0  0  0  0  0  0  0  0  0  0  0  0
   69.9601   47.1366   50.9604 O   0  0  0  0  0  0  0  0  0  0  0  0
   72.2767   47.6445   59.8004 C   0  0  0  0  0  0  0  0  0  0  0  0
   72.4293   47.5442   61.0228 O   0  0  0  0  0  0  0  0  0  0  0  0
   73.2555   47.0772   58.9468 N   0  0  0  0  0  0  0  0  0  0  0  0
   74.4357   46.3808   59.3463 C   0  0  0  0  0  0  0  0  0  0  0  0
   74.4141   45.0185   58.7642 C   0  0  0  0  0  0  0  0  0  0  0  0
   73.3894   44.4821   58.0335 C   0  0  0  0  0  0  0  0  0  0  0  0
   73.4136   43.2033   57.5162 C   0  0  0  0  0  0  0  0  0  0  0  0
   74.5216   42.3938   57.7314 C   0  0  0  0  0  0  0  0  0  0  0  0
   75.5684   42.9139   58.4669 C   0  0  0  0  0  0  0  0  0  0  0  0
   75.5199   44.1876   58.9697 C   0  0  0  0  0  0  0  0  0  0  0  0
 16 17  1  0
 17 18  2  0
 17 10  1  0
 10 11  2  0
 10 15  1  0
 11 12  1  0
 12 13  2  0
 13 14  1  0
 14  1  1  0
 14 15  2  0
  1  2  2  0
  1  6  1  0
  2  3  1  0
  3  4  2  0
  4  5  1  0
  5  6  2  0
  5  9  1  0
  6  7  1  0
  7  8  1  0
  8 19  1  6
  8  9  1  0
 19 20  2  0
 19 21  1  0
 21 22  1  0
 22 23  1  0
 23 24  2  0
 23 28  1  0
 24 25  1  0
 25 26  2  0
 26 27  1  0
 27 28  2  0
M  END
>  <minimizedAffinity>  (248) 
-8.93420

$$$$
data/200k_reference_output/data/smiles/50982.pdb
     RDKit          3D

 25 27  0  0  0  0  0  0  0  0999 V2000
   68.6126   46.4393   54.1066 C   0  0  0  0  0  0  0  0  0  0  0  0
   68.3659   46.0803   52.8071 C   0  0  0  0  0  0  0  0  0  0  0  0
   68.7159   46.9509   51.7619 C   0  0  0  0  0  0  0  0  0  0  0  0
   69.3038   48.1644   52.0294 C   0  0  0  0  0  0  0  0  0  0  0  0
   69.5584   48.5433   53.3051 C   0  0  0  0  0  0  0  0  0  0  0  0
   69.2075   47.6744   54.3153 C   0  0  0  0  0  0  0  0  0  0  0  0
   68.3848   46.0447   56.3856 O   0  0  0  0  0  0  0  0  0  0  0  0
   68.2737   45.5831   55.2234 C   0  0  0  0  0  0  0  0  0  0  0  0
   67.8288   44.2612   55.0276 N   0  0  0  0  0  0  0  0  0  0  0  0
   67.5035   43.4429   56.1380 N   0  0  0  0  0  0  0  0  0  0  0  0
   68.0795   42.3399   56.3777 C   0  0  0  0  0  0  0  0  0  0  0  0
   67.7570   41.4809   57.5193 C   0  0  0  0  0  0  0  0  0  0  0  0
   68.1018   40.1453   57.5405 C   0  0  0  0  0  0  0  0  0  0  0  0
   67.7913   39.3308   58.6306 C   0  0  0  0  0  0  0  0  0  0  0  0
   67.1280   39.8598   59.7157 C   0  0  0  0  0  0  0  0  0  0  0  0
   66.7984   41.1982   59.6615 C   0  0  0  0  0  0  0  0  0  0  0  0
   67.1099   41.9605   58.5966 N   0  0  0  0  0  0  0  0  0  0  0  0
   70.3136   50.0934   53.7047 S   0  0  0  0  0  0  0  0  0  0  0  0
   70.1243   51.0503   52.5472 O   0  0  0  0  0  0  0  0  0  0  0  0
   71.7861   49.8369   53.8104 O   0  0  0  0  0  0  0  0  0  0  0  0
   69.5942   50.6922   55.0626 N   0  0  0  0  0  0  0  0  0  0  0  0
   70.3166   50.8340   56.2504 C   0  0  0  0  0  0  0  0  0  0  0  0
   70.4423   52.3437   56.3591 C   0  0  0  0  0  0  0  0  0  0  0  0
   69.3793   52.9184   55.4378 C   0  0  0  0  0  0  0  0  0  0  0  0
   68.6109   51.6798   54.9952 C   0  0  0  0  0  0  0  0  0  0  0  0
  7  8  2  0
  8  9  1  0
  8  1  1  0
  9 10  1  0
 10 11  2  0
 11 12  1  0
 12 13  2  0
 12 17  1  0
 13 14  1  0
 14 15  2  0
 15 16  1  0
 16 17  2  0
  1  2  2  0
  1  6  1  0
  2  3  1  0
  3  4  2  0
  4  5  1  0
  5 18  1  0
  5  6  2  0
 18 19  2  0
 18 20  2  0
 18 21  1  0
 21 22  1  0
 21 25  1  0
 22 23  1  0
 23 24  1  0
 24 25  1  0
M  END
>  <minimizedAffinity>  (249) 
-8.93327

$$$$
data/200k_reference_output/data/smiles/61263.pdb
     RDKit          3D

 24 26  0  0  0  0  0  0  0  0999 V2000
   70.5639   49.4567   53.8220 C   0  0  0  0  0  0  0  0  0  0  0  0
   70.5337   49.5808   52.4557 C   0  0  0  0  0  0  0  0  0  0  0  0
   69.7826   48.7365   51.6774 C   0  0  0  0  0  0  0  0  0  0  0  0
   69.0193   47.7217   52.2137 C   0  0  0  0  0  0  0  0  0  0  0  0
   68.2899   46.9038   51.4333 N   0  0  0  0  0  0  0  0  0  0  0  0
   67.5435   45.9137   51.9439 C   0  0  0  0  0  0  0  0  0  0  0  0
   66.8710   45.1698   51.1513 O   0  0  0  0  0  0  0  0  0  0  0  0
   67.5060   45.7082   53.2895 C   0  0  0  0  0  0  0  0  0  0  0  0
   68.2689   46.5588   54.1310 C   0  0  0  0  0  0  0  0  0  0  0  0
   69.0313   47.5713   53.6053 C   0  0  0  0  0  0  0  0  0  0  0  0
   69.7912   48.4290   54.3727 C   0  0  0  0  0  0  0  0  0  0  0  0
   71.5023   50.5034   54.8639 S   0  0  0  0  0  0  0  0  0  0  0  0
   72.5853   51.1148   54.0202 O   0  0  0  0  0  0  0  0  0  0  0  0
   72.1596   49.7404   55.9690 O   0  0  0  0  0  0  0  0  0  0  0  0
   67.0836   50.5635   57.5360 C   0  0  0  0  0  0  0  0  0  0  0  0
   68.1386   51.5371   57.0099 C   0  0  0  0  0  0  0  0  0  0  0  0
   69.4403   51.1912   57.6454 C   0  0  0  0  0  0  0  0  0  0  0  0
   70.5741   51.8449   56.9394 C   0  0  0  0  0  0  0  0  0  0  0  0
   70.5675   51.7684   55.5352 N   0  0  0  0  0  0  0  0  0  0  0  0
   69.3507   52.0243   54.8664 C   0  0  0  0  0  0  0  0  0  0  0  0
   68.1265   51.4448   55.5182 C   0  0  0  0  0  0  0  0  0  0  0  0
   68.2114   46.3195   55.5544 C   0  0  0  0  0  0  0  0  0  0  0  0
   68.5499   45.1719   56.0226 O   0  0  0  0  0  0  0  0  0  0  0  0
   67.8212   47.2162   56.4875 O   0  0  0  0  0  0  0  0  0  0  0  0
 15 16  1  0
 16 17  1  0
 16 21  1  0
 17 18  1  0
 18 19  1  0
 19 12  1  0
 19 20  1  0
 12 13  2  0
 12 14  2  0
 12  1  1  0
  1  2  2  0
  1 11  1  0
  2  3  1  0
  3  4  2  0
  4  5  1  0
  4 10  1  0
  5  6  1  0
  6  7  2  0
  6  8  1  0
  8  9  2  0
  9 22  1  0
  9 10  1  0
 22 23  2  0
 22 24  1  0
 10 11  2  0
 20 21  1  0
M  END
>  <minimizedAffinity>  (250) 
-8.93124

$$$$
data/reference_output_2/data/smiles/169014.pdb
     RDKit          3D

 28 31  0  0  0  0  0  0  0  0999 V2000
   73.5432   35.0480   55.9692 C   0  0  0  0  0  0  0  0  0  0  0  0
   72.9065   35.3923   54.7923 C   0  0  0  0  0  0  0  0  0  0  0  0
   73.6079   35.5609   53.6177 C   0  0  0  0  0  0  0  0  0  0  0  0
   74.9750   35.3993   53.5419 C   0  0  0  0  0  0  0  0  0  0  0  0
   75.6139   35.0554   54.7141 C   0  0  0  0  0  0  0  0  0  0  0  0
   74.9105   34.8868   55.8897 C   0  0  0  0  0  0  0  0  0  0  0  0
   70.1368   37.0585   60.6951 C   0  0  0  0  0  0  0  0  0  0  0  0
   70.9295   36.8827   59.4838 N   0  0  0  0  0  0  0  0  0  0  0  0
   71.2726   37.8138   58.5827 C   0  0  0  0  0  0  0  0  0  0  0  0
   72.0362   37.2239   57.5729 C   0  0  0  0  0  0  0  0  0  0  0  0
   72.1540   35.9016   57.8766 C   0  0  0  0  0  0  0  0  0  0  0  0
   72.8032   34.8760   57.2195 C   0  0  0  0  0  0  0  0  0  0  0  0
   72.7336   33.6571   57.7939 N   0  0  0  0  0  0  0  0  0  0  0  0
   72.0653   33.4489   58.9491 C   0  0  0  0  0  0  0  0  0  0  0  0
   71.4400   34.4654   59.5706 N   0  0  0  0  0  0  0  0  0  0  0  0
   71.4635   35.7182   59.0578 C   0  0  0  0  0  0  0  0  0  0  0  0
   70.9194   39.2237   58.6244 C   0  0  0  0  0  0  0  0  0  0  0  0
   69.6330   39.6609   58.2696 N   0  0  0  0  0  0  0  0  0  0  0  0
   71.7687   40.0692   58.9798 O   0  0  0  0  0  0  0  0  0  0  0  0
   75.6815   35.5793   52.3138 N   0  0  0  0  0  0  0  0  0  0  0  0
   75.7988   34.5820   51.3230 C   0  0  0  0  0  0  0  0  0  0  0  0
   75.2217   33.4721   51.5889 O   0  0  0  0  0  0  0  0  0  0  0  0
   76.5105   34.7483   50.0749 C   0  0  0  0  0  0  0  0  0  0  0  0
   76.1602   34.0754   48.9498 C   0  0  0  0  0  0  0  0  0  0  0  0
   76.8862   34.2754   47.7694 C   0  0  0  0  0  0  0  0  0  0  0  0
   77.9552   35.1468   47.7175 C   0  0  0  0  0  0  0  0  0  0  0  0
   78.2961   35.8189   48.8638 C   0  0  0  0  0  0  0  0  0  0  0  0
   77.5781   35.6128   50.0088 C   0  0  0  0  0  0  0  0  0  0  0  0
  7  8  1  0
  8  9  1  0
  8 16  1  0
  9 17  1  0
  9 10  2  0
 17 18  1  0
 17 19  2  0
 10 11  1  0
 11 12  1  0
 11 16  2  0
 12  1  1  0
 12 13  2  0
  1  2  2  0
  1  6  1  0
  2  3  1  0
  3  4  2  0
  4 20  1  0
  4  5  1  0
 20 21  1  0
 21 22  2  0
 21 23  1  0
 23 24  2  0
 23 28  1  0
 24 25  1  0
 25 26  2  0
 26 27  1  0
 27 28  2  0
  5  6  2  0
 13 14  1  0
 14 15  2  0
 15 16  1  0
M  END
>  <minimizedAffinity>  (251) 
-8.93012

$$$$
data/200k_reference_output/data/smiles/65871.pdb
     RDKit          3D

 28 31  0  0  0  0  0  0  0  0999 V2000
   73.4675   35.2440   54.4204 C   0  0  0  0  0  0  0  0  0  0  0  0
   72.3964   35.7882   54.0866 O   0  0  0  0  0  0  0  0  0  0  0  0
   73.7438   35.0546   55.7874 N   0  0  0  0  0  0  0  0  0  0  0  0
   72.9372   35.4140   56.8880 C   0  0  0  0  0  0  0  0  0  0  0  0
   72.4351   36.6507   57.1688 C   0  0  0  0  0  0  0  0  0  0  0  0
   71.6469   36.9398   58.2691 C   0  0  0  0  0  0  0  0  0  0  0  0
   71.3715   35.8998   59.1060 C   0  0  0  0  0  0  0  0  0  0  0  0
   71.8364   34.6306   58.8921 C   0  0  0  0  0  0  0  0  0  0  0  0
   72.6223   34.3799   57.7810 C   0  0  0  0  0  0  0  0  0  0  0  0
   71.3183   33.7979   60.0201 C   0  0  0  0  0  0  0  0  0  0  0  0
   70.5156   34.7416   60.8832 C   0  0  0  0  0  0  0  0  0  0  0  0
   69.9379   34.3823   61.9150 O   0  0  0  0  0  0  0  0  0  0  0  0
   70.5874   36.0163   60.2671 N   0  0  0  0  0  0  0  0  0  0  0  0
   70.0232   37.3045   60.6252 C   0  0  0  0  0  0  0  0  0  0  0  0
   69.9093   38.2248   59.4529 C   0  0  0  0  0  0  0  0  0  0  0  0
   71.1060   38.3041   58.5617 C   0  0  0  0  0  0  0  0  0  0  0  0
   73.9827   34.5625   52.2255 O   0  0  0  0  0  0  0  0  0  0  0  0
   74.4112   34.8155   53.3658 C   0  0  0  0  0  0  0  0  0  0  0  0
   75.7958   34.6785   53.5966 N   0  0  0  0  0  0  0  0  0  0  0  0
   76.7447   34.2612   52.5846 C   0  0  0  0  0  0  0  0  0  0  0  0
   77.1593   35.4561   51.7805 C   0  0  0  0  0  0  0  0  0  0  0  0
   77.1644   35.2450   50.3368 C   0  0  0  0  0  0  0  0  0  0  0  0
   76.2912   34.3412   49.7730 C   0  0  0  0  0  0  0  0  0  0  0  0
   76.2675   34.1137   48.3954 C   0  0  0  0  0  0  0  0  0  0  0  0
   77.1200   34.7872   47.5524 C   0  0  0  0  0  0  0  0  0  0  0  0
   77.0996   34.5665   46.1957 F   0  0  0  0  0  0  0  0  0  0  0  0
   77.9951   35.6925   48.1113 C   0  0  0  0  0  0  0  0  0  0  0  0
   78.0117   35.9144   49.4877 C   0  0  0  0  0  0  0  0  0  0  0  0
 17 18  2  0
 18 19  1  0
 18  1  1  0
 19 20  1  0
 20 21  1  0
 21 22  1  0
 22 23  2  0
 22 28  1  0
 23 24  1  0
 24 25  2  0
 25 26  1  0
 25 27  1  0
 27 28  2  0
  1  2  2  0
  1  3  1  0
  3  4  1  0
  4  5  2  0
  4  9  1  0
  5  6  1  0
  6  7  2  0
  6 16  1  0
  7  8  1  0
  7 13  1  0
  8  9  2  0
  8 10  1  0
 10 11  1  0
 11 12  2  0
 11 13  1  0
 13 14  1  0
 14 15  1  0
 15 16  1  0
M  END
>  <minimizedAffinity>  (252) 
-8.92978

$$$$
data/reference_output_2/data/smiles/132775.pdb
     RDKit          3D

 27 29  0  0  0  0  0  0  0  0999 V2000
   69.1659   43.8111   57.0231 N   0  0  0  0  0  0  0  0  0  0  0  0
   68.7217   42.5955   57.0213 C   0  0  0  0  0  0  0  0  0  0  0  0
   67.5440   42.1182   56.3145 C   0  0  0  0  0  0  0  0  0  0  0  0
   66.8118   42.8605   55.6097 O   0  0  0  0  0  0  0  0  0  0  0  0
   67.4460   40.7439   56.5965 N   0  0  0  0  0  0  0  0  0  0  0  0
   68.4983   40.3080   57.4488 C   0  0  0  0  0  0  0  0  0  0  0  0
   68.8431   39.0815   58.0049 C   0  0  0  0  0  0  0  0  0  0  0  0
   69.9458   38.9280   58.8199 C   0  0  0  0  0  0  0  0  0  0  0  0
   70.7143   40.0436   59.0760 C   0  0  0  0  0  0  0  0  0  0  0  0
   70.3695   41.2701   58.5199 C   0  0  0  0  0  0  0  0  0  0  0  0
   69.2660   41.4261   57.7030 C   0  0  0  0  0  0  0  0  0  0  0  0
   69.9683   46.5062   57.0731 O   0  0  0  0  0  0  0  0  0  0  0  0
   68.9745   46.1905   56.3694 C   0  0  0  0  0  0  0  0  0  0  0  0
   68.5371   44.8438   56.3167 N   0  0  0  0  0  0  0  0  0  0  0  0
   68.2594   47.2110   55.5998 C   0  0  0  0  0  0  0  0  0  0  0  0
   68.8691   47.5118   54.2980 C   0  0  0  0  0  0  0  0  0  0  0  0
   68.7075   46.7550   53.1699 C   0  0  0  0  0  0  0  0  0  0  0  0
   69.3078   47.0927   51.9796 C   0  0  0  0  0  0  0  0  0  0  0  0
   70.1045   48.2118   51.8604 C   0  0  0  0  0  0  0  0  0  0  0  0
   70.7129   48.5545   50.6581 O   0  0  0  0  0  0  0  0  0  0  0  0
   70.2669   48.9752   53.0054 C   0  0  0  0  0  0  0  0  0  0  0  0
   69.6696   48.6449   54.2036 C   0  0  0  0  0  0  0  0  0  0  0  0
   71.8430   39.9332   59.8988 O   0  0  0  0  0  0  0  0  0  0  0  0
   73.1073   39.6033   59.3530 C   0  0  0  0  0  0  0  0  0  0  0  0
   73.5588   40.7033   58.6494 F   0  0  0  0  0  0  0  0  0  0  0  0
   74.0050   39.2411   60.3507 F   0  0  0  0  0  0  0  0  0  0  0  0
   73.0286   38.5244   58.4921 F   0  0  0  0  0  0  0  0  0  0  0  0
 12 13  2  0
 13 15  1  0
 13 14  1  0
 15 16  1  0
 16 17  2  0
 16 22  1  0
 17 18  1  0
 18 19  2  0
 19 20  1  0
 19 21  1  0
 21 22  2  0
 14  1  1  0
  1  2  2  0
  2  3  1  0
  2 11  1  0
  3  4  2  0
  3  5  1  0
  5  6  1  0
  6  7  1  0
  6 11  2  0
  7  8  2  0
  8  9  1  0
  9 23  1  0
  9 10  2  0
 23 24  1  0
 24 25  1  0
 24 26  1  0
 24 27  1  0
 10 11  1  0
M  END
>  <minimizedAffinity>  (253) 
-8.92971

$$$$
data/reference_output_2/data/smiles/174070.pdb
     RDKit          3D

 27 29  0  0  0  0  0  0  0  0999 V2000
   68.4519   46.7474   53.9446 C   0  0  0  0  0  0  0  0  0  0  0  0
   68.5349   46.3378   52.6309 C   0  0  0  0  0  0  0  0  0  0  0  0
   69.2992   47.0864   51.7634 C   0  0  0  0  0  0  0  0  0  0  0  0
   69.9739   48.2271   52.1887 C   0  0  0  0  0  0  0  0  0  0  0  0
   69.8926   48.6394   53.5003 C   0  0  0  0  0  0  0  0  0  0  0  0
   69.1282   47.8814   54.3450 C   0  0  0  0  0  0  0  0  0  0  0  0
   70.6199   49.8404   53.8880 C   0  0  0  0  0  0  0  0  0  0  0  0
   71.8897   49.7689   53.7610 O   0  0  0  0  0  0  0  0  0  0  0  0
   69.9834   51.0015   54.3696 N   0  0  0  0  0  0  0  0  0  0  0  0
   70.6111   52.2339   54.7783 C   0  0  0  0  0  0  0  0  0  0  0  0
   69.5763   52.9711   55.6199 C   0  0  0  0  0  0  0  0  0  0  0  0
   68.5507   51.8816   55.9013 C   0  0  2  0  0  0  0  0  0  0  0  0
   69.1014   50.9849   56.8098 O   0  0  0  0  0  0  0  0  0  0  0  0
   68.5595   51.1645   54.5420 C   0  0  0  0  0  0  0  0  0  0  0  0
   67.6826   45.9983   54.8299 O   0  0  0  0  0  0  0  0  0  0  0  0
   70.0035   44.5761   57.3106 C   0  0  0  0  0  0  0  0  0  0  0  0
   69.3703   45.4468   56.4518 C   0  0  0  0  0  0  0  0  0  0  0  0
   68.2867   45.0645   55.6892 C   0  0  0  0  0  0  0  0  0  0  0  0
   67.8523   43.7952   55.8062 N   0  0  0  0  0  0  0  0  0  0  0  0
   68.4359   42.9086   56.6294 C   0  0  0  0  0  0  0  0  0  0  0  0
   69.5219   43.2899   57.3954 C   0  0  0  0  0  0  0  0  0  0  0  0
   67.8988   41.5195   56.7046 C   0  0  0  0  0  0  0  0  0  0  0  0
   67.5251   41.0631   55.4536 F   0  0  0  0  0  0  0  0  0  0  0  0
   66.7641   41.4690   57.4965 F   0  0  0  0  0  0  0  0  0  0  0  0
   68.8348   40.6801   57.3026 F   0  0  0  0  0  0  0  0  0  0  0  0
   70.7327   45.8561   59.2180 N   0  0  0  0  0  0  0  0  0  0  0  0
   71.1762   44.9844   58.1368 C   0  0  0  0  0  0  0  0  0  0  0  0
 26 27  1  0
 27 16  1  0
 16 17  2  0
 16 21  1  0
 17 18  1  0
 18 15  1  0
 18 19  2  0
 15  1  1  0
  1  2  2  0
  1  6  1  0
  2  3  1  0
  3  4  2  0
  4  5  1  0
  5  7  1  0
  5  6  2  0
  7  8  2  0
  7  9  1  0
  9 10  1  0
  9 14  1  0
 10 11  1  0
 11 12  1  0
 12 13  1  1
 12 14  1  0
 19 20  1  0
 20 22  1  0
 20 21  2  0
 22 23  1  0
 22 24  1  0
 22 25  1  0
M  CHG  1  26   1
M  END
>  <minimizedAffinity>  (254) 
-8.92940

$$$$
data/200k_reference_output/data/smiles/52279.pdb
     RDKit          3D

 27 30  0  0  0  0  0  0  0  0999 V2000
   70.5986   41.0547   58.6095 C   0  0  0  0  0  0  0  0  0  0  0  0
   71.3037   42.2389   58.2768 C   0  0  0  0  0  0  0  0  0  0  0  0
   70.7997   43.3905   57.6847 C   0  0  0  0  0  0  0  0  0  0  0  0
   69.3967   43.2411   57.4169 C   0  0  0  0  0  0  0  0  0  0  0  0
   68.6514   42.2679   57.6669 C   0  0  0  0  0  0  0  0  0  0  0  0
   69.0829   41.1090   58.2631 C   0  0  0  0  0  0  0  0  0  0  0  0
   69.0637   44.3366   56.4693 N   0  0  0  0  0  0  0  0  0  0  0  0
   68.1443   44.4255   55.4775 C   0  0  0  0  0  0  0  0  0  0  0  0
   67.2850   43.5275   55.2264 O   0  0  0  0  0  0  0  0  0  0  0  0
   68.2256   45.6843   54.6421 C   0  0  0  0  0  0  0  0  0  0  0  0
   67.9718   45.5462   53.2729 C   0  0  0  0  0  0  0  0  0  0  0  0
   68.3535   46.6200   52.4763 C   0  0  0  0  0  0  0  0  0  0  0  0
   68.9147   47.7434   52.8824 C   0  0  0  0  0  0  0  0  0  0  0  0
   69.1741   47.8623   54.3435 C   0  0  0  0  0  0  0  0  0  0  0  0
   68.8129   46.8227   55.1273 C   0  0  0  0  0  0  0  0  0  0  0  0
   71.4946   38.5722   58.2749 C   0  0  0  0  0  0  0  0  0  0  0  0
   70.9868   40.0000   58.4758 C   0  0  0  0  0  0  0  0  0  0  0  0
   69.7465   32.9400   61.6258 N   0  0  0  0  0  0  0  0  0  0  0  0
   70.5743   33.6087   60.7056 C   0  0  0  0  0  0  0  0  0  0  0  0
   70.3599   34.9548   60.6505 C   0  0  0  0  0  0  0  0  0  0  0  0
   70.9772   35.6733   59.6580 N   0  0  0  0  0  0  0  0  0  0  0  0
   70.9978   36.8011   59.3587 N   0  0  0  0  0  0  0  0  0  0  0  0
   71.8923   37.4077   58.0964 C   0  0  0  0  0  0  0  0  0  0  0  0
   72.4838   36.4009   57.5814 C   0  0  0  0  0  0  0  0  0  0  0  0
   72.3745   35.1144   58.0127 C   0  0  0  0  0  0  0  0  0  0  0  0
   71.7149   34.5429   58.9807 C   0  0  0  0  0  0  0  0  0  0  0  0
   71.3804   33.4726   59.7137 N   0  0  0  0  0  0  0  0  0  0  0  0
 18 19  1  0
 19 20  2  0
 19 27  1  0
 20 21  1  0
 21 22  1  0
 21 26  1  0
 22 23  2  0
 23 16  1  0
 23 24  1  0
 16 17  3  0
 17  1  1  0
  1  2  2  0
  1  6  1  0
  2  3  1  0
  3  4  2  0
  4  7  1  0
  4  5  1  0
  7  8  1  0
  8  9  2  0
  8 10  1  0
 10 11  2  0
 10 15  1  0
 11 12  1  0
 12 13  2  0
 13 14  1  0
 14 15  2  0
  5  6  2  0
 24 25  2  0
 25 26  1  0
 26 27  2  0
M  END
>  <minimizedAffinity>  (255) 
-8.92818

$$$$
data/200k_reference_output/data/smiles/24307.pdb
     RDKit          3D

 26 28  0  0  0  0  0  0  0  0999 V2000
   72.5118   50.9859   54.7995 C   0  0  0  0  0  0  0  0  0  0  0  0
   70.2911   50.9030   53.1526 O   0  0  0  0  0  0  0  0  0  0  0  0
   70.5753   49.7756   53.7180 C   0  0  0  0  0  0  0  0  0  0  0  0
   71.7020   49.7684   54.5631 N   0  0  0  0  0  0  0  0  0  0  0  0
   69.7451   48.6160   53.4590 C   0  0  0  0  0  0  0  0  0  0  0  0
   69.7309   48.1475   52.1458 C   0  0  0  0  0  0  0  0  0  0  0  0
   70.4832   48.7782   51.1662 O   0  0  0  0  0  0  0  0  0  0  0  0
   68.9876   47.0625   51.7737 C   0  0  0  0  0  0  0  0  0  0  0  0
   68.2174   46.3894   52.6951 C   0  0  0  0  0  0  0  0  0  0  0  0
   67.4691   45.3114   52.3631 F   0  0  0  0  0  0  0  0  0  0  0  0
   68.2122   46.8262   53.9867 C   0  0  0  0  0  0  0  0  0  0  0  0
   68.9789   47.9418   54.3609 C   0  0  0  0  0  0  0  0  0  0  0  0
   68.9504   48.3476   55.6419 F   0  0  0  0  0  0  0  0  0  0  0  0
   73.3115   50.7882   56.0574 C   0  0  0  0  0  0  0  0  0  0  0  0
   72.7867   52.0606   57.1958 S   0  0  0  0  0  0  0  0  0  0  0  0
   73.5870   53.2963   56.8537 O   0  0  0  0  0  0  0  0  0  0  0  0
   73.0725   51.6234   58.5834 O   0  0  0  0  0  0  0  0  0  0  0  0
   71.1347   52.4467   57.0060 N   0  0  0  0  0  0  0  0  0  0  0  0
   70.6502   53.7108   56.4443 C   0  0  0  0  0  0  0  0  0  0  0  0
   69.4531   53.2205   55.6486 C   0  0  0  0  0  0  0  0  0  0  0  0
   68.9643   52.1131   56.5272 C   0  0  0  0  0  0  0  0  0  0  0  0
   67.7360   51.4968   56.6646 C   0  0  0  0  0  0  0  0  0  0  0  0
   67.5796   50.4796   57.5788 C   0  0  0  0  0  0  0  0  0  0  0  0
   68.6316   50.0457   58.3789 C   0  0  0  0  0  0  0  0  0  0  0  0
   69.8611   50.6553   58.2497 C   0  0  0  0  0  0  0  0  0  0  0  0
   70.0016   51.6650   57.3358 C   0  0  0  0  0  0  0  0  0  0  0  0
  2  3  2  0
  3  4  1  0
  3  5  1  0
  4  1  1  0
  1 14  1  0
 14 15  1  0
 15 16  2  0
 15 17  2  0
 15 18  1  0
 18 19  1  0
 18 26  1  0
 19 20  1  0
 20 21  1  0
 21 22  1  0
 21 26  2  0
 22 23  2  0
 23 24  1  0
 24 25  2  0
 25 26  1  0
  5  6  2  0
  5 12  1  0
  6  7  1  0
  6  8  1  0
  8  9  2  0
  9 10  1  0
  9 11  1  0
 11 12  2  0
 12 13  1  0
M  END
>  <minimizedAffinity>  (256) 
-8.92645

$$$$
data/200k_reference_output/data/smiles/66908.pdb
     RDKit          3D

 24 26  0  0  0  0  0  0  0  0999 V2000
   72.4223   39.9226   59.5347 C   0  0  0  0  0  0  0  0  0  0  0  0
   71.1094   40.0485   58.8523 C   0  0  0  0  0  0  0  0  0  0  0  0
   70.2373   38.9626   58.7460 C   0  0  0  0  0  0  0  0  0  0  0  0
   69.0221   39.0858   58.1127 C   0  0  0  0  0  0  0  0  0  0  0  0
   68.6719   40.3061   57.5789 C   0  0  0  0  0  0  0  0  0  0  0  0
   69.5152   41.4070   57.6660 C   0  0  0  0  0  0  0  0  0  0  0  0
   70.7259   41.2534   58.3067 C   0  0  0  0  0  0  0  0  0  0  0  0
   71.9297   42.7216   58.4624 Br  0  0  0  0  0  0  0  0  0  0  0  0
   68.8861   42.5415   57.0205 C   0  0  0  0  0  0  0  0  0  0  0  0
   69.3396   43.7568   56.8833 N   0  0  0  0  0  0  0  0  0  0  0  0
   67.6019   42.0810   56.5266 C   0  0  0  0  0  0  0  0  0  0  0  0
   66.7540   42.7620   55.9082 O   0  0  0  0  0  0  0  0  0  0  0  0
   67.4930   40.6871   56.8868 N   0  0  0  0  0  0  0  0  0  0  0  0
   68.5588   44.7192   56.2148 N   0  0  0  0  0  0  0  0  0  0  0  0
   68.9820   46.0725   56.3122 C   0  0  0  0  0  0  0  0  0  0  0  0
   70.0142   46.3623   56.9744 O   0  0  0  0  0  0  0  0  0  0  0  0
   68.2145   47.1782   55.6333 C   0  0  0  0  0  0  0  0  0  0  0  0
   68.8246   47.5063   54.3283 C   0  0  0  0  0  0  0  0  0  0  0  0
   68.6481   46.7549   53.1930 C   0  0  0  0  0  0  0  0  0  0  0  0
   69.2444   47.1114   52.0013 C   0  0  0  0  0  0  0  0  0  0  0  0
   70.0405   48.2303   51.8921 C   0  0  0  0  0  0  0  0  0  0  0  0
   70.6559   48.6143   50.7036 O   0  0  0  0  0  0  0  0  0  0  0  0
   70.2222   48.9880   53.0307 C   0  0  0  0  0  0  0  0  0  0  0  0
   69.6207   48.6302   54.2339 C   0  0  0  0  0  0  0  0  0  0  0  0
  1  2  1  0
  2  3  2  0
  2  7  1  0
  3  4  1  0
  4  5  2  0
  5  6  1  0
  5 13  1  0
  6  7  2  0
  6  9  1  0
  7  8  1  0
  9 10  2  0
  9 11  1  0
 10 14  1  0
 14 15  1  0
 15 16  2  0
 15 17  1  0
 17 18  1  0
 18 19  2  0
 18 24  1  0
 19 20  1  0
 20 21  2  0
 21 22  1  0
 21 23  1  0
 23 24  2  0
 11 12  2  0
 11 13  1  0
M  END
>  <minimizedAffinity>  (257) 
-8.92635

$$$$
data/reference_output_2/data/smiles/158489.pdb
     RDKit          3D

 25 27  0  0  0  0  0  0  0  0999 V2000
   68.5014   46.1747   54.0795 C   0  0  0  0  0  0  0  0  0  0  0  0
   68.1373   45.8426   52.7850 C   0  0  0  0  0  0  0  0  0  0  0  0
   68.3947   46.7019   51.7087 C   0  0  0  0  0  0  0  0  0  0  0  0
   69.0242   47.9074   51.9381 C   0  0  0  0  0  0  0  0  0  0  0  0
   69.4011   48.2726   53.2116 C   0  0  0  0  0  0  0  0  0  0  0  0
   69.1265   47.3943   54.2348 C   0  0  0  0  0  0  0  0  0  0  0  0
   68.5178   45.7579   56.3630 O   0  0  0  0  0  0  0  0  0  0  0  0
   68.2503   45.3060   55.2246 C   0  0  0  0  0  0  0  0  0  0  0  0
   67.7319   44.0003   55.1490 N   0  0  0  0  0  0  0  0  0  0  0  0
   67.4891   43.1640   56.2300 N   0  0  0  0  0  0  0  0  0  0  0  0
   67.9079   41.9524   56.3122 C   0  0  0  0  0  0  0  0  0  0  0  0
   67.6106   41.1449   57.4760 C   0  0  0  0  0  0  0  0  0  0  0  0
   68.1058   39.8745   57.6613 C   0  0  0  0  0  0  0  0  0  0  0  0
   67.7920   39.1484   58.7870 C   0  0  0  0  0  0  0  0  0  0  0  0
   66.9627   39.6799   59.7712 C   0  0  0  0  0  0  0  0  0  0  0  0
   66.4923   40.9196   59.5668 N   0  0  0  0  0  0  0  0  0  0  0  0
   66.7924   41.6486   58.4626 C   0  0  0  0  0  0  0  0  0  0  0  0
   70.2061   49.8133   53.5008 S   0  0  0  0  0  0  0  0  0  0  0  0
   69.9945   50.6553   52.2782 O   0  0  0  0  0  0  0  0  0  0  0  0
   71.6585   49.6273   53.7675 O   0  0  0  0  0  0  0  0  0  0  0  0
   69.5170   50.6419   54.8374 N   0  0  0  0  0  0  0  0  0  0  0  0
   70.3461   50.6320   56.0068 C   0  0  0  0  0  0  0  0  0  0  0  0
   69.7186   51.7031   56.8735 C   0  0  0  0  0  0  0  0  0  0  0  0
   68.8693   52.5551   55.9316 C   0  0  0  0  0  0  0  0  0  0  0  0
   69.3664   52.0644   54.5802 C   0  0  0  0  0  0  0  0  0  0  0  0
  7  8  2  0
  8  9  1  0
  8  1  1  0
  9 10  1  0
 10 11  2  0
 11 12  1  0
 12 13  2  0
 12 17  1  0
 13 14  1  0
 14 15  2  0
 15 16  1  0
 16 17  2  0
  1  2  2  0
  1  6  1  0
  2  3  1  0
  3  4  2  0
  4  5  1  0
  5 18  1  0
  5  6  2  0
 18 19  2  0
 18 20  2  0
 18 21  1  0
 21 22  1  0
 21 25  1  0
 22 23  1  0
 23 24  1  0
 24 25  1  0
M  END
>  <minimizedAffinity>  (258) 
-8.92556

$$$$
data/200k_reference_output/data/smiles/13293.pdb
     RDKit          3D

 27 30  0  0  0  0  0  0  0  0999 V2000
   67.9618   43.7955   55.9945 N   0  0  0  0  0  0  0  0  0  0  0  0
   68.7582   43.1231   56.9848 C   0  0  0  0  0  0  0  0  0  0  0  0
   69.5774   43.8551   57.6253 O   0  0  0  0  0  0  0  0  0  0  0  0
   68.6739   41.6966   57.2809 C   0  0  0  0  0  0  0  0  0  0  0  0
   67.6454   40.8622   57.1991 N   0  0  0  0  0  0  0  0  0  0  0  0
   68.0597   39.6740   57.6227 N   0  0  0  0  0  0  0  0  0  0  0  0
   69.3545   39.7203   57.9838 C   0  0  0  0  0  0  0  0  0  0  0  0
   69.7717   41.0038   57.7750 C   0  0  0  0  0  0  0  0  0  0  0  0
   71.1976   41.0983   58.1591 C   0  0  0  0  0  0  0  0  0  0  0  0
   71.5683   39.7657   58.6480 C   0  0  0  0  0  0  0  0  0  0  0  0
   72.7593   39.3033   59.1501 C   0  0  0  0  0  0  0  0  0  0  0  0
   72.9289   37.9798   59.5694 C   0  0  0  0  0  0  0  0  0  0  0  0
   74.1202   37.5634   60.0628 F   0  0  0  0  0  0  0  0  0  0  0  0
   71.8228   37.1664   59.4433 C   0  0  0  0  0  0  0  0  0  0  0  0
   70.6304   37.6359   58.9389 C   0  0  0  0  0  0  0  0  0  0  0  0
   70.4848   38.9402   58.5339 C   0  0  0  0  0  0  0  0  0  0  0  0
   68.4511   45.8776   54.9133 C   0  0  0  0  0  0  0  0  0  0  0  0
   68.1143   45.1745   55.7958 N   0  0  0  0  0  0  0  0  0  0  0  0
   69.5103   49.0777   53.4075 C   0  0  0  0  0  0  0  0  0  0  0  0
   69.1814   48.1010   54.2783 C   0  0  0  0  0  0  0  0  0  0  0  0
   68.8496   46.7665   53.8805 C   0  0  0  0  0  0  0  0  0  0  0  0
   68.8988   46.5800   52.5364 C   0  0  0  0  0  0  0  0  0  0  0  0
   69.2310   47.5438   51.5902 C   0  0  0  0  0  0  0  0  0  0  0  0
   69.5336   48.7897   52.0334 C   0  0  0  0  0  0  0  0  0  0  0  0
   69.8653   49.7733   51.1496 O   0  0  0  0  0  0  0  0  0  0  0  0
   68.9558   51.2936   54.3363 C   0  0  0  0  0  0  0  0  0  0  0  0
   69.8383   50.3737   53.7538 O   0  0  0  0  0  0  0  0  0  0  0  0
 26 27  1  0
 27 19  1  0
 19 20  2  0
 19 24  1  0
 20 21  1  0
 21 17  1  0
 21 22  2  0
 17 18  2  0
 18  1  1  0
  1  2  1  0
  2  3  2  0
  2  4  1  0
  4  5  2  0
  4  8  1  0
  5  6  1  0
  6  7  1  0
  7  8  2  0
  7 16  1  0
  8  9  1  0
  9 10  1  0
 10 11  1  0
 10 16  2  0
 11 12  2  0
 12 13  1  0
 12 14  1  0
 14 15  2  0
 15 16  1  0
 22 23  1  0
 23 24  2  0
 24 25  1  0
M  END
>  <minimizedAffinity>  (259) 
-8.92548

$$$$
data/200k_reference_output/data/smiles/18412.pdb
     RDKit          3D

 26 29  0  0  0  0  0  0  0  0999 V2000
   69.4500   48.0825   57.0172 C   0  0  0  0  0  0  0  0  0  0  0  0
   68.7251   49.2394   57.3235 C   0  0  0  0  0  0  0  0  0  0  0  0
   69.2003   50.1761   58.2144 C   0  0  0  0  0  0  0  0  0  0  0  0
   70.4172   49.9933   58.8354 C   0  0  0  0  0  0  0  0  0  0  0  0
   71.1521   48.8602   58.5519 C   0  0  0  0  0  0  0  0  0  0  0  0
   70.6565   47.9481   57.6632 C   0  0  0  0  0  0  0  0  0  0  0  0
   69.3888   47.9277   52.4239 C   0  0  0  0  0  0  0  0  0  0  0  0
   68.7465   46.8054   51.9463 C   0  0  0  0  0  0  0  0  0  0  0  0
   68.2061   45.8734   52.8123 C   0  0  0  0  0  0  0  0  0  0  0  0
   68.3021   46.0537   54.1691 C   0  0  0  0  0  0  0  0  0  0  0  0
   67.8912   45.3484   55.2332 N   0  0  0  0  0  0  0  0  0  0  0  0
   68.2490   45.9833   56.3606 N   0  0  0  0  0  0  0  0  0  0  0  0
   68.9045   47.1210   56.0699 C   0  0  0  0  0  0  0  0  0  0  0  0
   68.9421   47.1721   54.6930 C   0  0  0  0  0  0  0  0  0  0  0  0
   69.4713   48.0843   53.7898 C   0  0  0  0  0  0  0  0  0  0  0  0
   69.7299   50.3325   51.7408 N   0  0  0  0  0  0  0  0  0  0  0  0
   69.9749   48.9408   51.5626 C   0  0  0  0  0  0  0  0  0  0  0  0
   70.7323   48.6236   50.6120 O   0  0  0  0  0  0  0  0  0  0  0  0
   72.4021   48.7136   59.2151 N   0  0  0  0  0  0  0  0  0  0  0  0
   72.6014   47.8610   60.3173 C   0  0  0  0  0  0  0  0  0  0  0  0
   71.6231   47.1926   60.7406 O   0  0  0  0  0  0  0  0  0  0  0  0
   73.9505   47.7642   60.9578 C   0  0  1  0  0  0  0  0  0  0  0  0
   73.8820   47.7700   62.4517 C   0  0  0  0  0  0  0  0  0  0  0  0
   74.3149   46.3444   62.7859 C   0  0  0  0  0  0  0  0  0  0  0  0
   74.0984   45.6070   61.6350 O   0  0  0  0  0  0  0  0  0  0  0  0
   74.5084   46.4041   60.5952 C   0  0  0  0  0  0  0  0  0  0  0  0
 16 17  1  0
 17 18  2  0
 17  7  1  0
  7  8  2  0
  7 15  1  0
  8  9  1  0
  9 10  2  0
 10 11  1  0
 10 14  1  0
 11 12  1  0
 12 13  2  0
 13  1  1  0
 13 14  1  0
  1  2  2  0
  1  6  1  0
  2  3  1  0
  3  4  2  0
  4  5  1  0
  5 19  1  0
  5  6  2  0
 19 20  1  0
 20 21  2  0
 22 20  1  6
 22 23  1  0
 22 26  1  0
 23 24  1  0
 24 25  1  0
 25 26  1  0
 14 15  2  0
M  END
>  <minimizedAffinity>  (260) 
-8.92513

$$$$
data/200k_reference_output/data/smiles/22459.pdb
     RDKit          3D

 29 32  0  0  0  0  0  0  0  0999 V2000
   70.9043   49.8947   58.2223 C   0  0  0  0  0  0  0  0  0  0  0  0
   69.8488   50.3932   58.6910 O   0  0  0  0  0  0  0  0  0  0  0  0
   70.7939   49.1267   57.0309 N   0  0  0  0  0  0  0  0  0  0  0  0
   73.1265   48.0780   58.4117 N   0  0  0  0  0  0  0  0  0  0  0  0
   72.6843   48.8483   59.5559 C   0  0  0  0  0  0  0  0  0  0  0  0
   72.1729   50.1278   58.9204 C   0  0  1  0  0  0  0  0  0  0  0  0
   73.2665   50.4279   57.9386 C   0  0  0  0  0  0  0  0  0  0  0  0
   73.6568   49.0333   57.5084 C   0  0  0  0  0  0  0  0  0  0  0  0
   74.3558   48.7588   56.4925 O   0  0  0  0  0  0  0  0  0  0  0  0
   72.7384   42.3580   57.8963 C   0  0  0  0  0  0  0  0  0  0  0  0
   72.8531   43.8383   58.0275 C   0  0  0  0  0  0  0  0  0  0  0  0
   74.0679   44.4814   58.0792 C   0  0  0  0  0  0  0  0  0  0  0  0
   74.1476   45.8756   58.2034 C   0  0  0  0  0  0  0  0  0  0  0  0
   73.0145   46.6572   58.2789 C   0  0  0  0  0  0  0  0  0  0  0  0
   71.8096   45.9946   58.2245 C   0  0  0  0  0  0  0  0  0  0  0  0
   71.7169   44.6136   58.1020 C   0  0  0  0  0  0  0  0  0  0  0  0
   70.3770   43.9437   58.0490 C   0  0  0  0  0  0  0  0  0  0  0  0
   69.4961   48.9293   56.3781 C   0  0  0  0  0  0  0  0  0  0  0  0
   69.7320   48.8772   54.9165 C   0  0  0  0  0  0  0  0  0  0  0  0
   70.5043   49.7797   54.2835 N   0  0  0  0  0  0  0  0  0  0  0  0
   70.7308   49.7425   52.9833 N   0  0  0  0  0  0  0  0  0  0  0  0
   70.1932   48.7845   52.2159 C   0  0  0  0  0  0  0  0  0  0  0  0
   70.4370   48.7824   50.9603 O   0  0  0  0  0  0  0  0  0  0  0  0
   69.3867   47.8139   52.7729 C   0  0  0  0  0  0  0  0  0  0  0  0
   68.8332   46.8298   51.9780 C   0  0  0  0  0  0  0  0  0  0  0  0
   68.0292   45.8765   52.5721 C   0  0  0  0  0  0  0  0  0  0  0  0
   67.7986   45.9248   53.9306 C   0  0  0  0  0  0  0  0  0  0  0  0
   68.3560   46.9080   54.7036 C   0  0  0  0  0  0  0  0  0  0  0  0
   69.1651   47.8794   54.1493 C   0  0  0  0  0  0  0  0  0  0  0  0
 10 11  1  0
 11 12  2  0
 11 16  1  0
 12 13  1  0
 13 14  2  0
 14  4  1  0
 14 15  1  0
  4  5  1  0
  4  8  1  0
  5  6  1  0
  6  1  1  6
  6  7  1  0
  1  2  2  0
  1  3  1  0
  3 18  1  0
 18 19  1  0
 19 20  2  0
 19 29  1  0
 20 21  1  0
 21 22  1  0
 22 23  2  0
 22 24  1  0
 24 25  1  0
 24 29  2  0
 25 26  2  0
 26 27  1  0
 27 28  2  0
 28 29  1  0
  7  8  1  0
  8  9  2  0
 15 16  2  0
 16 17  1  0
M  END
>  <minimizedAffinity>  (261) 
-8.92208

$$$$
data/reference_output_2/data/smiles/180319.pdb
     RDKit          3D

 27 29  0  0  0  0  0  0  0  0999 V2000
   68.7417   43.2649   56.7561 C   0  0  0  0  0  0  0  0  0  0  0  0
   67.8083   42.4784   56.0996 C   0  0  0  0  0  0  0  0  0  0  0  0
   67.5250   41.1957   56.5259 C   0  0  0  0  0  0  0  0  0  0  0  0
   68.1726   40.6814   57.6178 C   0  0  0  0  0  0  0  0  0  0  0  0
   67.8003   39.0613   58.1390 Cl  0  0  0  0  0  0  0  0  0  0  0  0
   69.1191   41.4605   58.2952 C   0  0  0  0  0  0  0  0  0  0  0  0
   69.4045   42.7583   57.8626 C   0  0  0  0  0  0  0  0  0  0  0  0
   70.3528   43.5727   58.5529 C   0  0  0  0  0  0  0  0  0  0  0  0
   69.8005   44.4436   59.3754 O   0  0  0  0  0  0  0  0  0  0  0  0
   71.7306   43.6538   58.5506 N   0  0  0  0  0  0  0  0  0  0  0  0
   72.3774   44.6461   59.4293 C   0  0  0  0  0  0  0  0  0  0  0  0
   73.2435   45.5014   58.5310 C   0  0  0  0  0  0  0  0  0  0  0  0
   74.1923   44.7347   57.8580 O   0  0  0  0  0  0  0  0  0  0  0  0
   74.0598   43.3933   58.0731 C   0  0  0  0  0  0  0  0  0  0  0  0
   72.6266   42.8789   57.7729 C   0  0  0  0  0  0  0  0  0  0  0  0
   67.5030   44.5033   54.6592 O   0  0  0  0  0  0  0  0  0  0  0  0
   68.3922   45.2158   55.2342 C   0  0  0  0  0  0  0  0  0  0  0  0
   69.0418   44.5777   56.3283 N   0  0  0  0  0  0  0  0  0  0  0  0
   68.6923   46.5608   54.7885 C   0  0  0  0  0  0  0  0  0  0  0  0
   68.5805   47.5940   55.6950 C   0  0  0  0  0  0  0  0  0  0  0  0
   68.8579   48.9151   55.3192 C   0  0  0  0  0  0  0  0  0  0  0  0
   69.2454   49.1877   54.0339 C   0  0  0  0  0  0  0  0  0  0  0  0
   69.3645   48.1715   53.1126 C   0  0  0  0  0  0  0  0  0  0  0  0
   69.0859   46.8968   53.5164 C   0  0  0  0  0  0  0  0  0  0  0  0
   69.7623   48.4143   51.7788 N   0  0  0  0  0  0  0  0  0  0  0  0
   69.8247   49.5615   51.3272 O   0  0  0  0  0  0  0  0  0  0  0  0
   70.0831   47.3547   50.9788 O   0  0  0  0  0  0  0  0  0  0  0  0
 16 17  2  0
 17 18  1  0
 17 19  1  0
 18  1  1  0
  1  2  2  0
  1  7  1  0
  2  3  1  0
  3  4  2  0
  4  5  1  0
  4  6  1  0
  6  7  2  0
  7  8  1  0
  8  9  2  0
  8 10  1  0
 10 11  1  0
 10 15  1  0
 11 12  1  0
 12 13  1  0
 13 14  1  0
 14 15  1  0
 19 20  2  0
 19 24  1  0
 20 21  1  0
 21 22  2  0
 22 23  1  0
 23 25  1  0
 23 24  2  0
 25 26  2  0
 25 27  1  0
M  CHG  2  25   1  27  -1
M  END
>  <minimizedAffinity>  (262) 
-8.92170

$$$$
data/reference_output_2/data/smiles/179967.pdb
     RDKit          3D

 27 31  0  0  0  0  0  0  0  0999 V2000
   75.6694   35.1736   56.3316 N   0  0  0  0  0  0  0  0  0  0  0  0
   74.7043   35.3774   55.3119 C   0  0  0  0  0  0  0  0  0  0  0  0
   75.0015   35.4447   53.9450 C   0  0  0  0  0  0  0  0  0  0  0  0
   73.7978   35.6473   53.3571 C   0  0  0  0  0  0  0  0  0  0  0  0
   72.8403   35.6963   54.3312 N   0  0  0  0  0  0  0  0  0  0  0  0
   73.3869   35.5339   55.5165 N   0  0  0  0  0  0  0  0  0  0  0  0
   72.7599   35.5170   56.7874 C   0  0  0  0  0  0  0  0  0  0  0  0
   72.3386   36.6865   57.3571 C   0  0  0  0  0  0  0  0  0  0  0  0
   71.7157   36.6930   58.6135 C   0  0  0  0  0  0  0  0  0  0  0  0
   71.5377   35.4824   59.2641 C   0  0  0  0  0  0  0  0  0  0  0  0
   70.9832   35.2028   60.4529 N   0  0  0  0  0  0  0  0  0  0  0  0
   71.0628   33.8728   60.6099 C   0  0  0  0  0  0  0  0  0  0  0  0
   70.6449   33.2142   61.6129 O   0  0  0  0  0  0  0  0  0  0  0  0
   71.6553   33.3181   59.5464 N   0  0  0  0  0  0  0  0  0  0  0  0
   71.9550   34.3077   58.7020 C   0  0  0  0  0  0  0  0  0  0  0  0
   72.5779   34.3300   57.4407 C   0  0  0  0  0  0  0  0  0  0  0  0
   76.3154   35.3531   53.3643 C   0  0  0  0  0  0  0  0  0  0  0  0
   77.3534   35.3894   54.1350 O   0  0  0  0  0  0  0  0  0  0  0  0
   76.6115   35.2207   51.9505 C   0  0  0  0  0  0  0  0  0  0  0  0
   75.9465   34.3526   51.0632 C   0  0  0  0  0  0  0  0  0  0  0  0
   76.4382   34.4923   49.7913 C   0  0  0  0  0  0  0  0  0  0  0  0
   76.1632   33.9089   48.5685 C   0  0  0  0  0  0  0  0  0  0  0  0
   76.8346   34.2533   47.4163 C   0  0  0  0  0  0  0  0  0  0  0  0
   77.8144   35.2207   47.5203 C   0  0  0  0  0  0  0  0  0  0  0  0
   78.1089   35.8219   48.7418 C   0  0  0  0  0  0  0  0  0  0  0  0
   77.4149   35.4534   49.8789 C   0  0  0  0  0  0  0  0  0  0  0  0
   77.4967   35.8705   51.1761 N   0  0  0  0  0  0  0  0  0  0  0  0
  1  2  1  0
  2  3  2  0
  2  6  1  0
  3 17  1  0
  3  4  1  0
 17 18  2  0
 17 19  1  0
 19 20  2  0
 19 27  1  0
 20 21  1  0
 21 22  2  0
 21 26  1  0
 22 23  1  0
 23 24  2  0
 24 25  1  0
 25 26  2  0
 26 27  1  0
  4  5  2  0
  5  6  1  0
  6  7  1  0
  7  8  2  0
  7 16  1  0
  8  9  1  0
  9 10  2  0
 10 11  1  0
 10 15  1  0
 11 12  1  0
 12 13  2  0
 12 14  1  0
 14 15  1  0
 15 16  2  0
M  CHG  1  11   1
M  END
>  <minimizedAffinity>  (263) 
-8.92128

$$$$
data/reference_output_2/data/smiles/90754.pdb
     RDKit          3D

 28 31  0  0  0  0  0  0  0  0999 V2000
   68.9722   43.5095   57.3486 N   0  0  0  0  0  0  0  0  0  0  0  0
   70.1896   43.7633   57.7415 C   0  0  0  0  0  0  0  0  0  0  0  0
   71.2269   42.7510   58.0003 C   0  0  0  0  0  0  0  0  0  0  0  0
   72.5345   43.5161   57.8806 C   0  0  0  0  0  0  0  0  0  0  0  0
   72.1778   44.9456   58.0985 C   0  0  0  0  0  0  0  0  0  0  0  0
   72.9662   46.0449   58.3495 C   0  0  0  0  0  0  0  0  0  0  0  0
   72.4146   47.3105   58.5245 C   0  0  0  0  0  0  0  0  0  0  0  0
   71.0488   47.4165   58.4366 C   0  0  0  0  0  0  0  0  0  0  0  0
   70.2443   46.2963   58.1822 C   0  0  0  0  0  0  0  0  0  0  0  0
   70.8065   45.0563   58.0117 C   0  0  0  0  0  0  0  0  0  0  0  0
   68.6108   42.1706   57.1552 N   0  0  0  0  0  0  0  0  0  0  0  0
   66.8345   42.6713   55.7534 N   0  0  0  0  0  0  0  0  0  0  0  0
   67.6354   41.7553   56.2137 C   0  0  0  0  0  0  0  0  0  0  0  0
   67.4921   40.4291   55.7600 N   0  0  0  0  0  0  0  0  0  0  0  0
   70.4090   48.6625   58.6180 N   0  0  0  0  0  0  0  0  0  0  0  0
   69.3297   49.4406   57.5705 S   0  0  0  0  0  0  0  0  0  0  0  0
   69.5811   50.9432   57.5702 O   0  0  0  0  0  0  0  0  0  0  0  0
   67.9125   49.2558   58.0664 O   0  0  0  0  0  0  0  0  0  0  0  0
   69.3500   48.8848   55.9246 C   0  0  0  0  0  0  0  0  0  0  0  0
   70.0939   49.5180   54.9658 C   0  0  0  0  0  0  0  0  0  0  0  0
   70.0999   49.0708   53.6757 C   0  0  0  0  0  0  0  0  0  0  0  0
   69.3445   47.9682   53.3418 C   0  0  0  0  0  0  0  0  0  0  0  0
   69.3377   47.4950   52.0256 C   0  0  0  0  0  0  0  0  0  0  0  0
   68.5975   46.3981   51.6535 C   0  0  0  0  0  0  0  0  0  0  0  0
   67.8438   45.7507   52.6065 C   0  0  0  0  0  0  0  0  0  0  0  0
   67.8129   46.1785   53.9311 C   0  0  0  0  0  0  0  0  0  0  0  0
   68.5724   47.2868   54.2691 C   0  0  0  0  0  0  0  0  0  0  0  0
   68.6033   47.7839   55.5591 C   0  0  0  0  0  0  0  0  0  0  0  0
 12 13  2  0
 13 14  1  0
 13 11  1  0
 11  1  1  0
  1  2  2  0
  2  3  1  0
  2 10  1  0
  3  4  1  0
  4  5  1  0
  5  6  2  0
  5 10  1  0
  6  7  1  0
  7  8  2  0
  8 15  1  0
  8  9  1  0
 15 16  1  0
 16 17  2  0
 16 18  2  0
 16 19  1  0
 19 20  2  0
 19 28  1  0
 20 21  1  0
 21 22  2  0
 22 23  1  0
 22 27  1  0
 23 24  2  0
 24 25  1  0
 25 26  2  0
 26 27  1  0
 27 28  2  0
  9 10  2  0
M  CHG  1  12   1
M  END
>  <minimizedAffinity>  (264) 
-8.91960

$$$$
data/reference_output_2/data/smiles/89625.pdb
     RDKit          3D

 28 31  0  0  0  0  0  0  0  0999 V2000
   69.0947   48.2448   56.9405 C   0  0  0  0  0  0  0  0  0  0  0  0
   68.2399   49.2500   57.3362 C   0  0  0  0  0  0  0  0  0  0  0  0
   68.6317   50.2086   58.2548 C   0  0  0  0  0  0  0  0  0  0  0  0
   69.8922   50.1645   58.7870 C   0  0  0  0  0  0  0  0  0  0  0  0
   70.7852   49.1702   58.4188 C   0  0  0  0  0  0  0  0  0  0  0  0
   70.3579   48.2413   57.5057 C   0  0  0  0  0  0  0  0  0  0  0  0
   69.4130   47.9417   52.3565 C   0  0  0  0  0  0  0  0  0  0  0  0
   68.8863   46.7689   51.8587 C   0  0  0  0  0  0  0  0  0  0  0  0
   68.3420   45.8403   52.7122 C   0  0  0  0  0  0  0  0  0  0  0  0
   68.3119   46.0610   54.0681 C   0  0  0  0  0  0  0  0  0  0  0  0
   67.8659   45.3792   55.1455 N   0  0  0  0  0  0  0  0  0  0  0  0
   68.0900   46.0633   56.2580 N   0  0  0  0  0  0  0  0  0  0  0  0
   68.6940   47.2298   55.9734 C   0  0  0  0  0  0  0  0  0  0  0  0
   68.8395   47.2423   54.6053 C   0  0  0  0  0  0  0  0  0  0  0  0
   69.3770   48.1529   53.7271 C   0  0  0  0  0  0  0  0  0  0  0  0
   69.7141   50.2853   51.6422 N   0  0  0  0  0  0  0  0  0  0  0  0
   69.9866   48.9198   51.4516 C   0  0  0  0  0  0  0  0  0  0  0  0
   70.7189   48.5416   50.5114 O   0  0  0  0  0  0  0  0  0  0  0  0
   72.1105   49.1305   58.9839 N   0  0  0  0  0  0  0  0  0  0  0  0
   72.4065   48.2467   60.0557 C   0  0  0  0  0  0  0  0  0  0  0  0
   71.5186   47.4971   60.5176 O   0  0  0  0  0  0  0  0  0  0  0  0
   73.7581   48.1723   60.6671 C   0  0  0  0  0  0  0  0  0  0  0  0
   74.6776   49.1808   60.0935 C   0  0  0  0  0  0  0  0  0  0  0  0
   74.4979   50.5201   60.2998 C   0  0  0  0  0  0  0  0  0  0  0  0
   75.3703   51.4253   59.7547 C   0  0  0  0  0  0  0  0  0  0  0  0
   76.4019   50.9838   59.0154 N   0  0  0  0  0  0  0  0  0  0  0  0
   76.5986   49.6705   58.7995 C   0  0  0  0  0  0  0  0  0  0  0  0
   75.7366   48.7393   59.3369 C   0  0  0  0  0  0  0  0  0  0  0  0
 16 17  1  0
 17 18  2  0
 17  7  1  0
  7  8  2  0
  7 15  1  0
  8  9  1  0
  9 10  2  0
 10 11  1  0
 10 14  1  0
 11 12  1  0
 12 13  2  0
 13  1  1  0
 13 14  1  0
  1  2  2  0
  1  6  1  0
  2  3  1  0
  3  4  2  0
  4  5  1  0
  5 19  1  0
  5  6  2  0
 19 20  1  0
 20 21  2  0
 20 22  1  0
 22 23  1  0
 23 24  2  0
 23 28  1  0
 24 25  1  0
 25 26  2  0
 26 27  1  0
 27 28  2  0
 14 15  2  0
M  END
>  <minimizedAffinity>  (265) 
-8.91927

$$$$
data/reference_output_2/data/smiles/127500.pdb
     RDKit          3D

 27 29  0  0  0  0  0  0  0  0999 V2000
   71.7811   50.8437   54.2745 C   0  0  0  0  0  0  0  0  0  0  0  0
   71.1044   49.7392   53.9070 N   0  0  0  0  0  0  0  0  0  0  0  0
   69.8180   49.6447   53.7710 N   0  0  0  0  0  0  0  0  0  0  0  0
   69.0476   50.7195   54.0060 C   0  0  0  0  0  0  0  0  0  0  0  0
   69.6414   51.8979   54.3872 C   0  0  0  0  0  0  0  0  0  0  0  0
   71.0270   51.9541   54.5211 C   0  0  0  0  0  0  0  0  0  0  0  0
   71.5526   53.0281   54.8669 O   0  0  0  0  0  0  0  0  0  0  0  0
   69.1959   48.3919   53.3664 C   0  0  0  0  0  0  0  0  0  0  0  0
   68.5479   47.5997   54.2724 C   0  0  0  0  0  0  0  0  0  0  0  0
   67.9588   46.4113   53.8833 C   0  0  0  0  0  0  0  0  0  0  0  0
   68.0100   45.9939   52.5632 C   0  0  0  0  0  0  0  0  0  0  0  0
   67.4307   44.8297   52.1919 F   0  0  0  0  0  0  0  0  0  0  0  0
   68.6615   46.7858   51.6383 C   0  0  0  0  0  0  0  0  0  0  0  0
   69.2423   47.9693   52.0553 C   0  0  0  0  0  0  0  0  0  0  0  0
   74.0393   51.2980   55.4126 N   0  0  0  0  0  0  0  0  0  0  0  0
   73.2452   50.7876   54.3845 C   0  0  0  0  0  0  0  0  0  0  0  0
   73.8571   50.2147   53.4448 O   0  0  0  0  0  0  0  0  0  0  0  0
   76.1309   50.0412   55.8388 C   0  0  0  0  0  0  0  0  0  0  0  0
   75.4137   49.0553   56.1591 O   0  0  0  0  0  0  0  0  0  0  0  0
   75.4531   51.2062   55.4516 N   0  0  0  0  0  0  0  0  0  0  0  0
   81.8798   49.4414   55.9822 C   0  0  0  0  0  0  0  0  0  0  0  0
   80.3909   49.6107   55.9561 C   0  0  0  0  0  0  0  0  0  0  0  0
   79.5973   48.7366   55.2450 C   0  0  0  0  0  0  0  0  0  0  0  0
   78.2129   48.8864   55.2138 C   0  0  0  0  0  0  0  0  0  0  0  0
   77.5843   49.9111   55.8899 C   0  0  0  0  0  0  0  0  0  0  0  0
   78.3930   50.7726   56.5941 C   0  0  0  0  0  0  0  0  0  0  0  0
   79.7698   50.6365   56.6342 C   0  0  0  0  0  0  0  0  0  0  0  0
 21 22  1  0
 22 23  2  0
 22 27  1  0
 23 24  1  0
 24 25  2  0
 25 18  1  0
 25 26  1  0
 18 19  2  0
 18 20  1  0
 20 15  1  0
 15 16  1  0
 16 17  2  0
 16  1  1  0
  1  2  2  0
  1  6  1  0
  2  3  1  0
  3  8  1  0
  3  4  1  0
  8  9  2  0
  8 14  1  0
  9 10  1  0
 10 11  2  0
 11 12  1  0
 11 13  1  0
 13 14  2  0
  4  5  2  0
  5  6  1  0
  6  7  2  0
 26 27  2  0
M  END
>  <minimizedAffinity>  (266) 
-8.91756

$$$$
data/reference_output_2/data/smiles/123904.pdb
     RDKit          3D

 20 21  0  0  0  0  0  0  0  0999 V2000
   69.0099   46.3982   56.9735 N   0  0  0  0  0  0  0  0  0  0  0  0
   68.6137   47.2915   56.1467 C   0  0  0  0  0  0  0  0  0  0  0  0
   68.6481   47.0143   54.7377 C   0  0  0  0  0  0  0  0  0  0  0  0
   69.3635   47.7870   53.8551 C   0  0  0  0  0  0  0  0  0  0  0  0
   69.3022   47.6434   52.4808 C   0  0  0  0  0  0  0  0  0  0  0  0
   68.4923   46.6813   51.9262 C   0  0  0  0  0  0  0  0  0  0  0  0
   67.7666   45.8920   52.7603 C   0  0  0  0  0  0  0  0  0  0  0  0
   66.9518   44.9209   52.1926 O   0  0  0  0  0  0  0  0  0  0  0  0
   67.8417   46.0546   54.1507 C   0  0  0  0  0  0  0  0  0  0  0  0
   68.1128   48.5699   56.7324 C   0  0  0  0  0  0  0  0  0  0  0  0
   67.0942   48.6857   57.6126 C   0  0  0  0  0  0  0  0  0  0  0  0
   66.6449   49.9629   58.0137 C   0  0  0  0  0  0  0  0  0  0  0  0
   67.2082   51.1230   57.5468 C   0  0  0  0  0  0  0  0  0  0  0  0
   68.2470   51.0081   56.6540 C   0  0  0  0  0  0  0  0  0  0  0  0
   69.0447   52.6073   55.9945 Br  0  0  0  0  0  0  0  0  0  0  0  0
   68.6740   49.7588   56.2688 C   0  0  0  0  0  0  0  0  0  0  0  0
   69.4926   45.1651   56.7963 N   0  0  0  0  0  0  0  0  0  0  0  0
   69.9786   44.8298   59.2172 N   0  0  0  0  0  0  0  0  0  0  0  0
   69.9843   44.3538   57.8810 C   0  0  0  0  0  0  0  0  0  0  0  0
   70.5730   42.8533   57.6322 S   0  0  0  0  0  0  0  0  0  0  0  0
 18 19  1  0
 19 20  2  0
 19 17  1  0
 17  1  1  0
  1  2  2  0
  2  3  1  0
  2 10  1  0
  3  4  2  0
  3  9  1  0
  4  5  1  0
  5  6  2  0
  6  7  1  0
  7  8  1  0
  7  9  2  0
 10 11  2  0
 10 16  1  0
 11 12  1  0
 12 13  2  0
 13 14  1  0
 14 15  1  0
 14 16  2  0
M  END
>  <minimizedAffinity>  (267) 
-8.91747

$$$$
data/200k_reference_output/data/smiles/68905.pdb
     RDKit          3D

 28 32  0  0  0  0  0  0  0  0999 V2000
   75.7756   35.5271   53.5489 N   0  0  0  0  0  0  0  0  0  0  0  0
   75.8754   35.2383   54.8832 C   0  0  0  0  0  0  0  0  0  0  0  0
   74.7183   34.8178   55.3843 N   0  0  0  0  0  0  0  0  0  0  0  0
   73.8557   34.8323   54.3662 C   0  0  0  0  0  0  0  0  0  0  0  0
   72.5103   34.4883   54.3312 C   0  0  0  0  0  0  0  0  0  0  0  0
   71.8064   34.5857   53.1352 C   0  0  0  0  0  0  0  0  0  0  0  0
   72.4507   35.0231   51.9931 C   0  0  0  0  0  0  0  0  0  0  0  0
   73.7873   35.3678   52.0138 C   0  0  0  0  0  0  0  0  0  0  0  0
   74.4750   35.2643   53.2175 C   0  0  0  0  0  0  0  0  0  0  0  0
   76.7807   36.0508   52.7150 C   0  0  0  0  0  0  0  0  0  0  0  0
   78.4862   34.5275   52.2682 O   0  0  0  0  0  0  0  0  0  0  0  0
   77.4565   35.2090   51.7664 C   0  0  0  0  0  0  0  0  0  0  0  0
   77.2280   34.9620   50.3735 C   0  0  0  0  0  0  0  0  0  0  0  0
   76.3547   34.0757   49.8296 C   0  0  0  0  0  0  0  0  0  0  0  0
   76.2217   33.9362   48.4537 C   0  0  0  0  0  0  0  0  0  0  0  0
   76.9552   34.6786   47.5663 C   0  0  0  0  0  0  0  0  0  0  0  0
   77.8396   35.5778   48.0876 C   0  0  0  0  0  0  0  0  0  0  0  0
   77.9727   35.7168   49.4428 C   0  0  0  0  0  0  0  0  0  0  0  0
   74.4752   34.4324   56.7460 C   0  0  0  0  0  0  0  0  0  0  0  0
   73.4299   35.2894   57.3882 C   0  0  0  0  0  0  0  0  0  0  0  0
   72.5875   34.8820   58.4122 C   0  0  0  0  0  0  0  0  0  0  0  0
   71.7542   35.9278   58.7578 C   0  0  0  0  0  0  0  0  0  0  0  0
   70.7414   36.1129   59.6774 C   0  0  0  0  0  0  0  0  0  0  0  0
   70.0713   37.3171   59.7878 C   0  0  0  0  0  0  0  0  0  0  0  0
   70.4458   38.3422   58.9440 C   0  0  0  0  0  0  0  0  0  0  0  0
   71.4564   38.1642   58.0236 C   0  0  0  0  0  0  0  0  0  0  0  0
   72.1373   36.9565   57.9029 C   0  0  0  0  0  0  0  0  0  0  0  0
   73.1106   36.5328   57.1324 O   0  0  0  0  0  0  0  0  0  0  0  0
 11 12  2  0
 12 10  1  0
 12 13  1  0
 10  1  1  0
  1  2  2  0
  1  9  1  0
  2  3  1  0
  3 19  1  0
  3  4  1  0
 19 20  1  0
 20 21  2  0
 20 28  1  0
 21 22  1  0
 22 23  2  0
 22 27  1  0
 23 24  1  0
 24 25  2  0
 25 26  1  0
 26 27  2  0
 27 28  1  0
  4  5  1  0
  4  9  2  0
  5  6  2  0
  6  7  1  0
  7  8  2  0
  8  9  1  0
 13 14  2  0
 13 18  1  0
 14 15  1  0
 15 16  2  0
 16 17  1  0
 17 18  2  0
M  CHG  1   1   1
M  END
>  <minimizedAffinity>  (268) 
-8.91582

$$$$
data/reference_output_2/data/smiles/120012.pdb
     RDKit          3D

 28 31  0  0  0  0  0  0  0  0999 V2000
   70.1084   45.1794   57.4356 C   0  0  0  0  0  0  0  0  0  0  0  0
   69.2671   44.2346   56.9065 C   0  0  0  0  0  0  0  0  0  0  0  0
   69.5130   42.8633   57.0200 C   0  0  0  0  0  0  0  0  0  0  0  0
   70.6003   42.3750   57.6598 C   0  0  0  0  0  0  0  0  0  0  0  0
   71.4740   43.3217   58.2066 C   0  0  0  0  0  0  0  0  0  0  0  0
   71.2344   44.6582   58.0969 C   0  0  0  0  0  0  0  0  0  0  0  0
   70.9192   41.0156   57.8229 N   0  0  0  0  0  0  0  0  0  0  0  0
   70.3529   40.0832   58.7029 C   0  0  0  0  0  0  0  0  0  0  0  0
   69.4480   40.4452   59.4648 O   0  0  0  0  0  0  0  0  0  0  0  0
   70.7786   38.6700   58.7799 C   0  0  0  0  0  0  0  0  0  0  0  0
   70.1767   37.8199   59.6854 C   0  0  0  0  0  0  0  0  0  0  0  0
   70.5407   36.4858   59.7880 C   0  0  0  0  0  0  0  0  0  0  0  0
   71.5261   35.9552   58.9831 C   0  0  0  0  0  0  0  0  0  0  0  0
   72.1213   36.8160   58.0801 C   0  0  0  0  0  0  0  0  0  0  0  0
   71.7560   38.1456   57.9796 C   0  0  0  0  0  0  0  0  0  0  0  0
   70.7720   47.2866   58.0433 O   0  0  0  0  0  0  0  0  0  0  0  0
   69.9065   46.5910   57.3348 C   0  0  0  0  0  0  0  0  0  0  0  0
   68.9581   47.4214   56.6271 C   0  0  0  0  0  0  0  0  0  0  0  0
   69.2513   47.8600   55.3021 N   0  0  0  0  0  0  0  0  0  0  0  0
   70.0478   48.9701   55.1624 C   0  0  0  0  0  0  0  0  0  0  0  0
   70.4112   49.4018   53.9101 C   0  0  0  0  0  0  0  0  0  0  0  0
   70.0043   48.7600   52.7720 C   0  0  0  0  0  0  0  0  0  0  0  0
   69.2057   47.6521   52.9290 C   0  0  0  0  0  0  0  0  0  0  0  0
   68.7601   47.0243   51.7862 C   0  0  0  0  0  0  0  0  0  0  0  0
   67.9303   45.9382   51.8631 C   0  0  0  0  0  0  0  0  0  0  0  0
   67.5597   45.4977   53.1044 C   0  0  0  0  0  0  0  0  0  0  0  0
   68.0047   46.1237   54.2391 C   0  0  0  0  0  0  0  0  0  0  0  0
   68.8385   47.2166   54.2190 C   0  0  0  0  0  0  0  0  0  0  0  0
 16 17  2  0
 17 18  1  0
 17  1  1  0
 18 19  1  0
 19 20  2  0
 19 28  1  0
 20 21  1  0
 21 22  2  0
 22 23  1  0
 23 24  1  0
 23 28  2  0
 24 25  2  0
 25 26  1  0
 26 27  2  0
 27 28  1  0
  1  2  2  0
  1  6  1  0
  2  3  1  0
  3  4  2  0
  4  7  1  0
  4  5  1  0
  7  8  1  0
  8  9  2  0
  8 10  1  0
 10 11  2  0
 10 15  1  0
 11 12  1  0
 12 13  2  0
 13 14  1  0
 14 15  2  0
  5  6  2  0
M  CHG  1  19   1
M  END
>  <minimizedAffinity>  (269) 
-8.91276

$$$$
data/reference_output_2/data/smiles/129729.pdb
     RDKit          3D

 29 32  0  0  0  0  0  0  0  0999 V2000
   70.2897   44.0313   58.2735 C   0  0  0  0  0  0  0  0  0  0  0  0
   71.0476   43.0404   57.6895 C   0  0  0  0  0  0  0  0  0  0  0  0
   71.0966   41.7538   58.1949 C   0  0  0  0  0  0  0  0  0  0  0  0
   70.3725   41.4229   59.3222 C   0  0  0  0  0  0  0  0  0  0  0  0
   69.6219   42.4333   59.8875 C   0  0  0  0  0  0  0  0  0  0  0  0
   69.5929   43.6903   59.3693 N   0  0  0  0  0  0  0  0  0  0  0  0
   70.3992   40.0902   59.8812 N   0  0  0  0  0  0  0  0  0  0  0  0
   71.6393   39.6927   60.4834 C   0  0  0  0  0  0  0  0  0  0  0  0
   71.6545   38.2747   60.9504 C   0  0  0  0  0  0  0  0  0  0  0  0
   70.8384   37.5173   59.9946 N   0  0  0  0  0  0  0  0  0  0  0  0
   69.4218   37.8185   60.0352 C   0  0  0  0  0  0  0  0  0  0  0  0
   69.2056   39.2769   59.7934 C   0  0  0  0  0  0  0  0  0  0  0  0
   71.4398   36.5889   59.1110 C   0  0  0  0  0  0  0  0  0  0  0  0
   72.0421   36.9967   57.9378 C   0  0  0  0  0  0  0  0  0  0  0  0
   72.6513   36.0810   57.0658 C   0  0  0  0  0  0  0  0  0  0  0  0
   72.6520   34.7698   57.3750 N   0  0  0  0  0  0  0  0  0  0  0  0
   72.0819   34.3192   58.5019 C   0  0  0  0  0  0  0  0  0  0  0  0
   71.4775   35.2353   59.3661 C   0  0  0  0  0  0  0  0  0  0  0  0
   71.1500   46.1797   58.0436 O   0  0  0  0  0  0  0  0  0  0  0  0
   70.2387   45.3877   57.7355 C   0  0  0  0  0  0  0  0  0  0  0  0
   69.2039   45.8365   56.8870 N   0  0  0  0  0  0  0  0  0  0  0  0
   69.0521   47.1263   56.3047 C   0  0  0  0  0  0  0  0  0  0  0  0
   68.8172   47.0038   54.8524 C   0  0  0  0  0  0  0  0  0  0  0  0
   68.0849   45.9487   54.3408 C   0  0  0  0  0  0  0  0  0  0  0  0
   67.8348   45.8034   53.0079 C   0  0  0  0  0  0  0  0  0  0  0  0
   68.3447   46.7605   52.1518 C   0  0  0  0  0  0  0  0  0  0  0  0
   68.1033   46.6280   50.8174 F   0  0  0  0  0  0  0  0  0  0  0  0
   69.0785   47.8233   52.6271 C   0  0  0  0  0  0  0  0  0  0  0  0
   69.3106   47.9363   53.9904 C   0  0  0  0  0  0  0  0  0  0  0  0
 19 20  2  0
 20 21  1  0
 20  1  1  0
 21 22  1  0
 22 23  1  0
 23 24  2  0
 23 29  1  0
 24 25  1  0
 25 26  2  0
 26 27  1  0
 26 28  1  0
 28 29  2  0
  1  2  2  0
  1  6  1  0
  2  3  1  0
  3  4  2  0
  4  7  1  0
  4  5  1  0
  7  8  1  0
  7 12  1  0
  8  9  1  0
  9 10  1  0
 10 13  1  0
 10 11  1  0
 13 14  2  0
 13 18  1  0
 14 15  1  0
 15 16  2  0
 16 17  1  0
 17 18  2  0
 11 12  1  0
  5  6  2  0
M  END
>  <minimizedAffinity>  (270) 
-8.91245

$$$$
data/reference_output_2/data/smiles/174044.pdb
     RDKit          3D

 27 30  0  0  0  0  0  0  0  0999 V2000
   75.6598   34.6913   53.3612 C   0  0  0  0  0  0  0  0  0  0  0  0
   75.8923   34.7164   54.6852 N   0  0  0  0  0  0  0  0  0  0  0  0
   74.9389   35.0842   55.5701 C   0  0  0  0  0  0  0  0  0  0  0  0
   75.1770   35.1103   56.9292 C   0  0  0  0  0  0  0  0  0  0  0  0
   74.1909   35.4885   57.8176 C   0  0  0  0  0  0  0  0  0  0  0  0
   72.9259   35.8589   57.4029 C   0  0  0  0  0  0  0  0  0  0  0  0
   72.6881   35.8335   56.0431 C   0  0  0  0  0  0  0  0  0  0  0  0
   73.6769   35.4534   55.1527 C   0  0  0  0  0  0  0  0  0  0  0  0
   73.4485   35.4242   53.7907 C   0  0  0  0  0  0  0  0  0  0  0  0
   72.2996   35.7600   53.4050 O   0  0  0  0  0  0  0  0  0  0  0  0
   74.4318   35.0501   52.9539 N   0  0  0  0  0  0  0  0  0  0  0  0
   71.8886   36.2595   58.3508 C   0  0  0  0  0  0  0  0  0  0  0  0
   71.2991   37.5018   58.4199 C   0  0  0  0  0  0  0  0  0  0  0  0
   70.4015   37.4725   59.4129 N   0  0  0  0  0  0  0  0  0  0  0  0
   70.3801   36.2897   59.9833 N   0  0  0  0  0  0  0  0  0  0  0  0
   71.2823   35.5283   59.3499 C   0  0  0  0  0  0  0  0  0  0  0  0
   77.8529   33.6615   53.0694 N   0  0  0  0  0  0  0  0  0  0  0  0
   76.7297   34.2812   52.4019 C   0  0  2  0  0  0  0  0  0  0  0  0
   77.2421   35.4425   51.5946 C   0  0  0  0  0  0  0  0  0  0  0  0
   77.1859   35.1856   50.1347 C   0  0  0  0  0  0  0  0  0  0  0  0
   78.0650   35.7905   49.2525 C   0  0  0  0  0  0  0  0  0  0  0  0
   78.0079   35.5476   47.8948 C   0  0  0  0  0  0  0  0  0  0  0  0
   77.0721   34.6952   47.3837 C   0  0  0  0  0  0  0  0  0  0  0  0
   76.9998   34.4447   46.0598 F   0  0  0  0  0  0  0  0  0  0  0  0
   76.1781   34.0728   48.2267 C   0  0  0  0  0  0  0  0  0  0  0  0
   75.2593   33.2368   47.7306 F   0  0  0  0  0  0  0  0  0  0  0  0
   76.2394   34.3185   49.5834 C   0  0  0  0  0  0  0  0  0  0  0  0
 18 17  1  1
 18 19  1  0
 18  1  1  0
 19 20  1  0
 20 21  2  0
 20 27  1  0
 21 22  1  0
 22 23  2  0
 23 24  1  0
 23 25  1  0
 25 26  1  0
 25 27  2  0
  1  2  2  0
  1 11  1  0
  2  3  1  0
  3  4  2  0
  3  8  1  0
  4  5  1  0
  5  6  2  0
  6 12  1  0
  6  7  1  0
 12 13  1  0
 12 16  2  0
 13 14  2  0
 14 15  1  0
 15 16  1  0
  7  8  2  0
  8  9  1  0
  9 10  2  0
  9 11  1  0
M  CHG  1  17   1
M  END
>  <minimizedAffinity>  (271) 
-8.91227

$$$$
data/reference_output_2/data/smiles/191033.pdb
     RDKit          3D

 23 24  0  0  0  0  0  0  0  0999 V2000
   71.2884   46.2934   58.7425 S   0  0  0  0  0  0  0  0  0  0  0  0
   72.1207   47.4108   58.1177 O   0  0  0  0  0  0  0  0  0  0  0  0
   71.3536   46.4808   60.2261 O   0  0  0  0  0  0  0  0  0  0  0  0
   71.9316   44.7511   58.2319 C   0  0  0  0  0  0  0  0  0  0  0  0
   73.2573   44.6298   57.8614 C   0  0  0  0  0  0  0  0  0  0  0  0
   73.7921   43.4159   57.4703 C   0  0  0  0  0  0  0  0  0  0  0  0
   73.0023   42.2794   57.4384 C   0  0  0  0  0  0  0  0  0  0  0  0
   71.6907   42.4172   57.8079 C   0  0  0  0  0  0  0  0  0  0  0  0
   71.1309   43.6264   58.2050 C   0  0  0  0  0  0  0  0  0  0  0  0
   69.7509   43.6329   58.5502 N   0  0  0  0  0  0  0  0  0  0  0  0
   68.8664   43.4280   57.7075 O   0  0  0  0  0  0  0  0  0  0  0  0
   69.4315   43.8834   59.8869 O   0  0  0  0  0  0  0  0  0  0  0  0
   69.6749   46.4232   58.1347 N   0  0  0  0  0  0  0  0  0  0  0  0
   67.4968   47.3350   56.6104 O   0  0  0  0  0  0  0  0  0  0  0  0
   68.5140   46.8518   56.0247 C   0  0  0  0  0  0  0  0  0  0  0  0
   69.6332   46.3808   56.7427 N   0  0  0  0  0  0  0  0  0  0  0  0
   68.5190   46.7863   54.5723 C   0  0  0  0  0  0  0  0  0  0  0  0
   67.9096   45.8170   53.8158 C   0  0  0  0  0  0  0  0  0  0  0  0
   67.9548   45.8162   52.4283 C   0  0  0  0  0  0  0  0  0  0  0  0
   68.6192   46.7983   51.7363 C   0  0  0  0  0  0  0  0  0  0  0  0
   69.2361   47.7786   52.4801 C   0  0  0  0  0  0  0  0  0  0  0  0
   70.1070   49.0693   51.6402 Cl  0  0  0  0  0  0  0  0  0  0  0  0
   69.1911   47.7796   53.8539 C   0  0  0  0  0  0  0  0  0  0  0  0
 14 15  2  0
 15 16  1  0
 15 17  1  0
 16 13  1  0
 13  1  1  0
  1  2  2  0
  1  3  2  0
  1  4  1  0
  4  5  2  0
  4  9  1  0
  5  6  1  0
  6  7  2  0
  7  8  1  0
  8  9  2  0
  9 10  1  0
 10 11  2  0
 10 12  1  0
 17 18  2  0
 17 23  1  0
 18 19  1  0
 19 20  2  0
 20 21  1  0
 21 22  1  0
 21 23  2  0
M  CHG  2  10   1  12  -1
M  END
>  <minimizedAffinity>  (272) 
-8.91149

$$$$
data/200k_reference_output/data/smiles/49352.pdb
     RDKit          3D

 28 29  0  0  0  0  0  0  0  0999 V2000
   69.9365   37.7921   59.2777 C   0  0  0  0  0  0  0  0  0  0  0  0
   69.6891   38.8425   58.4300 C   0  0  0  0  0  0  0  0  0  0  0  0
   68.4215   39.3965   58.2945 C   0  0  0  0  0  0  0  0  0  0  0  0
   67.4209   38.8335   59.0599 C   0  0  0  0  0  0  0  0  0  0  0  0
   67.6027   37.7844   59.9246 C   0  0  0  0  0  0  0  0  0  0  0  0
   68.9009   37.2677   60.0202 C   0  0  0  0  0  0  0  0  0  0  0  0
   68.2198   40.4839   57.4006 N   0  0  0  0  0  0  0  0  0  0  0  0
   68.6751   41.7428   57.5242 C   0  0  0  0  0  0  0  0  0  0  0  0
   68.2712   42.5184   56.4448 C   0  0  0  0  0  0  0  0  0  0  0  0
   67.5602   41.6711   55.6814 N   0  0  0  0  0  0  0  0  0  0  0  0
   67.5335   40.4759   56.2490 N   0  0  0  0  0  0  0  0  0  0  0  0
   68.5706   43.9281   56.2262 C   0  0  0  0  0  0  0  0  0  0  0  0
   69.3346   44.5372   57.0084 O   0  0  0  0  0  0  0  0  0  0  0  0
   68.0031   44.6291   55.1334 N   0  0  0  0  0  0  0  0  0  0  0  0
   68.2473   46.0371   54.8476 C   0  0  0  0  0  0  0  0  0  0  0  0
   68.3705   46.2902   53.3752 C   0  0  0  0  0  0  0  0  0  0  0  0
   68.8274   47.6315   53.1238 N   0  0  0  0  0  0  0  0  0  0  0  0
   69.8257   47.9542   52.1613 C   0  0  0  0  0  0  0  0  0  0  0  0
   69.9483   47.2434   51.0987 N   0  0  0  0  0  0  0  0  0  0  0  0
   70.6845   49.0671   52.3667 N   0  0  0  0  0  0  0  0  0  0  0  0
   71.2737   35.7162   59.6240 C   0  0  0  0  0  0  0  0  0  0  0  0
   71.2849   37.2151   59.4088 C   0  0  0  0  0  0  0  0  0  0  0  0
   72.0258   37.8364   60.5964 C   0  0  0  0  0  0  0  0  0  0  0  0
   72.1215   37.4949   58.1809 C   0  0  0  0  0  0  0  0  0  0  0  0
   66.5092   37.1882   60.7402 C   0  0  0  0  0  0  0  0  0  0  0  0
   65.9885   38.2083   61.7474 C   0  0  0  0  0  0  0  0  0  0  0  0
   65.3858   36.7639   59.8138 C   0  0  0  0  0  0  0  0  0  0  0  0
   66.9583   35.9817   61.5185 C   0  0  0  0  0  0  0  0  0  0  0  0
 21 22  1  0
 22 23  1  0
 22 24  1  0
 22  1  1  0
  1  2  2  0
  1  6  1  0
  2  3  1  0
  3  7  1  0
  3  4  2  0
  7  8  1  0
  7 11  1  0
  8  9  2  0
  9 12  1  0
  9 10  1  0
 12 13  2  0
 12 14  1  0
 14 15  1  0
 15 16  1  0
 16 17  1  0
 17 18  1  0
 18 19  2  0
 18 20  1  0
 10 11  2  0
  4  5  1  0
  5 25  1  0
  5  6  2  0
 25 26  1  0
 25 27  1  0
 25 28  1  0
M  CHG  1  19   1
M  END
>  <minimizedAffinity>  (273) 
-8.91135

$$$$
data/reference_output_2/data/smiles/136647.pdb
     RDKit          3D

 25 27  0  0  0  0  0  0  0  0999 V2000
   70.0101   44.9942   59.0832 N   0  0  0  0  0  0  0  0  0  0  0  0
   69.9316   43.6291   58.8510 N   0  0  0  0  0  0  0  0  0  0  0  0
   69.0846   42.7902   59.6717 C   0  0  0  0  0  0  0  0  0  0  0  0
   68.4600   43.4008   60.5752 O   0  0  0  0  0  0  0  0  0  0  0  0
   68.9781   41.3329   59.4470 C   0  0  1  0  0  0  0  0  0  0  0  0
   68.4060   40.8596   58.1536 C   0  0  0  0  0  0  0  0  0  0  0  0
   69.8684   40.5996   58.5253 C   0  0  2  0  0  0  0  0  0  0  0  0
   70.2486   39.1855   58.8135 C   0  0  0  0  0  0  0  0  0  0  0  0
   69.5709   38.4000   59.7213 C   0  0  0  0  0  0  0  0  0  0  0  0
   69.9333   37.0893   59.9806 C   0  0  0  0  0  0  0  0  0  0  0  0
   71.0060   36.5279   59.3205 C   0  0  0  0  0  0  0  0  0  0  0  0
   71.6952   37.2927   58.4125 C   0  0  0  0  0  0  0  0  0  0  0  0
   71.3195   38.6169   58.1588 C   0  0  0  0  0  0  0  0  0  0  0  0
   70.2652   45.9656   58.1642 C   0  0  0  0  0  0  0  0  0  0  0  0
   71.2323   47.2303   58.7472 S   0  0  0  0  0  0  0  0  0  0  0  0
   67.9465   47.2722   56.9075 O   0  0  0  0  0  0  0  0  0  0  0  0
   68.8224   46.7280   56.2140 C   0  0  0  0  0  0  0  0  0  0  0  0
   69.9212   46.1143   56.8350 N   0  0  0  0  0  0  0  0  0  0  0  0
   68.6622   46.7556   54.7699 C   0  0  0  0  0  0  0  0  0  0  0  0
   69.1607   47.7066   53.9186 C   0  0  0  0  0  0  0  0  0  0  0  0
   68.9498   47.6425   52.5316 C   0  0  0  0  0  0  0  0  0  0  0  0
   68.2363   46.6271   51.9613 C   0  0  0  0  0  0  0  0  0  0  0  0
   68.0164   46.5413   50.6198 F   0  0  0  0  0  0  0  0  0  0  0  0
   67.7255   45.6601   52.7972 C   0  0  0  0  0  0  0  0  0  0  0  0
   67.9353   45.7285   54.1547 C   0  0  0  0  0  0  0  0  0  0  0  0
 16 17  2  0
 17 18  1  0
 17 19  1  0
 18 14  1  0
 14 15  2  0
 14  1  1  0
  1  2  1  0
  2  3  1  0
  3  4  2  0
  5  3  1  6
  5  6  1  0
  5  7  1  0
  6  7  1  0
  7  8  1  1
  8  9  2  0
  8 13  1  0
  9 10  1  0
 10 11  2  0
 11 12  1  0
 12 13  2  0
 19 20  2  0
 19 25  1  0
 20 21  1  0
 21 22  2  0
 22 23  1  0
 22 24  1  0
 24 25  2  0
M  END
>  <minimizedAffinity>  (274) 
-8.91046

$$$$
data/200k_reference_output/data/smiles/5395.pdb
     RDKit          3D

 25 27  0  0  0  0  0  0  0  0999 V2000
   69.1406   41.9692   57.4501 C   0  0  0  0  0  0  0  0  0  0  0  0
   68.2908   42.3161   56.4294 C   0  0  0  0  0  0  0  0  0  0  0  0
   68.3925   43.6635   56.1591 C   0  0  0  0  0  0  0  0  0  0  0  0
   69.3142   44.1132   57.0368 N   0  0  0  0  0  0  0  0  0  0  0  0
   69.7563   43.1128   57.8000 N   0  0  0  0  0  0  0  0  0  0  0  0
   69.8272   38.1302   59.2754 C   0  0  0  0  0  0  0  0  0  0  0  0
   68.5645   38.5779   58.9457 C   0  0  0  0  0  0  0  0  0  0  0  0
   68.3437   39.8079   58.3639 C   0  0  0  0  0  0  0  0  0  0  0  0
   69.3772   40.6700   58.0722 C   0  0  0  0  0  0  0  0  0  0  0  0
   70.6542   40.2437   58.3937 C   0  0  0  0  0  0  0  0  0  0  0  0
   70.8713   39.0154   58.9745 C   0  0  0  0  0  0  0  0  0  0  0  0
   69.2325   36.4077   60.9409 C   0  0  0  0  0  0  0  0  0  0  0  0
   70.0949   36.8776   59.8785 N   0  0  0  0  0  0  0  0  0  0  0  0
   71.1956   36.0404   59.4891 C   0  0  0  0  0  0  0  0  0  0  0  0
   67.6725   44.4221   55.1727 N   0  0  0  0  0  0  0  0  0  0  0  0
   68.1814   45.6140   54.6457 C   0  0  0  0  0  0  0  0  0  0  0  0
   68.6135   46.6371   55.4801 C   0  0  0  0  0  0  0  0  0  0  0  0
   69.1074   47.7796   54.8968 C   0  0  0  0  0  0  0  0  0  0  0  0
   69.1952   47.9608   53.5227 C   0  0  0  0  0  0  0  0  0  0  0  0
   68.7617   46.9385   52.7197 C   0  0  0  0  0  0  0  0  0  0  0  0
   68.2577   45.7708   53.2802 C   0  0  0  0  0  0  0  0  0  0  0  0
   69.8551   49.4444   52.8730 S   0  0  0  0  0  0  0  0  0  0  0  0
   69.8591   49.3926   51.1261 N   0  0  0  0  0  0  0  0  0  0  0  0
   69.1830   50.6633   53.3981 O   0  0  0  0  0  0  0  0  0  0  0  0
   71.3262   49.5080   53.2595 O   0  0  0  0  0  0  0  0  0  0  0  0
 12 13  1  0
 13 14  1  0
 13  6  1  0
  6  7  2  0
  6 11  1  0
  7  8  1  0
  8  9  2  0
  9  1  1  0
  9 10  1  0
  1  2  1  0
  1  5  2  0
  2  3  2  0
  3 15  1  0
  3  4  1  0
 15 16  1  0
 16 17  2  0
 16 21  1  0
 17 18  1  0
 18 19  2  0
 19 22  1  0
 19 20  1  0
 22 23  1  0
 22 24  2  0
 22 25  2  0
 20 21  2  0
  4  5  1  0
 10 11  2  0
M  END
>  <minimizedAffinity>  (275) 
-8.90968

$$$$
data/reference_output_2/data/smiles/154467.pdb
     RDKit          3D

 29 32  0  0  0  0  0  0  0  0999 V2000
   71.9328   46.8767   59.3031 C   0  0  0  0  0  0  0  0  0  0  0  0
   70.9980   47.6098   58.6191 C   0  0  0  0  0  0  0  0  0  0  0  0
   70.0962   47.0220   57.7711 C   0  0  0  0  0  0  0  0  0  0  0  0
   70.1389   45.6482   57.6058 C   0  0  0  0  0  0  0  0  0  0  0  0
   71.0651   44.8877   58.2769 C   0  0  0  0  0  0  0  0  0  0  0  0
   71.9720   45.5180   59.1368 C   0  0  0  0  0  0  0  0  0  0  0  0
   72.8990   44.7717   59.8074 F   0  0  0  0  0  0  0  0  0  0  0  0
   73.5181   51.3639   57.5839 C   0  0  0  0  0  0  0  0  0  0  0  0
   73.8097   50.2946   58.5472 N   0  0  2  0  0  0  0  0  0  0  0  0
   74.5566   50.8604   59.6244 C   0  0  0  0  0  0  0  0  0  0  0  0
   74.4700   50.1369   60.9297 C   0  0  0  0  0  0  0  0  0  0  0  0
   74.9260   48.6946   60.8649 C   0  0  0  0  0  0  0  0  0  0  0  0
   74.1263   48.0628   59.8285 N   0  0  0  0  0  0  0  0  0  0  0  0
   72.8784   47.5272   60.1723 C   0  0  0  0  0  0  0  0  0  0  0  0
   72.5213   47.6204   61.3976 O   0  0  0  0  0  0  0  0  0  0  0  0
   74.5099   47.9440   58.4435 C   0  0  0  0  0  0  0  0  0  0  0  0
   74.5511   49.3032   57.7870 C   0  0  0  0  0  0  0  0  0  0  0  0
   69.0659   47.7696   57.0115 C   0  0  0  0  0  0  0  0  0  0  0  0
   68.6956   47.0554   55.7869 C   0  0  0  0  0  0  0  0  0  0  0  0
   68.1025   45.8436   55.8196 N   0  0  0  0  0  0  0  0  0  0  0  0
   67.7957   45.1535   54.7369 N   0  0  0  0  0  0  0  0  0  0  0  0
   68.0904   45.6888   53.5292 C   0  0  0  0  0  0  0  0  0  0  0  0
   67.7845   45.0007   52.5224 O   0  0  0  0  0  0  0  0  0  0  0  0
   68.6962   46.9214   53.3914 C   0  0  0  0  0  0  0  0  0  0  0  0
   68.9964   47.6027   54.5534 C   0  0  0  0  0  0  0  0  0  0  0  0
   69.6098   48.9501   54.4623 C   0  0  0  0  0  0  0  0  0  0  0  0
   70.4756   48.9954   53.2320 C   0  0  0  0  0  0  0  0  0  0  0  0
   69.7035   48.6947   51.9797 C   0  0  0  0  0  0  0  0  0  0  0  0
   68.9659   47.3965   52.0337 C   0  0  0  0  0  0  0  0  0  0  0  0
  9  8  1  6
  9 10  1  0
  9 17  1  0
 10 11  1  0
 11 12  1  0
 12 13  1  0
 13 14  1  0
 13 16  1  0
 14 15  2  0
 14  1  1  0
  1  2  2  0
  1  6  1  0
  2  3  1  0
  3 18  1  0
  3  4  2  0
 18 19  1  0
 19 20  2  0
 19 25  1  0
 20 21  1  0
 21 22  1  0
 22 23  2  0
 22 24  1  0
 24 25  2  0
 24 29  1  0
 25 26  1  0
 26 27  1  0
 27 28  1  0
 28 29  1  0
  4  5  1  0
  5  6  2  0
  6  7  1  0
 16 17  1  0
M  CHG  1   9   1
M  END
>  <minimizedAffinity>  (276) 
-8.90857

$$$$
data/reference_output_2/data/smiles/129260.pdb
     RDKit          3D

 28 30  0  0  0  0  0  0  0  0999 V2000
   69.7275   41.8249   57.7212 O   0  0  0  0  0  0  0  0  0  0  0  0
   69.4503   40.8368   58.6451 C   0  0  0  0  0  0  0  0  0  0  0  0
   68.9093   41.1734   59.7271 O   0  0  0  0  0  0  0  0  0  0  0  0
   69.7548   39.4364   58.4173 C   0  0  0  0  0  0  0  0  0  0  0  0
   70.9297   38.9454   58.7248 C   0  0  0  0  0  0  0  0  0  0  0  0
   71.3540   37.5659   58.5442 C   0  0  0  0  0  0  0  0  0  0  0  0
   71.0369   36.6305   59.4875 C   0  0  0  0  0  0  0  0  0  0  0  0
   71.4651   35.3096   59.2753 C   0  0  0  0  0  0  0  0  0  0  0  0
   72.1853   34.9706   58.1497 C   0  0  0  0  0  0  0  0  0  0  0  0
   72.6167   33.6705   57.9250 C   0  0  0  0  0  0  0  0  0  0  0  0
   73.3382   33.3156   56.8027 C   0  0  0  0  0  0  0  0  0  0  0  0
   73.6187   34.3197   55.8986 C   0  0  0  0  0  0  0  0  0  0  0  0
   73.1963   35.6216   56.1064 C   0  0  0  0  0  0  0  0  0  0  0  0
   72.4704   35.9562   57.2454 C   0  0  0  0  0  0  0  0  0  0  0  0
   72.0554   37.2316   57.4490 N   0  0  0  0  0  0  0  0  0  0  0  0
   70.6698   42.8326   57.8509 C   0  0  0  0  0  0  0  0  0  0  0  0
   69.9138   44.5301   59.3454 O   0  0  0  0  0  0  0  0  0  0  0  0
   70.1243   44.1764   58.1330 C   0  0  0  0  0  0  0  0  0  0  0  0
   69.7946   45.1547   57.1713 N   0  0  0  0  0  0  0  0  0  0  0  0
   69.2797   46.4220   57.5221 N   0  0  0  0  0  0  0  0  0  0  0  0
   68.8288   47.3539   56.5819 C   0  0  0  0  0  0  0  0  0  0  0  0
   68.9080   46.9922   55.3607 O   0  0  0  0  0  0  0  0  0  0  0  0
   68.2896   48.6700   56.8615 C   0  0  0  0  0  0  0  0  0  0  0  0
   67.1822   48.7995   57.6554 C   0  0  0  0  0  0  0  0  0  0  0  0
   66.6369   50.0613   57.9436 C   0  0  0  0  0  0  0  0  0  0  0  0
   67.2067   51.2006   57.4318 C   0  0  0  0  0  0  0  0  0  0  0  0
   68.3252   51.0469   56.6317 C   0  0  0  0  0  0  0  0  0  0  0  0
   68.8556   49.8037   56.3529 C   0  0  0  0  0  0  0  0  0  0  0  0
 17 18  2  0
 18 16  1  0
 18 19  1  0
 16  1  1  0
  1  2  1  0
  2  3  2  0
  2  4  1  0
  4  5  2  0
  5  6  1  0
  6  7  2  0
  6 15  1  0
  7  8  1  0
  8  9  2  0
  9 10  1  0
  9 14  1  0
 10 11  2  0
 11 12  1  0
 12 13  2  0
 13 14  1  0
 14 15  2  0
 19 20  1  0
 20 21  1  0
 21 22  2  0
 21 23  1  0
 23 24  2  0
 23 28  1  0
 24 25  1  0
 25 26  2  0
 26 27  1  0
 27 28  2  0
M  END
>  <minimizedAffinity>  (277) 
-8.90855

$$$$
data/reference_output_2/data/smiles/151207.pdb
     RDKit          3D

 25 26  0  0  0  0  0  0  0  0999 V2000
   67.5660   43.4464   56.2353 N   0  0  0  0  0  0  0  0  0  0  0  0
   67.7910   44.1434   55.0768 N   0  0  0  0  0  0  0  0  0  0  0  0
   68.2162   45.5178   55.0631 C   0  0  0  0  0  0  0  0  0  0  0  0
   68.3769   46.0648   56.1788 O   0  0  0  0  0  0  0  0  0  0  0  0
   68.4561   46.2597   53.8449 C   0  0  0  0  0  0  0  0  0  0  0  0
   68.0000   45.9071   52.6031 C   0  0  0  0  0  0  0  0  0  0  0  0
   68.2807   46.6868   51.4741 C   0  0  0  0  0  0  0  0  0  0  0  0
   69.0260   47.8363   51.5761 C   0  0  0  0  0  0  0  0  0  0  0  0
   69.5034   48.2192   52.8237 C   0  0  0  0  0  0  0  0  0  0  0  0
   69.2100   47.4313   53.9145 C   0  0  0  0  0  0  0  0  0  0  0  0
   70.2737   49.4079   52.9271 N   0  0  0  0  0  0  0  0  0  0  0  0
   69.8440   50.4951   52.5220 O   0  0  0  0  0  0  0  0  0  0  0  0
   71.5190   49.3584   53.4844 O   0  0  0  0  0  0  0  0  0  0  0  0
   68.3276   42.5726   56.9840 C   0  0  0  0  0  0  0  0  0  0  0  0
   67.5041   41.2875   57.7462 S   0  0  0  0  0  0  0  0  0  0  0  0
   70.5124   43.4375   57.8969 C   0  0  0  0  0  0  0  0  0  0  0  0
   69.9863   44.4422   58.4210 O   0  0  0  0  0  0  0  0  0  0  0  0
   69.7084   42.5365   57.2074 N   0  0  0  0  0  0  0  0  0  0  0  0
   76.2747   43.0280   58.4715 C   0  0  0  0  0  0  0  0  0  0  0  0
   74.7891   43.1005   58.3269 C   0  0  0  0  0  0  0  0  0  0  0  0
   74.1571   44.3127   58.1506 C   0  0  0  0  0  0  0  0  0  0  0  0
   72.7870   44.4015   58.0145 C   0  0  0  0  0  0  0  0  0  0  0  0
   71.9825   43.2740   58.0497 C   0  0  0  0  0  0  0  0  0  0  0  0
   72.6033   42.0684   58.2238 C   0  0  0  0  0  0  0  0  0  0  0  0
   73.9978   41.9760   58.3621 C   0  0  0  0  0  0  0  0  0  0  0  0
 19 20  1  0
 20 21  2  0
 20 25  1  0
 21 22  1  0
 22 23  2  0
 23 16  1  0
 23 24  1  0
 16 17  2  0
 16 18  1  0
 18 14  1  0
 14 15  2  0
 14  1  1  0
  1  2  1  0
  2  3  1  0
  3  4  2  0
  3  5  1  0
  5  6  2  0
  5 10  1  0
  6  7  1  0
  7  8  2  0
  8  9  1  0
  9 11  1  0
  9 10  2  0
 11 12  2  0
 11 13  1  0
 24 25  2  0
M  CHG  2  11   1  13  -1
M  END
>  <minimizedAffinity>  (278) 
-8.90765

$$$$
data/200k_reference_output/data/smiles/41954.pdb
     RDKit          3D

 28 30  0  0  0  0  0  0  0  0999 V2000
   70.4005   38.9063   59.4127 C   0  0  2  0  0  0  0  0  0  0  0  0
   70.3197   39.2854   60.8507 C   0  0  0  0  0  0  0  0  0  0  0  0
   71.2788   39.8652   58.7383 N   0  0  0  0  0  0  0  0  0  0  0  0
   70.4386   40.9862   58.4418 C   0  0  0  0  0  0  0  0  0  0  0  0
   70.7853   42.1760   58.2363 O   0  0  0  0  0  0  0  0  0  0  0  0
   69.0763   40.5426   58.4118 N   0  0  0  0  0  0  0  0  0  0  0  0
   69.1349   39.1533   58.7017 C   0  0  0  0  0  0  0  0  0  0  0  0
   68.2684   38.2628   58.4111 O   0  0  0  0  0  0  0  0  0  0  0  0
   72.5637   33.6279   58.2618 C   0  0  0  0  0  0  0  0  0  0  0  0
   72.0228   34.9728   58.5490 C   0  0  0  0  0  0  0  0  0  0  0  0
   71.1728   35.1916   59.6298 C   0  0  0  0  0  0  0  0  0  0  0  0
   70.6480   36.4471   59.9185 C   0  0  0  0  0  0  0  0  0  0  0  0
   70.9366   37.5530   59.1540 C   0  0  0  0  0  0  0  0  0  0  0  0
   71.7889   37.3363   58.0704 C   0  0  0  0  0  0  0  0  0  0  0  0
   72.3030   36.1003   57.7887 C   0  0  0  0  0  0  0  0  0  0  0  0
   67.9501   41.3327   58.1237 C   0  0  0  0  0  0  0  0  0  0  0  0
   67.8729   42.0164   56.8413 C   0  0  0  0  0  0  0  0  0  0  0  0
   67.7905   41.2855   55.7838 O   0  0  0  0  0  0  0  0  0  0  0  0
   67.8683   43.4028   56.5845 N   0  0  0  0  0  0  0  0  0  0  0  0
   67.7684   43.9028   55.2625 N   0  0  0  0  0  0  0  0  0  0  0  0
   68.1354   45.2349   54.9517 C   0  0  0  0  0  0  0  0  0  0  0  0
   68.5431   45.9134   55.9469 O   0  0  0  0  0  0  0  0  0  0  0  0
   68.0959   45.8793   53.6651 C   0  0  0  0  0  0  0  0  0  0  0  0
   67.6427   45.4824   52.4319 C   0  0  0  0  0  0  0  0  0  0  0  0
   67.8463   46.5111   51.5155 C   0  0  0  0  0  0  0  0  0  0  0  0
   68.4043   47.4865   52.1908 O   0  0  0  0  0  0  0  0  0  0  0  0
   68.5758   47.1809   53.4437 C   0  0  0  0  0  0  0  0  0  0  0  0
   69.1776   48.0676   54.4625 C   0  0  0  0  0  0  0  0  0  0  0  0
  9 10  1  0
 10 11  2  0
 10 15  1  0
 11 12  1  0
 12 13  2  0
 13  1  1  0
 13 14  1  0
  1  2  1  1
  1  3  1  0
  1  7  1  0
  3  4  1  0
  4  5  2  0
  4  6  1  0
  6 16  1  0
  6  7  1  0
 16 17  1  0
 17 18  2  0
 17 19  1  0
 19 20  1  0
 20 21  1  0
 21 22  2  0
 21 23  1  0
 23 24  1  0
 23 27  2  0
 24 25  2  0
 25 26  1  0
 26 27  1  0
 27 28  1  0
  7  8  2  0
 14 15  2  0
M  END
>  <minimizedAffinity>  (279) 
-8.90205

$$$$
data/reference_output_2/data/smiles/110283.pdb
     RDKit          3D

 28 31  0  0  0  0  0  0  0  0999 V2000
   71.7218   47.1621   58.9529 C   0  0  0  0  0  0  0  0  0  0  0  0
   70.7392   47.8401   58.2203 C   0  0  0  0  0  0  0  0  0  0  0  0
   69.8497   47.2340   57.3910 C   0  0  0  0  0  0  0  0  0  0  0  0
   69.9561   45.8322   57.2887 C   0  0  0  0  0  0  0  0  0  0  0  0
   70.9004   45.1218   57.9832 C   0  0  0  0  0  0  0  0  0  0  0  0
   71.7706   45.7966   58.8057 C   0  0  0  0  0  0  0  0  0  0  0  0
   72.7348   45.1491   59.5264 F   0  0  0  0  0  0  0  0  0  0  0  0
   72.9744   51.1949   58.4068 C   0  0  0  0  0  0  0  0  0  0  0  0
   74.3146   50.7092   58.3196 N   0  0  0  0  0  0  0  0  0  0  0  0
   74.5385   49.6770   57.3578 C   0  0  0  0  0  0  0  0  0  0  0  0
   74.2782   48.2846   57.9525 C   0  0  0  0  0  0  0  0  0  0  0  0
   73.8422   48.4197   59.3367 N   0  0  0  0  0  0  0  0  0  0  0  0
   72.6350   47.8928   59.8292 C   0  0  0  0  0  0  0  0  0  0  0  0
   72.3572   48.0649   61.0464 O   0  0  0  0  0  0  0  0  0  0  0  0
   74.7611   49.1581   60.1949 C   0  0  0  0  0  0  0  0  0  0  0  0
   74.9785   50.5275   59.5707 C   0  0  0  0  0  0  0  0  0  0  0  0
   68.7827   47.8909   56.5950 C   0  0  0  0  0  0  0  0  0  0  0  0
   69.2140   48.1001   55.2191 C   0  0  0  0  0  0  0  0  0  0  0  0
   70.1521   49.0805   55.0457 N   0  0  0  0  0  0  0  0  0  0  0  0
   70.6788   49.3604   53.8776 N   0  0  0  0  0  0  0  0  0  0  0  0
   70.3168   48.6875   52.7785 C   0  0  0  0  0  0  0  0  0  0  0  0
   70.8174   48.9465   51.6446 O   0  0  0  0  0  0  0  0  0  0  0  0
   69.3800   47.6888   52.8662 C   0  0  0  0  0  0  0  0  0  0  0  0
   68.9784   46.9859   51.7350 C   0  0  0  0  0  0  0  0  0  0  0  0
   68.0257   46.0123   51.9009 C   0  0  0  0  0  0  0  0  0  0  0  0
   67.4796   45.7280   53.1266 C   0  0  0  0  0  0  0  0  0  0  0  0
   67.8876   46.4350   54.2503 C   0  0  0  0  0  0  0  0  0  0  0  0
   68.8355   47.4078   54.1050 C   0  0  0  0  0  0  0  0  0  0  0  0
  8  9  1  0
  9 10  1  0
  9 16  1  0
 10 11  1  0
 11 12  1  0
 12 13  1  0
 12 15  1  0
 13 14  2  0
 13  1  1  0
  1  2  2  0
  1  6  1  0
  2  3  1  0
  3 17  1  0
  3  4  2  0
 17 18  1  0
 18 19  2  0
 18 28  1  0
 19 20  1  0
 20 21  1  0
 21 22  2  0
 21 23  1  0
 23 24  1  0
 23 28  2  0
 24 25  2  0
 25 26  1  0
 26 27  2  0
 27 28  1  0
  4  5  1  0
  5  6  2  0
  6  7  1  0
 15 16  1  0
M  CHG  1   9   1
M  END
>  <minimizedAffinity>  (280) 
-8.90172

$$$$
data/200k_reference_output/data/smiles/12750.pdb
     RDKit          3D

 26 28  0  0  0  0  0  0  0  0999 V2000
   69.7495   40.8184   58.9463 O   0  0  0  0  0  0  0  0  0  0  0  0
   70.8350   34.6436   60.3309 C   0  0  0  0  0  0  0  0  0  0  0  0
   71.3737   35.5084   59.2619 C   0  0  0  0  0  0  0  0  0  0  0  0
   72.2734   35.0451   58.3284 C   0  0  0  0  0  0  0  0  0  0  0  0
   72.7139   35.9356   57.3712 C   0  0  0  0  0  0  0  0  0  0  0  0
   73.5390   35.4863   56.5269 O   0  0  0  0  0  0  0  0  0  0  0  0
   72.3213   37.1838   57.3119 O   0  0  0  0  0  0  0  0  0  0  0  0
   71.4613   37.6778   58.1812 C   0  0  0  0  0  0  0  0  0  0  0  0
   71.0622   39.0134   58.0899 C   0  0  0  0  0  0  0  0  0  0  0  0
   70.1643   39.4981   59.0111 C   0  0  0  0  0  0  0  0  0  0  0  0
   69.6926   38.6492   59.9882 C   0  0  0  0  0  0  0  0  0  0  0  0
   70.0840   37.3321   60.0802 C   0  0  0  0  0  0  0  0  0  0  0  0
   70.9811   36.8382   59.1651 C   0  0  0  0  0  0  0  0  0  0  0  0
   68.6829   41.2459   58.1225 C   0  0  0  0  0  0  0  0  0  0  0  0
   69.0174   42.4241   57.3207 C   0  0  0  0  0  0  0  0  0  0  0  0
   70.2330   42.6739   57.1177 O   0  0  0  0  0  0  0  0  0  0  0  0
   68.0759   43.3170   56.7491 N   0  0  0  0  0  0  0  0  0  0  0  0
   68.4760   44.4267   55.9914 N   0  0  0  0  0  0  0  0  0  0  0  0
   67.9406   44.7506   54.8779 C   0  0  0  0  0  0  0  0  0  0  0  0
   68.3526   45.9089   54.0816 C   0  0  0  0  0  0  0  0  0  0  0  0
   68.7944   47.0730   54.6767 C   0  0  0  0  0  0  0  0  0  0  0  0
   69.1838   48.1654   53.9299 C   0  0  0  0  0  0  0  0  0  0  0  0
   69.1487   48.1454   52.5510 C   0  0  0  0  0  0  0  0  0  0  0  0
   69.5304   49.2195   51.8052 F   0  0  0  0  0  0  0  0  0  0  0  0
   68.7085   46.9866   51.9487 C   0  0  0  0  0  0  0  0  0  0  0  0
   68.3210   45.8969   52.7026 C   0  0  0  0  0  0  0  0  0  0  0  0
  2  3  1  0
  3  4  2  0
  3 13  1  0
  4  5  1  0
  5  6  2  0
  5  7  1  0
  7  8  1  0
  8  9  1  0
  8 13  2  0
  9 10  2  0
 10  1  1  0
 10 11  1  0
  1 14  1  0
 14 15  1  0
 15 16  2  0
 15 17  1  0
 17 18  1  0
 18 19  2  0
 19 20  1  0
 20 21  2  0
 20 26  1  0
 21 22  1  0
 22 23  2  0
 23 24  1  0
 23 25  1  0
 25 26  2  0
 11 12  2  0
 12 13  1  0
M  END
>  <minimizedAffinity>  (281) 
-8.90127

$$$$
data/reference_output_2/data/smiles/197602.pdb
     RDKit          3D

 27 30  0  0  0  0  0  0  0  0999 V2000
   70.8649   46.0006   58.2717 C   0  0  0  0  0  0  0  0  0  0  0  0
   71.9114   46.6536   58.8836 C   0  0  0  0  0  0  0  0  0  0  0  0
   72.1202   47.9923   58.6538 C   0  0  0  0  0  0  0  0  0  0  0  0
   71.2971   48.7129   57.8132 C   0  0  0  0  0  0  0  0  0  0  0  0
   70.2311   48.0664   57.1837 C   0  0  0  0  0  0  0  0  0  0  0  0
   70.0522   46.7303   57.4356 C   0  0  0  0  0  0  0  0  0  0  0  0
   71.4138   43.7468   57.9626 O   0  0  0  0  0  0  0  0  0  0  0  0
   70.6403   44.5908   58.5083 C   0  0  0  0  0  0  0  0  0  0  0  0
   69.6069   44.0596   59.3146 N   0  0  0  0  0  0  0  0  0  0  0  0
   69.4608   42.6552   59.4911 C   0  0  1  0  0  0  0  0  0  0  0  0
   68.6974   42.2569   60.7088 C   0  0  0  0  0  0  0  0  0  0  0  0
   67.9331   40.9900   60.3814 C   0  0  0  0  0  0  0  0  0  0  0  0
   66.7923   41.4044   59.4570 C   0  0  0  0  0  0  0  0  0  0  0  0
   67.3742   42.1070   58.3320 N   0  0  0  0  0  0  0  0  0  0  0  0
   68.8108   41.9793   58.2903 C   0  0  0  0  0  0  0  0  0  0  0  0
   69.3735   48.8652   56.2764 C   0  0  0  0  0  0  0  0  0  0  0  0
   69.7049   48.7288   54.8774 C   0  0  0  0  0  0  0  0  0  0  0  0
   70.7298   49.4084   54.3487 N   0  0  0  0  0  0  0  0  0  0  0  0
   71.0533   49.2766   53.0525 N   0  0  0  0  0  0  0  0  0  0  0  0
   70.3697   48.4649   52.2259 C   0  0  0  0  0  0  0  0  0  0  0  0
   70.6756   48.3505   51.0263 O   0  0  0  0  0  0  0  0  0  0  0  0
   69.2895   47.7301   52.7145 C   0  0  0  0  0  0  0  0  0  0  0  0
   68.9892   47.8942   54.0584 C   0  0  0  0  0  0  0  0  0  0  0  0
   67.8574   47.1506   54.5873 C   0  0  0  0  0  0  0  0  0  0  0  0
   67.8773   45.7490   54.0972 C   0  0  0  0  0  0  0  0  0  0  0  0
   68.0180   45.5947   52.6231 C   0  0  0  0  0  0  0  0  0  0  0  0
   68.4833   46.8225   51.8967 C   0  0  0  0  0  0  0  0  0  0  0  0
  7  8  2  0
  8  9  1  0
  8  1  1  0
 10  9  1  6
 10 11  1  0
 10 15  1  0
 11 12  1  0
 12 13  1  0
 13 14  1  0
 14 15  1  0
  1  2  2  0
  1  6  1  0
  2  3  1  0
  3  4  2  0
  4  5  1  0
  5 16  1  0
  5  6  2  0
 16 17  1  0
 17 18  2  0
 17 23  1  0
 18 19  1  0
 19 20  1  0
 20 21  2  0
 20 22  1  0
 22 23  2  0
 22 27  1  0
 23 24  1  0
 24 25  1  0
 25 26  1  0
 26 27  1  0
M  CHG  1  14   1
M  END
>  <minimizedAffinity>  (282) 
-8.90051

$$$$
data/200k_reference_output/data/smiles/48067.pdb
     RDKit          3D

 26 28  0  0  0  0  0  0  0  0999 V2000
   69.7786   45.1554   59.1352 O   0  0  0  0  0  0  0  0  0  0  0  0
   70.6472   45.0396   58.2364 C   0  0  0  0  0  0  0  0  0  0  0  0
   70.7021   46.0329   57.2483 N   0  0  0  0  0  0  0  0  0  0  0  0
   71.5752   43.8964   58.2248 C   0  0  0  0  0  0  0  0  0  0  0  0
   72.9502   44.1336   58.0906 C   0  0  0  0  0  0  0  0  0  0  0  0
   73.8632   43.1055   58.0733 C   0  0  0  0  0  0  0  0  0  0  0  0
   75.1711   43.4117   57.9404 F   0  0  0  0  0  0  0  0  0  0  0  0
   73.3996   41.8104   58.1920 C   0  0  0  0  0  0  0  0  0  0  0  0
   72.0620   41.5142   58.3271 C   0  0  0  0  0  0  0  0  0  0  0  0
   71.1864   42.5891   58.3377 C   0  0  0  0  0  0  0  0  0  0  0  0
   71.5982   40.1391   58.4506 C   0  0  0  0  0  0  0  0  0  0  0  0
   72.3965   39.0741   58.7987 C   0  0  0  0  0  0  0  0  0  0  0  0
   71.6046   37.9173   58.8151 C   0  0  0  0  0  0  0  0  0  0  0  0
   70.3529   38.3793   58.4680 C   0  0  0  0  0  0  0  0  0  0  0  0
   70.3840   39.6893   58.2603 O   0  0  0  0  0  0  0  0  0  0  0  0
   69.8949   47.1507   57.1308 N   0  0  0  0  0  0  0  0  0  0  0  0
   68.5970   46.7997   56.0617 S   0  0  0  0  0  0  0  0  0  0  0  0
   68.3031   45.3218   56.0215 O   0  0  0  0  0  0  0  0  0  0  0  0
   67.3201   47.4465   56.5585 O   0  0  0  0  0  0  0  0  0  0  0  0
   68.9696   47.2993   54.4435 C   0  0  0  0  0  0  0  0  0  0  0  0
   69.7085   48.4419   54.1690 C   0  0  0  0  0  0  0  0  0  0  0  0
   69.9548   48.7598   52.8535 C   0  0  0  0  0  0  0  0  0  0  0  0
   69.4945   47.9865   51.8032 C   0  0  0  0  0  0  0  0  0  0  0  0
   68.7661   46.8583   52.0592 C   0  0  0  0  0  0  0  0  0  0  0  0
   68.5202   46.5420   53.3815 C   0  0  0  0  0  0  0  0  0  0  0  0
   67.7926   45.4162   53.6483 F   0  0  0  0  0  0  0  0  0  0  0  0
  1  2  2  0
  2  3  1  0
  2  4  1  0
  3 16  1  0
 16 17  1  0
 17 18  2  0
 17 19  2  0
 17 20  1  0
 20 21  2  0
 20 25  1  0
 21 22  1  0
 22 23  2  0
 23 24  1  0
 24 25  2  0
 25 26  1  0
  4  5  2  0
  4 10  1  0
  5  6  1  0
  6  7  1  0
  6  8  2  0
  8  9  1  0
  9 11  1  0
  9 10  2  0
 11 12  2  0
 11 15  1  0
 12 13  1  0
 13 14  2  0
 14 15  1  0
M  END
>  <minimizedAffinity>  (283) 
-8.89986

$$$$
data/reference_output_2/data/smiles/185315.pdb
     RDKit          3D

 27 30  0  0  0  0  0  0  0  0999 V2000
   70.3490   45.4656   58.2554 C   0  0  0  0  0  0  0  0  0  0  0  0
   71.5528   45.7494   58.8592 C   0  0  0  0  0  0  0  0  0  0  0  0
   72.1475   47.0082   58.6979 C   0  0  0  0  0  0  0  0  0  0  0  0
   71.5431   47.9859   57.9365 C   0  0  0  0  0  0  0  0  0  0  0  0
   70.3167   47.6953   57.3235 C   0  0  0  0  0  0  0  0  0  0  0  0
   69.7687   46.4586   57.5026 C   0  0  0  0  0  0  0  0  0  0  0  0
   70.1801   43.0304   57.7713 C   0  0  0  0  0  0  0  0  0  0  0  0
   71.2419   43.2155   57.0645 O   0  0  0  0  0  0  0  0  0  0  0  0
   69.7144   44.1980   58.3911 N   0  0  0  0  0  0  0  0  0  0  0  0
   67.5212   41.8969   56.4536 C   0  0  0  0  0  0  0  0  0  0  0  0
   68.5131   41.2029   57.2829 N   0  0  0  0  0  0  0  0  0  0  0  0
   68.4071   39.8807   57.6172 C   0  0  0  0  0  0  0  0  0  0  0  0
   69.4763   39.5295   58.3931 C   0  0  0  0  0  0  0  0  0  0  0  0
   70.2219   40.6596   58.5184 C   0  0  0  0  0  0  0  0  0  0  0  0
   69.6270   41.6978   57.8313 C   0  0  0  0  0  0  0  0  0  0  0  0
   69.7369   48.7516   56.4892 C   0  0  0  0  0  0  0  0  0  0  0  0
   69.9076   48.6165   55.0450 C   0  0  0  0  0  0  0  0  0  0  0  0
   70.8660   49.4277   54.5000 N   0  0  0  0  0  0  0  0  0  0  0  0
   71.1182   49.4304   53.2101 N   0  0  0  0  0  0  0  0  0  0  0  0
   70.4254   48.6261   52.4197 C   0  0  0  0  0  0  0  0  0  0  0  0
   70.6846   48.6457   51.1770 O   0  0  0  0  0  0  0  0  0  0  0  0
   69.4469   47.7829   52.8926 C   0  0  0  0  0  0  0  0  0  0  0  0
   69.1754   47.7746   54.2511 C   0  0  0  0  0  0  0  0  0  0  0  0
   68.1599   46.8771   54.8296 C   0  0  0  0  0  0  0  0  0  0  0  0
   67.2905   46.2572   53.7626 C   0  0  0  0  0  0  0  0  0  0  0  0
   68.2119   45.7177   52.6766 C   0  0  0  0  0  0  0  0  0  0  0  0
   68.7285   46.9122   51.9318 C   0  0  0  0  0  0  0  0  0  0  0  0
 10 11  1  0
 11 12  1  0
 11 15  1  0
 12 13  2  0
 13 14  1  0
 14 15  2  0
 15  7  1  0
  7  8  2  0
  7  9  1  0
  9  1  1  0
  1  2  2  0
  1  6  1  0
  2  3  1  0
  3  4  2  0
  4  5  1  0
  5 16  1  0
  5  6  2  0
 16 17  1  0
 17 18  2  0
 17 23  1  0
 18 19  1  0
 19 20  1  0
 20 21  2  0
 20 22  1  0
 22 23  2  0
 22 27  1  0
 23 24  1  0
 24 25  1  0
 25 26  1  0
 26 27  1  0
M  END
>  <minimizedAffinity>  (284) 
-8.89952

$$$$
data/200k_reference_output/data/smiles/2454.pdb
     RDKit          3D

 28 31  0  0  0  0  0  0  0  0999 V2000
   69.0555   43.0042   57.1230 C   0  0  0  0  0  0  0  0  0  0  0  0
   69.5214   41.7482   57.4392 C   0  0  0  0  0  0  0  0  0  0  0  0
   70.7408   41.5404   58.0748 C   0  0  0  0  0  0  0  0  0  0  0  0
   71.4640   42.6765   58.3734 C   0  0  0  0  0  0  0  0  0  0  0  0
   71.0067   43.9374   58.0614 C   0  0  0  0  0  0  0  0  0  0  0  0
   71.7341   45.0606   58.3620 C   0  0  0  0  0  0  0  0  0  0  0  0
   72.8365   44.9276   58.9321 O   0  0  0  0  0  0  0  0  0  0  0  0
   71.2382   46.3066   58.0309 N   0  0  0  0  0  0  0  0  0  0  0  0
   70.0902   46.5125   57.4328 C   0  0  0  0  0  0  0  0  0  0  0  0
   69.3650   45.3653   57.1333 N   0  0  0  0  0  0  0  0  0  0  0  0
   69.8011   44.1442   57.4321 C   0  0  0  0  0  0  0  0  0  0  0  0
   71.2051   40.1990   58.3951 C   0  0  0  0  0  0  0  0  0  0  0  0
   70.4383   39.0573   58.3187 C   0  0  0  0  0  0  0  0  0  0  0  0
   71.2090   38.0219   58.6854 N   0  0  0  0  0  0  0  0  0  0  0  0
   72.4297   38.4162   58.9983 N   0  0  0  0  0  0  0  0  0  0  0  0
   72.4371   39.7507   58.8230 C   0  0  0  0  0  0  0  0  0  0  0  0
   67.0194   42.1945   55.9644 C   0  0  0  0  0  0  0  0  0  0  0  0
   67.8504   43.1833   56.4948 O   0  0  0  0  0  0  0  0  0  0  0  0
   69.4952   47.7991   57.0831 C   0  0  1  0  0  0  0  0  0  0  0  0
   70.6111   48.7293   56.7025 N   0  0  0  0  0  0  0  0  0  0  0  0
   68.4522   47.9084   56.0575 C   0  0  0  0  0  0  0  0  0  0  0  0
   68.6667   47.4921   54.6855 C   0  0  0  0  0  0  0  0  0  0  0  0
   67.9587   46.3734   54.2206 C   0  0  0  0  0  0  0  0  0  0  0  0
   68.0214   45.9472   52.9227 C   0  0  0  0  0  0  0  0  0  0  0  0
   68.8011   46.6209   52.0109 C   0  0  0  0  0  0  0  0  0  0  0  0
   69.4983   47.7129   52.4433 C   0  0  0  0  0  0  0  0  0  0  0  0
   70.2764   48.3924   51.5493 F   0  0  0  0  0  0  0  0  0  0  0  0
   69.4504   48.1582   53.7398 C   0  0  0  0  0  0  0  0  0  0  0  0
 17 18  1  0
 18  1  1  0
  1  2  2  0
  1 11  1  0
  2  3  1  0
  3 12  1  0
  3  4  2  0
 12 13  1  0
 12 16  2  0
 13 14  2  0
 14 15  1  0
 15 16  1  0
  4  5  1  0
  5  6  1  0
  5 11  2  0
  6  7  2  0
  6  8  1  0
  8  9  1  0
  9 19  1  0
  9 10  2  0
 19 20  1  6
 19 21  1  0
 21 22  1  0
 22 23  2  0
 22 28  1  0
 23 24  1  0
 24 25  2  0
 25 26  1  0
 26 27  1  0
 26 28  2  0
 10 11  1  0
M  CHG  1  20   1
M  END
>  <minimizedAffinity>  (285) 
-8.89891

$$$$
data/reference_output_2/data/smiles/141184.pdb
     RDKit          3D

 30 33  0  0  0  0  0  0  0  0999 V2000
   71.8980   38.4801   57.7685 O   0  0  0  0  0  0  0  0  0  0  0  0
   71.8984   37.2471   57.9975 C   0  0  0  0  0  0  0  0  0  0  0  0
   72.6301   36.4253   57.2169 N   0  0  0  0  0  0  0  0  0  0  0  0
   72.6341   35.1020   57.4584 C   0  0  0  0  0  0  0  0  0  0  0  0
   73.3582   34.2952   56.6855 C   0  0  0  0  0  0  0  0  0  0  0  0
   71.8737   34.6441   58.5151 C   0  0  0  0  0  0  0  0  0  0  0  0
   71.8716   33.4173   58.7465 O   0  0  0  0  0  0  0  0  0  0  0  0
   71.1448   35.4733   59.2901 N   0  0  0  0  0  0  0  0  0  0  0  0
   71.1337   36.8002   59.0571 C   0  0  0  0  0  0  0  0  0  0  0  0
   70.4132   37.6138   59.8247 C   0  0  0  0  0  0  0  0  0  0  0  0
   74.1553   34.7866   55.5753 C   0  0  0  0  0  0  0  0  0  0  0  0
   73.5091   35.1603   54.4139 C   0  0  0  0  0  0  0  0  0  0  0  0
   74.2164   35.6419   53.3051 C   0  0  0  0  0  0  0  0  0  0  0  0
   75.5863   35.7539   53.3551 C   0  0  0  0  0  0  0  0  0  0  0  0
   76.1944   35.3720   54.5291 C   0  0  0  0  0  0  0  0  0  0  0  0
   75.4894   34.9152   55.5688 N   0  0  0  0  0  0  0  0  0  0  0  0
   76.3381   36.2307   52.2718 O   0  0  0  0  0  0  0  0  0  0  0  0
   77.3684   35.3712   51.7757 C   0  0  0  0  0  0  0  0  0  0  0  0
   77.2129   35.1072   50.3392 C   0  0  0  0  0  0  0  0  0  0  0  0
   77.9576   35.7899   49.4084 C   0  0  0  0  0  0  0  0  0  0  0  0
   77.8121   35.5424   48.0670 C   0  0  0  0  0  0  0  0  0  0  0  0
   76.9122   34.5978   47.6141 C   0  0  0  0  0  0  0  0  0  0  0  0
   76.1729   33.9200   48.5558 C   0  0  0  0  0  0  0  0  0  0  0  0
   76.3160   34.1657   49.9004 C   0  0  0  0  0  0  0  0  0  0  0  0
   69.6168   37.1227   60.9328 C   0  0  0  0  0  0  0  0  0  0  0  0
   68.3092   36.7537   60.7687 C   0  0  0  0  0  0  0  0  0  0  0  0
   67.5551   36.2829   61.8442 C   0  0  0  0  0  0  0  0  0  0  0  0
   68.1254   36.1839   63.0982 C   0  0  0  0  0  0  0  0  0  0  0  0
   69.4438   36.5588   63.2515 C   0  0  0  0  0  0  0  0  0  0  0  0
   70.1856   37.0258   62.1758 C   0  0  0  0  0  0  0  0  0  0  0  0
  1  2  2  0
  2  3  1  0
  2  9  1  0
  3  4  1  0
  4  5  2  0
  4  6  1  0
  5 11  1  0
 11 12  2  0
 11 16  1  0
 12 13  1  0
 13 14  2  0
 14 17  1  0
 14 15  1  0
 17 18  1  0
 18 19  1  0
 19 20  2  0
 19 24  1  0
 20 21  1  0
 21 22  2  0
 22 23  1  0
 23 24  2  0
 15 16  2  0
  6  7  2  0
  6  8  1  0
  8  9  1  0
  9 10  2  0
 10 25  1  0
 25 26  2  0
 25 30  1  0
 26 27  1  0
 27 28  2  0
 28 29  1  0
 29 30  2  0
M  END
>  <minimizedAffinity>  (286) 
-8.89748

$$$$
data/200k_reference_output/data/smiles/86270.pdb
     RDKit          3D

 28 31  0  0  0  0  0  0  0  0999 V2000
   68.9632   44.6865   56.3247 C   0  0  0  0  0  0  0  0  0  0  0  0
   69.8303   44.1111   57.2233 C   0  0  0  0  0  0  0  0  0  0  0  0
   69.4754   42.7790   57.4122 C   0  0  0  0  0  0  0  0  0  0  0  0
   68.4144   42.5872   56.6305 N   0  0  0  0  0  0  0  0  0  0  0  0
   68.1013   43.7302   55.9736 N   0  0  0  0  0  0  0  0  0  0  0  0
   67.7593   41.3087   56.5601 C   0  0  0  0  0  0  0  0  0  0  0  0
   68.3207   40.2409   57.3858 C   0  0  0  0  0  0  0  0  0  0  0  0
   67.7890   39.0752   57.3720 O   0  0  0  0  0  0  0  0  0  0  0  0
   69.4412   40.4038   58.2250 N   0  0  0  0  0  0  0  0  0  0  0  0
   70.0261   41.6978   58.2348 C   0  0  0  0  0  0  0  0  0  0  0  0
   71.0247   41.9026   58.9620 O   0  0  0  0  0  0  0  0  0  0  0  0
   68.8701   48.6763   54.8164 C   0  0  0  0  0  0  0  0  0  0  0  0
   69.2699   48.4265   56.1099 C   0  0  0  0  0  0  0  0  0  0  0  0
   69.2986   47.1261   56.5951 C   0  0  0  0  0  0  0  0  0  0  0  0
   68.9330   46.0501   55.8159 C   0  0  0  0  0  0  0  0  0  0  0  0
   68.5345   46.3141   54.5217 C   0  0  0  0  0  0  0  0  0  0  0  0
   68.5048   47.6045   54.0324 C   0  0  0  0  0  0  0  0  0  0  0  0
   69.6443   50.4054   53.2538 C   0  0  0  0  0  0  0  0  0  0  0  0
   68.8373   49.9890   54.3124 O   0  0  0  0  0  0  0  0  0  0  0  0
   69.9060   39.2756   58.9975 C   0  0  0  0  0  0  0  0  0  0  0  0
   71.2634   38.8835   58.4210 C   0  0  0  0  0  0  0  0  0  0  0  0
   71.5183   37.4607   58.4501 C   0  0  0  0  0  0  0  0  0  0  0  0
   70.9877   36.6695   59.4390 C   0  0  0  0  0  0  0  0  0  0  0  0
   71.2281   35.2928   59.4747 C   0  0  0  0  0  0  0  0  0  0  0  0
   72.0107   34.7521   58.4926 C   0  0  0  0  0  0  0  0  0  0  0  0
   72.2608   33.4206   58.5023 F   0  0  0  0  0  0  0  0  0  0  0  0
   72.5634   35.5089   57.4818 C   0  0  0  0  0  0  0  0  0  0  0  0
   72.2971   36.8642   57.4883 C   0  0  0  0  0  0  0  0  0  0  0  0
 18 19  1  0
 19 12  1  0
 12 13  2  0
 12 17  1  0
 13 14  1  0
 14 15  2  0
 15  1  1  0
 15 16  1  0
  1  2  1  0
  1  5  2  0
  2  3  2  0
  3  4  1  0
  3 10  1  0
  4  5  1  0
  4  6  1  0
  6  7  1  0
  7  8  2  0
  7  9  1  0
  9 20  1  0
  9 10  1  0
 20 21  1  0
 21 22  1  0
 22 23  2  0
 22 28  1  0
 23 24  1  0
 24 25  2  0
 25 26  1  0
 25 27  1  0
 27 28  2  0
 10 11  2  0
 16 17  2  0
M  END
>  <minimizedAffinity>  (287) 
-8.89705

$$$$
data/reference_output_2/data/smiles/176789.pdb
     RDKit          3D

 24 26  0  0  0  0  0  0  0  0999 V2000
   69.2968   43.7243   56.8155 N   0  0  0  0  0  0  0  0  0  0  0  0
   68.8777   42.5248   57.0116 C   0  0  0  0  0  0  0  0  0  0  0  0
   67.5764   42.0409   56.6162 C   0  0  0  0  0  0  0  0  0  0  0  0
   66.6839   42.7063   56.0359 O   0  0  0  0  0  0  0  0  0  0  0  0
   67.5233   40.6706   57.0188 N   0  0  0  0  0  0  0  0  0  0  0  0
   68.7404   40.2901   57.6475 C   0  0  0  0  0  0  0  0  0  0  0  0
   69.1651   39.0993   58.1944 C   0  0  0  0  0  0  0  0  0  0  0  0
   70.4235   39.0143   58.7485 C   0  0  0  0  0  0  0  0  0  0  0  0
   71.2798   40.0937   58.7725 C   0  0  0  0  0  0  0  0  0  0  0  0
   72.8780   39.9723   59.4807 Cl  0  0  0  0  0  0  0  0  0  0  0  0
   70.8230   41.2850   58.2112 C   0  0  0  0  0  0  0  0  0  0  0  0
   71.8436   42.6905   58.2034 Cl  0  0  0  0  0  0  0  0  0  0  0  0
   69.5635   41.3950   57.6497 C   0  0  0  0  0  0  0  0  0  0  0  0
   70.0272   46.3099   56.9878 O   0  0  0  0  0  0  0  0  0  0  0  0
   68.9813   46.0537   56.3262 C   0  0  0  0  0  0  0  0  0  0  0  0
   68.5290   44.7117   56.1880 N   0  0  0  0  0  0  0  0  0  0  0  0
   68.2603   47.2045   55.7101 C   0  0  0  0  0  0  0  0  0  0  0  0
   68.8499   47.5827   54.4082 C   0  0  0  0  0  0  0  0  0  0  0  0
   69.5992   48.7292   54.3326 C   0  0  0  0  0  0  0  0  0  0  0  0
   70.1788   49.1377   53.1418 C   0  0  0  0  0  0  0  0  0  0  0  0
   69.9977   48.3726   51.9982 C   0  0  0  0  0  0  0  0  0  0  0  0
   70.5975   48.8287   50.8430 O   0  0  0  0  0  0  0  0  0  0  0  0
   69.2447   47.2231   52.0787 C   0  0  0  0  0  0  0  0  0  0  0  0
   68.6730   46.8267   53.2723 C   0  0  0  0  0  0  0  0  0  0  0  0
 14 15  2  0
 15 17  1  0
 15 16  1  0
 17 18  1  0
 18 19  2  0
 18 24  1  0
 19 20  1  0
 20 21  2  0
 21 22  1  0
 21 23  1  0
 23 24  2  0
 16  1  1  0
  1  2  2  0
  2  3  1  0
  2 13  1  0
  3  4  2  0
  3  5  1  0
  5  6  1  0
  6  7  1  0
  6 13  2  0
  7  8  2  0
  8  9  1  0
  9 10  1  0
  9 11  2  0
 11 12  1  0
 11 13  1  0
M  END
>  <minimizedAffinity>  (288) 
-8.89694

$$$$
data/reference_output_2/data/smiles/137525.pdb
     RDKit          3D

 28 31  0  0  0  0  0  0  0  0999 V2000
   71.4399   35.6637   59.1974 C   0  0  0  0  0  0  0  0  0  0  0  0
   70.3138   36.2265   59.8325 C   0  0  0  0  0  0  0  0  0  0  0  0
   69.9741   37.5424   59.6222 C   0  0  0  0  0  0  0  0  0  0  0  0
   70.7139   38.3681   58.7855 C   0  0  0  0  0  0  0  0  0  0  0  0
   71.8020   37.8084   58.1759 C   0  0  0  0  0  0  0  0  0  0  0  0
   72.1667   36.4586   58.3793 C   0  0  0  0  0  0  0  0  0  0  0  0
   70.2704   39.7659   58.6337 C   0  0  2  0  0  0  0  0  0  0  0  0
   69.4750   39.9364   57.4975 O   0  0  0  0  0  0  0  0  0  0  0  0
   68.7420   41.1144   57.6720 C   0  0  1  0  0  0  0  0  0  0  0  0
   69.6603   42.2809   57.5912 C   0  0  1  0  0  0  0  0  0  0  0  0
   69.0338   43.3464   58.2795 O   0  0  0  0  0  0  0  0  0  0  0  0
   71.0204   42.1026   58.1584 C   0  0  2  0  0  0  0  0  0  0  0  0
   71.9252   42.5169   57.1460 O   0  0  0  0  0  0  0  0  0  0  0  0
   71.4091   40.7229   58.5610 C   0  0  1  0  0  0  0  0  0  0  0  0
   72.0612   40.8406   59.8164 O   0  0  0  0  0  0  0  0  0  0  0  0
   67.7215   41.1956   56.5593 C   0  0  0  0  0  0  0  0  0  0  0  0
   67.8138   40.0658   55.7171 O   0  0  0  0  0  0  0  0  0  0  0  0
   70.9188   33.6664   60.5130 C   0  0  0  0  0  0  0  0  0  0  0  0
   71.7955   34.2786   59.4636 C   0  0  0  0  0  0  0  0  0  0  0  0
   73.3401   36.0072   57.6504 C   0  0  0  0  0  0  0  0  0  0  0  0
   73.1048   35.2518   56.4072 C   0  0  0  0  0  0  0  0  0  0  0  0
   73.2471   33.8632   56.3879 C   0  0  0  0  0  0  0  0  0  0  0  0
   73.0750   33.1352   55.2379 C   0  0  0  0  0  0  0  0  0  0  0  0
   72.7569   33.7702   54.0799 C   0  0  0  0  0  0  0  0  0  0  0  0
   72.6063   35.1299   54.0451 C   0  0  0  0  0  0  0  0  0  0  0  0
   72.7836   35.8412   55.2093 C   0  0  0  0  0  0  0  0  0  0  0  0
   72.2893   35.1723   52.5954 C   0  0  0  0  0  0  0  0  0  0  0  0
   72.4479   33.6863   52.6325 C   0  0  0  0  0  0  0  0  0  0  0  0
 18 19  1  0
 19  1  1  0
  1  2  2  0
  1  6  1  0
  2  3  1  0
  3  4  2  0
  7  4  1  6
  4  5  1  0
  7  8  1  0
  7 14  1  0
  8  9  1  0
  9 16  1  6
  9 10  1  0
 16 17  1  0
 10 11  1  1
 10 12  1  0
 12 13  1  6
 12 14  1  0
 14 15  1  1
  5  6  2  0
  6 20  1  0
 20 21  1  0
 21 22  2  0
 21 26  1  0
 22 23  1  0
 23 24  2  0
 24 25  1  0
 24 28  1  0
 25 26  2  0
 25 27  1  0
 27 28  1  0
M  END
>  <minimizedAffinity>  (289) 
-8.89650

$$$$
data/reference_output_2/data/smiles/187360.pdb
     RDKit          3D

 27 30  0  0  0  0  0  0  0  0999 V2000
   73.6639   35.2918   55.8144 C   0  0  0  0  0  0  0  0  0  0  0  0
   75.0288   35.1214   55.8279 C   0  0  0  0  0  0  0  0  0  0  0  0
   75.8386   35.2398   54.7294 C   0  0  0  0  0  0  0  0  0  0  0  0
   75.2833   35.5498   53.5113 C   0  0  0  0  0  0  0  0  0  0  0  0
   73.8790   35.7295   53.4740 C   0  0  0  0  0  0  0  0  0  0  0  0
   73.1016   35.6030   54.5929 C   0  0  0  0  0  0  0  0  0  0  0  0
   70.4725   37.3645   59.8999 C   0  0  0  0  0  0  0  0  0  0  0  0
   70.8275   35.9259   59.8348 C   0  0  0  0  0  0  0  0  0  0  0  0
   71.6148   35.5061   58.7974 C   0  0  0  0  0  0  0  0  0  0  0  0
   72.2258   36.0868   57.7009 C   0  0  0  0  0  0  0  0  0  0  0  0
   72.1582   37.2982   57.4108 O   0  0  0  0  0  0  0  0  0  0  0  0
   72.8989   35.1519   56.9997 N   0  0  0  0  0  0  0  0  0  0  0  0
   72.7216   33.9882   57.6382 N   0  0  0  0  0  0  0  0  0  0  0  0
   71.9538   34.1678   58.7232 C   0  0  0  0  0  0  0  0  0  0  0  0
   71.4683   33.3379   59.7129 C   0  0  0  0  0  0  0  0  0  0  0  0
   70.6707   33.8198   60.7467 C   0  0  0  0  0  0  0  0  0  0  0  0
   70.2554   33.0097   61.6256 O   0  0  0  0  0  0  0  0  0  0  0  0
   70.3537   35.1198   60.7994 N   0  0  0  0  0  0  0  0  0  0  0  0
   69.5153   35.6263   61.8843 C   0  0  0  0  0  0  0  0  0  0  0  0
   75.9855   35.6948   52.3537 O   0  0  0  0  0  0  0  0  0  0  0  0
   77.0525   35.1312   51.7531 C   0  0  0  0  0  0  0  0  0  0  0  0
   77.0683   34.9668   50.3009 C   0  0  0  0  0  0  0  0  0  0  0  0
   77.9281   35.7473   49.5368 C   0  0  0  0  0  0  0  0  0  0  0  0
   77.9650   35.6530   48.1605 C   0  0  0  0  0  0  0  0  0  0  0  0
   77.1494   34.7802   47.4969 C   0  0  0  0  0  0  0  0  0  0  0  0
   76.2908   33.9969   48.2281 C   0  0  0  0  0  0  0  0  0  0  0  0
   76.2601   34.0990   49.6173 C   0  0  0  0  0  0  0  0  0  0  0  0
  7  8  1  0
  8  9  2  0
  8 18  1  0
  9 10  1  0
  9 14  1  0
 10 11  2  0
 10 12  1  0
 12  1  1  0
 12 13  1  0
  1  2  2  0
  1  6  1  0
  2  3  1  0
  3  4  2  0
  4 20  1  0
  4  5  1  0
 20 21  1  0
 21 22  1  0
 22 23  2  0
 22 27  1  0
 23 24  1  0
 24 25  2  0
 25 26  1  0
 26 27  2  0
  5  6  2  0
 13 14  1  0
 14 15  2  0
 15 16  1  0
 16 17  2  0
 16 18  1  0
 18 19  1  0
M  END
>  <minimizedAffinity>  (290) 
-8.89476

$$$$
data/200k_reference_output/data/smiles/73930.pdb
     RDKit          3D

 26 28  0  0  0  0  0  0  0  0999 V2000
   69.0587   48.1958   55.4151 C   0  0  0  0  0  0  0  0  0  0  0  0
   69.9928   49.2056   55.1431 C   0  0  0  0  0  0  0  0  0  0  0  0
   70.5214   49.4512   53.9182 C   0  0  0  0  0  0  0  0  0  0  0  0
   70.1406   48.6826   52.8553 C   0  0  0  0  0  0  0  0  0  0  0  0
   70.6799   48.9349   51.6026 O   0  0  0  0  0  0  0  0  0  0  0  0
   69.2306   47.6771   53.0578 C   0  0  0  0  0  0  0  0  0  0  0  0
   68.8843   46.9039   51.9683 C   0  0  0  0  0  0  0  0  0  0  0  0
   67.9896   45.8683   52.1510 C   0  0  0  0  0  0  0  0  0  0  0  0
   67.4787   45.6465   53.4076 C   0  0  0  0  0  0  0  0  0  0  0  0
   67.8202   46.4149   54.4978 C   0  0  0  0  0  0  0  0  0  0  0  0
   68.7102   47.4502   54.3195 C   0  0  0  0  0  0  0  0  0  0  0  0
   68.4031   48.0887   57.0047 S   0  0  0  0  0  0  0  0  0  0  0  0
   69.0466   46.8854   57.6948 O   0  0  0  0  0  0  0  0  0  0  0  0
   66.9305   47.7075   56.9789 O   0  0  0  0  0  0  0  0  0  0  0  0
   68.6688   49.4449   58.0007 N   0  0  0  0  0  0  0  0  0  0  0  0
   71.1424   52.2037   57.6496 C   0  0  0  0  0  0  0  0  0  0  0  0
   70.3688   53.1789   57.0389 C   0  0  0  0  0  0  0  0  0  0  0  0
   69.0452   52.8864   56.7619 C   0  0  0  0  0  0  0  0  0  0  0  0
   68.4867   51.6854   57.0680 C   0  0  0  0  0  0  0  0  0  0  0  0
   69.2619   50.6909   57.6860 C   0  0  0  0  0  0  0  0  0  0  0  0
   70.5663   51.0045   57.9485 C   0  0  0  0  0  0  0  0  0  0  0  0
   73.6341   52.7520   58.1916 N   0  0  0  0  0  0  0  0  0  0  0  0
   72.5277   52.5044   57.9404 C   0  0  0  0  0  0  0  0  0  0  0  0
   71.5002   50.5275   53.6934 C   0  0  0  0  0  0  0  0  0  0  0  0
   72.7324   50.3138   53.8296 O   0  0  0  0  0  0  0  0  0  0  0  0
   70.9976   51.7680   53.3302 O   0  0  0  0  0  0  0  0  0  0  0  0
 22 23  3  0
 23 16  1  0
 16 17  2  0
 16 21  1  0
 17 18  1  0
 18 19  2  0
 19 20  1  0
 20 15  1  0
 20 21  2  0
 15 12  1  0
 12 13  2  0
 12 14  2  0
 12  1  1  0
  1  2  2  0
  1 11  1  0
  2  3  1  0
  3 24  1  0
  3  4  2  0
 24 25  2  0
 24 26  1  0
  4  5  1  0
  4  6  1  0
  6  7  1  0
  6 11  2  0
  7  8  2  0
  8  9  1  0
  9 10  2  0
 10 11  1  0
M  END
>  <minimizedAffinity>  (291) 
-8.89345

$$$$
data/reference_output_2/data/smiles/141202.pdb
     RDKit          3D

 26 28  0  0  0  0  0  0  0  0999 V2000
   69.3173   46.6816   57.2678 N   0  0  0  0  0  0  0  0  0  0  0  0
   68.9225   47.6528   56.5200 C   0  0  0  0  0  0  0  0  0  0  0  0
   68.6029   49.0080   57.1038 C   0  0  0  0  0  0  0  0  0  0  0  0
   69.4044   50.0986   56.4910 C   0  0  0  0  0  0  0  0  0  0  0  0
   69.9303   49.8260   54.8377 S   0  0  0  0  0  0  0  0  0  0  0  0
   71.4412   49.6221   54.8841 O   0  0  0  0  0  0  0  0  0  0  0  0
   69.6396   51.0353   53.9979 O   0  0  0  0  0  0  0  0  0  0  0  0
   69.2372   48.3838   54.1717 C   0  0  0  0  0  0  0  0  0  0  0  0
   69.1141   48.1469   52.8401 C   0  0  0  0  0  0  0  0  0  0  0  0
   68.5475   46.9588   52.3801 C   0  0  0  0  0  0  0  0  0  0  0  0
   68.1083   46.0182   53.3142 C   0  0  0  0  0  0  0  0  0  0  0  0
   67.5601   44.8686   52.8228 F   0  0  0  0  0  0  0  0  0  0  0  0
   68.2254   46.2419   54.6675 C   0  0  0  0  0  0  0  0  0  0  0  0
   68.7871   47.4166   55.0896 C   0  0  0  0  0  0  0  0  0  0  0  0
   69.6150   45.4422   56.7491 N   0  0  0  0  0  0  0  0  0  0  0  0
   70.0236   44.1622   57.8289 S   0  0  0  0  0  0  0  0  0  0  0  0
   69.6768   44.5337   59.2654 O   0  0  0  0  0  0  0  0  0  0  0  0
   71.5090   43.8937   57.8308 O   0  0  0  0  0  0  0  0  0  0  0  0
   66.3514   41.5811   55.1956 C   0  0  0  0  0  0  0  0  0  0  0  0
   67.4605   41.5497   56.2056 C   0  0  0  0  0  0  0  0  0  0  0  0
   67.8098   40.3817   56.8358 C   0  0  0  0  0  0  0  0  0  0  0  0
   68.8289   40.3501   57.7651 C   0  0  0  0  0  0  0  0  0  0  0  0
   69.5135   41.5327   58.0657 C   0  0  0  0  0  0  0  0  0  0  0  0
   70.6164   41.5330   59.0571 C   0  0  0  0  0  0  0  0  0  0  0  0
   69.1734   42.6953   57.4460 C   0  0  0  0  0  0  0  0  0  0  0  0
   68.1557   42.7023   56.5255 C   0  0  0  0  0  0  0  0  0  0  0  0
 19 20  1  0
 20 21  2  0
 20 26  1  0
 21 22  1  0
 22 23  2  0
 23 24  1  0
 23 25  1  0
 25 16  1  0
 25 26  2  0
 16 17  2  0
 16 18  2  0
 16 15  1  0
 15  1  1  0
  1  2  2  0
  2  3  1  0
  2 14  1  0
  3  4  1  0
  4  5  1  0
  5  6  2  0
  5  7  2  0
  5  8  1  0
  8  9  2  0
  8 14  1  0
  9 10  1  0
 10 11  2  0
 11 12  1  0
 11 13  1  0
 13 14  2  0
M  END
>  <minimizedAffinity>  (292) 
-8.89297

$$$$
data/200k_reference_output/data/smiles/49128.pdb
     RDKit          3D

 28 31  0  0  0  0  0  0  0  0999 V2000
   72.5121   51.6576   53.8539 O   0  0  0  0  0  0  0  0  0  0  0  0
   72.2113   50.9615   54.8557 C   0  0  0  0  0  0  0  0  0  0  0  0
   73.2886   50.4457   55.6862 C   0  0  0  0  0  0  0  0  0  0  0  0
   74.6273   50.7024   55.3829 C   0  0  0  0  0  0  0  0  0  0  0  0
   75.5861   50.1882   56.1911 C   0  0  0  0  0  0  0  0  0  0  0  0
   75.2404   49.4284   57.2868 C   0  0  0  0  0  0  0  0  0  0  0  0
   73.9305   49.1558   57.6155 C   0  0  0  0  0  0  0  0  0  0  0  0
   72.9245   49.6781   56.7942 C   0  0  0  0  0  0  0  0  0  0  0  0
   71.5488   49.4306   57.0730 N   0  0  0  0  0  0  0  0  0  0  0  0
   70.6052   50.4169   56.6124 C   0  0  1  0  0  0  0  0  0  0  0  0
   70.8509   50.6576   55.2118 N   0  0  0  0  0  0  0  0  0  0  0  0
   69.2325   50.1887   57.0097 C   0  0  0  0  0  0  0  0  0  0  0  0
   68.7522   48.9386   57.3085 C   0  0  0  0  0  0  0  0  0  0  0  0
   67.4405   48.7752   57.7037 C   0  0  0  0  0  0  0  0  0  0  0  0
   66.5599   49.8468   57.8158 C   0  0  0  0  0  0  0  0  0  0  0  0
   67.0408   51.1036   57.5161 C   0  0  0  0  0  0  0  0  0  0  0  0
   68.3545   51.2457   57.1236 C   0  0  0  0  0  0  0  0  0  0  0  0
   68.8071   52.5365   56.8285 O   0  0  0  0  0  0  0  0  0  0  0  0
   69.9294   50.6608   54.1999 N   0  0  0  0  0  0  0  0  0  0  0  0
   70.1103   49.5486   52.9483 S   0  0  0  0  0  0  0  0  0  0  0  0
   69.8174   50.0560   51.5744 O   0  0  0  0  0  0  0  0  0  0  0  0
   71.5735   49.0956   52.8866 O   0  0  0  0  0  0  0  0  0  0  0  0
   69.1972   48.0811   53.1621 C   0  0  0  0  0  0  0  0  0  0  0  0
   68.7882   47.6183   54.3856 C   0  0  0  0  0  0  0  0  0  0  0  0
   68.0613   46.4338   54.4683 C   0  0  0  0  0  0  0  0  0  0  0  0
   67.7375   45.7042   53.3399 C   0  0  0  0  0  0  0  0  0  0  0  0
   68.1539   46.1777   52.1131 C   0  0  0  0  0  0  0  0  0  0  0  0
   68.8755   47.3553   52.0482 C   0  0  0  0  0  0  0  0  0  0  0  0
  1  2  2  0
  2  3  1  0
  2 11  1  0
  3  4  1  0
  3  8  2  0
  4  5  2  0
  5  6  1  0
  6  7  2  0
  7  8  1  0
  8  9  1  0
  9 10  1  0
 10 12  1  6
 10 11  1  0
 12 13  2  0
 12 17  1  0
 13 14  1  0
 14 15  2  0
 15 16  1  0
 16 17  2  0
 17 18  1  0
 11 19  1  0
 19 20  1  0
 20 21  2  0
 20 22  2  0
 20 23  1  0
 23 24  2  0
 23 28  1  0
 24 25  1  0
 25 26  2  0
 26 27  1  0
 27 28  2  0
M  END
>  <minimizedAffinity>  (293) 
-8.89247

$$$$
data/200k_reference_output/data/smiles/76801.pdb
     RDKit          3D

 26 28  0  0  0  0  0  0  0  0999 V2000
   70.1562   42.7928   57.6266 C   0  0  0  0  0  0  0  0  0  0  0  0
   70.8480   43.9233   58.0104 C   0  0  0  0  0  0  0  0  0  0  0  0
   70.4519   45.1689   57.5509 C   0  0  0  0  0  0  0  0  0  0  0  0
   69.3685   45.3265   56.7054 C   0  0  0  0  0  0  0  0  0  0  0  0
   68.7119   44.2241   56.3437 N   0  0  0  0  0  0  0  0  0  0  0  0
   67.6335   44.3224   55.5069 O   0  0  0  0  0  0  0  0  0  0  0  0
   69.0832   42.9833   56.7839 C   0  0  0  0  0  0  0  0  0  0  0  0
   71.7110   41.3597   58.6072 O   0  0  0  0  0  0  0  0  0  0  0  0
   70.5644   41.4796   58.1037 C   0  0  0  0  0  0  0  0  0  0  0  0
   69.7699   40.3291   58.0438 N   0  0  0  0  0  0  0  0  0  0  0  0
   70.1870   39.0533   58.5158 C   0  0  0  0  0  0  0  0  0  0  0  0
   71.3007   38.4309   57.9750 C   0  0  0  0  0  0  0  0  0  0  0  0
   71.7554   37.2029   58.3846 C   0  0  0  0  0  0  0  0  0  0  0  0
   71.0904   36.5370   59.3780 C   0  0  0  0  0  0  0  0  0  0  0  0
   71.5361   35.3162   59.7897 F   0  0  0  0  0  0  0  0  0  0  0  0
   69.9713   37.1296   59.9420 C   0  0  0  0  0  0  0  0  0  0  0  0
   69.5270   38.3678   59.5178 C   0  0  0  0  0  0  0  0  0  0  0  0
   68.8859   46.9052   56.1402 S   0  0  0  0  0  0  0  0  0  0  0  0
   67.5071   47.2308   56.6531 O   0  0  0  0  0  0  0  0  0  0  0  0
   69.8774   47.9344   56.6030 O   0  0  0  0  0  0  0  0  0  0  0  0
   68.8035   46.9122   54.4020 C   0  0  0  0  0  0  0  0  0  0  0  0
   69.5319   47.8406   53.6952 C   0  0  0  0  0  0  0  0  0  0  0  0
   69.4937   47.8670   52.3173 C   0  0  0  0  0  0  0  0  0  0  0  0
   68.7269   46.9668   51.6141 C   0  0  0  0  0  0  0  0  0  0  0  0
   67.9943   46.0323   52.3018 C   0  0  0  0  0  0  0  0  0  0  0  0
   68.0392   46.0127   53.7047 C   0  0  0  0  0  0  0  0  0  0  0  0
  8  9  2  0
  9 10  1  0
  9  1  1  0
 10 11  1  0
 11 12  2  0
 11 17  1  0
 12 13  1  0
 13 14  2  0
 14 15  1  0
 14 16  1  0
 16 17  2  0
  1  2  2  0
  1  7  1  0
  2  3  1  0
  3  4  2  0
  4 18  1  0
  4  5  1  0
 18 19  2  0
 18 20  2  0
 18 21  1  0
 21 22  2  0
 21 26  1  0
 22 23  1  0
 23 24  2  0
 24 25  1  0
 25 26  2  0
  5  6  1  0
  5  7  2  0
M  CHG  2   5   1   6  -1
M  END
>  <minimizedAffinity>  (294) 
-8.89052

$$$$
data/200k_reference_output/data/smiles/38749.pdb
     RDKit          3D

 28 32  0  0  0  0  0  0  0  0999 V2000
   76.5480   34.7417   55.9804 C   0  0  0  0  0  0  0  0  0  0  0  0
   75.4305   34.8426   55.0263 C   0  0  0  0  0  0  0  0  0  0  0  0
   75.4850   35.5072   53.8788 N   0  0  0  0  0  0  0  0  0  0  0  0
   74.2615   35.3535   53.3061 C   0  0  0  0  0  0  0  0  0  0  0  0
   73.4784   34.5947   54.1150 C   0  0  0  0  0  0  0  0  0  0  0  0
   74.2276   34.2711   55.2100 N   0  0  0  0  0  0  0  0  0  0  0  0
   76.5231   36.2734   53.2344 C   0  0  0  0  0  0  0  0  0  0  0  0
   77.2449   35.5218   52.1695 C   0  0  0  0  0  0  0  0  0  0  0  0
   78.0537   34.4476   52.4604 C   0  0  0  0  0  0  0  0  0  0  0  0
   78.7034   33.7844   51.4458 C   0  0  0  0  0  0  0  0  0  0  0  0
   78.5988   34.1305   50.1160 C   0  0  0  0  0  0  0  0  0  0  0  0
   79.2697   33.4390   49.1190 C   0  0  0  0  0  0  0  0  0  0  0  0
   79.1424   33.8124   47.8012 C   0  0  0  0  0  0  0  0  0  0  0  0
   78.3344   34.8902   47.4834 C   0  0  0  0  0  0  0  0  0  0  0  0
   77.6842   35.5542   48.4922 C   0  0  0  0  0  0  0  0  0  0  0  0
   77.7867   35.2092   49.8293 C   0  0  0  0  0  0  0  0  0  0  0  0
   77.1344   35.8753   50.8404 C   0  0  0  0  0  0  0  0  0  0  0  0
   73.6986   33.4643   56.2685 C   0  0  0  0  0  0  0  0  0  0  0  0
   72.9059   34.2438   57.2600 C   0  0  0  0  0  0  0  0  0  0  0  0
   72.3160   33.6647   58.3592 C   0  0  0  0  0  0  0  0  0  0  0  0
   71.5841   34.4078   59.2648 C   0  0  0  0  0  0  0  0  0  0  0  0
   71.4357   35.7622   59.0688 C   0  0  0  0  0  0  0  0  0  0  0  0
   70.7186   36.4994   59.9540 C   0  0  0  0  0  0  0  0  0  0  0  0
   70.5509   37.8549   59.7886 C   0  0  0  0  0  0  0  0  0  0  0  0
   71.1279   38.4675   58.6984 C   0  0  0  0  0  0  0  0  0  0  0  0
   71.8562   37.7365   57.7952 C   0  0  0  0  0  0  0  0  0  0  0  0
   72.0162   36.3694   57.9773 C   0  0  0  0  0  0  0  0  0  0  0  0
   72.7524   35.5915   57.0756 C   0  0  0  0  0  0  0  0  0  0  0  0
  1  2  1  0
  2  3  1  0
  2  6  2  0
  3  7  1  0
  3  4  1  0
  7  8  1  0
  8  9  2  0
  8 17  1  0
  9 10  1  0
 10 11  2  0
 11 12  1  0
 11 16  1  0
 12 13  2  0
 13 14  1  0
 14 15  2  0
 15 16  1  0
 16 17  2  0
  4  5  2  0
  5  6  1  0
  6 18  1  0
 18 19  1  0
 19 20  2  0
 19 28  1  0
 20 21  1  0
 21 22  2  0
 22 23  1  0
 22 27  1  0
 23 24  2  0
 24 25  1  0
 25 26  2  0
 26 27  1  0
 27 28  2  0
M  CHG  1   6   1
M  END
>  <minimizedAffinity>  (295) 
-8.88947

$$$$
data/200k_reference_output/data/smiles/30392.pdb
     RDKit          3D

 27 29  0  0  0  0  0  0  0  0999 V2000
   70.0881   45.0981   58.8728 N   0  0  0  0  0  0  0  0  0  0  0  0
   71.0510   46.0189   58.4233 C   0  0  0  0  0  0  0  0  0  0  0  0
   72.2041   45.5830   58.1787 O   0  0  0  0  0  0  0  0  0  0  0  0
   70.0762   42.7450   58.1021 C   0  0  0  0  0  0  0  0  0  0  0  0
   69.5790   43.1982   57.0072 O   0  0  0  0  0  0  0  0  0  0  0  0
   70.3368   43.7312   59.0632 N   0  0  0  0  0  0  0  0  0  0  0  0
   70.8718   38.6176   58.5289 C   0  0  0  0  0  0  0  0  0  0  0  0
   69.5829   39.0346   58.3371 C   0  0  0  0  0  0  0  0  0  0  0  0
   69.2990   40.3979   58.1933 C   0  0  0  0  0  0  0  0  0  0  0  0
   70.3129   41.3232   58.2445 C   0  0  0  0  0  0  0  0  0  0  0  0
   71.5901   40.8673   58.4378 C   0  0  0  0  0  0  0  0  0  0  0  0
   71.8856   39.5200   58.5822 C   0  0  0  0  0  0  0  0  0  0  0  0
   71.1482   36.8009   60.1518 C   0  0  0  0  0  0  0  0  0  0  0  0
   71.2171   37.1607   58.6867 C   0  0  0  0  0  0  0  0  0  0  0  0
   70.7992   47.4640   58.2192 C   0  0  0  0  0  0  0  0  0  0  0  0
   69.3687   47.6873   57.8241 C   0  0  0  0  0  0  0  0  0  0  0  0
   69.0478   47.2356   56.4469 C   0  0  0  0  0  0  0  0  0  0  0  0
   69.4148   48.0258   55.3866 N   0  0  0  0  0  0  0  0  0  0  0  0
   69.1871   47.6688   54.1181 C   0  0  0  0  0  0  0  0  0  0  0  0
   69.5533   48.4584   53.0442 C   0  0  0  0  0  0  0  0  0  0  0  0
   69.3131   48.0837   51.7387 C   0  0  0  0  0  0  0  0  0  0  0  0
   68.6845   46.8722   51.5279 C   0  0  0  0  0  0  0  0  0  0  0  0
   68.3185   46.0831   52.6031 C   0  0  0  0  0  0  0  0  0  0  0  0
   68.5585   46.4577   53.9180 C   0  0  0  0  0  0  0  0  0  0  0  0
   68.1955   45.6751   54.9860 C   0  0  0  0  0  0  0  0  0  0  0  0
   67.6212   44.5690   54.7994 O   0  0  0  0  0  0  0  0  0  0  0  0
   68.4396   46.0608   56.2737 N   0  0  0  0  0  0  0  0  0  0  0  0
 13 14  1  0
 14  7  1  0
  7  8  2  0
  7 12  1  0
  8  9  1  0
  9 10  2  0
 10  4  1  0
 10 11  1  0
  4  5  2  0
  4  6  1  0
  6  1  1  0
  1  2  1  0
  2  3  2  0
  2 15  1  0
 15 16  1  0
 16 17  1  0
 17 18  2  0
 17 27  1  0
 18 19  1  0
 19 20  2  0
 19 24  1  0
 20 21  1  0
 21 22  2  0
 22 23  1  0
 23 24  2  0
 24 25  1  0
 25 26  2  0
 25 27  1  0
 11 12  2  0
M  END
>  <minimizedAffinity>  (296) 
-8.88767

$$$$
data/reference_output_2/data/smiles/107860.pdb
     RDKit          3D

 27 30  0  0  0  0  0  0  0  0999 V2000
   69.0369   46.2082   56.0743 N   0  0  0  0  0  0  0  0  0  0  0  0
   68.4209   44.9992   56.1001 N   0  0  0  0  0  0  0  0  0  0  0  0
   67.8844   44.6728   54.9419 C   0  0  0  0  0  0  0  0  0  0  0  0
   68.1532   45.7169   54.0908 C   0  0  0  0  0  0  0  0  0  0  0  0
   67.8590   45.9784   52.7677 C   0  0  0  0  0  0  0  0  0  0  0  0
   67.2018   45.0962   52.1266 O   0  0  0  0  0  0  0  0  0  0  0  0
   68.2464   47.0881   52.2096 O   0  0  0  0  0  0  0  0  0  0  0  0
   68.9235   48.0094   52.8470 C   0  0  0  0  0  0  0  0  0  0  0  0
   69.3174   49.1827   52.2155 C   0  0  0  0  0  0  0  0  0  0  0  0
   70.0259   50.1140   52.9393 C   0  0  0  0  0  0  0  0  0  0  0  0
   70.3449   49.9046   54.2553 C   0  0  0  0  0  0  0  0  0  0  0  0
   69.9541   48.7291   54.9000 C   0  0  0  0  0  0  0  0  0  0  0  0
   69.2520   47.8044   54.1854 C   0  0  0  0  0  0  0  0  0  0  0  0
   68.8630   46.6338   54.8352 C   0  0  0  0  0  0  0  0  0  0  0  0
   69.6836   46.6923   57.2474 C   0  0  0  0  0  0  0  0  0  0  0  0
   71.6205   45.1150   57.7401 N   0  0  0  0  0  0  0  0  0  0  0  0
   70.3668   45.6612   58.0605 C   0  0  0  0  0  0  0  0  0  0  0  0
   69.7956   45.2186   59.1417 O   0  0  0  0  0  0  0  0  0  0  0  0
   72.2717   44.1059   58.5583 C   0  0  0  0  0  0  0  0  0  0  0  0
   72.5335   42.8153   57.8445 C   0  0  0  0  0  0  0  0  0  0  0  0
   68.1646   39.1508   58.2903 C   0  0  0  0  0  0  0  0  0  0  0  0
   69.2853   40.1309   58.1602 C   0  0  0  0  0  0  0  0  0  0  0  0
   70.5323   39.7629   58.6123 C   0  0  0  0  0  0  0  0  0  0  0  0
   71.6101   40.6366   58.5172 C   0  0  0  0  0  0  0  0  0  0  0  0
   71.3891   41.8736   57.9593 C   0  0  0  0  0  0  0  0  0  0  0  0
   70.1451   42.2346   57.5112 C   0  0  0  0  0  0  0  0  0  0  0  0
   69.0841   41.3796   57.6040 C   0  0  0  0  0  0  0  0  0  0  0  0
 21 22  1  0
 22 23  2  0
 22 27  1  0
 23 24  1  0
 24 25  2  0
 25 20  1  0
 25 26  1  0
 20 19  1  0
 19 16  1  0
 16 17  1  0
 17 18  2  0
 17 15  1  0
 15  1  1  0
  1  2  1  0
  1 14  1  0
  2  3  2  0
  3  4  1  0
  4  5  1  0
  4 14  2  0
  5  6  2  0
  5  7  1  0
  7  8  1  0
  8  9  1  0
  8 13  2  0
  9 10  2  0
 10 11  1  0
 11 12  2  0
 12 13  1  0
 13 14  1  0
 26 27  2  0
M  END
>  <minimizedAffinity>  (297) 
-8.88767

$$$$
data/200k_reference_output/data/smiles/57438.pdb
     RDKit          3D

 28 31  0  0  0  0  0  0  0  0999 V2000
   69.9878   48.9386   52.8131 C   0  0  0  0  0  0  0  0  0  0  0  0
   70.2431   48.8707   51.5755 O   0  0  0  0  0  0  0  0  0  0  0  0
   69.2355   47.9240   53.4588 N   0  0  0  0  0  0  0  0  0  0  0  0
   68.7726   46.8088   52.6559 C   0  0  0  0  0  0  0  0  0  0  0  0
   67.6639   46.0432   53.3719 C   0  0  0  0  0  0  0  0  0  0  0  0
   68.2324   45.6111   54.6733 C   0  0  0  0  0  0  0  0  0  0  0  0
   68.1567   44.3508   55.1222 N   0  0  0  0  0  0  0  0  0  0  0  0
   68.6772   43.9549   56.3122 C   0  0  0  0  0  0  0  0  0  0  0  0
   69.2856   44.9079   57.0355 N   0  0  0  0  0  0  0  0  0  0  0  0
   69.3920   46.2038   56.6310 C   0  0  0  0  0  0  0  0  0  0  0  0
   69.9674   47.0718   57.3329 O   0  0  0  0  0  0  0  0  0  0  0  0
   68.8587   46.5840   55.4231 C   0  0  0  0  0  0  0  0  0  0  0  0
   68.9318   47.9926   54.8962 C   0  0  0  0  0  0  0  0  0  0  0  0
   71.4961   52.3604   54.9114 C   0  0  0  0  0  0  0  0  0  0  0  0
   70.1835   52.3146   54.4906 C   0  0  0  0  0  0  0  0  0  0  0  0
   69.7043   51.2040   53.8138 C   0  0  0  0  0  0  0  0  0  0  0  0
   70.5088   50.1167   53.5376 C   0  0  0  0  0  0  0  0  0  0  0  0
   71.7867   50.1928   53.9626 N   0  0  0  0  0  0  0  0  0  0  0  0
   72.2767   51.2606   54.6224 C   0  0  0  0  0  0  0  0  0  0  0  0
   71.5947   53.7636   56.7757 O   0  0  0  0  0  0  0  0  0  0  0  0
   72.0404   53.5123   55.6269 C   0  0  0  0  0  0  0  0  0  0  0  0
   73.0085   54.3349   55.1194 O   0  0  0  0  0  0  0  0  0  0  0  0
   68.5668   42.5682   56.7531 C   0  0  0  0  0  0  0  0  0  0  0  0
   67.6754   41.6594   56.2481 C   0  0  0  0  0  0  0  0  0  0  0  0
   67.6002   40.3516   56.6930 C   0  0  0  0  0  0  0  0  0  0  0  0
   68.4569   39.9377   57.6862 C   0  0  0  0  0  0  0  0  0  0  0  0
   69.3682   40.8237   58.2196 C   0  0  0  0  0  0  0  0  0  0  0  0
   69.4133   42.1243   57.7505 C   0  0  0  0  0  0  0  0  0  0  0  0
 20 21  2  0
 21 22  1  0
 21 14  1  0
 14 15  2  0
 14 19  1  0
 15 16  1  0
 16 17  2  0
 17  1  1  0
 17 18  1  0
  1  2  2  0
  1  3  1  0
  3  4  1  0
  3 13  1  0
  4  5  1  0
  5  6  1  0
  6  7  1  0
  6 12  2  0
  7  8  2  0
  8 23  1  0
  8  9  1  0
 23 24  2  0
 23 28  1  0
 24 25  1  0
 25 26  2  0
 26 27  1  0
 27 28  2  0
  9 10  1  0
 10 11  2  0
 10 12  1  0
 12 13  1  0
 18 19  2  0
M  END
>  <minimizedAffinity>  (298) 
-8.88516

$$$$
data/reference_output_2/data/smiles/190455.pdb
     RDKit          3D

 28 31  0  0  0  0  0  0  0  0999 V2000
   68.1540   41.8559   56.5722 C   0  0  0  0  0  0  0  0  0  0  0  0
   68.8039   40.7773   57.2180 C   0  0  0  0  0  0  0  0  0  0  0  0
   69.9286   40.9353   57.9729 C   0  0  0  0  0  0  0  0  0  0  0  0
   70.4048   42.2205   58.0747 C   0  0  0  0  0  0  0  0  0  0  0  0
   69.7899   43.2845   57.4566 C   0  0  0  0  0  0  0  0  0  0  0  0
   68.6296   43.1366   56.6746 C   0  0  0  0  0  0  0  0  0  0  0  0
   70.5636   39.8308   58.6130 N   0  0  0  0  0  0  0  0  0  0  0  0
   71.9489   39.5535   58.7697 C   0  0  0  0  0  0  0  0  0  0  0  0
   72.8440   40.4269   58.5271 O   0  0  0  0  0  0  0  0  0  0  0  0
   72.1373   38.1527   59.2364 C   0  0  2  0  0  0  0  0  0  0  0  0
   72.1966   37.2178   58.0349 C   0  0  0  0  0  0  0  0  0  0  0  0
   72.3240   35.8151   58.5777 C   0  0  0  0  0  0  0  0  0  0  0  0
   71.4586   35.4734   59.5037 C   0  0  0  0  0  0  0  0  0  0  0  0
   70.4330   36.4374   59.9614 C   0  0  0  0  0  0  0  0  0  0  0  0
   70.8639   37.8642   59.9628 C   0  0  2  0  0  0  0  0  0  0  0  0
   69.8921   38.7487   59.2451 C   0  0  0  0  0  0  0  0  0  0  0  0
   68.6481   38.5070   59.2417 O   0  0  0  0  0  0  0  0  0  0  0  0
   66.9648   40.6441   54.9392 O   0  0  0  0  0  0  0  0  0  0  0  0
   66.9855   41.5434   55.7886 C   0  0  0  0  0  0  0  0  0  0  0  0
   65.7882   42.2641   55.9576 O   0  0  0  0  0  0  0  0  0  0  0  0
   68.0142   44.2807   56.1120 N   0  0  0  0  0  0  0  0  0  0  0  0
   68.6928   45.3876   55.5009 C   0  0  0  0  0  0  0  0  0  0  0  0
   68.3311   45.7033   54.1282 C   0  0  0  0  0  0  0  0  0  0  0  0
   68.9389   46.7546   53.4185 C   0  0  0  0  0  0  0  0  0  0  0  0
   68.6208   47.0381   52.1172 C   0  0  0  0  0  0  0  0  0  0  0  0
   67.6706   46.2785   51.4526 C   0  0  0  0  0  0  0  0  0  0  0  0
   67.1035   45.2904   52.1272 N   0  0  0  0  0  0  0  0  0  0  0  0
   67.4100   44.9969   53.4224 C   0  0  0  0  0  0  0  0  0  0  0  0
 18 19  2  0
 19 20  1  0
 19  1  1  0
  1  2  2  0
  1  6  1  0
  2  3  1  0
  3  7  1  0
  3  4  2  0
  7  8  1  0
  7 16  1  0
  8  9  2  0
  8 10  1  0
 10 11  1  6
 10 15  1  0
 11 12  1  0
 12 13  2  0
 13 14  1  0
 15 14  1  6
 15 16  1  0
 16 17  2  0
  4  5  1  0
  5  6  2  0
  6 21  1  0
 21 22  1  0
 22 23  1  0
 23 24  2  0
 23 28  1  0
 24 25  1  0
 25 26  2  0
 26 27  1  0
 27 28  2  0
M  END
>  <minimizedAffinity>  (299) 
-8.88252

$$$$
data/200k_reference_output/data/smiles/21911.pdb
     RDKit          3D

 28 31  0  0  0  0  0  0  0  0999 V2000
   69.2463   42.9852   57.2320 C   0  0  0  0  0  0  0  0  0  0  0  0
   68.1010   42.2763   56.9079 C   0  0  0  0  0  0  0  0  0  0  0  0
   67.9370   40.9662   57.3012 C   0  0  0  0  0  0  0  0  0  0  0  0
   68.8934   40.2952   58.0317 C   0  0  0  0  0  0  0  0  0  0  0  0
   70.0402   40.9828   58.3643 C   0  0  0  0  0  0  0  0  0  0  0  0
   70.1883   42.2961   57.9615 C   0  0  0  0  0  0  0  0  0  0  0  0
   70.8648   40.0488   59.1229 C   0  0  0  0  0  0  0  0  0  0  0  0
   71.9922   40.3513   59.5860 O   0  0  0  0  0  0  0  0  0  0  0  0
   70.2119   38.7896   59.2502 N   0  0  0  0  0  0  0  0  0  0  0  0
   68.9717   38.9301   58.5687 C   0  0  0  0  0  0  0  0  0  0  0  0
   68.1031   38.0358   58.4535 O   0  0  0  0  0  0  0  0  0  0  0  0
   70.4242   44.9802   57.2158 O   0  0  0  0  0  0  0  0  0  0  0  0
   69.3928   44.3730   56.8019 C   0  0  0  0  0  0  0  0  0  0  0  0
   68.4645   45.0322   55.9770 N   0  0  0  0  0  0  0  0  0  0  0  0
   68.6102   46.4066   55.5543 C   0  0  0  0  0  0  0  0  0  0  0  0
   68.5360   46.5533   54.0746 C   0  0  0  0  0  0  0  0  0  0  0  0
   69.3017   47.5374   53.4433 C   0  0  0  0  0  0  0  0  0  0  0  0
   69.1947   47.6501   52.0811 C   0  0  0  0  0  0  0  0  0  0  0  0
   68.3736   46.8397   51.3281 C   0  0  0  0  0  0  0  0  0  0  0  0
   67.6571   45.9125   51.9592 N   0  0  0  0  0  0  0  0  0  0  0  0
   67.7234   45.7556   53.3080 C   0  0  0  0  0  0  0  0  0  0  0  0
   70.7587   37.6362   59.9481 C   0  0  0  0  0  0  0  0  0  0  0  0
   71.4445   36.7042   59.0191 C   0  0  0  0  0  0  0  0  0  0  0  0
   72.0799   37.1419   57.8804 C   0  0  0  0  0  0  0  0  0  0  0  0
   72.7161   36.2293   57.0297 C   0  0  0  0  0  0  0  0  0  0  0  0
   72.7168   34.8677   57.3218 C   0  0  0  0  0  0  0  0  0  0  0  0
   72.0791   34.4327   58.4658 C   0  0  0  0  0  0  0  0  0  0  0  0
   71.4568   35.3600   59.2900 C   0  0  0  0  0  0  0  0  0  0  0  0
 12 13  2  0
 13 14  1  0
 13  1  1  0
 14 15  1  0
 15 16  1  0
 16 17  2  0
 16 21  1  0
 17 18  1  0
 18 19  2  0
 19 20  1  0
 20 21  2  0
  1  2  2  0
  1  6  1  0
  2  3  1  0
  3  4  2  0
  4  5  1  0
  4 10  1  0
  5  6  2  0
  5  7  1  0
  7  8  2  0
  7  9  1  0
  9 22  1  0
  9 10  1  0
 22 23  1  0
 23 24  2  0
 23 28  1  0
 24 25  1  0
 25 26  2  0
 26 27  1  0
 27 28  2  0
 10 11  2  0
M  END
>  <minimizedAffinity>  (300) 
-8.88243

$$$$
data/200k_reference_output/data/smiles/26310.pdb
     RDKit          3D

 27 30  0  0  0  0  0  0  0  0999 V2000
   71.0809   46.0152   58.4974 C   0  0  0  0  0  0  0  0  0  0  0  0
   70.1105   46.6228   57.7281 C   0  0  0  0  0  0  0  0  0  0  0  0
   69.8848   48.0065   57.7646 C   0  0  0  0  0  0  0  0  0  0  0  0
   70.6266   48.8046   58.5693 C   0  0  0  0  0  0  0  0  0  0  0  0
   71.6157   48.2166   59.3594 C   0  0  0  0  0  0  0  0  0  0  0  0
   71.8249   46.8596   59.3141 C   0  0  0  0  0  0  0  0  0  0  0  0
   72.7930   46.2816   60.0852 F   0  0  0  0  0  0  0  0  0  0  0  0
   73.5204   44.7908   57.7361 O   0  0  0  0  0  0  0  0  0  0  0  0
   72.5138   44.0560   57.9101 C   0  0  0  0  0  0  0  0  0  0  0  0
   72.6273   42.6301   57.5293 C   0  0  0  0  0  0  0  0  0  0  0  0
   71.7597   41.7018   58.3113 C   0  0  0  0  0  0  0  0  0  0  0  0
   70.4082   42.2346   58.6667 C   0  0  0  0  0  0  0  0  0  0  0  0
   70.3759   43.6758   58.9645 C   0  0  0  0  0  0  0  0  0  0  0  0
   69.4576   44.1038   59.7116 O   0  0  0  0  0  0  0  0  0  0  0  0
   71.3205   44.6121   58.4593 N   0  0  0  0  0  0  0  0  0  0  0  0
   68.8464   48.5260   56.8683 C   0  0  0  0  0  0  0  0  0  0  0  0
   68.6347   47.5764   55.7604 C   0  0  0  0  0  0  0  0  0  0  0  0
   68.0224   46.3759   56.0132 N   0  0  0  0  0  0  0  0  0  0  0  0
   67.7489   45.5046   55.0595 N   0  0  0  0  0  0  0  0  0  0  0  0
   68.0746   45.7894   53.7913 C   0  0  0  0  0  0  0  0  0  0  0  0
   67.7818   44.9060   52.9213 O   0  0  0  0  0  0  0  0  0  0  0  0
   68.6890   46.9676   53.4557 C   0  0  0  0  0  0  0  0  0  0  0  0
   68.9672   47.8648   54.4743 C   0  0  0  0  0  0  0  0  0  0  0  0
   69.6562   49.0455   54.1210 N   0  0  0  0  0  0  0  0  0  0  0  0
   70.5072   49.0568   52.9282 C   0  0  0  0  0  0  0  0  0  0  0  0
   69.9280   48.3431   51.7686 C   0  0  0  0  0  0  0  0  0  0  0  0
   69.0098   47.2111   52.0491 C   0  0  0  0  0  0  0  0  0  0  0  0
  8  9  2  0
  9 10  1  0
  9 15  1  0
 10 11  1  0
 11 12  1  0
 12 13  1  0
 13 14  2  0
 13 15  1  0
 15  1  1  0
  1  2  2  0
  1  6  1  0
  2  3  1  0
  3 16  1  0
  3  4  2  0
 16 17  1  0
 17 18  2  0
 17 23  1  0
 18 19  1  0
 19 20  1  0
 20 21  2  0
 20 22  1  0
 22 23  2  0
 22 27  1  0
 23 24  1  0
 24 25  1  0
 25 26  1  0
 26 27  1  0
  4  5  1  0
  5  6  2  0
  6  7  1  0
M  END
>  <minimizedAffinity>  (301) 
-8.88199

$$$$
data/reference_output_2/data/smiles/106405.pdb
     RDKit          3D

 27 31  0  0  0  0  0  0  0  0999 V2000
   70.8873   46.0011   58.4450 C   0  0  0  0  0  0  0  0  0  0  0  0
   70.0015   46.5639   57.5391 C   0  0  0  0  0  0  0  0  0  0  0  0
   69.8155   47.9018   57.3435 C   0  0  0  0  0  0  0  0  0  0  0  0
   70.5787   48.7775   58.1183 C   0  0  0  0  0  0  0  0  0  0  0  0
   71.4717   48.2760   59.0296 C   0  0  0  0  0  0  0  0  0  0  0  0
   71.6191   46.8988   59.1862 C   0  0  0  0  0  0  0  0  0  0  0  0
   72.5207   46.4936   60.0920 F   0  0  0  0  0  0  0  0  0  0  0  0
   69.2580   43.8451   59.9786 O   0  0  0  0  0  0  0  0  0  0  0  0
   70.2992   43.6539   59.3485 C   0  0  0  0  0  0  0  0  0  0  0  0
   71.0855   42.3737   59.2789 C   0  0  2  0  0  0  0  0  0  0  0  0
   72.4461   42.6320   59.8072 C   0  0  0  0  0  0  0  0  0  0  0  0
   73.0866   43.5268   58.7630 C   0  0  0  0  0  0  0  0  0  0  0  0
   71.9598   43.8129   57.7845 C   0  0  1  0  0  0  0  0  0  0  0  0
   71.3324   42.4125   57.7593 C   0  0  0  0  0  0  0  0  0  0  0  0
   70.9993   44.5873   58.5405 N   0  0  0  0  0  0  0  0  0  0  0  0
   68.8892   48.5335   56.3966 C   0  0  0  0  0  0  0  0  0  0  0  0
   69.2866   48.5229   54.9876 C   0  0  0  0  0  0  0  0  0  0  0  0
   70.1334   49.5219   54.5484 N   0  0  0  0  0  0  0  0  0  0  0  0
   70.5685   49.5935   53.3146 N   0  0  0  0  0  0  0  0  0  0  0  0
   70.2323   48.7091   52.3691 C   0  0  0  0  0  0  0  0  0  0  0  0
   70.6595   48.7950   51.1960 O   0  0  0  0  0  0  0  0  0  0  0  0
   69.3794   47.6840   52.7662 C   0  0  0  0  0  0  0  0  0  0  0  0
   68.9053   47.5830   54.0626 C   0  0  0  0  0  0  0  0  0  0  0  0
   67.9735   46.5106   54.4914 C   0  0  0  0  0  0  0  0  0  0  0  0
   67.8884   45.4478   53.4156 C   0  0  0  0  0  0  0  0  0  0  0  0
   67.6304   46.1592   52.1066 C   0  0  0  0  0  0  0  0  0  0  0  0
   68.9927   46.7123   51.6907 C   0  0  0  0  0  0  0  0  0  0  0  0
  8  9  2  0
  9 10  1  0
  9 15  1  0
 10 11  1  1
 10 14  1  0
 11 12  1  0
 13 12  1  1
 13 14  1  0
 13 15  1  0
 15  1  1  0
  1  2  2  0
  1  6  1  0
  2  3  1  0
  3 16  1  0
  3  4  2  0
 16 17  1  0
 17 18  2  0
 17 23  1  0
 18 19  1  0
 19 20  1  0
 20 21  2  0
 20 22  1  0
 22 23  2  0
 22 27  1  0
 23 24  1  0
 24 25  1  0
 25 26  1  0
 26 27  1  0
  4  5  1  0
  5  6  2  0
  6  7  1  0
M  END
>  <minimizedAffinity>  (302) 
-8.88045

$$$$
data/200k_reference_output/data/smiles/61600.pdb
     RDKit          3D

 26 28  0  0  0  0  0  0  0  0999 V2000
   67.8550   44.6486   54.9633 N   0  0  0  0  0  0  0  0  0  0  0  0
   68.2814   43.8530   56.0611 C   0  0  0  0  0  0  0  0  0  0  0  0
   69.0415   44.4252   56.8864 O   0  0  0  0  0  0  0  0  0  0  0  0
   70.3587   51.7221   52.8346 N   0  0  0  0  0  0  0  0  0  0  0  0
   69.9576   50.3726   53.0281 C   0  0  0  0  0  0  0  0  0  0  0  0
   70.0883   49.4448   52.0420 N   0  0  0  0  0  0  0  0  0  0  0  0
   69.7217   48.1745   52.1962 C   0  0  0  0  0  0  0  0  0  0  0  0
   69.8709   47.2345   51.1474 N   0  0  0  0  0  0  0  0  0  0  0  0
   69.1852   47.7519   53.3889 C   0  0  0  0  0  0  0  0  0  0  0  0
   68.7872   46.4406   53.6000 C   0  0  0  0  0  0  0  0  0  0  0  0
   68.2488   46.0013   54.7890 C   0  0  0  0  0  0  0  0  0  0  0  0
   68.1122   46.9436   55.8026 C   0  0  0  0  0  0  0  0  0  0  0  0
   68.5025   48.2520   55.6104 C   0  0  0  0  0  0  0  0  0  0  0  0
   69.0394   48.6817   54.4180 C   0  0  0  0  0  0  0  0  0  0  0  0
   69.4322   49.9370   54.1845 N   0  0  0  0  0  0  0  0  0  0  0  0
   67.8524   42.4256   56.2255 C   0  0  0  0  0  0  0  0  0  0  0  0
   68.8212   41.7016   57.0868 C   0  0  0  0  0  0  0  0  0  0  0  0
   68.4470   40.5297   57.7115 C   0  0  0  0  0  0  0  0  0  0  0  0
   69.3206   39.8317   58.5184 C   0  0  0  0  0  0  0  0  0  0  0  0
   70.6215   40.3026   58.7240 C   0  0  0  0  0  0  0  0  0  0  0  0
   71.0104   41.4770   58.1030 C   0  0  0  0  0  0  0  0  0  0  0  0
   70.1089   42.1446   57.3050 C   0  0  0  0  0  0  0  0  0  0  0  0
   72.3920   41.9520   58.3381 C   0  0  0  0  0  0  0  0  0  0  0  0
   72.8075   42.6174   57.2007 F   0  0  0  0  0  0  0  0  0  0  0  0
   73.2043   40.8390   58.4667 F   0  0  0  0  0  0  0  0  0  0  0  0
   72.4613   42.7620   59.4573 F   0  0  0  0  0  0  0  0  0  0  0  0
  4  5  1  0
  5  6  2  0
  5 15  1  0
  6  7  1  0
  7  8  1  0
  7  9  2  0
  9 10  1  0
  9 14  1  0
 10 11  2  0
 11  1  1  0
 11 12  1  0
  1  2  1  0
  2  3  2  0
  2 16  1  0
 16 17  1  0
 17 18  2  0
 17 22  1  0
 18 19  1  0
 19 20  2  0
 20 21  1  0
 21 23  1  0
 21 22  2  0
 23 24  1  0
 23 25  1  0
 23 26  1  0
 12 13  2  0
 13 14  1  0
 14 15  2  0
M  END
>  <minimizedAffinity>  (303) 
-8.88011

$$$$
data/200k_reference_output/data/smiles/49008.pdb
     RDKit          3D

 28 30  0  0  0  0  0  0  0  0999 V2000
   67.4168   41.2754   55.9345 C   0  0  0  0  0  0  0  0  0  0  0  0
   68.0553   42.0971   57.0015 C   0  0  0  0  0  0  0  0  0  0  0  0
   68.5829   41.5337   58.0728 C   0  0  0  0  0  0  0  0  0  0  0  0
   69.2214   42.2783   59.1513 C   0  0  0  0  0  0  0  0  0  0  0  0
   69.2856   43.5297   59.0795 O   0  0  0  0  0  0  0  0  0  0  0  0
   69.7801   41.6032   60.2982 N   0  0  0  0  0  0  0  0  0  0  0  0
   69.7124   40.1903   60.3890 C   0  0  0  0  0  0  0  0  0  0  0  0
   70.2255   39.6813   61.4238 O   0  0  0  0  0  0  0  0  0  0  0  0
   69.1019   39.3969   59.3705 N   0  0  0  0  0  0  0  0  0  0  0  0
   68.5556   40.0670   58.2472 C   0  0  0  0  0  0  0  0  0  0  0  0
   68.0246   39.3820   57.3587 O   0  0  0  0  0  0  0  0  0  0  0  0
   68.0917   43.4987   56.8529 N   0  0  0  0  0  0  0  0  0  0  0  0
   68.1187   43.9963   55.5517 N   0  0  0  0  0  0  0  0  0  0  0  0
   68.2159   45.3684   55.2521 C   0  0  0  0  0  0  0  0  0  0  0  0
   68.2813   46.1869   56.2093 O   0  0  0  0  0  0  0  0  0  0  0  0
   68.2455   45.8908   53.8878 C   0  0  0  0  0  0  0  0  0  0  0  0
   67.5334   45.3134   52.8596 C   0  0  0  0  0  0  0  0  0  0  0  0
   67.5758   45.8276   51.5682 C   0  0  0  0  0  0  0  0  0  0  0  0
   68.3357   46.9271   51.3011 C   0  0  0  0  0  0  0  0  0  0  0  0
   69.0536   47.5234   52.2963 C   0  0  0  0  0  0  0  0  0  0  0  0
   68.9997   46.9993   53.5766 C   0  0  0  0  0  0  0  0  0  0  0  0
   69.0595   37.9630   59.5087 C   0  0  0  0  0  0  0  0  0  0  0  0
   70.3446   37.3361   59.1266 C   0  0  0  0  0  0  0  0  0  0  0  0
   71.1169   37.9179   58.1388 C   0  0  0  0  0  0  0  0  0  0  0  0
   72.3205   37.3278   57.7845 C   0  0  0  0  0  0  0  0  0  0  0  0
   72.7381   36.1836   58.4044 C   0  0  0  0  0  0  0  0  0  0  0  0
   71.9867   35.5915   59.3866 C   0  0  0  0  0  0  0  0  0  0  0  0
   70.7939   36.1822   59.7324 C   0  0  0  0  0  0  0  0  0  0  0  0
  1  2  1  0
  2 12  1  0
  2  3  2  0
 12 13  1  0
 13 14  1  0
 14 15  2  0
 14 16  1  0
 16 17  2  0
 16 21  1  0
 17 18  1  0
 18 19  2  0
 19 20  1  0
 20 21  2  0
  3  4  1  0
  3 10  1  0
  4  5  2  0
  4  6  1  0
  6  7  1  0
  7  8  2  0
  7  9  1  0
  9 22  1  0
  9 10  1  0
 22 23  1  0
 23 24  2  0
 23 28  1  0
 24 25  1  0
 25 26  2  0
 26 27  1  0
 27 28  2  0
 10 11  2  0
M  END
>  <minimizedAffinity>  (304) 
-8.87997

$$$$
data/reference_output_2/data/smiles/120512.pdb
     RDKit          3D

 28 30  0  0  0  0  0  0  0  0999 V2000
   69.5428   42.5061   57.5183 N   0  0  0  0  0  0  0  0  0  0  0  0
   72.9114   45.0674   58.0865 C   0  0  0  0  0  0  0  0  0  0  0  0
   73.0577   43.7318   57.7235 C   0  0  0  0  0  0  0  0  0  0  0  0
   71.9753   42.9006   57.5379 C   0  0  0  0  0  0  0  0  0  0  0  0
   70.6793   43.3405   57.7002 C   0  0  0  0  0  0  0  0  0  0  0  0
   70.5294   44.6750   58.0632 C   0  0  0  0  0  0  0  0  0  0  0  0
   71.6146   45.5072   58.2482 C   0  0  0  0  0  0  0  0  0  0  0  0
   74.1547   47.2860   57.9484 N   0  0  0  0  0  0  0  0  0  0  0  0
   74.0891   45.9056   58.2657 C   0  0  0  0  0  0  0  0  0  0  0  0
   75.1303   45.3905   58.7329 O   0  0  0  0  0  0  0  0  0  0  0  0
   75.3522   48.0800   58.1427 C   0  0  0  0  0  0  0  0  0  0  0  0
   74.8793   49.1828   56.1204 O   0  0  0  0  0  0  0  0  0  0  0  0
   75.4388   49.2343   57.2359 C   0  0  0  0  0  0  0  0  0  0  0  0
   76.1291   50.3698   57.6017 O   0  0  0  0  0  0  0  0  0  0  0  0
   68.4631   42.8218   56.6539 C   0  0  0  0  0  0  0  0  0  0  0  0
   67.4601   41.6250   56.1876 S   0  0  0  0  0  0  0  0  0  0  0  0
   68.2217   44.1270   56.1834 N   0  0  0  0  0  0  0  0  0  0  0  0
   67.8582   44.3287   54.8671 N   0  0  0  0  0  0  0  0  0  0  0  0
   68.0239   45.4004   54.2132 C   0  0  0  0  0  0  0  0  0  0  0  0
   67.6514   45.6707   52.7924 C   0  0  0  0  0  0  0  0  0  0  0  0
   68.6311   46.7400   52.4378 C   0  0  0  0  0  0  0  0  0  0  0  0
   69.0483   46.9718   51.2960 O   0  0  0  0  0  0  0  0  0  0  0  0
   69.0006   47.4482   53.6513 C   0  0  0  0  0  0  0  0  0  0  0  0
   69.5919   48.6693   53.8764 C   0  0  0  0  0  0  0  0  0  0  0  0
   69.8241   49.1003   55.1584 C   0  0  0  0  0  0  0  0  0  0  0  0
   69.4529   48.2897   56.1954 C   0  0  0  0  0  0  0  0  0  0  0  0
   68.8498   47.0408   56.0075 C   0  0  0  0  0  0  0  0  0  0  0  0
   68.6239   46.6220   54.7126 C   0  0  0  0  0  0  0  0  0  0  0  0
 12 13  2  0
 13 14  1  0
 13 11  1  0
 11  8  1  0
  8  9  1  0
  9 10  2  0
  9  2  1  0
  2  3  2  0
  2  7  1  0
  3  4  1  0
  4  5  2  0
  5  1  1  0
  5  6  1  0
  1 15  1  0
 15 16  2  0
 15 17  1  0
 17 18  1  0
 18 19  2  0
 19 20  1  0
 19 28  1  0
 20 21  1  0
 21 22  2  0
 21 23  1  0
 23 24  1  0
 23 28  2  0
 24 25  2  0
 25 26  1  0
 26 27  2  0
 27 28  1  0
  6  7  2  0
M  END
>  <minimizedAffinity>  (305) 
-8.87929

$$$$
data/reference_output_2/data/smiles/107132.pdb
     RDKit          3D

 28 31  0  0  0  0  0  0  0  0999 V2000
   69.6910   46.7259   57.1613 C   0  0  0  0  0  0  0  0  0  0  0  0
   70.6876   47.1389   57.7771 O   0  0  0  0  0  0  0  0  0  0  0  0
   69.4416   45.3813   56.9857 N   0  0  0  0  0  0  0  0  0  0  0  0
   70.1670   44.3071   57.4013 N   0  0  0  0  0  0  0  0  0  0  0  0
   70.2462   43.7404   58.6846 C   0  0  0  0  0  0  0  0  0  0  0  0
   69.6210   44.1987   59.6452 O   0  0  0  0  0  0  0  0  0  0  0  0
   71.1345   42.5257   58.8738 C   0  0  0  0  0  0  0  0  0  0  0  0
   70.3391   41.3164   58.6049 C   0  0  0  0  0  0  0  0  0  0  0  0
   69.0045   41.3203   58.2851 C   0  0  0  0  0  0  0  0  0  0  0  0
   68.3107   40.1336   58.0345 C   0  0  0  0  0  0  0  0  0  0  0  0
   68.9723   38.9322   58.1085 C   0  0  0  0  0  0  0  0  0  0  0  0
   70.3106   38.9024   58.4264 C   0  0  0  0  0  0  0  0  0  0  0  0
   70.9771   37.6848   58.5056 C   0  0  0  0  0  0  0  0  0  0  0  0
   72.3118   37.6290   58.8274 C   0  0  0  0  0  0  0  0  0  0  0  0
   72.9886   38.7983   59.0714 C   0  0  0  0  0  0  0  0  0  0  0  0
   72.3282   40.0175   58.9944 C   0  0  0  0  0  0  0  0  0  0  0  0
   70.9854   40.0977   58.6737 C   0  0  0  0  0  0  0  0  0  0  0  0
   68.7524   47.7864   56.6060 C   0  0  0  0  0  0  0  0  0  0  0  0
   70.5416   50.0720   55.6604 C   0  0  0  0  0  0  0  0  0  0  0  0
   69.9042   49.0694   54.7722 C   0  0  0  0  0  0  0  0  0  0  0  0
   69.9816   48.9718   53.4333 N   0  0  0  0  0  0  0  0  0  0  0  0
   69.2484   47.9207   52.9983 C   0  0  0  0  0  0  0  0  0  0  0  0
   69.0175   47.4113   51.7337 C   0  0  0  0  0  0  0  0  0  0  0  0
   68.2063   46.3000   51.6372 C   0  0  0  0  0  0  0  0  0  0  0  0
   67.6511   45.7280   52.7875 C   0  0  0  0  0  0  0  0  0  0  0  0
   67.9007   46.2565   54.0263 C   0  0  0  0  0  0  0  0  0  0  0  0
   68.7103   47.3699   54.1455 C   0  0  0  0  0  0  0  0  0  0  0  0
   69.1059   48.0661   55.2402 N   0  0  0  0  0  0  0  0  0  0  0  0
 19 20  1  0
 20 21  2  0
 20 28  1  0
 21 22  1  0
 22 23  2  0
 22 27  1  0
 23 24  1  0
 24 25  2  0
 25 26  1  0
 26 27  2  0
 27 28  1  0
 28 18  1  0
 18  1  1  0
  1  2  2  0
  1  3  1  0
  3  4  1  0
  4  5  1  0
  5  6  2  0
  5  7  1  0
  7  8  1  0
  8  9  2  0
  8 17  1  0
  9 10  1  0
 10 11  2  0
 11 12  1  0
 12 13  1  0
 12 17  2  0
 13 14  2  0
 14 15  1  0
 15 16  2  0
 16 17  1  0
M  END
>  <minimizedAffinity>  (306) 
-8.87904

$$$$
data/reference_output_2/data/smiles/135723.pdb
     RDKit          3D

 27 29  0  0  0  0  0  0  0  0999 V2000
   68.3599   45.9494   54.0688 C   0  0  0  0  0  0  0  0  0  0  0  0
   67.7733   45.4277   52.9179 C   0  0  0  0  0  0  0  0  0  0  0  0
   67.8414   46.0626   51.6966 C   0  0  0  0  0  0  0  0  0  0  0  0
   68.5210   47.2741   51.6080 C   0  0  0  0  0  0  0  0  0  0  0  0
   69.1127   47.8243   52.7146 C   0  0  0  0  0  0  0  0  0  0  0  0
   69.0172   47.1487   53.9159 C   0  0  0  0  0  0  0  0  0  0  0  0
   67.8806   43.8838   55.4291 N   0  0  0  0  0  0  0  0  0  0  0  0
   68.2556   45.2333   55.3346 C   0  0  0  0  0  0  0  0  0  0  0  0
   68.5090   45.8412   56.4034 O   0  0  0  0  0  0  0  0  0  0  0  0
   66.7146   41.4795   55.4701 C   0  0  0  0  0  0  0  0  0  0  0  0
   67.2316   42.0527   56.7366 C   0  0  0  0  0  0  0  0  0  0  0  0
   67.7861   43.2104   56.6784 N   0  0  0  0  0  0  0  0  0  0  0  0
   67.1067   41.3090   58.0097 C   0  0  0  0  0  0  0  0  0  0  0  0
   67.7047   40.1116   58.3451 C   0  0  0  0  0  0  0  0  0  0  0  0
   67.2959   39.8097   59.6269 C   0  0  0  0  0  0  0  0  0  0  0  0
   66.4689   40.8338   60.0155 C   0  0  0  0  0  0  0  0  0  0  0  0
   65.8011   40.9099   61.3445 C   0  0  0  0  0  0  0  0  0  0  0  0
   66.3863   41.6909   59.0367 O   0  0  0  0  0  0  0  0  0  0  0  0
   69.9666   49.3544   52.5785 S   0  0  0  0  0  0  0  0  0  0  0  0
   71.4279   49.0670   52.7866 O   0  0  0  0  0  0  0  0  0  0  0  0
   69.8352   49.8674   51.1728 O   0  0  0  0  0  0  0  0  0  0  0  0
   69.3658   50.5221   53.6536 N   0  0  0  0  0  0  0  0  0  0  0  0
   70.0793   51.7493   53.6594 C   0  0  0  0  0  0  0  0  0  0  0  0
   71.3974   51.5695   54.3550 C   0  0  0  0  0  0  0  0  0  0  0  0
   71.2913   50.9523   55.7073 C   0  0  0  0  0  0  0  0  0  0  0  0
   70.2889   49.8540   55.8289 C   0  0  0  0  0  0  0  0  0  0  0  0
   69.0709   50.0641   54.9624 C   0  0  0  0  0  0  0  0  0  0  0  0
 10 11  1  0
 11 12  2  0
 11 13  1  0
 12  7  1  0
  7  8  1  0
  8  9  2  0
  8  1  1  0
  1  2  2  0
  1  6  1  0
  2  3  1  0
  3  4  2  0
  4  5  1  0
  5 19  1  0
  5  6  2  0
 19 20  2  0
 19 21  2  0
 19 22  1  0
 22 23  1  0
 22 27  1  0
 23 24  1  0
 24 25  1  0
 25 26  1  0
 26 27  1  0
 13 14  2  0
 13 18  1  0
 14 15  1  0
 15 16  2  0
 16 17  1  0
 16 18  1  0
M  END
>  <minimizedAffinity>  (307) 
-8.87881

$$$$
data/200k_reference_output/data/smiles/81698.pdb
     RDKit          3D

 25 26  0  0  0  0  0  0  0  0999 V2000
   70.4061   50.9114   53.1240 O   0  0  0  0  0  0  0  0  0  0  0  0
   70.6248   49.8261   53.7807 C   0  0  0  0  0  0  0  0  0  0  0  0
   71.6630   49.9391   54.7171 N   0  0  0  0  0  0  0  0  0  0  0  0
   69.8144   48.6698   53.4928 C   0  0  0  0  0  0  0  0  0  0  0  0
   69.2192   47.9955   54.5638 C   0  0  0  0  0  0  0  0  0  0  0  0
   69.4288   48.4530   55.8202 F   0  0  0  0  0  0  0  0  0  0  0  0
   68.4336   46.8943   54.4251 C   0  0  0  0  0  0  0  0  0  0  0  0
   67.8651   46.2509   55.4554 F   0  0  0  0  0  0  0  0  0  0  0  0
   68.2002   46.4019   53.1576 C   0  0  0  0  0  0  0  0  0  0  0  0
   67.4179   45.3014   52.9780 F   0  0  0  0  0  0  0  0  0  0  0  0
   68.7552   47.0194   52.0649 C   0  0  0  0  0  0  0  0  0  0  0  0
   68.5551   46.5739   50.7962 F   0  0  0  0  0  0  0  0  0  0  0  0
   69.5630   48.1573   52.2589 C   0  0  0  0  0  0  0  0  0  0  0  0
   70.0964   48.7483   51.1799 F   0  0  0  0  0  0  0  0  0  0  0  0
   72.4266   51.1533   54.9376 C   0  0  2  0  0  0  0  0  0  0  0  0
   73.8667   50.9517   54.6147 C   0  0  0  0  0  0  0  0  0  0  0  0
   74.1157   50.2225   53.6151 O   0  0  0  0  0  0  0  0  0  0  0  0
   74.9002   51.5035   55.3287 O   0  0  0  0  0  0  0  0  0  0  0  0
   72.2397   51.5231   56.4029 C   0  0  0  0  0  0  0  0  0  0  0  0
   70.8206   51.5003   56.7995 C   0  0  0  0  0  0  0  0  0  0  0  0
   69.9360   52.3429   56.1618 C   0  0  0  0  0  0  0  0  0  0  0  0
   68.5925   52.3638   56.4953 C   0  0  0  0  0  0  0  0  0  0  0  0
   68.0873   51.5372   57.4833 C   0  0  0  0  0  0  0  0  0  0  0  0
   68.9614   50.6967   58.1226 C   0  0  0  0  0  0  0  0  0  0  0  0
   70.3015   50.6839   57.7825 C   0  0  0  0  0  0  0  0  0  0  0  0
  1  2  2  0
  2  3  1  0
  2  4  1  0
  3 15  1  0
 15 19  1  1
 15 16  1  0
 19 20  1  0
 20 21  2  0
 20 25  1  0
 21 22  1  0
 22 23  2  0
 23 24  1  0
 24 25  2  0
 16 17  2  0
 16 18  1  0
  4  5  2  0
  4 13  1  0
  5  6  1  0
  5  7  1  0
  7  8  1  0
  7  9  2  0
  9 10  1  0
  9 11  1  0
 11 12  1  0
 11 13  2  0
 13 14  1  0
M  END
>  <minimizedAffinity>  (308) 
-8.87815

$$$$
data/200k_reference_output/data/smiles/69954.pdb
     RDKit          3D

 27 30  0  0  0  0  0  0  0  0999 V2000
   69.4029   47.3696   56.9689 C   0  0  0  0  0  0  0  0  0  0  0  0
   69.7662   48.6206   57.4687 C   0  0  0  0  0  0  0  0  0  0  0  0
   69.0901   49.7069   57.0060 F   0  0  0  0  0  0  0  0  0  0  0  0
   70.7736   48.7110   58.3941 C   0  0  0  0  0  0  0  0  0  0  0  0
   71.4576   47.6006   58.8612 C   0  0  0  0  0  0  0  0  0  0  0  0
   71.1241   46.3514   58.3861 C   0  0  0  0  0  0  0  0  0  0  0  0
   70.0910   46.2749   57.4399 C   0  0  0  0  0  0  0  0  0  0  0  0
   69.8195   45.0101   56.9787 F   0  0  0  0  0  0  0  0  0  0  0  0
   67.1620   47.4711   56.3798 O   0  0  0  0  0  0  0  0  0  0  0  0
   68.3542   47.2475   55.9643 C   0  0  0  0  0  0  0  0  0  0  0  0
   68.4980   46.9120   54.5853 C   0  0  0  0  0  0  0  0  0  0  0  0
   67.9656   45.7938   53.9521 C   0  0  0  0  0  0  0  0  0  0  0  0
   68.2991   45.8395   52.6559 N   0  0  0  0  0  0  0  0  0  0  0  0
   69.0326   46.9413   52.4009 C   0  0  0  0  0  0  0  0  0  0  0  0
   69.5952   47.4097   51.2742 N   0  0  0  0  0  0  0  0  0  0  0  0
   70.3060   48.5430   51.2549 C   0  0  0  0  0  0  0  0  0  0  0  0
   70.4317   49.1954   52.4162 N   0  0  0  0  0  0  0  0  0  0  0  0
   69.8987   48.7890   53.5753 C   0  0  0  0  0  0  0  0  0  0  0  0
   69.1603   47.6118   53.5966 C   0  0  0  0  0  0  0  0  0  0  0  0
   71.7409   45.1468   58.8114 N   0  0  0  0  0  0  0  0  0  0  0  0
   71.0466   43.9554   59.8211 S   0  0  0  0  0  0  0  0  0  0  0  0
   69.5335   44.1230   59.7081 O   0  0  0  0  0  0  0  0  0  0  0  0
   71.3651   44.2814   61.2529 O   0  0  0  0  0  0  0  0  0  0  0  0
   71.4764   42.3026   59.4541 C   0  0  0  0  0  0  0  0  0  0  0  0
   71.1239   42.0290   57.9591 C   0  0  0  0  0  0  0  0  0  0  0  0
   72.5647   42.3666   57.6459 C   0  0  0  0  0  0  0  0  0  0  0  0
   72.8785   41.9914   59.0795 C   0  0  0  0  0  0  0  0  0  0  0  0
  9 10  2  0
 10  1  1  0
 10 11  1  0
  1  2  2  0
  1  7  1  0
  2  3  1  0
  2  4  1  0
  4  5  2  0
  5  6  1  0
  6 20  1  0
  6  7  2  0
 20 21  1  0
 21 22  2  0
 21 23  2  0
 21 24  1  0
 24 25  1  0
 24 27  1  0
 25 26  1  0
 26 27  1  0
  7  8  1  0
 11 12  2  0
 11 19  1  0
 12 13  1  0
 13 14  1  0
 14 15  1  0
 14 19  2  0
 15 16  2  0
 16 17  1  0
 17 18  2  0
 18 19  1  0
M  END
>  <minimizedAffinity>  (309) 
-8.87639

$$$$
data/reference_output_2/data/smiles/118071.pdb
     RDKit          3D

 27 30  0  0  0  0  0  0  0  0999 V2000
   66.6709   49.4063   57.9122 C   0  0  0  0  0  0  0  0  0  0  0  0
   67.8981   50.1173   57.4485 C   0  0  0  0  0  0  0  0  0  0  0  0
   67.8561   51.4877   57.3452 C   0  0  0  0  0  0  0  0  0  0  0  0
   68.9772   52.1619   56.9320 C   0  0  0  0  0  0  0  0  0  0  0  0
   70.1658   51.5368   56.6067 C   0  0  0  0  0  0  0  0  0  0  0  0
   70.1946   50.1809   56.7126 C   0  0  0  0  0  0  0  0  0  0  0  0
   69.0606   49.4712   57.1328 C   0  0  0  0  0  0  0  0  0  0  0  0
   71.2968   52.3715   56.1761 C   0  0  2  0  0  0  0  0  0  0  0  0
   71.9675   51.8631   55.0976 O   0  0  0  0  0  0  0  0  0  0  0  0
   73.0199   52.5830   54.6445 C   0  0  1  0  0  0  0  0  0  0  0  0
   73.4336   53.7836   55.3927 C   0  0  1  0  0  0  0  0  0  0  0  0
   72.9583   54.9547   54.8009 O   0  0  0  0  0  0  0  0  0  0  0  0
   73.1147   53.7954   56.8582 C   0  0  2  0  0  0  0  0  0  0  0  0
   74.2314   53.9763   57.6728 O   0  0  0  0  0  0  0  0  0  0  0  0
   72.3390   52.5460   57.2813 C   0  0  1  0  0  0  0  0  0  0  0  0
   71.7385   52.7456   58.5122 O   0  0  0  0  0  0  0  0  0  0  0  0
   74.2037   51.6159   54.4822 C   0  0  0  0  0  0  0  0  0  0  0  0
   73.8548   50.5456   53.6520 O   0  0  0  0  0  0  0  0  0  0  0  0
   69.1792   47.9857   57.2080 C   0  0  0  0  0  0  0  0  0  0  0  0
   68.9682   47.4617   55.8144 C   0  0  0  0  0  0  0  0  0  0  0  0
   68.3230   46.2719   55.5594 C   0  0  0  0  0  0  0  0  0  0  0  0
   68.1551   45.8662   54.2637 C   0  0  0  0  0  0  0  0  0  0  0  0
   68.6190   46.6198   53.1772 C   0  0  0  0  0  0  0  0  0  0  0  0
   69.2563   47.7951   53.4539 C   0  0  0  0  0  0  0  0  0  0  0  0
   69.4372   48.2278   54.7691 C   0  0  0  0  0  0  0  0  0  0  0  0
   69.4945   48.1120   52.0204 C   0  0  0  0  0  0  0  0  0  0  0  0
   68.7998   46.8324   51.7426 C   0  0  0  0  0  0  0  0  0  0  0  0
  1  2  1  0
  2  3  2  0
  2  7  1  0
  3  4  1  0
  4  5  2  0
  8  5  1  1
  5  6  1  0
  8  9  1  0
  8 15  1  0
  9 10  1  0
 10 17  1  1
 10 11  1  0
 17 18  1  0
 11 12  1  6
 11 13  1  0
 13 14  1  1
 13 15  1  0
 15 16  1  1
  6  7  2  0
  7 19  1  0
 19 20  1  0
 20 21  2  0
 20 25  1  0
 21 22  1  0
 22 23  2  0
 23 24  1  0
 23 27  1  0
 24 25  2  0
 24 26  1  0
 26 27  1  0
M  END
>  <minimizedAffinity>  (310) 
-8.87601

$$$$
data/reference_output_2/data/smiles/165176.pdb
     RDKit          3D

 26 28  0  0  0  0  0  0  0  0999 V2000
   69.2057   40.1001   57.7442 C   0  0  0  0  0  0  0  0  0  0  0  0
   68.1066   39.8556   56.9506 C   0  0  0  0  0  0  0  0  0  0  0  0
   67.5195   40.8985   56.2777 C   0  0  0  0  0  0  0  0  0  0  0  0
   68.0419   42.1974   56.4038 C   0  0  0  0  0  0  0  0  0  0  0  0
   67.4231   43.1960   55.7159 F   0  0  0  0  0  0  0  0  0  0  0  0
   69.1360   42.4810   57.1852 C   0  0  0  0  0  0  0  0  0  0  0  0
   69.6878   41.3718   57.8442 C   0  0  0  0  0  0  0  0  0  0  0  0
   69.7821   36.3965   60.9807 C   0  0  0  0  0  0  0  0  0  0  0  0
   70.0655   37.3951   59.8973 C   0  0  0  0  0  0  0  0  0  0  0  0
   71.2605   37.5040   59.2201 C   0  0  0  0  0  0  0  0  0  0  0  0
   71.0646   38.5408   58.3307 C   0  0  0  0  0  0  0  0  0  0  0  0
   69.8399   39.0247   58.4601 N   0  0  0  0  0  0  0  0  0  0  0  0
   69.2332   38.3315   59.4085 N   0  0  0  0  0  0  0  0  0  0  0  0
   69.7324   43.7746   57.3695 C   0  0  0  0  0  0  0  0  0  0  0  0
   70.8525   43.8346   57.9867 O   0  0  0  0  0  0  0  0  0  0  0  0
   69.2131   44.9899   56.9415 N   0  0  0  0  0  0  0  0  0  0  0  0
   69.8483   46.2331   57.1529 N   0  0  0  0  0  0  0  0  0  0  0  0
   68.8790   47.4298   56.3500 S   0  0  0  0  0  0  0  0  0  0  0  0
   69.5731   48.7587   56.5984 O   0  0  0  0  0  0  0  0  0  0  0  0
   67.5376   47.4791   57.0478 O   0  0  0  0  0  0  0  0  0  0  0  0
   68.7216   47.1116   54.6614 C   0  0  0  0  0  0  0  0  0  0  0  0
   68.0111   46.0447   54.1571 C   0  0  0  0  0  0  0  0  0  0  0  0
   67.9022   45.8156   52.7964 C   0  0  0  0  0  0  0  0  0  0  0  0
   68.5184   46.6706   51.9119 C   0  0  0  0  0  0  0  0  0  0  0  0
   69.2416   47.7557   52.3896 C   0  0  0  0  0  0  0  0  0  0  0  0
   69.3237   47.9451   53.7492 C   0  0  0  0  0  0  0  0  0  0  0  0
  8  9  1  0
  9 10  1  0
  9 13  2  0
 10 11  2  0
 11 12  1  0
 12  1  1  0
 12 13  1  0
  1  2  2  0
  1  7  1  0
  2  3  1  0
  3  4  2  0
  4  5  1  0
  4  6  1  0
  6 14  1  0
  6  7  2  0
 14 15  2  0
 14 16  1  0
 16 17  1  0
 17 18  1  0
 18 19  2  0
 18 20  2  0
 18 21  1  0
 21 22  2  0
 21 26  1  0
 22 23  1  0
 23 24  2  0
 24 25  1  0
 25 26  2  0
M  END
>  <minimizedAffinity>  (311) 
-8.87540

$$$$
data/200k_reference_output/data/smiles/36159.pdb
     RDKit          3D

 26 28  0  0  0  0  0  0  0  0999 V2000
   68.8525   47.5037   53.0476 C   0  0  0  0  0  0  0  0  0  0  0  0
   69.7942   48.5064   52.8526 C   0  0  0  0  0  0  0  0  0  0  0  0
   70.2877   49.2699   53.8880 C   0  0  0  0  0  0  0  0  0  0  0  0
   69.8469   49.0458   55.1514 C   0  0  0  0  0  0  0  0  0  0  0  0
   68.9116   48.0539   55.3657 C   0  0  0  0  0  0  0  0  0  0  0  0
   68.4116   47.2837   54.3340 C   0  0  0  0  0  0  0  0  0  0  0  0
   68.4734   47.8637   56.7747 C   0  0  0  0  0  0  0  0  0  0  0  0
   69.7326   47.7003   57.6106 C   0  0  2  0  0  0  0  0  0  0  0  0
   70.7156   48.7991   57.3854 C   0  0  0  0  0  0  0  0  0  0  0  0
   70.3013   49.8012   56.3537 C   0  0  0  0  0  0  0  0  0  0  0  0
   69.0396   46.7540   50.8269 O   0  0  0  0  0  0  0  0  0  0  0  0
   68.3781   46.7403   51.9074 C   0  0  0  0  0  0  0  0  0  0  0  0
   67.2098   45.9693   51.9256 N   0  0  0  0  0  0  0  0  0  0  0  0
   66.7815   45.2544   50.8321 O   0  0  0  0  0  0  0  0  0  0  0  0
   70.2697   46.3964   57.3005 N   0  0  0  0  0  0  0  0  0  0  0  0
   70.8426   45.5620   58.6891 S   0  0  0  0  0  0  0  0  0  0  0  0
   71.1596   46.6046   59.7362 O   0  0  0  0  0  0  0  0  0  0  0  0
   69.7247   44.6907   59.1852 O   0  0  0  0  0  0  0  0  0  0  0  0
   72.2082   44.5438   58.3474 C   0  0  0  0  0  0  0  0  0  0  0  0
   73.4932   44.9069   58.7056 C   0  0  0  0  0  0  0  0  0  0  0  0
   74.5741   44.0947   58.4322 C   0  0  0  0  0  0  0  0  0  0  0  0
   74.3288   42.8952   57.7808 C   0  0  0  0  0  0  0  0  0  0  0  0
   75.3709   42.0896   57.5050 F   0  0  0  0  0  0  0  0  0  0  0  0
   73.0577   42.5249   57.4205 C   0  0  0  0  0  0  0  0  0  0  0  0
   71.9748   43.3337   57.6922 C   0  0  0  0  0  0  0  0  0  0  0  0
   70.7041   43.0015   57.3511 F   0  0  0  0  0  0  0  0  0  0  0  0
 11 12  2  0
 12 13  1  0
 12  1  1  0
 13 14  1  0
  1  2  2  0
  1  6  1  0
  2  3  1  0
  3  4  2  0
  4  5  1  0
  4 10  1  0
  5  6  2  0
  5  7  1  0
  7  8  1  0
  8 15  1  6
  8  9  1  0
 15 16  1  0
 16 17  2  0
 16 18  2  0
 16 19  1  0
 19 20  2  0
 19 25  1  0
 20 21  1  0
 21 22  2  0
 22 23  1  0
 22 24  1  0
 24 25  2  0
 25 26  1  0
  9 10  1  0
M  END
>  <minimizedAffinity>  (312) 
-8.87478

$$$$
data/reference_output_2/data/smiles/122308.pdb
     RDKit          3D

 26 28  0  0  0  0  0  0  0  0999 V2000
   71.5722   47.8144   59.1538 C   0  0  0  0  0  0  0  0  0  0  0  0
   70.8319   46.7745   58.3934 C   0  0  0  0  0  0  0  0  0  0  0  0
   69.7843   47.1651   57.5919 C   0  0  0  0  0  0  0  0  0  0  0  0
   69.4249   48.4848   57.4925 F   0  0  0  0  0  0  0  0  0  0  0  0
   69.1208   46.1714   56.9002 C   0  0  0  0  0  0  0  0  0  0  0  0
   69.4696   44.8754   56.9947 N   0  0  0  0  0  0  0  0  0  0  0  0
   70.5001   44.4538   57.7774 C   0  0  0  0  0  0  0  0  0  0  0  0
   71.1665   45.4498   58.4710 C   0  0  0  0  0  0  0  0  0  0  0  0
   72.1996   45.0363   59.2575 F   0  0  0  0  0  0  0  0  0  0  0  0
   70.8413   43.0847   57.8548 N   0  0  0  0  0  0  0  0  0  0  0  0
   72.1698   42.6744   57.4627 C   0  0  0  0  0  0  0  0  0  0  0  0
   72.7025   41.8086   58.5573 C   0  0  0  0  0  0  0  0  0  0  0  0
   71.8891   40.6943   58.8512 N   0  0  0  0  0  0  0  0  0  0  0  0
   72.2075   40.0648   60.1129 C   0  0  0  0  0  0  0  0  0  0  0  0
   70.5201   40.7504   58.5462 C   0  0  0  0  0  0  0  0  0  0  0  0
   69.9280   42.0894   58.3034 C   0  0  0  0  0  0  0  0  0  0  0  0
   68.0543   46.5880   56.0881 O   0  0  0  0  0  0  0  0  0  0  0  0
   68.2828   46.6544   54.7083 C   0  0  0  0  0  0  0  0  0  0  0  0
   67.6959   45.7484   53.8453 C   0  0  0  0  0  0  0  0  0  0  0  0
   67.9258   45.8178   52.4719 C   0  0  0  0  0  0  0  0  0  0  0  0
   68.7564   46.8174   52.0089 C   0  0  0  0  0  0  0  0  0  0  0  0
   69.3514   47.7342   52.8729 C   0  0  0  0  0  0  0  0  0  0  0  0
   69.1022   47.6364   54.2187 C   0  0  0  0  0  0  0  0  0  0  0  0
   70.2187   48.7701   52.3324 C   0  0  0  0  0  0  0  0  0  0  0  0
   69.9876   49.2565   51.1617 N   0  0  0  0  0  0  0  0  0  0  0  0
   71.3269   49.2661   53.0672 N   0  0  0  0  0  0  0  0  0  0  0  0
  1  2  1  0
  2  3  2  0
  2  8  1  0
  3  4  1  0
  3  5  1  0
  5 17  1  0
  5  6  2  0
 17 18  1  0
 18 19  2  0
 18 23  1  0
 19 20  1  0
 20 21  2  0
 21 22  1  0
 22 24  1  0
 22 23  2  0
 24 25  2  0
 24 26  1  0
  6  7  1  0
  7 10  1  0
  7  8  2  0
 10 11  1  0
 10 16  1  0
 11 12  1  0
 12 13  1  0
 13 14  1  0
 13 15  1  0
 15 16  1  0
  8  9  1  0
M  CHG  2  13   1  25   1
M  END
>  <minimizedAffinity>  (313) 
-8.87449

$$$$
data/reference_output_2/data/smiles/164078.pdb
     RDKit          3D

 27 30  0  0  0  0  0  0  0  0999 V2000
   71.1460   46.8590   58.7643 C   0  0  0  0  0  0  0  0  0  0  0  0
   71.0289   45.4543   58.6797 C   0  0  0  0  0  0  0  0  0  0  0  0
   70.2129   44.8511   57.7614 C   0  0  0  0  0  0  0  0  0  0  0  0
   69.5041   45.6462   56.9150 C   0  0  0  0  0  0  0  0  0  0  0  0
   69.5715   47.0066   56.9443 N   0  0  0  0  0  0  0  0  0  0  0  0
   70.3884   47.5646   57.8631 C   0  0  0  0  0  0  0  0  0  0  0  0
   70.4937   48.8212   57.9301 O   0  0  0  0  0  0  0  0  0  0  0  0
   74.0000   48.6678   60.5598 C   0  0  0  0  0  0  0  0  0  0  0  0
   73.1684   48.1390   59.4599 N   0  0  0  0  0  0  0  0  0  0  0  0
   72.0190   47.4123   59.7526 C   0  0  0  0  0  0  0  0  0  0  0  0
   71.7562   47.2485   60.9938 O   0  0  0  0  0  0  0  0  0  0  0  0
   70.1288   43.4032   57.7163 C   0  0  0  0  0  0  0  0  0  0  0  0
   71.1387   42.6855   57.4189 O   0  0  0  0  0  0  0  0  0  0  0  0
   68.9406   42.6763   57.9932 N   0  0  0  0  0  0  0  0  0  0  0  0
   68.9182   41.2263   57.9331 C   0  0  0  0  0  0  0  0  0  0  0  0
   67.9969   40.5318   57.0007 C   0  0  0  0  0  0  0  0  0  0  0  0
   67.7318   40.4875   58.4722 C   0  0  0  0  0  0  0  0  0  0  0  0
   68.7502   47.7631   56.0310 C   0  0  0  0  0  0  0  0  0  0  0  0
   68.5853   47.1446   54.6928 C   0  0  0  0  0  0  0  0  0  0  0  0
   67.7731   46.0419   54.5974 N   0  0  0  0  0  0  0  0  0  0  0  0
   67.4794   45.4240   53.4510 C   0  0  0  0  0  0  0  0  0  0  0  0
   67.9978   45.8809   52.2654 C   0  0  0  0  0  0  0  0  0  0  0  0
   68.8191   46.9832   52.3114 C   0  0  0  0  0  0  0  0  0  0  0  0
   69.4921   47.6481   51.3440 N   0  0  0  0  0  0  0  0  0  0  0  0
   70.1860   48.6515   51.8968 C   0  0  0  0  0  0  0  0  0  0  0  0
   69.9773   48.6659   53.2650 C   0  0  0  0  0  0  0  0  0  0  0  0
   69.1165   47.6204   53.5266 C   0  0  0  0  0  0  0  0  0  0  0  0
  8  9  1  0
  9 10  1  0
 10 11  2  0
 10  1  1  0
  1  2  2  0
  1  6  1  0
  2  3  1  0
  3 12  1  0
  3  4  2  0
 12 13  2  0
 12 14  1  0
 14 15  1  0
 15 16  1  0
 15 17  1  0
 16 17  1  0
  4  5  1  0
  5 18  1  0
  5  6  1  0
 18 19  1  0
 19 20  2  0
 19 27  1  0
 20 21  1  0
 21 22  2  0
 22 23  1  0
 23 24  1  0
 23 27  2  0
 24 25  1  0
 25 26  2  0
 26 27  1  0
  6  7  2  0
M  END
>  <minimizedAffinity>  (314) 
-8.87404

$$$$
data/200k_reference_output/data/smiles/57518.pdb
     RDKit          3D

 27 29  0  0  0  0  0  0  0  0999 V2000
   69.0703   47.5946   56.8754 C   0  0  0  0  0  0  0  0  0  0  0  0
   67.8857   47.7173   57.3695 O   0  0  0  0  0  0  0  0  0  0  0  0
   69.2744   48.1611   55.5780 C   0  0  0  0  0  0  0  0  0  0  0  0
   70.3320   49.1578   55.3851 C   0  0  0  0  0  0  0  0  0  0  0  0
   70.6508   49.2687   54.0956 N   0  0  0  0  0  0  0  0  0  0  0  0
   69.8664   48.3889   53.3671 C   0  0  0  0  0  0  0  0  0  0  0  0
   69.9051   48.1536   51.9979 C   0  0  0  0  0  0  0  0  0  0  0  0
   69.0129   47.1432   51.5033 C   0  0  0  0  0  0  0  0  0  0  0  0
   68.1965   46.5141   52.4038 C   0  0  0  0  0  0  0  0  0  0  0  0
   68.2172   46.8185   53.7233 C   0  0  0  0  0  0  0  0  0  0  0  0
   69.0762   47.7797   54.2901 C   0  0  0  0  0  0  0  0  0  0  0  0
   67.2384   45.5451   51.9245 N   0  0  0  0  0  0  0  0  0  0  0  0
   66.7735   45.7489   50.7298 O   0  0  0  0  0  0  0  0  0  0  0  0
   66.8959   44.4962   52.6696 O   0  0  0  0  0  0  0  0  0  0  0  0
   69.9769   45.5066   58.0238 N   0  0  0  0  0  0  0  0  0  0  0  0
   70.0177   46.9453   57.7359 C   0  0  0  0  0  0  0  0  0  0  0  0
   70.9236   47.5474   58.3442 O   0  0  0  0  0  0  0  0  0  0  0  0
   70.7404   44.7699   58.9418 C   0  0  0  0  0  0  0  0  0  0  0  0
   71.2246   40.4844   58.2568 C   0  0  0  0  0  0  0  0  0  0  0  0
   69.9204   41.1209   58.4293 C   0  0  0  0  0  0  0  0  0  0  0  0
   69.8553   42.4307   58.5380 C   0  0  0  0  0  0  0  0  0  0  0  0
   70.9328   43.3199   58.5003 C   0  0  0  0  0  0  0  0  0  0  0  0
   72.1290   42.7379   58.3243 C   0  0  0  0  0  0  0  0  0  0  0  0
   72.2660   41.3786   58.2039 C   0  0  0  0  0  0  0  0  0  0  0  0
   71.6384   36.3461   58.7565 C   0  0  0  0  0  0  0  0  0  0  0  0
   71.4800   37.8490   58.5742 C   0  0  0  0  0  0  0  0  0  0  0  0
   71.3528   39.1807   58.4251 C   0  0  0  0  0  0  0  0  0  0  0  0
 25 26  1  0
 26 27  3  0
 27 19  1  0
 19 20  2  0
 19 24  1  0
 20 21  1  0
 21 22  2  0
 22 18  1  0
 22 23  1  0
 18 15  1  0
 15 16  1  0
 16 17  2  0
 16  1  1  0
  1  2  2  0
  1  3  1  0
  3  4  2  0
  3 11  1  0
  4  5  1  0
  5  6  1  0
  6  7  1  0
  6 11  2  0
  7  8  2  0
  8  9  1  0
  9 12  1  0
  9 10  2  0
 12 13  2  0
 12 14  1  0
 10 11  1  0
 23 24  2  0
M  CHG  2  12   1  14  -1
M  END
>  <minimizedAffinity>  (315) 
-8.87308

$$$$
data/reference_output_2/data/smiles/169045.pdb
     RDKit          3D

 23 25  0  0  0  0  0  0  0  0999 V2000
   69.1753   50.7264   53.0459 N   0  0  0  0  0  0  0  0  0  0  0  0
   69.5675   51.5843   54.1231 C   0  0  0  0  0  0  0  0  0  0  0  0
   68.6392   52.0875   55.0099 C   0  0  0  0  0  0  0  0  0  0  0  0
   69.0406   52.9102   56.0363 C   0  0  0  0  0  0  0  0  0  0  0  0
   70.3633   53.2490   56.2034 C   0  0  0  0  0  0  0  0  0  0  0  0
   71.3234   52.7623   55.3329 C   0  0  0  0  0  0  0  0  0  0  0  0
   70.8861   51.9474   54.3245 C   0  0  0  0  0  0  0  0  0  0  0  0
   72.7345   53.1018   55.4820 C   0  0  0  0  0  0  0  0  0  0  0  0
   73.7396   52.4153   54.8845 N   0  0  0  0  0  0  0  0  0  0  0  0
   74.8751   52.9821   55.2271 N   0  0  0  0  0  0  0  0  0  0  0  0
   74.5652   54.0111   56.0297 N   0  0  0  0  0  0  0  0  0  0  0  0
   73.2769   54.0944   56.1923 N   0  0  0  0  0  0  0  0  0  0  0  0
   70.1569   49.2353   51.1275 O   0  0  0  0  0  0  0  0  0  0  0  0
   69.9960   49.3008   52.6085 S   0  0  0  0  0  0  0  0  0  0  0  0
   71.4053   49.3276   53.1840 O   0  0  0  0  0  0  0  0  0  0  0  0
   69.2120   47.8387   53.1312 C   0  0  0  0  0  0  0  0  0  0  0  0
   68.6961   46.9465   52.2161 C   0  0  0  0  0  0  0  0  0  0  0  0
   68.0626   45.7620   52.6109 C   0  0  0  0  0  0  0  0  0  0  0  0
   67.9373   45.4538   53.9467 C   0  0  0  0  0  0  0  0  0  0  0  0
   67.3335   44.3209   54.3850 F   0  0  0  0  0  0  0  0  0  0  0  0
   68.4616   46.3597   54.8549 C   0  0  0  0  0  0  0  0  0  0  0  0
   69.0809   47.5179   54.4709 C   0  0  0  0  0  0  0  0  0  0  0  0
   69.7412   48.6603   55.6229 Cl  0  0  0  0  0  0  0  0  0  0  0  0
 13 14  2  0
 14 15  2  0
 14  1  1  0
 14 16  1  0
  1  2  1  0
  2  3  2  0
  2  7  1  0
  3  4  1  0
  4  5  2  0
  5  6  1  0
  6  8  1  0
  6  7  2  0
  8  9  2  0
  8 12  1  0
  9 10  1  0
 10 11  2  0
 11 12  1  0
 16 17  2  0
 16 22  1  0
 17 18  1  0
 18 19  2  0
 19 20  1  0
 19 21  1  0
 21 22  2  0
 22 23  1  0
M  END
>  <minimizedAffinity>  (316) 
-8.87180

$$$$
data/200k_reference_output/data/smiles/53462.pdb
     RDKit          3D

 22 23  0  0  0  0  0  0  0  0999 V2000
   68.3048   46.3251   56.2711 N   0  0  0  0  0  0  0  0  0  0  0  0
   68.2455   45.4416   55.1710 C   0  0  0  0  0  0  0  0  0  0  0  0
   68.1321   44.1871   55.3865 N   0  0  0  0  0  0  0  0  0  0  0  0
   68.3185   46.0080   53.8221 C   0  0  0  0  0  0  0  0  0  0  0  0
   67.5457   45.5194   52.7800 C   0  0  0  0  0  0  0  0  0  0  0  0
   67.6132   46.0494   51.5092 C   0  0  0  0  0  0  0  0  0  0  0  0
   68.4769   47.0960   51.2797 C   0  0  0  0  0  0  0  0  0  0  0  0
   69.2698   47.6231   52.2756 C   0  0  0  0  0  0  0  0  0  0  0  0
   69.1644   47.0563   53.5264 C   0  0  0  0  0  0  0  0  0  0  0  0
   70.1544   48.6940   52.0380 N   0  0  0  0  0  0  0  0  0  0  0  0
   71.1227   48.8484   52.8052 O   0  0  0  0  0  0  0  0  0  0  0  0
   69.9584   49.5479   50.9863 O   0  0  0  0  0  0  0  0  0  0  0  0
   68.0717   43.7475   56.6806 O   0  0  0  0  0  0  0  0  0  0  0  0
   68.9447   42.8195   57.2251 C   0  0  0  0  0  0  0  0  0  0  0  0
   68.4909   41.6657   57.4139 O   0  0  0  0  0  0  0  0  0  0  0  0
   70.3320   43.1697   57.5655 C   0  0  0  0  0  0  0  0  0  0  0  0
   71.3389   42.2341   57.4705 C   0  0  0  0  0  0  0  0  0  0  0  0
   72.6523   42.5190   57.7786 C   0  0  0  0  0  0  0  0  0  0  0  0
   72.9357   43.8174   58.2011 C   0  0  0  0  0  0  0  0  0  0  0  0
   74.7748   44.1771   58.6210 Br  0  0  0  0  0  0  0  0  0  0  0  0
   71.9644   44.7882   58.3116 C   0  0  0  0  0  0  0  0  0  0  0  0
   70.6701   44.4323   57.9858 C   0  0  0  0  0  0  0  0  0  0  0  0
  1  2  1  0
  2  3  2  0
  2  4  1  0
  3 13  1  0
 13 14  1  0
 14 15  2  0
 14 16  1  0
 16 17  2  0
 16 22  1  0
 17 18  1  0
 18 19  2  0
 19 20  1  0
 19 21  1  0
 21 22  2  0
  4  5  2  0
  4  9  1  0
  5  6  1  0
  6  7  2  0
  7  8  1  0
  8 10  1  0
  8  9  2  0
 10 11  2  0
 10 12  1  0
M  CHG  3   3   1  10   1  12  -1
M  END
>  <minimizedAffinity>  (317) 
-8.87154

$$$$
data/reference_output_2/data/smiles/176388.pdb
     RDKit          3D

 28 30  0  0  0  0  0  0  0  0999 V2000
   69.5049   47.2972   57.5735 C   0  0  0  0  0  0  0  0  0  0  0  0
   69.3830   47.4101   56.1182 N   0  0  0  0  0  0  0  0  0  0  0  0
   69.9593   48.4011   55.4829 N   0  0  0  0  0  0  0  0  0  0  0  0
   69.8878   48.5696   54.1240 C   0  0  0  0  0  0  0  0  0  0  0  0
   69.1615   47.6174   53.4574 C   0  0  0  0  0  0  0  0  0  0  0  0
   69.0244   47.6894   52.0874 C   0  0  0  0  0  0  0  0  0  0  0  0
   68.2741   46.6945   51.4611 C   0  0  0  0  0  0  0  0  0  0  0  0
   67.6820   45.6709   52.1329 C   0  0  0  0  0  0  0  0  0  0  0  0
   67.8123   45.5892   53.4993 C   0  0  0  0  0  0  0  0  0  0  0  0
   68.5433   46.5556   54.1319 C   0  0  0  0  0  0  0  0  0  0  0  0
   68.6659   46.4612   55.4994 C   0  0  0  0  0  0  0  0  0  0  0  0
   68.1368   45.5339   56.1714 O   0  0  0  0  0  0  0  0  0  0  0  0
   70.5543   49.6936   53.5037 C   0  0  0  0  0  0  0  0  0  0  0  0
   71.8426   49.6766   53.4799 O   0  0  0  0  0  0  0  0  0  0  0  0
   70.0021   50.7971   52.9258 O   0  0  0  0  0  0  0  0  0  0  0  0
   71.6146   46.9246   58.5287 O   0  0  0  0  0  0  0  0  0  0  0  0
   70.6639   46.4168   57.9102 C   0  0  0  0  0  0  0  0  0  0  0  0
   70.6945   45.0572   57.5466 N   0  0  0  0  0  0  0  0  0  0  0  0
   71.7390   44.1471   57.8166 C   0  0  0  0  0  0  0  0  0  0  0  0
   73.0677   44.4492   57.9445 C   0  0  0  0  0  0  0  0  0  0  0  0
   74.0520   43.4901   58.2093 C   0  0  0  0  0  0  0  0  0  0  0  0
   73.7110   42.1645   58.3570 C   0  0  0  0  0  0  0  0  0  0  0  0
   72.3833   41.8360   58.2335 C   0  0  0  0  0  0  0  0  0  0  0  0
   71.4201   42.8052   57.9694 C   0  0  0  0  0  0  0  0  0  0  0  0
   69.9884   42.4059   57.8581 C   0  0  0  0  0  0  0  0  0  0  0  0
   69.2162   42.8299   58.9014 F   0  0  0  0  0  0  0  0  0  0  0  0
   69.9179   41.0064   57.8683 F   0  0  0  0  0  0  0  0  0  0  0  0
   69.4647   42.7836   56.6162 F   0  0  0  0  0  0  0  0  0  0  0  0
 16 17  2  0
 17  1  1  0
 17 18  1  0
  1  2  1  0
  2  3  1  0
  2 11  1  0
  3  4  2  0
  4 13  1  0
  4  5  1  0
 13 14  2  0
 13 15  1  0
  5  6  2  0
  5 10  1  0
  6  7  1  0
  7  8  2  0
  8  9  1  0
  9 10  2  0
 10 11  1  0
 11 12  2  0
 18 19  1  0
 19 20  2  0
 19 24  1  0
 20 21  1  0
 21 22  2  0
 22 23  1  0
 23 24  2  0
 24 25  1  0
 25 26  1  0
 25 27  1  0
 25 28  1  0
M  END
>  <minimizedAffinity>  (318) 
-8.86774

$$$$
data/reference_output_2/data/smiles/147741.pdb
     RDKit          3D

 26 28  0  0  0  0  0  0  0  0999 V2000
   68.5474   43.6067   56.2311 C   0  0  0  0  0  0  0  0  0  0  0  0
   68.4352   42.4039   56.7186 C   0  0  0  0  0  0  0  0  0  0  0  0
   67.3984   41.5199   56.2131 C   0  0  0  0  0  0  0  0  0  0  0  0
   66.6175   41.9420   55.3139 O   0  0  0  0  0  0  0  0  0  0  0  0
   67.3140   40.2203   56.7555 N   0  0  0  0  0  0  0  0  0  0  0  0
   68.2171   39.7590   57.7840 C   0  0  0  0  0  0  0  0  0  0  0  0
   68.1068   38.5848   58.2445 O   0  0  0  0  0  0  0  0  0  0  0  0
   69.2508   40.5855   58.3154 N   0  0  0  0  0  0  0  0  0  0  0  0
   69.3379   41.8932   57.7708 C   0  0  0  0  0  0  0  0  0  0  0  0
   70.2325   42.6550   58.2100 O   0  0  0  0  0  0  0  0  0  0  0  0
   67.7223   44.1502   55.2166 N   0  0  0  0  0  0  0  0  0  0  0  0
   68.5303   47.0265   51.3141 N   0  0  0  0  0  0  0  0  0  0  0  0
   68.5636   46.7997   52.7113 C   0  0  0  0  0  0  0  0  0  0  0  0
   69.0166   47.8097   53.5333 C   0  0  0  0  0  0  0  0  0  0  0  0
   69.0504   47.6075   54.9190 C   0  0  0  0  0  0  0  0  0  0  0  0
   68.6246   46.3884   55.4369 C   0  0  0  0  0  0  0  0  0  0  0  0
   68.1700   45.3744   54.6297 C   0  0  0  0  0  0  0  0  0  0  0  0
   68.1519   45.6075   53.2752 C   0  0  0  0  0  0  0  0  0  0  0  0
   70.1349   40.0912   59.3355 C   0  0  0  0  0  0  0  0  0  0  0  0
   70.6701   38.7307   59.0765 C   0  0  0  0  0  0  0  0  0  0  0  0
   70.3292   37.6806   59.8782 C   0  0  0  0  0  0  0  0  0  0  0  0
   70.8255   36.4020   59.6332 C   0  0  0  0  0  0  0  0  0  0  0  0
   71.6781   36.2020   58.5590 C   0  0  0  0  0  0  0  0  0  0  0  0
   72.1910   34.9570   58.2816 F   0  0  0  0  0  0  0  0  0  0  0  0
   72.0194   37.2633   57.7544 C   0  0  0  0  0  0  0  0  0  0  0  0
   71.5196   38.5248   58.0076 C   0  0  0  0  0  0  0  0  0  0  0  0
 12 13  1  0
 13 14  2  0
 13 18  1  0
 14 15  1  0
 15 16  2  0
 16 17  1  0
 17 11  1  0
 17 18  2  0
 11  1  1  0
  1  2  2  0
  2  3  1  0
  2  9  1  0
  3  4  2  0
  3  5  1  0
  5  6  1  0
  6  7  2  0
  6  8  1  0
  8 19  1  0
  8  9  1  0
 19 20  1  0
 20 21  2  0
 20 26  1  0
 21 22  1  0
 22 23  2  0
 23 24  1  0
 23 25  1  0
 25 26  2  0
  9 10  2  0
M  END
>  <minimizedAffinity>  (319) 
-8.86631

$$$$
data/200k_reference_output/data/smiles/51034.pdb
     RDKit          3D

 25 27  0  0  0  0  0  0  0  0999 V2000
   71.3673   46.5545   59.0015 S   0  0  0  0  0  0  0  0  0  0  0  0
   71.4145   46.8936   60.4637 O   0  0  0  0  0  0  0  0  0  0  0  0
   71.6716   47.8058   58.2156 O   0  0  0  0  0  0  0  0  0  0  0  0
   72.5695   45.3192   58.7019 C   0  0  0  0  0  0  0  0  0  0  0  0
   72.1899   44.0737   58.1918 C   0  0  0  0  0  0  0  0  0  0  0  0
   73.1165   43.0898   57.9492 C   0  0  0  0  0  0  0  0  0  0  0  0
   74.4478   43.3113   58.2045 C   0  0  0  0  0  0  0  0  0  0  0  0
   75.3955   42.3178   57.9609 C   0  0  0  0  0  0  0  0  0  0  0  0
   76.7332   42.5354   58.2153 C   0  0  0  0  0  0  0  0  0  0  0  0
   77.1399   43.7447   58.7160 C   0  0  0  0  0  0  0  0  0  0  0  0
   76.2067   44.7216   58.9551 C   0  0  0  0  0  0  0  0  0  0  0  0
   74.8631   44.5188   58.7047 C   0  0  0  0  0  0  0  0  0  0  0  0
   73.9082   45.4900   58.9393 C   0  0  0  0  0  0  0  0  0  0  0  0
   69.7802   45.9825   58.5657 N   0  0  0  0  0  0  0  0  0  0  0  0
   68.8923   46.7896   56.4374 C   0  0  0  0  0  0  0  0  0  0  0  0
   68.1960   47.5804   57.1518 O   0  0  0  0  0  0  0  0  0  0  0  0
   69.7376   45.9350   57.1713 N   0  0  0  0  0  0  0  0  0  0  0  0
   69.8264   48.6571   51.8914 C   0  0  0  0  0  0  0  0  0  0  0  0
   69.1766   47.6447   52.7464 C   0  0  0  0  0  0  0  0  0  0  0  0
   68.4198   46.6634   52.1708 C   0  0  0  0  0  0  0  0  0  0  0  0
   67.8294   45.7365   53.0186 C   0  0  0  0  0  0  0  0  0  0  0  0
   68.0059   45.8114   54.3799 C   0  0  0  0  0  0  0  0  0  0  0  0
   68.7796   46.8134   54.9849 C   0  0  0  0  0  0  0  0  0  0  0  0
   69.3527   47.7183   54.1350 C   0  0  0  0  0  0  0  0  0  0  0  0
   70.1112   48.7078   54.6614 F   0  0  0  0  0  0  0  0  0  0  0  0
 18 19  1  0
 19 20  2  0
 19 24  1  0
 20 21  1  0
 21 22  2  0
 22 23  1  0
 23 15  1  0
 23 24  2  0
 15 16  2  0
 15 17  1  0
 17 14  1  0
 14  1  1  0
  1  2  2  0
  1  3  2  0
  1  4  1  0
  4  5  2  0
  4 13  1  0
  5  6  1  0
  6  7  2  0
  7  8  1  0
  7 12  1  0
  8  9  2  0
  9 10  1  0
 10 11  2  0
 11 12  1  0
 12 13  2  0
 24 25  1  0
M  END
>  <minimizedAffinity>  (320) 
-8.86557

$$$$
data/reference_output_2/data/smiles/150559.pdb
     RDKit          3D

 25 26  0  0  0  0  0  0  0  0999 V2000
   69.3209   47.3607   55.9036 C   0  0  0  0  0  0  0  0  0  0  0  0
   68.9418   47.1303   54.4642 C   0  0  0  0  0  0  0  0  0  0  0  0
   68.0119   46.2004   54.1116 C   0  0  0  0  0  0  0  0  0  0  0  0
   67.6865   46.0139   52.7728 C   0  0  0  0  0  0  0  0  0  0  0  0
   68.2911   46.7572   51.7852 C   0  0  0  0  0  0  0  0  0  0  0  0
   69.2305   47.6962   52.1450 C   0  0  0  0  0  0  0  0  0  0  0  0
   69.5469   47.8755   53.4839 C   0  0  0  0  0  0  0  0  0  0  0  0
   68.5572   48.4558   56.4778 C   0  0  0  0  0  0  0  0  0  0  0  0
   68.9418   49.7612   56.1734 C   0  0  0  0  0  0  0  0  0  0  0  0
   68.2838   50.8433   56.6786 C   0  0  0  0  0  0  0  0  0  0  0  0
   67.2033   50.7107   57.5155 C   0  0  0  0  0  0  0  0  0  0  0  0
   66.8014   49.4182   57.8332 C   0  0  0  0  0  0  0  0  0  0  0  0
   67.4778   48.3385   57.3150 C   0  0  0  0  0  0  0  0  0  0  0  0
   70.3466   45.8448   57.6655 N   0  0  0  0  0  0  0  0  0  0  0  0
   69.3670   46.1113   56.6642 C   0  0  0  0  0  0  0  0  0  0  0  0
   68.5253   45.1755   56.4758 O   0  0  0  0  0  0  0  0  0  0  0  0
   70.4258   44.6409   58.4141 C   0  0  0  0  0  0  0  0  0  0  0  0
   71.3379   43.4190   57.8886 S   0  0  0  0  0  0  0  0  0  0  0  0
   69.6878   44.5247   59.6036 N   0  0  0  0  0  0  0  0  0  0  0  0
   68.3087   42.9420   60.9045 C   0  0  0  0  0  0  0  0  0  0  0  0
   67.4201   43.8269   61.0861 O   0  0  0  0  0  0  0  0  0  0  0  0
   69.4708   43.2652   60.1564 N   0  0  0  0  0  0  0  0  0  0  0  0
   68.1107   41.5810   61.4805 C   0  0  0  0  0  0  0  0  0  0  0  0
   68.7263   41.6015   64.0540 N   0  0  0  0  0  0  0  0  0  0  0  0
   68.4555   41.5872   62.8801 C   0  0  0  0  0  0  0  0  0  0  0  0
 24 25  3  0
 25 23  1  0
 23 20  1  0
 20 21  2  0
 20 22  1  0
 22 19  1  0
 19 17  1  0
 17 18  2  0
 17 14  1  0
 14 15  1  0
 15 16  2  0
 15  1  1  0
  1  2  1  0
  1  8  1  0
  2  3  2  0
  2  7  1  0
  3  4  1  0
  4  5  2  0
  5  6  1  0
  6  7  2  0
  8  9  2  0
  8 13  1  0
  9 10  1  0
 10 11  2  0
 11 12  1  0
 12 13  2  0
M  END
>  <minimizedAffinity>  (321) 
-8.86506

$$$$
data/200k_reference_output/data/smiles/55664.pdb
     RDKit          3D

 29 33  0  0  0  0  0  0  0  0999 V2000
   73.9594   33.9335   53.9079 C   0  0  0  0  0  0  0  0  0  0  0  0
   73.6499   34.9610   54.7084 N   0  0  0  0  0  0  0  0  0  0  0  0
   72.6719   35.6428   54.0427 C   0  0  0  0  0  0  0  0  0  0  0  0
   72.4257   34.9949   52.8516 C   0  0  0  0  0  0  0  0  0  0  0  0
   73.2437   33.9197   52.7798 N   0  0  0  0  0  0  0  0  0  0  0  0
   76.3807   33.4714   53.9291 C   0  0  0  0  0  0  0  0  0  0  0  0
   74.9980   32.9388   54.2632 C   0  0  0  0  0  0  0  0  0  0  0  0
   74.1180   35.3964   55.9819 C   0  0  0  0  0  0  0  0  0  0  0  0
   73.1590   35.4367   57.0686 C   0  0  0  0  0  0  0  0  0  0  0  0
   72.8825   34.2814   57.7709 C   0  0  0  0  0  0  0  0  0  0  0  0
   71.9794   34.2648   58.8172 C   0  0  0  0  0  0  0  0  0  0  0  0
   71.3492   35.4423   59.1510 C   0  0  0  0  0  0  0  0  0  0  0  0
   70.4336   35.4305   60.2118 C   0  0  0  0  0  0  0  0  0  0  0  0
   69.8149   36.6109   60.5323 C   0  0  0  0  0  0  0  0  0  0  0  0
   70.0670   37.7833   59.8523 C   0  0  0  0  0  0  0  0  0  0  0  0
   70.9611   37.8070   58.8130 C   0  0  0  0  0  0  0  0  0  0  0  0
   71.5996   36.6109   58.4749 C   0  0  0  0  0  0  0  0  0  0  0  0
   72.5068   36.5790   57.4399 C   0  0  0  0  0  0  0  0  0  0  0  0
   73.2865   32.9717   51.6708 C   0  0  0  0  0  0  0  0  0  0  0  0
   74.2595   33.3787   50.6233 C   0  0  0  0  0  0  0  0  0  0  0  0
   74.1060   32.9380   49.3093 C   0  0  0  0  0  0  0  0  0  0  0  0
   74.9849   33.2930   48.3062 C   0  0  0  0  0  0  0  0  0  0  0  0
   76.0627   34.1147   48.5852 C   0  0  0  0  0  0  0  0  0  0  0  0
   76.9722   34.4978   47.6081 C   0  0  0  0  0  0  0  0  0  0  0  0
   78.0408   35.3199   47.9154 C   0  0  0  0  0  0  0  0  0  0  0  0
   78.1775   35.7462   49.2199 C   0  0  0  0  0  0  0  0  0  0  0  0
   77.2633   35.3566   50.1866 C   0  0  0  0  0  0  0  0  0  0  0  0
   76.1912   34.5371   49.8931 C   0  0  0  0  0  0  0  0  0  0  0  0
   75.3179   34.1735   50.8524 N   0  0  0  0  0  0  0  0  0  0  0  0
  6  7  1  0
  7  1  1  0
  1  2  1  0
  1  5  2  0
  2  8  1  0
  2  3  1  0
  8  9  1  0
  9 10  2  0
  9 18  1  0
 10 11  1  0
 11 12  2  0
 12 13  1  0
 12 17  1  0
 13 14  2  0
 14 15  1  0
 15 16  2  0
 16 17  1  0
 17 18  2  0
  3  4  2  0
  4  5  1  0
  5 19  1  0
 19 20  1  0
 20 21  2  0
 20 29  1  0
 21 22  1  0
 22 23  2  0
 23 24  1  0
 23 28  1  0
 24 25  2  0
 25 26  1  0
 26 27  2  0
 27 28  1  0
 28 29  2  0
M  CHG  1   5   1
M  END
>  <minimizedAffinity>  (322) 
-8.86478

$$$$
data/200k_reference_output/data/smiles/1758.pdb
     RDKit          3D

 28 31  0  0  0  0  0  0  0  0999 V2000
   70.7979   39.3467   58.5043 C   0  0  0  0  0  0  0  0  0  0  0  0
   69.4593   39.1448   58.6354 N   0  0  0  0  0  0  0  0  0  0  0  0
   68.7934   40.2739   58.5243 N   0  0  0  0  0  0  0  0  0  0  0  0
   69.6375   41.3013   58.3117 C   0  0  0  0  0  0  0  0  0  0  0  0
   69.5141   42.6698   58.1265 C   0  0  0  0  0  0  0  0  0  0  0  0
   70.6000   43.4948   57.9266 C   0  0  0  0  0  0  0  0  0  0  0  0
   71.8065   42.8965   57.9198 N   0  0  0  0  0  0  0  0  0  0  0  0
   71.9672   41.5610   58.0980 C   0  0  0  0  0  0  0  0  0  0  0  0
   70.8910   40.7207   58.2996 C   0  0  0  0  0  0  0  0  0  0  0  0
   72.9910   35.3048   56.6629 C   0  0  0  0  0  0  0  0  0  0  0  0
   72.9293   36.4175   57.6533 C   0  0  0  0  0  0  0  0  0  0  0  0
   71.9249   37.3563   57.6408 C   0  0  0  0  0  0  0  0  0  0  0  0
   71.8776   38.3778   58.5609 C   0  0  0  0  0  0  0  0  0  0  0  0
   72.9013   38.3848   59.4836 C   0  0  0  0  0  0  0  0  0  0  0  0
   73.9003   37.4352   59.4823 C   0  0  0  0  0  0  0  0  0  0  0  0
   73.9066   36.4567   58.5654 N   0  0  0  0  0  0  0  0  0  0  0  0
   70.4870   44.9003   57.7250 N   0  0  0  0  0  0  0  0  0  0  0  0
   69.4550   45.4216   56.8588 C   0  0  0  0  0  0  0  0  0  0  0  0
   68.7260   44.5544   56.3375 O   0  0  0  0  0  0  0  0  0  0  0  0
   69.3132   46.8121   56.6431 N   0  0  0  0  0  0  0  0  0  0  0  0
   68.2761   47.3065   55.7739 C   0  0  0  0  0  0  0  0  0  0  0  0
   68.5927   47.2630   54.3395 C   0  0  0  0  0  0  0  0  0  0  0  0
   67.9638   46.3251   53.5347 C   0  0  0  0  0  0  0  0  0  0  0  0
   68.2186   46.2537   52.1873 C   0  0  0  0  0  0  0  0  0  0  0  0
   69.1238   47.1350   51.6036 C   0  0  0  0  0  0  0  0  0  0  0  0
   69.7058   48.0221   52.4135 N   0  0  0  0  0  0  0  0  0  0  0  0
   70.6073   48.8904   51.7957 O   0  0  0  0  0  0  0  0  0  0  0  0
   69.4837   48.1234   53.7354 C   0  0  0  0  0  0  0  0  0  0  0  0
 10 11  1  0
 11 12  2  0
 11 16  1  0
 12 13  1  0
 13  1  1  0
 13 14  2  0
  1  2  2  0
  1  9  1  0
  2  3  1  0
  3  4  1  0
  4  5  1  0
  4  9  2  0
  5  6  2  0
  6 17  1  0
  6  7  1  0
 17 18  1  0
 18 19  2  0
 18 20  1  0
 20 21  1  0
 21 22  1  0
 22 23  2  0
 22 28  1  0
 23 24  1  0
 24 25  2  0
 25 26  1  0
 26 27  1  0
 26 28  2  0
  7  8  2  0
  8  9  1  0
 14 15  1  0
 15 16  2  0
M  CHG  2  26   1  27  -1
M  END
>  <minimizedAffinity>  (323) 
-8.86183

$$$$
data/reference_output_2/data/smiles/176447.pdb
     RDKit          3D

 28 31  0  0  0  0  0  0  0  0999 V2000
   71.6428   50.7323   54.8309 C   0  0  0  0  0  0  0  0  0  0  0  0
   71.9390   51.7266   54.0962 O   0  0  0  0  0  0  0  0  0  0  0  0
   72.0427   50.6703   56.1836 N   0  0  0  0  0  0  0  0  0  0  0  0
   72.8081   51.6907   56.8661 C   0  0  0  0  0  0  0  0  0  0  0  0
   72.9494   51.1689   58.3077 C   0  0  0  0  0  0  0  0  0  0  0  0
   72.8869   49.6947   58.0664 C   0  0  2  0  0  0  0  0  0  0  0  0
   71.7505   49.5805   57.0874 C   0  0  0  0  0  0  0  0  0  0  0  0
   68.1223   47.2776   55.2080 C   0  0  0  0  0  0  0  0  0  0  0  0
   69.1469   48.0049   54.4209 C   0  0  0  0  0  0  0  0  0  0  0  0
   69.9280   49.0228   54.9494 C   0  0  0  0  0  0  0  0  0  0  0  0
   70.8711   49.6767   54.1854 C   0  0  0  0  0  0  0  0  0  0  0  0
   71.0249   49.3102   52.9040 N   0  0  0  0  0  0  0  0  0  0  0  0
   70.2749   48.3162   52.3541 C   0  0  0  0  0  0  0  0  0  0  0  0
   70.2210   47.7616   51.1318 N   0  0  0  0  0  0  0  0  0  0  0  0
   69.3123   46.8037   51.0685 N   0  0  0  0  0  0  0  0  0  0  0  0
   68.7469   46.7158   52.2698 C   0  0  0  0  0  0  0  0  0  0  0  0
   67.8278   45.9175   52.6224 O   0  0  0  0  0  0  0  0  0  0  0  0
   69.3257   47.6499   53.1017 C   0  0  0  0  0  0  0  0  0  0  0  0
   72.7298   48.8688   59.2925 C   0  0  0  0  0  0  0  0  0  0  0  0
   72.6589   47.4467   58.8887 C   0  0  0  0  0  0  0  0  0  0  0  0
   73.8013   46.7975   58.4735 C   0  0  0  0  0  0  0  0  0  0  0  0
   73.8000   45.4735   58.0851 C   0  0  0  0  0  0  0  0  0  0  0  0
   72.6340   44.7427   58.0990 C   0  0  0  0  0  0  0  0  0  0  0  0
   71.4783   45.3715   58.5105 C   0  0  0  0  0  0  0  0  0  0  0  0
   71.4990   46.7047   58.8980 C   0  0  0  0  0  0  0  0  0  0  0  0
   70.2357   44.6094   58.5302 C   0  0  0  0  0  0  0  0  0  0  0  0
   69.6238   44.2538   57.2941 N   0  0  0  0  0  0  0  0  0  0  0  0
   69.6939   44.2598   59.5838 O   0  0  0  0  0  0  0  0  0  0  0  0
  8  9  1  0
  9 10  2  0
  9 18  1  0
 10 11  1  0
 11  1  1  0
 11 12  2  0
  1  2  2  0
  1  3  1  0
  3  4  1  0
  3  7  1  0
  4  5  1  0
  5  6  1  0
  6 19  1  1
  6  7  1  0
 19 20  1  0
 20 21  2  0
 20 25  1  0
 21 22  1  0
 22 23  2  0
 23 24  1  0
 24 26  1  0
 24 25  2  0
 26 27  1  0
 26 28  2  0
 12 13  1  0
 13 14  1  0
 13 18  2  0
 14 15  1  0
 15 16  1  0
 16 17  2  0
 16 18  1  0
M  END
>  <minimizedAffinity>  (324) 
-8.86175

$$$$
data/reference_output_2/data/smiles/178630.pdb
     RDKit          3D

 27 29  0  0  0  0  0  0  0  0999 V2000
   70.1197   47.7410   57.6111 C   0  0  0  0  0  0  0  0  0  0  0  0
   70.0634   46.2849   57.9013 C   0  0  0  0  0  0  0  0  0  0  0  0
   69.9793   45.8663   59.0993 O   0  0  0  0  0  0  0  0  0  0  0  0
   70.0980   45.2658   56.9133 N   0  0  0  0  0  0  0  0  0  0  0  0
   70.0415   43.8864   57.2524 C   0  0  0  0  0  0  0  0  0  0  0  0
   71.1108   43.2976   57.9372 C   0  0  0  0  0  0  0  0  0  0  0  0
   71.0616   41.9446   58.2680 C   0  0  0  0  0  0  0  0  0  0  0  0
   69.9451   41.1942   57.9118 C   0  0  0  0  0  0  0  0  0  0  0  0
   68.8938   41.7706   57.2397 C   0  0  0  0  0  0  0  0  0  0  0  0
   68.9580   43.1051   56.9220 C   0  0  0  0  0  0  0  0  0  0  0  0
   67.7005   40.9909   56.8494 C   0  0  0  0  0  0  0  0  0  0  0  0
   66.5309   41.6174   57.2389 F   0  0  0  0  0  0  0  0  0  0  0  0
   67.7786   39.7701   57.5245 F   0  0  0  0  0  0  0  0  0  0  0  0
   67.6846   40.7149   55.5142 F   0  0  0  0  0  0  0  0  0  0  0  0
   67.7640   48.4796   57.2896 C   0  0  0  0  0  0  0  0  0  0  0  0
   69.0673   48.1896   56.7308 N   0  0  0  0  0  0  0  0  0  0  0  0
   69.3122   48.3321   55.3021 C   0  0  0  0  0  0  0  0  0  0  0  0
   70.0082   49.3126   54.8904 N   0  0  0  0  0  0  0  0  0  0  0  0
   70.1132   49.2023   53.1830 S   0  0  0  0  0  0  0  0  0  0  0  0
   71.5227   48.9845   52.7081 O   0  0  0  0  0  0  0  0  0  0  0  0
   69.4690   50.3742   52.5012 O   0  0  0  0  0  0  0  0  0  0  0  0
   69.1550   47.7336   53.0122 C   0  0  0  0  0  0  0  0  0  0  0  0
   68.7804   46.9943   51.9020 C   0  0  0  0  0  0  0  0  0  0  0  0
   68.0171   45.8788   52.0999 C   0  0  0  0  0  0  0  0  0  0  0  0
   67.6481   45.5271   53.3787 C   0  0  0  0  0  0  0  0  0  0  0  0
   68.0228   46.2636   54.4760 C   0  0  0  0  0  0  0  0  0  0  0  0
   68.8123   47.4230   54.3050 C   0  0  0  0  0  0  0  0  0  0  0  0
 15 16  1  0
 16  1  1  0
 16 17  1  0
  1  2  1  0
  2  3  2  0
  2  4  1  0
  4  5  1  0
  5  6  2  0
  5 10  1  0
  6  7  1  0
  7  8  2  0
  8  9  1  0
  9 11  1  0
  9 10  2  0
 11 12  1  0
 11 13  1  0
 11 14  1  0
 17 18  2  0
 17 27  1  0
 18 19  1  0
 19 20  2  0
 19 21  2  0
 19 22  1  0
 22 23  1  0
 22 27  2  0
 23 24  2  0
 24 25  1  0
 25 26  2  0
 26 27  1  0
M  CHG  1  18   1
M  END
>  <minimizedAffinity>  (325) 
-8.86164

$$$$
data/reference_output_2/data/smiles/110566.pdb
     RDKit          3D

 28 32  0  0  0  0  0  0  0  0999 V2000
   68.3986   42.2558   56.5335 C   0  0  0  0  0  0  0  0  0  0  0  0
   69.2019   42.3180   57.6322 C   0  0  0  0  0  0  0  0  0  0  0  0
   69.3899   41.2290   58.4688 C   0  0  0  0  0  0  0  0  0  0  0  0
   68.7686   40.0201   58.2306 C   0  0  0  0  0  0  0  0  0  0  0  0
   67.9540   39.9513   57.1209 C   0  0  0  0  0  0  0  0  0  0  0  0
   67.7738   41.0484   56.2881 C   0  0  0  0  0  0  0  0  0  0  0  0
   69.1676   44.7775   57.0544 O   0  0  0  0  0  0  0  0  0  0  0  0
   68.5598   44.6665   55.9337 C   0  0  0  0  0  0  0  0  0  0  0  0
   68.1402   43.3350   55.6327 N   0  0  0  0  0  0  0  0  0  0  0  0
   68.3341   45.7639   55.0902 N   0  0  0  0  0  0  0  0  0  0  0  0
   68.7223   47.1175   55.3645 C   0  0  0  0  0  0  0  0  0  0  0  0
   69.1480   47.6008   54.0260 C   0  0  0  0  0  0  0  0  0  0  0  0
   69.9811   48.6372   53.6679 C   0  0  0  0  0  0  0  0  0  0  0  0
   70.2027   48.8699   52.3298 C   0  0  0  0  0  0  0  0  0  0  0  0
   69.5986   48.0784   51.4003 N   0  0  0  0  0  0  0  0  0  0  0  0
   68.7827   47.0636   51.7724 C   0  0  0  0  0  0  0  0  0  0  0  0
   68.5316   46.7921   53.0981 C   0  0  0  0  0  0  0  0  0  0  0  0
   67.6950   45.7594   53.8092 C   0  0  0  0  0  0  0  0  0  0  0  0
   68.9724   38.8847   59.1283 C   0  0  0  0  0  0  0  0  0  0  0  0
   68.0323   38.5429   59.8854 O   0  0  0  0  0  0  0  0  0  0  0  0
   70.1962   38.1652   59.1643 N   0  0  0  0  0  0  0  0  0  0  0  0
   70.5175   37.0481   59.9897 C   0  0  0  0  0  0  0  0  0  0  0  0
   71.8877   36.5858   59.6229 C   0  0  1  0  0  0  0  0  0  0  0  0
   71.9329   35.1805   59.1120 C   0  0  0  0  0  0  0  0  0  0  0  0
   72.1882   35.1759   57.7734 O   0  0  0  0  0  0  0  0  0  0  0  0
   72.3698   36.4470   57.3229 C   0  0  0  0  0  0  0  0  0  0  0  0
   72.3344   37.3995   58.4633 C   0  0  1  0  0  0  0  0  0  0  0  0
   71.3364   38.5003   58.3136 C   0  0  0  0  0  0  0  0  0  0  0  0
  7  8  2  0
  8  9  1  0
  8 10  1  0
  9  1  1  0
  1  2  2  0
  1  6  1  0
  2  3  1  0
  3  4  2  0
  4 19  1  0
  4  5  1  0
 19 20  2  0
 19 21  1  0
 21 22  1  0
 21 28  1  0
 23 22  1  6
 23 24  1  0
 23 27  1  0
 24 25  1  0
 25 26  1  0
 27 26  1  6
 27 28  1  0
  5  6  2  0
 10 11  1  0
 10 18  1  0
 11 12  1  0
 12 13  1  0
 12 17  2  0
 13 14  2  0
 14 15  1  0
 15 16  2  0
 16 17  1  0
 17 18  1  0
M  END
>  <minimizedAffinity>  (326) 
-8.85863

$$$$
data/reference_output_2/data/smiles/185303.pdb
     RDKit          3D

 24 26  0  0  0  0  0  0  0  0999 V2000
   68.4948   44.0039   56.1479 N   0  0  0  0  0  0  0  0  0  0  0  0
   67.9942   42.6675   56.2879 C   0  0  0  0  0  0  0  0  0  0  0  0
   66.9285   42.4018   55.6880 O   0  0  0  0  0  0  0  0  0  0  0  0
   68.6581   41.6400   57.0765 C   0  0  0  0  0  0  0  0  0  0  0  0
   68.1027   40.4371   57.4421 C   0  0  0  0  0  0  0  0  0  0  0  0
   69.0329   39.7411   58.1786 C   0  0  0  0  0  0  0  0  0  0  0  0
   69.0225   38.4884   58.7963 C   0  0  0  0  0  0  0  0  0  0  0  0
   70.1036   37.9942   59.4942 C   0  0  0  0  0  0  0  0  0  0  0  0
   70.0416   36.4073   60.2576 Cl  0  0  0  0  0  0  0  0  0  0  0  0
   71.2311   38.7822   59.5751 C   0  0  0  0  0  0  0  0  0  0  0  0
   71.2568   40.0208   58.9701 C   0  0  0  0  0  0  0  0  0  0  0  0
   70.1532   40.5052   58.2669 C   0  0  0  0  0  0  0  0  0  0  0  0
   69.8988   41.6397   57.5959 N   0  0  0  0  0  0  0  0  0  0  0  0
   67.8834   44.9812   55.4106 N   0  0  0  0  0  0  0  0  0  0  0  0
   68.4069   46.5768   55.5715 S   0  0  0  0  0  0  0  0  0  0  0  0
   69.5857   46.5464   56.5553 O   0  0  0  0  0  0  0  0  0  0  0  0
   67.3683   47.4263   56.3001 O   0  0  0  0  0  0  0  0  0  0  0  0
   67.7873   45.6969   52.6805 C   0  0  0  0  0  0  0  0  0  0  0  0
   68.6709   46.8464   52.8957 C   0  0  0  0  0  0  0  0  0  0  0  0
   69.1997   47.4931   51.7667 C   0  0  0  0  0  0  0  0  0  0  0  0
   69.9890   48.5937   51.8382 C   0  0  0  0  0  0  0  0  0  0  0  0
   70.2813   49.0955   53.0862 C   0  0  0  0  0  0  0  0  0  0  0  0
   69.7681   48.4688   54.2000 C   0  0  0  0  0  0  0  0  0  0  0  0
   68.9565   47.3360   54.1386 C   0  0  0  0  0  0  0  0  0  0  0  0
 18 19  1  0
 19 20  2  0
 19 24  1  0
 20 21  1  0
 21 22  2  0
 22 23  1  0
 23 24  2  0
 24 15  1  0
 15 16  2  0
 15 17  2  0
 15 14  1  0
 14  1  1  0
  1  2  1  0
  2  3  2  0
  2  4  1  0
  4  5  2  0
  4 13  1  0
  5  6  1  0
  6  7  2  0
  6 12  1  0
  7  8  1  0
  8  9  1  0
  8 10  2  0
 10 11  1  0
 11 12  2  0
 12 13  1  0
M  END
>  <minimizedAffinity>  (327) 
-8.85475

$$$$
data/200k_reference_output/data/smiles/4946.pdb
     RDKit          3D

 27 29  0  0  0  0  0  0  0  0999 V2000
   71.7396   41.6050   58.2902 C   0  0  0  0  0  0  0  0  0  0  0  0
   73.1227   41.7435   58.2223 C   0  0  0  0  0  0  0  0  0  0  0  0
   73.7103   42.9818   58.1268 C   0  0  0  0  0  0  0  0  0  0  0  0
   75.1848   43.0911   58.0571 C   0  0  0  0  0  0  0  0  0  0  0  0
   72.8873   44.0945   58.0997 C   0  0  0  0  0  0  0  0  0  0  0  0
   73.4906   45.3126   58.0135 F   0  0  0  0  0  0  0  0  0  0  0  0
   71.5137   44.0442   58.1622 C   0  0  0  0  0  0  0  0  0  0  0  0
   70.9854   42.7444   58.2578 C   0  0  0  0  0  0  0  0  0  0  0  0
   71.4541   36.6307   58.7566 C   0  0  0  0  0  0  0  0  0  0  0  0
   71.0825   38.0670   58.5992 C   0  0  0  0  0  0  0  0  0  0  0  0
   69.7990   38.5857   58.4836 C   0  0  0  0  0  0  0  0  0  0  0  0
   69.9227   39.9194   58.3604 N   0  0  0  0  0  0  0  0  0  0  0  0
   71.1681   40.2997   58.3878 N   0  0  0  0  0  0  0  0  0  0  0  0
   71.9116   39.1700   58.5346 C   0  0  0  0  0  0  0  0  0  0  0  0
   70.6067   45.1562   58.1293 C   0  0  0  0  0  0  0  0  0  0  0  0
   69.8101   45.3051   59.1207 O   0  0  0  0  0  0  0  0  0  0  0  0
   70.5255   46.0892   57.0957 N   0  0  0  0  0  0  0  0  0  0  0  0
   69.5959   47.1750   57.1324 N   0  0  0  0  0  0  0  0  0  0  0  0
   68.4151   46.8301   55.9262 S   0  0  0  0  0  0  0  0  0  0  0  0
   68.2455   45.3257   55.8935 O   0  0  0  0  0  0  0  0  0  0  0  0
   67.1270   47.5102   56.2346 O   0  0  0  0  0  0  0  0  0  0  0  0
   68.9298   47.3415   54.3364 C   0  0  0  0  0  0  0  0  0  0  0  0
   69.6274   48.5235   54.1706 C   0  0  0  0  0  0  0  0  0  0  0  0
   70.0408   48.9419   52.9211 C   0  0  0  0  0  0  0  0  0  0  0  0
   69.7406   48.1518   51.8415 C   0  0  0  0  0  0  0  0  0  0  0  0
   69.0470   46.9645   51.9500 C   0  0  0  0  0  0  0  0  0  0  0  0
   68.6542   46.5877   53.2256 C   0  0  0  0  0  0  0  0  0  0  0  0
  9 10  1  0
 10 11  1  0
 10 14  2  0
 11 12  2  0
 12 13  1  0
 13  1  1  0
 13 14  1  0
  1  2  2  0
  1  8  1  0
  2  3  1  0
  3  4  1  0
  3  5  2  0
  5  6  1  0
  5  7  1  0
  7 15  1  0
  7  8  2  0
 15 16  2  0
 15 17  1  0
 17 18  1  0
 18 19  1  0
 19 20  2  0
 19 21  2  0
 19 22  1  0
 22 23  2  0
 22 27  1  0
 23 24  1  0
 24 25  2  0
 25 26  1  0
 26 27  2  0
M  END
>  <minimizedAffinity>  (328) 
-8.85410

$$$$
data/200k_reference_output/data/smiles/57954.pdb
     RDKit          3D

 26 28  0  0  0  0  0  0  0  0999 V2000
   69.2593   47.7681   53.3642 C   0  0  0  0  0  0  0  0  0  0  0  0
   68.7610   46.7944   52.5253 C   0  0  0  0  0  0  0  0  0  0  0  0
   68.1236   45.6784   53.0242 C   0  0  0  0  0  0  0  0  0  0  0  0
   67.9445   45.4640   54.3737 C   0  0  0  0  0  0  0  0  0  0  0  0
   68.4406   46.4357   55.2183 C   0  0  0  0  0  0  0  0  0  0  0  0
   69.0778   47.5517   54.7146 C   0  0  0  0  0  0  0  0  0  0  0  0
   70.0697   49.1974   52.7492 S   0  0  0  0  0  0  0  0  0  0  0  0
   71.5694   49.0508   52.8543 O   0  0  0  0  0  0  0  0  0  0  0  0
   69.7662   49.3899   51.2792 O   0  0  0  0  0  0  0  0  0  0  0  0
   69.5834   50.6391   53.5542 N   0  0  0  0  0  0  0  0  0  0  0  0
   72.1269   52.1839   53.7266 O   0  0  0  0  0  0  0  0  0  0  0  0
   71.2487   52.0409   54.6453 C   0  0  0  0  0  0  0  0  0  0  0  0
   70.3879   50.8354   54.7196 C   0  0  1  0  0  0  0  0  0  0  0  0
   69.5010   51.0188   55.9580 C   0  0  0  0  0  0  0  0  0  0  0  0
   68.8422   52.3773   55.8268 C   0  0  0  0  0  0  0  0  0  0  0  0
   69.8369   53.4745   56.0909 C   0  0  0  0  0  0  0  0  0  0  0  0
   71.1524   53.1032   55.5808 N   0  0  0  0  0  0  0  0  0  0  0  0
   72.2708   53.7779   56.0085 O   0  0  0  0  0  0  0  0  0  0  0  0
   67.2967   44.3280   54.8517 O   0  0  0  0  0  0  0  0  0  0  0  0
   67.8724   43.4295   55.7387 C   0  0  0  0  0  0  0  0  0  0  0  0
   68.9752   43.6928   56.5020 C   0  0  0  0  0  0  0  0  0  0  0  0
   69.5184   42.7614   57.3787 C   0  0  0  0  0  0  0  0  0  0  0  0
   68.9242   41.5154   57.4870 C   0  0  0  0  0  0  0  0  0  0  0  0
   69.5627   40.2913   58.5785 Cl  0  0  0  0  0  0  0  0  0  0  0  0
   67.8124   41.2191   56.7316 C   0  0  0  0  0  0  0  0  0  0  0  0
   67.2947   42.1820   55.8621 C   0  0  0  0  0  0  0  0  0  0  0  0
 11 12  2  0
 12 13  1  0
 12 17  1  0
 13 10  1  6
 13 14  1  0
 10  7  1  0
  7  8  2  0
  7  9  2  0
  7  1  1  0
  1  2  2  0
  1  6  1  0
  2  3  1  0
  3  4  2  0
  4 19  1  0
  4  5  1  0
 19 20  1  0
 20 21  2  0
 20 26  1  0
 21 22  1  0
 22 23  2  0
 23 24  1  0
 23 25  1  0
 25 26  2  0
  5  6  2  0
 14 15  1  0
 15 16  1  0
 16 17  1  0
 17 18  1  0
M  END
>  <minimizedAffinity>  (329) 
-8.85348

$$$$
data/200k_reference_output/data/smiles/45573.pdb
     RDKit          3D

 26 28  0  0  0  0  0  0  0  0999 V2000
   68.7750   44.5588   56.2022 C   0  0  0  0  0  0  0  0  0  0  0  0
   69.8084   44.5551   57.0970 N   0  0  0  0  0  0  0  0  0  0  0  0
   70.1779   43.4563   57.7717 C   0  0  0  0  0  0  0  0  0  0  0  0
   69.5327   42.2552   57.6025 C   0  0  0  0  0  0  0  0  0  0  0  0
   69.9099   41.1097   58.2928 C   0  0  0  0  0  0  0  0  0  0  0  0
   69.2412   39.9247   58.0920 C   0  0  0  0  0  0  0  0  0  0  0  0
   68.1960   39.8885   57.2021 C   0  0  0  0  0  0  0  0  0  0  0  0
   67.8282   41.0238   56.5225 C   0  0  0  0  0  0  0  0  0  0  0  0
   68.4881   42.2141   56.7135 C   0  0  0  0  0  0  0  0  0  0  0  0
   68.1351   43.3701   56.0340 C   0  0  0  0  0  0  0  0  0  0  0  0
   67.0904   43.2915   55.1592 O   0  0  0  0  0  0  0  0  0  0  0  0
   69.6225   38.6876   58.8040 C   0  0  0  0  0  0  0  0  0  0  0  0
   68.8109   38.1772   59.7930 C   0  0  0  0  0  0  0  0  0  0  0  0
   69.1057   37.0400   60.4875 C   0  0  0  0  0  0  0  0  0  0  0  0
   70.2715   36.3878   60.1717 C   0  0  0  0  0  0  0  0  0  0  0  0
   70.5846   35.2415   60.8610 F   0  0  0  0  0  0  0  0  0  0  0  0
   71.1237   36.8424   59.1968 C   0  0  0  0  0  0  0  0  0  0  0  0
   70.7784   37.9996   58.5227 C   0  0  0  0  0  0  0  0  0  0  0  0
   68.7313   46.1509   54.1983 N   0  0  0  0  0  0  0  0  0  0  0  0
   68.4941   45.8158   55.5483 C   0  0  0  0  0  0  0  0  0  0  0  0
   67.9676   46.7833   56.2293 O   0  0  0  0  0  0  0  0  0  0  0  0
   68.4133   47.4514   53.6060 C   0  0  0  0  0  0  0  0  0  0  0  0
   69.6740   48.1526   53.2482 C   0  0  0  0  0  0  0  0  0  0  0  0
   70.0418   47.2059   51.1441 O   0  0  0  0  0  0  0  0  0  0  0  0
   69.9059   48.2665   51.8079 C   0  0  0  0  0  0  0  0  0  0  0  0
   69.9865   49.4609   51.1218 O   0  0  0  0  0  0  0  0  0  0  0  0
 24 25  2  0
 25 26  1  0
 25 23  1  0
 23 22  1  0
 22 19  1  0
 19 20  1  0
 20 21  2  0
 20  1  1  0
  1  2  2  0
  1 10  1  0
  2  3  1  0
  3  4  2  0
  4  5  1  0
  4  9  1  0
  5  6  2  0
  6 12  1  0
  6  7  1  0
 12 13  2  0
 12 18  1  0
 13 14  1  0
 14 15  2  0
 15 16  1  0
 15 17  1  0
 17 18  2  0
  7  8  2  0
  8  9  1  0
  9 10  2  0
 10 11  1  0
M  END
>  <minimizedAffinity>  (330) 
-8.85243

$$$$
data/200k_reference_output/data/smiles/14154.pdb
     RDKit          3D

 27 29  0  0  0  0  0  0  0  0999 V2000
   71.3888   50.2664   55.8555 N   0  0  0  0  0  0  0  0  0  0  0  0
   71.0563   50.3617   54.4911 C   0  0  0  0  0  0  0  0  0  0  0  0
   71.4239   51.4243   53.9004 O   0  0  0  0  0  0  0  0  0  0  0  0
   70.3352   49.3288   53.7542 C   0  0  0  0  0  0  0  0  0  0  0  0
   70.4803   49.2457   52.3865 C   0  0  0  0  0  0  0  0  0  0  0  0
   69.8063   48.2726   51.6510 C   0  0  0  0  0  0  0  0  0  0  0  0
   68.9832   47.3801   52.3031 C   0  0  0  0  0  0  0  0  0  0  0  0
   68.3092   46.4205   51.6409 N   0  0  0  0  0  0  0  0  0  0  0  0
   67.4979   45.5354   52.2578 C   0  0  0  0  0  0  0  0  0  0  0  0
   66.8815   44.6506   51.6108 O   0  0  0  0  0  0  0  0  0  0  0  0
   67.3121   45.5695   53.6312 C   0  0  0  0  0  0  0  0  0  0  0  0
   67.9857   46.5353   54.3298 C   0  0  0  0  0  0  0  0  0  0  0  0
   67.8337   46.6101   55.6976 O   0  0  0  0  0  0  0  0  0  0  0  0
   68.8055   47.4237   53.6789 C   0  0  0  0  0  0  0  0  0  0  0  0
   69.5033   48.4161   54.3555 C   0  0  0  0  0  0  0  0  0  0  0  0
   72.1149   51.3146   56.5815 C   0  0  2  0  0  0  0  0  0  0  0  0
   75.3261   49.1643   56.9643 C   0  0  0  0  0  0  0  0  0  0  0  0
   74.0036   49.6234   56.5663 N   0  0  0  0  0  0  0  0  0  0  0  0
   73.4501   50.8573   56.9859 C   0  0  0  0  0  0  0  0  0  0  0  0
   74.1548   51.5753   57.7409 O   0  0  0  0  0  0  0  0  0  0  0  0
   71.2206   51.7153   57.7159 C   0  0  0  0  0  0  0  0  0  0  0  0
   69.8376   51.2717   57.6190 C   0  0  0  0  0  0  0  0  0  0  0  0
   69.5139   50.0168   58.0898 C   0  0  0  0  0  0  0  0  0  0  0  0
   68.2355   49.5078   58.0445 C   0  0  0  0  0  0  0  0  0  0  0  0
   67.2211   50.2658   57.5106 C   0  0  0  0  0  0  0  0  0  0  0  0
   67.5070   51.5217   57.0321 C   0  0  0  0  0  0  0  0  0  0  0  0
   68.7931   52.0127   57.0867 C   0  0  0  0  0  0  0  0  0  0  0  0
 17 18  1  0
 18 19  1  0
 19 20  2  0
 19 16  1  0
 16 21  1  1
 16  1  1  0
 21 22  1  0
 22 23  2  0
 22 27  1  0
 23 24  1  0
 24 25  2  0
 25 26  1  0
 26 27  2  0
  1  2  1  0
  2  3  2  0
  2  4  1  0
  4  5  2  0
  4 15  1  0
  5  6  1  0
  6  7  2  0
  7  8  1  0
  7 14  1  0
  8  9  1  0
  9 10  2  0
  9 11  1  0
 11 12  2  0
 12 13  1  0
 12 14  1  0
 14 15  2  0
M  END
>  <minimizedAffinity>  (331) 
-8.85103

$$$$
data/reference_output_2/data/smiles/150563.pdb
     RDKit          3D

 28 31  0  0  0  0  0  0  0  0999 V2000
   71.4524   46.5719   58.9213 C   0  0  0  0  0  0  0  0  0  0  0  0
   70.9407   47.7766   58.4259 C   0  0  0  0  0  0  0  0  0  0  0  0
   70.0086   47.7844   57.4183 C   0  0  0  0  0  0  0  0  0  0  0  0
   69.5478   46.5981   56.8629 C   0  0  0  0  0  0  0  0  0  0  0  0
   70.0374   45.4087   57.3357 C   0  0  0  0  0  0  0  0  0  0  0  0
   70.9723   45.4238   58.3463 C   0  0  0  0  0  0  0  0  0  0  0  0
   68.3755   46.6011   55.5835 S   0  0  0  0  0  0  0  0  0  0  0  0
   67.9763   45.1581   55.3318 O   0  0  0  0  0  0  0  0  0  0  0  0
   67.1252   47.3517   55.9795 O   0  0  0  0  0  0  0  0  0  0  0  0
   68.9762   47.3404   54.1332 C   0  0  0  0  0  0  0  0  0  0  0  0
   68.9007   46.6763   52.9374 C   0  0  0  0  0  0  0  0  0  0  0  0
   69.3781   47.2497   51.7570 C   0  0  0  0  0  0  0  0  0  0  0  0
   69.9223   48.5087   51.8683 C   0  0  0  0  0  0  0  0  0  0  0  0
   70.0256   49.2220   53.0360 C   0  0  0  0  0  0  0  0  0  0  0  0
   69.5304   48.5932   54.1785 C   0  0  0  0  0  0  0  0  0  0  0  0
   72.4698   46.6240   59.9971 C   0  0  0  0  0  0  0  0  0  0  0  0
   73.9255   44.3882   60.9864 O   0  0  0  0  0  0  0  0  0  0  0  0
   72.8042   44.6082   61.5145 C   0  0  0  0  0  0  0  0  0  0  0  0
   72.0784   45.7042   61.0386 N   0  0  0  0  0  0  0  0  0  0  0  0
   72.3169   43.7199   62.5866 C   0  0  0  0  0  0  0  0  0  0  0  0
   71.0725   43.1429   62.4628 C   0  0  0  0  0  0  0  0  0  0  0  0
   70.5720   42.3186   63.4133 N   0  0  0  0  0  0  0  0  0  0  0  0
   71.2757   42.0231   64.5304 C   0  0  0  0  0  0  0  0  0  0  0  0
   71.0460   41.2592   65.6166 N   0  0  0  0  0  0  0  0  0  0  0  0
   72.0854   41.3031   66.4566 N   0  0  0  0  0  0  0  0  0  0  0  0
   73.0059   42.1099   65.9086 C   0  0  0  0  0  0  0  0  0  0  0  0
   72.5262   42.5738   64.7044 C   0  0  0  0  0  0  0  0  0  0  0  0
   73.0321   43.4215   63.7191 C   0  0  0  0  0  0  0  0  0  0  0  0
 17 18  2  0
 18 19  1  0
 18 20  1  0
 19 16  1  0
 16  1  1  0
  1  2  2  0
  1  6  1  0
  2  3  1  0
  3  4  2  0
  4  7  1  0
  4  5  1  0
  7  8  2  0
  7  9  2  0
  7 10  1  0
 10 11  2  0
 10 15  1  0
 11 12  1  0
 12 13  2  0
 13 14  1  0
 14 15  2  0
  5  6  2  0
 20 21  2  0
 20 28  1  0
 21 22  1  0
 22 23  2  0
 23 24  1  0
 23 27  1  0
 24 25  1  0
 25 26  2  0
 26 27  1  0
 27 28  2  0
M  END
>  <minimizedAffinity>  (332) 
-8.85086

$$$$
data/200k_reference_output/data/smiles/44221.pdb
     RDKit          3D

 27 30  0  0  0  0  0  0  0  0999 V2000
   69.9402   49.2326   54.2806 C   0  0  0  0  0  0  0  0  0  0  0  0
   71.1994   49.3337   54.1293 O   0  0  0  0  0  0  0  0  0  0  0  0
   69.1816   50.3573   53.9474 N   0  0  0  0  0  0  0  0  0  0  0  0
   69.5048   46.4320   58.0694 N   0  0  0  0  0  0  0  0  0  0  0  0
   69.2235   46.6188   56.6700 C   0  0  0  0  0  0  0  0  0  0  0  0
   69.6558   47.7496   56.1082 N   0  0  0  0  0  0  0  0  0  0  0  0
   69.4213   47.9899   54.7828 C   0  0  0  0  0  0  0  0  0  0  0  0
   68.7431   47.0355   54.0807 C   0  0  0  0  0  0  0  0  0  0  0  0
   68.5025   47.1862   52.7330 C   0  0  0  0  0  0  0  0  0  0  0  0
   67.8395   46.2116   52.0088 C   0  0  0  0  0  0  0  0  0  0  0  0
   67.6135   46.3823   50.6899 F   0  0  0  0  0  0  0  0  0  0  0  0
   67.4024   45.0608   52.6157 C   0  0  0  0  0  0  0  0  0  0  0  0
   66.7428   44.1032   51.8774 F   0  0  0  0  0  0  0  0  0  0  0  0
   67.6308   44.8794   53.9610 C   0  0  0  0  0  0  0  0  0  0  0  0
   68.2899   45.8511   54.6713 C   0  0  0  0  0  0  0  0  0  0  0  0
   68.5546   45.6874   55.9739 N   0  0  0  0  0  0  0  0  0  0  0  0
   69.7718   51.5841   53.4287 C   0  0  0  0  0  0  0  0  0  0  0  0
   70.1976   52.4148   54.5751 C   0  0  0  0  0  0  0  0  0  0  0  0
   69.2574   52.8553   55.4838 C   0  0  0  0  0  0  0  0  0  0  0  0
   69.6180   53.6403   56.5773 C   0  0  0  0  0  0  0  0  0  0  0  0
   70.9419   53.9846   56.7585 C   0  0  0  0  0  0  0  0  0  0  0  0
   71.9067   53.5608   55.8694 C   0  0  0  0  0  0  0  0  0  0  0  0
   73.2225   53.9000   56.0466 C   0  0  0  0  0  0  0  0  0  0  0  0
   74.1532   53.4579   55.1424 C   0  0  0  0  0  0  0  0  0  0  0  0
   73.7265   52.6814   54.0786 C   0  0  0  0  0  0  0  0  0  0  0  0
   72.4311   52.3588   53.9208 N   0  0  0  0  0  0  0  0  0  0  0  0
   71.4990   52.7831   54.7989 C   0  0  0  0  0  0  0  0  0  0  0  0
  4  5  1  0
  5  6  2  0
  5 16  1  0
  6  7  1  0
  7  1  1  0
  7  8  2  0
  1  2  2  0
  1  3  1  0
  3 17  1  0
 17 18  1  0
 18 19  2  0
 18 27  1  0
 19 20  1  0
 20 21  2  0
 21 22  1  0
 22 23  1  0
 22 27  2  0
 23 24  2  0
 24 25  1  0
 25 26  2  0
 26 27  1  0
  8  9  1  0
  8 15  1  0
  9 10  2  0
 10 11  1  0
 10 12  1  0
 12 13  1  0
 12 14  2  0
 14 15  1  0
 15 16  2  0
M  END
>  <minimizedAffinity>  (333) 
-8.84807

$$$$
data/200k_reference_output/data/smiles/23577.pdb
     RDKit          3D

 27 29  0  0  0  0  0  0  0  0999 V2000
   70.4848   46.6703   58.2405 C   0  0  1  0  0  0  0  0  0  0  0  0
   71.4996   47.3309   59.0475 C   0  0  0  0  0  0  0  0  0  0  0  0
   72.4668   48.0128   58.6363 O   0  0  0  0  0  0  0  0  0  0  0  0
   71.4372   47.2170   60.4516 O   0  0  0  0  0  0  0  0  0  0  0  0
   70.1001   45.4148   58.8270 N   0  0  0  0  0  0  0  0  0  0  0  0
   70.3064   41.6106   58.4611 C   0  0  0  0  0  0  0  0  0  0  0  0
   71.5319   41.4715   58.0230 C   0  0  0  0  0  0  0  0  0  0  0  0
   72.3734   42.6576   57.8216 C   0  0  0  0  0  0  0  0  0  0  0  0
   73.5534   42.5380   57.4012 O   0  0  0  0  0  0  0  0  0  0  0  0
   71.8560   43.9771   58.1042 C   0  0  0  0  0  0  0  0  0  0  0  0
   70.5840   44.1254   58.5582 C   0  0  0  0  0  0  0  0  0  0  0  0
   69.7700   42.9491   58.7513 C   0  0  0  0  0  0  0  0  0  0  0  0
   68.5780   42.9427   59.1663 O   0  0  0  0  0  0  0  0  0  0  0  0
   70.2627   39.1475   58.5007 C   0  0  0  0  0  0  0  0  0  0  0  0
   69.4661   40.4124   58.6606 C   0  0  0  0  0  0  0  0  0  0  0  0
   68.3364   40.3963   57.6528 C   0  0  0  0  0  0  0  0  0  0  0  0
   68.8458   40.4072   60.0386 C   0  0  0  0  0  0  0  0  0  0  0  0
   69.3700   47.5128   57.7359 C   0  0  0  0  0  0  0  0  0  0  0  0
   69.0172   47.1225   56.3413 C   0  0  0  0  0  0  0  0  0  0  0  0
   69.3767   47.8677   55.2101 C   0  0  0  0  0  0  0  0  0  0  0  0
   68.8633   47.1916   54.1250 C   0  0  0  0  0  0  0  0  0  0  0  0
   68.8883   47.4271   52.7673 C   0  0  0  0  0  0  0  0  0  0  0  0
   68.2899   46.5871   51.8545 C   0  0  0  0  0  0  0  0  0  0  0  0
   67.6293   45.4559   52.2825 C   0  0  0  0  0  0  0  0  0  0  0  0
   67.6022   45.2164   53.6396 C   0  0  0  0  0  0  0  0  0  0  0  0
   68.2052   46.0609   54.5590 C   0  0  0  0  0  0  0  0  0  0  0  0
   68.3229   46.0601   55.9014 N   0  0  0  0  0  0  0  0  0  0  0  0
 14 15  1  0
 15 16  1  0
 15 17  1  0
 15  6  1  0
  6  7  2  0
  6 12  1  0
  7  8  1  0
  8  9  2  0
  8 10  1  0
 10 11  2  0
 11  5  1  0
 11 12  1  0
  5  1  1  0
  1 18  1  1
  1  2  1  0
 18 19  1  0
 19 20  2  0
 19 27  1  0
 20 21  1  0
 21 22  2  0
 21 26  1  0
 22 23  1  0
 23 24  2  0
 24 25  1  0
 25 26  2  0
 26 27  1  0
  2  3  2  0
  2  4  1  0
 12 13  2  0
M  END
>  <minimizedAffinity>  (334) 
-8.84790

$$$$
data/reference_output_2/data/smiles/100556.pdb
     RDKit          3D

 27 30  0  0  0  0  0  0  0  0999 V2000
   68.8168   47.4798   56.5178 C   0  0  0  0  0  0  0  0  0  0  0  0
   67.6051   47.4979   57.0188 O   0  0  0  0  0  0  0  0  0  0  0  0
   68.9362   48.0941   55.2371 C   0  0  0  0  0  0  0  0  0  0  0  0
   69.3510   49.3835   54.9959 C   0  0  0  0  0  0  0  0  0  0  0  0
   69.5429   49.8657   53.7003 C   0  0  0  0  0  0  0  0  0  0  0  0
   69.3104   49.0324   52.6471 C   0  0  0  0  0  0  0  0  0  0  0  0
   68.8909   47.7334   52.8150 C   0  0  0  0  0  0  0  0  0  0  0  0
   68.7042   47.2676   54.0967 C   0  0  0  0  0  0  0  0  0  0  0  0
   68.2247   45.8707   53.9945 C   0  0  0  0  0  0  0  0  0  0  0  0
   67.7438   45.7354   52.5739 C   0  0  0  0  0  0  0  0  0  0  0  0
   68.6118   46.6775   51.8085 C   0  0  0  0  0  0  0  0  0  0  0  0
   69.9936   51.2836   53.6985 C   0  0  0  0  0  0  0  0  0  0  0  0
   69.5467   51.7954   55.0292 C   0  0  0  0  0  0  0  0  0  0  0  0
   69.6204   50.5257   55.9121 C   0  0  0  0  0  0  0  0  0  0  0  0
   69.9049   45.3748   57.3510 N   0  0  0  0  0  0  0  0  0  0  0  0
   69.7798   46.8313   57.3773 C   0  0  0  0  0  0  0  0  0  0  0  0
   70.5544   47.3675   58.1760 O   0  0  0  0  0  0  0  0  0  0  0  0
   71.0456   44.5809   58.3667 S   0  0  0  0  0  0  0  0  0  0  0  0
   70.8993   45.1039   59.7825 O   0  0  0  0  0  0  0  0  0  0  0  0
   72.4692   44.9064   57.9525 O   0  0  0  0  0  0  0  0  0  0  0  0
   70.1774   38.6080   58.4508 C   0  0  0  0  0  0  0  0  0  0  0  0
   70.3539   40.0756   58.4284 C   0  0  0  0  0  0  0  0  0  0  0  0
   69.2948   40.9396   58.3838 C   0  0  0  0  0  0  0  0  0  0  0  0
   69.5056   42.3072   58.3649 C   0  0  0  0  0  0  0  0  0  0  0  0
   70.7819   42.8578   58.3901 C   0  0  0  0  0  0  0  0  0  0  0  0
   71.8290   41.9541   58.4367 C   0  0  0  0  0  0  0  0  0  0  0  0
   71.6280   40.5888   58.4558 C   0  0  0  0  0  0  0  0  0  0  0  0
 21 22  1  0
 22 23  2  0
 22 27  1  0
 23 24  1  0
 24 25  2  0
 25 18  1  0
 25 26  1  0
 18 19  2  0
 18 20  2  0
 18 15  1  0
 15 16  1  0
 16 17  2  0
 16  1  1  0
  1  2  2  0
  1  3  1  0
  3  4  2  0
  3  8  1  0
  4  5  1  0
  4 14  1  0
  5  6  2  0
  5 12  1  0
  6  7  1  0
  7  8  2  0
  7 11  1  0
  8  9  1  0
  9 10  1  0
 10 11  1  0
 12 13  1  0
 13 14  1  0
 26 27  2  0
M  END
>  <minimizedAffinity>  (335) 
-8.84665

$$$$
data/200k_reference_output/data/smiles/68824.pdb
     RDKit          3D

 28 32  0  0  0  0  0  0  0  0999 V2000
   67.2698   40.9634   55.9763 O   0  0  0  0  0  0  0  0  0  0  0  0
   68.1111   41.6427   56.6275 C   0  0  0  0  0  0  0  0  0  0  0  0
   68.4121   43.0431   56.3798 C   0  0  0  0  0  0  0  0  0  0  0  0
   67.9904   43.9884   55.5178 N   0  0  0  0  0  0  0  0  0  0  0  0
   68.4608   45.2492   55.5154 C   0  0  0  0  0  0  0  0  0  0  0  0
   68.2207   46.3892   54.7759 C   0  0  0  0  0  0  0  0  0  0  0  0
   69.0122   47.4280   55.2216 C   0  0  0  0  0  0  0  0  0  0  0  0
   69.7206   46.8944   56.2305 N   0  0  0  0  0  0  0  0  0  0  0  0
   69.3994   45.6025   56.4108 N   0  0  0  0  0  0  0  0  0  0  0  0
   69.8522   44.6961   57.2905 C   0  0  0  0  0  0  0  0  0  0  0  0
   70.7321   45.0141   58.1348 O   0  0  0  0  0  0  0  0  0  0  0  0
   69.3678   43.3748   57.3027 C   0  0  0  0  0  0  0  0  0  0  0  0
   69.7072   42.2158   58.1613 C   0  0  0  0  0  0  0  0  0  0  0  0
   68.8862   41.1376   57.6980 N   0  0  0  0  0  0  0  0  0  0  0  0
   69.0690   48.8019   54.7135 C   0  0  0  0  0  0  0  0  0  0  0  0
   69.4363   49.2447   53.4662 C   0  0  0  0  0  0  0  0  0  0  0  0
   69.3365   50.6253   53.4421 C   0  0  0  0  0  0  0  0  0  0  0  0
   68.8975   50.9527   54.7262 C   0  0  0  0  0  0  0  0  0  0  0  0
   68.7623   49.8632   55.4101 O   0  0  0  0  0  0  0  0  0  0  0  0
   68.8641   39.7727   58.2407 C   0  0  0  0  0  0  0  0  0  0  0  0
   70.2698   39.2592   58.4485 C   0  0  0  0  0  0  0  0  0  0  0  0
   70.2671   38.0320   59.3482 C   0  0  0  0  0  0  0  0  0  0  0  0
   71.1305   36.9562   58.7973 C   0  0  0  0  0  0  0  0  0  0  0  0
   71.1566   35.6756   59.3070 C   0  0  0  0  0  0  0  0  0  0  0  0
   71.9622   34.6836   58.7869 C   0  0  0  0  0  0  0  0  0  0  0  0
   72.7871   34.9781   57.7043 C   0  0  0  0  0  0  0  0  0  0  0  0
   72.7706   36.2387   57.1915 C   0  0  0  0  0  0  0  0  0  0  0  0
   71.9626   37.2175   57.7191 C   0  0  0  0  0  0  0  0  0  0  0  0
  1  2  2  0
  2  3  1  0
  2 14  1  0
  3  4  1  0
  3 12  2  0
  4  5  1  0
  5  6  2  0
  5  9  1  0
  6  7  1  0
  7 15  1  0
  7  8  2  0
 15 16  2  0
 15 19  1  0
 16 17  1  0
 17 18  2  0
 18 19  1  0
  8  9  1  0
  9 10  1  0
 10 11  2  0
 10 12  1  0
 12 13  1  0
 13 14  1  0
 14 20  1  0
 20 21  1  0
 21 22  1  0
 22 23  1  0
 23 24  2  0
 23 28  1  0
 24 25  1  0
 25 26  2  0
 26 27  1  0
 27 28  2  0
M  END
>  <minimizedAffinity>  (336) 
-8.84456

$$$$
data/200k_reference_output/data/smiles/86070.pdb
     RDKit          3D

 27 30  0  0  0  0  0  0  0  0999 V2000
   71.6331   47.0377   58.9550 C   0  0  0  0  0  0  0  0  0  0  0  0
   71.6561   45.6710   58.7823 C   0  0  0  0  0  0  0  0  0  0  0  0
   70.7919   45.0705   57.8998 C   0  0  0  0  0  0  0  0  0  0  0  0
   69.9007   45.8308   57.1844 C   0  0  0  0  0  0  0  0  0  0  0  0
   69.8286   47.2291   57.3167 C   0  0  0  0  0  0  0  0  0  0  0  0
   70.7081   47.7752   58.2046 C   0  0  0  0  0  0  0  0  0  0  0  0
   72.1724   47.8882   61.0711 O   0  0  0  0  0  0  0  0  0  0  0  0
   72.5124   47.7369   59.8827 C   0  0  0  0  0  0  0  0  0  0  0  0
   73.7329   48.2254   59.4084 N   0  0  0  0  0  0  0  0  0  0  0  0
   74.0507   48.0099   57.9839 C   0  0  0  0  0  0  0  0  0  0  0  0
   74.6223   49.2970   57.4803 C   0  0  0  0  0  0  0  0  0  0  0  0
   76.1201   49.4103   57.6357 C   0  0  0  0  0  0  0  0  0  0  0  0
   76.5442   49.5703   58.9956 N   0  0  0  0  0  0  0  0  0  0  0  0
   76.0578   48.6012   59.9182 C   0  0  0  0  0  0  0  0  0  0  0  0
   74.6188   48.9164   60.3429 C   0  0  0  0  0  0  0  0  0  0  0  0
   68.8382   47.9616   56.4927 C   0  0  0  0  0  0  0  0  0  0  0  0
   69.2543   48.1498   55.0866 C   0  0  0  0  0  0  0  0  0  0  0  0
   70.1973   49.0927   54.8022 N   0  0  0  0  0  0  0  0  0  0  0  0
   70.6510   49.2705   53.5824 N   0  0  0  0  0  0  0  0  0  0  0  0
   70.2440   48.5581   52.5167 C   0  0  0  0  0  0  0  0  0  0  0  0
   70.7111   48.7649   51.3595 O   0  0  0  0  0  0  0  0  0  0  0  0
   69.2797   47.5846   52.7629 C   0  0  0  0  0  0  0  0  0  0  0  0
   68.8292   46.8501   51.6806 C   0  0  0  0  0  0  0  0  0  0  0  0
   67.8602   45.8854   51.8610 C   0  0  0  0  0  0  0  0  0  0  0  0
   67.3879   45.7060   53.1411 C   0  0  0  0  0  0  0  0  0  0  0  0
   67.8355   46.4396   54.2300 C   0  0  0  0  0  0  0  0  0  0  0  0
   68.7987   47.3936   54.0383 C   0  0  0  0  0  0  0  0  0  0  0  0
  7  8  2  0
  8  1  1  0
  8  9  1  0
  1  2  2  0
  1  6  1  0
  2  3  1  0
  3  4  2  0
  4  5  1  0
  5 16  1  0
  5  6  2  0
 16 17  1  0
 17 18  2  0
 17 27  1  0
 18 19  1  0
 19 20  1  0
 20 21  2  0
 20 22  1  0
 22 23  1  0
 22 27  2  0
 23 24  2  0
 24 25  1  0
 25 26  2  0
 26 27  1  0
  9 10  1  0
  9 15  1  0
 10 11  1  0
 11 12  1  0
 12 13  1  0
 13 14  1  0
 14 15  1  0
M  CHG  1  13   1
M  END
>  <minimizedAffinity>  (337) 
-8.84367

$$$$
data/200k_reference_output/data/smiles/25264.pdb
     RDKit          3D

 26 28  0  0  0  0  0  0  0  0999 V2000
   69.8968   44.1181   58.6560 O   0  0  0  0  0  0  0  0  0  0  0  0
   69.3384   43.9266   57.5287 C   0  0  0  0  0  0  0  0  0  0  0  0
   69.2456   45.0338   56.6834 N   0  0  0  0  0  0  0  0  0  0  0  0
   68.8628   42.6011   57.2381 C   0  0  0  0  0  0  0  0  0  0  0  0
   69.3620   41.4924   57.9424 C   0  0  0  0  0  0  0  0  0  0  0  0
   68.9696   40.1990   57.7143 C   0  0  0  0  0  0  0  0  0  0  0  0
   68.0271   39.9905   56.7290 C   0  0  0  0  0  0  0  0  0  0  0  0
   67.5181   41.0585   56.0190 C   0  0  0  0  0  0  0  0  0  0  0  0
   67.9302   42.3778   56.2651 C   0  0  0  0  0  0  0  0  0  0  0  0
   67.3445   43.3273   55.5055 F   0  0  0  0  0  0  0  0  0  0  0  0
   69.5222   39.0698   58.4782 C   0  0  0  0  0  0  0  0  0  0  0  0
   70.8125   38.6254   58.3124 C   0  0  0  0  0  0  0  0  0  0  0  0
   71.2161   37.5544   59.0890 C   0  0  0  0  0  0  0  0  0  0  0  0
   70.3845   36.9617   59.9771 N   0  0  0  0  0  0  0  0  0  0  0  0
   69.1362   37.3859   60.1435 N   0  0  0  0  0  0  0  0  0  0  0  0
   68.7344   38.4129   59.4048 C   0  0  0  0  0  0  0  0  0  0  0  0
   69.7399   46.3195   57.0468 N   0  0  0  0  0  0  0  0  0  0  0  0
   68.7570   47.5146   56.2847 S   0  0  0  0  0  0  0  0  0  0  0  0
   69.3017   48.8834   56.5615 O   0  0  0  0  0  0  0  0  0  0  0  0
   67.3662   47.3908   56.8405 O   0  0  0  0  0  0  0  0  0  0  0  0
   68.6815   47.1836   54.5726 C   0  0  0  0  0  0  0  0  0  0  0  0
   69.3817   47.9349   53.6688 C   0  0  0  0  0  0  0  0  0  0  0  0
   69.3224   47.6764   52.3285 C   0  0  0  0  0  0  0  0  0  0  0  0
   68.5463   46.6369   51.8442 C   0  0  0  0  0  0  0  0  0  0  0  0
   67.8348   45.8716   52.7515 C   0  0  0  0  0  0  0  0  0  0  0  0
   67.9065   46.1467   54.0944 C   0  0  0  0  0  0  0  0  0  0  0  0
  1  2  2  0
  2  3  1  0
  2  4  1  0
  3 17  1  0
 17 18  1  0
 18 19  2  0
 18 20  2  0
 18 21  1  0
 21 22  2  0
 21 26  1  0
 22 23  1  0
 23 24  2  0
 24 25  1  0
 25 26  2  0
  4  5  2  0
  4  9  1  0
  5  6  1  0
  6 11  1  0
  6  7  2  0
 11 12  2  0
 11 16  1  0
 12 13  1  0
 13 14  2  0
 14 15  1  0
 15 16  2  0
  7  8  1  0
  8  9  2  0
  9 10  1  0
M  END
>  <minimizedAffinity>  (338) 
-8.84247

$$$$
data/200k_reference_output/data/smiles/61399.pdb
     RDKit          3D

 29 32  0  0  0  0  0  0  0  0999 V2000
   74.3044   42.5557   61.2792 C   0  0  0  0  0  0  0  0  0  0  0  0
   73.5289   42.7846   60.0793 N   0  0  0  0  0  0  0  0  0  0  0  0
   72.2742   43.4020   60.1407 C   0  0  0  0  0  0  0  0  0  0  0  0
   71.5722   43.3180   61.1616 O   0  0  0  0  0  0  0  0  0  0  0  0
   71.8009   44.1563   58.9666 C   0  0  1  0  0  0  0  0  0  0  0  0
   71.9929   43.1909   57.7709 C   0  0  1  0  0  0  0  0  0  0  0  0
   73.5151   43.1100   57.6228 C   0  0  0  0  0  0  0  0  0  0  0  0
   74.0691   42.3627   58.8142 C   0  0  1  0  0  0  0  0  0  0  0  0
   75.5605   42.4203   58.7612 C   0  0  0  0  0  0  0  0  0  0  0  0
   73.6629   41.0040   58.6542 O   0  0  0  0  0  0  0  0  0  0  0  0
   72.2697   40.8346   58.4876 C   0  0  0  0  0  0  0  0  0  0  0  0
   71.6860   39.6131   58.7459 C   0  0  0  0  0  0  0  0  0  0  0  0
   70.3208   39.3932   58.5999 C   0  0  0  0  0  0  0  0  0  0  0  0
   69.4935   40.4150   58.1826 C   0  0  0  0  0  0  0  0  0  0  0  0
   70.0858   41.6327   57.9257 C   0  0  0  0  0  0  0  0  0  0  0  0
   71.4565   41.8609   58.0708 C   0  0  0  0  0  0  0  0  0  0  0  0
   70.3850   44.5495   59.0080 C   0  0  0  0  0  0  0  0  0  0  0  0
   69.6013   43.8891   59.7762 N   0  0  0  0  0  0  0  0  0  0  0  0
   69.8278   45.6085   58.2496 N   0  0  0  0  0  0  0  0  0  0  0  0
   69.4891   45.5343   56.8981 N   0  0  0  0  0  0  0  0  0  0  0  0
   68.9886   46.6054   56.1204 C   0  0  0  0  0  0  0  0  0  0  0  0
   68.8275   47.7140   56.6873 O   0  0  0  0  0  0  0  0  0  0  0  0
   68.6458   46.5080   54.7063 C   0  0  0  0  0  0  0  0  0  0  0  0
   67.9051   45.4763   54.1788 C   0  0  0  0  0  0  0  0  0  0  0  0
   67.6135   45.4438   52.8141 C   0  0  0  0  0  0  0  0  0  0  0  0
   68.0515   46.4332   51.9592 C   0  0  0  0  0  0  0  0  0  0  0  0
   67.7579   46.3818   50.6442 F   0  0  0  0  0  0  0  0  0  0  0  0
   68.7990   47.4807   52.4719 C   0  0  0  0  0  0  0  0  0  0  0  0
   69.0675   47.4793   53.8213 C   0  0  0  0  0  0  0  0  0  0  0  0
  1  2  1  0
  2  3  1  0
  2  8  1  0
  3  4  2  0
  3  5  1  0
  5 17  1  1
  5  6  1  0
 17 18  2  0
 17 19  1  0
 19 20  1  0
 20 21  1  0
 21 22  2  0
 21 23  1  0
 23 24  2  0
 23 29  1  0
 24 25  1  0
 25 26  2  0
 26 27  1  0
 26 28  1  0
 28 29  2  0
  6  7  1  0
  6 16  1  1
  7  8  1  0
  8  9  1  1
  8 10  1  0
 10 11  1  0
 11 12  2  0
 11 16  1  0
 12 13  1  0
 13 14  2  0
 14 15  1  0
 15 16  2  0
M  CHG  1  18   1
M  END
>  <minimizedAffinity>  (339) 
-8.84170

$$$$
data/200k_reference_output/data/smiles/21983.pdb
     RDKit          3D

 27 30  0  0  0  0  0  0  0  0999 V2000
   71.3051   46.9845   58.8175 C   0  0  0  0  0  0  0  0  0  0  0  0
   71.3062   45.6096   58.9068 C   0  0  0  0  0  0  0  0  0  0  0  0
   70.4938   44.8271   58.0754 C   0  0  0  0  0  0  0  0  0  0  0  0
   69.7107   45.4581   57.1853 N   0  0  0  0  0  0  0  0  0  0  0  0
   69.6638   46.7955   57.0492 C   0  0  0  0  0  0  0  0  0  0  0  0
   70.4760   47.5621   57.8817 C   0  0  0  0  0  0  0  0  0  0  0  0
   70.2156   48.8654   57.5164 C   0  0  0  0  0  0  0  0  0  0  0  0
   69.3015   48.8287   56.5260 N   0  0  0  0  0  0  0  0  0  0  0  0
   68.9546   47.6075   56.2277 N   0  0  0  0  0  0  0  0  0  0  0  0
   73.0146   48.5828   59.2447 O   0  0  0  0  0  0  0  0  0  0  0  0
   72.1598   47.7769   59.6946 C   0  0  0  0  0  0  0  0  0  0  0  0
   72.0830   47.6901   61.0771 O   0  0  0  0  0  0  0  0  0  0  0  0
   70.5083   43.3925   58.1828 C   0  0  0  0  0  0  0  0  0  0  0  0
   70.5409   42.1873   58.2694 C   0  0  0  0  0  0  0  0  0  0  0  0
   70.5689   40.7554   58.3924 C   0  0  0  0  0  0  0  0  0  0  0  0
   69.4292   39.9911   58.4825 C   0  0  0  0  0  0  0  0  0  0  0  0
   69.4640   38.6088   58.6019 C   0  0  0  0  0  0  0  0  0  0  0  0
   70.6710   37.9682   58.6317 C   0  0  0  0  0  0  0  0  0  0  0  0
   71.8486   38.7017   58.5428 C   0  0  0  0  0  0  0  0  0  0  0  0
   71.7829   40.0745   58.4256 C   0  0  0  0  0  0  0  0  0  0  0  0
   68.0092   47.1133   55.2341 C   0  0  0  0  0  0  0  0  0  0  0  0
   68.5653   47.1976   53.8586 C   0  0  0  0  0  0  0  0  0  0  0  0
   68.1268   46.3273   52.8805 C   0  0  0  0  0  0  0  0  0  0  0  0
   68.5968   46.3464   51.5837 C   0  0  0  0  0  0  0  0  0  0  0  0
   69.5267   47.2646   51.2743 N   0  0  0  0  0  0  0  0  0  0  0  0
   69.9891   48.1314   52.1750 C   0  0  0  0  0  0  0  0  0  0  0  0
   69.5233   48.1229   53.4876 C   0  0  0  0  0  0  0  0  0  0  0  0
 10 11  2  0
 11 12  1  0
 11  1  1  0
  1  2  2  0
  1  6  1  0
  2  3  1  0
  3 13  1  0
  3  4  2  0
 13 14  3  0
 14 15  1  0
 15 16  2  0
 15 20  1  0
 16 17  1  0
 17 18  2  0
 18 19  1  0
 19 20  2  0
  4  5  1  0
  5  6  2  0
  5  9  1  0
  6  7  1  0
  7  8  2  0
  8  9  1  0
  9 21  1  0
 21 22  1  0
 22 23  2  0
 22 27  1  0
 23 24  1  0
 24 25  2  0
 25 26  1  0
 26 27  2  0
M  END
>  <minimizedAffinity>  (340) 
-8.84162

$$$$
data/reference_output_2/data/smiles/144856.pdb
     RDKit          3D

 27 30  0  0  0  0  0  0  0  0999 V2000
   70.5035   46.5467   58.2673 C   0  0  0  0  0  0  0  0  0  0  0  0
   70.8811   47.5463   59.1421 N   0  0  0  0  0  0  0  0  0  0  0  0
   70.6819   48.7186   58.6058 N   0  0  0  0  0  0  0  0  0  0  0  0
   70.1693   48.5970   57.3678 C   0  0  0  0  0  0  0  0  0  0  0  0
   69.7761   49.4858   56.3971 C   0  0  0  0  0  0  0  0  0  0  0  0
   69.2586   49.0612   55.1929 C   0  0  0  0  0  0  0  0  0  0  0  0
   69.1327   47.7322   54.9553 C   0  0  0  0  0  0  0  0  0  0  0  0
   69.5428   46.8370   55.9603 C   0  0  0  0  0  0  0  0  0  0  0  0
   70.0587   47.2183   57.1595 C   0  0  0  0  0  0  0  0  0  0  0  0
   68.5793   47.1422   53.7476 C   0  0  0  0  0  0  0  0  0  0  0  0
   67.5598   46.1980   53.8120 C   0  0  0  0  0  0  0  0  0  0  0  0
   67.0573   45.6196   52.7096 N   0  0  0  0  0  0  0  0  0  0  0  0
   67.5021   45.9102   51.4784 C   0  0  0  0  0  0  0  0  0  0  0  0
   68.5067   46.8344   51.3570 C   0  0  0  0  0  0  0  0  0  0  0  0
   69.0504   47.4575   52.5000 C   0  0  0  0  0  0  0  0  0  0  0  0
   70.1080   48.4748   52.2913 C   0  0  0  0  0  0  0  0  0  0  0  0
   70.5686   48.4578   50.9713 O   0  0  0  0  0  0  0  0  0  0  0  0
   70.7449   44.7846   59.8078 O   0  0  0  0  0  0  0  0  0  0  0  0
   70.5760   45.1312   58.5761 C   0  0  0  0  0  0  0  0  0  0  0  0
   70.4888   44.0535   57.6880 N   0  0  0  0  0  0  0  0  0  0  0  0
   70.5699   42.6792   58.1516 C   0  0  0  0  0  0  0  0  0  0  0  0
   69.2261   42.0073   58.0005 C   0  0  0  0  0  0  0  0  0  0  0  0
   69.3785   40.5224   58.1449 C   0  0  0  0  0  0  0  0  0  0  0  0
   68.2316   39.7500   57.5787 C   0  0  0  0  0  0  0  0  0  0  0  0
   67.7371   40.2492   56.3860 O   0  0  0  0  0  0  0  0  0  0  0  0
   67.3404   41.5815   56.5039 C   0  0  0  0  0  0  0  0  0  0  0  0
   68.5698   42.4107   56.6870 C   0  0  0  0  0  0  0  0  0  0  0  0
 18 19  2  0
 19 20  1  0
 19  1  1  0
 20 21  1  0
 21 22  1  0
 22 23  1  0
 22 27  1  0
 23 24  1  0
 24 25  1  0
 25 26  1  0
 26 27  1  0
  1  2  2  0
  1  9  1  0
  2  3  1  0
  3  4  1  0
  4  5  1  0
  4  9  2  0
  5  6  2  0
  6  7  1  0
  7 10  1  0
  7  8  2  0
 10 11  2  0
 10 15  1  0
 11 12  1  0
 12 13  2  0
 13 14  1  0
 14 15  2  0
 15 16  1  0
 16 17  1  0
  8  9  1  0
M  END
>  <minimizedAffinity>  (341) 
-8.84116

$$$$
data/200k_reference_output/data/smiles/64514.pdb
     RDKit          3D

 26 28  0  0  0  0  0  0  0  0999 V2000
   67.7944   45.4478   52.8309 C   0  0  0  0  0  0  0  0  0  0  0  0
   68.5648   46.7176   52.8655 C   0  0  0  0  0  0  0  0  0  0  0  0
   69.4043   47.0786   51.8407 C   0  0  0  0  0  0  0  0  0  0  0  0
   70.1170   48.2590   51.8794 C   0  0  0  0  0  0  0  0  0  0  0  0
   69.9754   49.0866   52.9759 C   0  0  0  0  0  0  0  0  0  0  0  0
   69.1265   48.7398   54.0333 C   0  0  0  0  0  0  0  0  0  0  0  0
   68.4302   47.5645   53.9712 C   0  0  0  0  0  0  0  0  0  0  0  0
   69.0375   49.6319   55.1286 N   0  0  0  0  0  0  0  0  0  0  0  0
   68.9756   49.1287   56.4237 C   0  0  0  0  0  0  0  0  0  0  0  0
   68.8385   50.0179   57.3456 O   0  0  0  0  0  0  0  0  0  0  0  0
   69.0393   51.0501   54.8014 C   0  0  0  0  0  0  0  0  0  0  0  0
   70.0182   51.3848   53.7178 C   0  0  0  0  0  0  0  0  0  0  0  0
   70.6394   50.2788   53.1082 O   0  0  0  0  0  0  0  0  0  0  0  0
   69.0421   47.7454   56.9059 C   0  0  0  0  0  0  0  0  0  0  0  0
   70.3128   47.5122   57.7293 C   0  0  0  0  0  0  0  0  0  0  0  0
   70.4113   46.1155   58.2109 C   0  0  0  0  0  0  0  0  0  0  0  0
   70.8058   45.9605   59.3878 O   0  0  0  0  0  0  0  0  0  0  0  0
   70.0909   44.9947   57.4285 N   0  0  0  0  0  0  0  0  0  0  0  0
   70.2049   43.6845   57.9313 C   0  0  0  0  0  0  0  0  0  0  0  0
   69.2682   42.6755   57.4272 C   0  0  0  0  0  0  0  0  0  0  0  0
   69.2993   41.3522   57.8307 C   0  0  0  0  0  0  0  0  0  0  0  0
   68.3987   40.4685   57.2962 C   0  0  0  0  0  0  0  0  0  0  0  0
   67.4559   40.8491   56.3665 C   0  0  0  0  0  0  0  0  0  0  0  0
   67.4026   42.1594   55.9459 C   0  0  0  0  0  0  0  0  0  0  0  0
   66.4923   42.5875   55.0299 F   0  0  0  0  0  0  0  0  0  0  0  0
   68.3250   43.0487   56.4982 C   0  0  0  0  0  0  0  0  0  0  0  0
  1  2  1  0
  2  3  2  0
  2  7  1  0
  3  4  1  0
  4  5  2  0
  5  6  1  0
  5 13  1  0
  6  7  2  0
  6  8  1  0
  8  9  1  0
  8 11  1  0
  9 10  2  0
  9 14  1  0
 14 15  1  0
 15 16  1  0
 16 17  2  0
 16 18  1  0
 18 19  1  0
 19 20  1  0
 20 21  2  0
 20 26  1  0
 21 22  1  0
 22 23  2  0
 23 24  1  0
 24 25  1  0
 24 26  2  0
 11 12  1  0
 12 13  1  0
M  END
>  <minimizedAffinity>  (342) 
-8.83824

$$$$
data/reference_output_2/data/smiles/121004.pdb
     RDKit          3D

 26 28  0  0  0  0  0  0  0  0999 V2000
   73.7918   35.1460   56.1330 N   0  0  0  0  0  0  0  0  0  0  0  0
   73.3369   34.8961   54.8934 C   0  0  0  0  0  0  0  0  0  0  0  0
   74.2188   34.5779   53.8513 C   0  0  0  0  0  0  0  0  0  0  0  0
   75.5422   34.5142   54.0576 N   0  0  0  0  0  0  0  0  0  0  0  0
   76.0042   34.7678   55.3115 C   0  0  0  0  0  0  0  0  0  0  0  0
   77.2490   34.7072   55.5007 O   0  0  0  0  0  0  0  0  0  0  0  0
   75.1222   35.0777   56.3201 C   0  0  0  0  0  0  0  0  0  0  0  0
   75.5328   35.3148   57.4868 O   0  0  0  0  0  0  0  0  0  0  0  0
   70.2106   36.6163   60.2887 C   0  0  0  0  0  0  0  0  0  0  0  0
   71.1401   36.2291   59.2103 C   0  0  0  0  0  0  0  0  0  0  0  0
   71.5520   34.9014   59.1119 C   0  0  0  0  0  0  0  0  0  0  0  0
   72.4247   34.5381   58.1029 C   0  0  0  0  0  0  0  0  0  0  0  0
   72.8940   35.4645   57.1941 C   0  0  0  0  0  0  0  0  0  0  0  0
   72.4480   36.7837   57.3402 C   0  0  0  0  0  0  0  0  0  0  0  0
   71.5880   37.1831   58.3209 C   0  0  0  0  0  0  0  0  0  0  0  0
   71.1071   38.5751   58.4855 C   0  0  0  0  0  0  0  0  0  0  0  0
   76.4313   34.1796   52.9743 C   0  0  0  0  0  0  0  0  0  0  0  0
   76.7115   35.2652   52.0359 C   0  0  0  0  0  0  0  0  0  0  0  0
   76.8088   36.4310   52.5530 O   0  0  0  0  0  0  0  0  0  0  0  0
   76.8899   35.1627   50.6033 C   0  0  0  0  0  0  0  0  0  0  0  0
   77.8300   35.9141   49.9622 C   0  0  0  0  0  0  0  0  0  0  0  0
   78.0132   35.8279   48.6165 C   0  0  0  0  0  0  0  0  0  0  0  0
   77.2257   34.9565   47.8824 C   0  0  0  0  0  0  0  0  0  0  0  0
   77.4418   34.9037   46.5443 F   0  0  0  0  0  0  0  0  0  0  0  0
   76.2688   34.1901   48.5228 C   0  0  0  0  0  0  0  0  0  0  0  0
   76.1032   34.2951   49.8857 C   0  0  0  0  0  0  0  0  0  0  0  0
  9 10  1  0
 10 11  2  0
 10 15  1  0
 11 12  1  0
 12 13  2  0
 13  1  1  0
 13 14  1  0
  1  2  1  0
  1  7  1  0
  2  3  2  0
  3  4  1  0
  4 17  1  0
  4  5  1  0
 17 18  1  0
 18 19  2  0
 18 20  1  0
 20 21  2  0
 20 26  1  0
 21 22  1  0
 22 23  2  0
 23 24  1  0
 23 25  1  0
 25 26  2  0
  5  6  2  0
  5  7  1  0
  7  8  2  0
 14 15  2  0
 15 16  1  0
M  END
>  <minimizedAffinity>  (343) 
-8.83824

$$$$
data/reference_output_2/data/smiles/167926.pdb
     RDKit          3D

 25 27  0  0  0  0  0  0  0  0999 V2000
   70.4297   44.2357   57.7293 C   0  0  0  0  0  0  0  0  0  0  0  0
   69.5641   44.9684   56.8783 C   0  0  0  0  0  0  0  0  0  0  0  0
   69.6236   46.2618   57.1482 N   0  0  0  0  0  0  0  0  0  0  0  0
   70.4829   46.4849   58.1426 C   0  0  0  0  0  0  0  0  0  0  0  0
   70.9039   47.6253   58.7891 C   0  0  0  0  0  0  0  0  0  0  0  0
   71.8265   47.6011   59.8093 C   0  0  0  0  0  0  0  0  0  0  0  0
   72.3210   46.3764   60.1656 C   0  0  0  0  0  0  0  0  0  0  0  0
   71.9030   45.2120   59.5203 C   0  0  0  0  0  0  0  0  0  0  0  0
   70.9848   45.2313   58.5056 C   0  0  0  0  0  0  0  0  0  0  0  0
   71.9914   42.2720   57.6722 C   0  0  0  0  0  0  0  0  0  0  0  0
   70.5593   42.8168   57.6244 C   0  0  0  0  0  0  0  0  0  0  0  0
   69.6437   42.0142   57.5226 N   0  0  0  0  0  0  0  0  0  0  0  0
   68.3503   41.9215   57.4422 N   0  0  0  0  0  0  0  0  0  0  0  0
   67.6164   41.6519   56.2146 C   0  0  0  0  0  0  0  0  0  0  0  0
   67.6798   40.4707   55.6884 N   0  0  0  0  0  0  0  0  0  0  0  0
   66.8706   42.7290   55.6764 N   0  0  0  0  0  0  0  0  0  0  0  0
   68.7032   47.4326   56.2846 S   0  0  0  0  0  0  0  0  0  0  0  0
   67.2979   47.5671   56.8477 O   0  0  0  0  0  0  0  0  0  0  0  0
   69.3245   48.7985   56.4316 O   0  0  0  0  0  0  0  0  0  0  0  0
   68.6059   47.0693   54.5781 C   0  0  0  0  0  0  0  0  0  0  0  0
   69.2702   47.8090   53.6230 C   0  0  0  0  0  0  0  0  0  0  0  0
   69.1860   47.4839   52.2654 C   0  0  0  0  0  0  0  0  0  0  0  0
   68.4312   46.4094   51.8458 C   0  0  0  0  0  0  0  0  0  0  0  0
   67.7676   45.6705   52.7934 C   0  0  0  0  0  0  0  0  0  0  0  0
   67.8571   46.0017   54.1502 C   0  0  0  0  0  0  0  0  0  0  0  0
 10 11  1  0
 11 12  2  0
 11  1  1  0
 12 13  1  0
 13 14  1  0
 14 15  2  0
 14 16  1  0
  1  2  2  0
  1  9  1  0
  2  3  1  0
  3 17  1  0
  3  4  1  0
 17 18  2  0
 17 19  2  0
 17 20  1  0
 20 21  2  0
 20 25  1  0
 21 22  1  0
 22 23  2  0
 23 24  1  0
 24 25  2  0
  4  5  1  0
  4  9  2  0
  5  6  2  0
  6  7  1  0
  7  8  2  0
  8  9  1  0
M  CHG  1  15   1
M  END
>  <minimizedAffinity>  (344) 
-8.83479

$$$$
data/200k_reference_output/data/smiles/11625.pdb
     RDKit          3D

 23 25  0  0  0  0  0  0  0  0999 V2000
   68.3055   44.5336   55.8601 N   0  0  0  0  0  0  0  0  0  0  0  0
   67.9117   44.9828   54.7236 C   0  0  0  0  0  0  0  0  0  0  0  0
   68.4287   46.2006   54.1062 C   0  0  0  0  0  0  0  0  0  0  0  0
   68.4372   47.3815   54.8171 C   0  0  0  0  0  0  0  0  0  0  0  0
   68.9272   48.5647   54.2515 C   0  0  0  0  0  0  0  0  0  0  0  0
   69.4134   48.5646   52.9597 C   0  0  0  0  0  0  0  0  0  0  0  0
   69.4113   47.3964   52.2400 C   0  0  0  0  0  0  0  0  0  0  0  0
   68.9189   46.2274   52.8223 C   0  0  0  0  0  0  0  0  0  0  0  0
   69.9340   47.6964   51.0380 N   0  0  0  0  0  0  0  0  0  0  0  0
   70.2326   48.9558   51.0275 O   0  0  0  0  0  0  0  0  0  0  0  0
   69.9317   49.5112   52.1717 N   0  0  0  0  0  0  0  0  0  0  0  0
   70.1329   50.8416   52.4636 O   0  0  0  0  0  0  0  0  0  0  0  0
   69.7669   42.8673   57.4867 O   0  0  0  0  0  0  0  0  0  0  0  0
   68.5712   42.5196   57.2706 C   0  0  0  0  0  0  0  0  0  0  0  0
   67.7932   43.3566   56.4371 N   0  0  0  0  0  0  0  0  0  0  0  0
   68.0962   41.2930   57.8950 C   0  0  0  0  0  0  0  0  0  0  0  0
   68.5101   40.0443   57.4684 C   0  0  0  0  0  0  0  0  0  0  0  0
   68.0800   38.8660   58.0366 C   0  0  0  0  0  0  0  0  0  0  0  0
   67.1882   38.8984   59.0886 C   0  0  0  0  0  0  0  0  0  0  0  0
   66.5935   37.4512   59.8648 Cl  0  0  0  0  0  0  0  0  0  0  0  0
   66.7635   40.1276   59.5280 C   0  0  0  0  0  0  0  0  0  0  0  0
   65.6271   40.1799   60.8681 Cl  0  0  0  0  0  0  0  0  0  0  0  0
   67.2059   41.3222   58.9446 C   0  0  0  0  0  0  0  0  0  0  0  0
 13 14  2  0
 14 15  1  0
 14 16  1  0
 15  1  1  0
  1  2  2  0
  2  3  1  0
  3  4  1  0
  3  8  2  0
  4  5  2  0
  5  6  1  0
  6  7  1  0
  6 11  2  0
  7  8  1  0
  7  9  2  0
  9 10  1  0
 10 11  1  0
 11 12  1  0
 16 17  2  0
 16 23  1  0
 17 18  1  0
 18 19  2  0
 19 20  1  0
 19 21  1  0
 21 22  1  0
 21 23  2  0
M  CHG  2  11   1  12  -1
M  END
>  <minimizedAffinity>  (345) 
-8.83346

$$$$
data/reference_output_2/data/smiles/160490.pdb
     RDKit          3D

 26 28  0  0  0  0  0  0  0  0999 V2000
   73.8416   35.1934   56.2097 N   0  0  0  0  0  0  0  0  0  0  0  0
   73.3893   34.9275   54.9735 C   0  0  0  0  0  0  0  0  0  0  0  0
   74.2394   34.5940   53.9241 C   0  0  0  0  0  0  0  0  0  0  0  0
   75.5645   34.5200   54.1031 N   0  0  0  0  0  0  0  0  0  0  0  0
   76.0346   34.7880   55.3559 C   0  0  0  0  0  0  0  0  0  0  0  0
   77.2910   34.7255   55.5498 O   0  0  0  0  0  0  0  0  0  0  0  0
   75.1736   35.1171   56.3795 C   0  0  0  0  0  0  0  0  0  0  0  0
   75.6241   35.3654   57.5436 O   0  0  0  0  0  0  0  0  0  0  0  0
   71.1440   33.8768   60.1592 C   0  0  0  0  0  0  0  0  0  0  0  0
   71.6109   34.8831   59.1692 C   0  0  0  0  0  0  0  0  0  0  0  0
   71.1249   36.1850   59.2740 C   0  0  0  0  0  0  0  0  0  0  0  0
   71.5299   37.1394   58.3816 C   0  0  0  0  0  0  0  0  0  0  0  0
   71.0153   38.5297   58.4889 C   0  0  0  0  0  0  0  0  0  0  0  0
   72.4306   36.8094   57.3668 C   0  0  0  0  0  0  0  0  0  0  0  0
   72.9261   35.5283   57.2423 C   0  0  0  0  0  0  0  0  0  0  0  0
   72.4905   34.5993   58.1626 C   0  0  0  0  0  0  0  0  0  0  0  0
   76.4736   34.1768   53.0276 C   0  0  0  0  0  0  0  0  0  0  0  0
   76.7042   35.2915   52.0746 C   0  0  0  0  0  0  0  0  0  0  0  0
   76.7747   36.4549   52.5574 O   0  0  0  0  0  0  0  0  0  0  0  0
   76.8535   35.1408   50.6400 C   0  0  0  0  0  0  0  0  0  0  0  0
   77.8147   35.8884   49.9980 C   0  0  0  0  0  0  0  0  0  0  0  0
   78.0171   35.8087   48.6366 C   0  0  0  0  0  0  0  0  0  0  0  0
   77.2477   34.9655   47.8750 C   0  0  0  0  0  0  0  0  0  0  0  0
   77.4202   34.8608   46.5221 F   0  0  0  0  0  0  0  0  0  0  0  0
   76.2897   34.2229   48.5294 C   0  0  0  0  0  0  0  0  0  0  0  0
   76.0786   34.2928   49.8854 C   0  0  0  0  0  0  0  0  0  0  0  0
  9 10  1  0
 10 11  2  0
 10 16  1  0
 11 12  1  0
 12 13  1  0
 12 14  2  0
 14 15  1  0
 15  1  1  0
 15 16  2  0
  1  2  1  0
  1  7  1  0
  2  3  2  0
  3  4  1  0
  4 17  1  0
  4  5  1  0
 17 18  1  0
 18 19  2  0
 18 20  1  0
 20 21  2  0
 20 26  1  0
 21 22  1  0
 22 23  2  0
 23 24  1  0
 23 25  1  0
 25 26  2  0
  5  6  2  0
  5  7  1  0
  7  8  2  0
M  END
>  <minimizedAffinity>  (346) 
-8.83341

$$$$
data/200k_reference_output/data/smiles/77385.pdb
     RDKit          3D

 27 30  0  0  0  0  0  0  0  0999 V2000
   68.6826   50.1360   57.6196 C   0  0  2  0  0  0  0  0  0  0  0  0
   68.4485   48.9577   56.7533 C   0  0  0  0  0  0  0  0  0  0  0  0
   68.9295   48.9626   55.5313 C   0  0  0  0  0  0  0  0  0  0  0  0
   68.7094   47.8001   54.6515 C   0  0  0  0  0  0  0  0  0  0  0  0
   68.1025   46.6420   55.0679 C   0  0  0  0  0  0  0  0  0  0  0  0
   67.9792   45.6328   54.1095 C   0  0  0  0  0  0  0  0  0  0  0  0
   68.4395   45.7843   52.8197 C   0  0  0  0  0  0  0  0  0  0  0  0
   69.0556   46.9577   52.3956 C   0  0  0  0  0  0  0  0  0  0  0  0
   69.6015   47.4281   51.2582 N   0  0  0  0  0  0  0  0  0  0  0  0
   70.0570   48.6773   51.4600 C   0  0  0  0  0  0  0  0  0  0  0  0
   69.7768   49.0065   52.8082 C   0  0  0  0  0  0  0  0  0  0  0  0
   69.1590   47.9286   53.3645 C   0  0  0  0  0  0  0  0  0  0  0  0
   70.0168   50.2027   53.6173 C   0  0  0  0  0  0  0  0  0  0  0  0
   69.6830   50.1430   55.0613 C   0  0  1  0  0  0  0  0  0  0  0  0
   68.8847   51.3011   55.4444 N   0  0  2  0  0  0  0  0  0  0  0  0
   69.5034   52.5320   54.9504 C   0  0  0  0  0  0  0  0  0  0  0  0
   68.5696   51.3820   56.8270 C   0  0  0  0  0  0  0  0  0  0  0  0
   70.6968   48.8452   58.4764 N   0  0  0  0  0  0  0  0  0  0  0  0
   69.9577   50.0320   58.3976 C   0  0  0  0  0  0  0  0  0  0  0  0
   70.3246   51.0640   58.9724 O   0  0  0  0  0  0  0  0  0  0  0  0
   71.9101   48.6445   59.1700 C   0  0  0  0  0  0  0  0  0  0  0  0
   72.4393   47.2819   59.3704 C   0  0  1  0  0  0  0  0  0  0  0  0
   71.3438   46.3245   58.7688 C   0  0  0  0  0  0  0  0  0  0  0  0
   74.0061   45.5606   58.3665 C   0  0  0  0  0  0  0  0  0  0  0  0
   73.6543   47.0013   58.5058 C   0  0  0  0  0  0  0  0  0  0  0  0
   72.6442   46.7738   60.7463 C   0  0  0  0  0  0  0  0  0  0  0  0
   72.5984   47.8021   61.7000 O   0  0  0  0  0  0  0  0  0  0  0  0
 24 25  1  0
 22 25  1  0
 22 23  1  6
 22 26  1  0
 22 21  1  0
 26 27  1  0
 21 18  1  0
 18 19  1  0
 19 20  2  0
  1 19  1  6
  1  2  1  0
  1 17  1  0
  2  3  2  0
  3  4  1  0
  3 14  1  0
  4  5  2  0
  4 12  1  0
  5  6  1  0
  6  7  2  0
  7  8  1  0
  8  9  1  0
  8 12  2  0
  9 10  1  0
 10 11  2  0
 11 12  1  0
 11 13  1  0
 14 13  1  6
 14 15  1  0
 15 16  1  1
 15 17  1  0
M  CHG  1  15   1
M  END
>  <minimizedAffinity>  (347) 
-8.83100

$$$$
data/200k_reference_output/data/smiles/71485.pdb
     RDKit          3D

 26 29  0  0  0  0  0  0  0  0999 V2000
   72.4838   46.0565   58.1975 O   0  0  0  0  0  0  0  0  0  0  0  0
   71.3985   45.4008   58.9840 S   0  0  0  0  0  0  0  0  0  0  0  0
   71.5988   45.7330   60.4351 O   0  0  0  0  0  0  0  0  0  0  0  0
   71.4817   43.6516   58.8250 C   0  0  0  0  0  0  0  0  0  0  0  0
   70.4915   42.9547   58.1641 C   0  0  0  0  0  0  0  0  0  0  0  0
   70.5366   41.5832   58.0271 C   0  0  0  0  0  0  0  0  0  0  0  0
   71.5972   40.8418   58.5583 C   0  0  0  0  0  0  0  0  0  0  0  0
   72.5806   41.5272   59.2129 C   0  0  0  0  0  0  0  0  0  0  0  0
   72.5270   42.9304   59.3490 C   0  0  0  0  0  0  0  0  0  0  0  0
   73.5824   40.5520   59.6821 C   0  0  0  0  0  0  0  0  0  0  0  0
   73.0926   39.2378   59.2399 C   0  0  0  0  0  0  0  0  0  0  0  0
   73.6192   37.9391   59.3927 C   0  0  0  0  0  0  0  0  0  0  0  0
   72.9593   36.8477   58.8778 C   0  0  0  0  0  0  0  0  0  0  0  0
   71.7653   37.0490   58.2057 C   0  0  0  0  0  0  0  0  0  0  0  0
   71.2439   38.3167   58.0522 C   0  0  0  0  0  0  0  0  0  0  0  0
   71.9139   39.4263   58.5745 C   0  0  0  0  0  0  0  0  0  0  0  0
   69.8375   45.9171   58.5033 N   0  0  0  0  0  0  0  0  0  0  0  0
   69.4621   45.8118   57.1744 N   0  0  0  0  0  0  0  0  0  0  0  0
   69.1841   46.7747   56.3945 C   0  0  0  0  0  0  0  0  0  0  0  0
   68.7949   46.6039   55.0034 C   0  0  0  0  0  0  0  0  0  0  0  0
   69.0437   47.5714   54.0557 C   0  0  0  0  0  0  0  0  0  0  0  0
   68.6722   47.4094   52.7271 C   0  0  0  0  0  0  0  0  0  0  0  0
   68.0371   46.2489   52.3424 C   0  0  0  0  0  0  0  0  0  0  0  0
   67.8005   45.2972   53.3098 C   0  0  0  0  0  0  0  0  0  0  0  0
   68.1762   45.4836   54.6055 N   0  0  0  0  0  0  0  0  0  0  0  0
   67.8951   44.4711   55.4996 O   0  0  0  0  0  0  0  0  0  0  0  0
  1  2  2  0
  2  3  2  0
  2 17  1  0
  2  4  1  0
 17 18  1  0
 18 19  2  0
 19 20  1  0
 20 21  2  0
 20 25  1  0
 21 22  1  0
 22 23  2  0
 23 24  1  0
 24 25  2  0
 25 26  1  0
  4  5  2  0
  4  9  1  0
  5  6  1  0
  6  7  2  0
  7  8  1  0
  7 16  1  0
  8  9  2  0
  8 10  1  0
 10 11  1  0
 11 12  1  0
 11 16  2  0
 12 13  2  0
 13 14  1  0
 14 15  2  0
 15 16  1  0
M  CHG  2  25   1  26  -1
M  END
>  <minimizedAffinity>  (348) 
-8.83065

$$$$
data/200k_reference_output/data/smiles/57361.pdb
     RDKit          3D

 27 30  0  0  0  0  0  0  0  0999 V2000
   68.5021   41.5186   57.9474 C   0  0  2  0  0  0  0  0  0  0  0  0
   67.8556   41.9782   59.1535 N   0  0  0  0  0  0  0  0  0  0  0  0
   66.5847   42.2187   59.3004 N   0  0  0  0  0  0  0  0  0  0  0  0
   66.3327   42.6290   60.5458 N   0  0  0  0  0  0  0  0  0  0  0  0
   67.4866   42.6451   61.1941 C   0  0  0  0  0  0  0  0  0  0  0  0
   67.8063   42.9821   62.4875 C   0  0  0  0  0  0  0  0  0  0  0  0
   69.1164   42.9049   62.9082 C   0  0  0  0  0  0  0  0  0  0  0  0
   70.0682   42.4897   62.0067 C   0  0  0  0  0  0  0  0  0  0  0  0
   69.7515   42.1522   60.7132 C   0  0  0  0  0  0  0  0  0  0  0  0
   68.4462   42.2335   60.3141 C   0  0  0  0  0  0  0  0  0  0  0  0
   67.3624   41.8312   56.5676 P   0  0  0  0  0  0  0  0  0  0  0  0
   65.9321   41.8106   57.0087 O   0  0  0  0  0  0  0  0  0  0  0  0
   67.5741   40.6172   55.4080 O   0  0  0  0  0  0  0  0  0  0  0  0
   67.7330   43.3135   55.8165 O   0  0  0  0  0  0  0  0  0  0  0  0
   67.9925   39.1704   57.8495 O   0  0  0  0  0  0  0  0  0  0  0  0
   68.8323   40.0602   58.0549 C   0  0  0  0  0  0  0  0  0  0  0  0
   70.1535   39.6944   58.4033 N   0  0  0  0  0  0  0  0  0  0  0  0
   70.6347   38.3757   58.5474 C   0  0  0  0  0  0  0  0  0  0  0  0
   70.1500   37.6310   59.6343 C   0  0  0  0  0  0  0  0  0  0  0  0
   70.5377   36.3347   59.8895 C   0  0  0  0  0  0  0  0  0  0  0  0
   71.4393   35.6978   59.0679 C   0  0  0  0  0  0  0  0  0  0  0  0
   71.8444   34.3867   59.3097 C   0  0  0  0  0  0  0  0  0  0  0  0
   72.7566   33.7750   58.4606 C   0  0  0  0  0  0  0  0  0  0  0  0
   73.2501   34.4809   57.3842 C   0  0  0  0  0  0  0  0  0  0  0  0
   72.8313   35.7875   57.1645 C   0  0  0  0  0  0  0  0  0  0  0  0
   71.9270   36.4101   57.9970 C   0  0  0  0  0  0  0  0  0  0  0  0
   71.5151   37.7284   57.7612 C   0  0  0  0  0  0  0  0  0  0  0  0
 15 16  2  0
 16 17  1  0
 16  1  1  0
 17 18  1  0
 18 19  2  0
 18 27  1  0
 19 20  1  0
 20 21  2  0
 21 22  1  0
 21 26  1  0
 22 23  2  0
 23 24  1  0
 24 25  2  0
 25 26  1  0
 26 27  2  0
  1  2  1  1
  1 11  1  0
  2  3  1  0
  2 10  1  0
  3  4  2  0
  4  5  1  0
  5  6  1  0
  5 10  2  0
  6  7  2  0
  7  8  1  0
  8  9  2  0
  9 10  1  0
 11 12  2  0
 11 13  1  0
 11 14  1  0
M  END
>  <minimizedAffinity>  (349) 
-8.82925

$$$$
data/reference_output_2/data/smiles/89504.pdb
     RDKit          3D

 27 30  0  0  0  0  0  0  0  0999 V2000
   69.8325   47.9056   57.5065 C   0  0  0  0  0  0  0  0  0  0  0  0
   70.3853   48.9047   58.2947 C   0  0  0  0  0  0  0  0  0  0  0  0
   71.3770   48.6429   59.1952 C   0  0  0  0  0  0  0  0  0  0  0  0
   71.8485   47.3475   59.3317 C   0  0  0  0  0  0  0  0  0  0  0  0
   72.8256   47.0753   60.2168 F   0  0  0  0  0  0  0  0  0  0  0  0
   71.3230   46.3233   58.5641 C   0  0  0  0  0  0  0  0  0  0  0  0
   70.3206   46.6399   57.6662 C   0  0  0  0  0  0  0  0  0  0  0  0
   71.8152   44.9989   58.7055 N   0  0  0  0  0  0  0  0  0  0  0  0
   73.1294   44.6514   58.2420 C   0  0  0  0  0  0  0  0  0  0  0  0
   73.3423   43.1565   58.1802 C   0  0  0  0  0  0  0  0  0  0  0  0
   72.2313   42.4339   57.4581 C   0  0  0  0  0  0  0  0  0  0  0  0
   70.9379   42.3885   58.2103 C   0  0  0  0  0  0  0  0  0  0  0  0
   70.8925   43.7128   59.4302 S   0  0  0  0  0  0  0  0  0  0  0  0
   71.5140   43.2750   60.7202 O   0  0  0  0  0  0  0  0  0  0  0  0
   69.4966   44.2314   59.6069 O   0  0  0  0  0  0  0  0  0  0  0  0
   68.7347   48.2469   56.5425 C   0  0  0  0  0  0  0  0  0  0  0  0
   70.9181   48.8632   51.6337 O   0  0  0  0  0  0  0  0  0  0  0  0
   70.3954   48.6898   52.7681 C   0  0  0  0  0  0  0  0  0  0  0  0
   70.8093   49.4680   53.7716 N   0  0  0  0  0  0  0  0  0  0  0  0
   70.2790   49.3021   54.9529 N   0  0  0  0  0  0  0  0  0  0  0  0
   69.3155   48.3597   55.1888 C   0  0  0  0  0  0  0  0  0  0  0  0
   68.8631   47.5406   54.1865 C   0  0  0  0  0  0  0  0  0  0  0  0
   69.4129   47.7010   52.9293 C   0  0  0  0  0  0  0  0  0  0  0  0
   69.0384   46.9012   51.7385 C   0  0  0  0  0  0  0  0  0  0  0  0
   67.7389   46.2012   52.0035 C   0  0  0  0  0  0  0  0  0  0  0  0
   67.9000   45.4526   53.3323 C   0  0  0  0  0  0  0  0  0  0  0  0
   67.8429   46.5027   54.4450 C   0  0  0  0  0  0  0  0  0  0  0  0
 17 18  2  0
 18 19  1  0
 18 23  1  0
 19 20  1  0
 20 21  2  0
 21 16  1  0
 21 22  1  0
 16  1  1  0
  1  2  2  0
  1  7  1  0
  2  3  1  0
  3  4  2  0
  4  5  1  0
  4  6  1  0
  6  8  1  0
  6  7  2  0
  8  9  1  0
  8 13  1  0
  9 10  1  0
 10 11  1  0
 11 12  1  0
 12 13  1  0
 13 14  2  0
 13 15  2  0
 22 23  2  0
 22 27  1  0
 23 24  1  0
 24 25  1  0
 25 26  1  0
 26 27  1  0
M  END
>  <minimizedAffinity>  (350) 
-8.82679

$$$$
data/reference_output_2/data/smiles/167755.pdb
     RDKit          3D

 25 27  0  0  0  0  0  0  0  0999 V2000
   66.6768   42.3572   55.5081 C   0  0  0  0  0  0  0  0  0  0  0  0
   67.9093   42.5762   56.2918 C   0  0  0  0  0  0  0  0  0  0  0  0
   68.4264   43.7369   56.2936 N   0  0  0  0  0  0  0  0  0  0  0  0
   68.5055   41.4704   57.0418 C   0  0  0  0  0  0  0  0  0  0  0  0
   67.9079   40.2292   57.0994 C   0  0  0  0  0  0  0  0  0  0  0  0
   68.4754   39.1872   57.8099 C   0  0  0  0  0  0  0  0  0  0  0  0
   69.6642   39.3422   58.4924 C   0  0  0  0  0  0  0  0  0  0  0  0
   70.2601   40.5846   58.4325 C   0  0  0  0  0  0  0  0  0  0  0  0
   69.6942   41.6254   57.7242 C   0  0  0  0  0  0  0  0  0  0  0  0
   70.2349   38.2542   59.2194 N   0  0  0  0  0  0  0  0  0  0  0  0
   71.0755   37.3401   58.6914 C   0  0  0  0  0  0  0  0  0  0  0  0
   71.4423   36.4246   59.6563 C   0  0  0  0  0  0  0  0  0  0  0  0
   70.8014   36.7918   60.8218 C   0  0  0  0  0  0  0  0  0  0  0  0
   70.0730   37.9149   60.5116 C   0  0  0  0  0  0  0  0  0  0  0  0
   67.9331   44.8459   55.6136 N   0  0  0  0  0  0  0  0  0  0  0  0
   68.6265   46.3741   56.0095 S   0  0  0  0  0  0  0  0  0  0  0  0
   67.7311   47.1921   56.8905 O   0  0  0  0  0  0  0  0  0  0  0  0
   69.8936   46.0830   56.7990 O   0  0  0  0  0  0  0  0  0  0  0  0
   69.0379   47.2449   54.5470 C   0  0  0  0  0  0  0  0  0  0  0  0
   68.7606   46.7188   53.3011 C   0  0  0  0  0  0  0  0  0  0  0  0
   69.0722   47.3800   52.1267 C   0  0  0  0  0  0  0  0  0  0  0  0
   69.6912   48.6265   52.2214 C   0  0  0  0  0  0  0  0  0  0  0  0
   70.0412   49.3639   51.0656 N   0  0  0  0  0  0  0  0  0  0  0  0
   69.9732   49.1619   53.4601 C   0  0  0  0  0  0  0  0  0  0  0  0
   69.6536   48.4845   54.6173 C   0  0  0  0  0  0  0  0  0  0  0  0
  1  2  1  0
  2  3  2  0
  2  4  1  0
  3 15  1  0
 15 16  1  0
 16 17  2  0
 16 18  2  0
 16 19  1  0
 19 20  2  0
 19 25  1  0
 20 21  1  0
 21 22  2  0
 22 23  1  0
 22 24  1  0
 24 25  2  0
  4  5  2  0
  4  9  1  0
  5  6  1  0
  6  7  2  0
  7 10  1  0
  7  8  1  0
 10 11  1  0
 10 14  1  0
 11 12  2  0
 12 13  1  0
 13 14  2  0
  8  9  2  0
M  END
>  <minimizedAffinity>  (351) 
-8.82613

$$$$
data/reference_output_2/data/smiles/123665.pdb
     RDKit          3D

 29 32  0  0  0  0  0  0  0  0999 V2000
   74.7114   35.0072   54.5295 N   0  0  0  0  0  0  0  0  0  0  0  0
   73.4193   35.4659   54.9089 C   0  0  0  0  0  0  0  0  0  0  0  0
   72.7063   35.9771   54.0367 O   0  0  0  0  0  0  0  0  0  0  0  0
   74.2398   32.9489   50.1911 C   0  0  0  0  0  0  0  0  0  0  0  0
   75.0586   33.8660   50.9277 N   0  0  0  0  0  0  0  0  0  0  0  0
   74.7599   34.0166   52.3119 C   0  0  0  0  0  0  0  0  0  0  0  0
   74.0203   33.1173   52.7717 O   0  0  0  0  0  0  0  0  0  0  0  0
   75.2391   35.1028   53.1902 C   0  0  2  0  0  0  0  0  0  0  0  0
   76.7426   35.2116   53.1634 C   0  0  0  0  0  0  0  0  0  0  0  0
   77.1724   35.8401   51.9631 O   0  0  0  0  0  0  0  0  0  0  0  0
   77.0173   35.3993   50.6559 C   0  0  0  0  0  0  0  0  0  0  0  0
   77.9446   35.9428   49.7775 C   0  0  0  0  0  0  0  0  0  0  0  0
   77.9671   35.6374   48.4319 C   0  0  0  0  0  0  0  0  0  0  0  0
   77.0151   34.7501   47.9723 C   0  0  0  0  0  0  0  0  0  0  0  0
   76.0713   34.1820   48.8078 C   0  0  0  0  0  0  0  0  0  0  0  0
   76.0727   34.5042   50.1393 C   0  0  0  0  0  0  0  0  0  0  0  0
   72.9320   35.3429   56.2910 C   0  0  0  0  0  0  0  0  0  0  0  0
   72.6062   36.4749   57.0044 C   0  0  0  0  0  0  0  0  0  0  0  0
   72.1420   36.4533   58.3048 C   0  0  0  0  0  0  0  0  0  0  0  0
   72.0030   35.2167   58.9119 C   0  0  0  0  0  0  0  0  0  0  0  0
   72.3308   34.0845   58.1953 C   0  0  0  0  0  0  0  0  0  0  0  0
   72.7846   34.1627   56.9120 N   0  0  0  0  0  0  0  0  0  0  0  0
   71.7936   37.6460   59.0746 C   0  0  0  0  0  0  0  0  0  0  0  0
   70.3498   37.9368   59.1301 C   0  0  0  0  0  0  0  0  0  0  0  0
   69.5251   37.3897   60.0739 C   0  0  0  0  0  0  0  0  0  0  0  0
   68.1865   37.6953   60.0789 C   0  0  0  0  0  0  0  0  0  0  0  0
   67.6442   38.5454   59.1536 C   0  0  0  0  0  0  0  0  0  0  0  0
   68.4798   39.0934   58.2081 C   0  0  0  0  0  0  0  0  0  0  0  0
   69.8142   38.7913   58.1983 C   0  0  0  0  0  0  0  0  0  0  0  0
  4  5  1  0
  5  6  1  0
  5 16  1  0
  6  7  2  0
  6  8  1  0
  8  1  1  1
  8  9  1  0
  1  2  1  0
  2  3  2  0
  2 17  1  0
 17 18  2  0
 17 22  1  0
 18 19  1  0
 19 23  1  0
 19 20  2  0
 23 24  1  0
 24 25  2  0
 24 29  1  0
 25 26  1  0
 26 27  2  0
 27 28  1  0
 28 29  2  0
 20 21  1  0
 21 22  2  0
  9 10  1  0
 10 11  1  0
 11 12  2  0
 11 16  1  0
 12 13  1  0
 13 14  2  0
 14 15  1  0
 15 16  2  0
M  END
>  <minimizedAffinity>  (352) 
-8.82604

$$$$
data/reference_output_2/data/smiles/187883.pdb
     RDKit          3D

 29 32  0  0  0  0  0  0  0  0999 V2000
   71.5090   47.3048   58.8056 C   0  0  0  0  0  0  0  0  0  0  0  0
   71.6782   45.9509   58.7553 C   0  0  0  0  0  0  0  0  0  0  0  0
   70.8549   45.1905   57.9191 C   0  0  0  0  0  0  0  0  0  0  0  0
   69.8886   45.8136   57.1608 C   0  0  0  0  0  0  0  0  0  0  0  0
   69.7070   47.1575   57.1973 C   0  0  0  0  0  0  0  0  0  0  0  0
   70.5361   47.8932   58.0356 C   0  0  0  0  0  0  0  0  0  0  0  0
   72.1599   47.9766   60.9350 O   0  0  0  0  0  0  0  0  0  0  0  0
   72.3306   48.1156   59.6862 C   0  0  0  0  0  0  0  0  0  0  0  0
   73.2922   49.0332   59.2367 N   0  0  0  0  0  0  0  0  0  0  0  0
   73.5965   49.3213   57.8449 C   0  0  0  0  0  0  0  0  0  0  0  0
   75.0620   49.7816   57.8433 C   0  0  0  0  0  0  0  0  0  0  0  0
   75.7652   48.8921   58.7299 N   0  0  0  0  0  0  0  0  0  0  0  0
   75.5532   49.3844   60.0849 C   0  0  0  0  0  0  0  0  0  0  0  0
   74.0876   49.7669   60.2225 C   0  0  0  0  0  0  0  0  0  0  0  0
   77.1813   48.8416   58.5021 C   0  0  0  0  0  0  0  0  0  0  0  0
   77.8401   50.2017   58.4785 C   0  0  0  0  0  0  0  0  0  0  0  0
   78.9287   50.3131   59.3057 O   0  0  0  0  0  0  0  0  0  0  0  0
   68.6897   47.9332   56.4477 C   0  0  0  0  0  0  0  0  0  0  0  0
   69.1204   48.1039   55.0714 C   0  0  0  0  0  0  0  0  0  0  0  0
   70.0135   49.1057   54.8001 N   0  0  0  0  0  0  0  0  0  0  0  0
   70.4638   49.3501   53.5839 N   0  0  0  0  0  0  0  0  0  0  0  0
   70.0788   48.6340   52.5147 C   0  0  0  0  0  0  0  0  0  0  0  0
   70.5397   48.9056   51.3530 O   0  0  0  0  0  0  0  0  0  0  0  0
   69.1819   47.6104   52.7076 C   0  0  0  0  0  0  0  0  0  0  0  0
   68.7838   46.8707   51.6173 C   0  0  0  0  0  0  0  0  0  0  0  0
   67.8863   45.8504   51.8446 C   0  0  0  0  0  0  0  0  0  0  0  0
   67.4077   45.5819   53.1121 C   0  0  0  0  0  0  0  0  0  0  0  0
   67.8271   46.3430   54.1912 C   0  0  0  0  0  0  0  0  0  0  0  0
   68.7121   47.3574   53.9936 C   0  0  0  0  0  0  0  0  0  0  0  0
  7  8  2  0
  8  1  1  0
  8  9  1  0
  1  2  2  0
  1  6  1  0
  2  3  1  0
  3  4  2  0
  4  5  1  0
  5 18  1  0
  5  6  2  0
 18 19  1  0
 19 20  2  0
 19 29  1  0
 20 21  1  0
 21 22  1  0
 22 23  2  0
 22 24  1  0
 24 25  1  0
 24 29  2  0
 25 26  2  0
 26 27  1  0
 27 28  2  0
 28 29  1  0
  9 10  1  0
  9 14  1  0
 10 11  1  0
 11 12  1  0
 12 15  1  0
 12 13  1  0
 15 16  1  0
 16 17  1  0
 13 14  1  0
M  CHG  1  12   1
M  END
>  <minimizedAffinity>  (353) 
-8.82590

$$$$
data/200k_reference_output/data/smiles/23334.pdb
     RDKit          3D

 25 28  0  0  0  0  0  0  0  0999 V2000
   68.7557   52.0063   55.0671 C   0  0  0  0  0  0  0  0  0  0  0  0
   70.0139   51.2567   55.3184 C   0  0  2  0  0  0  0  0  0  0  0  0
   70.7364   50.8549   54.0573 C   0  0  0  0  0  0  0  0  0  0  0  0
   70.1021   49.7114   53.3511 C   0  0  0  0  0  0  0  0  0  0  0  0
   69.6589   48.5820   54.2187 C   0  0  2  0  0  0  0  0  0  0  0  0
   68.9478   47.5776   53.4378 C   0  0  0  0  0  0  0  0  0  0  0  0
   68.9119   47.5042   52.0737 C   0  0  0  0  0  0  0  0  0  0  0  0
   68.1821   46.4867   51.4407 C   0  0  0  0  0  0  0  0  0  0  0  0
   67.4982   45.5601   52.1916 C   0  0  0  0  0  0  0  0  0  0  0  0
   66.7825   44.5636   51.5759 O   0  0  0  0  0  0  0  0  0  0  0  0
   67.5238   45.6205   53.5630 C   0  0  0  0  0  0  0  0  0  0  0  0
   68.2352   46.6094   54.1647 C   0  0  0  0  0  0  0  0  0  0  0  0
   68.2976   46.7021   55.6134 C   0  0  0  0  0  0  0  0  0  0  0  0
   68.4143   45.6446   56.3015 N   0  0  0  0  0  0  0  0  0  0  0  0
   68.2487   48.0603   56.2543 C   0  0  0  0  0  0  0  0  0  0  0  0
   68.8593   49.1185   55.4042 C   0  0  1  0  0  0  0  0  0  0  0  0
   69.8072   49.9954   56.1468 C   0  0  2  0  0  0  0  0  0  0  0  0
   69.3429   50.5327   57.4356 C   0  0  0  0  0  0  0  0  0  0  0  0
   70.2374   51.7571   57.6361 C   0  0  0  0  0  0  0  0  0  0  0  0
   70.8690   52.0360   56.2772 C   0  0  2  0  0  0  0  0  0  0  0  0
   70.8516   53.4008   56.0517 O   0  0  0  0  0  0  0  0  0  0  0  0
   68.4885   44.3939   55.7249 N   0  0  0  0  0  0  0  0  0  0  0  0
   68.4550   43.2421   56.5542 C   0  0  0  0  0  0  0  0  0  0  0  0
   69.2728   43.1245   57.7015 N   0  0  0  0  0  0  0  0  0  0  0  0
   67.4380   42.0225   56.1582 S   0  0  0  0  0  0  0  0  0  0  0  0
  2  1  1  6
  2  3  1  0
  2 17  1  0
  2 20  1  0
  3  4  1  0
  5  4  1  6
  5  6  1  0
  5 16  1  0
  6  7  2  0
  6 12  1  0
  7  8  1  0
  8  9  2  0
  9 10  1  0
  9 11  1  0
 11 12  2  0
 12 13  1  0
 13 14  2  0
 13 15  1  0
 14 22  1  0
 22 23  1  0
 23 24  1  0
 23 25  2  0
 16 15  1  1
 16 17  1  0
 17 18  1  1
 18 19  1  0
 19 20  1  0
 20 21  1  6
M  END
>  <minimizedAffinity>  (354) 
-8.82457

$$$$
data/reference_output_2/data/smiles/104190.pdb
     RDKit          3D

 27 28  0  0  0  0  0  0  0  0999 V2000
   71.6047   51.6779   54.7012 C   0  0  2  0  0  0  0  0  0  0  0  0
   69.8498   52.9036   55.8760 C   0  0  0  0  0  0  0  0  0  0  0  0
   71.2204   52.2732   56.0292 C   0  0  0  0  0  0  0  0  0  0  0  0
   71.1123   51.2302   57.1143 C   0  0  0  0  0  0  0  0  0  0  0  0
   70.9900   50.3329   54.6594 N   0  0  0  0  0  0  0  0  0  0  0  0
   70.2564   49.9316   53.5242 C   0  0  0  0  0  0  0  0  0  0  0  0
   70.1865   50.8138   52.5869 O   0  0  0  0  0  0  0  0  0  0  0  0
   69.6003   48.6488   53.3417 C   0  0  0  0  0  0  0  0  0  0  0  0
   68.8314   48.0996   54.3776 C   0  0  0  0  0  0  0  0  0  0  0  0
   68.7068   48.7775   55.5505 F   0  0  0  0  0  0  0  0  0  0  0  0
   68.1907   46.8901   54.2587 C   0  0  0  0  0  0  0  0  0  0  0  0
   68.2791   46.1590   53.0990 C   0  0  0  0  0  0  0  0  0  0  0  0
   69.0278   46.6737   52.0645 C   0  0  0  0  0  0  0  0  0  0  0  0
   69.6794   47.9098   52.1972 C   0  0  0  0  0  0  0  0  0  0  0  0
   70.3750   48.2896   51.1066 F   0  0  0  0  0  0  0  0  0  0  0  0
   73.0707   51.4520   54.6110 C   0  0  0  0  0  0  0  0  0  0  0  0
   73.8245   52.4253   54.2998 O   0  0  0  0  0  0  0  0  0  0  0  0
   73.7109   50.2094   54.8487 N   0  0  0  0  0  0  0  0  0  0  0  0
   75.1194   50.0708   54.7436 N   0  0  0  0  0  0  0  0  0  0  0  0
   75.9650   50.2413   55.8647 C   0  0  0  0  0  0  0  0  0  0  0  0
   75.3901   50.5237   56.9598 O   0  0  0  0  0  0  0  0  0  0  0  0
   77.4106   50.1225   55.8632 C   0  0  0  0  0  0  0  0  0  0  0  0
   78.0504   49.0589   55.2737 C   0  0  0  0  0  0  0  0  0  0  0  0
   79.4477   48.9546   55.2786 C   0  0  0  0  0  0  0  0  0  0  0  0
   80.2254   49.9179   55.8775 C   0  0  0  0  0  0  0  0  0  0  0  0
   79.5877   50.9837   56.4696 C   0  0  0  0  0  0  0  0  0  0  0  0
   78.2108   51.0763   56.4573 C   0  0  0  0  0  0  0  0  0  0  0  0
  2  3  1  0
  3  4  1  0
  3  1  1  0
  1  5  1  1
  1 16  1  0
  5  6  1  0
  6  7  2  0
  6  8  1  0
  8  9  2  0
  8 14  1  0
  9 10  1  0
  9 11  1  0
 11 12  2  0
 12 13  1  0
 13 14  2  0
 14 15  1  0
 16 17  2  0
 16 18  1  0
 18 19  1  0
 19 20  1  0
 20 21  2  0
 20 22  1  0
 22 23  2  0
 22 27  1  0
 23 24  1  0
 24 25  2  0
 25 26  1  0
 26 27  2  0
M  END
>  <minimizedAffinity>  (355) 
-8.82456

$$$$
data/200k_reference_output/data/smiles/16265.pdb
     RDKit          3D

 23 24  0  0  0  0  0  0  0  0999 V2000
   69.9485   51.1668   54.5779 C   0  0  0  0  0  0  0  0  0  0  0  0
   69.5076   50.2144   53.9241 N   0  0  0  0  0  0  0  0  0  0  0  0
   70.0364   49.2363   52.6756 S   0  0  0  0  0  0  0  0  0  0  0  0
   71.4937   48.9249   52.6290 O   0  0  0  0  0  0  0  0  0  0  0  0
   69.7263   49.8346   51.3031 O   0  0  0  0  0  0  0  0  0  0  0  0
   69.0899   47.7325   52.7088 C   0  0  0  0  0  0  0  0  0  0  0  0
   68.7714   47.2411   53.9514 C   0  0  0  0  0  0  0  0  0  0  0  0
   68.0386   46.0690   54.0974 C   0  0  0  0  0  0  0  0  0  0  0  0
   67.6429   45.4182   52.9644 C   0  0  0  0  0  0  0  0  0  0  0  0
   67.9631   45.9165   51.7230 C   0  0  0  0  0  0  0  0  0  0  0  0
   68.6991   47.0929   51.5760 C   0  0  0  0  0  0  0  0  0  0  0  0
   71.3088   51.8270   54.4124 C   0  0  0  0  0  0  0  0  0  0  0  0
   72.5256   51.1746   55.5188 S   0  0  0  0  0  0  0  0  0  0  0  0
   75.3205   51.2717   55.3629 N   0  0  0  0  0  0  0  0  0  0  0  0
   74.1016   50.8487   54.7960 C   0  0  0  0  0  0  0  0  0  0  0  0
   74.1955   50.1918   53.6976 O   0  0  0  0  0  0  0  0  0  0  0  0
   69.1253   51.6693   55.6369 N   0  0  0  0  0  0  0  0  0  0  0  0
   68.3009   50.9310   56.4713 C   0  0  0  0  0  0  0  0  0  0  0  0
   67.1816   51.3644   57.0992 C   0  0  0  0  0  0  0  0  0  0  0  0
   66.4242   50.5005   57.8936 C   0  0  0  0  0  0  0  0  0  0  0  0
   66.7686   49.1859   58.0807 C   0  0  0  0  0  0  0  0  0  0  0  0
   67.9085   48.7313   57.4469 C   0  0  0  0  0  0  0  0  0  0  0  0
   68.6555   49.5660   56.6669 C   0  0  0  0  0  0  0  0  0  0  0  0
 14 15  1  0
 15 16  2  0
 15 13  1  0
 13 12  1  0
 12  1  1  0
  1  2  2  0
  1 17  1  0
  2  3  1  0
  3  4  2  0
  3  5  2  0
  3  6  1  0
  6  7  2  0
  6 11  1  0
  7  8  1  0
  8  9  2  0
  9 10  1  0
 10 11  2  0
 17 18  1  0
 18 19  2  0
 18 23  1  0
 19 20  1  0
 20 21  2  0
 21 22  1  0
 22 23  2  0
M  CHG  1   2   1
M  END
>  <minimizedAffinity>  (356) 
-8.82302

$$$$
data/reference_output_2/data/smiles/92808.pdb
     RDKit          3D

 28 30  0  0  0  0  0  0  0  0999 V2000
   68.6641   41.2167   57.2622 C   0  0  0  0  0  0  0  0  0  0  0  0
   69.8670   41.2819   57.9409 C   0  0  0  0  0  0  0  0  0  0  0  0
   70.3692   40.2709   58.6811 C   0  0  0  0  0  0  0  0  0  0  0  0
   69.6764   39.0541   58.8135 C   0  0  0  0  0  0  0  0  0  0  0  0
   68.4815   38.9714   58.1484 C   0  0  0  0  0  0  0  0  0  0  0  0
   67.9827   40.0354   57.3855 C   0  0  0  0  0  0  0  0  0  0  0  0
   70.3343   37.7833   59.8018 S   0  0  0  0  0  0  0  0  0  0  0  0
   69.2843   37.1027   60.5698 O   0  0  0  0  0  0  0  0  0  0  0  0
   71.2336   38.4805   60.8693 O   0  0  0  0  0  0  0  0  0  0  0  0
   71.3365   36.7497   58.8305 C   0  0  0  0  0  0  0  0  0  0  0  0
   72.0639   37.1344   57.7417 C   0  0  0  0  0  0  0  0  0  0  0  0
   72.8261   36.2799   56.9633 C   0  0  0  0  0  0  0  0  0  0  0  0
   72.8446   34.9173   57.3362 C   0  0  0  0  0  0  0  0  0  0  0  0
   72.1478   34.5391   58.3839 C   0  0  0  0  0  0  0  0  0  0  0  0
   71.3866   35.3728   59.1632 C   0  0  0  0  0  0  0  0  0  0  0  0
   68.1317   42.3948   56.5252 C   0  0  0  0  0  0  0  0  0  0  0  0
   68.7778   43.5755   56.9735 N   0  0  0  0  0  0  0  0  0  0  0  0
   69.4668   45.7206   56.8755 N   0  0  0  0  0  0  0  0  0  0  0  0
   68.7812   44.8252   56.3487 C   0  0  0  0  0  0  0  0  0  0  0  0
   70.8909   45.6016   58.9496 N   0  0  0  0  0  0  0  0  0  0  0  0
   70.2170   45.6679   57.9602 C   0  0  0  0  0  0  0  0  0  0  0  0
   68.0782   45.1142   55.1506 N   0  0  0  0  0  0  0  0  0  0  0  0
   68.4183   46.0548   54.1618 C   0  0  0  0  0  0  0  0  0  0  0  0
   68.1042   45.7429   52.8432 C   0  0  0  0  0  0  0  0  0  0  0  0
   68.4150   46.5981   51.8107 C   0  0  0  0  0  0  0  0  0  0  0  0
   69.0357   47.7756   52.0399 C   0  0  0  0  0  0  0  0  0  0  0  0
   69.3451   48.0871   53.3099 N   0  0  0  0  0  0  0  0  0  0  0  0
   69.0602   47.2728   54.3781 C   0  0  0  0  0  0  0  0  0  0  0  0
 20 21  3  0
 21 18  1  0
 18 19  2  0
 19 17  1  0
 19 22  1  0
 17 16  1  0
 16  1  1  0
  1  2  2  0
  1  6  1  0
  2  3  1  0
  3  4  2  0
  4  7  1  0
  4  5  1  0
  7  8  2  0
  7  9  2  0
  7 10  1  0
 10 11  2  0
 10 15  1  0
 11 12  1  0
 12 13  2  0
 13 14  1  0
 14 15  2  0
  5  6  2  0
 22 23  1  0
 23 24  2  0
 23 28  1  0
 24 25  1  0
 25 26  2  0
 26 27  1  0
 27 28  2  0
M  CHG  1  18   1
M  END
>  <minimizedAffinity>  (357) 
-8.82301

$$$$
data/reference_output_2/data/smiles/152894.pdb
     RDKit          3D

 26 28  0  0  0  0  0  0  0  0999 V2000
   70.4937   40.3303   58.4654 N   0  0  0  0  0  0  0  0  0  0  0  0
   71.3310   41.3952   58.8972 C   0  0  0  0  0  0  0  0  0  0  0  0
   72.3248   41.1290   59.6061 O   0  0  0  0  0  0  0  0  0  0  0  0
   71.0959   42.7722   58.5617 N   0  0  0  0  0  0  0  0  0  0  0  0
   69.9862   43.1556   57.7609 C   0  0  0  0  0  0  0  0  0  0  0  0
   69.7730   44.3771   57.4618 O   0  0  0  0  0  0  0  0  0  0  0  0
   69.0996   42.1015   57.2937 C   0  0  0  0  0  0  0  0  0  0  0  0
   68.0435   42.3802   56.5619 C   0  0  0  0  0  0  0  0  0  0  0  0
   69.3814   40.6987   57.6636 C   0  0  0  0  0  0  0  0  0  0  0  0
   68.6071   39.7923   57.2511 O   0  0  0  0  0  0  0  0  0  0  0  0
   71.2478   34.7729   59.7362 C   0  0  0  0  0  0  0  0  0  0  0  0
   71.0551   36.2214   59.4142 C   0  0  0  0  0  0  0  0  0  0  0  0
   70.2219   37.0246   60.1566 C   0  0  0  0  0  0  0  0  0  0  0  0
   70.0585   38.3727   59.8377 C   0  0  0  0  0  0  0  0  0  0  0  0
   70.7151   38.9635   58.7745 C   0  0  0  0  0  0  0  0  0  0  0  0
   71.5496   38.1354   58.0408 C   0  0  0  0  0  0  0  0  0  0  0  0
   71.7214   36.7831   58.3504 C   0  0  0  0  0  0  0  0  0  0  0  0
   72.6446   35.9645   57.4998 C   0  0  0  0  0  0  0  0  0  0  0  0
   67.7645   43.7394   56.2236 N   0  0  0  0  0  0  0  0  0  0  0  0
   67.4434   44.0887   54.8933 N   0  0  0  0  0  0  0  0  0  0  0  0
   67.9572   45.3206   54.3705 C   0  0  0  0  0  0  0  0  0  0  0  0
   67.8990   45.4637   52.9932 C   0  0  0  0  0  0  0  0  0  0  0  0
   68.3701   46.6126   52.4076 C   0  0  0  0  0  0  0  0  0  0  0  0
   68.9002   47.6219   53.1782 C   0  0  0  0  0  0  0  0  0  0  0  0
   68.9521   47.4663   54.5522 C   0  0  0  0  0  0  0  0  0  0  0  0
   68.4814   46.3154   55.1503 C   0  0  0  0  0  0  0  0  0  0  0  0
 11 12  1  0
 12 13  2  0
 12 17  1  0
 13 14  1  0
 14 15  2  0
 15  1  1  0
 15 16  1  0
  1  2  1  0
  1  9  1  0
  2  3  2  0
  2  4  1  0
  4  5  1  0
  5  6  2  0
  5  7  1  0
  7  8  2  0
  7  9  1  0
  8 19  1  0
 19 20  1  0
 20 21  1  0
 21 22  2  0
 21 26  1  0
 22 23  1  0
 23 24  2  0
 24 25  1  0
 25 26  2  0
  9 10  2  0
 16 17  2  0
 17 18  1  0
M  END
>  <minimizedAffinity>  (358) 
-8.82089

$$$$
data/reference_output_2/data/smiles/144686.pdb
     RDKit          3D

 26 28  0  0  0  0  0  0  0  0999 V2000
   69.4923   45.7776   56.8534 N   0  0  0  0  0  0  0  0  0  0  0  0
   69.0272   47.3813   56.5700 S   0  0  0  0  0  0  0  0  0  0  0  0
   67.5505   47.5112   56.8624 O   0  0  0  0  0  0  0  0  0  0  0  0
   69.7391   48.2752   57.5356 O   0  0  0  0  0  0  0  0  0  0  0  0
   69.2897   47.9032   54.9329 C   0  0  0  0  0  0  0  0  0  0  0  0
   70.0172   49.0325   54.6232 C   0  0  0  0  0  0  0  0  0  0  0  0
   70.2163   49.4324   53.3107 C   0  0  0  0  0  0  0  0  0  0  0  0
   69.6927   48.7161   52.2583 C   0  0  0  0  0  0  0  0  0  0  0  0
   68.9642   47.5852   52.5587 C   0  0  0  0  0  0  0  0  0  0  0  0
   68.4356   46.8619   51.4822 C   0  0  0  0  0  0  0  0  0  0  0  0
   67.7146   45.7396   51.8143 C   0  0  0  0  0  0  0  0  0  0  0  0
   67.5297   45.3607   53.1201 C   0  0  0  0  0  0  0  0  0  0  0  0
   68.0510   46.0760   54.1575 N   0  0  0  0  0  0  0  0  0  0  0  0
   68.7648   47.1837   53.8632 C   0  0  0  0  0  0  0  0  0  0  0  0
   70.2349   45.5959   58.0793 C   0  0  0  0  0  0  0  0  0  0  0  0
   70.6923   43.1829   57.6380 N   0  0  0  0  0  0  0  0  0  0  0  0
   70.2419   44.1916   58.5321 C   0  0  0  0  0  0  0  0  0  0  0  0
   69.8544   43.8674   59.7038 O   0  0  0  0  0  0  0  0  0  0  0  0
   70.8517   37.6376   59.0578 C   0  0  0  0  0  0  0  0  0  0  0  0
   70.8126   39.0864   58.6871 C   0  0  0  0  0  0  0  0  0  0  0  0
   69.6315   39.6618   58.3325 C   0  0  0  0  0  0  0  0  0  0  0  0
   69.6117   40.9990   57.9938 C   0  0  0  0  0  0  0  0  0  0  0  0
   70.7334   41.7999   57.9919 C   0  0  0  0  0  0  0  0  0  0  0  0
   71.9258   41.2014   58.3541 C   0  0  0  0  0  0  0  0  0  0  0  0
   73.1970   41.9466   58.3928 C   0  0  0  0  0  0  0  0  0  0  0  0
   71.9652   39.8479   58.7008 C   0  0  0  0  0  0  0  0  0  0  0  0
 19 20  1  0
 20 21  2  0
 20 26  1  0
 21 22  1  0
 22 23  2  0
 23 16  1  0
 23 24  1  0
 16 17  1  0
 17 18  2  0
 17 15  1  0
 15  1  1  0
  1  2  1  0
  2  3  2  0
  2  4  2  0
  2  5  1  0
  5  6  2  0
  5 14  1  0
  6  7  1  0
  7  8  2  0
  8  9  1  0
  9 10  1  0
  9 14  2  0
 10 11  2  0
 11 12  1  0
 12 13  2  0
 13 14  1  0
 24 25  1  0
 24 26  2  0
M  END
>  <minimizedAffinity>  (359) 
-8.82051

$$$$
data/reference_output_2/data/smiles/191343.pdb
     RDKit          3D

 26 28  0  0  0  0  0  0  0  0999 V2000
   70.9776   43.9496   57.9706 O   0  0  0  0  0  0  0  0  0  0  0  0
   69.8655   43.7704   57.4213 C   0  0  0  0  0  0  0  0  0  0  0  0
   69.2106   44.9636   56.9488 N   0  0  0  0  0  0  0  0  0  0  0  0
   69.2849   42.4442   57.2757 C   0  0  0  0  0  0  0  0  0  0  0  0
   68.2574   42.2940   56.3604 C   0  0  0  0  0  0  0  0  0  0  0  0
   67.6598   41.0517   56.1737 C   0  0  0  0  0  0  0  0  0  0  0  0
   66.6570   40.9363   55.2703 F   0  0  0  0  0  0  0  0  0  0  0  0
   68.0758   39.9508   56.8909 C   0  0  0  0  0  0  0  0  0  0  0  0
   69.0965   40.0748   57.8078 C   0  0  0  0  0  0  0  0  0  0  0  0
   69.6755   41.3408   57.9697 C   0  0  0  0  0  0  0  0  0  0  0  0
   69.5437   38.9597   58.5594 N   0  0  0  0  0  0  0  0  0  0  0  0
   68.8887   38.3633   59.5669 C   0  0  0  0  0  0  0  0  0  0  0  0
   69.6499   37.2963   60.0608 C   0  0  0  0  0  0  0  0  0  0  0  0
   70.7850   37.3061   59.2837 C   0  0  0  0  0  0  0  0  0  0  0  0
   70.6623   38.3117   58.4164 N   0  0  0  0  0  0  0  0  0  0  0  0
   69.7401   46.2179   57.0763 N   0  0  0  0  0  0  0  0  0  0  0  0
   68.9395   47.4935   56.3183 S   0  0  0  0  0  0  0  0  0  0  0  0
   69.5936   48.8138   56.7214 O   0  0  0  0  0  0  0  0  0  0  0  0
   67.4971   47.4894   56.7527 O   0  0  0  0  0  0  0  0  0  0  0  0
   68.9763   47.4370   54.5958 C   0  0  0  0  0  0  0  0  0  0  0  0
   69.5512   48.3299   53.7492 C   0  0  0  0  0  0  0  0  0  0  0  0
   69.5208   48.1621   52.3612 C   0  0  0  0  0  0  0  0  0  0  0  0
   68.9041   47.0773   51.7829 C   0  0  0  0  0  0  0  0  0  0  0  0
   68.3173   46.1643   52.6305 C   0  0  0  0  0  0  0  0  0  0  0  0
   68.3497   46.3345   53.9939 C   0  0  0  0  0  0  0  0  0  0  0  0
   67.7429   45.3790   54.7538 F   0  0  0  0  0  0  0  0  0  0  0  0
  1  2  2  0
  2  3  1  0
  2  4  1  0
  3 16  1  0
 16 17  1  0
 17 18  2  0
 17 19  2  0
 17 20  1  0
 20 21  2  0
 20 25  1  0
 21 22  1  0
 22 23  2  0
 23 24  1  0
 24 25  2  0
 25 26  1  0
  4  5  2  0
  4 10  1  0
  5  6  1  0
  6  7  1  0
  6  8  2  0
  8  9  1  0
  9 11  1  0
  9 10  2  0
 11 12  1  0
 11 15  1  0
 12 13  2  0
 13 14  1  0
 14 15  2  0
M  END
>  <minimizedAffinity>  (360) 
-8.81983

$$$$
data/reference_output_2/data/smiles/180678.pdb
     RDKit          3D

 28 31  0  0  0  0  0  0  0  0999 V2000
   69.4951   39.3261   58.2601 C   0  0  0  0  0  0  0  0  0  0  0  0
   68.2984   39.2650   57.5299 C   0  0  0  0  0  0  0  0  0  0  0  0
   67.7647   40.4073   56.9753 C   0  0  0  0  0  0  0  0  0  0  0  0
   68.3535   41.6502   57.0994 C   0  0  0  0  0  0  0  0  0  0  0  0
   69.5269   41.6799   57.8238 C   0  0  0  0  0  0  0  0  0  0  0  0
   70.0908   40.5498   58.3924 C   0  0  0  0  0  0  0  0  0  0  0  0
   68.5155   37.7426   60.6823 C   0  0  0  0  0  0  0  0  0  0  0  0
   69.6897   37.4014   59.8946 N   0  0  0  0  0  0  0  0  0  0  0  0
   70.0735   38.1282   58.8391 C   0  0  0  0  0  0  0  0  0  0  0  0
   71.2133   37.5020   58.3612 C   0  0  0  0  0  0  0  0  0  0  0  0
   71.4932   36.4293   59.1199 N   0  0  0  0  0  0  0  0  0  0  0  0
   72.4532   35.4937   59.1081 C   0  0  0  0  0  0  0  0  0  0  0  0
   72.4847   34.4865   60.0382 C   0  0  0  0  0  0  0  0  0  0  0  0
   71.5252   34.4032   61.0223 C   0  0  0  0  0  0  0  0  0  0  0  0
   70.5382   35.3614   61.0398 C   0  0  0  0  0  0  0  0  0  0  0  0
   70.5501   36.3483   60.0864 C   0  0  0  0  0  0  0  0  0  0  0  0
   67.7633   42.8339   56.4809 C   0  0  0  0  0  0  0  0  0  0  0  0
   68.1695   43.8821   56.1314 N   0  0  0  0  0  0  0  0  0  0  0  0
   68.5524   45.0481   55.7285 N   0  0  0  0  0  0  0  0  0  0  0  0
   68.2728   45.6492   54.4483 C   0  0  0  0  0  0  0  0  0  0  0  0
   67.5801   44.9340   53.6742 O   0  0  0  0  0  0  0  0  0  0  0  0
   68.7210   46.9503   54.0331 C   0  0  0  0  0  0  0  0  0  0  0  0
   68.8498   48.0469   54.8516 C   0  0  0  0  0  0  0  0  0  0  0  0
   69.2806   49.2774   54.4059 C   0  0  0  0  0  0  0  0  0  0  0  0
   69.6096   49.4584   53.0840 C   0  0  0  0  0  0  0  0  0  0  0  0
   70.0538   50.7215   52.6172 N   0  0  0  0  0  0  0  0  0  0  0  0
   69.4964   48.3874   52.2278 C   0  0  0  0  0  0  0  0  0  0  0  0
   69.0636   47.1662   52.6919 C   0  0  0  0  0  0  0  0  0  0  0  0
  7  8  1  0
  8  9  1  0
  8 16  2  0
  9  1  1  0
  9 10  2  0
  1  2  2  0
  1  6  1  0
  2  3  1  0
  3  4  2  0
  4 17  1  0
  4  5  1  0
 17 18  2  0
 18 19  1  0
 19 20  1  0
 20 21  2  0
 20 22  1  0
 22 23  2  0
 22 28  1  0
 23 24  1  0
 24 25  2  0
 25 26  1  0
 25 27  1  0
 27 28  2  0
  5  6  2  0
 10 11  1  0
 11 12  1  0
 11 16  1  0
 12 13  2  0
 13 14  1  0
 14 15  2  0
 15 16  1  0
M  CHG  1   8   1
M  END
>  <minimizedAffinity>  (361) 
-8.81964

$$$$
data/200k_reference_output/data/smiles/67712.pdb
     RDKit          3D

 28 31  0  0  0  0  0  0  0  0999 V2000
   69.3132   40.2822   58.3960 C   0  0  0  0  0  0  0  0  0  0  0  0
   70.2113   41.2998   58.1610 C   0  0  0  0  0  0  0  0  0  0  0  0
   69.9188   42.3531   57.3008 C   0  0  0  0  0  0  0  0  0  0  0  0
   68.7181   42.4411   56.6344 C   0  0  0  0  0  0  0  0  0  0  0  0
   67.8175   41.4216   56.8691 C   0  0  0  0  0  0  0  0  0  0  0  0
   68.1074   40.3774   57.7219 C   0  0  0  0  0  0  0  0  0  0  0  0
   68.3948   43.5056   55.7461 N   0  0  0  0  0  0  0  0  0  0  0  0
   68.6605   44.8685   55.9907 C   0  0  0  0  0  0  0  0  0  0  0  0
   69.2249   45.1516   57.0786 O   0  0  0  0  0  0  0  0  0  0  0  0
   68.3426   45.9268   55.1106 N   0  0  0  0  0  0  0  0  0  0  0  0
   68.5910   47.3420   55.3152 C   0  0  0  0  0  0  0  0  0  0  0  0
   69.1187   47.7508   53.9879 C   0  0  0  0  0  0  0  0  0  0  0  0
   69.9676   48.7681   53.6000 C   0  0  0  0  0  0  0  0  0  0  0  0
   70.2705   48.8858   52.2627 C   0  0  0  0  0  0  0  0  0  0  0  0
   69.7459   48.0243   51.3491 N   0  0  0  0  0  0  0  0  0  0  0  0
   68.9184   47.0373   51.7518 C   0  0  0  0  0  0  0  0  0  0  0  0
   68.5801   46.8697   53.0736 C   0  0  0  0  0  0  0  0  0  0  0  0
   67.7039   45.8828   53.8041 C   0  0  0  0  0  0  0  0  0  0  0  0
   69.1658   39.2422   60.4709 O   0  0  0  0  0  0  0  0  0  0  0  0
   69.5681   39.1547   59.2874 C   0  0  0  0  0  0  0  0  0  0  0  0
   70.2356   37.9624   58.9288 N   0  0  0  0  0  0  0  0  0  0  0  0
   70.5034   36.8331   59.7641 C   0  0  0  0  0  0  0  0  0  0  0  0
   71.3374   35.8129   59.0431 C   0  0  0  0  0  0  0  0  0  0  0  0
   72.1318   36.1564   57.9711 C   0  0  0  0  0  0  0  0  0  0  0  0
   72.9167   35.2240   57.2987 C   0  0  0  0  0  0  0  0  0  0  0  0
   72.8851   33.9539   57.7243 N   0  0  0  0  0  0  0  0  0  0  0  0
   72.1065   33.6413   58.7661 C   0  0  0  0  0  0  0  0  0  0  0  0
   71.3422   34.5232   59.4300 N   0  0  0  0  0  0  0  0  0  0  0  0
 19 20  2  0
 20 21  1  0
 20  1  1  0
 21 22  1  0
 22 23  1  0
 23 24  2  0
 23 28  1  0
 24 25  1  0
 25 26  2  0
 26 27  1  0
 27 28  2  0
  1  2  2  0
  1  6  1  0
  2  3  1  0
  3  4  2  0
  4  7  1  0
  4  5  1  0
  7  8  1  0
  8  9  2  0
  8 10  1  0
 10 11  1  0
 10 18  1  0
 11 12  1  0
 12 13  1  0
 12 17  2  0
 13 14  2  0
 14 15  1  0
 15 16  2  0
 16 17  1  0
 17 18  1  0
  5  6  2  0
M  END
>  <minimizedAffinity>  (362) 
-8.81902

$$$$
data/200k_reference_output/data/smiles/56798.pdb
     RDKit          3D

 26 28  0  0  0  0  0  0  0  0999 V2000
   69.4353   42.8846   57.0662 C   0  0  0  0  0  0  0  0  0  0  0  0
   68.3737   42.2589   56.7445 O   0  0  0  0  0  0  0  0  0  0  0  0
   69.4931   44.2805   56.8516 N   0  0  0  0  0  0  0  0  0  0  0  0
   74.1850   42.7180   58.5501 C   0  0  0  0  0  0  0  0  0  0  0  0
   72.8698   42.0506   58.3649 C   0  0  0  0  0  0  0  0  0  0  0  0
   71.7803   42.6936   57.8334 C   0  0  0  0  0  0  0  0  0  0  0  0
   70.5457   42.1113   57.6448 C   0  0  0  0  0  0  0  0  0  0  0  0
   70.4185   40.7931   58.0225 C   0  0  0  0  0  0  0  0  0  0  0  0
   71.4893   40.0768   58.5700 C   0  0  0  0  0  0  0  0  0  0  0  0
   72.6999   40.7306   58.7296 C   0  0  0  0  0  0  0  0  0  0  0  0
   71.3283   38.7154   58.9513 N   0  0  0  0  0  0  0  0  0  0  0  0
   71.6647   37.6461   58.1996 C   0  0  0  0  0  0  0  0  0  0  0  0
   71.3614   36.4823   58.9019 C   0  0  0  0  0  0  0  0  0  0  0  0
   70.8348   36.9053   60.0937 C   0  0  0  0  0  0  0  0  0  0  0  0
   70.8339   38.2345   60.0815 N   0  0  0  0  0  0  0  0  0  0  0  0
   68.3657   44.9081   56.2912 N   0  0  0  0  0  0  0  0  0  0  0  0
   68.6805   46.6063   56.0577 S   0  0  0  0  0  0  0  0  0  0  0  0
   67.5232   47.3750   56.5898 O   0  0  0  0  0  0  0  0  0  0  0  0
   69.9191   47.0274   56.7634 O   0  0  0  0  0  0  0  0  0  0  0  0
   68.7811   46.9045   54.3385 C   0  0  0  0  0  0  0  0  0  0  0  0
   69.4366   47.9956   53.8257 C   0  0  0  0  0  0  0  0  0  0  0  0
   69.4812   48.1751   52.4633 C   0  0  0  0  0  0  0  0  0  0  0  0
   68.8885   47.2948   51.5828 C   0  0  0  0  0  0  0  0  0  0  0  0
   68.2310   46.2012   52.0925 C   0  0  0  0  0  0  0  0  0  0  0  0
   68.1910   46.0280   53.4667 C   0  0  0  0  0  0  0  0  0  0  0  0
   67.5427   44.9477   53.9990 F   0  0  0  0  0  0  0  0  0  0  0  0
  4  5  1  0
  5  6  2  0
  5 10  1  0
  6  7  1  0
  7  1  1  0
  7  8  2  0
  1  2  2  0
  1  3  1  0
  3 16  1  0
 16 17  1  0
 17 18  2  0
 17 19  2  0
 17 20  1  0
 20 21  2  0
 20 25  1  0
 21 22  1  0
 22 23  2  0
 23 24  1  0
 24 25  2  0
 25 26  1  0
  8  9  1  0
  9 11  1  0
  9 10  2  0
 11 12  1  0
 11 15  1  0
 12 13  2  0
 13 14  1  0
 14 15  2  0
M  END
>  <minimizedAffinity>  (363) 
-8.81863

$$$$
data/reference_output_2/data/smiles/164757.pdb
     RDKit          3D

 29 32  0  0  0  0  0  0  0  0999 V2000
   68.2806   46.3761   54.4351 C   0  0  0  0  0  0  0  0  0  0  0  0
   67.8147   45.4557   53.5267 C   0  0  0  0  0  0  0  0  0  0  0  0
   67.9178   45.6455   52.1581 C   0  0  0  0  0  0  0  0  0  0  0  0
   68.5049   46.7899   51.6875 C   0  0  0  0  0  0  0  0  0  0  0  0
   68.9793   47.7259   52.5808 C   0  0  0  0  0  0  0  0  0  0  0  0
   68.8688   47.5228   53.9570 C   0  0  0  0  0  0  0  0  0  0  0  0
   69.4501   48.6846   54.5953 C   0  0  0  0  0  0  0  0  0  0  0  0
   69.5370   48.8751   55.8160 O   0  0  0  0  0  0  0  0  0  0  0  0
   69.9232   49.6111   53.6003 N   0  0  0  0  0  0  0  0  0  0  0  0
   69.6226   48.9973   52.3539 C   0  0  0  0  0  0  0  0  0  0  0  0
   69.8962   49.5266   51.2288 O   0  0  0  0  0  0  0  0  0  0  0  0
   70.5730   50.9017   53.8652 C   0  0  1  0  0  0  0  0  0  0  0  0
   69.6195   51.9135   54.3889 C   0  0  0  0  0  0  0  0  0  0  0  0
   69.6022   52.1440   55.8397 C   0  0  0  0  0  0  0  0  0  0  0  0
   70.8074   51.7690   56.5768 C   0  0  0  0  0  0  0  0  0  0  0  0
   70.9331   52.1395   57.7720 O   0  0  0  0  0  0  0  0  0  0  0  0
   71.8707   50.9962   56.0216 N   0  0  0  0  0  0  0  0  0  0  0  0
   71.8070   50.7306   54.6399 C   0  0  0  0  0  0  0  0  0  0  0  0
   72.8713   50.3276   54.0605 O   0  0  0  0  0  0  0  0  0  0  0  0
   68.1282   46.1042   55.8130 N   0  0  0  0  0  0  0  0  0  0  0  0
   70.9554   43.8641   58.0651 C   0  0  0  0  0  0  0  0  0  0  0  0
   69.9734   43.2474   57.3197 C   0  0  0  0  0  0  0  0  0  0  0  0
   69.0517   43.9713   56.5919 C   0  0  0  0  0  0  0  0  0  0  0  0
   69.0681   45.3518   56.5748 C   0  0  0  0  0  0  0  0  0  0  0  0
   70.0522   45.9652   57.3215 C   0  0  0  0  0  0  0  0  0  0  0  0
   70.9773   45.2514   58.0523 C   0  0  0  0  0  0  0  0  0  0  0  0
   72.6333   43.7884   59.9013 C   0  0  0  0  0  0  0  0  0  0  0  0
   71.9062   43.0538   58.8168 C   0  0  0  0  0  0  0  0  0  0  0  0
   72.9596   42.4413   57.8875 C   0  0  0  0  0  0  0  0  0  0  0  0
 27 28  1  0
 28 29  1  0
 28 21  1  0
 21 22  2  0
 21 26  1  0
 22 23  1  0
 23 24  2  0
 24 20  1  0
 24 25  1  0
 20  1  1  0
  1  2  2  0
  1  6  1  0
  2  3  1  0
  3  4  2  0
  4  5  1  0
  5  6  2  0
  5 10  1  0
  6  7  1  0
  7  8  2  0
  7  9  1  0
 12  9  1  1
  9 10  1  0
 12 13  1  0
 12 18  1  0
 13 14  1  0
 14 15  1  0
 15 16  2  0
 15 17  1  0
 17 18  1  0
 18 19  2  0
 10 11  2  0
 25 26  2  0
M  END
>  <minimizedAffinity>  (364) 
-8.81830

$$$$
data/200k_reference_output/data/smiles/73906.pdb
     RDKit          3D

 27 29  0  0  0  0  0  0  0  0999 V2000
   68.0741   45.4708   54.4496 C   0  0  0  0  0  0  0  0  0  0  0  0
   68.1927   45.6504   53.0916 C   0  0  0  0  0  0  0  0  0  0  0  0
   68.7879   46.7744   52.5385 C   0  0  0  0  0  0  0  0  0  0  0  0
   69.2917   47.7708   53.3492 C   0  0  0  0  0  0  0  0  0  0  0  0
   69.1717   47.5899   54.7150 C   0  0  0  0  0  0  0  0  0  0  0  0
   68.5829   46.4779   55.2731 C   0  0  0  0  0  0  0  0  0  0  0  0
   67.4749   42.3306   56.5173 N   0  0  0  0  0  0  0  0  0  0  0  0
   68.0847   43.4729   55.9631 C   0  0  0  0  0  0  0  0  0  0  0  0
   69.2442   43.7825   56.3241 O   0  0  0  0  0  0  0  0  0  0  0  0
   67.4616   44.3158   55.0058 N   0  0  0  0  0  0  0  0  0  0  0  0
   68.0707   41.4430   57.4904 C   0  0  0  0  0  0  0  0  0  0  0  0
   67.9936   43.4983   62.8082 N   0  0  0  0  0  0  0  0  0  0  0  0
   67.9830   42.9732   61.4838 C   0  0  0  0  0  0  0  0  0  0  0  0
   66.8780   42.3351   60.9511 C   0  0  0  0  0  0  0  0  0  0  0  0
   66.8629   41.8261   59.6712 C   0  0  0  0  0  0  0  0  0  0  0  0
   67.9818   41.9524   58.8868 C   0  0  0  0  0  0  0  0  0  0  0  0
   69.0930   42.5936   59.4203 C   0  0  0  0  0  0  0  0  0  0  0  0
   69.0552   43.0700   60.6686 N   0  0  0  0  0  0  0  0  0  0  0  0
   70.0592   49.2216   52.7195 S   0  0  0  0  0  0  0  0  0  0  0  0
   69.6387   49.4785   51.3005 O   0  0  0  0  0  0  0  0  0  0  0  0
   71.5566   48.9930   52.7553 O   0  0  0  0  0  0  0  0  0  0  0  0
   69.7278   50.5838   53.7628 C   0  0  0  0  0  0  0  0  0  0  0  0
   68.4702   51.0581   54.0206 C   0  0  0  0  0  0  0  0  0  0  0  0
   68.2373   52.1519   54.8597 C   0  0  0  0  0  0  0  0  0  0  0  0
   69.3138   52.7728   55.4479 C   0  0  0  0  0  0  0  0  0  0  0  0
   70.5998   52.3224   55.2114 C   0  0  0  0  0  0  0  0  0  0  0  0
   70.7934   51.2403   54.3775 C   0  0  0  0  0  0  0  0  0  0  0  0
 12 13  1  0
 13 14  2  0
 13 18  1  0
 14 15  1  0
 15 16  2  0
 16 11  1  0
 16 17  1  0
 11  7  1  0
  7  8  1  0
  8  9  2  0
  8 10  1  0
 10  1  1  0
  1  2  2  0
  1  6  1  0
  2  3  1  0
  3  4  2  0
  4 19  1  0
  4  5  1  0
 19 20  2  0
 19 21  2  0
 19 22  1  0
 22 23  2  0
 22 27  1  0
 23 24  1  0
 24 25  2  0
 25 26  1  0
 26 27  2  0
  5  6  2  0
 17 18  2  0
M  END
>  <minimizedAffinity>  (365) 
-8.81794

$$$$
data/reference_output_2/data/smiles/108416.pdb
     RDKit          3D

 27 30  0  0  0  0  0  0  0  0999 V2000
   68.1614   43.5363   55.8477 C   0  0  0  0  0  0  0  0  0  0  0  0
   69.0671   43.5031   56.4813 N   0  0  0  0  0  0  0  0  0  0  0  0
   69.5573   42.6026   57.3155 N   0  0  0  0  0  0  0  0  0  0  0  0
   68.7945   41.5029   57.4113 C   0  0  0  0  0  0  0  0  0  0  0  0
   67.4125   41.8444   56.2813 S   0  0  0  0  0  0  0  0  0  0  0  0
   68.8670   40.2530   58.1527 C   0  0  0  0  0  0  0  0  0  0  0  0
   67.7914   39.8386   58.9366 C   0  0  0  0  0  0  0  0  0  0  0  0
   67.8727   38.6721   59.6450 C   0  0  0  0  0  0  0  0  0  0  0  0
   68.9948   37.8545   59.6258 C   0  0  0  0  0  0  0  0  0  0  0  0
   70.0617   38.2563   58.8543 C   0  0  0  0  0  0  0  0  0  0  0  0
   71.2706   37.4081   58.8177 C   0  0  0  0  0  0  0  0  0  0  0  0
   69.9483   39.4632   58.1361 C   0  0  0  0  0  0  0  0  0  0  0  0
   70.8119   42.7958   58.0294 C   0  0  0  0  0  0  0  0  0  0  0  0
   72.0217   42.3979   57.5190 C   0  0  0  0  0  0  0  0  0  0  0  0
   73.1989   42.5549   58.2164 C   0  0  0  0  0  0  0  0  0  0  0  0
   73.2119   43.1259   59.4719 C   0  0  0  0  0  0  0  0  0  0  0  0
   72.0040   43.5302   59.9968 C   0  0  0  0  0  0  0  0  0  0  0  0
   70.8158   43.3730   59.2955 C   0  0  0  0  0  0  0  0  0  0  0  0
   67.3498   44.3314   54.8752 N   0  0  0  0  0  0  0  0  0  0  0  0
   69.1544   47.6545   53.0314 C   0  0  0  0  0  0  0  0  0  0  0  0
   69.1070   47.5454   54.3922 C   0  0  0  0  0  0  0  0  0  0  0  0
   68.5085   46.4513   54.9896 C   0  0  0  0  0  0  0  0  0  0  0  0
   67.9441   45.4418   54.2569 C   0  0  0  0  0  0  0  0  0  0  0  0
   67.9880   45.5454   52.8929 C   0  0  0  0  0  0  0  0  0  0  0  0
   68.5874   46.6418   52.2598 C   0  0  0  0  0  0  0  0  0  0  0  0
   69.6445   50.1032   53.0667 C   0  0  0  0  0  0  0  0  0  0  0  0
   69.7761   48.8098   52.3029 C   0  0  0  0  0  0  0  0  0  0  0  0
 26 27  1  0
 27 20  1  0
 20 21  2  0
 20 25  1  0
 21 22  1  0
 22 23  2  0
 23 19  1  0
 23 24  1  0
 19  1  1  0
  1  2  2  0
  1  5  1  0
  2  3  1  0
  3 13  1  0
  3  4  2  0
 13 14  2  0
 13 18  1  0
 14 15  1  0
 15 16  2  0
 16 17  1  0
 17 18  2  0
  4  6  1  0
  4  5  1  0
  6  7  2  0
  6 12  1  0
  7  8  1  0
  8  9  2  0
  9 10  1  0
 10 11  1  0
 10 12  2  0
 24 25  2  0
M  CHG  1   3   1
M  END
>  <minimizedAffinity>  (366) 
-8.81710

$$$$
data/reference_output_2/data/smiles/123515.pdb
     RDKit          3D

 28 31  0  0  0  0  0  0  0  0999 V2000
   69.4533   41.5521   57.8689 C   0  0  0  0  0  0  0  0  0  0  0  0
   67.8546   41.7339   56.9023 S   0  0  0  0  0  0  0  0  0  0  0  0
   68.3713   43.3316   56.1546 C   0  0  0  0  0  0  0  0  0  0  0  0
   69.4893   43.4626   56.6658 N   0  0  0  0  0  0  0  0  0  0  0  0
   70.0383   42.7262   57.4252 N   0  0  0  0  0  0  0  0  0  0  0  0
   71.3365   43.0190   58.0660 C   0  0  0  0  0  0  0  0  0  0  0  0
   72.4331   42.6094   57.3509 C   0  0  0  0  0  0  0  0  0  0  0  0
   73.7411   42.7180   57.8757 C   0  0  0  0  0  0  0  0  0  0  0  0
   73.8039   43.2767   59.1613 C   0  0  0  0  0  0  0  0  0  0  0  0
   72.7526   43.6721   59.8435 C   0  0  0  0  0  0  0  0  0  0  0  0
   71.4689   43.5479   59.3047 C   0  0  0  0  0  0  0  0  0  0  0  0
   70.6975   39.5629   58.2451 C   0  0  0  0  0  0  0  0  0  0  0  0
   69.6339   40.3106   58.5277 C   0  0  0  0  0  0  0  0  0  0  0  0
   71.6378   35.5473   59.0838 C   0  0  0  0  0  0  0  0  0  0  0  0
   72.3398   36.2877   58.1375 C   0  0  0  0  0  0  0  0  0  0  0  0
   72.0898   37.6204   57.9530 C   0  0  0  0  0  0  0  0  0  0  0  0
   71.1130   38.2778   58.7263 C   0  0  0  0  0  0  0  0  0  0  0  0
   70.4451   37.5331   59.6679 C   0  0  0  0  0  0  0  0  0  0  0  0
   70.7103   36.1509   59.8474 C   0  0  0  0  0  0  0  0  0  0  0  0
   71.9805   32.9382   58.9554 N   0  0  0  0  0  0  0  0  0  0  0  0
   71.8297   34.1011   59.0211 C   0  0  0  0  0  0  0  0  0  0  0  0
   67.5081   44.0339   55.2085 N   0  0  0  0  0  0  0  0  0  0  0  0
   67.9728   45.2230   54.5933 C   0  0  0  0  0  0  0  0  0  0  0  0
   68.5315   46.2539   55.2734 C   0  0  0  0  0  0  0  0  0  0  0  0
   68.9851   47.4342   54.6581 C   0  0  0  0  0  0  0  0  0  0  0  0
   68.8509   47.5338   53.3090 C   0  0  0  0  0  0  0  0  0  0  0  0
   68.2759   46.4903   52.5711 C   0  0  0  0  0  0  0  0  0  0  0  0
   67.8555   45.3657   53.2025 C   0  0  0  0  0  0  0  0  0  0  0  0
 20 21  3  0
 21 14  1  0
 14 15  2  0
 14 19  1  0
 15 16  1  0
 16 17  2  0
 17 12  1  0
 17 18  1  0
 12 13  2  0
 13  1  1  0
  1  2  1  0
  1  5  2  0
  2  3  1  0
  3 22  1  0
  3  4  2  0
 22 23  1  0
 23 24  2  0
 23 28  1  0
 24 25  1  0
 25 26  2  0
 26 27  1  0
 27 28  2  0
  4  5  1  0
  5  6  1  0
  6  7  2  0
  6 11  1  0
  7  8  1  0
  8  9  2  0
  9 10  1  0
 10 11  2  0
 18 19  2  0
M  CHG  1   5   1
M  END
>  <minimizedAffinity>  (367) 
-8.81605

$$$$
data/200k_reference_output/data/smiles/42809.pdb
     RDKit          3D

 28 31  0  0  0  0  0  0  0  0999 V2000
   72.2234   43.2082   57.8098 O   0  0  0  0  0  0  0  0  0  0  0  0
   71.0224   43.1848   58.0904 C   0  0  0  0  0  0  0  0  0  0  0  0
   70.6186   42.3730   59.2221 N   0  0  0  0  0  0  0  0  0  0  0  0
   69.2348   42.2907   59.5973 C   0  0  0  0  0  0  0  0  0  0  0  0
   68.9053   40.9514   60.1405 C   0  0  0  0  0  0  0  0  0  0  0  0
   69.8488   39.9270   60.0136 N   0  0  0  0  0  0  0  0  0  0  0  0
   71.2224   40.2239   60.1151 C   0  0  0  0  0  0  0  0  0  0  0  0
   71.6074   41.6683   59.9980 C   0  0  0  0  0  0  0  0  0  0  0  0
   70.0270   43.9243   57.3429 C   0  0  0  0  0  0  0  0  0  0  0  0
   70.0129   45.2770   57.0314 C   0  0  0  0  0  0  0  0  0  0  0  0
   68.9030   45.5865   56.3065 N   0  0  0  0  0  0  0  0  0  0  0  0
   68.2656   44.4595   56.1817 N   0  0  0  0  0  0  0  0  0  0  0  0
   68.8760   43.4542   56.7678 N   0  0  0  0  0  0  0  0  0  0  0  0
   68.5652   46.9099   55.8196 C   0  0  0  0  0  0  0  0  0  0  0  0
   68.6165   46.9680   54.3382 C   0  0  0  0  0  0  0  0  0  0  0  0
   69.3825   47.8567   53.6413 C   0  0  0  0  0  0  0  0  0  0  0  0
   69.3927   47.8488   52.2565 C   0  0  0  0  0  0  0  0  0  0  0  0
   68.6337   46.9487   51.5244 C   0  0  0  0  0  0  0  0  0  0  0  0
   67.8589   46.0514   52.2266 C   0  0  0  0  0  0  0  0  0  0  0  0
   67.0940   45.1452   51.5342 F   0  0  0  0  0  0  0  0  0  0  0  0
   67.8612   46.0719   53.6032 C   0  0  0  0  0  0  0  0  0  0  0  0
   69.4628   38.6210   59.6932 C   0  0  0  0  0  0  0  0  0  0  0  0
   70.4752   37.7093   59.1603 C   0  0  0  0  0  0  0  0  0  0  0  0
   70.5912   36.4710   59.7434 C   0  0  0  0  0  0  0  0  0  0  0  0
   71.5248   35.5530   59.2887 C   0  0  0  0  0  0  0  0  0  0  0  0
   72.3458   35.9028   58.2319 C   0  0  0  0  0  0  0  0  0  0  0  0
   72.2298   37.1420   57.6488 C   0  0  0  0  0  0  0  0  0  0  0  0
   71.2938   38.0305   58.1216 C   0  0  0  0  0  0  0  0  0  0  0  0
  1  2  2  0
  2  9  1  0
  2  3  1  0
  9 10  2  0
  9 13  1  0
 10 11  1  0
 11 14  1  0
 11 12  1  0
 14 15  1  0
 15 16  2  0
 15 21  1  0
 16 17  1  0
 17 18  2  0
 18 19  1  0
 19 20  1  0
 19 21  2  0
 12 13  2  0
  3  4  1  0
  3  8  1  0
  4  5  1  0
  5  6  1  0
  6 22  1  0
  6  7  1  0
 22 23  1  0
 23 24  2  0
 23 28  1  0
 24 25  1  0
 25 26  2  0
 26 27  1  0
 27 28  2  0
  7  8  1  0
M  CHG  1   6   1
M  END
>  <minimizedAffinity>  (368) 
-8.81533

$$$$
data/200k_reference_output/data/smiles/8015.pdb
     RDKit          3D

 28 31  0  0  0  0  0  0  0  0999 V2000
   68.4351   48.9638   57.1243 C   0  0  0  0  0  0  0  0  0  0  0  0
   67.1340   49.0736   57.6155 C   0  0  0  0  0  0  0  0  0  0  0  0
   66.5598   50.2632   57.7609 C   0  0  0  0  0  0  0  0  0  0  0  0
   67.1754   51.4797   57.4550 C   0  0  0  0  0  0  0  0  0  0  0  0
   68.4873   51.3989   56.9636 C   0  0  0  0  0  0  0  0  0  0  0  0
   69.0731   50.1691   56.8132 C   0  0  0  0  0  0  0  0  0  0  0  0
   70.4320   50.4139   56.2656 C   0  0  0  0  0  0  0  0  0  0  0  0
   70.6873   51.7918   56.3153 N   0  0  0  0  0  0  0  0  0  0  0  0
   69.4490   52.4727   56.6702 C   0  0  0  0  0  0  0  0  0  0  0  0
   69.3010   53.6901   56.7035 O   0  0  0  0  0  0  0  0  0  0  0  0
   71.9797   52.4412   56.0682 C   0  0  2  0  0  0  0  0  0  0  0  0
   72.1509   52.6401   54.5673 C   0  0  0  0  0  0  0  0  0  0  0  0
   73.5689   52.4038   54.1922 C   0  0  0  0  0  0  0  0  0  0  0  0
   73.8200   50.8593   54.4264 C   0  0  0  0  0  0  0  0  0  0  0  0
   74.1199   50.1639   53.5880 O   0  0  0  0  0  0  0  0  0  0  0  0
   73.6085   50.6098   55.8478 N   0  0  0  0  0  0  0  0  0  0  0  0
   73.1210   51.7039   56.6467 C   0  0  0  0  0  0  0  0  0  0  0  0
   73.6227   51.9785   57.6984 O   0  0  0  0  0  0  0  0  0  0  0  0
   69.2802   47.4560   57.1664 S   0  0  0  0  0  0  0  0  0  0  0  0
   68.9113   46.1168   56.1454 C   0  0  0  0  0  0  0  0  0  0  0  0
   68.9263   47.4179   52.5951 C   0  0  0  0  0  0  0  0  0  0  0  0
   68.1832   46.5996   51.9562 C   0  0  0  0  0  0  0  0  0  0  0  0
   67.6276   45.4664   52.7063 C   0  0  0  0  0  0  0  0  0  0  0  0
   67.9053   45.3212   54.0140 C   0  0  0  0  0  0  0  0  0  0  0  0
   68.7612   46.3018   54.6949 C   0  0  0  0  0  0  0  0  0  0  0  0
   69.2332   47.3139   53.9327 C   0  0  0  0  0  0  0  0  0  0  0  0
   70.1179   49.4835   51.2551 N   0  0  0  0  0  0  0  0  0  0  0  0
   69.5853   48.5405   51.8714 C   0  0  0  0  0  0  0  0  0  0  0  0
 27 28  3  0
 28 21  1  0
 21 22  2  0
 21 26  1  0
 22 23  1  0
 23 24  2  0
 24 25  1  0
 25 20  1  0
 25 26  2  0
 20 19  1  0
 19  1  1  0
  1  2  2  0
  1  6  1  0
  2  3  1  0
  3  4  2  0
  4  5  1  0
  5  6  2  0
  5  9  1  0
  6  7  1  0
  7  8  1  0
 11  8  1  6
  8  9  1  0
 11 12  1  0
 11 17  1  0
 12 13  1  0
 13 14  1  0
 14 15  2  0
 14 16  1  0
 16 17  1  0
 17 18  2  0
  9 10  2  0
M  END
>  <minimizedAffinity>  (369) 
-8.81396

$$$$
data/reference_output_2/data/smiles/146567.pdb
     RDKit          3D

 26 28  0  0  0  0  0  0  0  0999 V2000
   69.2188   47.7812   55.1444 C   0  0  0  0  0  0  0  0  0  0  0  0
   70.0260   48.8663   54.9971 C   0  0  0  0  0  0  0  0  0  0  0  0
   70.3996   49.3696   53.7576 C   0  0  0  0  0  0  0  0  0  0  0  0
   69.9225   48.7313   52.6093 C   0  0  0  0  0  0  0  0  0  0  0  0
   70.2808   49.2139   51.3600 O   0  0  0  0  0  0  0  0  0  0  0  0
   69.1108   47.6402   52.7320 C   0  0  0  0  0  0  0  0  0  0  0  0
   68.6565   47.0295   51.5821 C   0  0  0  0  0  0  0  0  0  0  0  0
   67.8328   45.9232   51.6337 C   0  0  0  0  0  0  0  0  0  0  0  0
   67.4799   45.4479   52.8742 C   0  0  0  0  0  0  0  0  0  0  0  0
   67.9332   46.0554   54.0172 C   0  0  0  0  0  0  0  0  0  0  0  0
   68.7599   47.1669   53.9959 C   0  0  0  0  0  0  0  0  0  0  0  0
   68.7172   47.1053   56.6635 S   0  0  0  0  0  0  0  0  0  0  0  0
   67.3303   47.6328   57.0067 O   0  0  0  0  0  0  0  0  0  0  0  0
   68.6582   45.6138   56.4922 O   0  0  0  0  0  0  0  0  0  0  0  0
   69.7363   47.4781   57.9593 N   0  0  0  0  0  0  0  0  0  0  0  0
   72.2528   50.7993   58.1271 C   0  0  0  0  0  0  0  0  0  0  0  0
   70.8952   50.9497   58.3129 C   0  0  0  0  0  0  0  0  0  0  0  0
   70.1134   49.8212   58.2463 C   0  0  0  0  0  0  0  0  0  0  0  0
   70.6446   48.5702   58.0053 C   0  0  0  0  0  0  0  0  0  0  0  0
   72.0009   48.4368   57.8223 C   0  0  0  0  0  0  0  0  0  0  0  0
   72.8097   49.5560   57.8835 C   0  0  0  0  0  0  0  0  0  0  0  0
   73.7058   52.9277   58.2403 N   0  0  0  0  0  0  0  0  0  0  0  0
   73.0684   51.9794   58.1966 C   0  0  0  0  0  0  0  0  0  0  0  0
   71.2620   50.5283   53.6232 C   0  0  0  0  0  0  0  0  0  0  0  0
   72.4780   50.4427   53.8724 O   0  0  0  0  0  0  0  0  0  0  0  0
   70.7282   51.7309   53.2149 O   0  0  0  0  0  0  0  0  0  0  0  0
 22 23  3  0
 23 16  1  0
 16 17  2  0
 16 21  1  0
 17 18  1  0
 18 19  2  0
 19 15  1  0
 19 20  1  0
 15 12  1  0
 12 13  2  0
 12 14  2  0
 12  1  1  0
  1  2  2  0
  1 11  1  0
  2  3  1  0
  3 24  1  0
  3  4  2  0
 24 25  2  0
 24 26  1  0
  4  5  1  0
  4  6  1  0
  6  7  1  0
  6 11  2  0
  7  8  2  0
  8  9  1  0
  9 10  2  0
 10 11  1  0
 20 21  2  0
M  END
>  <minimizedAffinity>  (370) 
-8.81294

$$$$
data/200k_reference_output/data/smiles/48230.pdb
     RDKit          3D

 28 31  0  0  0  0  0  0  0  0999 V2000
   69.2110   48.1054   56.3862 C   0  0  1  0  0  0  0  0  0  0  0  0
   69.8020   47.6171   57.6648 C   0  0  0  0  0  0  0  0  0  0  0  0
   69.4882   46.2397   57.7520 N   0  0  0  0  0  0  0  0  0  0  0  0
   69.2595   45.7819   56.3857 C   0  0  0  0  0  0  0  0  0  0  0  0
   68.4943   46.9624   55.7960 C   0  0  2  0  0  0  0  0  0  0  0  0
   68.5383   46.9302   54.3089 C   0  0  0  0  0  0  0  0  0  0  0  0
   69.2879   47.7964   53.5647 C   0  0  0  0  0  0  0  0  0  0  0  0
   69.2915   47.7217   52.1805 C   0  0  0  0  0  0  0  0  0  0  0  0
   68.5471   46.7813   51.5111 C   0  0  0  0  0  0  0  0  0  0  0  0
   67.7891   45.9041   52.2566 C   0  0  0  0  0  0  0  0  0  0  0  0
   67.7960   45.9910   53.6304 C   0  0  0  0  0  0  0  0  0  0  0  0
   70.6185   45.2524   58.5562 S   0  0  0  0  0  0  0  0  0  0  0  0
   69.9296   44.3947   59.5746 O   0  0  0  0  0  0  0  0  0  0  0  0
   71.3703   44.4033   57.5590 O   0  0  0  0  0  0  0  0  0  0  0  0
   71.7945   46.2736   59.3536 C   0  0  0  0  0  0  0  0  0  0  0  0
   73.0801   46.6017   58.9514 C   0  0  0  0  0  0  0  0  0  0  0  0
   73.6502   47.4174   59.8546 N   0  0  0  0  0  0  0  0  0  0  0  0
   74.9879   48.0025   59.8276 C   0  0  0  0  0  0  0  0  0  0  0  0
   72.7420   47.6133   60.8271 C   0  0  0  0  0  0  0  0  0  0  0  0
   71.6179   46.9182   60.5188 N   0  0  0  0  0  0  0  0  0  0  0  0
   68.4545   49.3179   56.4993 N   0  0  0  0  0  0  0  0  0  0  0  0
   69.6034   51.0048   58.4565 C   0  0  0  0  0  0  0  0  0  0  0  0
   69.3654   51.4718   57.0500 C   0  0  0  0  0  0  0  0  0  0  0  0
   69.7276   52.7633   56.7357 C   0  0  0  0  0  0  0  0  0  0  0  0
   69.5346   53.2431   55.4585 C   0  0  0  0  0  0  0  0  0  0  0  0
   68.9773   52.4030   54.5259 C   0  0  0  0  0  0  0  0  0  0  0  0
   68.6174   51.0949   54.8712 C   0  0  0  0  0  0  0  0  0  0  0  0
   68.8047   50.6057   56.1349 C   0  0  0  0  0  0  0  0  0  0  0  0
 22 23  1  0
 23 24  2  0
 23 28  1  0
 24 25  1  0
 25 26  2  0
 26 27  1  0
 27 28  2  0
 28 21  1  0
  1 21  1  1
  1  2  1  0
  1  5  1  0
  2  3  1  0
  3 12  1  0
  3  4  1  0
 12 13  2  0
 12 14  2  0
 12 15  1  0
 15 16  2  0
 15 20  1  0
 16 17  1  0
 17 18  1  0
 17 19  1  0
 19 20  2  0
  4  5  1  0
  5  6  1  6
  6  7  2  0
  6 11  1  0
  7  8  1  0
  8  9  2  0
  9 10  1  0
 10 11  2  0
M  END
>  <minimizedAffinity>  (371) 
-8.81179

$$$$
data/reference_output_2/data/smiles/163505.pdb
     RDKit          3D

 28 31  0  0  0  0  0  0  0  0999 V2000
   70.6169   45.8092   58.4106 C   0  0  0  0  0  0  0  0  0  0  0  0
   69.7710   46.2133   57.4536 N   0  0  0  0  0  0  0  0  0  0  0  0
   70.1293   47.4538   57.0424 C   0  0  0  0  0  0  0  0  0  0  0  0
   71.1951   47.7619   57.7756 N   0  0  0  0  0  0  0  0  0  0  0  0
   71.4760   46.7838   58.5810 O   0  0  0  0  0  0  0  0  0  0  0  0
   70.6464   44.5400   59.1708 C   0  0  0  0  0  0  0  0  0  0  0  0
   68.0932   38.6424   58.9575 C   0  0  0  0  0  0  0  0  0  0  0  0
   68.2535   39.6960   57.9218 C   0  0  0  0  0  0  0  0  0  0  0  0
   67.7877   39.4347   56.7828 O   0  0  0  0  0  0  0  0  0  0  0  0
   68.8965   40.9361   58.1955 N   0  0  0  0  0  0  0  0  0  0  0  0
   69.4332   41.2494   59.4909 C   0  0  0  0  0  0  0  0  0  0  0  0
   69.2159   42.6973   59.7738 C   0  0  0  0  0  0  0  0  0  0  0  0
   69.6548   43.6018   58.7959 N   0  0  0  0  0  0  0  0  0  0  0  0
   69.7876   43.1087   57.4651 C   0  0  0  0  0  0  0  0  0  0  0  0
   69.0091   41.8933   57.1474 C   0  0  0  0  0  0  0  0  0  0  0  0
   69.5218   48.3325   56.0102 C   0  0  0  0  0  0  0  0  0  0  0  0
   69.0252   47.5348   54.8769 C   0  0  0  0  0  0  0  0  0  0  0  0
   69.2685   47.9322   53.5576 C   0  0  0  0  0  0  0  0  0  0  0  0
   68.8437   47.2112   52.4820 C   0  0  0  0  0  0  0  0  0  0  0  0
   68.1436   46.0407   52.6870 C   0  0  0  0  0  0  0  0  0  0  0  0
   67.8849   45.6167   53.9533 C   0  0  0  0  0  0  0  0  0  0  0  0
   68.3286   46.3696   55.0479 C   0  0  0  0  0  0  0  0  0  0  0  0
   68.5107   49.2144   56.6126 C   0  0  0  0  0  0  0  0  0  0  0  0
   67.5422   48.7909   57.4770 C   0  0  0  0  0  0  0  0  0  0  0  0
   66.6115   49.6985   58.0197 C   0  0  0  0  0  0  0  0  0  0  0  0
   66.6582   51.0246   57.6914 C   0  0  0  0  0  0  0  0  0  0  0  0
   67.6315   51.4614   56.8198 C   0  0  0  0  0  0  0  0  0  0  0  0
   68.5426   50.5714   56.2883 C   0  0  0  0  0  0  0  0  0  0  0  0
  7  8  1  0
  8  9  2  0
  8 10  1  0
 10 11  1  0
 10 15  1  0
 11 12  1  0
 12 13  1  0
 13  6  1  0
 13 14  1  0
  6  1  1  0
  1  2  2  0
  1  5  1  0
  2  3  1  0
  3 16  1  0
  3  4  2  0
 16 17  1  0
 16 23  1  0
 17 18  2  0
 17 22  1  0
 18 19  1  0
 19 20  2  0
 20 21  1  0
 21 22  2  0
 23 24  2  0
 23 28  1  0
 24 25  1  0
 25 26  2  0
 26 27  1  0
 27 28  2  0
  4  5  1  0
 14 15  1  0
M  CHG  1  13   1
M  END
>  <minimizedAffinity>  (372) 
-8.81175

$$$$
data/reference_output_2/data/smiles/145652.pdb
     RDKit          3D

 29 33  0  0  0  0  0  0  0  0999 V2000
   68.8756   40.4477   57.8558 C   0  0  0  0  0  0  0  0  0  0  0  0
   67.7118   40.6349   57.1405 C   0  0  0  0  0  0  0  0  0  0  0  0
   67.5022   41.7742   56.3837 C   0  0  0  0  0  0  0  0  0  0  0  0
   68.4592   42.7651   56.3193 C   0  0  0  0  0  0  0  0  0  0  0  0
   69.5736   42.5372   57.0316 N   0  0  0  0  0  0  0  0  0  0  0  0
   69.7722   41.4452   57.7565 N   0  0  0  0  0  0  0  0  0  0  0  0
   68.2624   43.9464   55.5458 N   0  0  0  0  0  0  0  0  0  0  0  0
   68.7125   45.2071   55.9876 C   0  0  0  0  0  0  0  0  0  0  0  0
   69.3016   45.2302   57.1123 O   0  0  0  0  0  0  0  0  0  0  0  0
   68.5438   46.4137   55.2587 N   0  0  0  0  0  0  0  0  0  0  0  0
   67.9116   46.6213   53.9721 C   0  0  0  0  0  0  0  0  0  0  0  0
   68.8201   47.6655   53.3812 C   0  0  0  0  0  0  0  0  0  0  0  0
   69.1008   48.0489   52.0868 C   0  0  0  0  0  0  0  0  0  0  0  0
   70.0086   49.0679   51.8315 C   0  0  0  0  0  0  0  0  0  0  0  0
   70.6254   49.6918   52.8581 N   0  0  0  0  0  0  0  0  0  0  0  0
   70.3735   49.3422   54.1146 C   0  0  0  0  0  0  0  0  0  0  0  0
   69.4681   48.3244   54.4000 C   0  0  0  0  0  0  0  0  0  0  0  0
   68.9867   47.7258   55.6693 C   0  0  0  0  0  0  0  0  0  0  0  0
   68.2020   38.7072   59.3045 O   0  0  0  0  0  0  0  0  0  0  0  0
   69.1265   39.2536   58.6651 C   0  0  0  0  0  0  0  0  0  0  0  0
   70.4185   38.6700   58.7598 N   0  0  0  0  0  0  0  0  0  0  0  0
   70.7567   37.5212   59.5132 C   0  0  0  0  0  0  0  0  0  0  0  0
   71.3627   36.3950   58.7264 C   0  0  2  0  0  0  0  0  0  0  0  0
   71.8761   35.3595   59.7232 C   0  0  0  0  0  0  0  0  0  0  0  0
   73.2608   35.0529   59.2003 C   0  0  1  0  0  0  0  0  0  0  0  0
   73.1124   34.5035   57.8158 C   0  0  0  0  0  0  0  0  0  0  0  0
   72.8035   35.6928   56.9011 C   0  0  0  0  0  0  0  0  0  0  0  0
   72.5559   36.7748   57.9224 C   0  0  2  0  0  0  0  0  0  0  0  0
   73.7187   36.4886   58.8916 C   0  0  0  0  0  0  0  0  0  0  0  0
 19 20  2  0
 20 21  1  0
 20  1  1  0
 21 22  1  0
 23 22  1  1
 23 24  1  0
 23 28  1  0
 25 24  1  6
 25 26  1  0
 25 29  1  0
 26 27  1  0
 28 27  1  6
 28 29  1  0
  1  2  2  0
  1  6  1  0
  2  3  1  0
  3  4  2  0
  4  7  1  0
  4  5  1  0
  7  8  1  0
  8  9  2  0
  8 10  1  0
 10 11  1  0
 10 18  1  0
 11 12  1  0
 12 13  1  0
 12 17  2  0
 13 14  2  0
 14 15  1  0
 15 16  2  0
 16 17  1  0
 17 18  1  0
  5  6  2  0
M  END
>  <minimizedAffinity>  (373) 
-8.81152

$$$$
data/200k_reference_output/data/smiles/19724.pdb
     RDKit          3D

 27 30  0  0  0  0  0  0  0  0999 V2000
   71.2958   46.9103   58.8839 C   0  0  0  0  0  0  0  0  0  0  0  0
   71.4108   45.5158   58.6556 C   0  0  0  0  0  0  0  0  0  0  0  0
   70.6485   44.8456   57.7586 C   0  0  0  0  0  0  0  0  0  0  0  0
   69.6914   45.5495   57.0129 C   0  0  0  0  0  0  0  0  0  0  0  0
   69.5234   46.8883   57.1765 C   0  0  0  0  0  0  0  0  0  0  0  0
   70.3518   47.5297   58.1224 C   0  0  0  0  0  0  0  0  0  0  0  0
   76.6663   49.1812   59.5645 C   0  0  0  0  0  0  0  0  0  0  0  0
   75.5227   50.0350   59.6197 N   0  0  0  0  0  0  0  0  0  0  0  0
   74.6693   49.9758   58.4823 C   0  0  0  0  0  0  0  0  0  0  0  0
   73.8385   48.7458   58.4576 C   0  0  0  0  0  0  0  0  0  0  0  0
   73.3216   48.3310   59.7042 N   0  0  0  0  0  0  0  0  0  0  0  0
   72.1608   47.4895   59.8795 C   0  0  0  0  0  0  0  0  0  0  0  0
   71.8934   47.2447   61.1375 O   0  0  0  0  0  0  0  0  0  0  0  0
   73.9481   48.7334   60.9668 C   0  0  0  0  0  0  0  0  0  0  0  0
   74.7554   49.9581   60.8440 C   0  0  0  0  0  0  0  0  0  0  0  0
   68.4964   47.6961   56.4470 C   0  0  0  0  0  0  0  0  0  0  0  0
   69.0195   47.9768   55.1278 C   0  0  0  0  0  0  0  0  0  0  0  0
   69.9806   48.9480   55.0572 N   0  0  0  0  0  0  0  0  0  0  0  0
   70.5821   49.2364   53.9129 N   0  0  0  0  0  0  0  0  0  0  0  0
   70.3151   48.6238   52.7524 C   0  0  0  0  0  0  0  0  0  0  0  0
   70.8874   48.9033   51.6806 O   0  0  0  0  0  0  0  0  0  0  0  0
   69.3397   47.6269   52.7724 C   0  0  0  0  0  0  0  0  0  0  0  0
   68.9833   46.9503   51.6207 C   0  0  0  0  0  0  0  0  0  0  0  0
   67.9915   45.9743   51.6843 C   0  0  0  0  0  0  0  0  0  0  0  0
   67.3704   45.6892   52.8951 C   0  0  0  0  0  0  0  0  0  0  0  0
   67.7198   46.3535   54.0326 C   0  0  0  0  0  0  0  0  0  0  0  0
   68.7129   47.3242   53.9516 C   0  0  0  0  0  0  0  0  0  0  0  0
  7  8  1  0
  8  9  1  0
  8 15  1  0
  9 10  1  0
 10 11  1  0
 11 12  1  0
 11 14  1  0
 12 13  2  0
 12  1  1  0
  1  2  2  0
  1  6  1  0
  2  3  1  0
  3  4  2  0
  4  5  1  0
  5 16  1  0
  5  6  2  0
 16 17  1  0
 17 18  2  0
 17 27  1  0
 18 19  1  0
 19 20  1  0
 20 21  2  0
 20 22  1  0
 22 23  1  0
 22 27  2  0
 23 24  2  0
 24 25  1  0
 25 26  2  0
 26 27  1  0
 14 15  1  0
M  CHG  1   8   1
M  END
>  <minimizedAffinity>  (374) 
-8.81101

$$$$
data/reference_output_2/data/smiles/100960.pdb
     RDKit          3D

 28 31  0  0  0  0  0  0  0  0999 V2000
   68.5077   46.1387   54.1701 C   0  0  0  0  0  0  0  0  0  0  0  0
   67.9801   45.7503   52.9561 C   0  0  0  0  0  0  0  0  0  0  0  0
   68.0987   46.5221   51.8189 C   0  0  0  0  0  0  0  0  0  0  0  0
   68.7601   47.7326   51.8480 C   0  0  0  0  0  0  0  0  0  0  0  0
   69.2912   48.1300   53.0579 C   0  0  0  0  0  0  0  0  0  0  0  0
   69.1689   47.3474   54.2013 C   0  0  0  0  0  0  0  0  0  0  0  0
   68.4129   45.7988   56.4871 O   0  0  0  0  0  0  0  0  0  0  0  0
   68.3542   45.2867   55.3397 C   0  0  0  0  0  0  0  0  0  0  0  0
   68.1384   43.8948   55.2769 N   0  0  0  0  0  0  0  0  0  0  0  0
   67.9891   43.0634   56.4053 C   0  0  0  0  0  0  0  0  0  0  0  0
   68.8700   43.1603   57.4118 N   0  0  0  0  0  0  0  0  0  0  0  0
   68.7845   42.3951   58.5197 C   0  0  0  0  0  0  0  0  0  0  0  0
   67.7662   41.4668   58.6588 C   0  0  0  0  0  0  0  0  0  0  0  0
   66.8446   41.3444   57.6412 C   0  0  0  0  0  0  0  0  0  0  0  0
   66.9652   42.1555   56.5053 C   0  0  0  0  0  0  0  0  0  0  0  0
   66.0683   42.0746   55.4526 O   0  0  0  0  0  0  0  0  0  0  0  0
   70.1411   49.6746   53.1128 S   0  0  0  0  0  0  0  0  0  0  0  0
   69.8395   50.4741   51.8696 O   0  0  0  0  0  0  0  0  0  0  0  0
   71.6101   49.3930   53.2319 O   0  0  0  0  0  0  0  0  0  0  0  0
   69.6354   50.5374   54.5017 N   0  0  0  0  0  0  0  0  0  0  0  0
   68.7510   51.7094   54.5699 C   0  0  0  0  0  0  0  0  0  0  0  0
   68.0866   51.5916   55.9263 C   0  0  0  0  0  0  0  0  0  0  0  0
   69.1163   50.8496   56.7368 C   0  0  0  0  0  0  0  0  0  0  0  0
   69.2342   50.7342   58.1137 C   0  0  0  0  0  0  0  0  0  0  0  0
   70.2737   49.9948   58.6322 C   0  0  0  0  0  0  0  0  0  0  0  0
   71.1505   49.4020   57.7497 C   0  0  0  0  0  0  0  0  0  0  0  0
   71.0445   49.5092   56.3843 C   0  0  0  0  0  0  0  0  0  0  0  0
   70.0007   50.2517   55.8664 C   0  0  0  0  0  0  0  0  0  0  0  0
  7  8  2  0
  8  9  1  0
  8  1  1  0
  9 10  1  0
 10 11  2  0
 10 15  1  0
 11 12  1  0
 12 13  2  0
 13 14  1  0
 14 15  2  0
 15 16  1  0
  1  2  2  0
  1  6  1  0
  2  3  1  0
  3  4  2  0
  4  5  1  0
  5 17  1  0
  5  6  2  0
 17 18  2  0
 17 19  2  0
 17 20  1  0
 20 21  1  0
 20 28  1  0
 21 22  1  0
 22 23  1  0
 23 24  1  0
 23 28  2  0
 24 25  2  0
 25 26  1  0
 26 27  2  0
 27 28  1  0
M  END
>  <minimizedAffinity>  (375) 
-8.81074

$$$$
data/reference_output_2/data/smiles/126049.pdb
     RDKit          3D

 25 28  0  0  0  0  0  0  0  0999 V2000
   68.2238   43.8428   56.2578 N   0  0  0  0  0  0  0  0  0  0  0  0
   69.2723   43.3605   57.0637 C   0  0  0  0  0  0  0  0  0  0  0  0
   70.3493   43.9885   57.0663 O   0  0  0  0  0  0  0  0  0  0  0  0
   69.1544   42.1504   57.9040 C   0  0  1  0  0  0  0  0  0  0  0  0
   70.4942   41.4988   58.1074 C   0  0  0  0  0  0  0  0  0  0  0  0
   70.3255   40.2270   58.9061 C   0  0  2  0  0  0  0  0  0  0  0  0
   69.4121   39.2527   58.1640 C   0  0  0  0  0  0  0  0  0  0  0  0
   68.0703   39.8980   57.9484 C   0  0  1  0  0  0  0  0  0  0  0  0
   67.4129   40.3017   59.2487 C   0  0  0  0  0  0  0  0  0  0  0  0
   68.3669   41.1759   60.0156 C   0  0  1  0  0  0  0  0  0  0  0  0
   69.6935   40.4812   60.2491 C   0  0  0  0  0  0  0  0  0  0  0  0
   68.5755   42.4622   59.2636 C   0  0  0  0  0  0  0  0  0  0  0  0
   68.2839   41.1626   57.1443 C   0  0  0  0  0  0  0  0  0  0  0  0
   68.5531   47.3421   53.9076 C   0  0  0  0  0  0  0  0  0  0  0  0
   69.0105   47.2819   55.2187 C   0  0  0  0  0  0  0  0  0  0  0  0
   68.8979   46.1287   55.9826 C   0  0  0  0  0  0  0  0  0  0  0  0
   68.3211   45.0020   55.4457 C   0  0  0  0  0  0  0  0  0  0  0  0
   67.8640   45.0481   54.1492 C   0  0  0  0  0  0  0  0  0  0  0  0
   67.9793   46.2007   53.3901 C   0  0  0  0  0  0  0  0  0  0  0  0
   67.5263   46.2520   52.1006 F   0  0  0  0  0  0  0  0  0  0  0  0
   68.6914   48.5219   53.1893 O   0  0  0  0  0  0  0  0  0  0  0  0
   70.1375   47.1900   51.2348 N   0  0  0  0  0  0  0  0  0  0  0  0
   70.0370   48.6409   52.1450 S   0  0  0  0  0  0  0  0  0  0  0  0
   71.2971   48.9329   52.8980 O   0  0  0  0  0  0  0  0  0  0  0  0
   69.7245   49.7614   51.1774 O   0  0  0  0  0  0  0  0  0  0  0  0
 22 23  1  0
 23 24  2  0
 23 25  2  0
 23 21  1  0
 21 14  1  0
 14 15  2  0
 14 19  1  0
 15 16  1  0
 16 17  2  0
 17  1  1  0
 17 18  1  0
  1  2  1  0
  2  3  2  0
  4  2  1  6
  4  5  1  0
  4 12  1  0
  4 13  1  0
  6  5  1  6
  6  7  1  0
  6 11  1  0
  8  7  1  1
  8  9  1  0
  8 13  1  0
 10  9  1  6
 10 11  1  0
 10 12  1  0
 18 19  2  0
 19 20  1  0
M  END
>  <minimizedAffinity>  (376) 
-8.81074

$$$$
data/reference_output_2/data/smiles/101289.pdb
     RDKit          3D

 27 30  0  0  0  0  0  0  0  0999 V2000
   72.8099   47.1100   60.6324 C   0  0  0  0  0  0  0  0  0  0  0  0
   71.8451   46.8536   59.5355 C   0  0  0  0  0  0  0  0  0  0  0  0
   71.5158   45.5575   59.1941 C   0  0  0  0  0  0  0  0  0  0  0  0
   70.6174   45.2795   58.1734 C   0  0  0  0  0  0  0  0  0  0  0  0
   70.0526   46.3372   57.4967 C   0  0  0  0  0  0  0  0  0  0  0  0
   70.3570   47.6645   57.8079 C   0  0  0  0  0  0  0  0  0  0  0  0
   69.9425   48.8775   57.2989 C   0  0  0  0  0  0  0  0  0  0  0  0
   70.5974   49.8117   58.0222 N   0  0  0  0  0  0  0  0  0  0  0  0
   71.3680   49.2274   58.9223 N   0  0  0  0  0  0  0  0  0  0  0  0
   71.2552   47.8858   58.8304 C   0  0  0  0  0  0  0  0  0  0  0  0
   70.2925   43.8904   57.8394 C   0  0  0  0  0  0  0  0  0  0  0  0
   71.1271   42.8560   57.6735 N   0  0  0  0  0  0  0  0  0  0  0  0
   70.4280   41.7667   57.3778 N   0  0  0  0  0  0  0  0  0  0  0  0
   69.1139   42.0766   57.3459 C   0  0  0  0  0  0  0  0  0  0  0  0
   69.0660   43.3846   57.6329 N   0  0  0  0  0  0  0  0  0  0  0  0
   67.7895   40.9750   57.0003 S   0  0  0  0  0  0  0  0  0  0  0  0
   67.8473   39.6164   58.1383 C   0  0  0  0  0  0  0  0  0  0  0  0
   67.8917   40.4919   55.5620 O   0  0  0  0  0  0  0  0  0  0  0  0
   66.5064   41.7252   57.2135 O   0  0  0  0  0  0  0  0  0  0  0  0
   68.9777   49.0744   56.1885 C   0  0  0  0  0  0  0  0  0  0  0  0
   69.6464   48.9982   54.8383 C   0  0  0  0  0  0  0  0  0  0  0  0
   69.0964   47.9501   53.9684 C   0  0  0  0  0  0  0  0  0  0  0  0
   68.2541   46.9587   54.4238 C   0  0  0  0  0  0  0  0  0  0  0  0
   67.7411   45.9783   53.6070 C   0  0  0  0  0  0  0  0  0  0  0  0
   68.0664   45.9608   52.2677 C   0  0  0  0  0  0  0  0  0  0  0  0
   68.8970   46.9272   51.7854 C   0  0  0  0  0  0  0  0  0  0  0  0
   69.4093   47.9135   52.6242 C   0  0  0  0  0  0  0  0  0  0  0  0
  1  2  1  0
  2  3  2  0
  2 10  1  0
  3  4  1  0
  4 11  1  0
  4  5  2  0
 11 12  2  0
 11 15  1  0
 12 13  1  0
 13 14  2  0
 14 16  1  0
 14 15  1  0
 16 17  1  0
 16 18  2  0
 16 19  2  0
  5  6  1  0
  6  7  1  0
  6 10  2  0
  7 20  1  0
  7  8  2  0
 20 21  1  0
 21 22  1  0
 22 23  2  0
 22 27  1  0
 23 24  1  0
 24 25  2  0
 25 26  1  0
 26 27  2  0
  8  9  1  0
  9 10  1  0
M  END
>  <minimizedAffinity>  (377) 
-8.80958

$$$$
data/200k_reference_output/data/smiles/8168.pdb
     RDKit          3D

 26 28  0  0  0  0  0  0  0  0999 V2000
   68.2592   44.9859   55.8734 N   0  0  0  0  0  0  0  0  0  0  0  0
   68.6906   46.3244   55.8818 C   0  0  0  0  0  0  0  0  0  0  0  0
   69.7541   46.5819   56.5196 O   0  0  0  0  0  0  0  0  0  0  0  0
   68.3233   42.7835   56.6436 C   0  0  0  0  0  0  0  0  0  0  0  0
   68.9114   43.9264   56.5139 N   0  0  0  0  0  0  0  0  0  0  0  0
   70.1783   39.4329   58.5800 C   0  0  0  0  0  0  0  0  0  0  0  0
   70.8141   40.6528   58.4943 C   0  0  0  0  0  0  0  0  0  0  0  0
   70.2178   41.7354   57.8702 C   0  0  0  0  0  0  0  0  0  0  0  0
   68.9662   41.6517   57.3040 C   0  0  0  0  0  0  0  0  0  0  0  0
   68.3306   40.4312   57.3906 C   0  0  0  0  0  0  0  0  0  0  0  0
   68.9233   39.3513   58.0122 C   0  0  0  0  0  0  0  0  0  0  0  0
   71.4214   37.3184   58.4602 C   0  0  0  0  0  0  0  0  0  0  0  0
   70.7691   38.3357   59.2067 O   0  0  0  0  0  0  0  0  0  0  0  0
   68.0212   47.4447   55.2199 C   0  0  0  0  0  0  0  0  0  0  0  0
   68.7856   48.0767   54.1497 C   0  0  0  0  0  0  0  0  0  0  0  0
   69.1678   47.4105   52.9884 C   0  0  0  0  0  0  0  0  0  0  0  0
   69.8939   48.0805   52.0308 C   0  0  0  0  0  0  0  0  0  0  0  0
   70.2603   47.4967   50.9523 O   0  0  0  0  0  0  0  0  0  0  0  0
   70.2189   49.3370   52.2193 O   0  0  0  0  0  0  0  0  0  0  0  0
   69.8869   50.0206   53.2943 C   0  0  0  0  0  0  0  0  0  0  0  0
   70.2410   51.3412   53.4685 C   0  0  0  0  0  0  0  0  0  0  0  0
   69.8843   52.0477   54.6051 C   0  0  0  0  0  0  0  0  0  0  0  0
   69.1577   51.4497   55.6094 C   0  0  0  0  0  0  0  0  0  0  0  0
   68.7623   52.1862   56.8413 C   0  0  0  0  0  0  0  0  0  0  0  0
   68.8099   50.1199   55.4180 C   0  0  0  0  0  0  0  0  0  0  0  0
   69.1561   49.4018   54.2937 C   0  0  0  0  0  0  0  0  0  0  0  0
 12 13  1  0
 13  6  1  0
  6  7  2  0
  6 11  1  0
  7  8  1  0
  8  9  2  0
  9  4  1  0
  9 10  1  0
  4  5  2  0
  5  1  1  0
  1  2  1  0
  2  3  2  0
  2 14  1  0
 14 15  1  0
 15 16  2  0
 15 26  1  0
 16 17  1  0
 17 18  2  0
 17 19  1  0
 19 20  1  0
 20 21  1  0
 20 26  2  0
 21 22  2  0
 22 23  1  0
 23 24  1  0
 23 25  2  0
 25 26  1  0
 10 11  2  0
M  END
>  <minimizedAffinity>  (378) 
-8.80768

$$$$
data/reference_output_2/data/smiles/153521.pdb
     RDKit          3D

 26 29  0  0  0  0  0  0  0  0999 V2000
   68.3744   43.7111   56.2121 C   0  0  0  0  0  0  0  0  0  0  0  0
   69.3151   43.2773   57.1156 C   0  0  0  0  0  0  0  0  0  0  0  0
   69.0207   42.0633   57.6133 N   0  0  0  0  0  0  0  0  0  0  0  0
   67.8475   41.7223   56.9977 C   0  0  0  0  0  0  0  0  0  0  0  0
   67.4714   42.7120   56.1644 N   0  0  0  0  0  0  0  0  0  0  0  0
   68.0221   46.1683   53.3685 C   0  0  0  0  0  0  0  0  0  0  0  0
   68.2499   47.3667   54.0398 C   0  0  0  0  0  0  0  0  0  0  0  0
   68.5080   47.3116   55.3916 C   0  0  0  0  0  0  0  0  0  0  0  0
   68.5438   46.1374   56.0672 N   0  0  0  0  0  0  0  0  0  0  0  0
   68.3291   44.9590   55.4578 C   0  0  0  0  0  0  0  0  0  0  0  0
   68.0695   44.9995   54.1059 C   0  0  0  0  0  0  0  0  0  0  0  0
   66.8775   45.4313   51.4522 O   0  0  0  0  0  0  0  0  0  0  0  0
   67.7439   46.1657   51.9401 C   0  0  0  0  0  0  0  0  0  0  0  0
   68.4639   47.0043   51.1095 O   0  0  0  0  0  0  0  0  0  0  0  0
   69.7520   41.2785   58.5880 C   0  0  0  0  0  0  0  0  0  0  0  0
   69.3961   39.8213   58.4936 C   0  0  0  0  0  0  0  0  0  0  0  0
   70.3371   38.8903   58.8989 N   0  0  1  0  0  0  0  0  0  0  0  0
   70.0669   37.9532   59.9132 C   0  0  0  0  0  0  0  0  0  0  0  0
   70.7799   36.7082   59.5098 C   0  0  0  0  0  0  0  0  0  0  0  0
   70.7926   35.4200   59.9911 C   0  0  0  0  0  0  0  0  0  0  0  0
   71.5617   34.4244   59.4123 C   0  0  0  0  0  0  0  0  0  0  0  0
   72.3335   34.7281   58.3284 C   0  0  0  0  0  0  0  0  0  0  0  0
   73.0901   33.7621   57.7532 F   0  0  0  0  0  0  0  0  0  0  0  0
   72.3328   36.0266   57.8261 C   0  0  0  0  0  0  0  0  0  0  0  0
   71.5682   37.0141   58.4035 C   0  0  0  0  0  0  0  0  0  0  0  0
   71.3908   38.4754   58.0658 C   0  0  0  0  0  0  0  0  0  0  0  0
 12 13  2  0
 13 14  1  0
 13  6  1  0
  6  7  2  0
  6 11  1  0
  7  8  1  0
  8  9  2  0
  9 10  1  0
 10  1  1  0
 10 11  2  0
  1  2  2  0
  1  5  1  0
  2  3  1  0
  3 15  1  0
  3  4  1  0
 15 16  1  0
 17 16  1  6
 17 18  1  0
 17 26  1  0
 18 19  1  0
 19 20  1  0
 19 25  2  0
 20 21  2  0
 21 22  1  0
 22 23  1  0
 22 24  2  0
 24 25  1  0
 25 26  1  0
  4  5  2  0
M  CHG  1  17   1
M  END
>  <minimizedAffinity>  (379) 
-8.80718

$$$$
data/200k_reference_output/data/smiles/44411.pdb
     RDKit          3D

 26 29  0  0  0  0  0  0  0  0999 V2000
   69.3465   45.0434   56.7336 C   0  0  0  0  0  0  0  0  0  0  0  0
   70.3625   44.4953   57.4242 N   0  0  0  0  0  0  0  0  0  0  0  0
   70.4429   43.1853   57.7178 C   0  0  0  0  0  0  0  0  0  0  0  0
   71.4931   42.6384   58.4269 C   0  0  0  0  0  0  0  0  0  0  0  0
   71.5659   41.2891   58.7245 C   0  0  0  0  0  0  0  0  0  0  0  0
   70.5656   40.4346   58.3093 C   0  0  0  0  0  0  0  0  0  0  0  0
   69.5179   40.9854   57.6005 C   0  0  0  0  0  0  0  0  0  0  0  0
   69.4423   42.3317   57.3025 C   0  0  0  0  0  0  0  0  0  0  0  0
   68.3997   42.8934   56.5943 C   0  0  0  0  0  0  0  0  0  0  0  0
   67.4653   42.1516   56.1961 O   0  0  0  0  0  0  0  0  0  0  0  0
   68.3633   44.2246   56.3215 N   0  0  0  0  0  0  0  0  0  0  0  0
   70.6055   38.9942   58.6063 C   0  0  0  0  0  0  0  0  0  0  0  0
   69.7526   38.2688   59.4191 C   0  0  0  0  0  0  0  0  0  0  0  0
   70.1649   36.9971   59.3969 N   0  0  0  0  0  0  0  0  0  0  0  0
   71.2251   36.8547   58.6251 N   0  0  0  0  0  0  0  0  0  0  0  0
   71.5174   38.0663   58.1258 C   0  0  0  0  0  0  0  0  0  0  0  0
   69.3833   47.2283   57.6871 N   0  0  0  0  0  0  0  0  0  0  0  0
   69.3093   46.5137   56.4353 C   0  0  2  0  0  0  0  0  0  0  0  0
   68.0775   46.8836   55.6427 C   0  0  0  0  0  0  0  0  0  0  0  0
   68.3832   46.9283   54.1907 C   0  0  0  0  0  0  0  0  0  0  0  0
   67.7319   46.0539   53.3543 C   0  0  0  0  0  0  0  0  0  0  0  0
   67.9587   46.0273   51.9769 C   0  0  0  0  0  0  0  0  0  0  0  0
   68.8700   46.9152   51.4498 C   0  0  0  0  0  0  0  0  0  0  0  0
   69.5277   47.7962   52.2805 C   0  0  0  0  0  0  0  0  0  0  0  0
   70.4340   48.6890   51.8047 F   0  0  0  0  0  0  0  0  0  0  0  0
   69.2838   47.8035   53.6552 C   0  0  0  0  0  0  0  0  0  0  0  0
 18 17  1  1
 18 19  1  0
 18  1  1  0
 19 20  1  0
 20 21  2  0
 20 26  1  0
 21 22  1  0
 22 23  2  0
 23 24  1  0
 24 25  1  0
 24 26  2  0
  1  2  2  0
  1 11  1  0
  2  3  1  0
  3  4  2  0
  3  8  1  0
  4  5  1  0
  5  6  2  0
  6 12  1  0
  6  7  1  0
 12 13  1  0
 12 16  2  0
 13 14  2  0
 14 15  1  0
 15 16  1  0
  7  8  2  0
  8  9  1  0
  9 10  2  0
  9 11  1  0
M  CHG  1  17   1
M  END
>  <minimizedAffinity>  (380) 
-8.80632

$$$$
data/reference_output_2/data/smiles/178528.pdb
     RDKit          3D

 28 31  0  0  0  0  0  0  0  0999 V2000
   71.7533   47.8401   58.6240 C   0  0  0  0  0  0  0  0  0  0  0  0
   71.4915   46.4289   58.6016 C   0  0  0  0  0  0  0  0  0  0  0  0
   70.0708   46.3496   57.4912 S   0  0  0  0  0  0  0  0  0  0  0  0
   69.9263   48.0417   57.1549 C   0  0  0  0  0  0  0  0  0  0  0  0
   70.9241   48.5774   57.8712 C   0  0  0  0  0  0  0  0  0  0  0  0
   78.2601   50.6943   57.0061 C   0  0  0  0  0  0  0  0  0  0  0  0
   77.9593   50.2258   58.3686 C   0  0  0  0  0  0  0  0  0  0  0  0
   78.6765   50.5677   59.3200 O   0  0  0  0  0  0  0  0  0  0  0  0
   76.8475   49.3811   58.5898 N   0  0  0  0  0  0  0  0  0  0  0  0
   76.0546   49.0005   57.4608 C   0  0  0  0  0  0  0  0  0  0  0  0
   74.6654   48.5655   57.7870 C   0  0  0  0  0  0  0  0  0  0  0  0
   74.1976   48.6287   59.1125 N   0  0  0  0  0  0  0  0  0  0  0  0
   72.8833   48.2784   59.4799 C   0  0  0  0  0  0  0  0  0  0  0  0
   72.6227   48.3552   60.7661 O   0  0  0  0  0  0  0  0  0  0  0  0
   75.0732   49.1214   60.1942 C   0  0  0  0  0  0  0  0  0  0  0  0
   76.4938   48.8928   59.9044 C   0  0  0  0  0  0  0  0  0  0  0  0
   68.8768   48.5524   56.2797 C   0  0  0  0  0  0  0  0  0  0  0  0
   69.2958   48.4969   54.8721 C   0  0  0  0  0  0  0  0  0  0  0  0
   70.1856   49.4273   54.4358 N   0  0  0  0  0  0  0  0  0  0  0  0
   70.5946   49.5132   53.1934 N   0  0  0  0  0  0  0  0  0  0  0  0
   70.1535   48.6641   52.2256 C   0  0  0  0  0  0  0  0  0  0  0  0
   70.5714   48.7807   51.0352 O   0  0  0  0  0  0  0  0  0  0  0  0
   69.2497   47.6965   52.6094 C   0  0  0  0  0  0  0  0  0  0  0  0
   68.7781   46.7982   51.7115 C   0  0  0  0  0  0  0  0  0  0  0  0
   67.8823   45.7857   52.0491 C   0  0  0  0  0  0  0  0  0  0  0  0
   67.4818   45.7283   53.3695 C   0  0  0  0  0  0  0  0  0  0  0  0
   67.9310   46.6162   54.3165 C   0  0  0  0  0  0  0  0  0  0  0  0
   68.8195   47.6112   53.9393 C   0  0  0  0  0  0  0  0  0  0  0  0
  6  7  1  0
  7  8  2  0
  7  9  1  0
  9 10  1  0
  9 16  1  0
 10 11  1  0
 11 12  1  0
 12 13  1  0
 12 15  1  0
 13 14  2  0
 13  1  1  0
  1  2  2  0
  1  5  1  0
  2  3  1  0
  3  4  1  0
  4 17  1  0
  4  5  2  0
 17 18  1  0
 18 19  2  0
 18 28  1  0
 19 20  1  0
 20 21  1  0
 21 22  2  0
 21 23  1  0
 23 24  1  0
 23 28  2  0
 24 25  2  0
 25 26  1  0
 26 27  2  0
 27 28  1  0
 15 16  1  0
M  END
>  <minimizedAffinity>  (381) 
-8.80520

$$$$
data/200k_reference_output/data/smiles/21480.pdb
     RDKit          3D

 28 32  0  0  0  0  0  0  0  0999 V2000
   69.5754   46.4168   57.2184 C   0  0  0  0  0  0  0  0  0  0  0  0
   69.2681   45.1332   56.9766 N   0  0  0  0  0  0  0  0  0  0  0  0
   70.1899   44.3445   57.5157 N   0  0  0  0  0  0  0  0  0  0  0  0
   71.1285   45.0902   58.1266 C   0  0  0  0  0  0  0  0  0  0  0  0
   72.2823   44.8269   58.8295 C   0  0  0  0  0  0  0  0  0  0  0  0
   73.0457   45.8782   59.3452 C   0  0  0  0  0  0  0  0  0  0  0  0
   72.6860   47.1969   59.1758 C   0  0  0  0  0  0  0  0  0  0  0  0
   71.5250   47.4340   58.4667 C   0  0  0  0  0  0  0  0  0  0  0  0
   70.7476   46.3930   57.9427 C   0  0  0  0  0  0  0  0  0  0  0  0
   73.4888   48.2477   59.7110 N   0  0  0  0  0  0  0  0  0  0  0  0
   73.6934   48.2836   61.1577 C   0  0  0  0  0  0  0  0  0  0  0  0
   74.9320   49.1175   61.4297 C   0  0  0  0  0  0  0  0  0  0  0  0
   74.7447   50.4784   60.9878 N   0  0  0  0  0  0  0  0  0  0  0  0
   74.2292   50.5986   59.6597 C   0  0  0  0  0  0  0  0  0  0  0  0
   74.1090   49.2742   58.9327 C   0  0  0  0  0  0  0  0  0  0  0  0
   69.0175   48.9761   57.7052 O   0  0  0  0  0  0  0  0  0  0  0  0
   68.7092   47.8601   56.7459 S   0  0  0  0  0  0  0  0  0  0  0  0
   67.2628   47.4852   56.7755 O   0  0  0  0  0  0  0  0  0  0  0  0
   69.2663   48.2607   55.1242 C   0  0  0  0  0  0  0  0  0  0  0  0
   70.1265   49.3102   54.8783 C   0  0  0  0  0  0  0  0  0  0  0  0
   70.5477   49.5994   53.5863 C   0  0  0  0  0  0  0  0  0  0  0  0
   70.1013   48.8292   52.5318 C   0  0  0  0  0  0  0  0  0  0  0  0
   69.2311   47.7573   52.7322 C   0  0  0  0  0  0  0  0  0  0  0  0
   68.7854   46.9876   51.6764 C   0  0  0  0  0  0  0  0  0  0  0  0
   67.9268   45.9346   51.8907 C   0  0  0  0  0  0  0  0  0  0  0  0
   67.5325   45.6795   53.1875 C   0  0  0  0  0  0  0  0  0  0  0  0
   67.9795   46.4517   54.2456 C   0  0  0  0  0  0  0  0  0  0  0  0
   68.8442   47.5140   54.0346 C   0  0  0  0  0  0  0  0  0  0  0  0
 16 17  2  0
 17 18  2  0
 17 19  1  0
 17  1  1  0
 19 20  2  0
 19 28  1  0
 20 21  1  0
 21 22  2  0
 22 23  1  0
 23 24  1  0
 23 28  2  0
 24 25  2  0
 25 26  1  0
 26 27  2  0
 27 28  1  0
  1  2  2  0
  1  9  1  0
  2  3  1  0
  3  4  1  0
  4  5  1  0
  4  9  2  0
  5  6  2  0
  6  7  1  0
  7 10  1  0
  7  8  2  0
 10 11  1  0
 10 15  1  0
 11 12  1  0
 12 13  1  0
 13 14  1  0
 14 15  1  0
  8  9  1  0
M  CHG  1  13   1
M  END
>  <minimizedAffinity>  (382) 
-8.80155

$$$$
data/reference_output_2/data/smiles/100290.pdb
     RDKit          3D

 26 28  0  0  0  0  0  0  0  0999 V2000
   69.7029   41.6940   57.6821 C   0  0  0  0  0  0  0  0  0  0  0  0
   69.7559   43.1564   57.4371 C   0  0  0  0  0  0  0  0  0  0  0  0
   68.8552   43.7011   56.5633 C   0  0  0  0  0  0  0  0  0  0  0  0
   67.9180   43.0044   55.9035 F   0  0  0  0  0  0  0  0  0  0  0  0
   68.9191   45.0898   56.3422 C   0  0  0  0  0  0  0  0  0  0  0  0
   69.8532   45.7691   57.0038 N   0  0  0  0  0  0  0  0  0  0  0  0
   70.7485   45.2542   57.8667 C   0  0  0  0  0  0  0  0  0  0  0  0
   70.6943   43.8896   58.0908 C   0  0  0  0  0  0  0  0  0  0  0  0
   71.5876   43.3599   58.9566 F   0  0  0  0  0  0  0  0  0  0  0  0
   71.6865   46.0875   58.4996 N   0  0  0  0  0  0  0  0  0  0  0  0
   73.1022   46.0122   58.3665 C   0  0  0  0  0  0  0  0  0  0  0  0
   73.6022   46.4239   59.7196 C   0  0  0  0  0  0  0  0  0  0  0  0
   72.4155   46.9508   60.4865 C   0  0  0  0  0  0  0  0  0  0  0  0
   71.3783   47.1570   59.3842 C   0  0  1  0  0  0  0  0  0  0  0  0
   71.6523   48.5325   58.8118 C   0  0  0  0  0  0  0  0  0  0  0  0
   70.9963   48.7362   57.6117 O   0  0  0  0  0  0  0  0  0  0  0  0
   68.0607   45.6954   55.4913 O   0  0  0  0  0  0  0  0  0  0  0  0
   68.2895   46.1773   54.2466 C   0  0  0  0  0  0  0  0  0  0  0  0
   67.6285   45.5244   53.1877 C   0  0  0  0  0  0  0  0  0  0  0  0
   67.7899   45.9299   51.9030 C   0  0  0  0  0  0  0  0  0  0  0  0
   68.5915   46.9822   51.5495 C   0  0  0  0  0  0  0  0  0  0  0  0
   69.2510   47.6394   52.5621 C   0  0  0  0  0  0  0  0  0  0  0  0
   69.0878   47.2261   53.8889 C   0  0  0  0  0  0  0  0  0  0  0  0
   70.1183   48.7732   52.2118 C   0  0  0  0  0  0  0  0  0  0  0  0
   69.8840   49.4077   51.1169 N   0  0  0  0  0  0  0  0  0  0  0  0
   71.1873   49.1769   53.0361 N   0  0  0  0  0  0  0  0  0  0  0  0
  1  2  1  0
  2  3  2  0
  2  8  1  0
  3  4  1  0
  3  5  1  0
  5 17  1  0
  5  6  2  0
 17 18  1  0
 18 19  2  0
 18 23  1  0
 19 20  1  0
 20 21  2  0
 21 22  1  0
 22 24  1  0
 22 23  2  0
 24 25  2  0
 24 26  1  0
  6  7  1  0
  7 10  1  0
  7  8  2  0
 10 11  1  0
 10 14  1  0
 11 12  1  0
 12 13  1  0
 13 14  1  0
 14 15  1  6
 15 16  1  0
  8  9  1  0
M  CHG  1  25   1
M  END
>  <minimizedAffinity>  (383) 
-8.80039

$$$$
data/reference_output_2/data/smiles/152215.pdb
     RDKit          3D

 26 27  0  0  0  0  0  0  0  0999 V2000
   67.9361   42.0946   56.9555 N   0  0  0  0  0  0  0  0  0  0  0  0
   67.9783   40.7228   56.7206 C   0  0  0  0  0  0  0  0  0  0  0  0
   67.6804   40.3520   55.5286 O   0  0  0  0  0  0  0  0  0  0  0  0
   67.8858   45.2233   54.8182 N   0  0  0  0  0  0  0  0  0  0  0  0
   68.2034   44.2785   55.8165 C   0  0  0  0  0  0  0  0  0  0  0  0
   69.0988   44.5927   56.6482 O   0  0  0  0  0  0  0  0  0  0  0  0
   67.5962   43.0072   55.9540 N   0  0  0  0  0  0  0  0  0  0  0  0
   69.7121   48.8120   51.9555 C   0  0  0  0  0  0  0  0  0  0  0  0
   69.3835   48.2504   53.2924 C   0  0  0  0  0  0  0  0  0  0  0  0
   69.6692   48.9702   54.4130 C   0  0  0  0  0  0  0  0  0  0  0  0
   69.3825   48.4873   55.6689 C   0  0  0  0  0  0  0  0  0  0  0  0
   68.7818   47.2248   55.7874 C   0  0  0  0  0  0  0  0  0  0  0  0
   68.4857   46.4843   54.6784 C   0  0  0  0  0  0  0  0  0  0  0  0
   68.7881   47.0020   53.4494 C   0  0  0  0  0  0  0  0  0  0  0  0
   68.4732   46.2102   52.2245 C   0  0  0  0  0  0  0  0  0  0  0  0
   68.3131   39.6446   57.6456 C   0  0  0  0  0  0  0  0  0  0  0  0
   69.5681   39.6381   58.2126 O   0  0  0  0  0  0  0  0  0  0  0  0
   70.2119   38.4474   58.5403 C   0  0  0  0  0  0  0  0  0  0  0  0
   71.3220   37.9622   57.8828 C   0  0  0  0  0  0  0  0  0  0  0  0
   71.9151   36.7762   58.2554 C   0  0  0  0  0  0  0  0  0  0  0  0
   71.4466   36.0034   59.2956 C   0  0  0  0  0  0  0  0  0  0  0  0
   70.3349   36.4837   59.9577 C   0  0  0  0  0  0  0  0  0  0  0  0
   69.7354   37.6611   59.5979 C   0  0  0  0  0  0  0  0  0  0  0  0
   72.0783   34.7825   59.6590 N   0  0  0  0  0  0  0  0  0  0  0  0
   71.7076   33.6959   59.2217 O   0  0  0  0  0  0  0  0  0  0  0  0
   73.1365   34.8413   60.5294 O   0  0  0  0  0  0  0  0  0  0  0  0
  8  9  1  0
  9 10  2  0
  9 14  1  0
 10 11  1  0
 11 12  2  0
 12 13  1  0
 13  4  1  0
 13 14  2  0
  4  5  1  0
  5  6  2  0
  5  7  1  0
  7  1  1  0
  1  2  1  0
  2  3  2  0
  2 16  1  0
 16 17  1  0
 17 18  1  0
 18 19  2  0
 18 23  1  0
 19 20  1  0
 20 21  2  0
 21 24  1  0
 21 22  1  0
 24 25  2  0
 24 26  1  0
 22 23  2  0
 14 15  1  0
M  CHG  2  24   1  26  -1
M  END
>  <minimizedAffinity>  (384) 
-8.79970

$$$$
data/reference_output_2/data/smiles/125018.pdb
     RDKit          3D

 27 30  0  0  0  0  0  0  0  0999 V2000
   71.3542   46.0151   58.8257 C   0  0  0  0  0  0  0  0  0  0  0  0
   72.0399   46.3133   59.9836 C   0  0  0  0  0  0  0  0  0  0  0  0
   72.1238   47.6076   60.4453 C   0  0  0  0  0  0  0  0  0  0  0  0
   72.7388   47.9304   61.4982 O   0  0  0  0  0  0  0  0  0  0  0  0
   71.5228   48.5842   59.7442 N   0  0  0  0  0  0  0  0  0  0  0  0
   70.8402   48.3290   58.6014 C   0  0  0  0  0  0  0  0  0  0  0  0
   70.7825   47.0654   58.1905 N   0  0  0  0  0  0  0  0  0  0  0  0
   68.7015   42.1799   56.9861 C   0  0  0  0  0  0  0  0  0  0  0  0
   69.9830   42.7956   57.4105 C   0  0  0  0  0  0  0  0  0  0  0  0
   70.0557   44.0890   57.9064 C   0  0  0  0  0  0  0  0  0  0  0  0
   71.2397   44.6603   58.3004 C   0  0  0  0  0  0  0  0  0  0  0  0
   72.3851   43.9030   58.1897 C   0  0  0  0  0  0  0  0  0  0  0  0
   72.3069   42.5998   57.6891 C   0  0  0  0  0  0  0  0  0  0  0  0
   71.1173   42.1007   57.3215 N   0  0  0  0  0  0  0  0  0  0  0  0
   70.1947   49.4470   57.8671 C   0  0  0  0  0  0  0  0  0  0  0  0
   70.3464   49.2466   56.4048 C   0  0  0  0  0  0  0  0  0  0  0  0
   71.2659   49.8326   55.7938 O   0  0  0  0  0  0  0  0  0  0  0  0
   69.4697   48.4028   55.6789 N   0  0  0  0  0  0  0  0  0  0  0  0
   68.3660   47.6672   56.2668 C   0  0  0  0  0  0  0  0  0  0  0  0
   68.1026   46.5340   55.2964 C   0  0  0  0  0  0  0  0  0  0  0  0
   68.7131   47.0378   54.0259 C   0  0  0  0  0  0  0  0  0  0  0  0
   68.5717   46.5589   52.7391 C   0  0  0  0  0  0  0  0  0  0  0  0
   67.7922   45.4927   52.5170 F   0  0  0  0  0  0  0  0  0  0  0  0
   69.2398   47.1935   51.7101 C   0  0  0  0  0  0  0  0  0  0  0  0
   70.0278   48.2864   51.9986 C   0  0  0  0  0  0  0  0  0  0  0  0
   70.1718   48.7691   53.2845 C   0  0  0  0  0  0  0  0  0  0  0  0
   69.4988   48.1243   54.2963 C   0  0  0  0  0  0  0  0  0  0  0  0
  8  9  1  0
  9 10  2  0
  9 14  1  0
 10 11  1  0
 11  1  1  0
 11 12  2  0
  1  2  2  0
  1  7  1  0
  2  3  1  0
  3  4  2  0
  3  5  1  0
  5  6  1  0
  6 15  1  0
  6  7  2  0
 15 16  1  0
 16 17  2  0
 16 18  1  0
 18 19  1  0
 18 27  1  0
 19 20  1  0
 20 21  1  0
 21 22  1  0
 21 27  2  0
 22 23  1  0
 22 24  2  0
 24 25  1  0
 25 26  2  0
 26 27  1  0
 12 13  1  0
 13 14  2  0
M  END
>  <minimizedAffinity>  (385) 
-8.79965

$$$$
data/200k_reference_output/data/smiles/75920.pdb
     RDKit          3D

 29 32  0  0  0  0  0  0  0  0999 V2000
   67.9284   40.5198   58.0882 C   0  0  0  0  0  0  0  0  0  0  0  0
   67.3879   40.5455   59.2198 O   0  0  0  0  0  0  0  0  0  0  0  0
   68.8705   39.4863   57.8280 N   0  0  0  0  0  0  0  0  0  0  0  0
   67.7506   43.4095   55.8529 N   0  0  0  0  0  0  0  0  0  0  0  0
   66.7945   42.6498   55.3610 N   0  0  0  0  0  0  0  0  0  0  0  0
   66.6723   41.4856   56.0559 C   0  0  0  0  0  0  0  0  0  0  0  0
   67.6122   41.5077   57.0540 C   0  0  0  0  0  0  0  0  0  0  0  0
   68.2673   42.7198   56.9007 C   0  0  0  0  0  0  0  0  0  0  0  0
   69.3734   43.2255   57.7300 C   0  0  0  0  0  0  0  0  0  0  0  0
   68.3591   46.5694   52.1641 C   0  0  0  0  0  0  0  0  0  0  0  0
   68.4559   46.2071   53.6020 C   0  0  0  0  0  0  0  0  0  0  0  0
   68.9680   47.1817   54.4603 C   0  0  0  0  0  0  0  0  0  0  0  0
   69.0547   46.8477   55.7867 C   0  0  0  0  0  0  0  0  0  0  0  0
   69.5170   47.7264   56.5662 O   0  0  0  0  0  0  0  0  0  0  0  0
   68.6611   45.6373   56.2097 N   0  0  0  0  0  0  0  0  0  0  0  0
   68.1689   44.6966   55.3929 C   0  0  0  0  0  0  0  0  0  0  0  0
   68.0806   45.0167   54.0921 N   0  0  0  0  0  0  0  0  0  0  0  0
   69.2540   38.4574   58.7415 C   0  0  0  0  0  0  0  0  0  0  0  0
   70.7510   38.5251   59.0273 C   0  0  0  0  0  0  0  0  0  0  0  0
   71.3614   39.7443   58.3726 C   0  0  0  0  0  0  0  0  0  0  0  0
   72.6923   39.9490   59.0755 C   0  0  0  0  0  0  0  0  0  0  0  0
   72.4454   39.3774   60.4502 C   0  0  0  0  0  0  0  0  0  0  0  0
   71.0293   38.8391   60.4755 C   0  0  0  0  0  0  0  0  0  0  0  0
   71.3796   37.2558   58.6743 C   0  0  0  0  0  0  0  0  0  0  0  0
   72.0796   37.1373   57.5009 C   0  0  0  0  0  0  0  0  0  0  0  0
   72.6993   35.9484   57.0912 C   0  0  0  0  0  0  0  0  0  0  0  0
   72.6092   34.8575   57.8858 C   0  0  0  0  0  0  0  0  0  0  0  0
   71.9139   34.9424   59.0708 C   0  0  0  0  0  0  0  0  0  0  0  0
   71.3141   36.1147   59.4553 C   0  0  0  0  0  0  0  0  0  0  0  0
 10 11  1  0
 11 12  2  0
 11 17  1  0
 12 13  1  0
 13 14  2  0
 13 15  1  0
 15 16  1  0
 16  4  1  0
 16 17  2  0
  4  5  1  0
  4  8  1  0
  5  6  2  0
  6  7  1  0
  7  1  1  0
  7  8  2  0
  1  2  2  0
  1  3  1  0
  3 18  1  0
 18 19  1  0
 19 24  1  0
 19 20  1  0
 19 23  1  0
 24 25  2  0
 24 29  1  0
 25 26  1  0
 26 27  2  0
 27 28  1  0
 28 29  2  0
 20 21  1  0
 21 22  1  0
 22 23  1  0
  8  9  1  0
M  END
>  <minimizedAffinity>  (386) 
-8.79855

$$$$
data/reference_output_2/data/smiles/149618.pdb
     RDKit          3D

 28 31  0  0  0  0  0  0  0  0999 V2000
   69.0335   40.2209   57.7733 C   0  0  0  0  0  0  0  0  0  0  0  0
   67.9630   40.0903   56.9077 C   0  0  0  0  0  0  0  0  0  0  0  0
   67.4895   41.1869   56.2189 C   0  0  0  0  0  0  0  0  0  0  0  0
   68.0781   42.4182   56.3861 C   0  0  0  0  0  0  0  0  0  0  0  0
   69.1650   42.6014   57.2507 C   0  0  0  0  0  0  0  0  0  0  0  0
   69.5940   41.4835   57.9089 C   0  0  0  0  0  0  0  0  0  0  0  0
   73.0187   36.3044   57.6711 C   0  0  0  0  0  0  0  0  0  0  0  0
   72.0233   36.3065   58.7190 N   0  0  0  0  0  0  0  0  0  0  0  0
   71.9778   35.4002   59.7157 C   0  0  0  0  0  0  0  0  0  0  0  0
   72.7767   34.4205   59.8979 O   0  0  0  0  0  0  0  0  0  0  0  0
   70.9328   35.7137   60.4884 N   0  0  0  0  0  0  0  0  0  0  0  0
   70.3374   36.8096   59.9706 C   0  0  0  0  0  0  0  0  0  0  0  0
   69.2671   37.5490   60.3237 N   0  0  0  0  0  0  0  0  0  0  0  0
   68.8663   38.6209   59.6256 C   0  0  0  0  0  0  0  0  0  0  0  0
   69.5140   39.0546   58.4895 C   0  0  0  0  0  0  0  0  0  0  0  0
   70.6092   38.3128   58.1112 C   0  0  0  0  0  0  0  0  0  0  0  0
   71.0262   37.2039   58.8324 C   0  0  0  0  0  0  0  0  0  0  0  0
   69.7475   43.9292   57.3899 C   0  0  0  0  0  0  0  0  0  0  0  0
   70.8140   44.0682   58.0195 O   0  0  0  0  0  0  0  0  0  0  0  0
   69.1491   45.0857   56.8343 N   0  0  0  0  0  0  0  0  0  0  0  0
   69.7109   46.4121   56.9588 C   0  0  0  0  0  0  0  0  0  0  0  0
   68.9089   47.4771   56.2506 C   0  0  0  0  0  0  0  0  0  0  0  0
   68.7618   47.1929   54.8041 C   0  0  0  0  0  0  0  0  0  0  0  0
   69.4089   47.9815   53.8793 C   0  0  0  0  0  0  0  0  0  0  0  0
   69.2766   47.7202   52.5109 C   0  0  0  0  0  0  0  0  0  0  0  0
   68.5090   46.6855   52.0595 C   0  0  0  0  0  0  0  0  0  0  0  0
   67.8514   45.8851   52.9951 C   0  0  0  0  0  0  0  0  0  0  0  0
   67.9908   46.1540   54.3424 C   0  0  0  0  0  0  0  0  0  0  0  0
  7  8  1  0
  8  9  1  0
  8 17  1  0
  9 10  2  0
  9 11  1  0
 11 12  1  0
 12 13  1  0
 12 17  2  0
 13 14  2  0
 14 15  1  0
 15  1  1  0
 15 16  2  0
  1  2  2  0
  1  6  1  0
  2  3  1  0
  3  4  2  0
  4  5  1  0
  5 18  1  0
  5  6  2  0
 18 19  2  0
 18 20  1  0
 20 21  1  0
 21 22  1  0
 22 23  1  0
 23 24  2  0
 23 28  1  0
 24 25  1  0
 25 26  2  0
 26 27  1  0
 27 28  2  0
 16 17  1  0
M  END
>  <minimizedAffinity>  (387) 
-8.79683

$$$$
data/reference_output_2/data/smiles/150103.pdb
     RDKit          3D

 27 31  0  0  0  0  0  0  0  0999 V2000
   72.2480   46.8111   59.7214 C   0  0  0  0  0  0  0  0  0  0  0  0
   72.4178   45.4342   59.8967 C   0  0  0  0  0  0  0  0  0  0  0  0
   71.6722   44.5083   59.2059 C   0  0  0  0  0  0  0  0  0  0  0  0
   70.7163   44.9069   58.3027 C   0  0  0  0  0  0  0  0  0  0  0  0
   69.8504   44.2369   57.5190 N   0  0  0  0  0  0  0  0  0  0  0  0
   69.1470   45.1346   56.8607 N   0  0  0  0  0  0  0  0  0  0  0  0
   69.5389   46.4053   57.1981 C   0  0  0  0  0  0  0  0  0  0  0  0
   70.5344   46.2636   58.1149 C   0  0  0  0  0  0  0  0  0  0  0  0
   71.2879   47.1697   58.8138 C   0  0  0  0  0  0  0  0  0  0  0  0
   75.3171   49.5477   61.9971 N   0  0  0  0  0  0  0  0  0  0  0  0
   74.7607   48.4951   61.1944 C   0  0  0  0  0  0  0  0  0  0  0  0
   73.7050   48.9663   60.1906 C   0  0  0  0  0  0  0  0  0  0  0  0
   73.0350   47.7192   60.4518 N   0  0  0  0  0  0  0  0  0  0  0  0
   73.5307   47.8127   61.7992 C   0  0  0  0  0  0  0  0  0  0  0  0
   68.7469   47.8000   56.5310 S   0  0  0  0  0  0  0  0  0  0  0  0
   67.2537   47.4988   56.5901 O   0  0  0  0  0  0  0  0  0  0  0  0
   68.9306   49.0106   57.4179 O   0  0  0  0  0  0  0  0  0  0  0  0
   69.1802   48.1274   54.8941 C   0  0  0  0  0  0  0  0  0  0  0  0
   69.9875   49.2311   54.5862 C   0  0  0  0  0  0  0  0  0  0  0  0
   70.3521   49.5763   53.3178 C   0  0  0  0  0  0  0  0  0  0  0  0
   69.9029   48.7952   52.2595 C   0  0  0  0  0  0  0  0  0  0  0  0
   69.1103   47.7032   52.5174 C   0  0  0  0  0  0  0  0  0  0  0  0
   68.6797   46.9352   51.4656 C   0  0  0  0  0  0  0  0  0  0  0  0
   67.8833   45.8162   51.6748 C   0  0  0  0  0  0  0  0  0  0  0  0
   67.5204   45.4732   52.9618 C   0  0  0  0  0  0  0  0  0  0  0  0
   67.9696   46.2660   53.9962 C   0  0  0  0  0  0  0  0  0  0  0  0
   68.7595   47.3834   53.8309 C   0  0  0  0  0  0  0  0  0  0  0  0
 10 11  1  0
 11 12  1  0
 11 14  1  0
 12 13  1  0
 13  1  1  0
 13 14  1  0
  1  2  2  0
  1  9  1  0
  2  3  1  0
  3  4  2  0
  4  5  1  0
  4  8  1  0
  5  6  1  0
  6  7  2  0
  7 15  1  0
  7  8  1  0
 15 16  2  0
 15 17  2  0
 15 18  1  0
 18 19  2  0
 18 27  1  0
 19 20  1  0
 20 21  2  0
 21 22  1  0
 22 23  1  0
 22 27  2  0
 23 24  2  0
 24 25  1  0
 25 26  2  0
 26 27  1  0
  8  9  2  0
M  CHG  1  10   1
M  END
>  <minimizedAffinity>  (388) 
-8.79597

$$$$
data/200k_reference_output/data/smiles/28188.pdb
     RDKit          3D

 26 28  0  0  0  0  0  0  0  0999 V2000
   70.9331   45.7466   59.4847 O   0  0  0  0  0  0  0  0  0  0  0  0
   70.4969   46.1779   58.3989 C   0  0  0  0  0  0  0  0  0  0  0  0
   69.8854   45.2652   57.5117 N   0  0  0  0  0  0  0  0  0  0  0  0
   69.7972   43.9272   57.8947 N   0  0  0  0  0  0  0  0  0  0  0  0
   69.0791   42.9432   57.1571 C   0  0  0  0  0  0  0  0  0  0  0  0
   68.4822   43.2612   56.0963 O   0  0  0  0  0  0  0  0  0  0  0  0
   69.0635   41.5754   57.6671 C   0  0  0  0  0  0  0  0  0  0  0  0
   67.8814   40.8520   57.7838 C   0  0  0  0  0  0  0  0  0  0  0  0
   67.8634   39.5629   58.2628 C   0  0  0  0  0  0  0  0  0  0  0  0
   69.0206   38.9222   58.6515 C   0  0  0  0  0  0  0  0  0  0  0  0
   70.2011   39.6258   58.5421 C   0  0  0  0  0  0  0  0  0  0  0  0
   70.2228   40.9359   58.0563 C   0  0  0  0  0  0  0  0  0  0  0  0
   71.7506   41.8117   57.9305 Cl  0  0  0  0  0  0  0  0  0  0  0  0
   70.6211   47.6039   58.0565 C   0  0  0  0  0  0  0  0  0  0  0  0
   69.4198   48.2165   57.4217 C   0  0  0  0  0  0  0  0  0  0  0  0
   69.3118   48.0181   55.9629 C   0  0  0  0  0  0  0  0  0  0  0  0
   68.5556   47.0574   55.4050 N   0  0  0  0  0  0  0  0  0  0  0  0
   68.4433   46.8698   54.0790 C   0  0  0  0  0  0  0  0  0  0  0  0
   67.6594   45.8801   53.5232 C   0  0  0  0  0  0  0  0  0  0  0  0
   67.5492   45.6943   52.1534 C   0  0  0  0  0  0  0  0  0  0  0  0
   68.2444   46.5254   51.2849 C   0  0  0  0  0  0  0  0  0  0  0  0
   69.0275   47.5178   51.8422 C   0  0  0  0  0  0  0  0  0  0  0  0
   69.1301   47.6929   53.2059 C   0  0  0  0  0  0  0  0  0  0  0  0
   69.9106   48.6825   53.7688 C   0  0  0  0  0  0  0  0  0  0  0  0
   70.5322   49.4257   52.9784 O   0  0  0  0  0  0  0  0  0  0  0  0
   69.9889   48.8278   55.1094 N   0  0  0  0  0  0  0  0  0  0  0  0
  1  2  2  0
  2 14  1  0
  2  3  1  0
 14 15  1  0
 15 16  1  0
 16 17  2  0
 16 26  1  0
 17 18  1  0
 18 19  2  0
 18 23  1  0
 19 20  1  0
 20 21  2  0
 21 22  1  0
 22 23  2  0
 23 24  1  0
 24 25  2  0
 24 26  1  0
  3  4  1  0
  4  5  1  0
  5  6  2  0
  5  7  1  0
  7  8  2  0
  7 12  1  0
  8  9  1  0
  9 10  2  0
 10 11  1  0
 11 12  2  0
 12 13  1  0
M  END
>  <minimizedAffinity>  (389) 
-8.79524

$$$$
data/200k_reference_output/data/smiles/73698.pdb
     RDKit          3D

 25 27  0  0  0  0  0  0  0  0999 V2000
   68.7429   45.3975   56.0963 C   0  0  0  0  0  0  0  0  0  0  0  0
   68.0924   44.2799   55.6408 C   0  0  0  0  0  0  0  0  0  0  0  0
   68.3804   43.0100   56.1570 C   0  0  0  0  0  0  0  0  0  0  0  0
   69.3218   42.8053   57.1374 C   0  0  0  0  0  0  0  0  0  0  0  0
   69.9818   43.9255   57.6003 C   0  0  0  0  0  0  0  0  0  0  0  0
   69.7024   45.1718   57.0994 C   0  0  0  0  0  0  0  0  0  0  0  0
   69.6196   41.4764   57.6706 C   0  0  0  0  0  0  0  0  0  0  0  0
   70.8808   41.1294   58.1234 C   0  0  0  0  0  0  0  0  0  0  0  0
   71.1416   39.8687   58.6287 C   0  0  0  0  0  0  0  0  0  0  0  0
   70.1492   38.9148   58.6974 C   0  0  0  0  0  0  0  0  0  0  0  0
   70.5159   37.3199   59.3495 Cl  0  0  0  0  0  0  0  0  0  0  0  0
   68.8973   39.2493   58.2505 C   0  0  0  0  0  0  0  0  0  0  0  0
   67.9337   38.3105   58.3212 F   0  0  0  0  0  0  0  0  0  0  0  0
   68.6382   40.5262   57.7406 C   0  0  0  0  0  0  0  0  0  0  0  0
   67.6806   47.4577   56.3575 O   0  0  0  0  0  0  0  0  0  0  0  0
   68.4828   46.7545   55.6409 C   0  0  0  0  0  0  0  0  0  0  0  0
   69.0412   47.3780   54.4623 C   0  0  0  0  0  0  0  0  0  0  0  0
   68.5854   46.8952   53.2212 C   0  0  0  0  0  0  0  0  0  0  0  0
   69.0872   47.4082   52.0501 C   0  0  0  0  0  0  0  0  0  0  0  0
   68.6747   46.9709   50.9216 O   0  0  0  0  0  0  0  0  0  0  0  0
   70.0128   48.3696   52.0713 N   0  0  0  0  0  0  0  0  0  0  0  0
   70.5051   48.8725   50.8978 O   0  0  0  0  0  0  0  0  0  0  0  0
   70.4307   48.8123   53.2543 C   0  0  0  0  0  0  0  0  0  0  0  0
   71.3065   49.7226   53.2712 O   0  0  0  0  0  0  0  0  0  0  0  0
   69.9608   48.3313   54.4308 N   0  0  0  0  0  0  0  0  0  0  0  0
 15 16  2  0
 16  1  1  0
 16 17  1  0
  1  2  2  0
  1  6  1  0
  2  3  1  0
  3  4  2  0
  4  7  1  0
  4  5  1  0
  7  8  2  0
  7 14  1  0
  8  9  1  0
  9 10  2  0
 10 11  1  0
 10 12  1  0
 12 13  1  0
 12 14  2  0
  5  6  2  0
 17 18  2  0
 17 25  1  0
 18 19  1  0
 19 20  2  0
 19 21  1  0
 21 22  1  0
 21 23  1  0
 23 24  2  0
 23 25  1  0
M  END
>  <minimizedAffinity>  (390) 
-8.79376

$$$$
data/reference_output_2/data/smiles/94985.pdb
     RDKit          3D

 26 28  0  0  0  0  0  0  0  0999 V2000
   68.2757   44.3786   55.7242 C   0  0  0  0  0  0  0  0  0  0  0  0
   69.0247   43.8017   56.6944 N   0  0  0  0  0  0  0  0  0  0  0  0
   68.8442   42.5549   57.1566 C   0  0  0  0  0  0  0  0  0  0  0  0
   67.8319   41.7877   56.6225 C   0  0  0  0  0  0  0  0  0  0  0  0
   67.5744   40.4888   57.0406 O   0  0  0  0  0  0  0  0  0  0  0  0
   67.0629   42.3646   55.6332 C   0  0  0  0  0  0  0  0  0  0  0  0
   66.1378   41.6597   55.1471 O   0  0  0  0  0  0  0  0  0  0  0  0
   67.2893   43.6382   55.1993 N   0  0  0  0  0  0  0  0  0  0  0  0
   69.3312   49.7200   53.8583 C   0  0  0  0  0  0  0  0  0  0  0  0
   69.0696   48.3515   54.3742 C   0  0  0  0  0  0  0  0  0  0  0  0
   69.2827   47.9995   55.6850 C   0  0  0  0  0  0  0  0  0  0  0  0
   69.0261   46.6993   56.1451 C   0  0  0  0  0  0  0  0  0  0  0  0
   68.5562   45.7456   55.2915 C   0  0  0  0  0  0  0  0  0  0  0  0
   68.3483   46.1218   53.9719 C   0  0  0  0  0  0  0  0  0  0  0  0
   68.5954   47.3958   53.5035 C   0  0  0  0  0  0  0  0  0  0  0  0
   69.6994   41.9993   58.2131 C   0  0  0  0  0  0  0  0  0  0  0  0
   69.7009   42.5163   59.3459 O   0  0  0  0  0  0  0  0  0  0  0  0
   70.5314   40.8748   57.9708 N   0  0  0  0  0  0  0  0  0  0  0  0
   71.3859   40.2861   58.9521 C   0  0  0  0  0  0  0  0  0  0  0  0
   71.3248   38.8265   58.9758 C   0  0  0  0  0  0  0  0  0  0  0  0
   70.5592   38.0832   59.8458 C   0  0  0  0  0  0  0  0  0  0  0  0
   70.5542   36.7093   59.8071 C   0  0  0  0  0  0  0  0  0  0  0  0
   71.3309   36.0168   58.8749 C   0  0  0  0  0  0  0  0  0  0  0  0
   71.3459   34.6652   58.8132 F   0  0  0  0  0  0  0  0  0  0  0  0
   72.1039   36.7464   57.9954 C   0  0  0  0  0  0  0  0  0  0  0  0
   72.0916   38.1271   58.0560 C   0  0  0  0  0  0  0  0  0  0  0  0
  9 10  1  0
 10 11  2  0
 10 15  1  0
 11 12  1  0
 12 13  2  0
 13  1  1  0
 13 14  1  0
  1  2  2  0
  1  8  1  0
  2  3  1  0
  3 16  1  0
  3  4  2  0
 16 17  2  0
 16 18  1  0
 18 19  1  0
 19 20  1  0
 20 21  2  0
 20 26  1  0
 21 22  1  0
 22 23  2  0
 23 24  1  0
 23 25  1  0
 25 26  2  0
  4  5  1  0
  4  6  1  0
  6  7  2  0
  6  8  1  0
 14 15  2  0
M  END
>  <minimizedAffinity>  (391) 
-8.79097

$$$$
data/200k_reference_output/data/smiles/2080.pdb
     RDKit          3D

 28 30  0  0  0  0  0  0  0  0999 V2000
   72.8509   51.9994   55.3199 C   0  0  0  0  0  0  0  0  0  0  0  0
   73.2001   53.2533   55.8258 C   0  0  0  0  0  0  0  0  0  0  0  0
   74.4071   53.5402   55.9042 O   0  0  0  0  0  0  0  0  0  0  0  0
   72.2571   54.0667   56.1884 O   0  0  0  0  0  0  0  0  0  0  0  0
   70.9937   53.8080   56.1183 C   0  0  0  0  0  0  0  0  0  0  0  0
   70.0389   54.7173   56.5207 O   0  0  0  0  0  0  0  0  0  0  0  0
   70.5706   52.5967   55.6318 C   0  0  0  0  0  0  0  0  0  0  0  0
   69.2241   52.2937   55.5554 C   0  0  0  0  0  0  0  0  0  0  0  0
   68.8168   51.0746   55.0758 C   0  0  0  0  0  0  0  0  0  0  0  0
   69.7355   50.1375   54.6650 C   0  0  0  0  0  0  0  0  0  0  0  0
   71.0855   50.4204   54.7334 C   0  0  0  0  0  0  0  0  0  0  0  0
   71.4912   51.6407   55.2128 C   0  0  0  0  0  0  0  0  0  0  0  0
   69.3257   48.8296   54.1498 C   0  0  0  0  0  0  0  0  0  0  0  0
   68.8664   47.8386   55.0012 C   0  0  0  0  0  0  0  0  0  0  0  0
   68.4720   46.5918   54.5450 C   0  0  0  0  0  0  0  0  0  0  0  0
   68.0282   45.6496   55.4203 F   0  0  0  0  0  0  0  0  0  0  0  0
   68.5356   46.3175   53.1873 C   0  0  0  0  0  0  0  0  0  0  0  0
   68.1570   45.1040   52.6972 F   0  0  0  0  0  0  0  0  0  0  0  0
   68.9939   47.3047   52.3278 C   0  0  0  0  0  0  0  0  0  0  0  0
   69.0500   47.0211   51.0056 F   0  0  0  0  0  0  0  0  0  0  0  0
   69.3874   48.5523   52.7969 C   0  0  0  0  0  0  0  0  0  0  0  0
   74.8617   50.6422   55.8831 N   0  0  0  0  0  0  0  0  0  0  0  0
   73.8791   51.0546   54.9410 C   0  0  0  0  0  0  0  0  0  0  0  0
   74.0108   50.5243   53.8213 O   0  0  0  0  0  0  0  0  0  0  0  0
   75.9175   49.6839   55.4973 C   0  0  0  0  0  0  0  0  0  0  0  0
   77.4187   51.5372   55.9670 O   0  0  0  0  0  0  0  0  0  0  0  0
   77.2224   50.3059   55.8254 C   0  0  0  0  0  0  0  0  0  0  0  0
   78.3134   49.4653   55.9896 O   0  0  0  0  0  0  0  0  0  0  0  0
 26 27  2  0
 27 28  1  0
 27 25  1  0
 25 22  1  0
 22 23  1  0
 23 24  2  0
 23  1  1  0
  1  2  1  0
  1 12  2  0
  2  3  2  0
  2  4  1  0
  4  5  1  0
  5  6  1  0
  5  7  2  0
  7  8  1  0
  7 12  1  0
  8  9  2  0
  9 10  1  0
 10 13  1  0
 10 11  2  0
 13 14  2  0
 13 21  1  0
 14 15  1  0
 15 16  1  0
 15 17  2  0
 17 18  1  0
 17 19  1  0
 19 20  1  0
 19 21  2  0
 11 12  1  0
M  END
>  <minimizedAffinity>  (392) 
-8.79074

$$$$
data/200k_reference_output/data/smiles/17482.pdb
     RDKit          3D

 27 29  0  0  0  0  0  0  0  0999 V2000
   70.6256   44.8984   58.2329 C   0  0  0  0  0  0  0  0  0  0  0  0
   69.7726   45.0912   59.1753 O   0  0  0  0  0  0  0  0  0  0  0  0
   70.6772   45.8086   57.1468 N   0  0  0  0  0  0  0  0  0  0  0  0
   75.3031   43.2561   58.3861 C   0  0  0  0  0  0  0  0  0  0  0  0
   73.8273   42.9714   58.3681 C   0  0  0  0  0  0  0  0  0  0  0  0
   72.9020   43.9922   58.3116 C   0  0  0  0  0  0  0  0  0  0  0  0
   71.5225   43.7555   58.2934 C   0  0  0  0  0  0  0  0  0  0  0  0
   71.1077   42.4616   58.3339 C   0  0  0  0  0  0  0  0  0  0  0  0
   71.9978   41.3810   58.3924 C   0  0  0  0  0  0  0  0  0  0  0  0
   73.3382   41.6922   58.4071 C   0  0  0  0  0  0  0  0  0  0  0  0
   71.4849   40.0557   58.4324 N   0  0  0  0  0  0  0  0  0  0  0  0
   70.1880   39.7338   58.5917 C   0  0  0  0  0  0  0  0  0  0  0  0
   70.0442   38.3630   58.5850 C   0  0  0  0  0  0  0  0  0  0  0  0
   71.3108   37.8523   58.4138 C   0  0  0  0  0  0  0  0  0  0  0  0
   72.1308   38.9091   58.3296 N   0  0  0  0  0  0  0  0  0  0  0  0
   69.8299   46.9088   57.0664 N   0  0  0  0  0  0  0  0  0  0  0  0
   68.5275   46.6578   55.9718 S   0  0  0  0  0  0  0  0  0  0  0  0
   67.2868   47.3837   56.4136 O   0  0  0  0  0  0  0  0  0  0  0  0
   68.2102   45.1863   55.9662 O   0  0  0  0  0  0  0  0  0  0  0  0
   68.9143   47.1864   54.3713 C   0  0  0  0  0  0  0  0  0  0  0  0
   69.6274   48.3560   54.1856 C   0  0  0  0  0  0  0  0  0  0  0  0
   70.0429   49.1155   55.2285 F   0  0  0  0  0  0  0  0  0  0  0  0
   69.9624   48.8225   52.9195 C   0  0  0  0  0  0  0  0  0  0  0  0
   69.5645   48.0875   51.8264 C   0  0  0  0  0  0  0  0  0  0  0  0
   68.8493   46.9164   52.0011 C   0  0  0  0  0  0  0  0  0  0  0  0
   68.5217   46.4605   53.2647 C   0  0  0  0  0  0  0  0  0  0  0  0
   67.8112   45.2934   53.3932 F   0  0  0  0  0  0  0  0  0  0  0  0
  4  5  1  0
  5  6  2  0
  5 10  1  0
  6  7  1  0
  7  1  1  0
  7  8  2  0
  1  2  2  0
  1  3  1  0
  3 16  1  0
 16 17  1  0
 17 18  2  0
 17 19  2  0
 17 20  1  0
 20 21  2  0
 20 26  1  0
 21 22  1  0
 21 23  1  0
 23 24  2  0
 24 25  1  0
 25 26  2  0
 26 27  1  0
  8  9  1  0
  9 11  1  0
  9 10  2  0
 11 12  1  0
 11 15  1  0
 12 13  2  0
 13 14  1  0
 14 15  2  0
M  END
>  <minimizedAffinity>  (393) 
-8.78999

$$$$
data/reference_output_2/data/smiles/129802.pdb
     RDKit          3D

 25 26  0  0  0  0  0  0  0  0999 V2000
   73.2195   51.4074   54.5620 C   0  0  0  0  0  0  0  0  0  0  0  0
   74.0377   52.2815   54.1574 O   0  0  0  0  0  0  0  0  0  0  0  0
   73.7835   50.1677   54.9450 N   0  0  0  0  0  0  0  0  0  0  0  0
   75.1866   49.9439   54.8700 N   0  0  0  0  0  0  0  0  0  0  0  0
   76.0247   50.1493   55.9831 C   0  0  0  0  0  0  0  0  0  0  0  0
   75.4045   50.5486   57.0400 O   0  0  0  0  0  0  0  0  0  0  0  0
   77.4627   49.9591   56.0370 C   0  0  0  0  0  0  0  0  0  0  0  0
   78.1712   50.5512   57.0970 C   0  0  0  0  0  0  0  0  0  0  0  0
   79.5351   50.4085   57.2069 C   0  0  0  0  0  0  0  0  0  0  0  0
   80.2762   49.6903   56.2999 C   0  0  0  0  0  0  0  0  0  0  0  0
   81.6491   49.5517   56.4176 O   0  0  0  0  0  0  0  0  0  0  0  0
   79.6021   49.1077   55.2621 C   0  0  0  0  0  0  0  0  0  0  0  0
   78.2295   49.2541   55.1567 C   0  0  0  0  0  0  0  0  0  0  0  0
   77.6265   48.6362   54.0829 O   0  0  0  0  0  0  0  0  0  0  0  0
   71.7685   51.6989   54.6180 C   0  0  0  0  0  0  0  0  0  0  0  0
   71.1169   50.9475   53.6287 O   0  0  0  0  0  0  0  0  0  0  0  0
   69.0298   46.8958   51.8041 C   0  0  0  0  0  0  0  0  0  0  0  0
   69.3468   47.7892   52.9571 C   0  0  0  0  0  0  0  0  0  0  0  0
   70.0846   48.9645   52.7804 C   0  0  0  0  0  0  0  0  0  0  0  0
   70.3908   49.8015   53.8177 C   0  0  0  0  0  0  0  0  0  0  0  0
   69.9290   49.4336   55.0876 C   0  0  0  0  0  0  0  0  0  0  0  0
   69.2017   48.2887   55.3041 C   0  0  0  0  0  0  0  0  0  0  0  0
   68.7312   47.9332   56.6628 C   0  0  0  0  0  0  0  0  0  0  0  0
   68.9134   47.4684   54.2310 C   0  0  0  0  0  0  0  0  0  0  0  0
   67.9910   45.9975   54.4476 Cl  0  0  0  0  0  0  0  0  0  0  0  0
 17 18  1  0
 18 19  2  0
 18 24  1  0
 19 20  1  0
 20 16  1  0
 20 21  2  0
 16 15  1  0
 15  1  1  0
  1  2  2  0
  1  3  1  0
  3  4  1  0
  4  5  1  0
  5  6  2  0
  5  7  1  0
  7  8  2  0
  7 13  1  0
  8  9  1  0
  9 10  2  0
 10 11  1  0
 10 12  1  0
 12 13  2  0
 13 14  1  0
 21 22  1  0
 22 23  1  0
 22 24  2  0
 24 25  1  0
M  END
>  <minimizedAffinity>  (394) 
-8.78955

$$$$
data/200k_reference_output/data/smiles/53588.pdb
     RDKit          3D

 23 25  0  0  0  0  0  0  0  0999 V2000
   74.8614   34.4911   53.9160 N   0  0  0  0  0  0  0  0  0  0  0  0
   75.2490   34.1936   55.2028 C   0  0  0  0  0  0  0  0  0  0  0  0
   74.5191   34.5953   56.2906 C   0  0  0  0  0  0  0  0  0  0  0  0
   73.3547   35.3207   56.1505 C   0  0  0  0  0  0  0  0  0  0  0  0
   72.9889   35.6069   54.8568 C   0  0  0  0  0  0  0  0  0  0  0  0
   73.7554   35.1826   53.7669 C   0  0  0  0  0  0  0  0  0  0  0  0
   72.5462   35.7700   57.2766 C   0  0  0  0  0  0  0  0  0  0  0  0
   72.1346   34.8730   58.2401 C   0  0  0  0  0  0  0  0  0  0  0  0
   71.3679   35.2823   59.3136 C   0  0  0  0  0  0  0  0  0  0  0  0
   70.9825   36.5977   59.4664 C   0  0  0  0  0  0  0  0  0  0  0  0
   70.2074   37.0263   60.5468 O   0  0  0  0  0  0  0  0  0  0  0  0
   71.3933   37.4955   58.5048 C   0  0  0  0  0  0  0  0  0  0  0  0
   72.1588   37.0854   57.4333 C   0  0  0  0  0  0  0  0  0  0  0  0
   75.7732   34.0143   52.9061 C   0  0  0  0  0  0  0  0  0  0  0  0
   76.8771   36.0886   52.7868 C   0  0  0  0  0  0  0  0  0  0  0  0
   76.4408   35.0213   52.0845 C   0  0  0  0  0  0  0  0  0  0  0  0
   76.7026   35.0009   50.6685 C   0  0  0  0  0  0  0  0  0  0  0  0
   76.0049   34.1398   49.8284 C   0  0  0  0  0  0  0  0  0  0  0  0
   76.2487   34.0348   48.4658 C   0  0  0  0  0  0  0  0  0  0  0  0
   77.2161   34.8072   47.8949 C   0  0  0  0  0  0  0  0  0  0  0  0
   77.5331   34.6465   46.0211 Br  0  0  0  0  0  0  0  0  0  0  0  0
   77.9327   35.6747   48.6806 C   0  0  0  0  0  0  0  0  0  0  0  0
   77.6689   35.7627   50.0560 C   0  0  0  0  0  0  0  0  0  0  0  0
 15 16  2  0
 16 14  1  0
 16 17  1  0
 14  1  1  0
  1  2  2  0
  1  6  1  0
  2  3  1  0
  3  4  2  0
  4  7  1  0
  4  5  1  0
  7  8  2  0
  7 13  1  0
  8  9  1  0
  9 10  2  0
 10 11  1  0
 10 12  1  0
 12 13  2  0
  5  6  2  0
 17 18  2  0
 17 23  1  0
 18 19  1  0
 19 20  2  0
 20 21  1  0
 20 22  1  0
 22 23  2  0
M  CHG  1   1   1
M  END
>  <minimizedAffinity>  (395) 
-8.78920

$$$$
data/reference_output_2/data/smiles/110310.pdb
     RDKit          3D

 25 27  0  0  0  0  0  0  0  0999 V2000
   71.0628   43.9863   57.7711 O   0  0  0  0  0  0  0  0  0  0  0  0
   69.8803   43.8865   57.3298 C   0  0  0  0  0  0  0  0  0  0  0  0
   69.2421   45.0897   56.9470 N   0  0  0  0  0  0  0  0  0  0  0  0
   69.2330   42.5803   57.2338 C   0  0  0  0  0  0  0  0  0  0  0  0
   68.0380   42.4440   56.5235 C   0  0  0  0  0  0  0  0  0  0  0  0
   67.4283   41.2169   56.4330 C   0  0  0  0  0  0  0  0  0  0  0  0
   67.9866   40.1147   57.0375 C   0  0  0  0  0  0  0  0  0  0  0  0
   69.1706   40.2269   57.7460 C   0  0  0  0  0  0  0  0  0  0  0  0
   69.7606   41.4704   57.8214 C   0  0  0  0  0  0  0  0  0  0  0  0
   69.7840   39.0750   58.3971 C   0  0  0  0  0  0  0  0  0  0  0  0
   69.3094   38.3664   59.4802 C   0  0  0  0  0  0  0  0  0  0  0  0
   70.2105   37.3449   59.7710 C   0  0  0  0  0  0  0  0  0  0  0  0
   71.1998   37.5004   58.8237 C   0  0  0  0  0  0  0  0  0  0  0  0
   70.9107   38.5200   58.0443 O   0  0  0  0  0  0  0  0  0  0  0  0
   69.8908   46.3356   57.0504 N   0  0  0  0  0  0  0  0  0  0  0  0
   68.9106   47.5244   56.3050 S   0  0  0  0  0  0  0  0  0  0  0  0
   69.2901   48.9123   56.7019 O   0  0  0  0  0  0  0  0  0  0  0  0
   67.4960   47.3010   56.7585 O   0  0  0  0  0  0  0  0  0  0  0  0
   68.9181   47.3472   54.5479 C   0  0  0  0  0  0  0  0  0  0  0  0
   69.5164   48.2826   53.7283 C   0  0  0  0  0  0  0  0  0  0  0  0
   69.5431   48.1795   52.3528 C   0  0  0  0  0  0  0  0  0  0  0  0
   68.9263   47.0639   51.8209 C   0  0  0  0  0  0  0  0  0  0  0  0
   68.3164   46.1019   52.5875 C   0  0  0  0  0  0  0  0  0  0  0  0
   68.3180   46.2540   53.9531 C   0  0  0  0  0  0  0  0  0  0  0  0
   67.7419   45.3570   54.7852 F   0  0  0  0  0  0  0  0  0  0  0  0
  1  2  2  0
  2  3  1  0
  2  4  1  0
  3 15  1  0
 15 16  1  0
 16 17  2  0
 16 18  2  0
 16 19  1  0
 19 20  2  0
 19 24  1  0
 20 21  1  0
 21 22  2  0
 22 23  1  0
 23 24  2  0
 24 25  1  0
  4  5  2  0
  4  9  1  0
  5  6  1  0
  6  7  2  0
  7  8  1  0
  8 10  1  0
  8  9  2  0
 10 11  2  0
 10 14  1  0
 11 12  1  0
 12 13  2  0
 13 14  1  0
M  END
>  <minimizedAffinity>  (396) 
-8.78881

$$$$
data/reference_output_2/data/smiles/98357.pdb
     RDKit          3D

 27 30  0  0  0  0  0  0  0  0999 V2000
   74.5708   34.6185   54.2631 N   0  0  0  0  0  0  0  0  0  0  0  0
   73.4892   35.5283   54.0329 C   0  0  0  0  0  0  0  0  0  0  0  0
   72.6805   35.0398   52.8762 C   0  0  0  0  0  0  0  0  0  0  0  0
   73.2114   33.6547   52.5647 C   0  0  0  0  0  0  0  0  0  0  0  0
   74.5435   33.5982   53.2481 C   0  0  0  0  0  0  0  0  0  0  0  0
   74.5342   34.0541   55.6083 C   0  0  0  0  0  0  0  0  0  0  0  0
   73.6420   34.8279   56.4841 C   0  0  0  0  0  0  0  0  0  0  0  0
   72.9165   35.4840   57.2022 C   0  0  0  0  0  0  0  0  0  0  0  0
   72.0494   36.2727   58.0451 C   0  0  0  0  0  0  0  0  0  0  0  0
   71.3644   35.7061   59.0857 C   0  0  0  0  0  0  0  0  0  0  0  0
   70.5311   36.4840   59.8876 C   0  0  0  0  0  0  0  0  0  0  0  0
   70.3843   37.8402   59.6435 C   0  0  0  0  0  0  0  0  0  0  0  0
   71.0750   38.4130   58.5950 C   0  0  0  0  0  0  0  0  0  0  0  0
   71.8906   37.6319   57.8149 C   0  0  0  0  0  0  0  0  0  0  0  0
   75.8741   35.2906   54.1379 C   0  0  0  0  0  0  0  0  0  0  0  0
   76.3003   35.2334   52.7384 C   0  0  0  0  0  0  0  0  0  0  0  0
   76.6428   35.1812   51.5787 C   0  0  0  0  0  0  0  0  0  0  0  0
   77.0360   35.1061   50.1889 C   0  0  0  0  0  0  0  0  0  0  0  0
   78.1707   35.7282   49.7208 C   0  0  0  0  0  0  0  0  0  0  0  0
   78.5039   35.6282   48.3890 C   0  0  0  0  0  0  0  0  0  0  0  0
   77.7248   34.9158   47.5027 C   0  0  0  0  0  0  0  0  0  0  0  0
   76.5769   34.2819   47.9572 C   0  0  0  0  0  0  0  0  0  0  0  0
   75.7612   33.5571   47.1242 C   0  0  0  0  0  0  0  0  0  0  0  0
   74.6262   32.9377   47.6016 C   0  0  0  0  0  0  0  0  0  0  0  0
   74.2828   33.0310   48.9330 C   0  0  0  0  0  0  0  0  0  0  0  0
   75.1038   33.7594   49.7694 C   0  0  0  0  0  0  0  0  0  0  0  0
   76.2415   34.3836   49.3030 C   0  0  0  0  0  0  0  0  0  0  0  0
  7  8  3  0
  7  6  1  0
  8  9  1  0
  9 10  2  0
  9 14  1  0
 10 11  1  0
 11 12  2  0
 12 13  1  0
 13 14  2  0
  6  1  1  0
  1 15  1  0
  1  2  1  0
  1  5  1  0
 15 16  1  0
 16 17  3  0
 17 18  1  0
 18 19  2  0
 18 27  1  0
 19 20  1  0
 20 21  2  0
 21 22  1  0
 22 23  1  0
 22 27  2  0
 23 24  2  0
 24 25  1  0
 25 26  2  0
 26 27  1  0
  2  3  1  0
  3  4  1  0
  4  5  1  0
M  CHG  1   1   1
M  END
>  <minimizedAffinity>  (397) 
-8.78741

$$$$
data/reference_output_2/data/smiles/109453.pdb
     RDKit          3D

 28 31  0  0  0  0  0  0  0  0999 V2000
   71.3190   46.6195   58.8308 C   0  0  0  0  0  0  0  0  0  0  0  0
   70.7808   47.7952   58.3772 C   0  0  0  0  0  0  0  0  0  0  0  0
   69.8514   47.7495   57.3565 C   0  0  0  0  0  0  0  0  0  0  0  0
   69.4542   46.5809   56.7867 C   0  0  0  0  0  0  0  0  0  0  0  0
   69.9885   45.3895   57.2338 C   0  0  0  0  0  0  0  0  0  0  0  0
   70.9212   45.4257   58.2585 C   0  0  0  0  0  0  0  0  0  0  0  0
   68.2575   46.6052   55.4846 S   0  0  0  0  0  0  0  0  0  0  0  0
   67.8675   45.1727   55.1613 O   0  0  0  0  0  0  0  0  0  0  0  0
   67.0759   47.3711   55.9449 O   0  0  0  0  0  0  0  0  0  0  0  0
   68.9655   47.3664   54.0775 C   0  0  0  0  0  0  0  0  0  0  0  0
   69.0156   46.7506   52.8422 C   0  0  0  0  0  0  0  0  0  0  0  0
   69.5721   47.3559   51.7375 C   0  0  0  0  0  0  0  0  0  0  0  0
   70.0999   48.6232   51.8658 C   0  0  0  0  0  0  0  0  0  0  0  0
   70.0706   49.2752   53.0776 C   0  0  0  0  0  0  0  0  0  0  0  0
   69.5101   48.6451   54.1546 C   0  0  0  0  0  0  0  0  0  0  0  0
   72.3255   46.6383   59.9154 C   0  0  0  0  0  0  0  0  0  0  0  0
   73.6129   44.1728   60.5869 O   0  0  0  0  0  0  0  0  0  0  0  0
   72.6125   44.5072   61.2646 C   0  0  0  0  0  0  0  0  0  0  0  0
   71.9633   45.7234   60.9480 N   0  0  0  0  0  0  0  0  0  0  0  0
   72.1247   43.6479   62.3669 C   0  0  0  0  0  0  0  0  0  0  0  0
   70.8872   43.0500   62.3118 C   0  0  0  0  0  0  0  0  0  0  0  0
   70.4469   42.2416   63.3649 C   0  0  0  0  0  0  0  0  0  0  0  0
   71.2425   42.0330   64.4682 C   0  0  0  0  0  0  0  0  0  0  0  0
   71.0774   41.3197   65.6019 N   0  0  0  0  0  0  0  0  0  0  0  0
   72.1865   41.4709   66.3426 N   0  0  0  0  0  0  0  0  0  0  0  0
   73.0437   42.2691   65.6868 C   0  0  0  0  0  0  0  0  0  0  0  0
   72.4878   42.6540   64.4878 C   0  0  0  0  0  0  0  0  0  0  0  0
   72.8787   43.4249   63.4559 N   0  0  0  0  0  0  0  0  0  0  0  0
 17 18  2  0
 18 19  1  0
 18 20  1  0
 19 16  1  0
 16  1  1  0
  1  2  2  0
  1  6  1  0
  2  3  1  0
  3  4  2  0
  4  7  1  0
  4  5  1  0
  7  8  2  0
  7  9  2  0
  7 10  1  0
 10 11  2  0
 10 15  1  0
 11 12  1  0
 12 13  2  0
 13 14  1  0
 14 15  2  0
  5  6  2  0
 20 21  2  0
 20 28  1  0
 21 22  1  0
 22 23  2  0
 23 24  1  0
 23 27  1  0
 24 25  1  0
 25 26  2  0
 26 27  1  0
 27 28  2  0
M  END
>  <minimizedAffinity>  (398) 
-8.78659

$$$$
data/200k_reference_output/data/smiles/52146.pdb
     RDKit          3D

 25 28  0  0  0  0  0  0  0  0999 V2000
   67.6863   43.6351   55.4022 N   0  0  0  0  0  0  0  0  0  0  0  0
   68.3169   43.0087   56.4714 C   0  0  0  0  0  0  0  0  0  0  0  0
   69.2402   43.5359   57.0930 O   0  0  0  0  0  0  0  0  0  0  0  0
   67.9333   41.6910   56.9319 N   0  0  0  0  0  0  0  0  0  0  0  0
   68.5441   41.0088   58.0207 C   0  0  1  0  0  0  0  0  0  0  0  0
   67.9884   41.4955   59.3422 C   0  0  0  0  0  0  0  0  0  0  0  0
   68.4885   40.6216   60.4744 C   0  0  2  0  0  0  0  0  0  0  0  0
   69.9815   40.7890   60.5453 C   0  0  0  0  0  0  0  0  0  0  0  0
   70.5720   40.3359   59.2173 C   0  0  1  0  0  0  0  0  0  0  0  0
   70.2833   38.8723   59.0782 C   0  0  0  0  0  0  0  0  0  0  0  0
   68.7779   38.7064   59.0140 C   0  0  1  0  0  0  0  0  0  0  0  0
   68.1014   39.1902   60.2773 C   0  0  0  0  0  0  0  0  0  0  0  0
   68.2728   39.5226   57.8732 C   0  0  0  0  0  0  0  0  0  0  0  0
   70.0468   41.1607   58.0665 C   0  0  0  0  0  0  0  0  0  0  0  0
   68.5529   47.4383   53.6759 C   0  0  0  0  0  0  0  0  0  0  0  0
   67.9601   46.4187   52.9669 C   0  0  0  0  0  0  0  0  0  0  0  0
   67.6959   45.2054   53.5549 C   0  0  0  0  0  0  0  0  0  0  0  0
   68.0002   44.9156   54.8930 C   0  0  0  0  0  0  0  0  0  0  0  0
   68.5893   45.9386   55.5870 C   0  0  0  0  0  0  0  0  0  0  0  0
   68.8586   47.1696   54.9898 C   0  0  0  0  0  0  0  0  0  0  0  0
   68.8335   48.6778   53.1045 O   0  0  0  0  0  0  0  0  0  0  0  0
   69.7369   49.9923   50.8474 N   0  0  0  0  0  0  0  0  0  0  0  0
   70.1331   48.7333   51.9901 S   0  0  0  0  0  0  0  0  0  0  0  0
   71.4258   49.0003   52.6649 O   0  0  0  0  0  0  0  0  0  0  0  0
   70.1423   47.4400   51.2170 O   0  0  0  0  0  0  0  0  0  0  0  0
 22 23  1  0
 23 24  2  0
 23 25  2  0
 23 21  1  0
 21 15  1  0
 15 16  2  0
 15 20  1  0
 16 17  1  0
 17 18  2  0
 18  1  1  0
 18 19  1  0
  1  2  1  0
  2  3  2  0
  2  4  1  0
  5  4  1  6
  5  6  1  0
  5 13  1  0
  5 14  1  0
  7  6  1  6
  7  8  1  0
  7 12  1  0
  9  8  1  1
  9 10  1  0
  9 14  1  0
 11 10  1  1
 11 12  1  0
 11 13  1  0
 19 20  2  0
M  END
>  <minimizedAffinity>  (399) 
-8.78531

$$$$
data/200k_reference_output/data/smiles/35830.pdb
     RDKit          3D

 29 32  0  0  0  0  0  0  0  0999 V2000
   68.6101   43.0585   56.5216 C   0  0  0  0  0  0  0  0  0  0  0  0
   69.7133   43.1711   57.3435 C   0  0  0  0  0  0  0  0  0  0  0  0
   70.1894   42.1570   58.1455 C   0  0  0  0  0  0  0  0  0  0  0  0
   69.5098   40.9455   58.1183 C   0  0  0  0  0  0  0  0  0  0  0  0
   68.4014   40.7740   57.3153 C   0  0  0  0  0  0  0  0  0  0  0  0
   67.7394   39.5703   57.2975 F   0  0  0  0  0  0  0  0  0  0  0  0
   67.9647   41.8278   56.5283 C   0  0  0  0  0  0  0  0  0  0  0  0
   70.0107   39.9139   58.9505 N   0  0  0  0  0  0  0  0  0  0  0  0
   71.3267   39.9952   59.5398 C   0  0  0  0  0  0  0  0  0  0  0  0
   72.1725   38.7898   59.1830 C   0  0  0  0  0  0  0  0  0  0  0  0
   71.3750   37.5688   59.0865 N   0  0  0  0  0  0  0  0  0  0  0  0
   70.0944   37.5945   59.7304 C   0  0  0  0  0  0  0  0  0  0  0  0
   69.2258   38.7392   59.2419 C   0  0  0  0  0  0  0  0  0  0  0  0
   71.9126   36.4554   58.3776 C   0  0  0  0  0  0  0  0  0  0  0  0
   72.5104   36.5900   57.1384 C   0  0  0  0  0  0  0  0  0  0  0  0
   73.0337   35.5101   56.4389 C   0  0  0  0  0  0  0  0  0  0  0  0
   72.9683   34.2442   56.9776 C   0  0  0  0  0  0  0  0  0  0  0  0
   72.3811   34.0865   58.2044 C   0  0  0  0  0  0  0  0  0  0  0  0
   71.8613   35.1848   58.8884 C   0  0  0  0  0  0  0  0  0  0  0  0
   69.5126   45.5766   56.8495 O   0  0  0  0  0  0  0  0  0  0  0  0
   68.6606   45.4368   55.9305 C   0  0  0  0  0  0  0  0  0  0  0  0
   68.1511   44.1306   55.7140 N   0  0  0  0  0  0  0  0  0  0  0  0
   68.2265   46.6079   55.1232 C   0  0  0  0  0  0  0  0  0  0  0  0
   68.7261   46.5960   53.7971 N   0  0  0  0  0  0  0  0  0  0  0  0
   68.0190   45.7902   52.8656 C   0  0  0  0  0  0  0  0  0  0  0  0
   67.8321   46.4577   51.5349 C   0  0  0  0  0  0  0  0  0  0  0  0
   68.9345   47.0871   51.0415 O   0  0  0  0  0  0  0  0  0  0  0  0
   69.8532   47.5402   51.9512 C   0  0  0  0  0  0  0  0  0  0  0  0
   69.0737   47.8618   53.2343 C   0  0  0  0  0  0  0  0  0  0  0  0
 20 21  2  0
 21 23  1  0
 21 22  1  0
 23 24  1  0
 24 25  1  0
 24 29  1  0
 25 26  1  0
 26 27  1  0
 27 28  1  0
 28 29  1  0
 22  1  1  0
  1  2  2  0
  1  7  1  0
  2  3  1  0
  3  4  2  0
  4  8  1  0
  4  5  1  0
  8  9  1  0
  8 13  1  0
  9 10  1  0
 10 11  1  0
 11 14  1  0
 11 12  1  0
 14 15  2  0
 14 19  1  0
 15 16  1  0
 16 17  2  0
 17 18  1  0
 18 19  2  0
 12 13  1  0
  5  6  1  0
  5  7  2  0
M  CHG  1  24   1
M  END
>  <minimizedAffinity>  (400) 
-8.78486

$$$$
data/reference_output_2/data/smiles/171707.pdb
     RDKit          3D

 26 28  0  0  0  0  0  0  0  0999 V2000
   67.6100   45.2590   54.8896 O   0  0  0  0  0  0  0  0  0  0  0  0
   68.4500   42.2243   56.7643 C   0  0  0  0  0  0  0  0  0  0  0  0
   67.8578   43.1068   55.8986 C   0  0  0  0  0  0  0  0  0  0  0  0
   68.2598   44.4451   55.7823 C   0  0  0  0  0  0  0  0  0  0  0  0
   69.2723   44.7977   56.5828 N   0  0  0  0  0  0  0  0  0  0  0  0
   69.8905   43.9990   57.4418 C   0  0  0  0  0  0  0  0  0  0  0  0
   69.4883   42.6804   57.5521 C   0  0  0  0  0  0  0  0  0  0  0  0
   71.0138   44.4331   58.3155 C   0  0  0  0  0  0  0  0  0  0  0  0
   71.1826   45.7990   58.2930 F   0  0  0  0  0  0  0  0  0  0  0  0
   70.8096   43.9435   59.5914 F   0  0  0  0  0  0  0  0  0  0  0  0
   72.1581   43.7977   57.8297 F   0  0  0  0  0  0  0  0  0  0  0  0
   67.6723   40.2587   55.5776 N   0  0  0  0  0  0  0  0  0  0  0  0
   68.0135   40.8169   56.8738 C   0  0  0  0  0  0  0  0  0  0  0  0
   68.1486   46.1050   53.9690 C   0  0  0  0  0  0  0  0  0  0  0  0
   67.9273   45.7428   52.6283 C   0  0  0  0  0  0  0  0  0  0  0  0
   68.4405   46.5491   51.6416 C   0  0  0  0  0  0  0  0  0  0  0  0
   69.1604   47.6932   51.9303 C   0  0  0  0  0  0  0  0  0  0  0  0
   69.3884   48.0675   53.2376 C   0  0  0  0  0  0  0  0  0  0  0  0
   68.8679   47.2478   54.2191 C   0  0  0  0  0  0  0  0  0  0  0  0
   70.1499   49.2772   53.5122 C   0  0  0  0  0  0  0  0  0  0  0  0
   71.3420   49.3599   53.1240 O   0  0  0  0  0  0  0  0  0  0  0  0
   69.6553   50.4131   54.2009 N   0  0  0  0  0  0  0  0  0  0  0  0
   70.4121   51.5978   54.4655 C   0  0  0  0  0  0  0  0  0  0  0  0
   71.2493   51.5518   55.7507 C   0  0  0  0  0  0  0  0  0  0  0  0
   71.0386   52.9255   55.8488 O   0  0  0  0  0  0  0  0  0  0  0  0
   69.7995   52.7045   55.2025 C   0  0  0  0  0  0  0  0  0  0  0  0
 12 13  1  0
 13  2  1  0
  2  3  2  0
  2  7  1  0
  3  4  1  0
  4  1  1  0
  4  5  2  0
  1 14  1  0
 14 15  2  0
 14 19  1  0
 15 16  1  0
 16 17  2  0
 17 18  1  0
 18 20  1  0
 18 19  2  0
 20 21  2  0
 20 22  1  0
 22 23  1  0
 23 24  1  0
 23 26  1  0
 24 25  1  0
 25 26  1  0
  5  6  1  0
  6  8  1  0
  6  7  2  0
  8  9  1  0
  8 10  1  0
  8 11  1  0
M  CHG  1  12   1
M  END
>  <minimizedAffinity>  (401) 
-8.78350

$$$$
data/200k_reference_output/data/smiles/48385.pdb
     RDKit          3D

 29 32  0  0  0  0  0  0  0  0999 V2000
   72.1150   42.6822   58.0811 C   0  0  0  0  0  0  0  0  0  0  0  0
   73.3744   42.7496   58.6454 C   0  0  0  0  0  0  0  0  0  0  0  0
   73.9813   41.6274   59.1714 C   0  0  0  0  0  0  0  0  0  0  0  0
   73.3759   40.3887   59.1661 C   0  0  0  0  0  0  0  0  0  0  0  0
   73.9733   39.2923   59.6799 N   0  0  0  0  0  0  0  0  0  0  0  0
   73.3734   38.0882   59.6672 C   0  0  0  0  0  0  0  0  0  0  0  0
   72.1480   38.0066   59.1232 N   0  0  0  0  0  0  0  0  0  0  0  0
   71.5125   39.0770   58.5970 C   0  0  0  0  0  0  0  0  0  0  0  0
   70.3673   38.9670   58.0952 O   0  0  0  0  0  0  0  0  0  0  0  0
   72.1168   40.3187   58.6026 C   0  0  0  0  0  0  0  0  0  0  0  0
   71.5105   41.4437   58.0763 C   0  0  0  0  0  0  0  0  0  0  0  0
   71.3577   36.8020   59.0229 C   0  0  0  0  0  0  0  0  0  0  0  0
   72.0943   35.8378   58.1059 C   0  0  0  0  0  0  0  0  0  0  0  0
   73.5721   36.1683   58.0161 C   0  0  0  0  0  0  0  0  0  0  0  0
   74.3039   35.8301   59.3139 C   0  0  0  0  0  0  0  0  0  0  0  0
   74.1967   37.0066   60.2793 C   0  0  0  0  0  0  0  0  0  0  0  0
   70.7409   44.7572   58.3037 C   0  0  0  0  0  0  0  0  0  0  0  0
   70.6024   44.4984   59.5263 O   0  0  0  0  0  0  0  0  0  0  0  0
   71.5058   43.8511   57.5410 N   0  0  0  0  0  0  0  0  0  0  0  0
   70.3205   47.0815   58.2491 O   0  0  0  0  0  0  0  0  0  0  0  0
   70.1161   45.9578   57.7434 C   0  0  0  0  0  0  0  0  0  0  0  0
   69.2630   45.8676   56.6114 N   0  0  0  0  0  0  0  0  0  0  0  0
   68.5969   46.9625   55.9749 C   0  0  0  0  0  0  0  0  0  0  0  0
   68.5956   46.9330   54.5079 C   0  0  0  0  0  0  0  0  0  0  0  0
   69.2757   47.9059   53.7906 C   0  0  0  0  0  0  0  0  0  0  0  0
   69.2644   47.8497   52.4354 C   0  0  0  0  0  0  0  0  0  0  0  0
   68.5998   46.8606   51.7489 C   0  0  0  0  0  0  0  0  0  0  0  0
   67.9349   45.9106   52.4708 C   0  0  0  0  0  0  0  0  0  0  0  0
   67.9212   45.9303   53.8584 C   0  0  0  0  0  0  0  0  0  0  0  0
 20 21  2  0
 21 22  1  0
 21 17  1  0
 22 23  1  0
 23 24  1  0
 24 25  2  0
 24 29  1  0
 25 26  1  0
 26 27  2  0
 27 28  1  0
 28 29  2  0
 17 18  2  0
 17 19  1  0
 19  1  1  0
  1  2  2  0
  1 11  1  0
  2  3  1  0
  3  4  2  0
  4  5  1  0
  4 10  1  0
  5  6  2  0
  6  7  1  0
  6 16  1  0
  7  8  1  0
  7 12  1  0
  8  9  2  0
  8 10  1  0
 10 11  2  0
 12 13  1  0
 13 14  1  0
 14 15  1  0
 15 16  1  0
M  END
>  <minimizedAffinity>  (402) 
-8.78320

$$$$
data/reference_output_2/data/smiles/189014.pdb
     RDKit          3D

 28 31  0  0  0  0  0  0  0  0999 V2000
   69.5227   44.3927   56.7251 C   0  0  0  0  0  0  0  0  0  0  0  0
   68.5566   44.8429   55.8291 C   0  0  0  0  0  0  0  0  0  0  0  0
   67.7068   43.8338   55.5646 N   0  0  0  0  0  0  0  0  0  0  0  0
   68.0746   42.7250   56.2538 C   0  0  0  0  0  0  0  0  0  0  0  0
   67.5346   41.4588   56.3181 C   0  0  0  0  0  0  0  0  0  0  0  0
   68.1185   40.5023   57.1156 C   0  0  0  0  0  0  0  0  0  0  0  0
   69.2440   40.8082   57.8501 C   0  0  0  0  0  0  0  0  0  0  0  0
   69.7560   42.0812   57.7615 C   0  0  0  0  0  0  0  0  0  0  0  0
   69.2039   43.0787   56.9734 C   0  0  0  0  0  0  0  0  0  0  0  0
   70.6858   45.4050   58.6762 C   0  0  0  0  0  0  0  0  0  0  0  0
   69.7114   45.0298   59.3760 O   0  0  0  0  0  0  0  0  0  0  0  0
   70.6189   45.0887   57.2923 N   0  0  0  0  0  0  0  0  0  0  0  0
   72.9568   45.9207   58.7287 O   0  0  0  0  0  0  0  0  0  0  0  0
   71.8287   46.1194   59.2158 C   0  0  0  0  0  0  0  0  0  0  0  0
   71.7402   47.0497   60.2857 N   0  0  0  0  0  0  0  0  0  0  0  0
   72.8600   47.7492   60.8132 C   0  0  0  0  0  0  0  0  0  0  0  0
   73.3316   48.9000   60.2425 C   0  0  0  0  0  0  0  0  0  0  0  0
   74.4206   49.5486   60.7873 C   0  0  0  0  0  0  0  0  0  0  0  0
   75.0511   49.0837   61.8820 N   0  0  0  0  0  0  0  0  0  0  0  0
   74.5784   47.9520   62.4342 C   0  0  0  0  0  0  0  0  0  0  0  0
   73.5016   47.2529   61.9505 C   0  0  0  0  0  0  0  0  0  0  0  0
   68.5332   46.1895   55.3092 C   0  0  0  0  0  0  0  0  0  0  0  0
   68.5025   47.1627   56.0862 O   0  0  0  0  0  0  0  0  0  0  0  0
   68.5444   46.4165   53.8787 C   0  0  0  0  0  0  0  0  0  0  0  0
   67.6871   45.8133   52.9457 C   0  0  0  0  0  0  0  0  0  0  0  0
   68.0097   46.2846   51.6949 C   0  0  0  0  0  0  0  0  0  0  0  0
   69.0431   47.1522   51.8918 C   0  0  0  0  0  0  0  0  0  0  0  0
   69.3064   47.1895   53.1507 O   0  0  0  0  0  0  0  0  0  0  0  0
 13 14  2  0
 14 15  1  0
 14 10  1  0
 15 16  1  0
 16 17  2  0
 16 21  1  0
 17 18  1  0
 18 19  2  0
 19 20  1  0
 20 21  2  0
 10 11  2  0
 10 12  1  0
 12  1  1  0
  1  2  2  0
  1  9  1  0
  2 22  1  0
  2  3  1  0
 22 23  2  0
 22 24  1  0
 24 25  2  0
 24 28  1  0
 25 26  1  0
 26 27  2  0
 27 28  1  0
  3  4  1  0
  4  5  2  0
  4  9  1  0
  5  6  1  0
  6  7  2  0
  7  8  1  0
  8  9  2  0
M  END
>  <minimizedAffinity>  (403) 
-8.78295

$$$$
data/reference_output_2/data/smiles/98454.pdb
     RDKit          3D

 26 28  0  0  0  0  0  0  0  0999 V2000
   69.0209   43.8941   56.6196 C   0  0  0  0  0  0  0  0  0  0  0  0
   68.7870   42.6352   56.9776 C   0  0  0  0  0  0  0  0  0  0  0  0
   67.5894   42.0050   56.4904 C   0  0  0  0  0  0  0  0  0  0  0  0
   66.8050   42.6495   55.7498 O   0  0  0  0  0  0  0  0  0  0  0  0
   67.3520   40.6598   56.8809 N   0  0  0  0  0  0  0  0  0  0  0  0
   68.2600   39.9765   57.7141 C   0  0  0  0  0  0  0  0  0  0  0  0
   68.0334   38.7804   58.0515 O   0  0  0  0  0  0  0  0  0  0  0  0
   69.4768   40.5490   58.2377 N   0  0  0  0  0  0  0  0  0  0  0  0
   69.7191   41.8913   57.8484 C   0  0  0  0  0  0  0  0  0  0  0  0
   70.7481   42.5441   58.2103 O   0  0  0  0  0  0  0  0  0  0  0  0
   68.1058   44.5703   55.7857 N   0  0  0  0  0  0  0  0  0  0  0  0
   67.6774   45.2071   53.0892 N   0  0  0  0  0  0  0  0  0  0  0  0
   68.2398   46.1781   53.9576 C   0  0  0  0  0  0  0  0  0  0  0  0
   68.5753   47.4269   53.4833 C   0  0  0  0  0  0  0  0  0  0  0  0
   69.1215   48.3818   54.3064 C   0  0  0  0  0  0  0  0  0  0  0  0
   69.3382   48.0812   55.6347 C   0  0  0  0  0  0  0  0  0  0  0  0
   69.0013   46.8294   56.1086 C   0  0  0  0  0  0  0  0  0  0  0  0
   68.4463   45.8459   55.2912 C   0  0  0  0  0  0  0  0  0  0  0  0
   70.3907   39.7695   59.0030 C   0  0  0  0  0  0  0  0  0  0  0  0
   71.3275   38.8675   58.3485 C   0  0  0  0  0  0  0  0  0  0  0  0
   71.6533   37.5290   58.7149 C   0  0  0  0  0  0  0  0  0  0  0  0
   70.9567   36.6231   59.3466 C   0  0  0  0  0  0  0  0  0  0  0  0
   71.6189   35.2942   59.5685 C   0  0  0  0  0  0  0  0  0  0  0  0
   72.1402   34.7294   58.2628 C   0  0  0  0  0  0  0  0  0  0  0  0
   72.9478   35.7689   57.5106 C   0  0  0  0  0  0  0  0  0  0  0  0
   73.0519   37.0505   58.3099 C   0  0  0  0  0  0  0  0  0  0  0  0
 12 13  1  0
 13 14  2  0
 13 18  1  0
 14 15  1  0
 15 16  2  0
 16 17  1  0
 17 18  2  0
 18 11  1  0
 11  1  1  0
  1  2  2  0
  2  3  1  0
  2  9  1  0
  3  4  2  0
  3  5  1  0
  5  6  1  0
  6  7  2  0
  6  8  1  0
  8 19  1  0
  8  9  1  0
 19 20  1  0
 20 21  1  0
 21 22  2  0
 21 26  1  0
 22 23  1  0
 23 24  1  0
 24 25  1  0
 25 26  1  0
  9 10  2  0
M  END
>  <minimizedAffinity>  (404) 
-8.78258

$$$$
data/200k_reference_output/data/smiles/2250.pdb
     RDKit          3D

 27 29  0  0  0  0  0  0  0  0999 V2000
   69.2577   43.5553   58.7226 O   0  0  0  0  0  0  0  0  0  0  0  0
   69.2657   42.3082   58.9228 C   0  0  0  0  0  0  0  0  0  0  0  0
   69.9363   41.7334   60.0321 N   0  0  0  0  0  0  0  0  0  0  0  0
   69.9127   40.3259   60.2087 C   0  0  0  0  0  0  0  0  0  0  0  0
   70.5032   39.7760   61.1904 O   0  0  0  0  0  0  0  0  0  0  0  0
   69.2287   39.4378   59.3017 N   0  0  0  0  0  0  0  0  0  0  0  0
   68.5542   40.0255   58.1845 C   0  0  0  0  0  0  0  0  0  0  0  0
   67.9221   39.3173   57.3289 O   0  0  0  0  0  0  0  0  0  0  0  0
   68.5427   41.4646   57.9490 C   0  0  0  0  0  0  0  0  0  0  0  0
   67.9175   42.0096   56.9146 C   0  0  0  0  0  0  0  0  0  0  0  0
   69.2186   38.0128   59.5015 C   0  0  0  0  0  0  0  0  0  0  0  0
   70.4517   37.3252   59.0771 C   0  0  0  0  0  0  0  0  0  0  0  0
   71.2363   37.8846   58.1019 C   0  0  0  0  0  0  0  0  0  0  0  0
   72.3904   37.2607   57.6912 C   0  0  0  0  0  0  0  0  0  0  0  0
   72.7776   36.0747   58.2455 C   0  0  0  0  0  0  0  0  0  0  0  0
   71.9848   35.5252   59.2217 C   0  0  0  0  0  0  0  0  0  0  0  0
   70.8364   36.1330   59.6391 C   0  0  0  0  0  0  0  0  0  0  0  0
   67.9395   43.4158   56.7353 N   0  0  0  0  0  0  0  0  0  0  0  0
   68.0091   43.9884   55.4366 N   0  0  0  0  0  0  0  0  0  0  0  0
   68.2439   45.3612   55.2499 C   0  0  0  0  0  0  0  0  0  0  0  0
   68.3929   46.0798   56.2981 O   0  0  0  0  0  0  0  0  0  0  0  0
   68.3185   45.9627   53.9241 C   0  0  0  0  0  0  0  0  0  0  0  0
   69.0520   47.0823   53.6194 C   0  0  0  0  0  0  0  0  0  0  0  0
   69.0675   47.5951   52.3156 C   0  0  0  0  0  0  0  0  0  0  0  0
   68.3603   47.0105   51.2895 C   0  0  0  0  0  0  0  0  0  0  0  0
   67.6216   45.8849   51.5889 C   0  0  0  0  0  0  0  0  0  0  0  0
   67.6047   45.3799   52.8710 C   0  0  0  0  0  0  0  0  0  0  0  0
  1  2  2  0
  2  3  1  0
  2  9  1  0
  3  4  1  0
  4  5  2  0
  4  6  1  0
  6 11  1  0
  6  7  1  0
 11 12  1  0
 12 13  2  0
 12 17  1  0
 13 14  1  0
 14 15  2  0
 15 16  1  0
 16 17  2  0
  7  8  2  0
  7  9  1  0
  9 10  2  0
 10 18  1  0
 18 19  1  0
 19 20  1  0
 20 21  2  0
 20 22  1  0
 22 23  2  0
 22 27  1  0
 23 24  1  0
 24 25  2  0
 25 26  1  0
 26 27  2  0
M  END
>  <minimizedAffinity>  (405) 
-8.78196

$$$$
data/200k_reference_output/data/smiles/30031.pdb
     RDKit          3D

 27 29  0  0  0  0  0  0  0  0999 V2000
   69.8975   44.6723   57.3908 C   0  0  0  0  0  0  0  0  0  0  0  0
   68.9183   44.2652   56.7160 O   0  0  0  0  0  0  0  0  0  0  0  0
   69.8997   46.0338   57.7962 N   0  0  0  0  0  0  0  0  0  0  0  0
   74.6535   43.7397   58.4552 C   0  0  0  0  0  0  0  0  0  0  0  0
   73.2756   43.2376   58.2570 C   0  0  0  0  0  0  0  0  0  0  0  0
   72.2706   44.1498   57.9308 C   0  0  0  0  0  0  0  0  0  0  0  0
   70.9721   43.7657   57.7314 C   0  0  0  0  0  0  0  0  0  0  0  0
   70.6989   42.3961   57.8738 C   0  0  0  0  0  0  0  0  0  0  0  0
   71.6421   41.4718   58.1911 C   0  0  0  0  0  0  0  0  0  0  0  0
   72.9316   41.9117   58.3800 C   0  0  0  0  0  0  0  0  0  0  0  0
   71.3042   40.0904   58.3222 N   0  0  0  0  0  0  0  0  0  0  0  0
   70.0763   39.5951   58.6009 C   0  0  0  0  0  0  0  0  0  0  0  0
   70.1282   38.2191   58.6502 C   0  0  0  0  0  0  0  0  0  0  0  0
   71.4391   37.8824   58.3907 C   0  0  0  0  0  0  0  0  0  0  0  0
   72.0117   36.4884   58.3315 C   0  0  0  0  0  0  0  0  0  0  0  0
   72.0915   39.0372   58.2034 N   0  0  0  0  0  0  0  0  0  0  0  0
   68.8745   46.9134   57.4758 N   0  0  0  0  0  0  0  0  0  0  0  0
   69.2204   48.0207   56.2280 S   0  0  0  0  0  0  0  0  0  0  0  0
   68.2774   49.2051   56.4293 O   0  0  0  0  0  0  0  0  0  0  0  0
   70.6300   48.5686   56.3413 O   0  0  0  0  0  0  0  0  0  0  0  0
   68.9092   47.4315   54.6240 C   0  0  0  0  0  0  0  0  0  0  0  0
   68.0873   46.3557   54.3875 C   0  0  0  0  0  0  0  0  0  0  0  0
   67.8393   45.9198   53.0797 C   0  0  0  0  0  0  0  0  0  0  0  0
   68.4255   46.5786   52.0278 C   0  0  0  0  0  0  0  0  0  0  0  0
   69.2494   47.6570   52.2544 C   0  0  0  0  0  0  0  0  0  0  0  0
   69.4868   48.0766   53.5169 C   0  0  0  0  0  0  0  0  0  0  0  0
   70.2978   49.1411   53.7708 F   0  0  0  0  0  0  0  0  0  0  0  0
  4  5  1  0
  5  6  2  0
  5 10  1  0
  6  7  1  0
  7  1  1  0
  7  8  2  0
  1  2  2  0
  1  3  1  0
  3 17  1  0
 17 18  1  0
 18 19  2  0
 18 20  2  0
 18 21  1  0
 21 22  2  0
 21 26  1  0
 22 23  1  0
 23 24  2  0
 24 25  1  0
 25 26  2  0
 26 27  1  0
  8  9  1  0
  9 11  1  0
  9 10  2  0
 11 12  1  0
 11 16  1  0
 12 13  2  0
 13 14  1  0
 14 15  1  0
 14 16  2  0
M  END
>  <minimizedAffinity>  (406) 
-8.78147

$$$$
data/reference_output_2/data/smiles/154417.pdb
     RDKit          3D

 28 31  0  0  0  0  0  0  0  0999 V2000
   68.7389   42.7915   56.8919 C   0  0  0  0  0  0  0  0  0  0  0  0
   69.0697   41.5079   57.2722 C   0  0  0  0  0  0  0  0  0  0  0  0
   70.2285   41.2448   58.0007 C   0  0  0  0  0  0  0  0  0  0  0  0
   71.0105   42.3396   58.3097 C   0  0  0  0  0  0  0  0  0  0  0  0
   70.6837   43.6227   57.9315 C   0  0  0  0  0  0  0  0  0  0  0  0
   71.4746   44.7257   58.2445 C   0  0  0  0  0  0  0  0  0  0  0  0
   72.5280   44.4996   58.9048 O   0  0  0  0  0  0  0  0  0  0  0  0
   71.1267   45.9661   57.8596 N   0  0  0  0  0  0  0  0  0  0  0  0
   70.0041   46.1984   57.1573 C   0  0  0  0  0  0  0  0  0  0  0  0
   69.2274   45.1372   56.8470 N   0  0  0  0  0  0  0  0  0  0  0  0
   69.5385   43.8799   57.2115 C   0  0  0  0  0  0  0  0  0  0  0  0
   70.5830   39.8942   58.4063 C   0  0  0  0  0  0  0  0  0  0  0  0
   69.7220   38.8253   58.4714 C   0  0  0  0  0  0  0  0  0  0  0  0
   70.4340   37.7629   58.8873 N   0  0  0  0  0  0  0  0  0  0  0  0
   71.6974   38.0890   59.0910 N   0  0  0  0  0  0  0  0  0  0  0  0
   71.8046   39.4019   58.7985 C   0  0  0  0  0  0  0  0  0  0  0  0
   66.6969   42.0817   55.6752 C   0  0  0  0  0  0  0  0  0  0  0  0
   67.5850   43.0296   56.1692 O   0  0  0  0  0  0  0  0  0  0  0  0
   69.6118   47.5670   56.7294 C   0  0  2  0  0  0  0  0  0  0  0  0
   69.6670   48.5201   57.8422 N   0  0  0  0  0  0  0  0  0  0  0  0
   68.2544   47.6061   56.0812 C   0  0  0  0  0  0  0  0  0  0  0  0
   68.4344   47.3114   54.6390 C   0  0  0  0  0  0  0  0  0  0  0  0
   69.2694   48.0937   53.8730 C   0  0  0  0  0  0  0  0  0  0  0  0
   69.4712   47.8629   52.5361 C   0  0  0  0  0  0  0  0  0  0  0  0
   68.8269   46.8226   51.9275 C   0  0  0  0  0  0  0  0  0  0  0  0
   67.9843   46.0132   52.6495 C   0  0  0  0  0  0  0  0  0  0  0  0
   67.3407   44.9702   52.0380 F   0  0  0  0  0  0  0  0  0  0  0  0
   67.7953   46.2671   54.0091 C   0  0  0  0  0  0  0  0  0  0  0  0
 17 18  1  0
 18  1  1  0
  1  2  2  0
  1 11  1  0
  2  3  1  0
  3 12  1  0
  3  4  2  0
 12 13  1  0
 12 16  2  0
 13 14  2  0
 14 15  1  0
 15 16  1  0
  4  5  1  0
  5  6  1  0
  5 11  2  0
  6  7  2  0
  6  8  1  0
  8  9  1  0
  9 19  1  0
  9 10  2  0
 19 20  1  1
 19 21  1  0
 21 22  1  0
 22 23  2  0
 22 28  1  0
 23 24  1  0
 24 25  2  0
 25 26  1  0
 26 27  1  0
 26 28  2  0
 10 11  1  0
M  CHG  1  20   1
M  END
>  <minimizedAffinity>  (407) 
-8.78052

$$$$
data/reference_output_2/data/smiles/88808.pdb
     RDKit          3D

 30 33  0  0  0  0  0  0  0  0999 V2000
   69.3680   44.4738   56.7940 C   0  0  2  0  0  0  0  0  0  0  0  0
   69.2281   45.8778   57.0449 N   0  0  0  0  0  0  0  0  0  0  0  0
   68.9134   46.8461   56.2371 C   0  0  0  0  0  0  0  0  0  0  0  0
   68.7140   46.7278   54.7899 C   0  0  0  0  0  0  0  0  0  0  0  0
   69.1599   47.8063   54.0571 C   0  0  0  0  0  0  0  0  0  0  0  0
   68.9982   47.8466   52.6871 C   0  0  0  0  0  0  0  0  0  0  0  0
   68.3801   46.7811   52.0236 C   0  0  0  0  0  0  0  0  0  0  0  0
   67.9390   45.6960   52.7662 C   0  0  0  0  0  0  0  0  0  0  0  0
   68.1056   45.6689   54.1281 C   0  0  0  0  0  0  0  0  0  0  0  0
   67.7027   44.4392   54.7647 N   0  0  0  0  0  0  0  0  0  0  0  0
   68.3283   43.8717   55.9130 C   0  0  0  0  0  0  0  0  0  0  0  0
   67.9342   42.6955   56.1959 O   0  0  0  0  0  0  0  0  0  0  0  0
   68.8429   48.1856   56.7770 C   0  0  0  0  0  0  0  0  0  0  0  0
   67.5867   48.5991   57.2485 C   0  0  0  0  0  0  0  0  0  0  0  0
   67.3889   49.8712   57.7056 C   0  0  0  0  0  0  0  0  0  0  0  0
   68.3746   50.8184   57.7392 C   0  0  0  0  0  0  0  0  0  0  0  0
   69.6128   50.4355   57.2764 C   0  0  0  0  0  0  0  0  0  0  0  0
   69.8137   49.1286   56.8057 C   0  0  0  0  0  0  0  0  0  0  0  0
   70.4843   42.8300   58.3802 C   0  0  0  0  0  0  0  0  0  0  0  0
   71.4010   42.6430   57.5461 O   0  0  0  0  0  0  0  0  0  0  0  0
   69.4473   43.7287   58.0441 N   0  0  0  0  0  0  0  0  0  0  0  0
   70.2759   43.1301   60.7683 N   0  0  0  0  0  0  0  0  0  0  0  0
   70.4527   42.1444   59.6822 C   0  0  2  0  0  0  0  0  0  0  0  0
   71.6174   41.2838   60.0073 C   0  0  0  0  0  0  0  0  0  0  0  0
   71.5201   39.8986   59.4836 C   0  0  0  0  0  0  0  0  0  0  0  0
   72.6915   39.2549   59.0994 C   0  0  0  0  0  0  0  0  0  0  0  0
   72.6670   37.9836   58.5783 C   0  0  0  0  0  0  0  0  0  0  0  0
   71.4655   37.3520   58.4409 C   0  0  0  0  0  0  0  0  0  0  0  0
   70.2989   37.9897   58.8232 C   0  0  0  0  0  0  0  0  0  0  0  0
   70.3129   39.2657   59.3481 C   0  0  0  0  0  0  0  0  0  0  0  0
 23 22  1  1
 23 24  1  0
 23 19  1  0
 24 25  1  0
 25 26  2  0
 25 30  1  0
 26 27  1  0
 27 28  2  0
 28 29  1  0
 29 30  2  0
 19 20  2  0
 19 21  1  0
  1 21  1  1
  1  2  1  0
  1 11  1  0
  2  3  2  0
  3 13  1  0
  3  4  1  0
 13 14  2  0
 13 18  1  0
 14 15  1  0
 15 16  2  0
 16 17  1  0
 17 18  2  0
  4  5  1  0
  4  9  2  0
  5  6  2  0
  6  7  1  0
  7  8  2  0
  8  9  1  0
  9 10  1  0
 10 11  1  0
 11 12  2  0
M  CHG  1  22   1
M  END
>  <minimizedAffinity>  (408) 
-8.78041

$$$$
data/reference_output_2/data/smiles/195413.pdb
     RDKit          3D

 26 29  0  0  0  0  0  0  0  0999 V2000
   71.7584   47.1587   59.1459 C   0  0  0  0  0  0  0  0  0  0  0  0
   71.9959   45.7990   59.0618 C   0  0  0  0  0  0  0  0  0  0  0  0
   71.1922   45.0724   58.2154 C   0  0  0  0  0  0  0  0  0  0  0  0
   70.2017   45.6985   57.4929 C   0  0  0  0  0  0  0  0  0  0  0  0
   69.9888   47.0766   57.6028 C   0  0  0  0  0  0  0  0  0  0  0  0
   70.7766   47.8073   58.4368 C   0  0  0  0  0  0  0  0  0  0  0  0
   72.4250   47.8430   61.2866 O   0  0  0  0  0  0  0  0  0  0  0  0
   72.5953   47.9544   60.0380 C   0  0  0  0  0  0  0  0  0  0  0  0
   73.5841   48.8432   59.5698 N   0  0  0  0  0  0  0  0  0  0  0  0
   74.3668   49.5936   60.5285 C   0  0  0  0  0  0  0  0  0  0  0  0
   75.6973   49.8917   59.8902 C   0  0  0  0  0  0  0  0  0  0  0  0
   75.5993   50.6544   58.6815 N   0  0  0  0  0  0  0  0  0  0  0  0
   74.4053   50.4344   57.9251 C   0  0  0  0  0  0  0  0  0  0  0  0
   73.8415   49.0362   58.1648 C   0  0  0  0  0  0  0  0  0  0  0  0
   68.8942   47.6197   56.7902 C   0  0  0  0  0  0  0  0  0  0  0  0
   68.5482   46.8450   55.6044 C   0  0  0  0  0  0  0  0  0  0  0  0
   68.0570   45.5826   55.6909 N   0  0  0  0  0  0  0  0  0  0  0  0
   67.7379   44.8799   54.6156 N   0  0  0  0  0  0  0  0  0  0  0  0
   67.8855   45.3836   53.3594 C   0  0  0  0  0  0  0  0  0  0  0  0
   67.5735   44.6930   52.3375 O   0  0  0  0  0  0  0  0  0  0  0  0
   68.3753   46.6483   53.2061 C   0  0  0  0  0  0  0  0  0  0  0  0
   68.7028   47.3685   54.3462 C   0  0  0  0  0  0  0  0  0  0  0  0
   69.2145   48.7225   54.1524 C   0  0  0  0  0  0  0  0  0  0  0  0
   70.1913   48.7977   53.0297 C   0  0  0  0  0  0  0  0  0  0  0  0
   70.0093   47.8246   51.9278 C   0  0  0  0  0  0  0  0  0  0  0  0
   68.5783   47.2592   51.8749 C   0  0  0  0  0  0  0  0  0  0  0  0
  7  8  2  0
  8  1  1  0
  8  9  1  0
  1  2  2  0
  1  6  1  0
  2  3  1  0
  3  4  2  0
  4  5  1  0
  5 15  1  0
  5  6  2  0
 15 16  1  0
 16 17  2  0
 16 22  1  0
 17 18  1  0
 18 19  1  0
 19 20  2  0
 19 21  1  0
 21 22  2  0
 21 26  1  0
 22 23  1  0
 23 24  1  0
 24 25  1  0
 25 26  1  0
  9 10  1  0
  9 14  1  0
 10 11  1  0
 11 12  1  0
 12 13  1  0
 13 14  1  0
M  CHG  1  12   1
M  END
>  <minimizedAffinity>  (409) 
-8.78000

$$$$
data/reference_output_2/data/smiles/130825.pdb
     RDKit          3D

 27 30  0  0  0  0  0  0  0  0999 V2000
   69.1233   47.1440   55.7795 N   0  0  0  0  0  0  0  0  0  0  0  0
   68.4680   46.1506   55.1636 C   0  0  0  0  0  0  0  0  0  0  0  0
   68.0202   45.1412   55.7859 O   0  0  0  0  0  0  0  0  0  0  0  0
   68.2388   46.1559   53.7947 C   0  0  0  0  0  0  0  0  0  0  0  0
   67.5944   45.2568   52.9400 C   0  0  0  0  0  0  0  0  0  0  0  0
   67.6397   45.7317   51.6450 C   0  0  0  0  0  0  0  0  0  0  0  0
   68.3206   46.9289   51.7308 C   0  0  0  0  0  0  0  0  0  0  0  0
   68.6672   47.1619   53.0175 N   0  0  0  0  0  0  0  0  0  0  0  0
   69.3282   48.1644   53.6258 C   0  0  0  0  0  0  0  0  0  0  0  0
   69.7885   49.2171   52.8727 C   0  0  0  0  0  0  0  0  0  0  0  0
   70.4743   50.2716   53.4550 C   0  0  0  0  0  0  0  0  0  0  0  0
   70.6633   50.1957   54.8229 C   0  0  0  0  0  0  0  0  0  0  0  0
   70.2221   49.1785   55.5735 N   0  0  0  0  0  0  0  0  0  0  0  0
   69.5573   48.1667   54.9766 C   0  0  0  0  0  0  0  0  0  0  0  0
   69.3424   47.2017   57.1869 C   0  0  0  0  0  0  0  0  0  0  0  0
   70.5266   46.5790   57.7716 C   0  0  0  0  0  0  0  0  0  0  0  0
   69.9173   44.8952   59.3101 O   0  0  0  0  0  0  0  0  0  0  0  0
   70.5187   45.2239   58.2750 C   0  0  0  0  0  0  0  0  0  0  0  0
   71.2133   44.1749   57.5972 N   0  0  0  0  0  0  0  0  0  0  0  0
   71.1864   42.8421   58.1199 C   0  0  0  0  0  0  0  0  0  0  0  0
   69.9772   42.0977   57.6863 C   0  0  0  0  0  0  0  0  0  0  0  0
   69.0294   42.5942   56.8182 C   0  0  0  0  0  0  0  0  0  0  0  0
   67.9217   41.8528   56.4294 C   0  0  0  0  0  0  0  0  0  0  0  0
   67.7211   40.5732   56.9009 C   0  0  0  0  0  0  0  0  0  0  0  0
   68.6588   40.0567   57.7715 C   0  0  0  0  0  0  0  0  0  0  0  0
   69.7556   40.7967   58.1530 C   0  0  0  0  0  0  0  0  0  0  0  0
   70.6840   40.2776   59.0183 F   0  0  0  0  0  0  0  0  0  0  0  0
 17 18  2  0
 18 16  1  0
 18 19  1  0
 16 15  1  0
 15  1  1  0
  1  2  1  0
  1 14  1  0
  2  3  2  0
  2  4  1  0
  4  5  2  0
  4  8  1  0
  5  6  1  0
  6  7  2  0
  7  8  1  0
  8  9  1  0
  9 10  1  0
  9 14  2  0
 10 11  2  0
 11 12  1  0
 12 13  2  0
 13 14  1  0
 19 20  1  0
 20 21  1  0
 21 22  2  0
 21 26  1  0
 22 23  1  0
 23 24  2  0
 24 25  1  0
 25 26  2  0
 26 27  1  0
M  END
>  <minimizedAffinity>  (410) 
-8.77908

$$$$
data/200k_reference_output/data/smiles/49253.pdb
     RDKit          3D

 26 28  0  0  0  0  0  0  0  0999 V2000
   69.6474   44.2131   57.2245 C   0  0  0  0  0  0  0  0  0  0  0  0
   69.7652   45.2177   57.9946 O   0  0  0  0  0  0  0  0  0  0  0  0
   68.8293   44.3707   56.0976 N   0  0  0  0  0  0  0  0  0  0  0  0
   73.8513   42.0926   58.5288 C   0  0  0  0  0  0  0  0  0  0  0  0
   72.4167   42.0219   58.2594 N   0  0  0  0  0  0  0  0  0  0  0  0
   71.7035   43.0575   57.8785 N   0  0  0  0  0  0  0  0  0  0  0  0
   70.3832   43.0320   57.6137 C   0  0  0  0  0  0  0  0  0  0  0  0
   69.7317   41.8185   57.7607 C   0  0  0  0  0  0  0  0  0  0  0  0
   68.3802   41.6986   57.5478 C   0  0  0  0  0  0  0  0  0  0  0  0
   67.7603   40.4605   57.7352 C   0  0  0  0  0  0  0  0  0  0  0  0
   68.4755   39.3600   58.1273 C   0  0  0  0  0  0  0  0  0  0  0  0
   69.8387   39.4651   58.3486 C   0  0  0  0  0  0  0  0  0  0  0  0
   70.4289   40.6898   58.1603 C   0  0  0  0  0  0  0  0  0  0  0  0
   71.7933   40.8422   58.4020 C   0  0  0  0  0  0  0  0  0  0  0  0
   72.4157   39.8042   58.7655 O   0  0  0  0  0  0  0  0  0  0  0  0
   68.1071   45.5245   55.7509 N   0  0  0  0  0  0  0  0  0  0  0  0
   68.4060   46.2529   54.5588 C   0  0  0  0  0  0  0  0  0  0  0  0
   67.9502   45.8554   53.3240 C   0  0  0  0  0  0  0  0  0  0  0  0
   67.1950   44.7288   53.2675 F   0  0  0  0  0  0  0  0  0  0  0  0
   68.2405   46.5647   52.1700 C   0  0  0  0  0  0  0  0  0  0  0  0
   67.7981   46.1684   50.9620 F   0  0  0  0  0  0  0  0  0  0  0  0
   69.0119   47.7145   52.2290 C   0  0  0  0  0  0  0  0  0  0  0  0
   69.4714   48.1185   53.4607 C   0  0  0  0  0  0  0  0  0  0  0  0
   70.2206   49.2436   53.5197 F   0  0  0  0  0  0  0  0  0  0  0  0
   69.1732   47.3967   54.6186 C   0  0  0  0  0  0  0  0  0  0  0  0
   69.6390   47.8317   55.8154 F   0  0  0  0  0  0  0  0  0  0  0  0
  4  5  1  0
  5  6  1  0
  5 14  1  0
  6  7  2  0
  7  1  1  0
  7  8  1  0
  1  2  2  0
  1  3  1  0
  3 16  1  0
 16 17  1  0
 17 18  2  0
 17 25  1  0
 18 19  1  0
 18 20  1  0
 20 21  1  0
 20 22  2  0
 22 23  1  0
 23 24  1  0
 23 25  2  0
 25 26  1  0
  8  9  1  0
  8 13  2  0
  9 10  2  0
 10 11  1  0
 11 12  2  0
 12 13  1  0
 13 14  1  0
 14 15  2  0
M  END
>  <minimizedAffinity>  (411) 
-8.77871

$$$$
data/200k_reference_output/data/smiles/45911.pdb
     RDKit          3D

 27 29  0  0  0  0  0  0  0  0999 V2000
   68.1360   46.2626   53.9656 C   0  0  0  0  0  0  0  0  0  0  0  0
   67.9955   45.9322   52.6410 C   0  0  0  0  0  0  0  0  0  0  0  0
   68.6121   46.6500   51.6300 C   0  0  0  0  0  0  0  0  0  0  0  0
   69.3847   47.7253   52.0212 C   0  0  0  0  0  0  0  0  0  0  0  0
   69.5417   48.0786   53.3437 C   0  0  0  0  0  0  0  0  0  0  0  0
   68.9110   47.3368   54.3150 C   0  0  0  0  0  0  0  0  0  0  0  0
   70.3837   49.2444   53.7091 C   0  0  0  0  0  0  0  0  0  0  0  0
   71.5204   49.3889   53.2000 O   0  0  0  0  0  0  0  0  0  0  0  0
   69.9233   50.2099   54.6330 N   0  0  0  0  0  0  0  0  0  0  0  0
   68.6601   50.2561   55.3436 C   0  0  0  0  0  0  0  0  0  0  0  0
   68.4586   51.6755   55.7847 C   0  0  0  0  0  0  0  0  0  0  0  0
   69.5554   52.4251   55.0586 C   0  0  1  0  0  0  0  0  0  0  0  0
   69.9355   53.5868   55.7209 O   0  0  0  0  0  0  0  0  0  0  0  0
   70.6531   51.3813   55.0625 C   0  0  0  0  0  0  0  0  0  0  0  0
   67.4938   45.5070   54.9355 O   0  0  0  0  0  0  0  0  0  0  0  0
   68.5105   42.3929   56.6443 C   0  0  0  0  0  0  0  0  0  0  0  0
   67.8421   43.3092   55.8398 C   0  0  0  0  0  0  0  0  0  0  0  0
   68.2173   44.6324   55.7719 C   0  0  0  0  0  0  0  0  0  0  0  0
   69.2619   45.0645   56.5011 N   0  0  0  0  0  0  0  0  0  0  0  0
   69.9412   44.1947   57.2998 C   0  0  0  0  0  0  0  0  0  0  0  0
   69.5776   42.8593   57.3818 C   0  0  0  0  0  0  0  0  0  0  0  0
   71.1061   44.6607   58.1181 C   0  0  0  0  0  0  0  0  0  0  0  0
   72.2918   44.1664   57.6529 F   0  0  0  0  0  0  0  0  0  0  0  0
   70.9254   44.3301   59.4588 F   0  0  0  0  0  0  0  0  0  0  0  0
   71.1754   46.0497   58.0679 F   0  0  0  0  0  0  0  0  0  0  0  0
   67.5239   40.6203   55.4145 N   0  0  0  0  0  0  0  0  0  0  0  0
   68.0851   40.9565   56.7021 C   0  0  0  0  0  0  0  0  0  0  0  0
 26 27  1  0
 27 16  1  0
 16 17  2  0
 16 21  1  0
 17 18  1  0
 18 15  1  0
 18 19  2  0
 15  1  1  0
  1  2  2  0
  1  6  1  0
  2  3  1  0
  3  4  2  0
  4  5  1  0
  5  7  1  0
  5  6  2  0
  7  8  2  0
  7  9  1  0
  9 10  1  0
  9 14  1  0
 10 11  1  0
 11 12  1  0
 12 13  1  1
 12 14  1  0
 19 20  1  0
 20 22  1  0
 20 21  2  0
 22 23  1  0
 22 24  1  0
 22 25  1  0
M  CHG  1  26   1
M  END
>  <minimizedAffinity>  (412) 
-8.77559

$$$$
data/200k_reference_output/data/smiles/8164.pdb
     RDKit          3D

 26 29  0  0  0  0  0  0  0  0999 V2000
   69.6385   48.8561   52.8386 C   0  0  0  0  0  0  0  0  0  0  0  0
   69.3069   48.7479   51.5381 N   0  0  0  0  0  0  0  0  0  0  0  0
   68.6616   47.6118   51.3097 N   0  0  0  0  0  0  0  0  0  0  0  0
   68.5378   46.9166   52.4584 C   0  0  0  0  0  0  0  0  0  0  0  0
   67.9632   45.7020   52.7652 C   0  0  0  0  0  0  0  0  0  0  0  0
   67.9909   45.2393   54.0549 C   0  0  0  0  0  0  0  0  0  0  0  0
   68.6075   46.0120   55.0472 C   0  0  0  0  0  0  0  0  0  0  0  0
   69.1776   47.2223   54.7272 C   0  0  0  0  0  0  0  0  0  0  0  0
   69.1474   47.6860   53.4269 C   0  0  0  0  0  0  0  0  0  0  0  0
   70.3360   51.3936   52.7932 O   0  0  0  0  0  0  0  0  0  0  0  0
   70.4927   50.1592   53.6351 S   0  0  0  0  0  0  0  0  0  0  0  0
   71.9640   49.8193   53.6404 O   0  0  0  0  0  0  0  0  0  0  0  0
   69.9078   50.3848   55.2568 C   0  0  0  0  0  0  0  0  0  0  0  0
   70.7081   50.1005   56.3369 C   0  0  0  0  0  0  0  0  0  0  0  0
   70.2512   50.2777   57.6484 C   0  0  0  0  0  0  0  0  0  0  0  0
   68.9796   50.7446   57.8863 C   0  0  0  0  0  0  0  0  0  0  0  0
   68.1785   51.0297   56.8109 C   0  0  0  0  0  0  0  0  0  0  0  0
   66.9339   51.4867   57.0184 F   0  0  0  0  0  0  0  0  0  0  0  0
   68.6358   50.8528   55.5241 C   0  0  0  0  0  0  0  0  0  0  0  0
   68.6281   45.5201   56.3575 N   0  0  0  0  0  0  0  0  0  0  0  0
   69.7684   45.1416   57.1118 C   0  0  0  0  0  0  0  0  0  0  0  0
   69.7762   43.7341   57.6278 C   0  0  0  0  0  0  0  0  0  0  0  0
   70.4136   43.7259   59.0005 C   0  0  0  0  0  0  0  0  0  0  0  0
   71.6862   44.3978   58.9868 N   0  0  0  0  0  0  0  0  0  0  0  0
   71.6535   45.7438   58.5103 C   0  0  0  0  0  0  0  0  0  0  0  0
   70.1932   46.0959   58.1845 C   0  0  0  0  0  0  0  0  0  0  0  0
 10 11  2  0
 11 12  2  0
 11 13  1  0
 11  1  1  0
 13 14  2  0
 13 19  1  0
 14 15  1  0
 15 16  2  0
 16 17  1  0
 17 18  1  0
 17 19  2  0
  1  2  2  0
  1  9  1  0
  2  3  1  0
  3  4  1  0
  4  5  1  0
  4  9  2  0
  5  6  2  0
  6  7  1  0
  7 20  1  0
  7  8  2  0
 20 21  1  0
 21 22  1  0
 21 26  1  0
 22 23  1  0
 23 24  1  0
 24 25  1  0
 25 26  1  0
  8  9  1  0
M  CHG  1  24   1
M  END
>  <minimizedAffinity>  (413) 
-8.77501

$$$$
data/reference_output_2/data/smiles/108960.pdb
     RDKit          3D

 28 30  0  0  0  0  0  0  0  0999 V2000
   70.0191   48.9343   56.9709 C   0  0  0  0  0  0  0  0  0  0  0  0
   69.1015   49.5049   57.6378 O   0  0  0  0  0  0  0  0  0  0  0  0
   69.7064   48.4879   55.6332 C   0  0  0  0  0  0  0  0  0  0  0  0
   70.1794   49.1831   54.5457 C   0  0  0  0  0  0  0  0  0  0  0  0
   71.0324   50.4218   54.6839 C   0  0  0  0  0  0  0  0  0  0  0  0
   69.8543   48.7214   53.3193 N   0  0  0  0  0  0  0  0  0  0  0  0
   70.3267   49.4181   52.2259 O   0  0  0  0  0  0  0  0  0  0  0  0
   69.1055   47.6364   53.1217 C   0  0  0  0  0  0  0  0  0  0  0  0
   68.8351   47.2545   51.8201 C   0  0  0  0  0  0  0  0  0  0  0  0
   68.0610   46.1321   51.6356 C   0  0  0  0  0  0  0  0  0  0  0  0
   67.5731   45.4140   52.7105 C   0  0  0  0  0  0  0  0  0  0  0  0
   67.8614   45.8235   53.9967 C   0  0  0  0  0  0  0  0  0  0  0  0
   68.6401   46.9519   54.1982 C   0  0  0  0  0  0  0  0  0  0  0  0
   68.9514   47.3938   55.4334 N   0  0  0  0  0  0  0  0  0  0  0  0
   68.4323   46.6358   56.4801 O   0  0  0  0  0  0  0  0  0  0  0  0
   71.3762   48.7406   57.5776 C   0  0  0  0  0  0  0  0  0  0  0  0
   71.2302   47.9384   58.8106 C   0  0  0  0  0  0  0  0  0  0  0  0
   71.2784   48.4877   59.9211 O   0  0  0  0  0  0  0  0  0  0  0  0
   72.0080   45.6380   58.1240 N   0  0  0  0  0  0  0  0  0  0  0  0
   71.0318   46.5130   58.6944 C   0  0  0  0  0  0  0  0  0  0  0  0
   69.9662   45.9488   59.0970 O   0  0  0  0  0  0  0  0  0  0  0  0
   74.2575   43.9175   58.4566 C   0  0  0  0  0  0  0  0  0  0  0  0
   72.8846   43.4184   58.1752 C   0  0  0  0  0  0  0  0  0  0  0  0
   72.7110   42.0496   58.0729 C   0  0  0  0  0  0  0  0  0  0  0  0
   71.4731   41.4814   57.8126 C   0  0  0  0  0  0  0  0  0  0  0  0
   70.3775   42.3098   57.6486 C   0  0  0  0  0  0  0  0  0  0  0  0
   70.5737   43.6654   57.7549 C   0  0  0  0  0  0  0  0  0  0  0  0
   71.8037   44.2335   58.0142 C   0  0  0  0  0  0  0  0  0  0  0  0
 22 23  1  0
 23 24  2  0
 23 28  1  0
 24 25  1  0
 25 26  2  0
 26 27  1  0
 27 28  2  0
 28 19  1  0
 19 20  1  0
 20 21  2  0
 20 17  1  0
 17 18  2  0
 17 16  1  0
 16  1  1  0
  1  2  2  0
  1  3  1  0
  3  4  2  0
  3 14  1  0
  4  5  1  0
  4  6  1  0
  6  7  1  0
  6  8  2  0
  8  9  1  0
  8 13  1  0
  9 10  2  0
 10 11  1  0
 11 12  2  0
 12 13  1  0
 13 14  2  0
 14 15  1  0
M  CHG  4   6   1   7  -1  14   1  15  -1
M  END
>  <minimizedAffinity>  (414) 
-8.77326

$$$$
data/reference_output_2/data/smiles/187122.pdb
     RDKit          3D

 26 28  0  0  0  0  0  0  0  0999 V2000
   68.8326   42.6681   57.1272 C   0  0  0  0  0  0  0  0  0  0  0  0
   68.9948   43.8798   56.5686 N   0  0  0  0  0  0  0  0  0  0  0  0
   68.2045   44.3320   55.5762 C   0  0  0  0  0  0  0  0  0  0  0  0
   67.2145   43.5535   55.1180 N   0  0  0  0  0  0  0  0  0  0  0  0
   66.9705   42.3052   55.6221 C   0  0  0  0  0  0  0  0  0  0  0  0
   66.0448   41.5713   55.1958 O   0  0  0  0  0  0  0  0  0  0  0  0
   67.8088   41.8837   56.6407 C   0  0  0  0  0  0  0  0  0  0  0  0
   67.6487   40.6216   57.2315 O   0  0  0  0  0  0  0  0  0  0  0  0
   68.4347   45.6559   55.0132 C   0  0  0  0  0  0  0  0  0  0  0  0
   68.8006   46.7558   55.7317 C   0  0  0  0  0  0  0  0  0  0  0  0
   69.0108   47.9998   55.1203 C   0  0  0  0  0  0  0  0  0  0  0  0
   68.8502   48.1357   53.7714 C   0  0  0  0  0  0  0  0  0  0  0  0
   68.4765   47.0371   53.0031 C   0  0  0  0  0  0  0  0  0  0  0  0
   68.3107   47.1428   51.6618 F   0  0  0  0  0  0  0  0  0  0  0  0
   68.2820   45.8421   53.6363 C   0  0  0  0  0  0  0  0  0  0  0  0
   69.5968   42.6881   59.3294 O   0  0  0  0  0  0  0  0  0  0  0  0
   69.7067   42.1785   58.2113 C   0  0  0  0  0  0  0  0  0  0  0  0
   70.6526   41.1545   58.0106 N   0  0  0  0  0  0  0  0  0  0  0  0
   71.5500   40.6137   59.0029 C   0  0  0  0  0  0  0  0  0  0  0  0
   71.4386   39.1411   58.9761 C   0  0  0  0  0  0  0  0  0  0  0  0
   72.2672   38.3741   58.1717 C   0  0  0  0  0  0  0  0  0  0  0  0
   72.1832   37.0068   58.1169 C   0  0  0  0  0  0  0  0  0  0  0  0
   71.2571   36.3365   58.8715 C   0  0  0  0  0  0  0  0  0  0  0  0
   71.1581   34.9696   58.8284 F   0  0  0  0  0  0  0  0  0  0  0  0
   70.4156   37.0774   59.6838 C   0  0  0  0  0  0  0  0  0  0  0  0
   70.5110   38.4725   59.7309 C   0  0  0  0  0  0  0  0  0  0  0  0
 16 17  2  0
 17 18  1  0
 17  1  1  0
 18 19  1  0
 19 20  1  0
 20 21  2  0
 20 26  1  0
 21 22  1  0
 22 23  2  0
 23 24  1  0
 23 25  1  0
 25 26  2  0
  1  2  1  0
  1  7  2  0
  2  3  2  0
  3  9  1  0
  3  4  1  0
  9 10  2  0
  9 15  1  0
 10 11  1  0
 11 12  2  0
 12 13  1  0
 13 14  1  0
 13 15  2  0
  4  5  1  0
  5  6  2  0
  5  7  1  0
  7  8  1  0
M  END
>  <minimizedAffinity>  (415) 
-8.77306

$$$$
data/200k_reference_output/data/smiles/57638.pdb
     RDKit          3D

 28 31  0  0  0  0  0  0  0  0999 V2000
   71.2312   47.0513   58.6432 C   0  0  0  0  0  0  0  0  0  0  0  0
   70.8764   45.7895   58.1668 C   0  0  0  0  0  0  0  0  0  0  0  0
   69.9857   45.6138   57.1304 C   0  0  0  0  0  0  0  0  0  0  0  0
   69.4005   46.6979   56.5126 C   0  0  0  0  0  0  0  0  0  0  0  0
   69.7428   47.9486   56.9747 C   0  0  0  0  0  0  0  0  0  0  0  0
   70.6479   48.1292   58.0281 C   0  0  0  0  0  0  0  0  0  0  0  0
   68.2613   46.4938   55.1842 S   0  0  0  0  0  0  0  0  0  0  0  0
   67.9146   45.0486   54.9923 O   0  0  0  0  0  0  0  0  0  0  0  0
   66.9989   47.2201   55.5621 O   0  0  0  0  0  0  0  0  0  0  0  0
   68.9348   47.1975   53.7356 C   0  0  0  0  0  0  0  0  0  0  0  0
   69.5259   48.4464   53.7085 C   0  0  0  0  0  0  0  0  0  0  0  0
   70.0527   48.9812   52.5512 C   0  0  0  0  0  0  0  0  0  0  0  0
   69.9813   48.2387   51.4016 C   0  0  0  0  0  0  0  0  0  0  0  0
   69.4141   47.0268   51.3997 N   0  0  0  0  0  0  0  0  0  0  0  0
   68.9101   46.5279   52.5305 C   0  0  0  0  0  0  0  0  0  0  0  0
   72.1841   47.2165   59.7678 C   0  0  0  0  0  0  0  0  0  0  0  0
   73.7769   44.9212   60.4067 O   0  0  0  0  0  0  0  0  0  0  0  0
   72.7573   45.1255   61.1050 C   0  0  0  0  0  0  0  0  0  0  0  0
   71.9593   46.2481   60.8089 N   0  0  0  0  0  0  0  0  0  0  0  0
   72.4428   44.1905   62.1909 C   0  0  0  0  0  0  0  0  0  0  0  0
   71.3393   43.3678   62.2726 C   0  0  0  0  0  0  0  0  0  0  0  0
   71.3822   42.6284   63.4378 C   0  0  0  0  0  0  0  0  0  0  0  0
   70.5776   41.6758   64.0309 C   0  0  0  0  0  0  0  0  0  0  0  0
   70.9085   41.1252   65.2131 N   0  0  0  0  0  0  0  0  0  0  0  0
   72.0204   41.4676   65.8680 C   0  0  0  0  0  0  0  0  0  0  0  0
   72.8325   42.4180   65.2854 C   0  0  0  0  0  0  0  0  0  0  0  0
   72.5495   43.0206   64.0749 C   0  0  0  0  0  0  0  0  0  0  0  0
   73.1540   43.9487   63.3060 N   0  0  0  0  0  0  0  0  0  0  0  0
 17 18  2  0
 18 19  1  0
 18 20  1  0
 19 16  1  0
 16  1  1  0
  1  2  2  0
  1  6  1  0
  2  3  1  0
  3  4  2  0
  4  7  1  0
  4  5  1  0
  7  8  2  0
  7  9  2  0
  7 10  1  0
 10 11  2  0
 10 15  1  0
 11 12  1  0
 12 13  2  0
 13 14  1  0
 14 15  2  0
  5  6  2  0
 20 21  2  0
 20 28  1  0
 21 22  1  0
 22 23  2  0
 22 27  1  0
 23 24  1  0
 24 25  2  0
 25 26  1  0
 26 27  2  0
 27 28  1  0
M  END
>  <minimizedAffinity>  (416) 
-8.77167

$$$$
data/reference_output_2/data/smiles/173710.pdb
     RDKit          3D

 25 27  0  0  0  0  0  0  0  0999 V2000
   71.0428   44.4274   58.7130 S   0  0  0  0  0  0  0  0  0  0  0  0
   71.0960   44.8022   60.2083 O   0  0  0  0  0  0  0  0  0  0  0  0
   72.4492   44.8159   58.2394 O   0  0  0  0  0  0  0  0  0  0  0  0
   70.8549   42.6835   58.5875 C   0  0  0  0  0  0  0  0  0  0  0  0
   69.6025   42.1480   58.2440 C   0  0  0  0  0  0  0  0  0  0  0  0
   69.3895   40.7885   58.1680 C   0  0  0  0  0  0  0  0  0  0  0  0
   70.3977   39.8883   58.4273 C   0  0  0  0  0  0  0  0  0  0  0  0
   70.2136   38.5212   58.3589 C   0  0  0  0  0  0  0  0  0  0  0  0
   71.2259   37.6203   58.6184 C   0  0  0  0  0  0  0  0  0  0  0  0
   72.4682   38.1256   58.9590 C   0  0  0  0  0  0  0  0  0  0  0  0
   72.6449   39.4922   59.0258 C   0  0  0  0  0  0  0  0  0  0  0  0
   71.6333   40.3937   58.7657 C   0  0  0  0  0  0  0  0  0  0  0  0
   71.8393   41.7669   58.8398 C   0  0  0  0  0  0  0  0  0  0  0  0
   69.8598   45.3515   58.0209 N   0  0  0  0  0  0  0  0  0  0  0  0
   68.7751   46.4248   56.0829 C   0  0  0  0  0  0  0  0  0  0  0  0
   68.0127   47.1595   56.8263 O   0  0  0  0  0  0  0  0  0  0  0  0
   69.6764   45.5396   56.7005 N   0  0  0  0  0  0  0  0  0  0  0  0
   69.7970   49.1083   52.0225 C   0  0  0  0  0  0  0  0  0  0  0  0
   69.1763   47.8939   52.6570 C   0  0  0  0  0  0  0  0  0  0  0  0
   68.5428   46.9507   51.8790 C   0  0  0  0  0  0  0  0  0  0  0  0
   67.9834   45.8515   52.4769 C   0  0  0  0  0  0  0  0  0  0  0  0
   68.0246   45.6356   53.8677 C   0  0  0  0  0  0  0  0  0  0  0  0
   67.4073   44.5185   54.3439 F   0  0  0  0  0  0  0  0  0  0  0  0
   68.6510   46.5665   54.6366 C   0  0  0  0  0  0  0  0  0  0  0  0
   69.2199   47.6893   54.0094 C   0  0  0  0  0  0  0  0  0  0  0  0
 18 19  1  0
 19 20  2  0
 19 25  1  0
 20 21  1  0
 21 22  2  0
 22 23  1  0
 22 24  1  0
 24 15  1  0
 24 25  2  0
 15 16  2  0
 15 17  1  0
 17 14  1  0
 14  1  1  0
  1  2  2  0
  1  3  2  0
  1  4  1  0
  4  5  2  0
  4 13  1  0
  5  6  1  0
  6  7  2  0
  7  8  1  0
  7 12  1  0
  8  9  2  0
  9 10  1  0
 10 11  2  0
 11 12  1  0
 12 13  2  0
M  END
>  <minimizedAffinity>  (417) 
-8.77150

$$$$
data/reference_output_2/data/smiles/194303.pdb
     RDKit          3D

 26 28  0  0  0  0  0  0  0  0999 V2000
   68.8959   42.6366   57.1715 C   0  0  0  0  0  0  0  0  0  0  0  0
   69.0044   43.8378   56.6224 N   0  0  0  0  0  0  0  0  0  0  0  0
   68.2300   44.3494   55.6370 C   0  0  0  0  0  0  0  0  0  0  0  0
   67.2634   43.5524   55.1821 N   0  0  0  0  0  0  0  0  0  0  0  0
   67.0742   42.2915   55.6897 C   0  0  0  0  0  0  0  0  0  0  0  0
   66.1366   41.6159   55.1967 O   0  0  0  0  0  0  0  0  0  0  0  0
   67.8882   41.8106   56.6957 C   0  0  0  0  0  0  0  0  0  0  0  0
   67.6899   40.5320   57.2040 O   0  0  0  0  0  0  0  0  0  0  0  0
   68.4797   45.6956   55.1367 C   0  0  0  0  0  0  0  0  0  0  0  0
   68.9274   46.6480   56.0661 C   0  0  0  0  0  0  0  0  0  0  0  0
   69.2016   47.9502   55.7306 C   0  0  0  0  0  0  0  0  0  0  0  0
   69.0387   48.3699   54.4275 C   0  0  0  0  0  0  0  0  0  0  0  0
   68.5993   47.4473   53.5033 C   0  0  0  0  0  0  0  0  0  0  0  0
   68.3199   46.1140   53.8538 C   0  0  0  0  0  0  0  0  0  0  0  0
   67.8949   45.2773   52.8918 F   0  0  0  0  0  0  0  0  0  0  0  0
   69.7697   42.7222   59.3621 O   0  0  0  0  0  0  0  0  0  0  0  0
   69.7823   42.1749   58.2323 C   0  0  0  0  0  0  0  0  0  0  0  0
   70.6662   41.0993   57.9945 N   0  0  0  0  0  0  0  0  0  0  0  0
   71.5972   40.5360   58.9353 C   0  0  0  0  0  0  0  0  0  0  0  0
   71.4789   39.0779   58.9362 C   0  0  0  0  0  0  0  0  0  0  0  0
   72.3257   38.3214   58.1688 C   0  0  0  0  0  0  0  0  0  0  0  0
   72.2221   36.9236   58.1428 C   0  0  0  0  0  0  0  0  0  0  0  0
   71.2459   36.3224   58.9090 C   0  0  0  0  0  0  0  0  0  0  0  0
   71.1085   34.9638   58.9145 F   0  0  0  0  0  0  0  0  0  0  0  0
   70.3876   37.0595   59.6850 C   0  0  0  0  0  0  0  0  0  0  0  0
   70.5242   38.4491   59.6813 C   0  0  0  0  0  0  0  0  0  0  0  0
 16 17  2  0
 17 18  1  0
 17  1  1  0
 18 19  1  0
 19 20  1  0
 20 21  2  0
 20 26  1  0
 21 22  1  0
 22 23  2  0
 23 24  1  0
 23 25  1  0
 25 26  2  0
  1  2  1  0
  1  7  2  0
  2  3  2  0
  3  9  1  0
  3  4  1  0
  9 10  2  0
  9 14  1  0
 10 11  1  0
 11 12  2  0
 12 13  1  0
 13 14  2  0
 14 15  1  0
  4  5  1  0
  5  6  2  0
  5  7  1  0
  7  8  1  0
M  END
>  <minimizedAffinity>  (418) 
-8.77128

$$$$
data/200k_reference_output/data/smiles/15047.pdb
     RDKit          3D

 28 31  0  0  0  0  0  0  0  0999 V2000
   68.9665   42.3100   56.5960 O   0  0  0  0  0  0  0  0  0  0  0  0
   69.6196   42.9904   57.4303 C   0  0  0  0  0  0  0  0  0  0  0  0
   70.4266   42.3908   58.4333 N   0  0  0  0  0  0  0  0  0  0  0  0
   70.5382   40.9669   58.5447 C   0  0  1  0  0  0  0  0  0  0  0  0
   72.0024   40.5371   58.4821 C   0  0  0  0  0  0  0  0  0  0  0  0
   72.1220   39.1456   58.0631 N   0  0  0  0  0  0  0  0  0  0  0  0
   71.5776   37.9803   58.6817 C   0  0  0  0  0  0  0  0  0  0  0  0
   72.1455   36.7976   58.2346 C   0  0  0  0  0  0  0  0  0  0  0  0
   71.7220   35.5664   58.7429 C   0  0  0  0  0  0  0  0  0  0  0  0
   72.4584   34.0892   58.1590 Cl  0  0  0  0  0  0  0  0  0  0  0  0
   70.7256   35.5636   59.6971 C   0  0  0  0  0  0  0  0  0  0  0  0
   70.1688   36.7557   60.1318 C   0  0  0  0  0  0  0  0  0  0  0  0
   70.5808   37.9784   59.6363 C   0  0  0  0  0  0  0  0  0  0  0  0
   69.8894   39.0931   60.2069 N   0  0  0  0  0  0  0  0  0  0  0  0
   69.9079   40.4735   59.8029 C   0  0  0  0  0  0  0  0  0  0  0  0
   69.3562   41.2676   60.5737 O   0  0  0  0  0  0  0  0  0  0  0  0
   69.5433   44.4617   57.3638 C   0  0  0  0  0  0  0  0  0  0  0  0
   70.0352   45.3446   58.2508 N   0  0  0  0  0  0  0  0  0  0  0  0
   69.7523   46.5837   57.8187 N   0  0  0  0  0  0  0  0  0  0  0  0
   69.0772   46.4988   56.6528 C   0  0  0  0  0  0  0  0  0  0  0  0
   68.9592   45.1829   56.3909 N   0  0  0  0  0  0  0  0  0  0  0  0
   68.5492   47.5898   55.7921 C   0  0  0  0  0  0  0  0  0  0  0  0
   68.5355   47.1767   54.3644 C   0  0  0  0  0  0  0  0  0  0  0  0
   69.3495   47.8211   53.4593 C   0  0  0  0  0  0  0  0  0  0  0  0
   69.3542   47.4560   52.1326 C   0  0  0  0  0  0  0  0  0  0  0  0
   68.5481   46.4336   51.6473 C   0  0  0  0  0  0  0  0  0  0  0  0
   67.7451   45.8051   52.5637 C   0  0  0  0  0  0  0  0  0  0  0  0
   67.7326   46.1621   53.8891 C   0  0  0  0  0  0  0  0  0  0  0  0
  1  2  2  0
  2  3  1  0
  2 17  1  0
  4  3  1  1
  4  5  1  0
  4 15  1  0
  5  6  1  0
  6  7  1  0
  7  8  1  0
  7 13  2  0
  8  9  2  0
  9 10  1  0
  9 11  1  0
 11 12  2  0
 12 13  1  0
 13 14  1  0
 14 15  1  0
 15 16  2  0
 17 18  2  0
 17 21  1  0
 18 19  1  0
 19 20  2  0
 20 22  1  0
 20 21  1  0
 22 23  1  0
 23 24  2  0
 23 28  1  0
 24 25  1  0
 25 26  2  0
 26 27  1  0
 27 28  2  0
M  END
>  <minimizedAffinity>  (419) 
-8.77054

$$$$
data/reference_output_2/data/smiles/185326.pdb
     RDKit          3D

 26 29  0  0  0  0  0  0  0  0999 V2000
   68.2995   45.7653   54.0581 C   0  0  0  0  0  0  0  0  0  0  0  0
   67.6017   45.3930   52.9294 C   0  0  0  0  0  0  0  0  0  0  0  0
   67.6396   46.1603   51.7667 C   0  0  0  0  0  0  0  0  0  0  0  0
   68.3952   47.3115   51.7593 C   0  0  0  0  0  0  0  0  0  0  0  0
   69.1038   47.7144   52.8640 C   0  0  0  0  0  0  0  0  0  0  0  0
   69.0349   46.9260   53.9842 C   0  0  0  0  0  0  0  0  0  0  0  0
   68.5497   45.3902   56.3702 O   0  0  0  0  0  0  0  0  0  0  0  0
   68.2241   44.9250   55.2476 C   0  0  0  0  0  0  0  0  0  0  0  0
   67.7947   43.5693   55.2341 N   0  0  0  0  0  0  0  0  0  0  0  0
   67.7439   42.7913   56.4476 C   0  0  0  0  0  0  0  0  0  0  0  0
   66.7389   42.3975   57.0624 N   0  0  0  0  0  0  0  0  0  0  0  0
   66.8447   41.6489   58.2295 C   0  0  0  0  0  0  0  0  0  0  0  0
   68.2134   41.7299   58.8279 C   0  0  0  0  0  0  0  0  0  0  0  0
   69.1682   42.2073   57.3551 S   0  0  0  0  0  0  0  0  0  0  0  0
   70.0296   49.1812   52.7630 S   0  0  0  0  0  0  0  0  0  0  0  0
   71.4866   48.8594   52.8214 O   0  0  0  0  0  0  0  0  0  0  0  0
   69.7673   49.8072   51.4220 O   0  0  0  0  0  0  0  0  0  0  0  0
   69.5745   50.3202   53.9774 N   0  0  0  0  0  0  0  0  0  0  0  0
   69.7028   51.7617   53.8928 C   0  0  0  0  0  0  0  0  0  0  0  0
   68.5198   52.2613   54.6902 C   0  0  0  0  0  0  0  0  0  0  0  0
   68.3611   51.2088   55.7130 C   0  0  0  0  0  0  0  0  0  0  0  0
   67.7236   51.2223   56.9345 C   0  0  0  0  0  0  0  0  0  0  0  0
   67.7090   50.0781   57.7406 C   0  0  0  0  0  0  0  0  0  0  0  0
   68.3551   48.9655   57.2502 C   0  0  0  0  0  0  0  0  0  0  0  0
   68.9987   48.9258   56.0380 C   0  0  0  0  0  0  0  0  0  0  0  0
   69.0031   50.0621   55.2548 C   0  0  0  0  0  0  0  0  0  0  0  0
  7  8  2  0
  8  9  1  0
  8  1  1  0
  9 10  1  0
 10 11  2  0
 10 14  1  0
 11 12  1  0
 12 13  1  0
 13 14  1  0
  1  2  2  0
  1  6  1  0
  2  3  1  0
  3  4  2  0
  4  5  1  0
  5 15  1  0
  5  6  2  0
 15 16  2  0
 15 17  2  0
 15 18  1  0
 18 19  1  0
 18 26  1  0
 19 20  1  0
 20 21  1  0
 21 22  1  0
 21 26  2  0
 22 23  2  0
 23 24  1  0
 24 25  2  0
 25 26  1  0
M  CHG  1  11   1
M  END
>  <minimizedAffinity>  (420) 
-8.76965

$$$$
data/reference_output_2/data/smiles/137004.pdb
     RDKit          3D

 27 30  0  0  0  0  0  0  0  0999 V2000
   69.4546   47.7154   57.2771 C   0  0  0  0  0  0  0  0  0  0  0  0
   70.3169   46.8736   57.7399 C   0  0  0  0  0  0  0  0  0  0  0  0
   70.4114   45.5646   57.2704 N   0  0  0  0  0  0  0  0  0  0  0  0
   70.7255   44.4142   58.0390 C   0  0  0  0  0  0  0  0  0  0  0  0
   71.7361   44.7053   59.1279 C   0  0  1  0  0  0  0  0  0  0  0  0
   72.9421   43.8651   58.9081 C   0  0  0  0  0  0  0  0  0  0  0  0
   72.8204   42.4752   58.8872 C   0  0  0  0  0  0  0  0  0  0  0  0
   73.9055   41.6457   58.6875 C   0  0  0  0  0  0  0  0  0  0  0  0
   75.1512   42.1950   58.5017 C   0  0  0  0  0  0  0  0  0  0  0  0
   75.2866   43.5872   58.5211 C   0  0  0  0  0  0  0  0  0  0  0  0
   74.1977   44.4083   58.7212 C   0  0  0  0  0  0  0  0  0  0  0  0
   74.3926   45.8803   58.7340 C   0  0  0  0  0  0  0  0  0  0  0  0
   73.4005   46.4206   59.7730 C   0  0  0  0  0  0  0  0  0  0  0  0
   72.0921   46.1024   59.2304 N   0  0  0  0  0  0  0  0  0  0  0  0
   71.2644   47.1884   58.8489 C   0  0  0  0  0  0  0  0  0  0  0  0
   71.2833   48.3254   59.3573 O   0  0  0  0  0  0  0  0  0  0  0  0
   67.2319   47.5019   56.7934 O   0  0  0  0  0  0  0  0  0  0  0  0
   68.4802   47.4830   56.2782 C   0  0  0  0  0  0  0  0  0  0  0  0
   68.4678   47.2269   54.8659 C   0  0  0  0  0  0  0  0  0  0  0  0
   67.9207   46.1667   54.1905 C   0  0  0  0  0  0  0  0  0  0  0  0
   68.0115   45.9350   52.8422 C   0  0  0  0  0  0  0  0  0  0  0  0
   68.7059   46.8309   52.0662 C   0  0  0  0  0  0  0  0  0  0  0  0
   69.2792   47.9217   52.6768 C   0  0  0  0  0  0  0  0  0  0  0  0
   69.1732   48.1223   54.0171 C   0  0  0  0  0  0  0  0  0  0  0  0
   70.0032   48.8517   51.8468 N   0  0  0  0  0  0  0  0  0  0  0  0
   70.6603   48.4570   50.8631 O   0  0  0  0  0  0  0  0  0  0  0  0
   69.9937   50.1991   52.1101 O   0  0  0  0  0  0  0  0  0  0  0  0
 17 18  2  0
 18  1  1  0
 18 19  1  0
  1  2  2  0
  2  3  1  0
  2 15  1  0
  3  4  1  0
  5  4  1  6
  5  6  1  0
  5 14  1  0
  6  7  2  0
  6 11  1  0
  7  8  1  0
  8  9  2  0
  9 10  1  0
 10 11  2  0
 11 12  1  0
 12 13  1  0
 13 14  1  0
 14 15  1  0
 15 16  2  0
 19 20  2  0
 19 24  1  0
 20 21  1  0
 21 22  2  0
 22 23  1  0
 23 25  1  0
 23 24  2  0
 25 26  2  0
 25 27  1  0
M  CHG  2  25   1  27  -1
M  END
>  <minimizedAffinity>  (421) 
-8.76830

$$$$
data/reference_output_2/data/smiles/140824.pdb
     RDKit          3D

 29 33  0  0  0  0  0  0  0  0999 V2000
   68.6735   47.1510   55.2506 C   0  0  0  0  0  0  0  0  0  0  0  0
   68.2183   45.8245   54.9877 C   0  0  0  0  0  0  0  0  0  0  0  0
   68.0668   45.3007   53.7393 C   0  0  0  0  0  0  0  0  0  0  0  0
   68.3628   46.0742   52.6629 C   0  0  0  0  0  0  0  0  0  0  0  0
   68.7998   47.3482   52.8406 C   0  0  0  0  0  0  0  0  0  0  0  0
   69.0856   48.1044   51.7562 N   0  0  0  0  0  0  0  0  0  0  0  0
   69.5059   49.3510   51.8643 C   0  0  0  0  0  0  0  0  0  0  0  0
   69.7680   50.0358   50.8368 O   0  0  0  0  0  0  0  0  0  0  0  0
   69.6724   49.9417   53.0867 C   0  0  0  0  0  0  0  0  0  0  0  0
   70.0789   51.2431   53.1993 C   0  0  0  0  0  0  0  0  0  0  0  0
   70.2144   51.8431   54.4224 C   0  0  0  0  0  0  0  0  0  0  0  0
   69.9351   51.1176   55.5401 C   0  0  0  0  0  0  0  0  0  0  0  0
   69.5174   49.7839   55.4625 C   0  0  0  0  0  0  0  0  0  0  0  0
   69.3920   49.2051   54.2430 C   0  0  0  0  0  0  0  0  0  0  0  0
   68.9534   47.8892   54.1296 C   0  0  0  0  0  0  0  0  0  0  0  0
   68.9051   47.5389   56.6198 C   0  0  0  0  0  0  0  0  0  0  0  0
   70.1524   46.9802   57.2911 C   0  0  2  0  0  0  0  0  0  0  0  0
   69.8265   45.7606   57.9807 N   0  0  0  0  0  0  0  0  0  0  0  0
   70.8046   44.7671   58.1611 C   0  0  0  0  0  0  0  0  0  0  0  0
   71.9520   44.9752   57.7055 O   0  0  0  0  0  0  0  0  0  0  0  0
   70.5440   43.4853   58.8637 C   0  0  1  0  0  0  0  0  0  0  0  0
   69.2298   43.5016   59.4878 N   0  0  0  0  0  0  0  0  0  0  0  0
   68.6056   42.2838   59.0487 C   0  0  2  0  0  0  0  0  0  0  0  0
   69.4472   41.1447   59.5781 C   0  0  0  0  0  0  0  0  0  0  0  0
   70.6741   41.0594   58.6613 C   0  0  0  0  0  0  0  0  0  0  0  0
   70.5395   42.3323   57.8846 C   0  0  1  0  0  0  0  0  0  0  0  0
   69.0310   42.2776   57.5688 C   0  0  0  0  0  0  0  0  0  0  0  0
   70.9747   48.6598   59.1700 N   0  0  0  0  0  0  0  0  0  0  0  0
   70.6079   47.9182   58.3407 C   0  0  0  0  0  0  0  0  0  0  0  0
 28 29  3  0
 17 29  1  1
 17 16  1  0
 17 18  1  0
 16  1  1  0
  1  2  2  0
  1 15  1  0
  2  3  1  0
  3  4  2  0
  4  5  1  0
  5  6  1  0
  5 15  2  0
  6  7  1  0
  7  8  2  0
  7  9  1  0
  9 10  1  0
  9 14  2  0
 10 11  2  0
 11 12  1  0
 12 13  2  0
 13 14  1  0
 14 15  1  0
 18 19  1  0
 19 20  2  0
 21 19  1  6
 21 22  1  0
 21 26  1  0
 22 23  1  0
 23 24  1  1
 23 27  1  0
 24 25  1  0
 26 25  1  1
 26 27  1  0
M  CHG  1  22   1
M  END
>  <minimizedAffinity>  (422) 
-8.76803

$$$$
data/reference_output_2/data/smiles/112930.pdb
     RDKit          3D

 28 31  0  0  0  0  0  0  0  0999 V2000
   68.2565   46.3176   54.4653 C   0  0  0  0  0  0  0  0  0  0  0  0
   67.8067   45.3979   53.5139 C   0  0  0  0  0  0  0  0  0  0  0  0
   67.9625   45.6075   52.1604 C   0  0  0  0  0  0  0  0  0  0  0  0
   68.5839   46.7642   51.7200 C   0  0  0  0  0  0  0  0  0  0  0  0
   69.0351   47.6824   52.6294 C   0  0  0  0  0  0  0  0  0  0  0  0
   68.8696   47.4535   53.9802 C   0  0  0  0  0  0  0  0  0  0  0  0
   69.4598   48.5952   54.6561 C   0  0  0  0  0  0  0  0  0  0  0  0
   69.4928   48.7259   55.9030 O   0  0  0  0  0  0  0  0  0  0  0  0
   69.9786   49.5070   53.6781 N   0  0  0  0  0  0  0  0  0  0  0  0
   69.7257   48.9616   52.4036 C   0  0  0  0  0  0  0  0  0  0  0  0
   70.0189   49.4470   51.2571 O   0  0  0  0  0  0  0  0  0  0  0  0
   70.6211   50.7774   54.0042 C   0  0  1  0  0  0  0  0  0  0  0  0
   69.6768   51.9392   53.9901 C   0  0  0  0  0  0  0  0  0  0  0  0
   68.8821   52.1874   55.2251 C   0  0  0  0  0  0  0  0  0  0  0  0
   69.6537   51.9687   56.4690 C   0  0  0  0  0  0  0  0  0  0  0  0
   69.1056   52.1558   57.6094 O   0  0  0  0  0  0  0  0  0  0  0  0
   71.0008   51.5531   56.3400 N   0  0  0  0  0  0  0  0  0  0  0  0
   71.3551   50.7030   55.2753 C   0  0  0  0  0  0  0  0  0  0  0  0
   72.3177   49.8801   55.4401 O   0  0  0  0  0  0  0  0  0  0  0  0
   68.0658   46.0250   55.8363 N   0  0  0  0  0  0  0  0  0  0  0  0
   70.7059   43.3965   57.7727 C   0  0  0  0  0  0  0  0  0  0  0  0
   70.9194   44.7597   57.8458 C   0  0  0  0  0  0  0  0  0  0  0  0
   70.0282   45.5885   57.1953 C   0  0  0  0  0  0  0  0  0  0  0  0
   68.9443   45.1187   56.4828 C   0  0  0  0  0  0  0  0  0  0  0  0
   68.7796   43.7500   56.4427 C   0  0  0  0  0  0  0  0  0  0  0  0
   69.6393   42.8731   57.0758 C   0  0  0  0  0  0  0  0  0  0  0  0
   73.0335   42.5900   57.8103 C   0  0  0  0  0  0  0  0  0  0  0  0
   71.6835   42.5132   58.4856 C   0  0  0  0  0  0  0  0  0  0  0  0
 27 28  1  0
 28 21  1  0
 21 22  2  0
 21 26  1  0
 22 23  1  0
 23 24  2  0
 24 20  1  0
 24 25  1  0
 20  1  1  0
  1  2  2  0
  1  6  1  0
  2  3  1  0
  3  4  2  0
  4  5  1  0
  5  6  2  0
  5 10  1  0
  6  7  1  0
  7  8  2  0
  7  9  1  0
 12  9  1  1
  9 10  1  0
 12 13  1  0
 12 18  1  0
 13 14  1  0
 14 15  1  0
 15 16  2  0
 15 17  1  0
 17 18  1  0
 18 19  2  0
 10 11  2  0
 25 26  2  0
M  END
>  <minimizedAffinity>  (423) 
-8.76544

$$$$
data/reference_output_2/data/smiles/135264.pdb
     RDKit          3D

 25 28  0  0  0  0  0  0  0  0999 V2000
   69.0089   47.5392   56.6219 S   0  0  0  0  0  0  0  0  0  0  0  0
   69.3483   46.0516   56.7226 O   0  0  0  0  0  0  0  0  0  0  0  0
   67.5461   47.6005   56.9661 O   0  0  0  0  0  0  0  0  0  0  0  0
   67.0023   45.3638   50.6727 N   0  0  0  0  0  0  0  0  0  0  0  0
   67.5817   46.0102   51.8018 C   0  0  0  0  0  0  0  0  0  0  0  0
   67.3242   45.6413   53.0979 C   0  0  0  0  0  0  0  0  0  0  0  0
   67.8876   46.2700   54.1903 C   0  0  0  0  0  0  0  0  0  0  0  0
   68.7504   47.3185   53.9504 C   0  0  0  0  0  0  0  0  0  0  0  0
   69.3532   47.9924   54.9949 C   0  0  0  0  0  0  0  0  0  0  0  0
   70.2064   49.0286   54.6756 C   0  0  0  0  0  0  0  0  0  0  0  0
   70.4676   49.4014   53.3703 C   0  0  0  0  0  0  0  0  0  0  0  0
   69.8703   48.7349   52.3222 C   0  0  0  0  0  0  0  0  0  0  0  0
   70.1447   49.1243   51.0162 O   0  0  0  0  0  0  0  0  0  0  0  0
   69.0172   47.7002   52.6292 C   0  0  0  0  0  0  0  0  0  0  0  0
   68.4308   47.0408   51.6152 N   0  0  0  0  0  0  0  0  0  0  0  0
   69.9697   48.3218   57.8076 N   0  0  0  0  0  0  0  0  0  0  0  0
   70.0039   49.7230   58.1847 C   0  0  0  0  0  0  0  0  0  0  0  0
   71.4354   49.9583   58.6546 C   0  0  0  0  0  0  0  0  0  0  0  0
   71.8233   48.6142   59.1620 C   0  0  0  0  0  0  0  0  0  0  0  0
   72.8553   48.2635   59.9975 C   0  0  0  0  0  0  0  0  0  0  0  0
   73.9445   49.5031   60.6204 Cl  0  0  0  0  0  0  0  0  0  0  0  0
   73.0536   46.9480   60.3592 C   0  0  0  0  0  0  0  0  0  0  0  0
   72.1715   45.9968   59.8467 C   0  0  0  0  0  0  0  0  0  0  0  0
   71.1409   46.3690   59.0081 C   0  0  0  0  0  0  0  0  0  0  0  0
   70.9470   47.6855   58.6502 C   0  0  0  0  0  0  0  0  0  0  0  0
  4  5  1  0
  5  6  2  0
  5 15  1  0
  6  7  1  0
  7  8  2  0
  8  9  1  0
  8 14  1  0
  9  1  1  0
  9 10  2  0
  1  2  2  0
  1  3  2  0
  1 16  1  0
 16 17  1  0
 16 25  1  0
 17 18  1  0
 18 19  1  0
 19 20  1  0
 19 25  2  0
 20 21  1  0
 20 22  2  0
 22 23  1  0
 23 24  2  0
 24 25  1  0
 10 11  1  0
 11 12  2  0
 12 13  1  0
 12 14  1  0
 14 15  2  0
M  END
>  <minimizedAffinity>  (424) 
-8.76348

$$$$
data/200k_reference_output/data/smiles/14503.pdb
     RDKit          3D

 28 31  0  0  0  0  0  0  0  0999 V2000
   73.1159   51.6532   55.8881 C   0  0  2  0  0  0  0  0  0  0  0  0
   72.5982   52.8213   56.6923 C   0  0  0  0  0  0  0  0  0  0  0  0
   71.3203   52.5340   57.4066 C   0  0  0  0  0  0  0  0  0  0  0  0
   70.2615   51.9121   56.5499 C   0  0  0  0  0  0  0  0  0  0  0  0
   70.9054   51.0256   55.4909 C   0  0  1  0  0  0  0  0  0  0  0  0
   71.3574   51.8952   54.3790 C   0  0  0  0  0  0  0  0  0  0  0  0
   72.8736   51.9309   54.4545 C   0  0  0  0  0  0  0  0  0  0  0  0
   72.1700   50.4923   56.1726 C   0  0  0  0  0  0  0  0  0  0  0  0
   75.2826   50.4281   55.5531 C   0  0  0  0  0  0  0  0  0  0  0  0
   74.7778   49.9179   54.5184 O   0  0  0  0  0  0  0  0  0  0  0  0
   74.4473   51.3150   56.2631 N   0  0  0  0  0  0  0  0  0  0  0  0
   79.0620   50.6452   58.7458 C   0  0  0  0  0  0  0  0  0  0  0  0
   78.4680   50.1828   57.4631 C   0  0  0  0  0  0  0  0  0  0  0  0
   79.2310   49.4088   56.6146 C   0  0  0  0  0  0  0  0  0  0  0  0
   78.7045   48.9864   55.4553 N   0  0  0  0  0  0  0  0  0  0  0  0
   77.4349   49.3244   55.1323 C   0  0  0  0  0  0  0  0  0  0  0  0
   76.6485   50.0959   55.9577 C   0  0  0  0  0  0  0  0  0  0  0  0
   77.1967   50.5052   57.1091 N   0  0  0  0  0  0  0  0  0  0  0  0
   70.0610   49.9385   55.1423 N   0  0  0  0  0  0  0  0  0  0  0  0
   70.2689   49.1261   54.0105 C   0  0  0  0  0  0  0  0  0  0  0  0
   71.2521   49.3925   53.2902 O   0  0  0  0  0  0  0  0  0  0  0  0
   69.4155   48.0067   53.6344 C   0  0  0  0  0  0  0  0  0  0  0  0
   68.8892   47.1720   54.5964 C   0  0  0  0  0  0  0  0  0  0  0  0
   68.0770   46.0985   54.3050 C   0  0  0  0  0  0  0  0  0  0  0  0
   67.7683   45.8341   53.0007 C   0  0  0  0  0  0  0  0  0  0  0  0
   68.2715   46.6415   52.0126 C   0  0  0  0  0  0  0  0  0  0  0  0
   67.9543   46.3628   50.7253 F   0  0  0  0  0  0  0  0  0  0  0  0
   69.0872   47.7158   52.3280 C   0  0  0  0  0  0  0  0  0  0  0  0
 12 13  1  0
 13 14  2  0
 13 18  1  0
 14 15  1  0
 15 16  2  0
 16 17  1  0
 17  9  1  0
 17 18  2  0
  9 10  2  0
  9 11  1  0
  1 11  1  6
  1  2  1  0
  1  7  1  0
  1  8  1  0
  2  3  1  0
  3  4  1  0
  4  5  1  0
  5 19  1  6
  5  6  1  0
  5  8  1  0
 19 20  1  0
 20 21  2  0
 20 22  1  0
 22 23  2  0
 22 28  1  0
 23 24  1  0
 24 25  2  0
 25 26  1  0
 26 27  1  0
 26 28  2  0
  6  7  1  0
M  END
>  <minimizedAffinity>  (425) 
-8.75989

$$$$
data/200k_reference_output/data/smiles/36613.pdb
     RDKit          3D

 27 29  0  0  0  0  0  0  0  0999 V2000
   70.5863   42.8143   57.8129 C   0  0  0  0  0  0  0  0  0  0  0  0
   69.9899   43.8864   57.1322 C   0  0  0  0  0  0  0  0  0  0  0  0
   68.8061   43.7477   56.5391 N   0  0  0  0  0  0  0  0  0  0  0  0
   68.1954   42.5603   56.6072 C   0  0  0  0  0  0  0  0  0  0  0  0
   67.0791   42.4331   56.0474 O   0  0  0  0  0  0  0  0  0  0  0  0
   68.7080   41.4692   57.2495 C   0  0  0  0  0  0  0  0  0  0  0  0
   68.0449   40.2566   57.2969 C   0  0  0  0  0  0  0  0  0  0  0  0
   68.5644   39.1592   57.9437 C   0  0  0  0  0  0  0  0  0  0  0  0
   69.7865   39.2730   58.5655 C   0  0  0  0  0  0  0  0  0  0  0  0
   70.4656   40.5098   58.5193 C   0  0  0  0  0  0  0  0  0  0  0  0
   69.9497   41.6022   57.8748 C   0  0  0  0  0  0  0  0  0  0  0  0
   68.1813   44.8104   55.8461 N   0  0  0  0  0  0  0  0  0  0  0  0
   68.7508   46.1031   55.9978 C   0  0  0  0  0  0  0  0  0  0  0  0
   69.7648   46.2835   56.7184 O   0  0  0  0  0  0  0  0  0  0  0  0
   68.1785   47.3037   55.3153 C   0  0  0  0  0  0  0  0  0  0  0  0
   68.7985   47.5176   53.9915 C   0  0  0  0  0  0  0  0  0  0  0  0
   68.4261   46.7543   52.8802 C   0  0  0  0  0  0  0  0  0  0  0  0
   67.4668   45.7855   53.0257 F   0  0  0  0  0  0  0  0  0  0  0  0
   68.9920   46.9412   51.6386 C   0  0  0  0  0  0  0  0  0  0  0  0
   69.9557   47.9231   51.5227 C   0  0  0  0  0  0  0  0  0  0  0  0
   70.3235   48.6781   52.6195 C   0  0  0  0  0  0  0  0  0  0  0  0
   69.7620   48.4961   53.8639 C   0  0  0  0  0  0  0  0  0  0  0  0
   70.2514   49.4749   55.2474 Cl  0  0  0  0  0  0  0  0  0  0  0  0
   71.8732   43.0032   58.4431 C   0  0  0  0  0  0  0  0  0  0  0  0
   72.1540   43.2277   59.6162 O   0  0  0  0  0  0  0  0  0  0  0  0
   74.2275   42.4641   58.1022 C   0  0  0  0  0  0  0  0  0  0  0  0
   73.0074   42.9220   57.5904 O   0  0  0  0  0  0  0  0  0  0  0  0
 26 27  1  0
 27 24  1  0
 24 25  2  0
 24  1  1  0
  1  2  2  0
  1 11  1  0
  2  3  1  0
  3 12  1  0
  3  4  1  0
 12 13  1  0
 13 14  2  0
 13 15  1  0
 15 16  1  0
 16 17  2  0
 16 22  1  0
 17 18  1  0
 17 19  1  0
 19 20  2  0
 20 21  1  0
 21 22  2  0
 22 23  1  0
  4  5  2  0
  4  6  1  0
  6  7  1  0
  6 11  2  0
  7  8  2  0
  8  9  1  0
  9 10  2  0
 10 11  1  0
M  END
>  <minimizedAffinity>  (426) 
-8.75981

$$$$
data/200k_reference_output/data/smiles/24185.pdb
     RDKit          3D

 28 31  0  0  0  0  0  0  0  0999 V2000
   70.9655   45.9866   58.1148 C   0  0  0  0  0  0  0  0  0  0  0  0
   70.0619   46.6023   57.2482 C   0  0  0  0  0  0  0  0  0  0  0  0
   69.8253   47.9595   57.2296 C   0  0  0  0  0  0  0  0  0  0  0  0
   70.5457   48.7430   58.1384 C   0  0  0  0  0  0  0  0  0  0  0  0
   71.4414   48.1687   59.0036 C   0  0  0  0  0  0  0  0  0  0  0  0
   71.6493   46.7927   58.9895 C   0  0  0  0  0  0  0  0  0  0  0  0
   72.7930   46.0252   60.0875 Cl  0  0  0  0  0  0  0  0  0  0  0  0
   69.4949   44.2354   59.5975 O   0  0  0  0  0  0  0  0  0  0  0  0
   70.3719   43.7002   58.8547 C   0  0  0  0  0  0  0  0  0  0  0  0
   71.1521   44.5811   58.0719 N   0  0  0  0  0  0  0  0  0  0  0  0
   70.5234   42.2293   58.8484 C   0  0  1  0  0  0  0  0  0  0  0  0
   71.6709   41.7408   58.0368 C   0  0  0  0  0  0  0  0  0  0  0  0
   72.7893   41.4829   59.0043 C   0  0  0  0  0  0  0  0  0  0  0  0
   72.2326   41.4920   60.3252 N   0  0  0  0  0  0  0  0  0  0  0  0
   70.8155   41.6742   60.2209 C   0  0  0  0  0  0  0  0  0  0  0  0
   68.8661   48.6289   56.3018 C   0  0  0  0  0  0  0  0  0  0  0  0
   69.2964   48.6261   54.9292 N   0  0  0  0  0  0  0  0  0  0  0  0
   70.1901   49.5481   54.4876 C   0  0  0  0  0  0  0  0  0  0  0  0
   70.6621   50.4193   55.2509 O   0  0  0  0  0  0  0  0  0  0  0  0
   70.6226   49.5833   53.2136 N   0  0  0  0  0  0  0  0  0  0  0  0
   70.1882   48.6996   52.3059 C   0  0  0  0  0  0  0  0  0  0  0  0
   70.5850   48.7233   51.1125 O   0  0  0  0  0  0  0  0  0  0  0  0
   69.2842   47.7440   52.7028 C   0  0  0  0  0  0  0  0  0  0  0  0
   68.8603   46.8362   51.7683 C   0  0  0  0  0  0  0  0  0  0  0  0
   67.9681   45.8442   52.1108 C   0  0  0  0  0  0  0  0  0  0  0  0
   67.5369   45.8187   53.4179 C   0  0  0  0  0  0  0  0  0  0  0  0
   67.9706   46.7467   54.3698 C   0  0  0  0  0  0  0  0  0  0  0  0
   68.8620   47.7387   54.0216 C   0  0  0  0  0  0  0  0  0  0  0  0
  8  9  2  0
  9 10  1  0
 11  9  1  1
 10  1  1  0
  1  2  2  0
  1  6  1  0
  2  3  1  0
  3 16  1  0
  3  4  2  0
 16 17  1  0
 17 18  1  0
 17 28  1  0
 18 19  2  0
 18 20  1  0
 20 21  1  0
 21 22  2  0
 21 23  1  0
 23 24  1  0
 23 28  2  0
 24 25  2  0
 25 26  1  0
 26 27  2  0
 27 28  1  0
  4  5  1  0
  5  6  2  0
  6  7  1  0
 11 12  1  0
 11 15  1  0
 12 13  1  0
 13 14  1  0
 14 15  1  0
M  CHG  1  14   1
M  END
>  <minimizedAffinity>  (427) 
-8.75878

$$$$
data/200k_reference_output/data/smiles/57036.pdb
     RDKit          3D

 25 27  0  0  0  0  0  0  0  0999 V2000
   68.6211   46.4931   54.1978 C   0  0  0  0  0  0  0  0  0  0  0  0
   68.3319   46.0866   52.9048 C   0  0  0  0  0  0  0  0  0  0  0  0
   68.6882   46.8721   51.8335 C   0  0  0  0  0  0  0  0  0  0  0  0
   69.3362   48.0689   52.0376 C   0  0  0  0  0  0  0  0  0  0  0  0
   69.6436   48.5109   53.3140 C   0  0  0  0  0  0  0  0  0  0  0  0
   69.2708   47.6983   54.3594 C   0  0  0  0  0  0  0  0  0  0  0  0
   70.4660   50.0364   53.5294 S   0  0  0  0  0  0  0  0  0  0  0  0
   71.9463   49.8152   53.5846 O   0  0  0  0  0  0  0  0  0  0  0  0
   70.1085   51.0132   52.4491 O   0  0  0  0  0  0  0  0  0  0  0  0
   69.9047   50.7055   55.0303 N   0  0  0  0  0  0  0  0  0  0  0  0
   70.8687   51.6413   55.5769 C   0  0  0  0  0  0  0  0  0  0  0  0
   70.0511   52.4597   56.5606 C   0  0  0  0  0  0  0  0  0  0  0  0
   68.6060   52.1967   56.2098 C   0  0  0  0  0  0  0  0  0  0  0  0
   68.7332   51.5276   54.8505 C   0  0  0  0  0  0  0  0  0  0  0  0
   68.2447   45.6602   55.3549 C   0  0  0  0  0  0  0  0  0  0  0  0
   68.3574   46.0942   56.5062 O   0  0  0  0  0  0  0  0  0  0  0  0
   67.7594   44.3903   55.2406 O   0  0  0  0  0  0  0  0  0  0  0  0
   68.7111   40.9931   57.4893 C   0  0  0  0  0  0  0  0  0  0  0  0
   67.6063   41.0334   56.6568 C   0  0  0  0  0  0  0  0  0  0  0  0
   67.3189   42.1839   55.9215 C   0  0  0  0  0  0  0  0  0  0  0  0
   68.1187   43.3099   55.9971 C   0  0  0  0  0  0  0  0  0  0  0  0
   69.2113   43.2500   56.8286 C   0  0  0  0  0  0  0  0  0  0  0  0
   69.5204   42.1133   57.5742 C   0  0  0  0  0  0  0  0  0  0  0  0
   68.2010   38.9219   58.7308 C   0  0  0  0  0  0  0  0  0  0  0  0
   69.0641   39.9006   58.2464 O   0  0  0  0  0  0  0  0  0  0  0  0
 24 25  1  0
 25 18  1  0
 18 19  2  0
 18 23  1  0
 19 20  1  0
 20 21  2  0
 21 17  1  0
 21 22  1  0
 17 15  1  0
 15 16  2  0
 15  1  1  0
  1  2  2  0
  1  6  1  0
  2  3  1  0
  3  4  2  0
  4  5  1  0
  5  7  1  0
  5  6  2  0
  7  8  2  0
  7  9  2  0
  7 10  1  0
 10 11  1  0
 10 14  1  0
 11 12  1  0
 12 13  1  0
 13 14  1  0
 22 23  2  0
M  END
>  <minimizedAffinity>  (428) 
-8.75830

$$$$
data/200k_reference_output/data/smiles/66648.pdb
     RDKit          3D

 27 30  0  0  0  0  0  0  0  0999 V2000
   68.4574   44.8909   55.8326 C   0  0  0  0  0  0  0  0  0  0  0  0
   69.5103   44.8644   56.7180 C   0  0  0  0  0  0  0  0  0  0  0  0
   69.9146   43.6958   57.3515 C   0  0  0  0  0  0  0  0  0  0  0  0
   69.2819   42.4962   57.1264 C   0  0  0  0  0  0  0  0  0  0  0  0
   68.2206   42.5378   56.2308 C   0  0  0  0  0  0  0  0  0  0  0  0
   67.8184   43.6930   55.6023 C   0  0  0  0  0  0  0  0  0  0  0  0
   68.0582   46.0733   55.1995 O   0  0  0  0  0  0  0  0  0  0  0  0
   71.0533   49.8681   53.1893 O   0  0  0  0  0  0  0  0  0  0  0  0
   70.2544   48.9142   52.9442 C   0  0  0  0  0  0  0  0  0  0  0  0
   69.8368   48.4943   51.7394 N   0  0  0  0  0  0  0  0  0  0  0  0
   69.0035   47.4618   51.9777 C   0  0  0  0  0  0  0  0  0  0  0  0
   68.3220   46.6954   51.0980 N   0  0  0  0  0  0  0  0  0  0  0  0
   67.5476   45.7191   51.5634 C   0  0  0  0  0  0  0  0  0  0  0  0
   67.4272   45.4715   52.9257 C   0  0  0  0  0  0  0  0  0  0  0  0
   68.1151   46.2426   53.8318 C   0  0  0  0  0  0  0  0  0  0  0  0
   68.9087   47.2457   53.3401 C   0  0  0  0  0  0  0  0  0  0  0  0
   69.7049   48.1747   53.9049 N   0  0  0  0  0  0  0  0  0  0  0  0
   69.6375   41.2618   57.7497 N   0  0  0  0  0  0  0  0  0  0  0  0
   68.5912   39.9755   58.1083 S   0  0  0  0  0  0  0  0  0  0  0  0
   69.4677   38.7984   58.5320 O   0  0  0  0  0  0  0  0  0  0  0  0
   67.8980   39.5033   56.8579 O   0  0  0  0  0  0  0  0  0  0  0  0
   67.3728   40.2987   59.2930 C   0  0  0  0  0  0  0  0  0  0  0  0
   67.1694   41.5762   59.7435 C   0  0  0  0  0  0  0  0  0  0  0  0
   66.1978   41.8215   60.6848 C   0  0  0  0  0  0  0  0  0  0  0  0
   65.4126   40.8114   61.1969 C   0  0  0  0  0  0  0  0  0  0  0  0
   65.6172   39.5196   60.7427 C   0  0  0  0  0  0  0  0  0  0  0  0
   66.5853   39.2882   59.8071 C   0  0  0  0  0  0  0  0  0  0  0  0
  8  9  2  0
  9 10  1  0
  9 17  1  0
 10 11  1  0
 11 12  2  0
 11 16  1  0
 12 13  1  0
 13 14  2  0
 14 15  1  0
 15  7  1  0
 15 16  2  0
  7  1  1  0
  1  2  2  0
  1  6  1  0
  2  3  1  0
  3  4  2  0
  4 18  1  0
  4  5  1  0
 18 19  1  0
 19 20  2  0
 19 21  2  0
 19 22  1  0
 22 23  2  0
 22 27  1  0
 23 24  1  0
 24 25  2  0
 25 26  1  0
 26 27  2  0
  5  6  2  0
 16 17  1  0
M  CHG  1  10   1
M  END
>  <minimizedAffinity>  (429) 
-8.75791

$$$$
data/200k_reference_output/data/smiles/29094.pdb
     RDKit          3D

 26 30  0  0  0  0  0  0  0  0999 V2000
   68.8960   43.8114   56.5243 O   0  0  0  0  0  0  0  0  0  0  0  0
   69.6180   43.4591   57.4995 C   0  0  0  0  0  0  0  0  0  0  0  0
   69.8300   42.0669   57.9518 C   0  0  0  0  0  0  0  0  0  0  0  0
   70.5609   42.1887   59.2639 C   0  0  0  0  0  0  0  0  0  0  0  0
   70.8515   43.6260   59.5058 C   0  0  1  0  0  0  0  0  0  0  0  0
   72.3324   43.9520   59.5932 C   0  0  0  0  0  0  0  0  0  0  0  0
   72.5043   45.3549   59.5844 O   0  0  0  0  0  0  0  0  0  0  0  0
   71.7554   46.2243   58.8243 C   0  0  0  0  0  0  0  0  0  0  0  0
   72.0288   47.5618   58.6654 C   0  0  0  0  0  0  0  0  0  0  0  0
   71.2251   48.3695   57.8846 C   0  0  0  0  0  0  0  0  0  0  0  0
   70.1181   47.9053   57.2234 C   0  0  0  0  0  0  0  0  0  0  0  0
   69.8581   46.5361   57.3989 C   0  0  0  0  0  0  0  0  0  0  0  0
   70.6508   45.7214   58.1741 C   0  0  0  0  0  0  0  0  0  0  0  0
   70.3507   44.3187   58.3306 N   0  0  0  0  0  0  0  0  0  0  0  0
   69.2097   48.7146   56.3792 C   0  0  0  0  0  0  0  0  0  0  0  0
   69.4555   48.6424   54.9407 C   0  0  0  0  0  0  0  0  0  0  0  0
   70.3308   49.5760   54.4496 N   0  0  0  0  0  0  0  0  0  0  0  0
   70.6666   49.6080   53.1853 N   0  0  0  0  0  0  0  0  0  0  0  0
   70.1857   48.7405   52.2807 C   0  0  0  0  0  0  0  0  0  0  0  0
   70.5342   48.7975   51.0542 O   0  0  0  0  0  0  0  0  0  0  0  0
   69.2982   47.7738   52.7107 C   0  0  0  0  0  0  0  0  0  0  0  0
   68.9358   47.7401   54.0720 C   0  0  0  0  0  0  0  0  0  0  0  0
   67.9623   46.7360   54.5434 C   0  0  0  0  0  0  0  0  0  0  0  0
   67.9164   45.5243   53.6302 C   0  0  0  0  0  0  0  0  0  0  0  0
   67.6828   45.9387   52.2022 C   0  0  0  0  0  0  0  0  0  0  0  0
   68.7840   46.8379   51.7042 C   0  0  0  0  0  0  0  0  0  0  0  0
  1  2  2  0
  2  3  1  0
  2 14  1  0
  3  4  1  0
  5  4  1  6
  5  6  1  0
  5 14  1  0
  6  7  1  0
  7  8  1  0
  8  9  2  0
  8 13  1  0
  9 10  1  0
 10 11  2  0
 11 15  1  0
 11 12  1  0
 15 16  1  0
 16 17  2  0
 16 22  1  0
 17 18  1  0
 18 19  1  0
 19 20  2  0
 19 21  1  0
 21 22  2  0
 21 26  1  0
 22 23  1  0
 23 24  1  0
 24 25  1  0
 25 26  1  0
 12 13  2  0
 13 14  1  0
M  END
>  <minimizedAffinity>  (430) 
-8.75774

$$$$
data/200k_reference_output/data/smiles/4074.pdb
     RDKit          3D

 26 27  0  0  0  0  0  0  0  0999 V2000
   67.7334   44.2986   55.2070 N   0  0  0  0  0  0  0  0  0  0  0  0
   68.4360   43.5292   56.1725 C   0  0  0  0  0  0  0  0  0  0  0  0
   69.5549   43.9644   56.5480 O   0  0  0  0  0  0  0  0  0  0  0  0
   69.2067   47.9164   53.5642 C   0  0  0  0  0  0  0  0  0  0  0  0
   68.7343   46.9028   52.7414 C   0  0  0  0  0  0  0  0  0  0  0  0
   68.2589   45.7339   53.2965 C   0  0  0  0  0  0  0  0  0  0  0  0
   68.2264   45.5099   54.6572 C   0  0  0  0  0  0  0  0  0  0  0  0
   68.6979   46.5187   55.4836 C   0  0  0  0  0  0  0  0  0  0  0  0
   69.1709   47.6860   54.9201 C   0  0  0  0  0  0  0  0  0  0  0  0
   69.8407   49.3355   51.1595 N   0  0  0  0  0  0  0  0  0  0  0  0
   69.8159   49.4109   52.8942 S   0  0  0  0  0  0  0  0  0  0  0  0
   71.2572   49.5711   53.3297 O   0  0  0  0  0  0  0  0  0  0  0  0
   69.0632   50.6039   53.3613 O   0  0  0  0  0  0  0  0  0  0  0  0
   67.8777   42.2772   56.7093 C   0  0  0  0  0  0  0  0  0  0  0  0
   68.1007   41.8795   57.9392 C   0  0  0  0  0  0  0  0  0  0  0  0
   67.5757   40.6492   58.5313 C   0  0  0  0  0  0  0  0  0  0  0  0
   67.9971   39.3947   58.1676 C   0  0  0  0  0  0  0  0  0  0  0  0
   67.4658   38.2413   58.7630 C   0  0  0  0  0  0  0  0  0  0  0  0
   66.4957   38.3173   59.7390 C   0  0  0  0  0  0  0  0  0  0  0  0
   66.0723   39.5790   60.1051 C   0  0  0  0  0  0  0  0  0  0  0  0
   66.5936   40.7145   59.5204 C   0  0  0  0  0  0  0  0  0  0  0  0
   65.9827   37.1639   60.3156 O   0  0  0  0  0  0  0  0  0  0  0  0
   64.8116   36.5880   59.7375 C   0  0  0  0  0  0  0  0  0  0  0  0
   64.4681   35.5243   60.5688 F   0  0  0  0  0  0  0  0  0  0  0  0
   63.8194   37.5205   59.6604 F   0  0  0  0  0  0  0  0  0  0  0  0
   65.1140   36.0243   58.5009 F   0  0  0  0  0  0  0  0  0  0  0  0
 10 11  1  0
 11 12  2  0
 11 13  2  0
 11  4  1  0
  4  5  2  0
  4  9  1  0
  5  6  1  0
  6  7  2  0
  7  1  1  0
  7  8  1  0
  1  2  1  0
  2  3  2  0
  2 14  1  0
 14 15  2  0
 15 16  1  0
 16 17  2  0
 16 21  1  0
 17 18  1  0
 18 19  2  0
 19 22  1  0
 19 20  1  0
 22 23  1  0
 23 24  1  0
 23 25  1  0
 23 26  1  0
 20 21  2  0
  8  9  2  0
M  END
>  <minimizedAffinity>  (431) 
-8.75658

$$$$
data/200k_reference_output/data/smiles/50148.pdb
     RDKit          3D

 28 30  0  0  0  0  0  0  0  0999 V2000
   69.8614   45.6295   58.9020 N   0  0  0  0  0  0  0  0  0  0  0  0
   70.8954   46.5358   58.5539 C   0  0  0  0  0  0  0  0  0  0  0  0
   72.0703   46.0470   58.6271 O   0  0  0  0  0  0  0  0  0  0  0  0
   70.1075   43.2085   58.4273 C   0  0  0  0  0  0  0  0  0  0  0  0
   69.7992   43.4182   57.2285 O   0  0  0  0  0  0  0  0  0  0  0  0
   70.1489   44.3061   59.3049 N   0  0  0  0  0  0  0  0  0  0  0  0
   71.3856   41.0823   58.1400 N   0  0  0  0  0  0  0  0  0  0  0  0
   70.4008   41.8372   58.8207 C   0  0  0  0  0  0  0  0  0  0  0  0
   69.8067   41.2596   59.7670 O   0  0  0  0  0  0  0  0  0  0  0  0
   73.7853   40.5759   59.4997 C   0  0  0  0  0  0  0  0  0  0  0  0
   72.8500   39.4543   59.1937 C   0  0  0  0  0  0  0  0  0  0  0  0
   73.1420   38.1582   59.5691 C   0  0  0  0  0  0  0  0  0  0  0  0
   72.2820   37.1174   59.2897 C   0  0  0  0  0  0  0  0  0  0  0  0
   71.1075   37.4242   58.6146 C   0  0  0  0  0  0  0  0  0  0  0  0
   70.8061   38.7157   58.2351 C   0  0  0  0  0  0  0  0  0  0  0  0
   71.6735   39.7479   58.5194 C   0  0  0  0  0  0  0  0  0  0  0  0
   70.6770   47.9387   58.1299 C   0  0  0  0  0  0  0  0  0  0  0  0
   69.4817   48.1425   57.4324 O   0  0  0  0  0  0  0  0  0  0  0  0
   69.3112   47.9543   56.0697 C   0  0  0  0  0  0  0  0  0  0  0  0
   69.8484   48.8431   55.1447 C   0  0  0  0  0  0  0  0  0  0  0  0
   69.6738   48.6551   53.7921 C   0  0  0  0  0  0  0  0  0  0  0  0
   68.9632   47.5852   53.2935 C   0  0  0  0  0  0  0  0  0  0  0  0
   68.7943   47.4065   51.9311 C   0  0  0  0  0  0  0  0  0  0  0  0
   68.0780   46.3273   51.4256 C   0  0  0  0  0  0  0  0  0  0  0  0
   67.5306   45.4246   52.3245 C   0  0  0  0  0  0  0  0  0  0  0  0
   67.7159   45.6305   53.6673 C   0  0  0  0  0  0  0  0  0  0  0  0
   68.4230   46.6940   54.1814 C   0  0  0  0  0  0  0  0  0  0  0  0
   68.6064   46.8948   55.5320 C   0  0  0  0  0  0  0  0  0  0  0  0
 10 11  1  0
 11 12  2  0
 11 16  1  0
 12 13  1  0
 13 14  2  0
 14 15  1  0
 15 16  2  0
 16  7  1  0
  7  8  1  0
  8  9  2  0
  8  4  1  0
  4  5  2  0
  4  6  1  0
  6  1  1  0
  1  2  1  0
  2  3  2  0
  2 17  1  0
 17 18  1  0
 18 19  1  0
 19 20  2  0
 19 28  1  0
 20 21  1  0
 21 22  2  0
 22 23  1  0
 22 27  1  0
 23 24  2  0
 24 25  1  0
 25 26  2  0
 26 27  1  0
 27 28  2  0
M  END
>  <minimizedAffinity>  (432) 
-8.75657

$$$$
data/reference_output_2/data/smiles/117776.pdb
     RDKit          3D

 26 29  0  0  0  0  0  0  0  0999 V2000
   69.3492   50.6142   54.2925 C   0  0  0  0  0  0  0  0  0  0  0  0
   68.6371   51.7321   54.1266 N   0  0  0  0  0  0  0  0  0  0  0  0
   68.3183   52.2025   55.3218 N   0  0  0  0  0  0  0  0  0  0  0  0
   68.8157   51.4008   56.2904 C   0  0  0  0  0  0  0  0  0  0  0  0
   68.7720   51.4358   57.6642 C   0  0  0  0  0  0  0  0  0  0  0  0
   69.3968   50.4422   58.3622 C   0  0  0  0  0  0  0  0  0  0  0  0
   70.0819   49.3840   57.7647 C   0  0  0  0  0  0  0  0  0  0  0  0
   70.0955   49.3955   56.3860 C   0  0  0  0  0  0  0  0  0  0  0  0
   69.4743   50.3856   55.6403 C   0  0  0  0  0  0  0  0  0  0  0  0
   71.4394   49.2878   53.3461 O   0  0  0  0  0  0  0  0  0  0  0  0
   70.0186   49.5983   53.0225 S   0  0  0  0  0  0  0  0  0  0  0  0
   69.9460   50.2979   51.6984 O   0  0  0  0  0  0  0  0  0  0  0  0
   69.1373   48.0885   52.9625 C   0  0  0  0  0  0  0  0  0  0  0  0
   68.9221   47.4567   51.7698 C   0  0  0  0  0  0  0  0  0  0  0  0
   68.2255   46.2608   51.7162 C   0  0  0  0  0  0  0  0  0  0  0  0
   67.7390   45.6929   52.8731 C   0  0  0  0  0  0  0  0  0  0  0  0
   67.0599   44.5221   52.7937 F   0  0  0  0  0  0  0  0  0  0  0  0
   67.9520   46.3243   54.0819 C   0  0  0  0  0  0  0  0  0  0  0  0
   68.6475   47.5119   54.1115 C   0  0  0  0  0  0  0  0  0  0  0  0
   70.7081   48.3789   58.5399 N   0  0  0  0  0  0  0  0  0  0  0  0
   72.1250   48.1329   58.4951 C   0  0  0  0  0  0  0  0  0  0  0  0
   72.8767   49.1719   59.2605 C   0  0  0  0  0  0  0  0  0  0  0  0
   73.5270   48.5572   60.4969 C   0  0  0  0  0  0  0  0  0  0  0  0
   72.4928   47.7611   61.1425 N   0  0  0  0  0  0  0  0  0  0  0  0
   72.3162   46.5251   60.4094 C   0  0  0  0  0  0  0  0  0  0  0  0
   72.4404   46.7209   58.9182 C   0  0  0  0  0  0  0  0  0  0  0  0
 10 11  2  0
 11 12  2  0
 11 13  1  0
 11  1  1  0
 13 14  2  0
 13 19  1  0
 14 15  1  0
 15 16  2  0
 16 17  1  0
 16 18  1  0
 18 19  2  0
  1  2  2  0
  1  9  1  0
  2  3  1  0
  3  4  1  0
  4  5  1  0
  4  9  2  0
  5  6  2  0
  6  7  1  0
  7 20  1  0
  7  8  2  0
 20 21  1  0
 21 22  1  0
 21 26  1  0
 22 23  1  0
 23 24  1  0
 24 25  1  0
 25 26  1  0
  8  9  1  0
M  CHG  1  24   1
M  END
>  <minimizedAffinity>  (433) 
-8.75622

$$$$
data/200k_reference_output/data/smiles/62781.pdb
     RDKit          3D

 25 27  0  0  0  0  0  0  0  0999 V2000
   70.7969   43.5185   58.1767 C   0  0  0  0  0  0  0  0  0  0  0  0
   69.8429   42.4837   58.2258 C   0  0  0  0  0  0  0  0  0  0  0  0
   68.4956   42.8524   58.2051 O   0  0  0  0  0  0  0  0  0  0  0  0
   70.2266   41.1694   58.2906 C   0  0  0  0  0  0  0  0  0  0  0  0
   69.2721   40.1635   58.3374 C   0  0  0  0  0  0  0  0  0  0  0  0
   69.6273   38.8314   58.4030 C   0  0  0  0  0  0  0  0  0  0  0  0
   70.9522   38.4479   58.4250 C   0  0  0  0  0  0  0  0  0  0  0  0
   71.4292   36.7566   58.5081 Cl  0  0  0  0  0  0  0  0  0  0  0  0
   71.9032   39.4459   58.3776 C   0  0  0  0  0  0  0  0  0  0  0  0
   71.5474   40.7942   58.3108 C   0  0  0  0  0  0  0  0  0  0  0  0
   72.4563   41.7683   58.2654 N   0  0  0  0  0  0  0  0  0  0  0  0
   72.0962   43.0895   58.2006 C   0  0  0  0  0  0  0  0  0  0  0  0
   73.0275   43.9574   58.1598 O   0  0  0  0  0  0  0  0  0  0  0  0
   70.5658   45.5877   59.1679 O   0  0  0  0  0  0  0  0  0  0  0  0
   70.3676   44.8965   58.1120 C   0  0  0  0  0  0  0  0  0  0  0  0
   69.7632   45.5830   57.0541 N   0  0  0  0  0  0  0  0  0  0  0  0
   69.3647   46.9386   56.9534 C   0  0  0  0  0  0  0  0  0  0  0  0
   68.4194   47.2698   55.8796 C   0  0  0  0  0  0  0  0  0  0  0  0
   68.9713   47.7076   54.6117 C   0  0  0  0  0  0  0  0  0  0  0  0
   69.7282   48.8827   54.4676 C   0  0  0  0  0  0  0  0  0  0  0  0
   70.2551   49.2515   53.2503 C   0  0  0  0  0  0  0  0  0  0  0  0
   70.0583   48.4757   52.1166 C   0  0  0  0  0  0  0  0  0  0  0  0
   70.5646   48.8020   50.8757 O   0  0  0  0  0  0  0  0  0  0  0  0
   69.3173   47.3249   52.2559 C   0  0  0  0  0  0  0  0  0  0  0  0
   68.7795   46.9356   53.4654 C   0  0  0  0  0  0  0  0  0  0  0  0
 14 15  2  0
 15 16  1  0
 15  1  1  0
 16 17  1  0
 17 18  1  0
 18 19  1  0
 19 20  2  0
 19 25  1  0
 20 21  1  0
 21 22  2  0
 22 23  1  0
 22 24  1  0
 24 25  2  0
  1  2  2  0
  1 12  1  0
  2  3  1  0
  2  4  1  0
  4  5  2  0
  4 10  1  0
  5  6  1  0
  6  7  2  0
  7  8  1  0
  7  9  1  0
  9 10  2  0
 10 11  1  0
 11 12  1  0
 12 13  2  0
M  END
>  <minimizedAffinity>  (434) 
-8.75576

$$$$
data/reference_output_2/data/smiles/137471.pdb
     RDKit          3D

 26 28  0  0  0  0  0  0  0  0999 V2000
   71.8654   41.8525   58.1766 C   0  0  0  0  0  0  0  0  0  0  0  0
   73.2299   41.9994   58.0134 C   0  0  0  0  0  0  0  0  0  0  0  0
   73.8053   43.2481   57.9040 C   0  0  0  0  0  0  0  0  0  0  0  0
   72.9489   44.3549   57.9674 C   0  0  0  0  0  0  0  0  0  0  0  0
   73.5366   45.5396   57.8592 F   0  0  0  0  0  0  0  0  0  0  0  0
   71.6092   44.2845   58.1257 C   0  0  0  0  0  0  0  0  0  0  0  0
   71.0844   42.9861   58.2303 C   0  0  0  0  0  0  0  0  0  0  0  0
   71.4165   36.8750   58.6805 C   0  0  0  0  0  0  0  0  0  0  0  0
   71.0852   38.3278   58.5144 C   0  0  0  0  0  0  0  0  0  0  0  0
   69.8275   38.9068   58.4019 C   0  0  0  0  0  0  0  0  0  0  0  0
   70.0140   40.2296   58.2710 N   0  0  0  0  0  0  0  0  0  0  0  0
   71.2833   40.5550   58.2886 N   0  0  0  0  0  0  0  0  0  0  0  0
   71.9606   39.3926   58.4384 C   0  0  0  0  0  0  0  0  0  0  0  0
   70.6640   45.3817   58.1998 C   0  0  0  0  0  0  0  0  0  0  0  0
   70.6200   46.1115   59.2623 O   0  0  0  0  0  0  0  0  0  0  0  0
   69.7469   45.7610   57.2024 N   0  0  0  0  0  0  0  0  0  0  0  0
   68.8799   46.8591   57.4155 N   0  0  0  0  0  0  0  0  0  0  0  0
   69.2100   48.0414   56.2004 S   0  0  0  0  0  0  0  0  0  0  0  0
   68.3184   49.2437   56.4446 O   0  0  0  0  0  0  0  0  0  0  0  0
   70.6271   48.5214   56.3235 O   0  0  0  0  0  0  0  0  0  0  0  0
   68.8939   47.4554   54.6068 C   0  0  0  0  0  0  0  0  0  0  0  0
   68.1008   46.3732   54.3133 C   0  0  0  0  0  0  0  0  0  0  0  0
   67.8823   45.9511   53.0272 C   0  0  0  0  0  0  0  0  0  0  0  0
   68.4664   46.6120   51.9502 C   0  0  0  0  0  0  0  0  0  0  0  0
   69.2643   47.6990   52.2295 C   0  0  0  0  0  0  0  0  0  0  0  0
   69.4713   48.1085   53.5245 C   0  0  0  0  0  0  0  0  0  0  0  0
  8  9  1  0
  9 10  1  0
  9 13  2  0
 10 11  2  0
 11 12  1  0
 12  1  1  0
 12 13  1  0
  1  2  2  0
  1  7  1  0
  2  3  1  0
  3  4  2  0
  4  5  1  0
  4  6  1  0
  6 14  1  0
  6  7  2  0
 14 15  2  0
 14 16  1  0
 16 17  1  0
 17 18  1  0
 18 19  2  0
 18 20  2  0
 18 21  1  0
 21 22  2  0
 21 26  1  0
 22 23  1  0
 23 24  2  0
 24 25  1  0
 25 26  2  0
M  END
>  <minimizedAffinity>  (435) 
-8.75560

$$$$
data/reference_output_2/data/smiles/158225.pdb
     RDKit          3D

 26 29  0  0  0  0  0  0  0  0999 V2000
   75.6853   35.3329   53.3322 C   0  0  0  0  0  0  0  0  0  0  0  0
   75.9771   35.1912   54.6377 N   0  0  0  0  0  0  0  0  0  0  0  0
   75.0236   35.2709   55.5948 C   0  0  0  0  0  0  0  0  0  0  0  0
   75.3139   35.1264   56.9348 C   0  0  0  0  0  0  0  0  0  0  0  0
   74.3236   35.2127   57.8900 C   0  0  0  0  0  0  0  0  0  0  0  0
   72.9995   35.4449   57.5660 C   0  0  0  0  0  0  0  0  0  0  0  0
   72.7118   35.5887   56.2236 C   0  0  0  0  0  0  0  0  0  0  0  0
   73.7026   35.5029   55.2663 C   0  0  0  0  0  0  0  0  0  0  0  0
   73.4127   35.6478   53.9241 C   0  0  0  0  0  0  0  0  0  0  0  0
   72.2069   35.8598   53.6156 O   0  0  0  0  0  0  0  0  0  0  0  0
   74.3985   35.5592   53.0123 N   0  0  0  0  0  0  0  0  0  0  0  0
   71.9726   35.5316   58.5976 C   0  0  0  0  0  0  0  0  0  0  0  0
   71.2174   36.6134   58.9952 C   0  0  0  0  0  0  0  0  0  0  0  0
   70.3908   36.2422   59.9804 N   0  0  0  0  0  0  0  0  0  0  0  0
   70.5977   34.9696   60.2154 N   0  0  0  0  0  0  0  0  0  0  0  0
   71.5488   34.5026   59.3973 C   0  0  0  0  0  0  0  0  0  0  0  0
   78.0440   35.2978   52.9079 N   0  0  0  0  0  0  0  0  0  0  0  0
   76.7481   35.2444   52.2786 C   0  0  1  0  0  0  0  0  0  0  0  0
   76.5657   33.9999   51.4324 C   0  0  0  0  0  0  0  0  0  0  0  0
   76.8347   34.3645   50.0320 C   0  0  0  0  0  0  0  0  0  0  0  0
   76.1943   33.6959   49.0178 C   0  0  0  0  0  0  0  0  0  0  0  0
   76.4253   34.0132   47.6770 C   0  0  0  0  0  0  0  0  0  0  0  0
   77.3111   35.0155   47.3604 C   0  0  0  0  0  0  0  0  0  0  0  0
   77.5188   35.3080   46.0476 F   0  0  0  0  0  0  0  0  0  0  0  0
   77.9537   35.6876   48.3692 C   0  0  0  0  0  0  0  0  0  0  0  0
   77.7164   35.3630   49.6850 C   0  0  0  0  0  0  0  0  0  0  0  0
 18 17  1  1
 18 19  1  0
 18  1  1  0
 19 20  1  0
 20 21  2  0
 20 26  1  0
 21 22  1  0
 22 23  2  0
 23 24  1  0
 23 25  1  0
 25 26  2  0
  1  2  2  0
  1 11  1  0
  2  3  1  0
  3  4  2  0
  3  8  1  0
  4  5  1  0
  5  6  2  0
  6 12  1  0
  6  7  1  0
 12 13  1  0
 12 16  2  0
 13 14  2  0
 14 15  1  0
 15 16  1  0
  7  8  2  0
  8  9  1  0
  9 10  2  0
  9 11  1  0
M  CHG  1  17   1
M  END
>  <minimizedAffinity>  (436) 
-8.75540

$$$$
data/reference_output_2/data/smiles/193169.pdb
     RDKit          3D

 27 30  0  0  0  0  0  0  0  0999 V2000
   71.4886   47.3227   58.9898 C   0  0  0  0  0  0  0  0  0  0  0  0
   71.2529   45.9371   58.9346 C   0  0  0  0  0  0  0  0  0  0  0  0
   70.4032   45.4189   57.9923 C   0  0  0  0  0  0  0  0  0  0  0  0
   69.8102   46.3037   57.1304 C   0  0  0  0  0  0  0  0  0  0  0  0
   69.9923   47.6189   57.1343 N   0  0  0  0  0  0  0  0  0  0  0  0
   70.8447   48.1208   58.0814 C   0  0  0  0  0  0  0  0  0  0  0  0
   71.0145   49.3838   58.0805 O   0  0  0  0  0  0  0  0  0  0  0  0
   74.3547   49.1009   60.9289 C   0  0  0  0  0  0  0  0  0  0  0  0
   73.5264   48.6418   59.8165 N   0  0  0  0  0  0  0  0  0  0  0  0
   72.3903   47.8426   59.9935 C   0  0  0  0  0  0  0  0  0  0  0  0
   72.1386   47.5467   61.2248 O   0  0  0  0  0  0  0  0  0  0  0  0
   70.1606   43.9825   57.9369 C   0  0  0  0  0  0  0  0  0  0  0  0
   71.0182   43.1848   58.4481 O   0  0  0  0  0  0  0  0  0  0  0  0
   69.0357   43.3840   57.3542 N   0  0  0  0  0  0  0  0  0  0  0  0
   68.8303   41.9487   57.3186 C   0  0  0  0  0  0  0  0  0  0  0  0
   67.6158   41.3484   57.9153 C   0  0  0  0  0  0  0  0  0  0  0  0
   67.7585   41.4011   56.4206 C   0  0  0  0  0  0  0  0  0  0  0  0
   69.3896   48.5445   56.2415 C   0  0  0  0  0  0  0  0  0  0  0  0
   69.1892   48.1470   54.8674 C   0  0  0  0  0  0  0  0  0  0  0  0
   69.8990   48.7412   53.8558 C   0  0  0  0  0  0  0  0  0  0  0  0
   69.7410   48.3841   52.5210 C   0  0  0  0  0  0  0  0  0  0  0  0
   68.8378   47.3986   52.2009 C   0  0  0  0  0  0  0  0  0  0  0  0
   68.4343   46.8143   51.0543 N   0  0  0  0  0  0  0  0  0  0  0  0
   67.5020   45.8813   51.3162 C   0  0  0  0  0  0  0  0  0  0  0  0
   67.2821   45.8420   52.6444 N   0  0  0  0  0  0  0  0  0  0  0  0
   68.1057   46.7795   53.2000 C   0  0  0  0  0  0  0  0  0  0  0  0
   68.2908   47.1615   54.5139 C   0  0  0  0  0  0  0  0  0  0  0  0
  8  9  1  0
  9 10  1  0
 10 11  2  0
 10  1  1  0
  1  2  2  0
  1  6  1  0
  2  3  1  0
  3 12  1  0
  3  4  2  0
 12 13  2  0
 12 14  1  0
 14 15  1  0
 15 16  1  0
 15 17  1  0
 16 17  1  0
  4  5  1  0
  5 18  1  0
  5  6  1  0
 18 19  1  0
 19 20  2  0
 19 27  1  0
 20 21  1  0
 21 22  2  0
 22 23  1  0
 22 26  1  0
 23 24  2  0
 24 25  1  0
 25 26  1  0
 26 27  2  0
  6  7  2  0
M  CHG  1  23   1
M  END
>  <minimizedAffinity>  (437) 
-8.75451

$$$$
data/200k_reference_output/data/smiles/51005.pdb
     RDKit          3D

 27 29  0  0  0  0  0  0  0  0999 V2000
   73.5196   35.8965   57.6832 C   0  0  0  0  0  0  0  0  0  0  0  0
   73.6908   35.5588   56.4150 C   0  0  0  0  0  0  0  0  0  0  0  0
   72.6976   35.8669   55.5464 N   0  0  0  0  0  0  0  0  0  0  0  0
   72.8772   35.5203   54.2567 C   0  0  0  0  0  0  0  0  0  0  0  0
   71.9883   35.7813   53.4074 O   0  0  0  0  0  0  0  0  0  0  0  0
   74.0082   34.8786   53.7971 C   0  0  0  0  0  0  0  0  0  0  0  0
   74.1784   34.5386   52.5181 C   0  0  0  0  0  0  0  0  0  0  0  0
   74.9797   34.5773   54.6470 N   0  0  0  0  0  0  0  0  0  0  0  0
   74.8218   34.9161   55.9493 C   0  0  0  0  0  0  0  0  0  0  0  0
   75.7152   34.6546   56.8094 O   0  0  0  0  0  0  0  0  0  0  0  0
   71.5003   36.0931   59.1680 C   0  0  0  0  0  0  0  0  0  0  0  0
   70.5182   36.9611   59.3329 O   0  0  0  0  0  0  0  0  0  0  0  0
   70.6772   37.9535   58.4893 C   0  0  0  0  0  0  0  0  0  0  0  0
   71.7823   37.7394   57.7529 N   0  0  0  0  0  0  0  0  0  0  0  0
   72.3113   36.5801   58.1628 C   0  0  0  0  0  0  0  0  0  0  0  0
   70.4753   34.5541   60.7505 C   0  0  0  0  0  0  0  0  0  0  0  0
   71.7141   34.8207   59.9136 C   0  0  0  0  0  0  0  0  0  0  0  0
   72.8881   34.9067   60.8609 C   0  0  0  0  0  0  0  0  0  0  0  0
   71.9295   33.6506   59.0103 C   0  0  0  0  0  0  0  0  0  0  0  0
   75.3390   33.8658   51.9742 C   0  0  0  0  0  0  0  0  0  0  0  0
   76.3895   34.8962   51.6297 C   0  0  0  0  0  0  0  0  0  0  0  0
   76.7614   34.9106   50.2139 C   0  0  0  0  0  0  0  0  0  0  0  0
   77.7830   35.7335   49.7815 C   0  0  0  0  0  0  0  0  0  0  0  0
   78.1866   35.7997   48.4628 C   0  0  0  0  0  0  0  0  0  0  0  0
   77.5608   35.0247   47.5289 C   0  0  0  0  0  0  0  0  0  0  0  0
   76.5402   34.1932   47.9157 C   0  0  0  0  0  0  0  0  0  0  0  0
   76.1458   34.1374   49.2420 C   0  0  0  0  0  0  0  0  0  0  0  0
 16 17  1  0
 17 18  1  0
 17 19  1  0
 17 11  1  0
 11 12  1  0
 11 15  2  0
 12 13  1  0
 13 14  2  0
 14 15  1  0
 15  1  1  0
  1  2  2  0
  2  3  1  0
  2  9  1  0
  3  4  1  0
  4  5  2  0
  4  6  1  0
  6  7  2  0
  6  8  1  0
  7 20  1  0
 20 21  1  0
 21 22  1  0
 22 23  2  0
 22 27  1  0
 23 24  1  0
 24 25  2  0
 25 26  1  0
 26 27  2  0
  8  9  1  0
  9 10  2  0
M  END
>  <minimizedAffinity>  (438) 
-8.75442

$$$$
data/reference_output_2/data/smiles/149358.pdb
     RDKit          3D

 26 29  0  0  0  0  0  0  0  0999 V2000
   69.5825   46.7887   57.1456 C   0  0  0  0  0  0  0  0  0  0  0  0
   69.6247   48.2952   57.7222 S   0  0  0  0  0  0  0  0  0  0  0  0
   70.6588   45.8930   57.3993 N   0  0  0  0  0  0  0  0  0  0  0  0
   70.6602   44.9540   58.4668 C   0  0  0  0  0  0  0  0  0  0  0  0
   69.6749   44.8924   59.2352 O   0  0  0  0  0  0  0  0  0  0  0  0
   71.8292   44.0782   58.6389 C   0  0  1  0  0  0  0  0  0  0  0  0
   73.0842   44.8228   58.2273 C   0  0  0  0  0  0  0  0  0  0  0  0
   74.2776   43.8953   58.2743 C   0  0  2  0  0  0  0  0  0  0  0  0
   74.0043   42.6759   57.4265 C   0  0  0  0  0  0  0  0  0  0  0  0
   72.8347   41.9230   57.9770 C   0  0  1  0  0  0  0  0  0  0  0  0
   73.0953   41.5604   59.4180 C   0  0  0  0  0  0  0  0  0  0  0  0
   73.2388   42.8226   60.2390 C   0  0  1  0  0  0  0  0  0  0  0  0
   74.4791   43.5295   59.7433 C   0  0  0  0  0  0  0  0  0  0  0  0
   72.0289   43.7171   60.1025 C   0  0  0  0  0  0  0  0  0  0  0  0
   71.6140   42.8180   57.8711 C   0  0  0  0  0  0  0  0  0  0  0  0
   68.4792   46.3379   56.3736 N   0  0  0  0  0  0  0  0  0  0  0  0
   69.2574   47.5933   52.9598 C   0  0  0  0  0  0  0  0  0  0  0  0
   68.5411   46.7079   52.2061 C   0  0  0  0  0  0  0  0  0  0  0  0
   67.8085   45.7056   52.8005 C   0  0  0  0  0  0  0  0  0  0  0  0
   67.8104   45.6118   54.1624 C   0  0  0  0  0  0  0  0  0  0  0  0
   68.5244   46.4924   54.9449 C   0  0  0  0  0  0  0  0  0  0  0  0
   69.2456   47.4816   54.3385 C   0  0  0  0  0  0  0  0  0  0  0  0
   71.4644   49.3437   53.2207 N   0  0  0  0  0  0  0  0  0  0  0  0
   70.1649   48.8470   52.1688 S   0  0  0  0  0  0  0  0  0  0  0  0
   69.2891   50.0665   52.0133 O   0  0  0  0  0  0  0  0  0  0  0  0
   70.6869   48.4605   50.8348 O   0  0  0  0  0  0  0  0  0  0  0  0
 23 24  1  0
 24 25  2  0
 24 26  2  0
 24 17  1  0
 17 18  2  0
 17 22  1  0
 18 19  1  0
 19 20  2  0
 20 21  1  0
 21 16  1  0
 21 22  2  0
 16  1  1  0
  1  2  2  0
  1  3  1  0
  3  4  1  0
  4  5  2  0
  6  4  1  1
  6  7  1  0
  6 14  1  0
  6 15  1  0
  8  7  1  1
  8  9  1  0
  8 13  1  0
 10  9  1  1
 10 11  1  0
 10 15  1  0
 12 11  1  6
 12 13  1  0
 12 14  1  0
M  END
>  <minimizedAffinity>  (439) 
-8.75354

$$$$
data/reference_output_2/data/smiles/95873.pdb
     RDKit          3D

 25 27  0  0  0  0  0  0  0  0999 V2000
   69.9285   46.6833   57.3202 C   0  0  0  0  0  0  0  0  0  0  0  0
   70.1114   45.2315   57.5288 C   0  0  0  0  0  0  0  0  0  0  0  0
   69.4977   44.2483   57.5227 N   0  0  0  0  0  0  0  0  0  0  0  0
   69.8667   43.0169   57.7856 C   0  0  0  0  0  0  0  0  0  0  0  0
   69.1071   41.8530   57.7696 C   0  0  0  0  0  0  0  0  0  0  0  0
   69.6786   40.6519   58.0762 C   0  0  0  0  0  0  0  0  0  0  0  0
   71.0168   40.4874   58.4184 C   0  0  0  0  0  0  0  0  0  0  0  0
   71.7629   41.6449   58.4323 C   0  0  0  0  0  0  0  0  0  0  0  0
   71.1875   42.8771   58.1202 C   0  0  0  0  0  0  0  0  0  0  0  0
   71.7913   44.5097   58.0319 S   0  0  0  0  0  0  0  0  0  0  0  0
   68.8671   39.4174   58.0583 C   0  0  0  0  0  0  0  0  0  0  0  0
   69.0445   38.5032   58.8992 O   0  0  0  0  0  0  0  0  0  0  0  0
   67.8966   39.2908   57.0812 O   0  0  0  0  0  0  0  0  0  0  0  0
   69.0770   47.0955   56.3571 O   0  0  0  0  0  0  0  0  0  0  0  0
   69.2880   47.8156   52.8081 C   0  0  0  0  0  0  0  0  0  0  0  0
   68.4802   46.7935   52.3205 C   0  0  0  0  0  0  0  0  0  0  0  0
   68.3203   46.7457   50.9674 F   0  0  0  0  0  0  0  0  0  0  0  0
   67.8843   45.8895   53.1746 C   0  0  0  0  0  0  0  0  0  0  0  0
   68.0536   45.9475   54.5439 C   0  0  0  0  0  0  0  0  0  0  0  0
   68.8478   46.9507   55.0475 C   0  0  0  0  0  0  0  0  0  0  0  0
   69.4537   47.8720   54.1621 C   0  0  0  0  0  0  0  0  0  0  0  0
   70.2434   48.8657   54.6776 F   0  0  0  0  0  0  0  0  0  0  0  0
   69.7517   50.1723   52.0845 N   0  0  0  0  0  0  0  0  0  0  0  0
   69.9212   48.7753   51.9080 C   0  0  0  0  0  0  0  0  0  0  0  0
   70.6322   48.3870   50.9550 O   0  0  0  0  0  0  0  0  0  0  0  0
 23 24  1  0
 24 25  2  0
 24 15  1  0
 15 16  2  0
 15 21  1  0
 16 17  1  0
 16 18  1  0
 18 19  2  0
 19 20  1  0
 20 14  1  0
 20 21  2  0
 14  1  1  0
  1  2  1  0
  2  3  2  0
  2 10  1  0
  3  4  1  0
  4  5  2  0
  4  9  1  0
  5  6  1  0
  6 11  1  0
  6  7  2  0
 11 12  2  0
 11 13  1  0
  7  8  1  0
  8  9  2  0
  9 10  1  0
 21 22  1  0
M  END
>  <minimizedAffinity>  (440) 
-8.75337

$$$$
data/200k_reference_output/data/smiles/65041.pdb
     RDKit          3D

 23 24  0  0  0  0  0  0  0  0999 V2000
   69.5712   45.7517   57.3118 C   0  0  0  0  0  0  0  0  0  0  0  0
   70.6312   46.8597   57.9626 S   0  0  0  0  0  0  0  0  0  0  0  0
   69.8559   44.3883   57.6019 N   0  0  0  0  0  0  0  0  0  0  0  0
   69.1080   43.2520   57.2361 C   0  0  0  0  0  0  0  0  0  0  0  0
   68.0496   43.4066   56.5790 O   0  0  0  0  0  0  0  0  0  0  0  0
   69.5475   41.8903   57.6142 C   0  0  0  0  0  0  0  0  0  0  0  0
   70.8238   41.5632   57.9791 C   0  0  0  0  0  0  0  0  0  0  0  0
   71.2048   40.2872   58.3558 C   0  0  0  0  0  0  0  0  0  0  0  0
   70.2567   39.2944   58.3654 C   0  0  0  0  0  0  0  0  0  0  0  0
   70.7384   37.6864   58.8419 Cl  0  0  0  0  0  0  0  0  0  0  0  0
   68.9409   39.5851   57.9997 C   0  0  0  0  0  0  0  0  0  0  0  0
   68.6208   40.8768   57.6334 C   0  0  0  0  0  0  0  0  0  0  0  0
   68.5588   46.1901   56.4957 N   0  0  0  0  0  0  0  0  0  0  0  0
   69.2190   47.7989   53.2169 C   0  0  0  0  0  0  0  0  0  0  0  0
   68.6332   46.9186   52.3350 C   0  0  0  0  0  0  0  0  0  0  0  0
   68.0317   45.7892   52.8043 C   0  0  0  0  0  0  0  0  0  0  0  0
   68.0162   45.5313   54.1788 C   0  0  0  0  0  0  0  0  0  0  0  0
   68.5792   46.3671   55.0979 C   0  0  0  0  0  0  0  0  0  0  0  0
   69.1902   47.5225   54.5627 C   0  0  0  0  0  0  0  0  0  0  0  0
   71.5303   49.4294   53.3213 N   0  0  0  0  0  0  0  0  0  0  0  0
   69.9827   49.2369   52.5788 S   0  0  0  0  0  0  0  0  0  0  0  0
   69.1859   50.4785   52.8432 O   0  0  0  0  0  0  0  0  0  0  0  0
   70.2159   49.0223   51.1114 O   0  0  0  0  0  0  0  0  0  0  0  0
 20 21  1  0
 21 22  2  0
 21 23  2  0
 21 14  1  0
 14 15  2  0
 14 19  1  0
 15 16  1  0
 16 17  2  0
 17 18  1  0
 18 13  1  0
 18 19  2  0
 13  1  1  0
  1  2  2  0
  1  3  1  0
  3  4  1  0
  4  5  2  0
  4  6  1  0
  6  7  2  0
  6 12  1  0
  7  8  1  0
  8  9  2  0
  9 10  1  0
  9 11  1  0
 11 12  2  0
M  END
>  <minimizedAffinity>  (441) 
-8.75183

$$$$
data/reference_output_2/data/smiles/186391.pdb
     RDKit          3D

 28 32  0  0  0  0  0  0  0  0999 V2000
   68.5728   42.3560   56.7430 C   0  0  0  0  0  0  0  0  0  0  0  0
   69.5257   41.9532   57.6412 C   0  0  0  0  0  0  0  0  0  0  0  0
   70.1911   43.0764   57.9720 N   0  0  0  0  0  0  0  0  0  0  0  0
   69.7250   44.1452   57.3461 N   0  0  0  0  0  0  0  0  0  0  0  0
   69.8632   45.4765   57.1818 C   0  0  0  0  0  0  0  0  0  0  0  0
   68.9247   45.9194   56.2864 C   0  0  0  0  0  0  0  0  0  0  0  0
   68.2238   44.8212   55.9209 N   0  0  0  0  0  0  0  0  0  0  0  0
   68.6970   43.7263   56.5582 C   0  0  0  0  0  0  0  0  0  0  0  0
   68.8069   47.3251   55.8891 C   0  0  0  0  0  0  0  0  0  0  0  0
   69.1167   48.1158   57.0643 N   0  0  0  0  0  0  0  0  0  0  0  0
   70.4196   47.8641   57.5823 C   0  0  0  0  0  0  0  0  0  0  0  0
   70.8030   46.4443   57.7775 C   0  0  0  0  0  0  0  0  0  0  0  0
   69.7979   40.6206   58.1745 C   0  0  0  0  0  0  0  0  0  0  0  0
   71.1132   40.1862   58.3591 C   0  0  0  0  0  0  0  0  0  0  0  0
   71.4166   38.9304   58.8371 C   0  0  0  0  0  0  0  0  0  0  0  0
   70.4298   38.0250   59.1626 C   0  0  0  0  0  0  0  0  0  0  0  0
   69.1275   38.4401   58.9849 C   0  0  0  0  0  0  0  0  0  0  0  0
   68.8236   39.7089   58.5007 C   0  0  0  0  0  0  0  0  0  0  0  0
   70.7351   36.7509   59.6490 O   0  0  0  0  0  0  0  0  0  0  0  0
   71.4725   35.8268   58.9147 C   0  0  0  0  0  0  0  0  0  0  0  0
   72.1350   36.2202   57.7721 C   0  0  0  0  0  0  0  0  0  0  0  0
   72.8876   35.3285   57.0019 C   0  0  0  0  0  0  0  0  0  0  0  0
   72.9607   34.0163   57.4083 C   0  0  0  0  0  0  0  0  0  0  0  0
   72.3195   33.5916   58.5317 C   0  0  0  0  0  0  0  0  0  0  0  0
   71.5727   34.5024   59.2848 C   0  0  0  0  0  0  0  0  0  0  0  0
   67.8222   40.3067   55.5137 N   0  0  0  0  0  0  0  0  0  0  0  0
   67.5547   41.5753   56.0862 C   0  0  0  0  0  0  0  0  0  0  0  0
   66.3746   41.9836   55.9884 O   0  0  0  0  0  0  0  0  0  0  0  0
 26 27  1  0
 27 28  2  0
 27  1  1  0
  1  2  1  0
  1  8  2  0
  2 13  1  0
  2  3  2  0
 13 14  2  0
 13 18  1  0
 14 15  1  0
 15 16  2  0
 16 19  1  0
 16 17  1  0
 19 20  1  0
 20 21  2  0
 20 25  1  0
 21 22  1  0
 22 23  2  0
 23 24  1  0
 24 25  2  0
 17 18  2  0
  3  4  1  0
  4  5  1  0
  4  8  1  0
  5  6  2  0
  5 12  1  0
  6  7  1  0
  6  9  1  0
  7  8  1  0
  9 10  1  0
 10 11  1  0
 11 12  1  0
M  CHG  1  10   1
M  END
>  <minimizedAffinity>  (442) 
-8.75061

$$$$
data/200k_reference_output/data/smiles/11677.pdb
     RDKit          3D

 29 32  0  0  0  0  0  0  0  0999 V2000
   71.5300   47.3339   58.8769 C   0  0  0  0  0  0  0  0  0  0  0  0
   70.8001   48.1651   58.0398 C   0  0  0  0  0  0  0  0  0  0  0  0
   69.9228   47.6804   57.1248 C   0  0  0  0  0  0  0  0  0  0  0  0
   69.7930   46.2844   57.0718 C   0  0  0  0  0  0  0  0  0  0  0  0
   70.4986   45.4308   57.8837 C   0  0  0  0  0  0  0  0  0  0  0  0
   71.3818   45.9804   58.8007 C   0  0  0  0  0  0  0  0  0  0  0  0
   72.0609   45.1355   59.5845 F   0  0  0  0  0  0  0  0  0  0  0  0
   74.7487   50.9334   58.6081 N   0  0  0  0  0  0  0  0  0  0  0  0
   74.4093   50.0474   57.5544 C   0  0  0  0  0  0  0  0  0  0  0  0
   73.8670   48.7119   57.9645 C   0  0  0  0  0  0  0  0  0  0  0  0
   73.6077   48.6293   59.3835 N   0  0  0  0  0  0  0  0  0  0  0  0
   72.4550   47.9443   59.8306 C   0  0  0  0  0  0  0  0  0  0  0  0
   72.2276   47.8625   61.0787 O   0  0  0  0  0  0  0  0  0  0  0  0
   74.4866   49.2286   60.3626 C   0  0  0  0  0  0  0  0  0  0  0  0
   75.3462   50.3087   59.7397 C   0  0  0  0  0  0  0  0  0  0  0  0
   73.0189   52.3095   57.6441 C   0  0  0  0  0  0  0  0  0  0  0  0
   73.8165   51.9742   58.8953 C   0  0  0  0  0  0  0  0  0  0  0  0
   69.1004   48.5039   56.1879 C   0  0  0  0  0  0  0  0  0  0  0  0
   69.4460   48.3484   54.7790 C   0  0  0  0  0  0  0  0  0  0  0  0
   70.5151   49.0250   54.2855 N   0  0  0  0  0  0  0  0  0  0  0  0
   70.8998   48.9954   53.0250 N   0  0  0  0  0  0  0  0  0  0  0  0
   70.2256   48.2670   52.1316 C   0  0  0  0  0  0  0  0  0  0  0  0
   70.5911   48.2346   50.9111 O   0  0  0  0  0  0  0  0  0  0  0  0
   69.1258   47.5557   52.5805 C   0  0  0  0  0  0  0  0  0  0  0  0
   68.7320   47.5932   53.9113 C   0  0  0  0  0  0  0  0  0  0  0  0
   67.5899   46.7797   54.2818 C   0  0  0  0  0  0  0  0  0  0  0  0
   67.8509   45.3912   53.6612 C   0  0  0  0  0  0  0  0  0  0  0  0
   67.7808   45.4782   52.1777 C   0  0  0  0  0  0  0  0  0  0  0  0
   68.3320   46.7474   51.6403 C   0  0  0  0  0  0  0  0  0  0  0  0
 16 17  1  0
 17  8  1  0
  8  9  1  0
  8 15  1  0
  9 10  1  0
 10 11  1  0
 11 12  1  0
 11 14  1  0
 12 13  2  0
 12  1  1  0
  1  2  2  0
  1  6  1  0
  2  3  1  0
  3 18  1  0
  3  4  2  0
 18 19  1  0
 19 20  2  0
 19 25  1  0
 20 21  1  0
 21 22  1  0
 22 23  2  0
 22 24  1  0
 24 25  2  0
 24 29  1  0
 25 26  1  0
 26 27  1  0
 27 28  1  0
 28 29  1  0
  4  5  1  0
  5  6  2  0
  6  7  1  0
 14 15  1  0
M  CHG  1   8   1
M  END
>  <minimizedAffinity>  (443) 
-8.74858

$$$$
data/200k_reference_output/data/smiles/23176.pdb
     RDKit          3D

 27 30  0  0  0  0  0  0  0  0999 V2000
   70.6855   46.8278   58.2344 C   0  0  2  0  0  0  0  0  0  0  0  0
   71.7506   47.7127   58.8646 C   0  0  0  0  0  0  0  0  0  0  0  0
   71.8936   46.9110   60.1794 C   0  0  0  0  0  0  0  0  0  0  0  0
   71.6822   45.5654   59.8236 N   0  0  1  0  0  0  0  0  0  0  0  0
   71.4252   45.4890   58.4052 C   0  0  0  0  0  0  0  0  0  0  0  0
   70.2303   47.1279   57.0050 N   0  0  0  0  0  0  0  0  0  0  0  0
   68.8618   46.7240   56.2018 S   0  0  0  0  0  0  0  0  0  0  0  0
   67.6253   47.3256   56.9214 O   0  0  0  0  0  0  0  0  0  0  0  0
   68.6071   45.2392   56.5406 O   0  0  0  0  0  0  0  0  0  0  0  0
   69.9698   49.0198   54.3938 C   0  0  0  0  0  0  0  0  0  0  0  0
   69.2780   47.8936   53.8083 C   0  0  0  0  0  0  0  0  0  0  0  0
   69.1662   47.9354   52.4049 C   0  0  0  0  0  0  0  0  0  0  0  0
   68.5031   46.9579   51.6998 C   0  0  0  0  0  0  0  0  0  0  0  0
   67.9462   45.9312   52.3940 C   0  0  0  0  0  0  0  0  0  0  0  0
   67.2897   44.9608   51.7197 F   0  0  0  0  0  0  0  0  0  0  0  0
   68.0569   45.8917   53.7584 C   0  0  0  0  0  0  0  0  0  0  0  0
   68.7253   46.8694   54.5115 C   0  0  0  0  0  0  0  0  0  0  0  0
   72.5483   44.5689   60.2736 C   0  0  0  0  0  0  0  0  0  0  0  0
   71.9796   43.8039   61.4088 C   0  0  0  0  0  0  0  0  0  0  0  0
   70.7252   43.1924   61.2873 C   0  0  0  0  0  0  0  0  0  0  0  0
   70.1850   42.4851   62.3364 C   0  0  0  0  0  0  0  0  0  0  0  0
   70.8392   42.3436   63.5414 C   0  0  0  0  0  0  0  0  0  0  0  0
   72.0719   42.9366   63.6832 C   0  0  0  0  0  0  0  0  0  0  0  0
   72.6195   43.6547   62.6163 C   0  0  0  0  0  0  0  0  0  0  0  0
   72.5290   42.6621   64.9618 O   0  0  0  0  0  0  0  0  0  0  0  0
   71.7497   41.5937   65.5200 C   0  0  0  0  0  0  0  0  0  0  0  0
   70.5579   41.7037   64.7602 O   0  0  0  0  0  0  0  0  0  0  0  0
 10 11  1  0
 11 12  2  0
 11 17  1  0
 12 13  1  0
 13 14  2  0
 14 15  1  0
 14 16  1  0
 16 17  2  0
 17  7  1  0
  7  8  2  0
  7  9  2  0
  7  6  1  0
  1  6  1  6
  1  2  1  0
  1  5  1  0
  2  3  1  0
  3  4  1  0
  4 18  1  6
  4  5  1  0
 18 19  1  0
 19 20  2  0
 19 24  1  0
 20 21  1  0
 21 22  2  0
 22 23  1  0
 22 27  1  0
 23 24  2  0
 23 25  1  0
 25 26  1  0
 26 27  1  0
M  CHG  1   4   1
M  END
>  <minimizedAffinity>  (444) 
-8.74665

$$$$
data/reference_output_2/data/smiles/181521.pdb
     RDKit          3D

 26 29  0  0  0  0  0  0  0  0999 V2000
   75.8309   34.7713   53.5250 C   0  0  0  0  0  0  0  0  0  0  0  0
   75.9757   34.8024   54.8543 N   0  0  0  0  0  0  0  0  0  0  0  0
   75.0061   35.1370   55.7247 C   0  0  0  0  0  0  0  0  0  0  0  0
   75.1942   35.1568   57.0893 C   0  0  0  0  0  0  0  0  0  0  0  0
   74.1823   35.5044   57.9616 C   0  0  0  0  0  0  0  0  0  0  0  0
   72.9199   35.8534   57.5132 C   0  0  0  0  0  0  0  0  0  0  0  0
   72.7443   35.8285   56.1424 C   0  0  0  0  0  0  0  0  0  0  0  0
   73.7502   35.4825   55.2650 C   0  0  0  0  0  0  0  0  0  0  0  0
   73.5774   35.4578   53.8988 C   0  0  0  0  0  0  0  0  0  0  0  0
   72.4274   35.7744   53.4763 O   0  0  0  0  0  0  0  0  0  0  0  0
   74.5781   35.1169   53.0780 N   0  0  0  0  0  0  0  0  0  0  0  0
   71.8533   36.2197   58.4312 C   0  0  0  0  0  0  0  0  0  0  0  0
   71.2260   35.5053   59.4271 C   0  0  0  0  0  0  0  0  0  0  0  0
   70.2956   36.2696   60.0134 N   0  0  0  0  0  0  0  0  0  0  0  0
   70.2939   37.4512   59.4367 N   0  0  0  0  0  0  0  0  0  0  0  0
   71.2288   37.4502   58.4739 C   0  0  0  0  0  0  0  0  0  0  0  0
   78.0994   34.1462   53.3313 N   0  0  0  0  0  0  0  0  0  0  0  0
   76.8729   34.4099   52.5473 C   0  0  2  0  0  0  0  0  0  0  0  0
   77.2125   35.4761   51.5832 C   0  0  0  0  0  0  0  0  0  0  0  0
   77.1576   35.1741   50.1640 C   0  0  0  0  0  0  0  0  0  0  0  0
   77.9844   35.8032   49.2703 C   0  0  0  0  0  0  0  0  0  0  0  0
   77.9196   35.5397   47.9090 C   0  0  0  0  0  0  0  0  0  0  0  0
   77.0295   34.6401   47.3973 C   0  0  0  0  0  0  0  0  0  0  0  0
   76.9964   34.4101   46.0638 F   0  0  0  0  0  0  0  0  0  0  0  0
   76.1836   33.9911   48.2805 C   0  0  0  0  0  0  0  0  0  0  0  0
   76.2462   34.2523   49.6323 C   0  0  0  0  0  0  0  0  0  0  0  0
 18 17  1  1
 18 19  1  0
 18  1  1  0
 19 20  1  0
 20 21  2  0
 20 26  1  0
 21 22  1  0
 22 23  2  0
 23 24  1  0
 23 25  1  0
 25 26  2  0
  1  2  2  0
  1 11  1  0
  2  3  1  0
  3  4  2  0
  3  8  1  0
  4  5  1  0
  5  6  2  0
  6 12  1  0
  6  7  1  0
 12 13  1  0
 12 16  2  0
 13 14  2  0
 14 15  1  0
 15 16  1  0
  7  8  2  0
  8  9  1  0
  9 10  2  0
  9 11  1  0
M  CHG  1  17   1
M  END
>  <minimizedAffinity>  (445) 
-8.74655

$$$$
data/200k_reference_output/data/smiles/18237.pdb
     RDKit          3D

 28 31  0  0  0  0  0  0  0  0999 V2000
   72.5571   46.3267   60.0720 N   0  0  0  0  0  0  0  0  0  0  0  0
   72.5405   47.5940   60.5898 C   0  0  0  0  0  0  0  0  0  0  0  0
   73.2915   47.9846   61.5293 O   0  0  0  0  0  0  0  0  0  0  0  0
   71.6260   48.3428   59.9651 N   0  0  0  0  0  0  0  0  0  0  0  0
   71.0337   47.5750   59.0302 C   0  0  0  0  0  0  0  0  0  0  0  0
   70.0179   47.8638   58.1020 C   0  0  0  0  0  0  0  0  0  0  0  0
   69.5417   46.9404   57.2132 C   0  0  0  0  0  0  0  0  0  0  0  0
   70.1644   45.6714   57.3202 C   0  0  0  0  0  0  0  0  0  0  0  0
   71.1478   45.3917   58.2202 C   0  0  0  0  0  0  0  0  0  0  0  0
   71.6185   46.3408   59.1112 C   0  0  0  0  0  0  0  0  0  0  0  0
   68.5708   47.1287   56.1796 C   0  0  0  0  0  0  0  0  0  0  0  0
   67.3891   47.4376   56.6219 O   0  0  0  0  0  0  0  0  0  0  0  0
   68.6654   47.0330   54.7531 C   0  0  0  0  0  0  0  0  0  0  0  0
   69.3840   47.9867   54.0261 C   0  0  0  0  0  0  0  0  0  0  0  0
   69.4934   47.9804   52.6643 C   0  0  0  0  0  0  0  0  0  0  0  0
   68.8819   47.0033   51.9237 C   0  0  0  0  0  0  0  0  0  0  0  0
   68.1586   46.0364   52.5827 C   0  0  0  0  0  0  0  0  0  0  0  0
   68.0621   46.0687   53.9869 C   0  0  0  0  0  0  0  0  0  0  0  0
   73.4070   45.2617   60.4918 C   0  0  0  0  0  0  0  0  0  0  0  0
   72.3382   42.9597   63.9461 C   0  0  0  0  0  0  0  0  0  0  0  0
   71.5073   42.9677   62.8467 C   0  0  0  0  0  0  0  0  0  0  0  0
   71.8483   43.7335   61.7241 C   0  0  0  0  0  0  0  0  0  0  0  0
   72.9852   44.4910   61.6553 C   0  0  0  0  0  0  0  0  0  0  0  0
   73.8304   44.4860   62.7698 C   0  0  0  0  0  0  0  0  0  0  0  0
   73.5003   43.7275   63.8916 C   0  0  0  0  0  0  0  0  0  0  0  0
   72.8730   42.1538   66.0809 N   0  0  0  0  0  0  0  0  0  0  0  0
   72.0194   42.1680   65.1212 C   0  0  0  0  0  0  0  0  0  0  0  0
   70.8206   41.4254   65.2758 N   0  0  0  0  0  0  0  0  0  0  0  0
 26 27  2  0
 27 28  1  0
 27 20  1  0
 20 21  2  0
 20 25  1  0
 21 22  1  0
 22 23  2  0
 23 19  1  0
 23 24  1  0
 19  1  1  0
  1  2  1  0
  1 10  1  0
  2  3  2  0
  2  4  1  0
  4  5  1  0
  5  6  1  0
  5 10  2  0
  6  7  2  0
  7 11  1  0
  7  8  1  0
 11 12  2  0
 11 13  1  0
 13 14  2  0
 13 18  1  0
 14 15  1  0
 15 16  2  0
 16 17  1  0
 17 18  2  0
  8  9  2  0
  9 10  1  0
 24 25  2  0
M  CHG  1  26   1
M  END
>  <minimizedAffinity>  (446) 
-8.74554

$$$$
data/200k_reference_output/data/smiles/21568.pdb
     RDKit          3D

 27 29  0  0  0  0  0  0  0  0999 V2000
   68.5042   46.9380   53.8805 C   0  0  0  0  0  0  0  0  0  0  0  0
   68.6465   46.5502   52.5676 C   0  0  0  0  0  0  0  0  0  0  0  0
   69.4644   47.2543   51.6804 C   0  0  0  0  0  0  0  0  0  0  0  0
   70.1630   48.3772   52.1112 C   0  0  0  0  0  0  0  0  0  0  0  0
   70.0205   48.7610   53.4161 C   0  0  0  0  0  0  0  0  0  0  0  0
   69.2069   48.0534   54.2814 C   0  0  0  0  0  0  0  0  0  0  0  0
   70.7129   49.9363   53.9700 C   0  0  0  0  0  0  0  0  0  0  0  0
   71.9755   49.8900   53.8781 O   0  0  0  0  0  0  0  0  0  0  0  0
   70.0189   51.0156   54.5495 N   0  0  0  0  0  0  0  0  0  0  0  0
   68.5984   51.1257   54.6898 C   0  0  0  0  0  0  0  0  0  0  0  0
   68.5043   51.6051   56.1480 C   0  0  0  0  0  0  0  0  0  0  0  0
   69.7142   52.5364   56.2560 C   0  0  2  0  0  0  0  0  0  0  0  0
   69.2791   53.8604   56.2109 O   0  0  0  0  0  0  0  0  0  0  0  0
   70.6103   52.1992   55.0917 C   0  0  0  0  0  0  0  0  0  0  0  0
   67.6800   46.2104   54.7286 O   0  0  0  0  0  0  0  0  0  0  0  0
   69.8263   44.3898   57.1377 C   0  0  0  0  0  0  0  0  0  0  0  0
   69.3203   45.4189   56.3504 C   0  0  0  0  0  0  0  0  0  0  0  0
   68.2211   45.2170   55.5320 C   0  0  0  0  0  0  0  0  0  0  0  0
   67.6574   44.0068   55.5163 N   0  0  0  0  0  0  0  0  0  0  0  0
   68.1001   42.9673   56.2555 C   0  0  0  0  0  0  0  0  0  0  0  0
   69.1947   43.1685   57.0717 C   0  0  0  0  0  0  0  0  0  0  0  0
   67.3933   41.6636   56.1532 C   0  0  0  0  0  0  0  0  0  0  0  0
   68.2263   40.6085   55.8964 F   0  0  0  0  0  0  0  0  0  0  0  0
   66.4060   41.7341   55.2055 F   0  0  0  0  0  0  0  0  0  0  0  0
   66.7371   41.3794   57.3618 F   0  0  0  0  0  0  0  0  0  0  0  0
   71.2468   46.0481   58.2470 N   0  0  0  0  0  0  0  0  0  0  0  0
   71.0062   44.6338   58.0012 C   0  0  0  0  0  0  0  0  0  0  0  0
 26 27  1  0
 27 16  1  0
 16 17  2  0
 16 21  1  0
 17 18  1  0
 18 15  1  0
 18 19  2  0
 15  1  1  0
  1  2  2  0
  1  6  1  0
  2  3  1  0
  3  4  2  0
  4  5  1  0
  5  7  1  0
  5  6  2  0
  7  8  2  0
  7  9  1  0
  9 10  1  0
  9 14  1  0
 10 11  1  0
 11 12  1  0
 12 13  1  6
 12 14  1  0
 19 20  1  0
 20 22  1  0
 20 21  2  0
 22 23  1  0
 22 24  1  0
 22 25  1  0
M  CHG  1  26   1
M  END
>  <minimizedAffinity>  (447) 
-8.74553

$$$$
data/reference_output_2/data/smiles/190866.pdb
     RDKit          3D

 26 28  0  0  0  0  0  0  0  0999 V2000
   69.6241   38.8740   58.9794 N   0  0  0  0  0  0  0  0  0  0  0  0
   70.2671   40.1511   58.7975 C   0  0  0  0  0  0  0  0  0  0  0  0
   69.2941   41.2817   58.8632 C   0  0  0  0  0  0  0  0  0  0  0  0
   68.0089   41.0654   58.1389 C   0  0  0  0  0  0  0  0  0  0  0  0
   67.6287   39.6283   57.9378 C   0  0  0  0  0  0  0  0  0  0  0  0
   68.1881   38.8402   59.1040 C   0  0  0  0  0  0  0  0  0  0  0  0
   73.0633   35.8986   57.2107 C   0  0  0  0  0  0  0  0  0  0  0  0
   72.0049   36.2004   58.2078 C   0  0  0  0  0  0  0  0  0  0  0  0
   71.7064   35.3117   59.2067 C   0  0  0  0  0  0  0  0  0  0  0  0
   70.7182   35.6022   60.1301 C   0  0  0  0  0  0  0  0  0  0  0  0
   70.3912   34.6413   61.2155 C   0  0  0  0  0  0  0  0  0  0  0  0
   70.0792   36.7613   60.0120 N   0  0  0  0  0  0  0  0  0  0  0  0
   70.3470   37.6624   59.0390 C   0  0  0  0  0  0  0  0  0  0  0  0
   71.3125   37.3530   58.1559 N   0  0  0  0  0  0  0  0  0  0  0  0
   67.9782   41.8020   56.8274 C   0  0  0  0  0  0  0  0  0  0  0  0
   67.9227   41.1870   55.7315 O   0  0  0  0  0  0  0  0  0  0  0  0
   68.0103   43.2216   56.7811 N   0  0  0  0  0  0  0  0  0  0  0  0
   67.9790   43.8316   55.5241 N   0  0  0  0  0  0  0  0  0  0  0  0
   68.3093   45.1952   55.3245 C   0  0  0  0  0  0  0  0  0  0  0  0
   68.6359   45.8499   56.3353 O   0  0  0  0  0  0  0  0  0  0  0  0
   68.2835   45.8534   54.0196 C   0  0  0  0  0  0  0  0  0  0  0  0
   67.5778   45.2909   52.9772 C   0  0  0  0  0  0  0  0  0  0  0  0
   67.5240   45.8735   51.7277 C   0  0  0  0  0  0  0  0  0  0  0  0
   68.1797   47.0576   51.4631 C   0  0  0  0  0  0  0  0  0  0  0  0
   68.8909   47.6364   52.4934 C   0  0  0  0  0  0  0  0  0  0  0  0
   68.9400   47.0362   53.7577 C   0  0  0  0  0  0  0  0  0  0  0  0
  7  8  1  0
  8  9  2  0
  8 14  1  0
  9 10  1  0
 10 11  1  0
 10 12  2  0
 12 13  1  0
 13  1  1  0
 13 14  2  0
  1  2  1  0
  1  6  1  0
  2  3  1  0
  3  4  1  0
  4 15  1  0
  4  5  1  0
 15 16  2  0
 15 17  1  0
 17 18  1  0
 18 19  1  0
 19 20  2  0
 19 21  1  0
 21 22  2  0
 21 26  1  0
 22 23  1  0
 23 24  2  0
 24 25  1  0
 25 26  2  0
  5  6  1  0
M  END
>  <minimizedAffinity>  (448) 
-8.74513

$$$$
data/200k_reference_output/data/smiles/87263.pdb
     RDKit          3D

 29 32  0  0  0  0  0  0  0  0999 V2000
   69.9549   46.8646   56.5839 C   0  0  2  0  0  0  0  0  0  0  0  0
   69.9259   48.1401   57.3394 C   0  0  0  0  0  0  0  0  0  0  0  0
   70.2571   48.5840   58.4670 O   0  0  0  0  0  0  0  0  0  0  0  0
   69.3233   48.7378   56.2062 N   0  0  0  0  0  0  0  0  0  0  0  0
   68.7432   47.4570   55.8892 C   0  0  1  0  0  0  0  0  0  0  0  0
   69.3268   50.0421   55.6857 C   0  0  0  0  0  0  0  0  0  0  0  0
   68.3704   50.9567   56.1153 C   0  0  0  0  0  0  0  0  0  0  0  0
   68.3298   52.2465   55.6417 C   0  0  0  0  0  0  0  0  0  0  0  0
   69.2622   52.6512   54.7166 C   0  0  0  0  0  0  0  0  0  0  0  0
   70.2247   51.7778   54.2652 C   0  0  0  0  0  0  0  0  0  0  0  0
   70.2311   50.4859   54.7669 C   0  0  0  0  0  0  0  0  0  0  0  0
   68.6197   47.1026   54.4670 C   0  0  0  0  0  0  0  0  0  0  0  0
   67.7926   46.0592   54.1149 C   0  0  0  0  0  0  0  0  0  0  0  0
   67.6266   45.6595   52.7948 C   0  0  0  0  0  0  0  0  0  0  0  0
   68.3011   46.3235   51.8419 N   0  0  0  0  0  0  0  0  0  0  0  0
   69.1260   47.3584   52.1469 C   0  0  0  0  0  0  0  0  0  0  0  0
   69.2849   47.7479   53.4559 C   0  0  0  0  0  0  0  0  0  0  0  0
   69.2571   44.4210   56.8362 N   0  0  0  0  0  0  0  0  0  0  0  0
   69.6669   45.6593   57.3953 C   0  0  0  0  0  0  0  0  0  0  0  0
   69.7847   45.7119   58.6500 O   0  0  0  0  0  0  0  0  0  0  0  0
   67.6244   42.4153   56.0128 O   0  0  0  0  0  0  0  0  0  0  0  0
   68.1239   42.2480   57.1506 C   0  0  0  0  0  0  0  0  0  0  0  0
   68.9830   43.2729   57.6184 N   0  0  0  0  0  0  0  0  0  0  0  0
   67.7899   41.0327   57.8947 C   0  0  0  0  0  0  0  0  0  0  0  0
   68.3563   39.8216   57.6122 C   0  0  0  0  0  0  0  0  0  0  0  0
   67.9897   38.7234   58.3579 C   0  0  0  0  0  0  0  0  0  0  0  0
   67.0722   38.7796   59.3870 C   0  0  0  0  0  0  0  0  0  0  0  0
   66.5116   40.0280   59.6521 C   0  0  0  0  0  0  0  0  0  0  0  0
   66.8709   41.1242   58.9155 C   0  0  0  0  0  0  0  0  0  0  0  0
 21 22  2  0
 22 23  1  0
 22 24  1  0
 23 18  1  0
 18 19  1  0
 19 20  2  0
  1 19  1  1
  1  2  1  0
  1  5  1  0
  2  3  2  0
  2  4  1  0
  4  6  1  0
  4  5  1  0
  6  7  2  0
  6 11  1  0
  7  8  1  0
  8  9  2  0
  9 10  1  0
 10 11  2  0
  5 12  1  6
 12 13  2  0
 12 17  1  0
 13 14  1  0
 14 15  2  0
 15 16  1  0
 16 17  2  0
 24 25  2  0
 24 29  1  0
 25 26  1  0
 26 27  2  0
 27 28  1  0
 28 29  2  0
M  END
>  <minimizedAffinity>  (449) 
-8.74404

$$$$
data/200k_reference_output/data/smiles/77629.pdb
     RDKit          3D

 28 30  0  0  0  0  0  0  0  0999 V2000
   68.5912   41.8275   57.2452 C   0  0  0  0  0  0  0  0  0  0  0  0
   67.8227   40.7577   57.2390 C   0  0  0  0  0  0  0  0  0  0  0  0
   68.0470   39.5156   58.0089 C   0  0  0  0  0  0  0  0  0  0  0  0
   69.5364   39.4407   58.2739 C   0  0  1  0  0  0  0  0  0  0  0  0
   69.8672   40.6846   59.0633 C   0  0  1  0  0  0  0  0  0  0  0  0
   71.1319   40.6157   59.7209 N   0  0  0  0  0  0  0  0  0  0  0  0
   69.8079   41.8358   58.0870 C   0  0  0  0  0  0  0  0  0  0  0  0
   69.9388   38.2018   58.9301 C   0  0  0  0  0  0  0  0  0  0  0  0
   71.0513   37.5222   58.4878 C   0  0  0  0  0  0  0  0  0  0  0  0
   71.4711   36.3338   59.0856 C   0  0  0  0  0  0  0  0  0  0  0  0
   72.5659   35.6611   58.6534 F   0  0  0  0  0  0  0  0  0  0  0  0
   70.7495   35.8301   60.1493 C   0  0  0  0  0  0  0  0  0  0  0  0
   71.1478   34.6745   60.7400 F   0  0  0  0  0  0  0  0  0  0  0  0
   69.6337   36.5125   60.5930 C   0  0  0  0  0  0  0  0  0  0  0  0
   68.9594   35.9798   61.6361 F   0  0  0  0  0  0  0  0  0  0  0  0
   69.2134   37.7052   59.9903 C   0  0  0  0  0  0  0  0  0  0  0  0
   69.0507   44.1826   56.4181 N   0  0  0  0  0  0  0  0  0  0  0  0
   68.2665   43.0115   56.4337 C   0  0  0  0  0  0  0  0  0  0  0  0
   67.2375   42.9587   55.7274 O   0  0  0  0  0  0  0  0  0  0  0  0
   68.1644   46.4606   53.6040 C   0  0  0  0  0  0  0  0  0  0  0  0
   68.2341   47.6602   54.2348 C   0  0  0  0  0  0  0  0  0  0  0  0
   68.5635   47.7404   55.5549 C   0  0  0  0  0  0  0  0  0  0  0  0
   68.8324   46.5694   56.2634 C   0  0  0  0  0  0  0  0  0  0  0  0
   68.7701   45.3362   55.6542 C   0  0  0  0  0  0  0  0  0  0  0  0
   68.4347   45.2986   54.3226 C   0  0  0  0  0  0  0  0  0  0  0  0
   68.4992   47.0615   51.1763 N   0  0  0  0  0  0  0  0  0  0  0  0
   67.8150   46.3585   52.2015 C   0  0  0  0  0  0  0  0  0  0  0  0
   66.8588   45.6118   51.8777 O   0  0  0  0  0  0  0  0  0  0  0  0
 26 27  1  0
 27 28  2  0
 27 20  1  0
 20 21  2  0
 20 25  1  0
 21 22  1  0
 22 23  2  0
 23 24  1  0
 24 17  1  0
 24 25  2  0
 17 18  1  0
 18 19  2  0
 18  1  1  0
  1  2  2  0
  1  7  1  0
  2  3  1  0
  3  4  1  0
  4  8  1  1
  4  5  1  0
  8  9  2  0
  8 16  1  0
  9 10  1  0
 10 11  1  0
 10 12  2  0
 12 13  1  0
 12 14  1  0
 14 15  1  0
 14 16  2  0
  5  6  1  6
  5  7  1  0
M  CHG  1   6   1
M  END
>  <minimizedAffinity>  (450) 
-8.74265

$$$$
data/reference_output_2/data/smiles/92964.pdb
     RDKit          3D

 26 28  0  0  0  0  0  0  0  0999 V2000
   69.8690   42.7768   57.0340 O   0  0  0  0  0  0  0  0  0  0  0  0
   68.6307   42.5496   57.0756 C   0  0  0  0  0  0  0  0  0  0  0  0
   67.7964   43.5124   56.4641 N   0  0  0  0  0  0  0  0  0  0  0  0
   68.1639   41.3363   57.7362 C   0  0  0  0  0  0  0  0  0  0  0  0
   68.6538   40.0832   57.4348 C   0  0  0  0  0  0  0  0  0  0  0  0
   68.1802   38.9541   58.0876 C   0  0  0  0  0  0  0  0  0  0  0  0
   67.2062   39.0167   59.0632 C   0  0  0  0  0  0  0  0  0  0  0  0
   66.7207   40.2762   59.3575 C   0  0  0  0  0  0  0  0  0  0  0  0
   67.1882   41.4003   58.7109 C   0  0  0  0  0  0  0  0  0  0  0  0
   66.7377   37.8461   59.7182 N   0  0  0  0  0  0  0  0  0  0  0  0
   65.6000   37.1514   59.5672 C   0  0  0  0  0  0  0  0  0  0  0  0
   65.5571   36.0701   60.4176 C   0  0  0  0  0  0  0  0  0  0  0  0
   66.7348   36.1092   61.1274 C   0  0  0  0  0  0  0  0  0  0  0  0
   67.4268   37.2051   60.6734 C   0  0  0  0  0  0  0  0  0  0  0  0
   68.2837   44.6685   55.8370 N   0  0  0  0  0  0  0  0  0  0  0  0
   67.9329   45.0200   54.5060 C   0  0  0  0  0  0  0  0  0  0  0  0
   67.1545   44.2284   53.9155 O   0  0  0  0  0  0  0  0  0  0  0  0
   68.4205   46.2130   53.8257 C   0  0  0  0  0  0  0  0  0  0  0  0
   68.5850   46.2987   52.4722 C   0  0  0  0  0  0  0  0  0  0  0  0
   69.0593   47.4897   51.9110 C   0  0  0  0  0  0  0  0  0  0  0  0
   69.3655   48.5794   52.6964 C   0  0  0  0  0  0  0  0  0  0  0  0
   69.2026   48.5010   54.0643 C   0  0  0  0  0  0  0  0  0  0  0  0
   68.7375   47.3271   54.5810 C   0  0  0  0  0  0  0  0  0  0  0  0
   69.8476   49.7904   52.1366 N   0  0  0  0  0  0  0  0  0  0  0  0
   70.3784   50.6409   52.8672 O   0  0  0  0  0  0  0  0  0  0  0  0
   69.7436   50.0518   50.7947 O   0  0  0  0  0  0  0  0  0  0  0  0
  1  2  2  0
  2  3  1  0
  2  4  1  0
  3 15  1  0
 15 16  1  0
 16 17  2  0
 16 18  1  0
 18 19  2  0
 18 23  1  0
 19 20  1  0
 20 21  2  0
 21 24  1  0
 21 22  1  0
 24 25  2  0
 24 26  1  0
 22 23  2  0
  4  5  2  0
  4  9  1  0
  5  6  1  0
  6  7  2  0
  7 10  1  0
  7  8  1  0
 10 11  1  0
 10 14  1  0
 11 12  2  0
 12 13  1  0
 13 14  2  0
  8  9  2  0
M  CHG  2  24   1  26  -1
M  END
>  <minimizedAffinity>  (451) 
-8.74223

$$$$
data/200k_reference_output/data/smiles/40950.pdb
     RDKit          3D

 26 28  0  0  0  0  0  0  0  0999 V2000
   70.4885   47.0064   56.9057 N   0  0  0  0  0  0  0  0  0  0  0  0
   69.2722   47.3309   56.1973 C   0  0  0  0  0  0  0  0  0  0  0  0
   68.1441   47.1650   56.7311 O   0  0  0  0  0  0  0  0  0  0  0  0
   69.3076   47.8588   54.8442 C   0  0  0  0  0  0  0  0  0  0  0  0
   69.8911   49.0952   54.5876 C   0  0  0  0  0  0  0  0  0  0  0  0
   69.9259   49.5974   53.3120 C   0  0  0  0  0  0  0  0  0  0  0  0
   70.4411   50.7079   53.0292 O   0  0  0  0  0  0  0  0  0  0  0  0
   69.3849   48.8661   52.3333 N   0  0  0  0  0  0  0  0  0  0  0  0
   68.8105   47.6592   52.5548 C   0  0  0  0  0  0  0  0  0  0  0  0
   68.2717   46.9514   51.5217 C   0  0  0  0  0  0  0  0  0  0  0  0
   67.6881   45.7213   51.7612 C   0  0  0  0  0  0  0  0  0  0  0  0
   67.6394   45.1964   53.0194 C   0  0  0  0  0  0  0  0  0  0  0  0
   68.1750   45.8958   54.0619 C   0  0  0  0  0  0  0  0  0  0  0  0
   68.7574   47.1189   53.8319 C   0  0  0  0  0  0  0  0  0  0  0  0
   70.3300   46.4989   58.2183 C   0  0  0  0  0  0  0  0  0  0  0  0
   69.9669   44.6168   59.4980 O   0  0  0  0  0  0  0  0  0  0  0  0
   69.9415   45.0820   58.3336 C   0  0  0  0  0  0  0  0  0  0  0  0
   69.5595   44.2399   57.2898 N   0  0  0  0  0  0  0  0  0  0  0  0
   69.1783   42.8835   57.3303 C   0  0  0  0  0  0  0  0  0  0  0  0
   69.6138   41.9586   58.2380 C   0  0  0  0  0  0  0  0  0  0  0  0
   69.1977   40.6135   58.2288 C   0  0  0  0  0  0  0  0  0  0  0  0
   68.3122   40.1655   57.2812 C   0  0  0  0  0  0  0  0  0  0  0  0
   67.8951   38.8749   57.2513 F   0  0  0  0  0  0  0  0  0  0  0  0
   67.8706   41.0932   56.3662 C   0  0  0  0  0  0  0  0  0  0  0  0
   66.9887   40.6544   55.4177 F   0  0  0  0  0  0  0  0  0  0  0  0
   68.2730   42.4040   56.3700 C   0  0  0  0  0  0  0  0  0  0  0  0
 16 17  2  0
 17 15  1  0
 17 18  1  0
 15  1  1  0
  1  2  1  0
  2  3  2  0
  2  4  1  0
  4  5  2  0
  4 14  1  0
  5  6  1  0
  6  7  2  0
  6  8  1  0
  8  9  1  0
  9 10  1  0
  9 14  2  0
 10 11  2  0
 11 12  1  0
 12 13  2  0
 13 14  1  0
 18 19  1  0
 19 20  2  0
 19 26  1  0
 20 21  1  0
 21 22  2  0
 22 23  1  0
 22 24  1  0
 24 25  1  0
 24 26  2  0
M  END
>  <minimizedAffinity>  (452) 
-8.74222

$$$$
data/200k_reference_output/data/smiles/75830.pdb
     RDKit          3D

 25 27  0  0  0  0  0  0  0  0999 V2000
   68.1076   45.4033   54.5917 C   0  0  0  0  0  0  0  0  0  0  0  0
   68.6603   46.3925   55.3693 C   0  0  0  0  0  0  0  0  0  0  0  0
   69.2313   47.5437   54.8011 C   0  0  0  0  0  0  0  0  0  0  0  0
   69.2677   47.7423   53.4434 C   0  0  0  0  0  0  0  0  0  0  0  0
   68.7175   46.7569   52.6545 C   0  0  0  0  0  0  0  0  0  0  0  0
   68.1579   45.6301   53.2113 C   0  0  0  0  0  0  0  0  0  0  0  0
   69.1472   43.4824   56.4877 O   0  0  0  0  0  0  0  0  0  0  0  0
   68.0416   43.3035   55.9933 C   0  0  0  0  0  0  0  0  0  0  0  0
   67.3184   42.1252   56.3981 N   0  0  0  0  0  0  0  0  0  0  0  0
   67.5110   44.2135   55.0727 N   0  0  0  0  0  0  0  0  0  0  0  0
   67.8885   41.2029   57.3479 C   0  0  0  0  0  0  0  0  0  0  0  0
   67.5229   41.6992   58.7043 C   0  0  0  0  0  0  0  0  0  0  0  0
   66.4496   41.2963   59.4830 C   0  0  0  0  0  0  0  0  0  0  0  0
   66.4580   41.9952   60.6733 C   0  0  0  0  0  0  0  0  0  0  0  0
   67.5246   42.8022   60.6020 N   0  0  0  0  0  0  0  0  0  0  0  0
   68.1617   42.6308   59.4329 N   0  0  0  0  0  0  0  0  0  0  0  0
   69.9828   49.1864   52.7369 S   0  0  0  0  0  0  0  0  0  0  0  0
   69.4720   49.3944   51.3312 O   0  0  0  0  0  0  0  0  0  0  0  0
   71.4616   48.9450   52.6118 O   0  0  0  0  0  0  0  0  0  0  0  0
   69.7221   50.5661   53.7499 C   0  0  0  0  0  0  0  0  0  0  0  0
   70.7782   51.2464   54.3005 C   0  0  0  0  0  0  0  0  0  0  0  0
   70.5852   52.3578   55.1169 C   0  0  0  0  0  0  0  0  0  0  0  0
   69.3129   52.8054   55.3947 C   0  0  0  0  0  0  0  0  0  0  0  0
   68.2460   52.1262   54.8439 C   0  0  0  0  0  0  0  0  0  0  0  0
   68.4626   51.0224   54.0343 C   0  0  0  0  0  0  0  0  0  0  0  0
  7  8  2  0
  8  9  1  0
  8 10  1  0
  9 11  1  0
 11 12  1  0
 12 13  1  0
 12 16  2  0
 13 14  2  0
 14 15  1  0
 15 16  1  0
 10  1  1  0
  1  2  2  0
  1  6  1  0
  2  3  1  0
  3  4  2  0
  4 17  1  0
  4  5  1  0
 17 18  2  0
 17 19  2  0
 17 20  1  0
 20 21  2  0
 20 25  1  0
 21 22  1  0
 22 23  2  0
 23 24  1  0
 24 25  2  0
  5  6  2  0
M  END
>  <minimizedAffinity>  (453) 
-8.74201

$$$$
data/200k_reference_output/data/smiles/50797.pdb
     RDKit          3D

 28 32  0  0  0  0  0  0  0  0999 V2000
   70.7068   45.8916   58.0700 N   0  0  0  0  0  0  0  0  0  0  0  0
   71.1449   47.0938   58.4823 C   0  0  0  0  0  0  0  0  0  0  0  0
   70.3906   48.0781   57.8953 C   0  0  0  0  0  0  0  0  0  0  0  0
   69.4674   47.4540   57.1033 N   0  0  0  0  0  0  0  0  0  0  0  0
   69.6698   46.1443   57.2195 C   0  0  0  0  0  0  0  0  0  0  0  0
   71.1857   44.5662   58.4142 C   0  0  0  0  0  0  0  0  0  0  0  0
   68.7618   41.3710   56.9967 C   0  0  0  0  0  0  0  0  0  0  0  0
   69.7157   41.1675   57.9609 C   0  0  0  0  0  0  0  0  0  0  0  0
   70.4876   42.2120   58.4051 C   0  0  0  0  0  0  0  0  0  0  0  0
   70.3388   43.4843   57.9076 C   0  0  0  0  0  0  0  0  0  0  0  0
   69.3797   43.6820   56.9391 C   0  0  0  0  0  0  0  0  0  0  0  0
   68.5878   42.6469   56.4755 C   0  0  0  0  0  0  0  0  0  0  0  0
   67.8038   39.2895   57.2465 O   0  0  0  0  0  0  0  0  0  0  0  0
   67.9601   40.2894   56.5363 N   0  0  0  0  0  0  0  0  0  0  0  0
   67.3682   40.3747   55.3031 O   0  0  0  0  0  0  0  0  0  0  0  0
   68.4939   48.1803   56.3160 C   0  0  0  0  0  0  0  0  0  0  0  0
   68.9309   48.3850   54.9153 C   0  0  0  0  0  0  0  0  0  0  0  0
   69.5143   49.5710   54.5420 C   0  0  0  0  0  0  0  0  0  0  0  0
   69.9093   49.7159   53.2135 C   0  0  0  0  0  0  0  0  0  0  0  0
   69.7266   48.7087   52.2863 C   0  0  0  0  0  0  0  0  0  0  0  0
   69.1406   47.5201   52.6615 C   0  0  0  0  0  0  0  0  0  0  0  0
   68.7539   47.3855   53.9773 C   0  0  0  0  0  0  0  0  0  0  0  0
   68.1811   46.1129   54.1627 O   0  0  0  0  0  0  0  0  0  0  0  0
   67.6765   45.7346   52.8703 C   0  0  0  0  0  0  0  0  0  0  0  0
   68.7892   46.2471   51.9846 C   0  0  0  0  0  0  0  0  0  0  0  0
   70.4682   50.9712   53.0463 O   0  0  0  0  0  0  0  0  0  0  0  0
   70.1026   51.8012   54.1366 C   0  0  0  0  0  0  0  0  0  0  0  0
   69.8456   50.8179   55.2742 C   0  0  0  0  0  0  0  0  0  0  0  0
 13 14  2  0
 14 15  1  0
 14  7  1  0
  7  8  2  0
  7 12  1  0
  8  9  1  0
  9 10  2  0
 10  6  1  0
 10 11  1  0
  6  1  1  0
  1  2  1  0
  1  5  2  0
  2  3  2  0
  3  4  1  0
  4 16  1  0
  4  5  1  0
 16 17  1  0
 17 18  2  0
 17 22  1  0
 18 19  1  0
 18 28  1  0
 19 20  2  0
 19 26  1  0
 20 21  1  0
 21 22  2  0
 21 25  1  0
 22 23  1  0
 23 24  1  0
 24 25  1  0
 26 27  1  0
 27 28  1  0
 11 12  2  0
M  CHG  3   1   1  14   1  15  -1
M  END
>  <minimizedAffinity>  (454) 
-8.74163

$$$$
data/200k_reference_output/data/smiles/4004.pdb
     RDKit          3D

 29 32  0  0  0  0  0  0  0  0999 V2000
   70.4393   43.3817   57.8494 C   0  0  0  0  0  0  0  0  0  0  0  0
   69.2760   42.6368   57.6449 C   0  0  0  0  0  0  0  0  0  0  0  0
   69.2610   41.2680   57.8243 C   0  0  0  0  0  0  0  0  0  0  0  0
   70.3857   40.5684   58.2135 C   0  0  0  0  0  0  0  0  0  0  0  0
   70.4129   39.2100   58.4017 C   0  0  0  0  0  0  0  0  0  0  0  0
   69.3542   38.5558   58.2125 O   0  0  0  0  0  0  0  0  0  0  0  0
   71.5250   38.5368   58.7833 N   0  0  0  0  0  0  0  0  0  0  0  0
   72.6329   39.2761   58.9745 C   0  0  0  0  0  0  0  0  0  0  0  0
   73.6773   38.6439   59.3323 O   0  0  0  0  0  0  0  0  0  0  0  0
   72.6298   40.6108   58.7956 N   0  0  0  0  0  0  0  0  0  0  0  0
   71.5348   41.2922   58.4172 C   0  0  0  0  0  0  0  0  0  0  0  0
   71.5544   42.6767   58.2367 C   0  0  0  0  0  0  0  0  0  0  0  0
   71.5390   37.1225   58.9748 C   0  0  0  0  0  0  0  0  0  0  0  0
   71.0452   36.5744   60.1334 C   0  0  0  0  0  0  0  0  0  0  0  0
   71.0554   35.2104   60.3272 C   0  0  0  0  0  0  0  0  0  0  0  0
   71.5531   34.3399   59.3852 C   0  0  0  0  0  0  0  0  0  0  0  0
   72.0496   34.8747   58.2235 C   0  0  0  0  0  0  0  0  0  0  0  0
   72.0394   36.2476   58.0296 C   0  0  0  0  0  0  0  0  0  0  0  0
   72.5387   36.7677   56.8621 F   0  0  0  0  0  0  0  0  0  0  0  0
   71.3718   45.5402   58.0692 O   0  0  0  0  0  0  0  0  0  0  0  0
   70.4125   44.8255   57.6487 C   0  0  0  0  0  0  0  0  0  0  0  0
   69.3622   45.4930   57.0001 N   0  0  0  0  0  0  0  0  0  0  0  0
   69.3111   46.9189   56.7886 C   0  0  0  0  0  0  0  0  0  0  0  0
   68.4849   47.3520   55.6220 C   0  0  0  0  0  0  0  0  0  0  0  0
   68.9317   46.9120   54.3466 N   0  0  0  0  0  0  0  0  0  0  0  0
   69.2529   47.9399   53.4045 C   0  0  0  0  0  0  0  0  0  0  0  0
   69.1858   47.2789   52.0306 C   0  0  0  0  0  0  0  0  0  0  0  0
   68.1447   46.1956   52.2339 C   0  0  0  0  0  0  0  0  0  0  0  0
   67.9592   46.0535   53.7355 C   0  0  0  0  0  0  0  0  0  0  0  0
 20 21  2  0
 21 22  1  0
 21  1  1  0
 22 23  1  0
 23 24  1  0
 24 25  1  0
 25 26  1  0
 25 29  1  0
 26 27  1  0
 27 28  1  0
 28 29  1  0
  1  2  2  0
  1 12  1  0
  2  3  1  0
  3  4  2  0
  4  5  1  0
  4 11  1  0
  5  6  2  0
  5  7  1  0
  7 13  1  0
  7  8  1  0
 13 14  2  0
 13 18  1  0
 14 15  1  0
 15 16  2  0
 16 17  1  0
 17 18  2  0
 18 19  1  0
  8  9  2  0
  8 10  1  0
 10 11  1  0
 11 12  2  0
M  CHG  1  25   1
M  END
>  <minimizedAffinity>  (455) 
-8.74126

$$$$
data/200k_reference_output/data/smiles/74911.pdb
     RDKit          3D

 26 28  0  0  0  0  0  0  0  0999 V2000
   69.1848   47.6625   55.2924 C   0  0  0  0  0  0  0  0  0  0  0  0
   68.6921   46.5135   55.9367 C   0  0  0  0  0  0  0  0  0  0  0  0
   68.1666   45.4845   55.2513 C   0  0  0  0  0  0  0  0  0  0  0  0
   68.1063   45.5501   53.8916 C   0  0  0  0  0  0  0  0  0  0  0  0
   68.5824   46.6569   53.2358 C   0  0  0  0  0  0  0  0  0  0  0  0
   68.5157   46.7454   51.8684 C   0  0  0  0  0  0  0  0  0  0  0  0
   67.9580   45.6663   51.1686 O   0  0  0  0  0  0  0  0  0  0  0  0
   68.9526   47.7920   51.2277 O   0  0  0  0  0  0  0  0  0  0  0  0
   69.4787   48.8107   51.8428 C   0  0  0  0  0  0  0  0  0  0  0  0
   69.9020   49.8198   51.2376 O   0  0  0  0  0  0  0  0  0  0  0  0
   69.6064   48.8408   53.2605 C   0  0  0  0  0  0  0  0  0  0  0  0
   69.1453   47.7545   53.9349 C   0  0  0  0  0  0  0  0  0  0  0  0
   68.2558   52.0595   57.4415 C   0  0  0  0  0  0  0  0  0  0  0  0
   69.1149   50.8553   57.2719 C   0  0  0  0  0  0  0  0  0  0  0  0
   70.2517   50.6687   58.0310 C   0  0  0  0  0  0  0  0  0  0  0  0
   71.0529   49.5570   57.8797 C   0  0  0  0  0  0  0  0  0  0  0  0
   70.6990   48.6104   56.9404 C   0  0  0  0  0  0  0  0  0  0  0  0
   69.5728   48.7562   56.1621 C   0  0  0  0  0  0  0  0  0  0  0  0
   68.8004   49.8691   56.3362 C   0  0  0  0  0  0  0  0  0  0  0  0
   70.2699   49.9972   53.8005 C   0  0  0  0  0  0  0  0  0  0  0  0
   69.6920   51.0660   53.9986 O   0  0  0  0  0  0  0  0  0  0  0  0
   71.6666   49.9295   54.1368 N   0  0  0  0  0  0  0  0  0  0  0  0
   72.3741   51.0628   54.6875 C   0  0  0  0  0  0  0  0  0  0  0  0
   73.8196   50.8697   54.4866 C   0  0  0  0  0  0  0  0  0  0  0  0
   74.2487   50.1284   53.5975 O   0  0  0  0  0  0  0  0  0  0  0  0
   74.7424   51.5220   55.2993 O   0  0  0  0  0  0  0  0  0  0  0  0
 13 14  1  0
 14 15  2  0
 14 19  1  0
 15 16  1  0
 16 17  2  0
 17 18  1  0
 18  1  1  0
 18 19  2  0
  1  2  2  0
  1 12  1  0
  2  3  1  0
  3  4  2  0
  4  5  1  0
  5  6  2  0
  5 12  1  0
  6  7  1  0
  6  8  1  0
  8  9  1  0
  9 10  2  0
  9 11  1  0
 11 20  1  0
 11 12  2  0
 20 21  2  0
 20 22  1  0
 22 23  1  0
 23 24  1  0
 24 25  2  0
 24 26  1  0
M  END
>  <minimizedAffinity>  (456) 
-8.74126

$$$$
data/200k_reference_output/data/smiles/26122.pdb
     RDKit          3D

 25 27  0  0  0  0  0  0  0  0999 V2000
   71.2734   46.4911   58.7117 S   0  0  0  0  0  0  0  0  0  0  0  0
   71.1810   46.8072   60.1577 O   0  0  0  0  0  0  0  0  0  0  0  0
   71.6673   47.7495   57.9881 O   0  0  0  0  0  0  0  0  0  0  0  0
   72.4499   45.2199   58.4765 C   0  0  0  0  0  0  0  0  0  0  0  0
   72.0880   43.9634   58.0146 C   0  0  0  0  0  0  0  0  0  0  0  0
   73.0382   42.9748   57.8363 C   0  0  0  0  0  0  0  0  0  0  0  0
   74.3692   43.2152   58.1131 C   0  0  0  0  0  0  0  0  0  0  0  0
   75.3364   42.2455   57.9428 C   0  0  0  0  0  0  0  0  0  0  0  0
   76.6726   42.4957   58.2225 C   0  0  0  0  0  0  0  0  0  0  0  0
   77.0704   43.7336   58.6829 C   0  0  0  0  0  0  0  0  0  0  0  0
   76.0953   44.6947   58.8487 C   0  0  0  0  0  0  0  0  0  0  0  0
   74.7562   44.4629   58.5742 C   0  0  0  0  0  0  0  0  0  0  0  0
   73.7850   45.4258   58.7417 C   0  0  0  0  0  0  0  0  0  0  0  0
   69.7169   46.0317   58.1442 N   0  0  0  0  0  0  0  0  0  0  0  0
   67.8914   47.2956   56.6756 O   0  0  0  0  0  0  0  0  0  0  0  0
   68.7299   46.5622   56.0063 C   0  0  0  0  0  0  0  0  0  0  0  0
   69.7134   45.8773   56.7400 N   0  0  0  0  0  0  0  0  0  0  0  0
   68.5546   46.5364   54.5719 C   0  0  0  0  0  0  0  0  0  0  0  0
   67.8018   45.5314   53.9694 C   0  0  0  0  0  0  0  0  0  0  0  0
   67.6233   45.5101   52.6126 C   0  0  0  0  0  0  0  0  0  0  0  0
   68.1680   46.4621   51.7811 C   0  0  0  0  0  0  0  0  0  0  0  0
   68.9121   47.4570   52.3608 C   0  0  0  0  0  0  0  0  0  0  0  0
   69.4670   48.4113   51.6069 F   0  0  0  0  0  0  0  0  0  0  0  0
   69.0934   47.4794   53.7383 C   0  0  0  0  0  0  0  0  0  0  0  0
   69.8535   48.4973   54.2095 F   0  0  0  0  0  0  0  0  0  0  0  0
 15 16  2  0
 16 17  1  0
 16 18  1  0
 17 14  1  0
 14  1  1  0
  1  2  2  0
  1  3  2  0
  1  4  1  0
  4  5  2  0
  4 13  1  0
  5  6  1  0
  6  7  2  0
  7  8  1  0
  7 12  1  0
  8  9  2  0
  9 10  1  0
 10 11  2  0
 11 12  1  0
 12 13  2  0
 18 19  2  0
 18 24  1  0
 19 20  1  0
 20 21  2  0
 21 22  1  0
 22 23  1  0
 22 24  2  0
 24 25  1  0
M  END
>  <minimizedAffinity>  (457) 
-8.74096

$$$$
data/reference_output_2/data/smiles/144795.pdb
     RDKit          3D

 25 27  0  0  0  0  0  0  0  0999 V2000
   70.0495   51.3200   54.0635 C   0  0  0  0  0  0  0  0  0  0  0  0
   70.7214   50.0608   53.6657 C   0  0  0  0  0  0  0  0  0  0  0  0
   72.0029   49.9840   53.7806 N   0  0  0  0  0  0  0  0  0  0  0  0
   69.9364   48.9422   53.1584 C   0  0  0  0  0  0  0  0  0  0  0  0
   69.4271   47.9706   54.0186 C   0  0  0  0  0  0  0  0  0  0  0  0
   68.6852   46.9118   53.5349 C   0  0  0  0  0  0  0  0  0  0  0  0
   68.1669   45.9324   54.3616 C   0  0  0  0  0  0  0  0  0  0  0  0
   67.4245   44.8760   53.8752 C   0  0  0  0  0  0  0  0  0  0  0  0
   67.1793   44.7737   52.5216 C   0  0  0  0  0  0  0  0  0  0  0  0
   67.6932   45.7487   51.6918 C   0  0  0  0  0  0  0  0  0  0  0  0
   68.4430   46.8161   52.1807 C   0  0  0  0  0  0  0  0  0  0  0  0
   68.9271   47.7374   51.3822 O   0  0  0  0  0  0  0  0  0  0  0  0
   69.6463   48.7662   51.8245 C   0  0  0  0  0  0  0  0  0  0  0  0
   70.0835   49.6199   51.0019 O   0  0  0  0  0  0  0  0  0  0  0  0
   72.7462   51.0637   54.2688 N   0  0  0  0  0  0  0  0  0  0  0  0
   74.1374   50.7249   55.2256 S   0  0  0  0  0  0  0  0  0  0  0  0
   74.9090   51.9674   55.5416 O   0  0  0  0  0  0  0  0  0  0  0  0
   75.0843   49.8161   54.4589 O   0  0  0  0  0  0  0  0  0  0  0  0
   73.7136   49.9322   56.7229 C   0  0  0  0  0  0  0  0  0  0  0  0
   74.5090   48.8960   57.1565 C   0  0  0  0  0  0  0  0  0  0  0  0
   74.1780   48.2567   58.3520 C   0  0  0  0  0  0  0  0  0  0  0  0
   73.0779   48.6534   59.0868 C   0  0  0  0  0  0  0  0  0  0  0  0
   72.7649   47.9505   60.3440 C   0  0  0  0  0  0  0  0  0  0  0  0
   72.2977   49.6941   58.6313 C   0  0  0  0  0  0  0  0  0  0  0  0
   72.6126   50.3282   57.4605 C   0  0  0  0  0  0  0  0  0  0  0  0
  1  2  1  0
  2  3  2  0
  2  4  1  0
  3 15  1  0
 15 16  1  0
 16 17  2  0
 16 18  2  0
 16 19  1  0
 19 20  2  0
 19 25  1  0
 20 21  1  0
 21 22  2  0
 22 23  1  0
 22 24  1  0
 24 25  2  0
  4  5  2  0
  4 13  1  0
  5  6  1  0
  6  7  2  0
  6 11  1  0
  7  8  1  0
  8  9  2  0
  9 10  1  0
 10 11  2  0
 11 12  1  0
 12 13  1  0
 13 14  2  0
M  END
>  <minimizedAffinity>  (458) 
-8.73966

$$$$
data/200k_reference_output/data/smiles/1523.pdb
     RDKit          3D

 25 26  0  0  0  0  0  0  0  0999 V2000
   67.9977   42.2143   56.4559 C   0  0  0  0  0  0  0  0  0  0  0  0
   66.5570   42.1660   55.7302 S   0  0  0  0  0  0  0  0  0  0  0  0
   67.2248   40.7170   58.6113 O   0  0  0  0  0  0  0  0  0  0  0  0
   68.2275   40.2671   58.0038 C   0  0  0  0  0  0  0  0  0  0  0  0
   68.6650   41.0037   56.8747 N   0  0  0  0  0  0  0  0  0  0  0  0
   68.8705   39.0466   58.4779 C   0  0  0  0  0  0  0  0  0  0  0  0
   70.1291   38.7434   58.2878 C   0  0  0  0  0  0  0  0  0  0  0  0
   70.8167   37.5487   58.7337 C   0  0  0  0  0  0  0  0  0  0  0  0
   70.4675   36.8034   59.8302 C   0  0  0  0  0  0  0  0  0  0  0  0
   71.1914   35.6577   60.1889 C   0  0  0  0  0  0  0  0  0  0  0  0
   72.2801   35.2397   59.4508 C   0  0  0  0  0  0  0  0  0  0  0  0
   72.9690   34.1187   59.8258 F   0  0  0  0  0  0  0  0  0  0  0  0
   72.6285   35.9835   58.3576 C   0  0  0  0  0  0  0  0  0  0  0  0
   71.9207   37.1200   57.9906 C   0  0  0  0  0  0  0  0  0  0  0  0
   68.6463   43.4586   56.6646 N   0  0  0  0  0  0  0  0  0  0  0  0
   68.2284   44.6746   56.0996 N   0  0  0  0  0  0  0  0  0  0  0  0
   69.0060   45.8626   56.3003 C   0  0  0  0  0  0  0  0  0  0  0  0
   70.0636   45.7665   57.0040 O   0  0  0  0  0  0  0  0  0  0  0  0
   68.6609   47.1806   55.7417 C   0  0  0  0  0  0  0  0  0  0  0  0
   68.6769   47.1206   54.2311 C   0  0  0  0  0  0  0  0  0  0  0  0
   69.4528   47.9196   53.4486 C   0  0  0  0  0  0  0  0  0  0  0  0
   69.3977   47.7513   52.0611 C   0  0  0  0  0  0  0  0  0  0  0  0
   68.5739   46.7944   51.4989 C   0  0  0  0  0  0  0  0  0  0  0  0
   67.7917   45.9907   52.2959 C   0  0  0  0  0  0  0  0  0  0  0  0
   67.8536   46.1669   53.6848 C   0  0  0  0  0  0  0  0  0  0  0  0
  3  4  2  0
  4  6  1  0
  4  5  1  0
  6  7  2  0
  7  8  1  0
  8  9  2  0
  8 14  1  0
  9 10  1  0
 10 11  2  0
 11 12  1  0
 11 13  1  0
 13 14  2  0
  5  1  1  0
  1  2  2  0
  1 15  1  0
 15 16  1  0
 16 17  1  0
 17 18  2  0
 17 19  1  0
 19 20  1  0
 20 21  2  0
 20 25  1  0
 21 22  1  0
 22 23  2  0
 23 24  1  0
 24 25  2  0
M  END
>  <minimizedAffinity>  (459) 
-8.73823

$$$$
data/200k_reference_output/data/smiles/23433.pdb
     RDKit          3D

 27 28  0  0  0  0  0  0  0  0999 V2000
   69.3861   50.7359   54.8182 C   0  0  0  0  0  0  0  0  0  0  0  0
   68.4045   50.2575   55.6910 C   0  0  0  0  0  0  0  0  0  0  0  0
   68.0349   50.9347   56.8259 C   0  0  0  0  0  0  0  0  0  0  0  0
   68.6563   52.1364   57.1220 C   0  0  0  0  0  0  0  0  0  0  0  0
   69.6343   52.6629   56.2987 C   0  0  0  0  0  0  0  0  0  0  0  0
   69.9641   51.9405   55.1742 C   0  0  0  0  0  0  0  0  0  0  0  0
   66.9920   50.4104   57.7370 C   0  0  0  0  0  0  0  0  0  0  0  0
   65.8735   51.2350   57.6898 F   0  0  0  0  0  0  0  0  0  0  0  0
   67.4886   50.3982   59.0345 F   0  0  0  0  0  0  0  0  0  0  0  0
   66.5944   49.1543   57.3913 F   0  0  0  0  0  0  0  0  0  0  0  0
   70.2813   53.9549   56.6461 C   0  0  0  0  0  0  0  0  0  0  0  0
   70.9833   54.3484   55.5022 F   0  0  0  0  0  0  0  0  0  0  0  0
   71.2374   53.6554   57.6041 F   0  0  0  0  0  0  0  0  0  0  0  0
   69.4066   54.9120   57.0551 F   0  0  0  0  0  0  0  0  0  0  0  0
   69.7215   49.9914   53.6067 C   0  0  0  0  0  0  0  0  0  0  0  0
   70.0646   48.5502   53.7584 C   0  0  0  0  0  0  0  0  0  0  0  0
   68.3263   46.7569   53.7255 C   0  0  0  0  0  0  0  0  0  0  0  0
   67.5009   45.9624   52.9605 N   0  0  0  0  0  0  0  0  0  0  0  0
   67.5341   45.9713   51.6369 C   0  0  0  0  0  0  0  0  0  0  0  0
   66.7557   45.2231   50.9477 O   0  0  0  0  0  0  0  0  0  0  0  0
   68.3790   46.7613   50.9892 N   0  0  0  0  0  0  0  0  0  0  0  0
   69.1973   47.5498   51.6936 C   0  0  0  0  0  0  0  0  0  0  0  0
   69.9876   48.2881   51.0687 O   0  0  0  0  0  0  0  0  0  0  0  0
   69.2095   47.5886   53.0925 C   0  0  0  0  0  0  0  0  0  0  0  0
   67.3843   47.0973   55.9275 O   0  0  0  0  0  0  0  0  0  0  0  0
   68.2329   46.6068   55.1553 C   0  0  0  0  0  0  0  0  0  0  0  0
   69.1955   45.8177   55.8095 O   0  0  0  0  0  0  0  0  0  0  0  0
 25 26  2  0
 26 27  1  0
 26 17  1  0
 17 18  1  0
 17 24  2  0
 18 19  1  0
 19 20  2  0
 19 21  1  0
 21 22  1  0
 22 23  2  0
 22 24  1  0
 24 16  1  0
 16 15  1  0
 15  1  1  0
  1  2  2  0
  1  6  1  0
  2  3  1  0
  3  7  1  0
  3  4  2  0
  7  8  1  0
  7  9  1  0
  7 10  1  0
  4  5  1  0
  5 11  1  0
  5  6  2  0
 11 12  1  0
 11 13  1  0
 11 14  1  0
M  END
>  <minimizedAffinity>  (460) 
-8.73781

$$$$
data/reference_output_2/data/smiles/149405.pdb
     RDKit          3D

 28 31  0  0  0  0  0  0  0  0999 V2000
   70.9248   46.3376   58.5368 C   0  0  0  0  0  0  0  0  0  0  0  0
   71.9070   47.0120   59.2599 C   0  0  0  0  0  0  0  0  0  0  0  0
   72.0090   48.3825   59.1676 C   0  0  0  0  0  0  0  0  0  0  0  0
   71.1633   49.1165   58.3755 C   0  0  0  0  0  0  0  0  0  0  0  0
   70.1922   48.4830   57.6548 C   0  0  0  0  0  0  0  0  0  0  0  0
   70.0993   47.1084   57.7552 C   0  0  0  0  0  0  0  0  0  0  0  0
   71.7806   44.1567   58.2020 O   0  0  0  0  0  0  0  0  0  0  0  0
   70.8234   44.8897   58.6377 C   0  0  0  0  0  0  0  0  0  0  0  0
   69.7273   44.1844   59.1925 N   0  0  0  0  0  0  0  0  0  0  0  0
   69.6963   42.7279   59.2606 C   0  0  0  0  0  0  0  0  0  0  0  0
   68.9302   42.1602   58.1112 C   0  0  0  0  0  0  0  0  0  0  0  0
   68.8200   40.7933   57.9672 C   0  0  0  0  0  0  0  0  0  0  0  0
   68.1081   40.2529   56.9057 C   0  0  0  0  0  0  0  0  0  0  0  0
   67.5079   41.0972   55.9910 C   0  0  0  0  0  0  0  0  0  0  0  0
   67.6351   42.4732   56.1618 C   0  0  0  0  0  0  0  0  0  0  0  0
   68.3297   42.9421   57.1980 N   0  0  0  0  0  0  0  0  0  0  0  0
   69.1196   49.3932   56.6532 S   0  0  0  0  0  0  0  0  0  0  0  0
   69.4917   50.8671   56.7501 O   0  0  0  0  0  0  0  0  0  0  0  0
   67.7077   49.2947   57.1553 O   0  0  0  0  0  0  0  0  0  0  0  0
   69.2484   48.9834   54.9808 N   0  0  0  0  0  0  0  0  0  0  0  0
   69.8546   49.8381   53.9819 C   0  0  0  0  0  0  0  0  0  0  0  0
   69.8498   49.0936   52.6906 C   0  0  0  0  0  0  0  0  0  0  0  0
   69.1322   47.8214   52.9825 C   0  0  0  0  0  0  0  0  0  0  0  0
   68.7811   46.7572   52.1840 C   0  0  0  0  0  0  0  0  0  0  0  0
   68.1058   45.6649   52.6869 C   0  0  0  0  0  0  0  0  0  0  0  0
   67.7730   45.6318   54.0227 C   0  0  0  0  0  0  0  0  0  0  0  0
   68.1307   46.7100   54.8227 C   0  0  0  0  0  0  0  0  0  0  0  0
   68.8102   47.8112   54.3208 C   0  0  0  0  0  0  0  0  0  0  0  0
  7  8  2  0
  8  9  1  0
  8  1  1  0
  9 10  1  0
 10 11  1  0
 11 12  2  0
 11 16  1  0
 12 13  1  0
 13 14  2  0
 14 15  1  0
 15 16  2  0
  1  2  2  0
  1  6  1  0
  2  3  1  0
  3  4  2  0
  4  5  1  0
  5 17  1  0
  5  6  2  0
 17 18  2  0
 17 19  2  0
 17 20  1  0
 20 21  1  0
 20 28  1  0
 21 22  1  0
 22 23  1  0
 23 24  1  0
 23 28  2  0
 24 25  2  0
 25 26  1  0
 26 27  2  0
 27 28  1  0
M  END
>  <minimizedAffinity>  (461) 
-8.73754

$$$$
data/reference_output_2/data/smiles/130496.pdb
     RDKit          3D

 25 27  0  0  0  0  0  0  0  0999 V2000
   68.4138   46.0859   54.0985 C   0  0  0  0  0  0  0  0  0  0  0  0
   67.8795   45.6671   52.8989 C   0  0  0  0  0  0  0  0  0  0  0  0
   68.0276   46.4168   51.7433 C   0  0  0  0  0  0  0  0  0  0  0  0
   68.7235   47.6112   51.7848 C   0  0  0  0  0  0  0  0  0  0  0  0
   69.2784   48.0706   52.9734 C   0  0  0  0  0  0  0  0  0  0  0  0
   69.0980   47.2823   54.0873 C   0  0  0  0  0  0  0  0  0  0  0  0
   68.0056   43.9469   55.4099 N   0  0  0  0  0  0  0  0  0  0  0  0
   68.2781   45.3242   55.3319 C   0  0  0  0  0  0  0  0  0  0  0  0
   68.4143   45.9456   56.4141 O   0  0  0  0  0  0  0  0  0  0  0  0
   66.5736   41.6427   55.4471 C   0  0  0  0  0  0  0  0  0  0  0  0
   67.2134   42.1291   56.6898 C   0  0  0  0  0  0  0  0  0  0  0  0
   67.8779   43.2299   56.6045 N   0  0  0  0  0  0  0  0  0  0  0  0
   67.0790   41.3782   57.9349 C   0  0  0  0  0  0  0  0  0  0  0  0
   67.7207   40.1936   58.2485 C   0  0  0  0  0  0  0  0  0  0  0  0
   67.3291   39.7997   59.5226 C   0  0  0  0  0  0  0  0  0  0  0  0
   66.4442   40.8016   59.9194 C   0  0  0  0  0  0  0  0  0  0  0  0
   66.3387   41.6785   58.9749 O   0  0  0  0  0  0  0  0  0  0  0  0
   70.1621   49.5656   53.0743 S   0  0  0  0  0  0  0  0  0  0  0  0
   69.8346   50.3888   51.8731 O   0  0  0  0  0  0  0  0  0  0  0  0
   71.6426   49.2424   53.0573 O   0  0  0  0  0  0  0  0  0  0  0  0
   69.8067   50.4699   54.4748 N   0  0  0  0  0  0  0  0  0  0  0  0
   70.9576   51.2559   54.8383 C   0  0  0  0  0  0  0  0  0  0  0  0
   70.4436   52.4667   55.5822 C   0  0  0  0  0  0  0  0  0  0  0  0
   68.9920   52.5801   55.1798 C   0  0  0  0  0  0  0  0  0  0  0  0
   68.7044   51.3866   54.3031 C   0  0  0  0  0  0  0  0  0  0  0  0
 10 11  1  0
 11 12  2  0
 11 13  1  0
 12  7  1  0
  7  8  1  0
  8  9  2  0
  8  1  1  0
  1  2  2  0
  1  6  1  0
  2  3  1  0
  3  4  2  0
  4  5  1  0
  5 18  1  0
  5  6  2  0
 18 19  2  0
 18 20  2  0
 18 21  1  0
 21 22  1  0
 21 25  1  0
 22 23  1  0
 23 24  1  0
 24 25  1  0
 13 14  2  0
 13 17  1  0
 14 15  1  0
 15 16  2  0
 16 17  1  0
M  END
>  <minimizedAffinity>  (462) 
-8.73678

$$$$
data/200k_reference_output/data/smiles/45750.pdb
     RDKit          3D

 29 33  0  0  0  0  0  0  0  0999 V2000
   70.3709   45.8140   57.8587 C   0  0  0  0  0  0  0  0  0  0  0  0
   69.8915   46.0648   56.6356 N   0  0  0  0  0  0  0  0  0  0  0  0
   69.6465   47.3832   56.4843 C   0  0  0  0  0  0  0  0  0  0  0  0
   69.1539   48.0763   55.4018 C   0  0  0  0  0  0  0  0  0  0  0  0
   69.0121   49.4453   55.5531 C   0  0  0  0  0  0  0  0  0  0  0  0
   69.3513   50.0587   56.7330 C   0  0  0  0  0  0  0  0  0  0  0  0
   69.8446   49.3321   57.8024 C   0  0  0  0  0  0  0  0  0  0  0  0
   69.9942   47.9710   57.6770 C   0  0  0  0  0  0  0  0  0  0  0  0
   70.4328   47.0026   58.5015 N   0  0  0  0  0  0  0  0  0  0  0  0
   68.7900   47.4384   54.1454 C   0  0  0  0  0  0  0  0  0  0  0  0
   69.3336   47.9136   52.9593 C   0  0  0  0  0  0  0  0  0  0  0  0
   68.9972   47.3199   51.7730 C   0  0  0  0  0  0  0  0  0  0  0  0
   68.1310   46.2535   51.6842 C   0  0  0  0  0  0  0  0  0  0  0  0
   67.5929   45.7830   52.8606 C   0  0  0  0  0  0  0  0  0  0  0  0
   67.9229   46.3707   54.0632 C   0  0  0  0  0  0  0  0  0  0  0  0
   70.7633   44.4931   58.4148 C   0  0  0  0  0  0  0  0  0  0  0  0
   67.1986   43.0499   55.6056 O   0  0  0  0  0  0  0  0  0  0  0  0
   68.0836   42.7806   56.4685 C   0  0  0  0  0  0  0  0  0  0  0  0
   68.1702   41.4709   56.8909 C   0  0  0  0  0  0  0  0  0  0  0  0
   69.1320   41.1682   57.8320 C   0  0  0  0  0  0  0  0  0  0  0  0
   69.9425   42.1546   58.2964 N   0  0  0  0  0  0  0  0  0  0  0  0
   69.8564   43.4306   57.8830 C   0  0  0  0  0  0  0  0  0  0  0  0
   68.9115   43.7152   56.9632 N   0  0  0  0  0  0  0  0  0  0  0  0
   69.2810   39.8536   58.3118 N   0  0  0  0  0  0  0  0  0  0  0  0
   68.1334   39.0194   58.5248 C   0  0  0  0  0  0  0  0  0  0  0  0
   68.2724   38.1200   59.7270 C   0  0  0  0  0  0  0  0  0  0  0  0
   69.5735   37.8091   60.0390 O   0  0  0  0  0  0  0  0  0  0  0  0
   70.4460   37.8883   58.9823 C   0  0  0  0  0  0  0  0  0  0  0  0
   70.5895   39.3375   58.5937 C   0  0  0  0  0  0  0  0  0  0  0  0
 17 18  2  0
 18 19  1  0
 18 23  1  0
 19 20  2  0
 20 24  1  0
 20 21  1  0
 24 25  1  0
 24 29  1  0
 25 26  1  0
 26 27  1  0
 27 28  1  0
 28 29  1  0
 21 22  2  0
 22 16  1  0
 22 23  1  0
 16  1  1  0
  1  2  2  0
  1  9  1  0
  2  3  1  0
  3  4  2  0
  3  8  1  0
  4 10  1  0
  4  5  1  0
 10 11  2  0
 10 15  1  0
 11 12  1  0
 12 13  2  0
 13 14  1  0
 14 15  2  0
  5  6  2  0
  6  7  1  0
  7  8  2  0
  8  9  1  0
M  CHG  1   2   1
M  END
>  <minimizedAffinity>  (463) 
-8.73673

$$$$
data/200k_reference_output/data/smiles/26539.pdb
     RDKit          3D

 27 30  0  0  0  0  0  0  0  0999 V2000
   70.2099   44.6360   57.9547 C   0  0  0  0  0  0  0  0  0  0  0  0
   69.8440   44.7142   59.1565 O   0  0  0  0  0  0  0  0  0  0  0  0
   70.1643   45.8184   57.1666 N   0  0  0  0  0  0  0  0  0  0  0  0
   70.6825   43.3213   57.3750 C   0  0  0  0  0  0  0  0  0  0  0  0
   72.8379   39.2238   59.4212 C   0  0  0  0  0  0  0  0  0  0  0  0
   71.4765   39.4556   58.9278 C   0  0  0  0  0  0  0  0  0  0  0  0
   70.4530   38.5452   58.9248 C   0  0  0  0  0  0  0  0  0  0  0  0
   69.1927   38.8302   58.4435 C   0  0  0  0  0  0  0  0  0  0  0  0
   68.9189   40.0831   57.9353 C   0  0  0  0  0  0  0  0  0  0  0  0
   69.9276   41.0155   57.9270 C   0  0  0  0  0  0  0  0  0  0  0  0
   71.1868   40.7093   58.4148 C   0  0  0  0  0  0  0  0  0  0  0  0
   69.6714   42.3303   57.4065 N   0  0  0  0  0  0  0  0  0  0  0  0
   68.3801   42.6629   56.9043 C   0  0  0  0  0  0  0  0  0  0  0  0
   68.1392   43.6875   56.2262 O   0  0  0  0  0  0  0  0  0  0  0  0
   67.2513   41.7536   57.1959 C   0  0  0  0  0  0  0  0  0  0  0  0
   67.6739   40.4299   57.4379 O   0  0  0  0  0  0  0  0  0  0  0  0
   69.7274   47.0951   57.6582 C   0  0  0  0  0  0  0  0  0  0  0  0
   68.6296   47.6686   56.7868 C   0  0  0  0  0  0  0  0  0  0  0  0
   69.1150   48.0502   55.4436 C   0  0  0  0  0  0  0  0  0  0  0  0
   69.9499   49.0626   55.0388 C   0  0  0  0  0  0  0  0  0  0  0  0
   70.0972   49.0028   53.6881 N   0  0  0  0  0  0  0  0  0  0  0  0
   69.3824   47.9797   53.2008 C   0  0  0  0  0  0  0  0  0  0  0  0
   69.1596   47.4524   51.9304 C   0  0  0  0  0  0  0  0  0  0  0  0
   68.3478   46.3610   51.7450 C   0  0  0  0  0  0  0  0  0  0  0  0
   67.7259   45.7490   52.8054 C   0  0  0  0  0  0  0  0  0  0  0  0
   67.9521   46.2816   54.0796 C   0  0  0  0  0  0  0  0  0  0  0  0
   68.7652   47.3747   54.2687 C   0  0  0  0  0  0  0  0  0  0  0  0
  5  6  1  0
  6  7  2  0
  6 11  1  0
  7  8  1  0
  8  9  2  0
  9 10  1  0
  9 16  1  0
 10 11  2  0
 10 12  1  0
 12  4  1  0
 12 13  1  0
  4  1  1  0
  1  2  2  0
  1  3  1  0
  3 17  1  0
 17 18  1  0
 18 19  1  0
 19 20  2  0
 19 27  1  0
 20 21  1  0
 21 22  1  0
 22 23  1  0
 22 27  2  0
 23 24  2  0
 24 25  1  0
 25 26  2  0
 26 27  1  0
 13 14  2  0
 13 15  1  0
 15 16  1  0
M  END
>  <minimizedAffinity>  (464) 
-8.73580

$$$$
data/200k_reference_output/data/smiles/41192.pdb
     RDKit          3D

 27 29  0  0  0  0  0  0  0  0999 V2000
   69.0569   42.9572   57.2650 C   0  0  0  0  0  0  0  0  0  0  0  0
   68.4822   42.2147   56.2256 C   0  0  0  0  0  0  0  0  0  0  0  0
   68.0483   40.9176   56.4908 C   0  0  0  0  0  0  0  0  0  0  0  0
   67.5304   40.2280   55.5869 O   0  0  0  0  0  0  0  0  0  0  0  0
   68.1848   40.3771   57.7405 C   0  0  0  0  0  0  0  0  0  0  0  0
   67.7927   39.0990   58.0683 C   0  0  0  0  0  0  0  0  0  0  0  0
   67.9496   38.5768   59.3354 C   0  0  0  0  0  0  0  0  0  0  0  0
   68.5327   39.3442   60.3465 C   0  0  0  0  0  0  0  0  0  0  0  0
   68.9350   40.6380   60.0286 C   0  0  0  0  0  0  0  0  0  0  0  0
   68.7565   41.1280   58.7470 C   0  0  0  0  0  0  0  0  0  0  0  0
   69.1700   42.4049   58.4483 N   0  0  0  0  0  0  0  0  0  0  0  0
   68.5138   45.1458   56.0984 N   0  0  0  0  0  0  0  0  0  0  0  0
   69.4077   44.3547   56.9142 C   0  0  0  0  0  0  0  0  0  0  0  0
   70.4506   44.9155   57.2808 O   0  0  0  0  0  0  0  0  0  0  0  0
   68.5131   46.9965   54.4150 C   0  0  0  0  0  0  0  0  0  0  0  0
   68.7865   48.3400   54.1491 C   0  0  0  0  0  0  0  0  0  0  0  0
   69.3051   49.2202   55.0545 C   0  0  0  0  0  0  0  0  0  0  0  0
   69.5571   48.6817   56.3256 C   0  0  0  0  0  0  0  0  0  0  0  0
   69.2785   47.3728   56.5660 C   0  0  0  0  0  0  0  0  0  0  0  0
   68.7575   46.4439   55.6912 C   0  0  0  0  0  0  0  0  0  0  0  0
   67.6262   45.4401   52.4216 C   0  0  0  0  0  0  0  0  0  0  0  0
   68.0418   46.1692   53.3685 C   0  0  0  0  0  0  0  0  0  0  0  0
   69.5342   41.4733   61.0200 N   0  0  0  0  0  0  0  0  0  0  0  0
   68.6394   42.5906   61.9420 S   0  0  0  0  0  0  0  0  0  0  0  0
   67.6142   41.9124   63.1927 C   0  0  0  0  0  0  0  0  0  0  0  0
   67.8301   43.5110   61.0627 O   0  0  0  0  0  0  0  0  0  0  0  0
   69.6620   43.5101   62.6463 O   0  0  0  0  0  0  0  0  0  0  0  0
 21 22  3  0
 22 15  1  0
 15 16  2  0
 15 20  1  0
 16 17  1  0
 17 18  2  0
 18 19  1  0
 19 20  2  0
 20 12  1  0
 12 13  1  0
 13 14  2  0
 13  1  1  0
  1  2  2  0
  1 11  1  0
  2  3  1  0
  3  4  2  0
  3  5  1  0
  5  6  2  0
  5 10  1  0
  6  7  1  0
  7  8  2  0
  8  9  1  0
  9 23  1  0
  9 10  2  0
 23 24  1  0
 24 25  1  0
 24 26  2  0
 24 27  2  0
 10 11  1  0
M  END
>  <minimizedAffinity>  (465) 
-8.73549

$$$$
data/reference_output_2/data/smiles/93420.pdb
     RDKit          3D

 27 29  0  0  0  0  0  0  0  0999 V2000
   69.1817   43.2957   56.9513 C   0  0  0  0  0  0  0  0  0  0  0  0
   70.2583   42.7946   57.6140 C   0  0  0  0  0  0  0  0  0  0  0  0
   71.3722   43.5674   57.8461 O   0  0  0  0  0  0  0  0  0  0  0  0
   70.2774   41.4673   58.0861 C   0  0  0  0  0  0  0  0  0  0  0  0
   71.3494   40.9864   58.7394 N   0  0  0  0  0  0  0  0  0  0  0  0
   71.3813   39.7100   59.2001 C   0  0  0  0  0  0  0  0  0  0  0  0
   70.3298   38.8322   59.0309 C   0  0  0  0  0  0  0  0  0  0  0  0
   69.2202   39.3209   58.3583 C   0  0  0  0  0  0  0  0  0  0  0  0
   69.2120   40.6246   57.8985 C   0  0  0  0  0  0  0  0  0  0  0  0
   68.1554   41.1331   57.2429 N   0  0  0  0  0  0  0  0  0  0  0  0
   68.1181   42.3938   56.7853 C   0  0  0  0  0  0  0  0  0  0  0  0
   67.0929   42.8072   56.1765 O   0  0  0  0  0  0  0  0  0  0  0  0
   68.3922   44.9974   55.2303 N   0  0  0  0  0  0  0  0  0  0  0  0
   69.0392   44.6425   56.4207 C   0  0  0  0  0  0  0  0  0  0  0  0
   69.5421   45.6142   57.0853 O   0  0  0  0  0  0  0  0  0  0  0  0
   68.1954   46.2841   54.6581 C   0  0  0  0  0  0  0  0  0  0  0  0
   68.9880   47.0533   52.4460 C   0  0  0  0  0  0  0  0  0  0  0  0
   67.8786   46.3524   53.2148 C   0  0  0  0  0  0  0  0  0  0  0  0
   67.4842   45.1045   52.5165 C   0  0  0  0  0  0  0  0  0  0  0  0
   70.3859   37.4280   59.5480 C   0  0  0  0  0  0  0  0  0  0  0  0
   71.2767   36.5876   58.7263 C   0  0  0  0  0  0  0  0  0  0  0  0
   71.5024   35.2618   59.0023 C   0  0  0  0  0  0  0  0  0  0  0  0
   72.3550   34.4900   58.2016 C   0  0  0  0  0  0  0  0  0  0  0  0
   72.9773   35.0637   57.1237 C   0  0  0  0  0  0  0  0  0  0  0  0
   73.8221   34.3379   56.3138 F   0  0  0  0  0  0  0  0  0  0  0  0
   72.7538   36.3888   56.8453 C   0  0  0  0  0  0  0  0  0  0  0  0
   71.9064   37.1474   57.6435 C   0  0  0  0  0  0  0  0  0  0  0  0
 17 18  1  0
 18 19  1  0
 18 16  1  0
 16 13  1  0
 13 14  1  0
 14 15  2  0
 14  1  1  0
  1  2  2  0
  1 11  1  0
  2  3  1  0
  2  4  1  0
  4  5  2  0
  4  9  1  0
  5  6  1  0
  6  7  2  0
  7 20  1  0
  7  8  1  0
 20 21  1  0
 21 22  2  0
 21 27  1  0
 22 23  1  0
 23 24  2  0
 24 25  1  0
 24 26  1  0
 26 27  2  0
  8  9  2  0
  9 10  1  0
 10 11  1  0
 11 12  2  0
M  END
>  <minimizedAffinity>  (466) 
-8.73510

$$$$
data/reference_output_2/data/smiles/139833.pdb
     RDKit          3D

 23 25  0  0  0  0  0  0  0  0999 V2000
   68.4435   43.7637   56.1328 N   0  0  0  0  0  0  0  0  0  0  0  0
   68.2872   42.5290   56.4491 C   0  0  0  0  0  0  0  0  0  0  0  0
   67.2077   41.6857   55.9507 C   0  0  0  0  0  0  0  0  0  0  0  0
   66.2834   42.0226   55.1397 O   0  0  0  0  0  0  0  0  0  0  0  0
   67.4147   40.4103   56.5671 N   0  0  0  0  0  0  0  0  0  0  0  0
   68.5595   40.4550   57.4047 C   0  0  0  0  0  0  0  0  0  0  0  0
   69.1748   39.4956   58.2123 C   0  0  0  0  0  0  0  0  0  0  0  0
   70.2912   39.7936   58.9343 C   0  0  0  0  0  0  0  0  0  0  0  0
   70.8671   41.0436   58.9092 C   0  0  0  0  0  0  0  0  0  0  0  0
   72.2995   41.3947   59.8527 Cl  0  0  0  0  0  0  0  0  0  0  0  0
   70.2446   41.9832   58.1067 C   0  0  0  0  0  0  0  0  0  0  0  0
   69.1238   41.7179   57.3671 C   0  0  0  0  0  0  0  0  0  0  0  0
   67.6042   44.4734   55.2701 N   0  0  0  0  0  0  0  0  0  0  0  0
   69.2811   47.9822   53.5277 C   0  0  0  0  0  0  0  0  0  0  0  0
   68.7075   47.0077   52.7393 C   0  0  0  0  0  0  0  0  0  0  0  0
   68.1513   45.8626   53.2963 C   0  0  0  0  0  0  0  0  0  0  0  0
   68.1468   45.6475   54.6593 C   0  0  0  0  0  0  0  0  0  0  0  0
   68.7292   46.6399   55.4453 C   0  0  0  0  0  0  0  0  0  0  0  0
   69.2800   47.7740   54.8933 C   0  0  0  0  0  0  0  0  0  0  0  0
   69.9346   49.3803   51.1117 N   0  0  0  0  0  0  0  0  0  0  0  0
   70.0028   49.4386   52.8356 S   0  0  0  0  0  0  0  0  0  0  0  0
   69.2606   50.6158   53.3379 O   0  0  0  0  0  0  0  0  0  0  0  0
   71.4498   49.5635   53.2507 O   0  0  0  0  0  0  0  0  0  0  0  0
 20 21  1  0
 21 22  2  0
 21 23  2  0
 21 14  1  0
 14 15  2  0
 14 19  1  0
 15 16  1  0
 16 17  2  0
 17 13  1  0
 17 18  1  0
 13  1  1  0
  1  2  2  0
  2  3  1  0
  2 12  1  0
  3  4  2  0
  3  5  1  0
  5  6  1  0
  6  7  1  0
  6 12  2  0
  7  8  2  0
  8  9  1  0
  9 10  1  0
  9 11  2  0
 11 12  1  0
 18 19  2  0
M  END
>  <minimizedAffinity>  (467) 
-8.73373

$$$$
data/reference_output_2/data/smiles/178453.pdb
     RDKit          3D

 24 26  0  0  0  0  0  0  0  0999 V2000
   68.4486   42.4276   56.7153 C   0  0  0  0  0  0  0  0  0  0  0  0
   67.7809   40.9366   57.0291 S   0  0  0  0  0  0  0  0  0  0  0  0
   69.7653   44.0883   58.6002 O   0  0  0  0  0  0  0  0  0  0  0  0
   70.4620   43.3542   57.8206 C   0  0  0  0  0  0  0  0  0  0  0  0
   69.8385   42.5151   56.8631 N   0  0  0  0  0  0  0  0  0  0  0  0
   71.8917   43.4467   57.9915 C   0  0  0  0  0  0  0  0  0  0  0  0
   72.4933   44.6598   58.2216 C   0  0  0  0  0  0  0  0  0  0  0  0
   73.8848   44.7444   58.3946 C   0  0  0  0  0  0  0  0  0  0  0  0
   74.6493   43.6038   58.3341 C   0  0  0  0  0  0  0  0  0  0  0  0
   76.4031   43.7363   58.5535 Cl  0  0  0  0  0  0  0  0  0  0  0  0
   74.0623   42.3923   58.1076 C   0  0  0  0  0  0  0  0  0  0  0  0
   72.6812   42.3358   57.9392 C   0  0  0  0  0  0  0  0  0  0  0  0
   67.5424   43.4223   56.3298 N   0  0  0  0  0  0  0  0  0  0  0  0
   67.7218   44.2016   55.1712 N   0  0  0  0  0  0  0  0  0  0  0  0
   68.2814   45.5134   55.2453 C   0  0  0  0  0  0  0  0  0  0  0  0
   68.5807   46.0036   56.4593 N   0  0  0  0  0  0  0  0  0  0  0  0
   69.1231   47.2503   56.6024 C   0  0  0  0  0  0  0  0  0  0  0  0
   69.3441   47.9609   55.5074 N   0  0  0  0  0  0  0  0  0  0  0  0
   69.0670   47.5242   54.2781 C   0  0  0  0  0  0  0  0  0  0  0  0
   69.3150   48.3157   53.1776 C   0  0  0  0  0  0  0  0  0  0  0  0
   69.0136   47.8483   51.9074 C   0  0  0  0  0  0  0  0  0  0  0  0
   68.4660   46.5858   51.7709 C   0  0  0  0  0  0  0  0  0  0  0  0
   68.2099   45.7777   52.8523 C   0  0  0  0  0  0  0  0  0  0  0  0
   68.5104   46.2477   54.1018 C   0  0  0  0  0  0  0  0  0  0  0  0
  3  4  2  0
  4  5  1  0
  4  6  1  0
  5  1  1  0
  1  2  2  0
  1 13  1  0
 13 14  1  0
 14 15  1  0
 15 16  2  0
 15 24  1  0
 16 17  1  0
 17 18  2  0
 18 19  1  0
 19 20  1  0
 19 24  2  0
 20 21  2  0
 21 22  1  0
 22 23  2  0
 23 24  1  0
  6  7  2  0
  6 12  1  0
  7  8  1  0
  8  9  2  0
  9 10  1  0
  9 11  1  0
 11 12  2  0
M  END
>  <minimizedAffinity>  (468) 
-8.73270

$$$$
data/reference_output_2/data/smiles/92900.pdb
     RDKit          3D

 26 28  0  0  0  0  0  0  0  0999 V2000
   68.6284   46.2876   55.4170 C   0  0  0  0  0  0  0  0  0  0  0  0
   67.8859   45.2243   55.0627 N   0  0  0  0  0  0  0  0  0  0  0  0
   67.4957   45.0199   53.8023 C   0  0  0  0  0  0  0  0  0  0  0  0
   67.8714   45.9339   52.8399 C   0  0  0  0  0  0  0  0  0  0  0  0
   67.4082   45.7466   51.1745 Cl  0  0  0  0  0  0  0  0  0  0  0  0
   68.6391   47.0416   53.1781 C   0  0  0  0  0  0  0  0  0  0  0  0
   69.0295   47.9733   52.2360 C   0  0  0  0  0  0  0  0  0  0  0  0
   69.7860   49.0664   52.5690 C   0  0  0  0  0  0  0  0  0  0  0  0
   70.1811   49.2619   53.8759 C   0  0  0  0  0  0  0  0  0  0  0  0
   69.7820   48.3230   54.8029 C   0  0  0  0  0  0  0  0  0  0  0  0
   69.0238   47.2240   54.4816 C   0  0  0  0  0  0  0  0  0  0  0  0
   70.0481   44.3451   56.9645 N   0  0  0  0  0  0  0  0  0  0  0  0
   69.6713   45.6098   57.4519 C   0  0  0  0  0  0  0  0  0  0  0  0
   70.0052   45.9635   58.7900 N   0  0  0  0  0  0  0  0  0  0  0  0
   69.0304   46.4855   56.7534 N   0  0  0  0  0  0  0  0  0  0  0  0
   71.1493   50.6406   54.3617 S   0  0  0  0  0  0  0  0  0  0  0  0
   72.5739   50.2836   54.0650 O   0  0  0  0  0  0  0  0  0  0  0  0
   70.7740   51.7922   53.4259 O   0  0  0  0  0  0  0  0  0  0  0  0
   70.9258   51.1677   55.9316 N   0  0  0  0  0  0  0  0  0  0  0  0
   70.0583   52.2477   56.1707 C   0  0  0  0  0  0  0  0  0  0  0  0
   68.8113   52.2421   55.2415 C   0  0  0  0  0  0  0  0  0  0  0  0
   68.2036   51.2648   56.2204 C   0  0  0  0  0  0  0  0  0  0  0  0
   69.0334   52.0017   57.2874 C   0  0  0  0  0  0  0  0  0  0  0  0
   70.6473   53.5897   56.1386 C   0  0  0  0  0  0  0  0  0  0  0  0
   70.0337   54.5815   56.6610 O   0  0  0  0  0  0  0  0  0  0  0  0
   71.8543   53.8200   55.5533 O   0  0  0  0  0  0  0  0  0  0  0  0
 12 13  1  0
 13 14  1  0
 13 15  2  0
 15  1  1  0
  1  2  2  0
  1 11  1  0
  2  3  1  0
  3  4  2  0
  4  5  1  0
  4  6  1  0
  6  7  1  0
  6 11  2  0
  7  8  2  0
  8  9  1  0
  9 16  1  0
  9 10  2  0
 16 17  2  0
 16 18  2  0
 16 19  1  0
 19 20  1  0
 20 24  1  0
 20 21  1  0
 20 23  1  0
 24 25  2  0
 24 26  1  0
 21 22  1  0
 22 23  1  0
 10 11  1  0
M  CHG  1  15   1
M  END
>  <minimizedAffinity>  (469) 
-8.73186

$$$$
data/200k_reference_output/data/smiles/43315.pdb
     RDKit          3D

 29 33  0  0  0  0  0  0  0  0999 V2000
   74.1790   33.9314   53.7690 C   0  0  0  0  0  0  0  0  0  0  0  0
   73.3945   33.9890   52.6784 N   0  0  0  0  0  0  0  0  0  0  0  0
   72.5488   35.0621   52.8193 C   0  0  0  0  0  0  0  0  0  0  0  0
   72.8337   35.6627   54.0239 C   0  0  0  0  0  0  0  0  0  0  0  0
   73.8337   34.9451   54.5763 N   0  0  0  0  0  0  0  0  0  0  0  0
   76.6084   33.3159   53.6941 C   0  0  0  0  0  0  0  0  0  0  0  0
   75.2173   32.9376   54.0553 C   0  0  0  0  0  0  0  0  0  0  0  0
   73.3780   33.1293   51.5395 C   0  0  0  0  0  0  0  0  0  0  0  0
   74.3714   33.5070   50.4860 C   0  0  0  0  0  0  0  0  0  0  0  0
   74.2016   33.0020   49.2259 C   0  0  0  0  0  0  0  0  0  0  0  0
   75.0758   33.2947   48.2030 C   0  0  0  0  0  0  0  0  0  0  0  0
   76.1505   34.1264   48.4749 C   0  0  0  0  0  0  0  0  0  0  0  0
   77.0500   34.4438   47.4731 C   0  0  0  0  0  0  0  0  0  0  0  0
   78.1244   35.2703   47.7266 C   0  0  0  0  0  0  0  0  0  0  0  0
   78.2634   35.7604   49.0038 C   0  0  0  0  0  0  0  0  0  0  0  0
   77.3728   35.4501   50.0093 C   0  0  0  0  0  0  0  0  0  0  0  0
   76.2795   34.6123   49.7626 C   0  0  0  0  0  0  0  0  0  0  0  0
   75.4078   34.3057   50.7346 N   0  0  0  0  0  0  0  0  0  0  0  0
   74.4128   35.2768   55.8513 C   0  0  0  0  0  0  0  0  0  0  0  0
   73.3729   35.4432   56.9204 C   0  0  0  0  0  0  0  0  0  0  0  0
   72.9680   34.3639   57.6778 C   0  0  0  0  0  0  0  0  0  0  0  0
   72.0227   34.5044   58.6628 C   0  0  0  0  0  0  0  0  0  0  0  0
   71.4914   35.7659   58.8660 C   0  0  0  0  0  0  0  0  0  0  0  0
   70.5343   35.9513   59.8494 C   0  0  0  0  0  0  0  0  0  0  0  0
   69.9795   37.2016   60.0817 C   0  0  0  0  0  0  0  0  0  0  0  0
   70.3995   38.2671   59.3105 C   0  0  0  0  0  0  0  0  0  0  0  0
   71.3516   38.0738   58.3351 C   0  0  0  0  0  0  0  0  0  0  0  0
   71.9171   36.8185   58.0924 C   0  0  0  0  0  0  0  0  0  0  0  0
   72.8350   36.6320   57.1525 N   0  0  0  0  0  0  0  0  0  0  0  0
  6  7  1  0
  7  1  1  0
  1  2  1  0
  1  5  2  0
  2  8  1  0
  2  3  1  0
  8  9  1  0
  9 10  2  0
  9 18  1  0
 10 11  1  0
 11 12  2  0
 12 13  1  0
 12 17  1  0
 13 14  2  0
 14 15  1  0
 15 16  2  0
 16 17  1  0
 17 18  2  0
  3  4  2  0
  4  5  1  0
  5 19  1  0
 19 20  1  0
 20 21  2  0
 20 29  1  0
 21 22  1  0
 22 23  2  0
 23 24  1  0
 23 28  1  0
 24 25  2  0
 25 26  1  0
 26 27  2  0
 27 28  1  0
 28 29  2  0
M  CHG  1   5   1
M  END
>  <minimizedAffinity>  (470) 
-8.73047

$$$$
data/200k_reference_output/data/smiles/61667.pdb
     RDKit          3D

 28 31  0  0  0  0  0  0  0  0999 V2000
   68.0254   45.3685   54.6415 C   0  0  0  0  0  0  0  0  0  0  0  0
   68.3094   45.6637   53.3263 C   0  0  0  0  0  0  0  0  0  0  0  0
   68.7438   46.9061   52.8965 C   0  0  0  0  0  0  0  0  0  0  0  0
   69.0830   47.4567   51.7226 N   0  0  0  0  0  0  0  0  0  0  0  0
   69.4363   48.7184   51.8760 N   0  0  0  0  0  0  0  0  0  0  0  0
   69.3479   49.0754   53.1858 C   0  0  0  0  0  0  0  0  0  0  0  0
   68.9076   47.9205   53.8297 C   0  0  0  0  0  0  0  0  0  0  0  0
   68.6192   47.6125   55.1419 C   0  0  0  0  0  0  0  0  0  0  0  0
   68.1943   46.3768   55.5247 N   0  0  0  0  0  0  0  0  0  0  0  0
   69.6398   50.3610   53.7855 C   0  0  0  0  0  0  0  0  0  0  0  0
   70.9373   50.7130   54.0631 C   0  0  0  0  0  0  0  0  0  0  0  0
   71.2412   51.9315   54.6386 C   0  0  0  0  0  0  0  0  0  0  0  0
   70.2422   52.7966   54.9354 N   0  0  0  0  0  0  0  0  0  0  0  0
   68.9540   52.4666   54.6681 C   0  0  0  0  0  0  0  0  0  0  0  0
   68.6334   51.2414   54.0880 C   0  0  0  0  0  0  0  0  0  0  0  0
   69.1471   43.9304   56.7384 O   0  0  0  0  0  0  0  0  0  0  0  0
   68.1768   43.3840   56.1499 C   0  0  0  0  0  0  0  0  0  0  0  0
   67.5819   44.0838   55.0786 N   0  0  0  0  0  0  0  0  0  0  0  0
   67.7773   42.1145   56.6249 N   0  0  0  0  0  0  0  0  0  0  0  0
   68.4399   41.4439   57.7424 C   0  0  1  0  0  0  0  0  0  0  0  0
   67.8802   41.8129   59.0378 C   0  0  0  0  0  0  0  0  0  0  0  0
   68.5662   42.4680   60.0346 C   0  0  0  0  0  0  0  0  0  0  0  0
   67.9741   42.7794   61.2360 C   0  0  0  0  0  0  0  0  0  0  0  0
   66.6469   42.4296   61.4668 C   0  0  0  0  0  0  0  0  0  0  0  0
   65.9238   41.7711   60.4933 C   0  0  0  0  0  0  0  0  0  0  0  0
   66.5456   41.4742   59.3013 C   0  0  0  0  0  0  0  0  0  0  0  0
   68.4678   39.9833   57.4392 C   0  0  0  0  0  0  0  0  0  0  0  0
   67.9502   39.6707   56.1884 O   0  0  0  0  0  0  0  0  0  0  0  0
 16 17  2  0
 17 18  1  0
 17 19  1  0
 18  1  1  0
  1  2  2  0
  1  9  1  0
  2  3  1  0
  3  4  1  0
  3  7  2  0
  4  5  1  0
  5  6  2  0
  6 10  1  0
  6  7  1  0
 10 11  2  0
 10 15  1  0
 11 12  1  0
 12 13  2  0
 13 14  1  0
 14 15  2  0
  7  8  1  0
  8  9  2  0
 19 20  1  0
 20 27  1  6
 20 21  1  0
 27 28  1  0
 21 22  2  0
 21 26  1  0
 22 23  1  0
 23 24  2  0
 24 25  1  0
 25 26  2  0
M  END
>  <minimizedAffinity>  (471) 
-8.72999

$$$$
data/reference_output_2/data/smiles/191220.pdb
     RDKit          3D

 29 33  0  0  0  0  0  0  0  0999 V2000
   68.4425   43.2090   56.3217 C   0  0  0  0  0  0  0  0  0  0  0  0
   69.5581   43.5942   56.7534 O   0  0  0  0  0  0  0  0  0  0  0  0
   67.7477   44.0524   55.4511 N   0  0  0  0  0  0  0  0  0  0  0  0
   68.2231   45.3242   55.0170 C   0  0  0  0  0  0  0  0  0  0  0  0
   68.5207   46.3561   55.8851 C   0  0  0  0  0  0  0  0  0  0  0  0
   68.9820   47.5814   55.3841 C   0  0  0  0  0  0  0  0  0  0  0  0
   69.1256   47.7224   54.0232 C   0  0  0  0  0  0  0  0  0  0  0  0
   68.8414   46.7265   53.1351 C   0  0  0  0  0  0  0  0  0  0  0  0
   68.3923   45.5405   53.6648 C   0  0  0  0  0  0  0  0  0  0  0  0
   69.1260   47.2709   51.7693 C   0  0  0  0  0  0  0  0  0  0  0  0
   69.5892   48.6477   51.9769 C   0  0  0  0  0  0  0  0  0  0  0  0
   69.9390   49.4825   51.1069 O   0  0  0  0  0  0  0  0  0  0  0  0
   69.5785   48.9020   53.4003 N   0  0  0  0  0  0  0  0  0  0  0  0
   69.9165   50.0457   54.2223 C   0  0  0  0  0  0  0  0  0  0  0  0
   70.3797   49.5546   55.5772 C   0  0  0  0  0  0  0  0  0  0  0  0
   69.3181   48.7149   56.2540 C   0  0  0  0  0  0  0  0  0  0  0  0
   67.3227   41.2049   55.9514 O   0  0  0  0  0  0  0  0  0  0  0  0
   67.9677   41.9037   56.7727 C   0  0  0  0  0  0  0  0  0  0  0  0
   68.1815   41.3769   58.0569 N   0  0  0  0  0  0  0  0  0  0  0  0
   67.7257   40.0877   58.5350 C   0  0  0  0  0  0  0  0  0  0  0  0
   68.8135   39.1249   58.7991 C   0  0  0  0  0  0  0  0  0  0  0  0
   70.0449   39.2696   58.1612 C   0  0  0  0  0  0  0  0  0  0  0  0
   71.0821   38.3954   58.3854 C   0  0  0  0  0  0  0  0  0  0  0  0
   70.9469   37.3354   59.2541 C   0  0  0  0  0  0  0  0  0  0  0  0
   69.7519   37.1788   59.8861 C   0  0  0  0  0  0  0  0  0  0  0  0
   68.6924   38.0659   59.6613 C   0  0  0  0  0  0  0  0  0  0  0  0
   69.9010   36.0366   60.6946 O   0  0  0  0  0  0  0  0  0  0  0  0
   71.0033   35.2792   60.1722 C   0  0  0  0  0  0  0  0  0  0  0  0
   71.8170   36.3127   59.6644 O   0  0  0  0  0  0  0  0  0  0  0  0
 17 18  2  0
 18 19  1  0
 18  1  1  0
 19 20  1  0
 20 21  1  0
 21 22  2  0
 21 26  1  0
 22 23  1  0
 23 24  2  0
 24 25  1  0
 24 29  1  0
 25 26  2  0
 25 27  1  0
 27 28  1  0
 28 29  1  0
  1  2  2  0
  1  3  1  0
  3  4  1  0
  4  5  2  0
  4  9  1  0
  5  6  1  0
  6  7  2  0
  6 16  1  0
  7  8  1  0
  7 13  1  0
  8  9  2  0
  8 10  1  0
 10 11  1  0
 11 12  2  0
 11 13  1  0
 13 14  1  0
 14 15  1  0
 15 16  1  0
M  END
>  <minimizedAffinity>  (472) 
-8.72936

$$$$
data/reference_output_2/data/smiles/196166.pdb
     RDKit          3D

 28 30  0  0  0  0  0  0  0  0999 V2000
   69.1109   47.9193   52.6094 C   0  0  0  0  0  0  0  0  0  0  0  0
   69.1917   47.3953   54.2426 C   0  0  0  0  0  0  0  0  0  0  0  0
   68.6720   46.3609   54.6945 N   0  0  0  0  0  0  0  0  0  0  0  0
   67.9565   45.4527   54.0502 C   0  0  0  0  0  0  0  0  0  0  0  0
   67.7695   45.7058   52.6552 C   0  0  0  0  0  0  0  0  0  0  0  0
   67.0719   44.8891   51.8318 O   0  0  0  0  0  0  0  0  0  0  0  0
   68.3858   46.8394   52.3590 C   0  0  0  0  0  0  0  0  0  0  0  0
   68.1814   47.0749   50.9472 O   0  0  0  0  0  0  0  0  0  0  0  0
   69.9862   49.7967   51.7340 O   0  0  0  0  0  0  0  0  0  0  0  0
   69.8324   48.9968   52.8596 C   0  0  0  0  0  0  0  0  0  0  0  0
   70.5178   49.5833   53.8980 N   0  0  0  0  0  0  0  0  0  0  0  0
   71.2848   50.7988   53.8207 C   0  0  0  0  0  0  0  0  0  0  0  0
   70.6712   51.8109   54.6967 C   0  0  0  0  0  0  0  0  0  0  0  0
   71.5710   52.6076   55.4855 C   0  0  0  0  0  0  0  0  0  0  0  0
   71.1141   53.6015   56.3055 C   0  0  0  0  0  0  0  0  0  0  0  0
   69.7721   53.8741   56.4161 C   0  0  0  0  0  0  0  0  0  0  0  0
   69.3540   54.8904   57.2471 F   0  0  0  0  0  0  0  0  0  0  0  0
   68.9013   53.1397   55.6923 C   0  0  0  0  0  0  0  0  0  0  0  0
   69.3513   52.1158   54.8384 C   0  0  0  0  0  0  0  0  0  0  0  0
   68.4193   51.4231   54.1556 F   0  0  0  0  0  0  0  0  0  0  0  0
   68.7939   46.1247   56.2055 C   0  0  0  0  0  0  0  0  0  0  0  0
   68.8822   47.4639   56.7744 C   0  0  0  0  0  0  0  0  0  0  0  0
   67.8011   48.2767   56.9821 C   0  0  0  0  0  0  0  0  0  0  0  0
   67.9498   49.5508   57.5230 C   0  0  0  0  0  0  0  0  0  0  0  0
   69.1777   50.0528   57.8760 C   0  0  0  0  0  0  0  0  0  0  0  0
   69.2694   51.3032   58.4088 F   0  0  0  0  0  0  0  0  0  0  0  0
   70.2942   49.2437   57.6762 C   0  0  0  0  0  0  0  0  0  0  0  0
   70.1273   48.0065   57.1443 C   0  0  0  0  0  0  0  0  0  0  0  0
  9 10  2  0
 10 11  1  0
 10  1  1  0
 11 12  1  0
 12 13  1  0
 13 14  2  0
 13 19  1  0
 14 15  1  0
 15 16  2  0
 16 17  1  0
 16 18  1  0
 18 19  2  0
 19 20  1  0
  1  2  2  0
  1  7  1  0
  2  3  1  0
  3 21  1  0
  3  4  1  0
 21 22  1  0
 22 23  2  0
 22 28  1  0
 23 24  1  0
 24 25  2  0
 25 26  1  0
 25 27  1  0
 27 28  2  0
  4  5  2  0
  5  6  1  0
  5  7  1  0
  7  8  2  0
M  END
>  <minimizedAffinity>  (473) 
-8.72822

$$$$
data/reference_output_2/data/smiles/187068.pdb
     RDKit          3D

 26 28  0  0  0  0  0  0  0  0999 V2000
   69.0529   46.6110   57.0927 N   0  0  0  0  0  0  0  0  0  0  0  0
   68.7724   47.3999   56.1515 C   0  0  0  0  0  0  0  0  0  0  0  0
   68.7388   47.0227   54.7654 C   0  0  0  0  0  0  0  0  0  0  0  0
   69.2839   47.7289   53.7113 C   0  0  0  0  0  0  0  0  0  0  0  0
   69.0681   47.4234   52.3829 C   0  0  0  0  0  0  0  0  0  0  0  0
   68.2773   46.3662   52.0118 C   0  0  0  0  0  0  0  0  0  0  0  0
   67.7135   45.6354   53.0242 C   0  0  0  0  0  0  0  0  0  0  0  0
   67.9318   45.9491   54.3498 C   0  0  0  0  0  0  0  0  0  0  0  0
   68.4248   48.7658   56.5813 C   0  0  0  0  0  0  0  0  0  0  0  0
   67.3911   48.9642   57.5077 C   0  0  0  0  0  0  0  0  0  0  0  0
   66.9250   50.1854   57.8798 C   0  0  0  0  0  0  0  0  0  0  0  0
   67.4661   51.3355   57.3457 C   0  0  0  0  0  0  0  0  0  0  0  0
   68.4810   51.1616   56.4322 C   0  0  0  0  0  0  0  0  0  0  0  0
   68.9537   49.9120   56.0522 C   0  0  0  0  0  0  0  0  0  0  0  0
   69.8667   44.5304   58.0904 C   0  0  0  0  0  0  0  0  0  0  0  0
   69.9772   45.2364   59.1839 O   0  0  0  0  0  0  0  0  0  0  0  0
   69.3783   45.2805   57.0055 N   0  0  0  0  0  0  0  0  0  0  0  0
   70.2489   43.1497   58.1750 C   0  0  0  0  0  0  0  0  0  0  0  0
   67.6140   42.0053   56.4779 C   0  0  0  0  0  0  0  0  0  0  0  0
   68.0226   40.7853   57.2646 C   0  0  1  0  0  0  0  0  0  0  0  0
   69.4377   40.9600   57.7249 C   0  0  0  0  0  0  0  0  0  0  0  0
   69.4864   42.1029   58.6114 N   0  0  2  0  0  0  0  0  0  0  0  0
   68.5899   42.0882   59.6629 C   0  0  0  0  0  0  0  0  0  0  0  0
   67.7492   40.7831   59.5491 C   0  0  1  0  0  0  0  0  0  0  0  0
   66.6383   40.9718   60.5845 C   0  0  0  0  0  0  0  0  0  0  0  0
   67.1305   40.6784   58.3290 O   0  0  0  0  0  0  0  0  0  0  0  0
 20 19  1  6
 20 21  1  0
 20 26  1  0
 21 22  1  0
 22 18  1  6
 22 23  1  0
 18 15  1  0
 15 16  2  0
 15 17  1  0
 17  1  1  0
  1  2  2  0
  2  3  1  0
  2  9  1  0
  3  4  2  0
  3  8  1  0
  4  5  1  0
  5  6  2  0
  6  7  1  0
  7  8  2  0
  9 10  2  0
  9 14  1  0
 10 11  1  0
 11 12  2  0
 12 13  1  0
 13 14  2  0
 23 24  1  0
 24 25  1  1
 24 26  1  0
M  CHG  1  22   1
M  END
>  <minimizedAffinity>  (474) 
-8.72766

$$$$
data/200k_reference_output/data/smiles/73120.pdb
     RDKit          3D

 27 30  0  0  0  0  0  0  0  0999 V2000
   70.0960   49.0147   53.2711 C   0  0  0  0  0  0  0  0  0  0  0  0
   69.9451   49.1004   51.8796 C   0  0  0  0  0  0  0  0  0  0  0  0
   69.1963   48.0838   51.4253 N   0  0  0  0  0  0  0  0  0  0  0  0
   68.8291   47.3035   52.4560 C   0  0  0  0  0  0  0  0  0  0  0  0
   68.0793   46.1470   52.4881 C   0  0  0  0  0  0  0  0  0  0  0  0
   67.8501   45.4987   53.7008 C   0  0  0  0  0  0  0  0  0  0  0  0
   68.3868   46.0369   54.8588 C   0  0  0  0  0  0  0  0  0  0  0  0
   69.1169   47.1791   54.7693 C   0  0  0  0  0  0  0  0  0  0  0  0
   69.3788   47.8660   53.6038 C   0  0  0  0  0  0  0  0  0  0  0  0
   69.3513   54.4400   56.8185 O   0  0  0  0  0  0  0  0  0  0  0  0
   69.6958   53.3813   56.2000 C   0  0  0  0  0  0  0  0  0  0  0  0
   71.0075   52.8756   56.2866 N   0  0  0  0  0  0  0  0  0  0  0  0
   71.4072   51.7052   55.6105 C   0  0  0  0  0  0  0  0  0  0  0  0
   72.5908   51.2885   55.7148 O   0  0  0  0  0  0  0  0  0  0  0  0
   70.4599   50.9322   54.7628 C   0  0  0  0  0  0  0  0  0  0  0  0
   70.8711   49.8719   54.1182 C   0  0  0  0  0  0  0  0  0  0  0  0
   69.1180   51.4932   54.7032 C   0  0  0  0  0  0  0  0  0  0  0  0
   68.2282   50.9355   54.0162 O   0  0  0  0  0  0  0  0  0  0  0  0
   68.7570   52.6904   55.4113 N   0  0  0  0  0  0  0  0  0  0  0  0
   68.1383   45.3636   56.0517 O   0  0  0  0  0  0  0  0  0  0  0  0
   69.1979   44.5747   56.5828 C   0  0  0  0  0  0  0  0  0  0  0  0
   68.8179   43.1698   56.7501 C   0  0  0  0  0  0  0  0  0  0  0  0
   67.7403   42.6307   56.0748 C   0  0  0  0  0  0  0  0  0  0  0  0
   67.3695   41.3029   56.2236 C   0  0  0  0  0  0  0  0  0  0  0  0
   68.1002   40.4959   57.0737 C   0  0  0  0  0  0  0  0  0  0  0  0
   69.1693   41.0024   57.7526 C   0  0  0  0  0  0  0  0  0  0  0  0
   69.5315   42.3432   57.5920 C   0  0  0  0  0  0  0  0  0  0  0  0
 10 11  2  0
 11 12  1  0
 11 19  1  0
 12 13  1  0
 13 14  2  0
 13 15  1  0
 15 16  2  0
 15 17  1  0
 16  1  1  0
  1  2  2  0
  1  9  1  0
  2  3  1  0
  3  4  1  0
  4  5  1  0
  4  9  2  0
  5  6  2  0
  6  7  1  0
  7 20  1  0
  7  8  2  0
 20 21  1  0
 21 22  1  0
 22 23  2  0
 22 27  1  0
 23 24  1  0
 24 25  2  0
 25 26  1  0
 26 27  2  0
  8  9  1  0
 17 18  2  0
 17 19  1  0
M  END
>  <minimizedAffinity>  (475) 
-8.72732

$$$$
data/reference_output_2/data/smiles/122718.pdb
     RDKit          3D

 29 32  0  0  0  0  0  0  0  0999 V2000
   70.0530   42.9155   59.1277 N   0  0  0  0  0  0  0  0  0  0  0  0
   68.8688   42.6918   59.9197 C   0  0  0  0  0  0  0  0  0  0  0  0
   68.4438   43.5180   60.7525 O   0  0  0  0  0  0  0  0  0  0  0  0
   68.3073   41.4374   59.5984 N   0  0  0  0  0  0  0  0  0  0  0  0
   69.0845   40.8844   58.5265 C   0  0  1  0  0  0  0  0  0  0  0  0
   68.2822   40.7943   57.2471 C   0  0  0  0  0  0  0  0  0  0  0  0
   70.2261   41.7849   58.3068 C   0  0  0  0  0  0  0  0  0  0  0  0
   71.1738   41.5826   57.5347 O   0  0  0  0  0  0  0  0  0  0  0  0
   69.5870   39.5156   58.8473 C   0  0  0  0  0  0  0  0  0  0  0  0
   69.0249   38.7627   59.8585 C   0  0  0  0  0  0  0  0  0  0  0  0
   69.5025   37.4952   60.1428 C   0  0  0  0  0  0  0  0  0  0  0  0
   70.5471   36.9279   59.4424 C   0  0  0  0  0  0  0  0  0  0  0  0
   71.0324   35.6607   59.7196 C   0  0  0  0  0  0  0  0  0  0  0  0
   72.0755   35.0901   59.0228 C   0  0  0  0  0  0  0  0  0  0  0  0
   72.6457   35.8410   58.0038 C   0  0  0  0  0  0  0  0  0  0  0  0
   72.1574   37.1010   57.7345 C   0  0  0  0  0  0  0  0  0  0  0  0
   71.1140   37.6760   58.4286 C   0  0  0  0  0  0  0  0  0  0  0  0
   70.6301   38.9399   58.1525 C   0  0  0  0  0  0  0  0  0  0  0  0
   70.9119   44.0812   59.1619 C   0  0  0  0  0  0  0  0  0  0  0  0
   69.4188   45.0079   57.3111 N   0  0  0  0  0  0  0  0  0  0  0  0
   70.6134   45.0119   58.0523 C   0  0  0  0  0  0  0  0  0  0  0  0
   71.4949   45.8598   57.7598 O   0  0  0  0  0  0  0  0  0  0  0  0
   67.7096   45.8148   52.7645 C   0  0  0  0  0  0  0  0  0  0  0  0
   68.3162   46.3470   54.0127 C   0  0  0  0  0  0  0  0  0  0  0  0
   68.6102   47.6891   54.1274 C   0  0  0  0  0  0  0  0  0  0  0  0
   69.1747   48.0961   55.3274 C   0  0  0  0  0  0  0  0  0  0  0  0
   69.4262   47.2349   56.3296 N   0  0  0  0  0  0  0  0  0  0  0  0
   69.1485   45.9127   56.2432 C   0  0  0  0  0  0  0  0  0  0  0  0
   68.5845   45.4848   55.0541 C   0  0  0  0  0  0  0  0  0  0  0  0
 23 24  1  0
 24 25  2  0
 24 29  1  0
 25 26  1  0
 26 27  2  0
 27 28  1  0
 28 20  1  0
 28 29  2  0
 20 21  1  0
 21 22  2  0
 21 19  1  0
 19  1  1  0
  1  2  1  0
  1  7  1  0
  2  3  2  0
  2  4  1  0
  4  5  1  0
  5  6  1  6
  5  9  1  0
  5  7  1  0
  9 10  2  0
  9 18  1  0
 10 11  1  0
 11 12  2  0
 12 13  1  0
 12 17  1  0
 13 14  2  0
 14 15  1  0
 15 16  2  0
 16 17  1  0
 17 18  2  0
  7  8  2  0
M  END
>  <minimizedAffinity>  (476) 
-8.72569

$$$$
data/reference_output_2/data/smiles/160042.pdb
     RDKit          3D

 25 26  0  0  0  0  0  0  0  0999 V2000
   69.9811   43.1592   57.1706 O   0  0  0  0  0  0  0  0  0  0  0  0
   68.8061   42.7784   56.9399 C   0  0  0  0  0  0  0  0  0  0  0  0
   67.9978   43.7165   56.2290 N   0  0  0  0  0  0  0  0  0  0  0  0
   68.4349   44.9686   55.8026 N   0  0  0  0  0  0  0  0  0  0  0  0
   68.1948   45.4952   54.5044 C   0  0  0  0  0  0  0  0  0  0  0  0
   67.5326   44.7223   53.7345 O   0  0  0  0  0  0  0  0  0  0  0  0
   68.6458   46.7961   54.0521 C   0  0  0  0  0  0  0  0  0  0  0  0
   68.7365   47.8141   54.9692 C   0  0  0  0  0  0  0  0  0  0  0  0
   69.1656   49.0933   54.5968 C   0  0  0  0  0  0  0  0  0  0  0  0
   69.5000   49.3185   53.2706 C   0  0  0  0  0  0  0  0  0  0  0  0
   69.9203   50.5551   52.8788 F   0  0  0  0  0  0  0  0  0  0  0  0
   69.4158   48.3062   52.3270 C   0  0  0  0  0  0  0  0  0  0  0  0
   68.9818   47.0465   52.7521 C   0  0  0  0  0  0  0  0  0  0  0  0
   68.3360   41.4700   57.3806 C   0  0  0  0  0  0  0  0  0  0  0  0
   69.0227   40.9536   58.5915 C   0  0  0  0  0  0  0  0  0  0  0  0
   69.6120   39.6630   58.5722 N   0  0  0  0  0  0  0  0  0  0  0  0
   70.9119   39.1884   58.5238 C   0  0  0  0  0  0  0  0  0  0  0  0
   71.8527   39.9954   58.4851 O   0  0  0  0  0  0  0  0  0  0  0  0
   71.2808   37.7542   58.5145 C   0  0  0  0  0  0  0  0  0  0  0  0
   70.7540   36.9037   59.4635 C   0  0  0  0  0  0  0  0  0  0  0  0
   71.0714   35.5479   59.4951 C   0  0  0  0  0  0  0  0  0  0  0  0
   71.9341   35.0087   58.5648 C   0  0  0  0  0  0  0  0  0  0  0  0
   72.3442   33.2958   58.5929 Cl  0  0  0  0  0  0  0  0  0  0  0  0
   72.4637   35.8490   57.6154 C   0  0  0  0  0  0  0  0  0  0  0  0
   72.1348   37.2145   57.5958 C   0  0  0  0  0  0  0  0  0  0  0  0
  1  2  2  0
  2 14  1  0
  2  3  1  0
 14 15  1  0
 15 16  1  0
 16 17  1  0
 17 18  2  0
 17 19  1  0
 19 20  2  0
 19 25  1  0
 20 21  1  0
 21 22  2  0
 22 23  1  0
 22 24  1  0
 24 25  2  0
  3  4  1  0
  4  5  1  0
  5  6  2  0
  5  7  1  0
  7  8  2  0
  7 13  1  0
  8  9  1  0
  9 10  2  0
 10 11  1  0
 10 12  1  0
 12 13  2  0
M  END
>  <minimizedAffinity>  (477) 
-8.72554

$$$$
data/reference_output_2/data/smiles/180460.pdb
     RDKit          3D

 26 28  0  0  0  0  0  0  0  0999 V2000
   69.8454   49.8041   55.5365 C   0  0  0  0  0  0  0  0  0  0  0  0
   69.5803   49.1351   56.7101 C   0  0  0  0  0  0  0  0  0  0  0  0
   69.1506   47.8066   56.7188 C   0  0  0  0  0  0  0  0  0  0  0  0
   68.9753   47.1174   55.5461 C   0  0  0  0  0  0  0  0  0  0  0  0
   69.2350   47.7731   54.3735 C   0  0  0  0  0  0  0  0  0  0  0  0
   69.0765   47.1318   53.1829 C   0  0  0  0  0  0  0  0  0  0  0  0
   69.3326   47.7680   51.9902 C   0  0  0  0  0  0  0  0  0  0  0  0
   69.7639   49.0929   51.9517 C   0  0  0  0  0  0  0  0  0  0  0  0
   69.9219   49.7368   53.1544 C   0  0  0  0  0  0  0  0  0  0  0  0
   69.6669   49.1034   54.3506 C   0  0  0  0  0  0  0  0  0  0  0  0
   68.5122   45.7083   55.4942 C   0  0  0  0  0  0  0  0  0  0  0  0
   67.7285   45.3238   54.6168 O   0  0  0  0  0  0  0  0  0  0  0  0
   68.9663   44.7720   56.4580 N   0  0  0  0  0  0  0  0  0  0  0  0
   68.6169   43.4138   56.5408 C   0  0  0  0  0  0  0  0  0  0  0  0
   69.2916   42.6294   57.4909 C   0  0  0  0  0  0  0  0  0  0  0  0
   69.0256   41.2906   57.6658 C   0  0  0  0  0  0  0  0  0  0  0  0
   68.0740   40.6440   56.9121 C   0  0  0  0  0  0  0  0  0  0  0  0
   67.4084   41.3961   55.9825 C   0  0  0  0  0  0  0  0  0  0  0  0
   66.4612   40.8118   55.2146 F   0  0  0  0  0  0  0  0  0  0  0  0
   67.6821   42.7670   55.8052 C   0  0  0  0  0  0  0  0  0  0  0  0
   70.2732   51.1284   55.4916 O   0  0  0  0  0  0  0  0  0  0  0  0
   71.5469   51.5318   55.9412 C   0  0  0  0  0  0  0  0  0  0  0  0
   74.0606   50.1585   53.4115 N   0  0  0  0  0  0  0  0  0  0  0  0
   73.0203   50.8993   53.9875 N   0  0  0  0  0  0  0  0  0  0  0  0
   72.6391   50.7491   55.3454 C   0  0  0  0  0  0  0  0  0  0  0  0
   73.2842   49.9093   56.0268 O   0  0  0  0  0  0  0  0  0  0  0  0
 23 24  1  0
 24 25  1  0
 25 26  2  0
 25 22  1  0
 22 21  1  0
 21  1  1  0
  1  2  2  0
  1 10  1  0
  2  3  1  0
  3  4  2  0
  4 11  1  0
  4  5  1  0
 11 12  2  0
 11 13  1  0
 13 14  1  0
 14 15  2  0
 14 20  1  0
 15 16  1  0
 16 17  2  0
 17 18  1  0
 18 19  1  0
 18 20  2  0
  5  6  1  0
  5 10  2  0
  6  7  2  0
  7  8  1  0
  8  9  2  0
  9 10  1  0
M  END
>  <minimizedAffinity>  (478) 
-8.72510

$$$$
data/reference_output_2/data/smiles/177283.pdb
     RDKit          3D

 24 26  0  0  0  0  0  0  0  0999 V2000
   68.9092   47.5753   57.1739 C   0  0  0  0  0  0  0  0  0  0  0  0
   68.4521   48.9684   57.2339 C   0  0  0  0  0  0  0  0  0  0  0  0
   67.1681   49.3862   57.5208 C   0  0  0  0  0  0  0  0  0  0  0  0
   66.8279   50.7086   57.5529 C   0  0  0  0  0  0  0  0  0  0  0  0
   65.6597   51.0430   57.8177 O   0  0  0  0  0  0  0  0  0  0  0  0
   67.7208   51.6247   57.3083 O   0  0  0  0  0  0  0  0  0  0  0  0
   68.9702   51.2971   57.0236 C   0  0  0  0  0  0  0  0  0  0  0  0
   69.8858   52.3273   56.7661 C   0  0  0  0  0  0  0  0  0  0  0  0
   71.1939   52.0238   56.4623 C   0  0  0  0  0  0  0  0  0  0  0  0
   72.3037   53.3572   56.1469 Cl  0  0  0  0  0  0  0  0  0  0  0  0
   71.6227   50.7205   56.4066 C   0  0  0  0  0  0  0  0  0  0  0  0
   70.6984   49.6986   56.6673 C   0  0  0  0  0  0  0  0  0  0  0  0
   69.3778   49.9804   56.9757 C   0  0  0  0  0  0  0  0  0  0  0  0
   68.2074   46.7181   56.2658 N   0  0  0  0  0  0  0  0  0  0  0  0
   69.3091   47.7286   52.9204 C   0  0  0  0  0  0  0  0  0  0  0  0
   68.6885   46.8329   52.0749 C   0  0  0  0  0  0  0  0  0  0  0  0
   67.8770   45.8770   52.6320 C   0  0  0  0  0  0  0  0  0  0  0  0
   67.7069   45.8399   54.0108 C   0  0  0  0  0  0  0  0  0  0  0  0
   68.3153   46.7208   54.8706 C   0  0  0  0  0  0  0  0  0  0  0  0
   69.1412   47.6913   54.2770 C   0  0  0  0  0  0  0  0  0  0  0  0
   69.5249   50.4549   52.0932 N   0  0  0  0  0  0  0  0  0  0  0  0
   70.3461   48.9533   52.1954 S   0  0  0  0  0  0  0  0  0  0  0  0
   70.7082   48.5048   50.8088 O   0  0  0  0  0  0  0  0  0  0  0  0
   71.6057   49.1485   52.9741 O   0  0  0  0  0  0  0  0  0  0  0  0
 21 22  1  0
 22 23  2  0
 22 24  2  0
 22 15  1  0
 15 16  2  0
 15 20  1  0
 16 17  1  0
 17 18  2  0
 18 19  1  0
 19 14  1  0
 19 20  2  0
 14  1  1  0
  1  2  1  0
  2  3  2  0
  2 13  1  0
  3  4  1  0
  4  5  2  0
  4  6  1  0
  6  7  1  0
  7  8  1  0
  7 13  2  0
  8  9  2  0
  9 10  1  0
  9 11  1  0
 11 12  2  0
 12 13  1  0
M  END
>  <minimizedAffinity>  (479) 
-8.72499

$$$$
data/200k_reference_output/data/smiles/83806.pdb
     RDKit          3D

 26 28  0  0  0  0  0  0  0  0999 V2000
   68.6728   48.0475   56.5769 C   0  0  0  0  0  0  0  0  0  0  0  0
   68.9456   48.0040   55.1377 C   0  0  0  0  0  0  0  0  0  0  0  0
   68.6529   46.8860   54.3869 C   0  0  0  0  0  0  0  0  0  0  0  0
   68.7274   46.6674   53.0270 C   0  0  0  0  0  0  0  0  0  0  0  0
   68.1694   45.4762   52.5976 O   0  0  0  0  0  0  0  0  0  0  0  0
   69.2804   47.4806   52.0727 C   0  0  0  0  0  0  0  0  0  0  0  0
   69.4870   46.9738   50.9575 O   0  0  0  0  0  0  0  0  0  0  0  0
   69.6400   48.8118   52.1968 C   0  0  0  0  0  0  0  0  0  0  0  0
   70.0679   49.4020   51.0404 O   0  0  0  0  0  0  0  0  0  0  0  0
   69.6199   49.6157   53.3414 C   0  0  0  0  0  0  0  0  0  0  0  0
   69.5104   49.1720   54.6314 C   0  0  0  0  0  0  0  0  0  0  0  0
   70.0398   49.9798   55.7198 C   0  0  0  0  0  0  0  0  0  0  0  0
   70.6929   51.2723   55.3075 C   0  0  2  0  0  0  0  0  0  0  0  0
   70.0869   51.9238   54.1371 C   0  0  0  0  0  0  0  0  0  0  0  0
   69.7318   51.0236   52.9945 C   0  0  0  0  0  0  0  0  0  0  0  0
   72.1926   51.0611   55.2478 C   0  0  2  0  0  0  0  0  0  0  0  0
   72.9550   52.2604   54.8190 C   0  0  0  0  0  0  0  0  0  0  0  0
   72.4329   50.0987   54.1967 O   0  0  0  0  0  0  0  0  0  0  0  0
   72.6860   50.3697   56.4751 C   0  0  0  0  0  0  0  0  0  0  0  0
   73.7447   49.4384   56.2927 N   0  0  0  0  0  0  0  0  0  0  0  0
   75.0957   49.6912   56.6141 C   0  0  0  0  0  0  0  0  0  0  0  0
   75.6156   49.7878   57.8843 C   0  0  0  0  0  0  0  0  0  0  0  0
   76.9483   50.0594   58.1267 C   0  0  0  0  0  0  0  0  0  0  0  0
   77.8425   50.2490   57.0979 C   0  0  0  0  0  0  0  0  0  0  0  0
   77.3427   50.1549   55.8165 C   0  0  0  0  0  0  0  0  0  0  0  0
   76.0171   49.8861   55.5737 C   0  0  0  0  0  0  0  0  0  0  0  0
  1  2  1  0
  2  3  1  0
  2 11  2  0
  3  4  2  0
  4  5  1  0
  4  6  1  0
  6  7  2  0
  6  8  1  0
  8  9  1  0
  8 10  2  0
 10 11  1  0
 10 15  1  0
 11 12  1  0
 13 12  1  6
 13 16  1  0
 13 14  1  0
 16 17  1  6
 16 18  1  0
 16 19  1  0
 19 20  1  0
 20 21  1  0
 21 22  2  0
 21 26  1  0
 22 23  1  0
 23 24  2  0
 24 25  1  0
 25 26  2  0
 14 15  1  0
M  END
>  <minimizedAffinity>  (480) 
-8.72426

$$$$
data/200k_reference_output/data/smiles/7558.pdb
     RDKit          3D

 27 29  0  0  0  0  0  0  0  0999 V2000
   69.7092   46.7359   57.3592 C   0  0  0  0  0  0  0  0  0  0  0  0
   69.6888   45.3267   57.2084 N   0  0  0  0  0  0  0  0  0  0  0  0
   70.3111   44.3410   58.0017 C   0  0  0  0  0  0  0  0  0  0  0  0
   71.0076   44.6680   58.9697 O   0  0  0  0  0  0  0  0  0  0  0  0
   70.1313   42.9282   57.6760 C   0  0  0  0  0  0  0  0  0  0  0  0
   69.3182   42.1387   58.7074 C   0  0  0  0  0  0  0  0  0  0  0  0
   68.7577   41.4184   57.5924 N   0  0  0  0  0  0  0  0  0  0  0  0
   68.2734   40.1192   57.3688 C   0  0  0  0  0  0  0  0  0  0  0  0
   67.8415   39.8108   56.2356 O   0  0  0  0  0  0  0  0  0  0  0  0
   68.9139   42.6155   56.8115 C   0  0  0  0  0  0  0  0  0  0  0  0
   68.2513   39.0741   58.4427 C   0  0  0  0  0  0  0  0  0  0  0  0
   67.2786   38.1388   58.1843 F   0  0  0  0  0  0  0  0  0  0  0  0
   67.9878   39.6237   59.6784 F   0  0  0  0  0  0  0  0  0  0  0  0
   69.4783   38.4133   58.5011 F   0  0  0  0  0  0  0  0  0  0  0  0
   68.8182   47.4970   56.4801 C   0  0  0  0  0  0  0  0  0  0  0  0
   70.1716   49.7267   53.0889 C   0  0  0  0  0  0  0  0  0  0  0  0
   69.9761   49.2385   51.8154 C   0  0  0  0  0  0  0  0  0  0  0  0
   69.3378   48.0331   51.6194 C   0  0  0  0  0  0  0  0  0  0  0  0
   68.8810   47.2905   52.7169 C   0  0  0  0  0  0  0  0  0  0  0  0
   68.2530   46.0704   52.5034 C   0  0  0  0  0  0  0  0  0  0  0  0
   67.8146   45.3323   53.5765 C   0  0  0  0  0  0  0  0  0  0  0  0
   68.0058   45.8147   54.8438 C   0  0  0  0  0  0  0  0  0  0  0  0
   68.6317   47.0391   55.1184 C   0  0  0  0  0  0  0  0  0  0  0  0
   69.0624   47.7549   54.0001 C   0  0  0  0  0  0  0  0  0  0  0  0
   69.7064   48.9646   54.1459 C   0  0  0  0  0  0  0  0  0  0  0  0
   70.3300   51.7306   54.4079 C   0  0  0  0  0  0  0  0  0  0  0  0
   70.8166   50.9479   53.3341 O   0  0  0  0  0  0  0  0  0  0  0  0
 26 27  1  0
 27 16  1  0
 16 17  2  0
 16 25  1  0
 17 18  1  0
 18 19  2  0
 19 20  1  0
 19 24  1  0
 20 21  2  0
 21 22  1  0
 22 23  2  0
 23 15  1  0
 23 24  1  0
 15  1  1  0
  1  2  1  0
  2  3  1  0
  3  4  2  0
  3  5  1  0
  5  6  1  0
  5 10  1  0
  6  7  1  0
  7  8  1  0
  7 10  1  0
  8  9  2  0
  8 11  1  0
 11 12  1  0
 11 13  1  0
 11 14  1  0
 24 25  2  0
M  END
>  <minimizedAffinity>  (481) 
-8.72381

$$$$
data/reference_output_2/data/smiles/149725.pdb
     RDKit          3D

 25 27  0  0  0  0  0  0  0  0999 V2000
   70.2444   42.7862   57.3206 C   0  0  0  0  0  0  0  0  0  0  0  0
   69.8860   44.0349   56.9465 C   0  0  0  0  0  0  0  0  0  0  0  0
   68.6485   44.3442   56.3855 C   0  0  0  0  0  0  0  0  0  0  0  0
   67.7891   43.2823   56.2298 N   0  0  0  0  0  0  0  0  0  0  0  0
   68.1187   42.0370   56.5912 C   0  0  0  0  0  0  0  0  0  0  0  0
   69.3182   41.7804   57.1278 N   0  0  0  0  0  0  0  0  0  0  0  0
   71.5756   41.8621   59.1958 C   0  0  0  0  0  0  0  0  0  0  0  0
   72.8208   41.5757   59.7586 C   0  0  0  0  0  0  0  0  0  0  0  0
   74.0063   41.8477   59.1138 C   0  0  0  0  0  0  0  0  0  0  0  0
   73.9082   42.4226   57.8725 C   0  0  0  0  0  0  0  0  0  0  0  0
   72.7053   42.7050   57.3126 C   0  0  0  0  0  0  0  0  0  0  0  0
   71.4952   42.4289   57.9635 C   0  0  0  0  0  0  0  0  0  0  0  0
   69.8560   42.4567   60.8417 C   0  0  0  0  0  0  0  0  0  0  0  0
   70.4471   41.5455   59.9487 O   0  0  0  0  0  0  0  0  0  0  0  0
   68.2163   45.6234   56.0033 N   0  0  0  0  0  0  0  0  0  0  0  0
   68.3953   46.1900   54.7339 C   0  0  0  0  0  0  0  0  0  0  0  0
   67.9111   45.4397   53.6518 C   0  0  0  0  0  0  0  0  0  0  0  0
   68.0566   45.8307   52.3424 C   0  0  0  0  0  0  0  0  0  0  0  0
   68.7103   47.0173   52.0928 C   0  0  0  0  0  0  0  0  0  0  0  0
   69.1974   47.7730   53.1683 C   0  0  0  0  0  0  0  0  0  0  0  0
   69.0436   47.3680   54.4851 C   0  0  0  0  0  0  0  0  0  0  0  0
   70.0332   49.2818   52.6913 P   0  0  0  0  0  0  0  0  0  0  0  0
   71.4823   49.2893   53.0401 O   0  0  0  0  0  0  0  0  0  0  0  0
   69.8163   49.4609   51.0018 O   0  0  0  0  0  0  0  0  0  0  0  0
   69.2009   50.6071   53.3925 O   0  0  0  0  0  0  0  0  0  0  0  0
 13 14  1  0
 14  7  1  0
  7  8  2  0
  7 12  1  0
  8  9  1  0
  9 10  2  0
 10 11  1  0
 11 12  2  0
 12  1  1  0
  1  2  2  0
  1  6  1  0
  2  3  1  0
  3 15  1  0
  3  4  2  0
 15 16  1  0
 16 17  2  0
 16 21  1  0
 17 18  1  0
 18 19  2  0
 19 20  1  0
 20 22  1  0
 20 21  2  0
 22 23  2  0
 22 24  1  0
 22 25  1  0
  4  5  1  0
  5  6  2  0
M  END
>  <minimizedAffinity>  (482) 
-8.72370

$$$$
data/200k_reference_output/data/smiles/3567.pdb
     RDKit          3D

 26 29  0  0  0  0  0  0  0  0999 V2000
   71.7365   48.9996   58.0824 C   0  0  0  0  0  0  0  0  0  0  0  0
   71.5822   47.5343   58.2146 C   0  0  1  0  0  0  0  0  0  0  0  0
   71.6326   47.1138   59.6650 C   0  0  0  0  0  0  0  0  0  0  0  0
   71.7685   47.9699   60.5658 O   0  0  0  0  0  0  0  0  0  0  0  0
   71.5205   45.7288   59.9675 N   0  0  0  0  0  0  0  0  0  0  0  0
   70.7992   44.9386   59.0165 C   0  0  0  0  0  0  0  0  0  0  0  0
   70.6992   43.5883   59.2497 C   0  0  0  0  0  0  0  0  0  0  0  0
   70.0456   42.7933   58.3417 C   0  0  0  0  0  0  0  0  0  0  0  0
   69.5106   43.4029   57.2151 C   0  0  0  0  0  0  0  0  0  0  0  0
   68.8680   42.5864   56.3331 F   0  0  0  0  0  0  0  0  0  0  0  0
   69.6186   44.7540   56.9989 C   0  0  0  0  0  0  0  0  0  0  0  0
   70.2676   45.5368   57.9067 C   0  0  0  0  0  0  0  0  0  0  0  0
   70.3749   46.9468   57.6107 N   0  0  0  0  0  0  0  0  0  0  0  0
   69.2266   47.8496   56.8086 S   0  0  0  0  0  0  0  0  0  0  0  0
   67.8566   47.2767   57.0482 O   0  0  0  0  0  0  0  0  0  0  0  0
   69.0077   49.2370   57.4754 O   0  0  0  0  0  0  0  0  0  0  0  0
   69.3796   48.0899   55.0924 C   0  0  0  0  0  0  0  0  0  0  0  0
   70.0860   49.2349   54.6297 C   0  0  0  0  0  0  0  0  0  0  0  0
   70.2241   49.5325   53.3023 C   0  0  0  0  0  0  0  0  0  0  0  0
   69.6829   48.7341   52.3307 C   0  0  0  0  0  0  0  0  0  0  0  0
   68.9887   47.6112   52.7249 C   0  0  0  0  0  0  0  0  0  0  0  0
   68.4478   46.7742   51.7724 C   0  0  0  0  0  0  0  0  0  0  0  0
   67.7772   45.6532   52.1700 C   0  0  0  0  0  0  0  0  0  0  0  0
   67.6752   45.4089   53.5289 C   0  0  0  0  0  0  0  0  0  0  0  0
   68.2026   46.2263   54.4354 N   0  0  0  0  0  0  0  0  0  0  0  0
   68.8551   47.3173   54.1017 C   0  0  0  0  0  0  0  0  0  0  0  0
  2  1  1  1
  2  3  1  0
  2 13  1  0
  3  4  2  0
  3  5  1  0
  5  6  1  0
  6  7  1  0
  6 12  2  0
  7  8  2  0
  8  9  1  0
  9 10  1  0
  9 11  2  0
 11 12  1  0
 12 13  1  0
 13 14  1  0
 14 15  2  0
 14 16  2  0
 14 17  1  0
 17 18  2  0
 17 26  1  0
 18 19  1  0
 19 20  2  0
 20 21  1  0
 21 22  1  0
 21 26  2  0
 22 23  2  0
 23 24  1  0
 24 25  2  0
 25 26  1  0
M  END
>  <minimizedAffinity>  (483) 
-8.72356

$$$$
data/reference_output_2/data/smiles/192166.pdb
     RDKit          3D

 27 29  0  0  0  0  0  0  0  0999 V2000
   69.7322   48.3245   56.4865 C   0  0  0  0  0  0  0  0  0  0  0  0
   69.6811   49.7043   56.2367 C   0  0  0  0  0  0  0  0  0  0  0  0
   70.0448   50.6014   57.1724 C   0  0  0  0  0  0  0  0  0  0  0  0
   70.4755   50.1378   58.4016 C   0  0  0  0  0  0  0  0  0  0  0  0
   70.5246   48.7847   58.6425 C   0  0  0  0  0  0  0  0  0  0  0  0
   70.1482   47.8418   57.6755 C   0  0  0  0  0  0  0  0  0  0  0  0
   70.2360   46.4663   58.0267 C   0  0  0  0  0  0  0  0  0  0  0  0
   70.8112   46.1182   59.1302 O   0  0  0  0  0  0  0  0  0  0  0  0
   69.7416   45.4128   57.2647 N   0  0  0  0  0  0  0  0  0  0  0  0
   69.8612   44.0580   57.6722 N   0  0  0  0  0  0  0  0  0  0  0  0
   69.0427   43.0197   57.1862 C   0  0  0  0  0  0  0  0  0  0  0  0
   68.1648   43.3422   56.3441 O   0  0  0  0  0  0  0  0  0  0  0  0
   69.1581   41.6274   57.5988 C   0  0  0  0  0  0  0  0  0  0  0  0
   70.2657   41.1145   58.2349 C   0  0  0  0  0  0  0  0  0  0  0  0
   70.3354   39.7737   58.6137 C   0  0  0  0  0  0  0  0  0  0  0  0
   69.2913   38.9083   58.3631 C   0  0  0  0  0  0  0  0  0  0  0  0
   68.1811   39.4221   57.7248 C   0  0  0  0  0  0  0  0  0  0  0  0
   68.1234   40.7495   57.3547 C   0  0  0  0  0  0  0  0  0  0  0  0
   69.3339   47.4573   55.4514 O   0  0  0  0  0  0  0  0  0  0  0  0
   68.4905   47.8896   54.4295 C   0  0  0  0  0  0  0  0  0  0  0  0
   70.6538   49.6052   52.9847 C   0  0  0  0  0  0  0  0  0  0  0  0
   69.9817   48.4041   52.4196 C   0  0  0  0  0  0  0  0  0  0  0  0
   70.1690   47.8375   51.2067 N   0  0  0  0  0  0  0  0  0  0  0  0
   69.3911   46.8134   51.1083 O   0  0  0  0  0  0  0  0  0  0  0  0
   68.6764   46.6516   52.2005 C   0  0  0  0  0  0  0  0  0  0  0  0
   67.6786   45.5762   52.4370 C   0  0  0  0  0  0  0  0  0  0  0  0
   69.0262   47.6642   53.0856 C   0  0  0  0  0  0  0  0  0  0  0  0
 21 22  1  0
 22 23  2  0
 22 27  1  0
 23 24  1  0
 24 25  1  0
 25 26  1  0
 25 27  2  0
 27 20  1  0
 20 19  1  0
 19  1  1  0
  1  2  2  0
  1  6  1  0
  2  3  1  0
  3  4  2  0
  4  5  1  0
  5  6  2  0
  6  7  1  0
  7  8  2  0
  7  9  1  0
  9 10  1  0
 10 11  1  0
 11 12  2  0
 11 13  1  0
 13 14  2  0
 13 18  1  0
 14 15  1  0
 15 16  2  0
 16 17  1  0
 17 18  2  0
M  END
>  <minimizedAffinity>  (484) 
-8.72337

$$$$
data/200k_reference_output/data/smiles/68948.pdb
     RDKit          3D

 29 32  0  0  0  0  0  0  0  0999 V2000
   70.2452   48.9191   57.6651 C   0  0  0  0  0  0  0  0  0  0  0  0
   70.1139   47.4498   57.5265 C   0  0  0  0  0  0  0  0  0  0  0  0
   69.2372   46.8408   56.6767 C   0  0  0  0  0  0  0  0  0  0  0  0
   69.1800   45.4738   56.6289 N   0  0  0  0  0  0  0  0  0  0  0  0
   69.9396   44.6694   57.3709 C   0  0  0  0  0  0  0  0  0  0  0  0
   70.8206   45.2741   58.2242 N   0  0  0  0  0  0  0  0  0  0  0  0
   70.9122   46.6111   58.3067 C   0  0  0  0  0  0  0  0  0  0  0  0
   71.7206   47.1848   59.0896 O   0  0  0  0  0  0  0  0  0  0  0  0
   69.8905   43.2619   57.3432 N   0  0  0  0  0  0  0  0  0  0  0  0
   71.0481   42.4761   57.7152 C   0  0  0  0  0  0  0  0  0  0  0  0
   70.7174   41.6043   58.9218 C   0  0  0  0  0  0  0  0  0  0  0  0
   69.3003   41.7531   59.1729 N   0  0  0  0  0  0  0  0  0  0  0  0
   68.3922   41.5043   58.0832 C   0  0  0  0  0  0  0  0  0  0  0  0
   68.6665   42.5220   56.9584 C   0  0  0  0  0  0  0  0  0  0  0  0
   68.8621   42.1525   60.4516 C   0  0  0  0  0  0  0  0  0  0  0  0
   69.5472   41.8842   61.6117 C   0  0  0  0  0  0  0  0  0  0  0  0
   69.0832   42.2793   62.8633 C   0  0  0  0  0  0  0  0  0  0  0  0
   67.8950   42.9623   62.9347 C   0  0  0  0  0  0  0  0  0  0  0  0
   67.2069   43.2335   61.7802 C   0  0  0  0  0  0  0  0  0  0  0  0
   67.6961   42.8335   60.6140 N   0  0  0  0  0  0  0  0  0  0  0  0
   68.3391   47.6014   55.7793 C   0  0  0  0  0  0  0  0  0  0  0  0
   68.7189   47.4722   54.3418 C   0  0  0  0  0  0  0  0  0  0  0  0
   69.5209   48.4607   53.7453 C   0  0  0  0  0  0  0  0  0  0  0  0
   69.8992   49.5166   54.5167 F   0  0  0  0  0  0  0  0  0  0  0  0
   69.9216   48.3896   52.4363 C   0  0  0  0  0  0  0  0  0  0  0  0
   69.5502   47.3354   51.6425 C   0  0  0  0  0  0  0  0  0  0  0  0
   68.7653   46.3502   52.1958 C   0  0  0  0  0  0  0  0  0  0  0  0
   68.3567   46.4232   53.5346 C   0  0  0  0  0  0  0  0  0  0  0  0
   67.5957   45.4095   54.0525 F   0  0  0  0  0  0  0  0  0  0  0  0
  1  2  1  0
  2  3  2  0
  2  7  1  0
  3 21  1  0
  3  4  1  0
 21 22  1  0
 22 23  2  0
 22 28  1  0
 23 24  1  0
 23 25  1  0
 25 26  2  0
 26 27  1  0
 27 28  2  0
 28 29  1  0
  4  5  2  0
  5  9  1  0
  5  6  1  0
  9 10  1  0
  9 14  1  0
 10 11  1  0
 11 12  1  0
 12 15  1  0
 12 13  1  0
 15 16  2  0
 15 20  1  0
 16 17  1  0
 17 18  2  0
 18 19  1  0
 19 20  2  0
 13 14  1  0
  6  7  1  0
  7  8  2  0
M  END
>  <minimizedAffinity>  (485) 
-8.72311

$$$$
data/200k_reference_output/data/smiles/24830.pdb
     RDKit          3D

 29 32  0  0  0  0  0  0  0  0999 V2000
   71.3678   50.9271   57.9502 C   0  0  0  0  0  0  0  0  0  0  0  0
   70.8052   50.1449   56.9188 N   0  0  0  0  0  0  0  0  0  0  0  0
   71.0745   50.2582   55.5167 C   0  0  0  0  0  0  0  0  0  0  0  0
   71.8700   51.1518   55.1525 O   0  0  0  0  0  0  0  0  0  0  0  0
   70.4363   49.3537   54.5443 C   0  0  0  0  0  0  0  0  0  0  0  0
   69.6107   48.3681   54.8890 N   0  0  0  0  0  0  0  0  0  0  0  0
   69.0129   47.5266   54.0189 C   0  0  0  0  0  0  0  0  0  0  0  0
   68.1688   46.5235   54.4138 C   0  0  0  0  0  0  0  0  0  0  0  0
   67.5951   45.7041   53.4835 C   0  0  0  0  0  0  0  0  0  0  0  0
   67.8846   45.9109   52.1543 C   0  0  0  0  0  0  0  0  0  0  0  0
   68.7300   46.9096   51.7193 C   0  0  0  0  0  0  0  0  0  0  0  0
   69.2982   47.7261   52.6704 C   0  0  0  0  0  0  0  0  0  0  0  0
   70.1495   48.7385   52.2858 C   0  0  0  0  0  0  0  0  0  0  0  0
   70.4128   48.9257   51.0673 O   0  0  0  0  0  0  0  0  0  0  0  0
   70.7055   49.5391   53.2434 N   0  0  0  0  0  0  0  0  0  0  0  0
   72.6844   50.6007   58.4785 C   0  0  0  0  0  0  0  0  0  0  0  0
   74.2593   49.0659   56.5761 O   0  0  0  0  0  0  0  0  0  0  0  0
   73.9742   48.5565   57.6738 C   0  0  0  0  0  0  0  0  0  0  0  0
   73.1843   49.3146   58.6068 N   0  0  0  0  0  0  0  0  0  0  0  0
   74.4291   47.2102   58.0178 C   0  0  0  0  0  0  0  0  0  0  0  0
   75.6224   46.9972   58.6785 C   0  0  0  0  0  0  0  0  0  0  0  0
   76.0908   45.7469   59.0233 C   0  0  0  0  0  0  0  0  0  0  0  0
   75.3247   44.6296   58.6910 C   0  0  0  0  0  0  0  0  0  0  0  0
   75.7590   43.3517   59.0195 C   0  0  0  0  0  0  0  0  0  0  0  0
   74.9890   42.2578   58.6842 C   0  0  0  0  0  0  0  0  0  0  0  0
   73.8012   42.4929   58.0250 C   0  0  0  0  0  0  0  0  0  0  0  0
   73.3715   43.7577   57.6999 C   0  0  0  0  0  0  0  0  0  0  0  0
   74.1386   44.8750   58.0324 C   0  0  0  0  0  0  0  0  0  0  0  0
   73.7135   46.1146   57.7117 N   0  0  0  0  0  0  0  0  0  0  0  0
 17 18  2  0
 18 19  1  0
 18 20  1  0
 19 16  1  0
 16  1  1  0
  1  2  1  0
  2  3  1  0
  3  4  2  0
  3  5  1  0
  5  6  2  0
  5 15  1  0
  6  7  1  0
  7  8  2  0
  7 12  1  0
  8  9  1  0
  9 10  2  0
 10 11  1  0
 11 12  2  0
 12 13  1  0
 13 14  2  0
 13 15  1  0
 20 21  2  0
 20 29  1  0
 21 22  1  0
 22 23  2  0
 23 24  1  0
 23 28  1  0
 24 25  2  0
 25 26  1  0
 26 27  2  0
 27 28  1  0
 28 29  2  0
M  END
>  <minimizedAffinity>  (486) 
-8.72301

$$$$
data/200k_reference_output/data/smiles/53821.pdb
     RDKit          3D

 29 32  0  0  0  0  0  0  0  0999 V2000
   68.4159   43.1449   56.2856 C   0  0  0  0  0  0  0  0  0  0  0  0
   69.5480   43.5538   56.6721 O   0  0  0  0  0  0  0  0  0  0  0  0
   67.7024   43.9428   55.3827 N   0  0  0  0  0  0  0  0  0  0  0  0
   68.1735   45.1868   54.8715 C   0  0  0  0  0  0  0  0  0  0  0  0
   68.4984   46.1712   55.7892 C   0  0  0  0  0  0  0  0  0  0  0  0
   68.9725   47.4281   55.3622 C   0  0  0  0  0  0  0  0  0  0  0  0
   69.0974   47.6348   54.0225 C   0  0  0  0  0  0  0  0  0  0  0  0
   68.7865   46.6872   53.0766 C   0  0  0  0  0  0  0  0  0  0  0  0
   68.3195   45.4521   53.5293 C   0  0  0  0  0  0  0  0  0  0  0  0
   69.0579   47.3018   51.7705 C   0  0  0  0  0  0  0  0  0  0  0  0
   69.5531   48.6756   52.0641 C   0  0  0  0  0  0  0  0  0  0  0  0
   69.8898   49.4999   51.1782 O   0  0  0  0  0  0  0  0  0  0  0  0
   69.5591   48.8398   53.4820 N   0  0  0  0  0  0  0  0  0  0  0  0
   69.9318   49.9433   54.3431 C   0  0  0  0  0  0  0  0  0  0  0  0
   70.2011   49.5463   55.7395 C   0  0  0  0  0  0  0  0  0  0  0  0
   69.3232   48.4880   56.3008 C   0  0  0  0  0  0  0  0  0  0  0  0
   68.6422   41.1370   57.8010 N   0  0  0  0  0  0  0  0  0  0  0  0
   67.9533   41.8765   56.8185 C   0  0  0  0  0  0  0  0  0  0  0  0
   66.8734   41.4163   56.3720 O   0  0  0  0  0  0  0  0  0  0  0  0
   68.2065   39.8822   58.3423 C   0  0  0  0  0  0  0  0  0  0  0  0
   68.9636   39.5056   59.6079 C   0  0  0  0  0  0  0  0  0  0  0  0
   69.9132   37.2268   59.8773 C   0  0  0  0  0  0  0  0  0  0  0  0
   70.8387   36.2335   59.5306 C   0  0  0  0  0  0  0  0  0  0  0  0
   71.7889   36.4608   58.5610 C   0  0  0  0  0  0  0  0  0  0  0  0
   71.8053   37.6894   57.9390 C   0  0  0  0  0  0  0  0  0  0  0  0
   70.8859   38.6581   58.2917 C   0  0  0  0  0  0  0  0  0  0  0  0
   69.9312   38.4502   59.2563 C   0  0  0  0  0  0  0  0  0  0  0  0
   69.2855   36.1832   62.0115 C   0  0  0  0  0  0  0  0  0  0  0  0
   69.0003   36.9097   60.8564 O   0  0  0  0  0  0  0  0  0  0  0  0
 28 29  1  0
 29 22  1  0
 22 23  2  0
 22 27  1  0
 23 24  1  0
 24 25  2  0
 25 26  1  0
 26 27  2  0
 27 21  1  0
 21 20  1  0
 20 17  1  0
 17 18  1  0
 18 19  2  0
 18  1  1  0
  1  2  2  0
  1  3  1  0
  3  4  1  0
  4  5  2  0
  4  9  1  0
  5  6  1  0
  6  7  2  0
  6 16  1  0
  7  8  1  0
  7 13  1  0
  8  9  2  0
  8 10  1  0
 10 11  1  0
 11 12  2  0
 11 13  1  0
 13 14  1  0
 14 15  1  0
 15 16  1  0
M  END
>  <minimizedAffinity>  (487) 
-8.72279

$$$$
data/200k_reference_output/data/smiles/38071.pdb
     RDKit          3D

 26 28  0  0  0  0  0  0  0  0999 V2000
   68.5632   45.4622   55.6717 C   0  0  0  0  0  0  0  0  0  0  0  0
   68.3388   46.2541   56.6222 O   0  0  0  0  0  0  0  0  0  0  0  0
   68.8528   44.1179   55.9926 N   0  0  0  0  0  0  0  0  0  0  0  0
   68.9028   43.6244   57.3071 N   0  0  0  0  0  0  0  0  0  0  0  0
   68.3695   42.4916   57.5585 C   0  0  0  0  0  0  0  0  0  0  0  0
   67.6869   41.6321   56.5554 C   0  0  0  0  0  0  0  0  0  0  0  0
   67.9772   40.2442   57.0689 C   0  0  0  0  0  0  0  0  0  0  0  0
   68.0558   40.4415   58.5403 C   0  0  0  0  0  0  0  0  0  0  0  0
   67.9393   39.5538   59.6102 C   0  0  0  0  0  0  0  0  0  0  0  0
   67.6420   37.8688   59.2325 Cl  0  0  0  0  0  0  0  0  0  0  0  0
   68.0575   40.0097   60.9128 C   0  0  0  0  0  0  0  0  0  0  0  0
   68.2914   41.3377   61.2043 C   0  0  0  0  0  0  0  0  0  0  0  0
   68.4031   42.1969   60.1319 C   0  0  0  0  0  0  0  0  0  0  0  0
   68.6368   43.5339   60.3867 O   0  0  0  0  0  0  0  0  0  0  0  0
   68.2887   41.7667   58.8329 C   0  0  0  0  0  0  0  0  0  0  0  0
   69.1205   47.7326   52.7255 C   0  0  0  0  0  0  0  0  0  0  0  0
   68.4095   47.0737   51.7458 C   0  0  0  0  0  0  0  0  0  0  0  0
   67.7466   45.8971   52.0265 C   0  0  0  0  0  0  0  0  0  0  0  0
   67.8043   45.3772   53.3194 C   0  0  0  0  0  0  0  0  0  0  0  0
   68.5034   46.0066   54.3201 C   0  0  0  0  0  0  0  0  0  0  0  0
   69.1448   47.1791   53.9764 C   0  0  0  0  0  0  0  0  0  0  0  0
   69.9679   49.2431   52.3559 S   0  0  0  0  0  0  0  0  0  0  0  0
   71.3892   49.1675   52.8456 O   0  0  0  0  0  0  0  0  0  0  0  0
   69.9853   49.5163   50.9004 O   0  0  0  0  0  0  0  0  0  0  0  0
   70.1390   51.2878   54.0169 C   0  0  0  0  0  0  0  0  0  0  0  0
   69.2175   50.5584   53.2025 N   0  0  0  0  0  0  0  0  0  0  0  0
 25 26  1  0
 26 22  1  0
 22 23  2  0
 22 24  2  0
 22 16  1  0
 16 17  2  0
 16 21  1  0
 17 18  1  0
 18 19  2  0
 19 20  1  0
 20  1  1  0
 20 21  2  0
  1  2  2  0
  1  3  1  0
  3  4  1  0
  4  5  2  0
  5  6  1  0
  5 15  1  0
  6  7  1  0
  7  8  1  0
  8  9  1  0
  8 15  2  0
  9 10  1  0
  9 11  2  0
 11 12  1  0
 12 13  2  0
 13 14  1  0
 13 15  1  0
M  END
>  <minimizedAffinity>  (488) 
-8.72267

$$$$
data/reference_output_2/data/smiles/96950.pdb
     RDKit          3D

 27 29  0  0  0  0  0  0  0  0999 V2000
   72.7087   35.1313   57.3264 C   0  0  0  0  0  0  0  0  0  0  0  0
   72.8262   33.7956   57.5999 C   0  0  0  0  0  0  0  0  0  0  0  0
   72.2103   33.2293   58.7161 C   0  0  0  0  0  0  0  0  0  0  0  0
   71.4844   34.0837   59.5204 C   0  0  0  0  0  0  0  0  0  0  0  0
   71.3650   35.4279   59.2481 C   0  0  0  0  0  0  0  0  0  0  0  0
   70.6470   36.2882   60.0522 C   0  0  0  0  0  0  0  0  0  0  0  0
   70.5353   37.6352   59.7799 C   0  0  0  0  0  0  0  0  0  0  0  0
   71.1384   38.2125   58.6769 C   0  0  0  0  0  0  0  0  0  0  0  0
   71.8679   37.3303   57.8618 C   0  0  0  0  0  0  0  0  0  0  0  0
   71.9760   35.9902   58.1391 C   0  0  0  0  0  0  0  0  0  0  0  0
   73.9335   35.7112   53.7309 C   0  0  0  0  0  0  0  0  0  0  0  0
   73.2648   35.1020   54.8984 C   0  0  0  0  0  0  0  0  0  0  0  0
   72.6240   34.0496   54.7703 O   0  0  0  0  0  0  0  0  0  0  0  0
   73.3457   35.7090   56.1865 N   0  0  0  0  0  0  0  0  0  0  0  0
   71.0494   39.6393   58.3464 C   0  0  0  0  0  0  0  0  0  0  0  0
   69.8128   40.2971   58.8360 C   0  0  0  0  0  0  0  0  0  0  0  0
   69.1240   41.1276   57.8294 C   0  0  0  0  0  0  0  0  0  0  0  0
   69.2560   42.4877   57.7817 C   0  0  0  0  0  0  0  0  0  0  0  0
   68.4605   43.1587   56.8801 N   0  0  0  0  0  0  0  0  0  0  0  0
   67.6107   42.4896   56.0976 C   0  0  0  0  0  0  0  0  0  0  0  0
   66.9093   43.1710   55.2925 O   0  0  0  0  0  0  0  0  0  0  0  0
   67.4886   41.1557   56.1459 N   0  0  0  0  0  0  0  0  0  0  0  0
   68.2303   40.4511   56.9990 C   0  0  0  0  0  0  0  0  0  0  0  0
   68.1314   39.1754   57.0639 O   0  0  0  0  0  0  0  0  0  0  0  0
   70.1938   43.2785   58.5447 C   0  0  0  0  0  0  0  0  0  0  0  0
   69.7320   44.0187   59.4880 O   0  0  0  0  0  0  0  0  0  0  0  0
   71.5570   43.3609   58.4003 O   0  0  0  0  0  0  0  0  0  0  0  0
 11 12  1  0
 12 13  2  0
 12 14  1  0
 14  1  1  0
  1  2  2  0
  1 10  1  0
  2  3  1  0
  3  4  2  0
  4  5  1  0
  5  6  1  0
  5 10  2  0
  6  7  2  0
  7  8  1  0
  8 15  1  0
  8  9  2  0
 15 16  1  0
 16 17  1  0
 17 18  2  0
 17 23  1  0
 18 25  1  0
 18 19  1  0
 25 26  2  0
 25 27  1  0
 19 20  1  0
 20 21  2  0
 20 22  1  0
 22 23  1  0
 23 24  2  0
  9 10  1  0
M  END
>  <minimizedAffinity>  (489) 
-8.72253

$$$$
data/reference_output_2/data/smiles/188729.pdb
     RDKit          3D

 27 29  0  0  0  0  0  0  0  0999 V2000
   70.1849   47.5397   56.9403 N   0  0  0  0  0  0  0  0  0  0  0  0
   69.7293   48.7661   56.4771 C   0  0  0  0  0  0  0  0  0  0  0  0
   69.6870   49.7106   57.3131 O   0  0  0  0  0  0  0  0  0  0  0  0
   69.3056   49.0772   55.1519 N   0  0  0  0  0  0  0  0  0  0  0  0
   69.2593   50.4811   54.7120 C   0  0  0  0  0  0  0  0  0  0  0  0
   70.2230   50.5293   53.5522 C   0  0  0  0  0  0  0  0  0  0  0  0
   71.1283   51.3547   53.5352 O   0  0  0  0  0  0  0  0  0  0  0  0
   69.9546   49.5451   52.5401 N   0  0  0  0  0  0  0  0  0  0  0  0
   69.3320   48.3088   52.8828 C   0  0  0  0  0  0  0  0  0  0  0  0
   69.0295   47.3462   51.9507 C   0  0  0  0  0  0  0  0  0  0  0  0
   68.4016   46.1765   52.3621 C   0  0  0  0  0  0  0  0  0  0  0  0
   68.0672   45.9432   53.6742 C   0  0  0  0  0  0  0  0  0  0  0  0
   68.3718   46.9065   54.6045 C   0  0  0  0  0  0  0  0  0  0  0  0
   69.0047   48.0810   54.1966 C   0  0  0  0  0  0  0  0  0  0  0  0
   70.6183   47.0905   58.1797 C   0  0  0  0  0  0  0  0  0  0  0  0
   71.1557   45.7990   58.5119 C   0  0  0  0  0  0  0  0  0  0  0  0
   69.5456   44.1927   59.4040 O   0  0  0  0  0  0  0  0  0  0  0  0
   70.3805   44.5626   58.5473 C   0  0  0  0  0  0  0  0  0  0  0  0
   70.5213   43.5678   57.5054 N   0  0  0  0  0  0  0  0  0  0  0  0
   69.7917   42.3804   57.5213 C   0  0  0  0  0  0  0  0  0  0  0  0
   68.5612   42.1890   56.9701 C   0  0  0  0  0  0  0  0  0  0  0  0
   67.8714   40.9944   57.0080 C   0  0  0  0  0  0  0  0  0  0  0  0
   68.4327   39.9127   57.6320 C   0  0  0  0  0  0  0  0  0  0  0  0
   67.7518   38.7343   57.6686 F   0  0  0  0  0  0  0  0  0  0  0  0
   69.6842   40.0549   58.2096 C   0  0  0  0  0  0  0  0  0  0  0  0
   70.3631   38.6510   58.9945 Cl  0  0  0  0  0  0  0  0  0  0  0  0
   70.3414   41.2699   58.1487 C   0  0  0  0  0  0  0  0  0  0  0  0
 17 18  2  0
 18 16  1  0
 18 19  1  0
 16 15  1  0
 15  1  1  0
  1  2  1  0
  2  3  2  0
  2  4  1  0
  4  5  1  0
  4 14  1  0
  5  6  1  0
  6  7  2  0
  6  8  1  0
  8  9  1  0
  9 10  2  0
  9 14  1  0
 10 11  1  0
 11 12  2  0
 12 13  1  0
 13 14  2  0
 19 20  1  0
 20 21  2  0
 20 27  1  0
 21 22  1  0
 22 23  2  0
 23 24  1  0
 23 25  1  0
 25 26  1  0
 25 27  2  0
M  END
>  <minimizedAffinity>  (490) 
-8.72065

$$$$
data/reference_output_2/data/smiles/178657.pdb
     RDKit          3D

 26 28  0  0  0  0  0  0  0  0999 V2000
   70.0259   45.5323   58.9047 O   0  0  0  0  0  0  0  0  0  0  0  0
   69.8722   44.6136   58.0455 C   0  0  0  0  0  0  0  0  0  0  0  0
   69.4303   45.0109   56.7767 N   0  0  0  0  0  0  0  0  0  0  0  0
   69.0945   46.6442   56.3412 S   0  0  0  0  0  0  0  0  0  0  0  0
   70.2208   47.5610   56.7188 O   0  0  0  0  0  0  0  0  0  0  0  0
   67.8360   47.1254   57.0503 O   0  0  0  0  0  0  0  0  0  0  0  0
   68.7655   46.6999   54.6293 C   0  0  0  0  0  0  0  0  0  0  0  0
   68.0128   45.6874   54.0757 C   0  0  0  0  0  0  0  0  0  0  0  0
   67.7137   45.6668   52.7312 C   0  0  0  0  0  0  0  0  0  0  0  0
   68.1693   46.6653   51.9241 C   0  0  0  0  0  0  0  0  0  0  0  0
   67.8492   46.6034   50.6018 F   0  0  0  0  0  0  0  0  0  0  0  0
   68.9155   47.6682   52.4734 C   0  0  0  0  0  0  0  0  0  0  0  0
   69.2312   47.7162   53.8156 C   0  0  0  0  0  0  0  0  0  0  0  0
   70.1692   43.2425   58.4598 C   0  0  0  0  0  0  0  0  0  0  0  0
   69.8013   42.1728   57.7883 C   0  0  0  0  0  0  0  0  0  0  0  0
   70.0816   40.7961   58.1750 C   0  0  0  0  0  0  0  0  0  0  0  0
   69.0127   39.9608   58.4377 C   0  0  0  0  0  0  0  0  0  0  0  0
   69.1772   38.6395   58.8121 C   0  0  0  0  0  0  0  0  0  0  0  0
   70.4382   38.0994   58.9376 C   0  0  0  0  0  0  0  0  0  0  0  0
   71.5179   38.9174   58.6787 C   0  0  0  0  0  0  0  0  0  0  0  0
   71.3219   40.2481   58.3036 C   0  0  0  0  0  0  0  0  0  0  0  0
   72.8545   38.5696   58.7482 O   0  0  0  0  0  0  0  0  0  0  0  0
   73.3981   37.2843   59.0717 C   0  0  0  0  0  0  0  0  0  0  0  0
   72.6130   36.2073   58.3299 C   0  0  0  0  0  0  0  0  0  0  0  0
   71.4598   35.7695   59.2013 C   0  0  0  0  0  0  0  0  0  0  0  0
   70.4615   36.7662   59.3175 O   0  0  0  0  0  0  0  0  0  0  0  0
  1  2  2  0
  2 14  1  0
  2  3  1  0
 14 15  2  0
 15 16  1  0
 16 17  2  0
 16 21  1  0
 17 18  1  0
 18 19  2  0
 19 20  1  0
 19 26  1  0
 20 21  2  0
 20 22  1  0
 22 23  1  0
 23 24  1  0
 24 25  1  0
 25 26  1  0
  3  4  1  0
  4  5  2  0
  4  6  2  0
  4  7  1  0
  7  8  2  0
  7 13  1  0
  8  9  1  0
  9 10  2  0
 10 11  1  0
 10 12  1  0
 12 13  2  0
M  END
>  <minimizedAffinity>  (491) 
-8.71955

$$$$
data/reference_output_2/data/smiles/127155.pdb
     RDKit          3D

 27 30  0  0  0  0  0  0  0  0999 V2000
   71.2224   47.3571   58.6713 C   0  0  0  0  0  0  0  0  0  0  0  0
   71.0879   45.9855   58.5643 C   0  0  0  0  0  0  0  0  0  0  0  0
   70.2287   45.3651   57.6660 C   0  0  0  0  0  0  0  0  0  0  0  0
   69.5084   46.2187   56.8743 C   0  0  0  0  0  0  0  0  0  0  0  0
   69.6154   47.5930   56.9500 N   0  0  0  0  0  0  0  0  0  0  0  0
   70.4632   48.1406   57.8414 C   0  0  0  0  0  0  0  0  0  0  0  0
   70.5262   49.3941   57.8834 O   0  0  0  0  0  0  0  0  0  0  0  0
   74.1434   49.1980   60.4630 C   0  0  0  0  0  0  0  0  0  0  0  0
   73.2867   48.6908   59.4054 N   0  0  0  0  0  0  0  0  0  0  0  0
   72.1405   47.9125   59.6310 C   0  0  0  0  0  0  0  0  0  0  0  0
   71.9136   47.6861   60.8792 O   0  0  0  0  0  0  0  0  0  0  0  0
   70.1406   43.9133   57.6095 C   0  0  0  0  0  0  0  0  0  0  0  0
   71.1404   43.1847   57.8231 O   0  0  0  0  0  0  0  0  0  0  0  0
   68.9098   43.2933   57.3093 N   0  0  0  0  0  0  0  0  0  0  0  0
   68.7799   41.8321   57.2417 C   0  0  0  0  0  0  0  0  0  0  0  0
   67.6672   41.2992   56.3521 C   0  0  0  0  0  0  0  0  0  0  0  0
   67.6129   41.1950   57.8515 C   0  0  0  0  0  0  0  0  0  0  0  0
   68.7925   48.3145   55.9983 C   0  0  0  0  0  0  0  0  0  0  0  0
   69.1895   48.1915   54.5967 C   0  0  0  0  0  0  0  0  0  0  0  0
   70.1294   49.1234   54.1118 C   0  0  0  0  0  0  0  0  0  0  0  0
   70.4981   49.1114   52.7987 C   0  0  0  0  0  0  0  0  0  0  0  0
   69.9664   48.1881   51.9046 C   0  0  0  0  0  0  0  0  0  0  0  0
   69.0496   47.2692   52.3568 C   0  0  0  0  0  0  0  0  0  0  0  0
   68.4233   46.3156   51.7287 O   0  0  0  0  0  0  0  0  0  0  0  0
   67.6375   45.6621   52.5426 C   0  0  0  0  0  0  0  0  0  0  0  0
   67.7835   46.2601   53.8007 C   0  0  0  0  0  0  0  0  0  0  0  0
   68.6853   47.2946   53.6944 C   0  0  0  0  0  0  0  0  0  0  0  0
  8  9  1  0
  9 10  1  0
 10 11  2  0
 10  1  1  0
  1  2  2  0
  1  6  1  0
  2  3  1  0
  3 12  1  0
  3  4  2  0
 12 13  2  0
 12 14  1  0
 14 15  1  0
 15 16  1  0
 15 17  1  0
 16 17  1  0
  4  5  1  0
  5 18  1  0
  5  6  1  0
 18 19  1  0
 19 20  2  0
 19 27  1  0
 20 21  1  0
 21 22  2  0
 22 23  1  0
 23 24  1  0
 23 27  2  0
 24 25  1  0
 25 26  2  0
 26 27  1  0
  6  7  2  0
M  END
>  <minimizedAffinity>  (492) 
-8.71751

$$$$
data/reference_output_2/data/smiles/147843.pdb
     RDKit          3D

 26 28  0  0  0  0  0  0  0  0999 V2000
   68.5348   45.8312   54.8525 C   0  0  0  0  0  0  0  0  0  0  0  0
   68.9866   46.8575   55.6538 C   0  0  0  0  0  0  0  0  0  0  0  0
   69.0783   46.6290   56.9782 F   0  0  0  0  0  0  0  0  0  0  0  0
   69.3324   48.0878   55.0813 C   0  0  0  0  0  0  0  0  0  0  0  0
   69.7741   49.0835   55.8880 F   0  0  0  0  0  0  0  0  0  0  0  0
   69.2326   48.3042   53.7199 C   0  0  0  0  0  0  0  0  0  0  0  0
   68.7837   47.2807   52.9316 C   0  0  0  0  0  0  0  0  0  0  0  0
   68.6875   47.4995   51.5928 F   0  0  0  0  0  0  0  0  0  0  0  0
   68.4375   46.0526   53.4962 C   0  0  0  0  0  0  0  0  0  0  0  0
   67.9951   45.0514   52.7012 F   0  0  0  0  0  0  0  0  0  0  0  0
   68.1662   42.5809   56.4395 C   0  0  0  0  0  0  0  0  0  0  0  0
   68.8517   43.7503   56.1937 C   0  0  0  0  0  0  0  0  0  0  0  0
   68.1612   44.5494   55.3447 N   0  0  0  0  0  0  0  0  0  0  0  0
   67.0467   43.8659   55.0701 N   0  0  0  0  0  0  0  0  0  0  0  0
   67.0407   42.7025   55.7110 N   0  0  0  0  0  0  0  0  0  0  0  0
   69.6210   38.0837   59.7676 C   0  0  0  0  0  0  0  0  0  0  0  0
   69.2402   39.2412   58.9042 C   0  0  0  0  0  0  0  0  0  0  0  0
   68.2035   39.1710   57.9986 C   0  0  0  0  0  0  0  0  0  0  0  0
   67.8688   40.2581   57.2097 C   0  0  0  0  0  0  0  0  0  0  0  0
   68.5458   41.4559   57.2862 C   0  0  0  0  0  0  0  0  0  0  0  0
   69.5811   41.5264   58.1920 C   0  0  0  0  0  0  0  0  0  0  0  0
   69.9246   40.4338   58.9907 C   0  0  0  0  0  0  0  0  0  0  0  0
   69.6716   49.8491   53.0397 S   0  0  0  0  0  0  0  0  0  0  0  0
   69.7195   49.7387   51.3094 N   0  0  0  0  0  0  0  0  0  0  0  0
   71.0558   50.2004   53.5101 O   0  0  0  0  0  0  0  0  0  0  0  0
   68.7523   50.9392   53.4662 O   0  0  0  0  0  0  0  0  0  0  0  0
 16 17  1  0
 17 18  2  0
 17 22  1  0
 18 19  1  0
 19 20  2  0
 20 11  1  0
 20 21  1  0
 11 12  2  0
 11 15  1  0
 12 13  1  0
 13  1  1  0
 13 14  1  0
  1  2  2  0
  1  9  1  0
  2  3  1  0
  2  4  1  0
  4  5  1  0
  4  6  2  0
  6 23  1  0
  6  7  1  0
 23 24  1  0
 23 25  2  0
 23 26  2  0
  7  8  1  0
  7  9  2  0
  9 10  1  0
 14 15  2  0
 21 22  2  0
M  END
>  <minimizedAffinity>  (493) 
-8.71674

$$$$
data/reference_output_2/data/smiles/161179.pdb
     RDKit          3D

 27 30  0  0  0  0  0  0  0  0999 V2000
   71.3164   47.0956   58.7541 C   0  0  0  0  0  0  0  0  0  0  0  0
   72.0690   48.1460   59.2343 C   0  0  0  0  0  0  0  0  0  0  0  0
   71.7380   49.4499   58.9392 C   0  0  0  0  0  0  0  0  0  0  0  0
   70.6186   49.7202   58.1384 C   0  0  0  0  0  0  0  0  0  0  0  0
   69.8839   48.6630   57.6718 C   0  0  0  0  0  0  0  0  0  0  0  0
   70.2624   47.3896   57.9987 N   0  0  0  0  0  0  0  0  0  0  0  0
   71.5672   45.2976   60.2517 O   0  0  0  0  0  0  0  0  0  0  0  0
   71.6979   45.7178   59.0926 C   0  0  0  0  0  0  0  0  0  0  0  0
   72.2239   44.8166   58.1317 N   0  0  0  0  0  0  0  0  0  0  0  0
   72.6095   43.4613   58.4232 C   0  0  0  0  0  0  0  0  0  0  0  0
   73.9539   43.0835   57.9155 C   0  0  0  0  0  0  0  0  0  0  0  0
   74.4168   41.8800   58.7264 C   0  0  0  0  0  0  0  0  0  0  0  0
   73.2377   41.1519   59.3352 C   0  0  0  0  0  0  0  0  0  0  0  0
   72.0505   41.0899   58.4052 C   0  0  0  0  0  0  0  0  0  0  0  0
   71.5707   42.4573   57.9725 C   0  0  0  0  0  0  0  0  0  0  0  0
   68.6760   48.8534   56.8277 C   0  0  0  0  0  0  0  0  0  0  0  0
   68.5237   47.8344   55.7818 C   0  0  0  0  0  0  0  0  0  0  0  0
   67.9803   46.6457   56.1009 N   0  0  0  0  0  0  0  0  0  0  0  0
   67.7842   45.6779   55.2353 N   0  0  0  0  0  0  0  0  0  0  0  0
   68.1198   45.8297   53.9674 C   0  0  0  0  0  0  0  0  0  0  0  0
   67.9450   44.9167   53.0999 O   0  0  0  0  0  0  0  0  0  0  0  0
   68.6924   47.0292   53.5341 C   0  0  0  0  0  0  0  0  0  0  0  0
   68.8874   48.0151   54.4465 C   0  0  0  0  0  0  0  0  0  0  0  0
   69.5098   49.3076   54.0651 C   0  0  0  0  0  0  0  0  0  0  0  0
   70.5076   49.0235   52.9544 C   0  0  0  0  0  0  0  0  0  0  0  0
   69.8636   48.3697   51.7775 C   0  0  0  0  0  0  0  0  0  0  0  0
   69.0492   47.1796   52.1125 C   0  0  0  0  0  0  0  0  0  0  0  0
  7  8  2  0
  8  9  1  0
  8  1  1  0
  9 10  1  0
 10 11  1  0
 10 15  1  0
 11 12  1  0
 12 13  1  0
 13 14  1  0
 14 15  1  0
  1  2  2  0
  1  6  1  0
  2  3  1  0
  3  4  2  0
  4  5  1  0
  5 16  1  0
  5  6  2  0
 16 17  1  0
 17 18  2  0
 17 23  1  0
 18 19  1  0
 19 20  1  0
 20 21  2  0
 20 22  1  0
 22 23  2  0
 22 27  1  0
 23 24  1  0
 24 25  1  0
 25 26  1  0
 26 27  1  0
M  END
>  <minimizedAffinity>  (494) 
-8.71661

$$$$
data/200k_reference_output/data/smiles/70472.pdb
     RDKit          3D

 27 29  0  0  0  0  0  0  0  0999 V2000
   74.9695   34.9735   53.4698 C   0  0  0  0  0  0  0  0  0  0  0  0
   75.5327   35.0383   54.7267 C   0  0  0  0  0  0  0  0  0  0  0  0
   74.7790   35.2615   55.8701 C   0  0  0  0  0  0  0  0  0  0  0  0
   73.4158   35.4322   55.8149 C   0  0  0  0  0  0  0  0  0  0  0  0
   72.8242   35.3722   54.5754 C   0  0  0  0  0  0  0  0  0  0  0  0
   73.5682   35.1519   53.4436 C   0  0  0  0  0  0  0  0  0  0  0  0
   72.6329   35.6653   57.0315 C   0  0  0  0  0  0  0  0  0  0  0  0
   72.2795   36.9522   57.3194 N   0  0  0  0  0  0  0  0  0  0  0  0
   71.5636   37.2894   58.4050 C   0  0  0  0  0  0  0  0  0  0  0  0
   71.1554   36.3121   59.2862 C   0  0  0  0  0  0  0  0  0  0  0  0
   71.5134   35.0147   58.9927 C   0  0  0  0  0  0  0  0  0  0  0  0
   71.1406   34.1289   59.7960 O   0  0  0  0  0  0  0  0  0  0  0  0
   72.2410   34.7191   57.8783 N   0  0  0  0  0  0  0  0  0  0  0  0
   70.3785   36.6489   60.4703 C   0  0  0  0  0  0  0  0  0  0  0  0
   69.1401   36.8304   60.3959 O   0  0  0  0  0  0  0  0  0  0  0  0
   70.9493   36.7880   61.7262 O   0  0  0  0  0  0  0  0  0  0  0  0
   72.9346   35.0892   52.1431 C   0  0  0  0  0  0  0  0  0  0  0  0
   72.4191   35.0215   51.1028 N   0  0  0  0  0  0  0  0  0  0  0  0
   75.6085   34.7608   52.3041 O   0  0  0  0  0  0  0  0  0  0  0  0
   76.7764   35.1735   51.7456 C   0  0  0  0  0  0  0  0  0  0  0  0
   77.3787   34.6099   46.0234 C   0  0  0  0  0  0  0  0  0  0  0  0
   77.1783   34.7065   47.4922 C   0  0  0  0  0  0  0  0  0  0  0  0
   78.0088   35.5768   48.1803 C   0  0  0  0  0  0  0  0  0  0  0  0
   77.8735   35.7129   49.5405 C   0  0  0  0  0  0  0  0  0  0  0  0
   76.9541   35.0377   50.2939 C   0  0  0  0  0  0  0  0  0  0  0  0
   76.1231   34.1600   49.5687 C   0  0  0  0  0  0  0  0  0  0  0  0
   76.2513   34.0159   48.2040 C   0  0  0  0  0  0  0  0  0  0  0  0
 21 22  1  0
 22 23  2  0
 22 27  1  0
 23 24  1  0
 24 25  2  0
 25 20  1  0
 25 26  1  0
 20 19  1  0
 19  1  1  0
  1  2  2  0
  1  6  1  0
  2  3  1  0
  3  4  2  0
  4  7  1  0
  4  5  1  0
  7  8  2  0
  7 13  1  0
  8  9  1  0
  9 10  2  0
 10 14  1  0
 10 11  1  0
 14 15  2  0
 14 16  1  0
 11 12  2  0
 11 13  1  0
  5  6  2  0
  6 17  1  0
 17 18  3  0
 26 27  2  0
M  END
>  <minimizedAffinity>  (495) 
-8.71654

$$$$
data/reference_output_2/data/smiles/118706.pdb
     RDKit          3D

 26 29  0  0  0  0  0  0  0  0999 V2000
   70.9265   49.9174   58.0557 C   0  0  0  0  0  0  0  0  0  0  0  0
   69.7488   50.0176   57.0935 C   0  0  0  0  0  0  0  0  0  0  0  0
   70.5900   49.2726   56.1730 N   0  0  0  0  0  0  0  0  0  0  0  0
   71.6982   50.0308   56.7340 C   0  0  0  0  0  0  0  0  0  0  0  0
   71.2491   46.3440   58.6638 C   0  0  0  0  0  0  0  0  0  0  0  0
   71.4116   46.8502   59.8914 N   0  0  0  0  0  0  0  0  0  0  0  0
   71.3212   48.1605   59.8429 O   0  0  0  0  0  0  0  0  0  0  0  0
   71.1024   48.5435   58.6157 C   0  0  0  0  0  0  0  0  0  0  0  0
   71.0565   47.4109   57.8761 N   0  0  0  0  0  0  0  0  0  0  0  0
   68.9101   42.1557   57.2323 C   0  0  0  0  0  0  0  0  0  0  0  0
   70.1580   42.9047   57.5898 C   0  0  0  0  0  0  0  0  0  0  0  0
   71.3517   42.2169   57.5471 C   0  0  0  0  0  0  0  0  0  0  0  0
   72.5004   42.9038   57.8751 C   0  0  0  0  0  0  0  0  0  0  0  0
   72.4707   44.2344   58.2361 C   0  0  0  0  0  0  0  0  0  0  0  0
   71.2768   44.9471   58.2855 C   0  0  0  0  0  0  0  0  0  0  0  0
   70.1427   44.2330   57.9516 C   0  0  0  0  0  0  0  0  0  0  0  0
   70.2871   49.5525   54.5128 S   0  0  0  0  0  0  0  0  0  0  0  0
   71.6027   49.6982   53.8171 O   0  0  0  0  0  0  0  0  0  0  0  0
   69.4777   50.7851   54.2862 O   0  0  0  0  0  0  0  0  0  0  0  0
   69.4243   48.2013   53.8118 C   0  0  0  0  0  0  0  0  0  0  0  0
   69.3933   47.9538   52.4538 C   0  0  0  0  0  0  0  0  0  0  0  0
   68.7145   46.8888   51.8947 C   0  0  0  0  0  0  0  0  0  0  0  0
   68.0301   46.0208   52.7084 C   0  0  0  0  0  0  0  0  0  0  0  0
   67.3647   44.9743   52.1475 F   0  0  0  0  0  0  0  0  0  0  0  0
   68.0323   46.2283   54.0738 C   0  0  0  0  0  0  0  0  0  0  0  0
   68.7180   47.2994   54.6102 C   0  0  0  0  0  0  0  0  0  0  0  0
 10 11  1  0
 11 12  2  0
 11 16  1  0
 12 13  1  0
 13 14  2  0
 14 15  1  0
 15  5  1  0
 15 16  2  0
  5  6  2  0
  5  9  1  0
  6  7  1  0
  7  8  1  0
  8  1  1  0
  8  9  2  0
  1  2  1  0
  1  4  1  0
  2  3  1  0
  3 17  1  0
  3  4  1  0
 17 18  2  0
 17 19  2  0
 17 20  1  0
 20 21  2  0
 20 26  1  0
 21 22  1  0
 22 23  2  0
 23 24  1  0
 23 25  1  0
 25 26  2  0
M  END
>  <minimizedAffinity>  (496) 
-8.71620

$$$$
data/reference_output_2/data/smiles/155636.pdb
     RDKit          3D

 24 25  0  0  0  0  0  0  0  0999 V2000
   69.4054   48.1264   55.3028 N   0  0  0  0  0  0  0  0  0  0  0  0
   69.0483   47.8808   52.8878 C   0  0  0  0  0  0  0  0  0  0  0  0
   68.5177   47.1883   51.8192 C   0  0  0  0  0  0  0  0  0  0  0  0
   67.7851   46.0155   52.0039 C   0  0  0  0  0  0  0  0  0  0  0  0
   67.2634   45.3346   50.9573 F   0  0  0  0  0  0  0  0  0  0  0  0
   67.6075   45.5716   53.2795 C   0  0  0  0  0  0  0  0  0  0  0  0
   68.1406   46.2693   54.3328 C   0  0  0  0  0  0  0  0  0  0  0  0
   68.8743   47.4394   54.1822 C   0  0  0  0  0  0  0  0  0  0  0  0
   69.7960   49.7904   50.9179 N   0  0  0  0  0  0  0  0  0  0  0  0
   69.9597   49.3484   52.5951 S   0  0  0  0  0  0  0  0  0  0  0  0
   69.4012   50.4840   53.3929 O   0  0  0  0  0  0  0  0  0  0  0  0
   71.3966   49.0799   52.9345 O   0  0  0  0  0  0  0  0  0  0  0  0
   69.2247   47.5171   56.9042 S   0  0  0  0  0  0  0  0  0  0  0  0
   69.9277   48.3940   57.8996 O   0  0  0  0  0  0  0  0  0  0  0  0
   67.7626   47.5237   57.2907 O   0  0  0  0  0  0  0  0  0  0  0  0
   69.8720   45.8910   56.9229 C   0  0  0  0  0  0  0  0  0  0  0  0
   70.4921   45.3696   57.9422 C   0  0  0  0  0  0  0  0  0  0  0  0
   71.0482   44.0243   58.0083 C   0  0  0  0  0  0  0  0  0  0  0  0
   70.2829   42.8877   58.1161 C   0  0  0  0  0  0  0  0  0  0  0  0
   70.8826   41.6247   58.1741 C   0  0  0  0  0  0  0  0  0  0  0  0
   72.2495   41.4639   58.1267 C   0  0  0  0  0  0  0  0  0  0  0  0
   73.0127   42.6071   58.0177 C   0  0  0  0  0  0  0  0  0  0  0  0
   74.7542   42.4076   57.9566 Cl  0  0  0  0  0  0  0  0  0  0  0  0
   72.4146   43.8474   57.9607 C   0  0  0  0  0  0  0  0  0  0  0  0
  9 10  1  0
 10 11  2  0
 10 12  2  0
 10  2  1  0
  2  3  2  0
  2  8  1  0
  3  4  1  0
  4  5  1  0
  4  6  2  0
  6  7  1  0
  7  8  2  0
  8  1  1  0
  1 13  1  0
 13 14  2  0
 13 15  2  0
 13 16  1  0
 16 17  2  0
 17 18  1  0
 18 19  2  0
 18 24  1  0
 19 20  1  0
 20 21  2  0
 21 22  1  0
 22 23  1  0
 22 24  2  0
M  END
>  <minimizedAffinity>  (497) 
-8.71542

$$$$
data/reference_output_2/data/smiles/160541.pdb
     RDKit          3D

 27 30  0  0  0  0  0  0  0  0999 V2000
   69.5228   40.3374   58.1423 N   0  0  0  0  0  0  0  0  0  0  0  0
   68.3304   40.2100   57.3809 C   0  0  0  0  0  0  0  0  0  0  0  0
   67.7629   39.0634   57.3836 O   0  0  0  0  0  0  0  0  0  0  0  0
   67.6994   41.2788   56.5972 C   0  0  0  0  0  0  0  0  0  0  0  0
   68.3962   42.5421   56.6437 N   0  0  0  0  0  0  0  0  0  0  0  0
   68.0642   43.7005   56.0313 N   0  0  0  0  0  0  0  0  0  0  0  0
   68.9619   44.6457   56.3192 C   0  0  0  0  0  0  0  0  0  0  0  0
   69.8829   44.0469   57.1407 C   0  0  0  0  0  0  0  0  0  0  0  0
   69.5114   42.7083   57.3400 C   0  0  0  0  0  0  0  0  0  0  0  0
   70.1165   41.6270   58.1105 C   0  0  0  0  0  0  0  0  0  0  0  0
   71.1706   41.8101   58.7593 O   0  0  0  0  0  0  0  0  0  0  0  0
   68.9191   46.0179   55.8298 C   0  0  0  0  0  0  0  0  0  0  0  0
   69.2531   47.0933   56.6210 C   0  0  0  0  0  0  0  0  0  0  0  0
   69.2156   48.3952   56.1661 C   0  0  0  0  0  0  0  0  0  0  0  0
   68.8245   48.6439   54.8503 C   0  0  0  0  0  0  0  0  0  0  0  0
   68.4888   47.5694   54.0541 C   0  0  0  0  0  0  0  0  0  0  0  0
   68.5319   46.2520   54.5285 C   0  0  0  0  0  0  0  0  0  0  0  0
   70.0294   39.2035   58.8645 C   0  0  0  0  0  0  0  0  0  0  0  0
   71.4046   38.7841   58.3853 C   0  0  0  0  0  0  0  0  0  0  0  0
   72.5362   35.3202   57.4981 C   0  0  0  0  0  0  0  0  0  0  0  0
   72.0014   34.5542   58.5284 C   0  0  0  0  0  0  0  0  0  0  0  0
   71.2715   35.1925   59.5056 C   0  0  0  0  0  0  0  0  0  0  0  0
   71.0843   36.5647   59.4495 C   0  0  0  0  0  0  0  0  0  0  0  0
   71.6101   37.3325   58.4332 C   0  0  0  0  0  0  0  0  0  0  0  0
   72.3379   36.6831   57.4624 C   0  0  0  0  0  0  0  0  0  0  0  0
   73.3197   35.2228   55.1836 C   0  0  0  0  0  0  0  0  0  0  0  0
   73.2730   34.6927   56.5057 O   0  0  0  0  0  0  0  0  0  0  0  0
 26 27  1  0
 27 20  1  0
 20 21  2  0
 20 25  1  0
 21 22  1  0
 22 23  2  0
 23 24  1  0
 24 19  1  0
 24 25  2  0
 19 18  1  0
 18  1  1  0
  1  2  1  0
  1 10  1  0
  2  3  2  0
  2  4  1  0
  4  5  1  0
  5  6  1  0
  5  9  1  0
  6  7  2  0
  7 12  1  0
  7  8  1  0
 12 13  2  0
 12 17  1  0
 13 14  1  0
 14 15  2  0
 15 16  1  0
 16 17  2  0
  8  9  2  0
  9 10  1  0
 10 11  2  0
M  END
>  <minimizedAffinity>  (498) 
-8.71382

$$$$
data/200k_reference_output/data/smiles/30978.pdb
     RDKit          3D

 26 27  0  0  0  0  0  0  0  0999 V2000
   69.4290   46.4188   57.8231 N   0  0  0  0  0  0  0  0  0  0  0  0
   70.1825   47.4695   57.2363 C   0  0  0  0  0  0  0  0  0  0  0  0
   71.3513   47.6791   57.5969 O   0  0  0  0  0  0  0  0  0  0  0  0
   69.9254   45.5810   58.8071 N   0  0  0  0  0  0  0  0  0  0  0  0
   70.2798   44.2655   58.6631 C   0  0  0  0  0  0  0  0  0  0  0  0
   71.9518   43.9894   58.7499 S   0  0  0  0  0  0  0  0  0  0  0  0
   68.7795   42.6492   57.4020 C   0  0  0  0  0  0  0  0  0  0  0  0
   68.6773   43.2970   56.3613 O   0  0  0  0  0  0  0  0  0  0  0  0
   69.5455   43.1101   58.4962 N   0  0  0  0  0  0  0  0  0  0  0  0
   68.9829   40.2465   57.9462 C   0  0  0  0  0  0  0  0  0  0  0  0
   68.0492   41.3424   57.4529 C   0  0  0  0  0  0  0  0  0  0  0  0
   66.9288   41.4676   58.4532 C   0  0  0  0  0  0  0  0  0  0  0  0
   67.5738   40.9411   56.0902 C   0  0  0  0  0  0  0  0  0  0  0  0
   69.5690   48.3106   56.1956 C   0  0  0  0  0  0  0  0  0  0  0  0
   68.5496   49.2521   56.7164 C   0  0  0  0  0  0  0  0  0  0  0  0
   68.6011   50.5887   56.3832 C   0  0  0  0  0  0  0  0  0  0  0  0
   67.6975   51.5177   56.8241 C   0  0  0  0  0  0  0  0  0  0  0  0
   66.6834   51.0905   57.6450 C   0  0  0  0  0  0  0  0  0  0  0  0
   66.5969   49.7577   58.0033 C   0  0  0  0  0  0  0  0  0  0  0  0
   67.5131   48.8609   57.5456 C   0  0  0  0  0  0  0  0  0  0  0  0
   69.0930   47.5682   55.0122 C   0  0  0  0  0  0  0  0  0  0  0  0
   68.3774   46.3975   55.1367 C   0  0  0  0  0  0  0  0  0  0  0  0
   67.9319   45.6935   54.0159 C   0  0  0  0  0  0  0  0  0  0  0  0
   68.1893   46.1435   52.7392 C   0  0  0  0  0  0  0  0  0  0  0  0
   68.9045   47.3137   52.6039 C   0  0  0  0  0  0  0  0  0  0  0  0
   69.3436   48.0070   53.7111 C   0  0  0  0  0  0  0  0  0  0  0  0
 10 11  1  0
 11 12  1  0
 11 13  1  0
 11  7  1  0
  7  8  2  0
  7  9  1  0
  9  5  1  0
  5  6  2  0
  5  4  1  0
  4  1  1  0
  1  2  1  0
  2  3  2  0
  2 14  1  0
 14 15  1  0
 14 21  1  0
 15 16  2  0
 15 20  1  0
 16 17  1  0
 17 18  2  0
 18 19  1  0
 19 20  2  0
 21 22  2  0
 21 26  1  0
 22 23  1  0
 23 24  2  0
 24 25  1  0
 25 26  2  0
M  END
>  <minimizedAffinity>  (499) 
-8.71232

$$$$
data/reference_output_2/data/smiles/167361.pdb
     RDKit          3D

 23 25  0  0  0  0  0  0  0  0999 V2000
   69.3773   43.8056   56.9634 N   0  0  0  0  0  0  0  0  0  0  0  0
   68.8832   42.5932   57.0251 C   0  0  0  0  0  0  0  0  0  0  0  0
   67.6083   42.1349   56.4815 C   0  0  0  0  0  0  0  0  0  0  0  0
   66.7610   42.8126   55.8619 O   0  0  0  0  0  0  0  0  0  0  0  0
   67.4992   40.7609   56.7862 N   0  0  0  0  0  0  0  0  0  0  0  0
   68.6530   40.3478   57.4958 C   0  0  0  0  0  0  0  0  0  0  0  0
   68.9750   39.0993   57.9917 C   0  0  0  0  0  0  0  0  0  0  0  0
   70.1625   38.9258   58.6552 C   0  0  0  0  0  0  0  0  0  0  0  0
   70.9919   39.9986   58.8058 C   0  0  0  0  0  0  0  0  0  0  0  0
   72.6385   39.7481   59.7292 Br  0  0  0  0  0  0  0  0  0  0  0  0
   70.6820   41.2478   58.3160 C   0  0  0  0  0  0  0  0  0  0  0  0
   69.4900   41.4301   57.6472 C   0  0  0  0  0  0  0  0  0  0  0  0
   69.9831   46.4829   56.8368 O   0  0  0  0  0  0  0  0  0  0  0  0
   68.9369   46.1421   56.2596 C   0  0  0  0  0  0  0  0  0  0  0  0
   68.5867   44.7511   56.3038 N   0  0  0  0  0  0  0  0  0  0  0  0
   68.0805   47.1260   55.5522 C   0  0  0  0  0  0  0  0  0  0  0  0
   68.7723   47.5066   54.2958 C   0  0  0  0  0  0  0  0  0  0  0  0
   68.6513   46.7354   53.1656 C   0  0  0  0  0  0  0  0  0  0  0  0
   69.2771   47.0519   51.9734 C   0  0  0  0  0  0  0  0  0  0  0  0
   70.0562   48.1784   51.8973 C   0  0  0  0  0  0  0  0  0  0  0  0
   70.7107   48.5521   50.7338 O   0  0  0  0  0  0  0  0  0  0  0  0
   70.1911   48.9734   53.0350 C   0  0  0  0  0  0  0  0  0  0  0  0
   69.5629   48.6407   54.1986 C   0  0  0  0  0  0  0  0  0  0  0  0
 13 14  2  0
 14 16  1  0
 14 15  1  0
 16 17  1  0
 17 18  2  0
 17 23  1  0
 18 19  1  0
 19 20  2  0
 20 21  1  0
 20 22  1  0
 22 23  2  0
 15  1  1  0
  1  2  2  0
  2  3  1  0
  2 12  1  0
  3  4  2  0
  3  5  1  0
  5  6  1  0
  6  7  1  0
  6 12  2  0
  7  8  2  0
  8  9  1  0
  9 10  1  0
  9 11  2  0
 11 12  1  0
M  END
>  <minimizedAffinity>  (500) 
-8.71159

$$$$
data/reference_output_2/data/smiles/126624.pdb
     RDKit          3D

 26 29  0  0  0  0  0  0  0  0999 V2000
   69.3747   47.1110   56.7574 C   0  0  0  0  0  0  0  0  0  0  0  0
   69.9940   48.2085   57.2596 C   0  0  0  0  0  0  0  0  0  0  0  0
   71.0514   48.0836   58.1604 C   0  0  0  0  0  0  0  0  0  0  0  0
   71.4631   46.8133   58.5396 C   0  0  0  0  0  0  0  0  0  0  0  0
   70.8673   45.6759   58.0579 C   0  0  0  0  0  0  0  0  0  0  0  0
   69.8190   45.8462   57.1632 C   0  0  0  0  0  0  0  0  0  0  0  0
   69.2165   44.7170   56.6766 F   0  0  0  0  0  0  0  0  0  0  0  0
   67.1393   47.5298   56.2735 O   0  0  0  0  0  0  0  0  0  0  0  0
   68.2627   47.1283   55.8337 C   0  0  0  0  0  0  0  0  0  0  0  0
   68.3604   46.7128   54.4606 C   0  0  0  0  0  0  0  0  0  0  0  0
   67.8785   45.6565   53.7586 C   0  0  0  0  0  0  0  0  0  0  0  0
   68.3020   45.7611   52.4656 N   0  0  0  0  0  0  0  0  0  0  0  0
   69.0452   46.8604   52.3158 C   0  0  0  0  0  0  0  0  0  0  0  0
   69.6799   47.3853   51.2270 N   0  0  0  0  0  0  0  0  0  0  0  0
   70.3565   48.5151   51.3946 C   0  0  0  0  0  0  0  0  0  0  0  0
   70.4451   49.1556   52.5623 N   0  0  0  0  0  0  0  0  0  0  0  0
   69.8155   48.6336   53.6348 C   0  0  0  0  0  0  0  0  0  0  0  0
   69.0984   47.4656   53.5282 C   0  0  0  0  0  0  0  0  0  0  0  0
   71.2438   44.3631   58.4378 N   0  0  0  0  0  0  0  0  0  0  0  0
   70.6635   43.5546   59.8129 S   0  0  0  0  0  0  0  0  0  0  0  0
   71.2529   44.1033   61.0881 O   0  0  0  0  0  0  0  0  0  0  0  0
   69.1747   43.8457   59.9030 O   0  0  0  0  0  0  0  0  0  0  0  0
   70.8395   41.8322   59.6771 C   0  0  0  0  0  0  0  0  0  0  0  0
   70.3515   41.2226   58.3559 C   0  0  0  0  0  0  0  0  0  0  0  0
   71.4956   40.2141   58.5382 C   0  0  0  0  0  0  0  0  0  0  0  0
   72.2371   41.3594   59.2435 C   0  0  0  0  0  0  0  0  0  0  0  0
  8  9  2  0
  9  1  1  0
  9 10  1  0
  1  2  2  0
  1  6  1  0
  2  3  1  0
  3  4  2  0
  4  5  1  0
  5 19  1  0
  5  6  2  0
 19 20  1  0
 20 21  2  0
 20 22  2  0
 20 23  1  0
 23 24  1  0
 23 26  1  0
 24 25  1  0
 25 26  1  0
  6  7  1  0
 10 11  2  0
 10 18  1  0
 11 12  1  0
 12 13  1  0
 13 14  1  0
 13 18  2  0
 14 15  2  0
 15 16  1  0
 16 17  2  0
 17 18  1  0
M  END
>  <minimizedAffinity>  (501) 
-8.71147

$$$$
data/200k_reference_output/data/smiles/67415.pdb
     RDKit          3D

 26 29  0  0  0  0  0  0  0  0999 V2000
   70.6535   49.6100   54.1251 C   0  0  0  0  0  0  0  0  0  0  0  0
   71.1277   49.1516   52.9732 O   0  0  0  0  0  0  0  0  0  0  0  0
   69.5045   49.0031   54.5632 N   0  0  0  0  0  0  0  0  0  0  0  0
   69.0147   47.8711   53.7673 C   0  0  0  0  0  0  0  0  0  0  0  0
   69.1531   48.0843   52.4199 C   0  0  0  0  0  0  0  0  0  0  0  0
   68.7649   47.0956   51.5310 C   0  0  0  0  0  0  0  0  0  0  0  0
   68.2367   45.8938   51.9699 C   0  0  0  0  0  0  0  0  0  0  0  0
   68.0963   45.6877   53.3250 C   0  0  0  0  0  0  0  0  0  0  0  0
   68.4857   46.6773   54.2069 C   0  0  0  0  0  0  0  0  0  0  0  0
   68.2348   46.3360   55.6246 C   0  0  0  0  0  0  0  0  0  0  0  0
   68.1220   45.1180   55.8496 O   0  0  0  0  0  0  0  0  0  0  0  0
   68.1124   47.2471   56.7287 N   0  0  0  0  0  0  0  0  0  0  0  0
   68.1903   48.6806   56.6624 C   0  0  0  0  0  0  0  0  0  0  0  0
   67.5278   49.3271   57.6834 C   0  0  0  0  0  0  0  0  0  0  0  0
   67.4669   50.6963   57.7670 C   0  0  0  0  0  0  0  0  0  0  0  0
   68.1104   51.4264   56.7618 C   0  0  0  0  0  0  0  0  0  0  0  0
   68.7619   50.8228   55.7565 N   0  0  0  0  0  0  0  0  0  0  0  0
   68.8034   49.4834   55.7053 C   0  0  0  0  0  0  0  0  0  0  0  0
   71.5112   50.6713   54.6348 C   0  0  0  0  0  0  0  0  0  0  0  0
   76.4184   49.9105   55.7522 C   0  0  0  0  0  0  0  0  0  0  0  0
   75.3469   50.7136   56.2798 N   0  0  0  0  0  0  0  0  0  0  0  0
   74.2863   49.9218   56.8706 C   0  0  0  0  0  0  0  0  0  0  0  0
   72.9826   50.5448   56.4642 C   0  0  0  0  0  0  0  0  0  0  0  0
   72.8148   50.2793   55.0241 N   0  0  0  0  0  0  0  0  0  0  0  0
   73.8363   51.0942   54.3716 C   0  0  0  0  0  0  0  0  0  0  0  0
   74.8181   51.6480   55.3187 C   0  0  0  0  0  0  0  0  0  0  0  0
 20 21  1  0
 21 22  1  0
 21 26  1  0
 22 23  1  0
 23 24  1  0
 24 19  1  0
 24 25  1  0
 19  1  1  0
  1  2  2  0
  1  3  1  0
  3  4  1  0
  3 18  1  0
  4  5  2  0
  4  9  1  0
  5  6  1  0
  6  7  2  0
  7  8  1  0
  8  9  2  0
  9 10  1  0
 10 11  2  0
 10 12  1  0
 12 13  1  0
 13 14  1  0
 13 18  2  0
 14 15  2  0
 15 16  1  0
 16 17  2  0
 17 18  1  0
 25 26  1  0
M  CHG  2  21   1  24   1
M  END
>  <minimizedAffinity>  (502) 
-8.71096

$$$$
data/200k_reference_output/data/smiles/16380.pdb
     RDKit          3D

 28 31  0  0  0  0  0  0  0  0999 V2000
   71.9790   45.2006   59.4542 N   0  0  0  0  0  0  0  0  0  0  0  0
   71.1075   44.3478   58.7087 C   0  0  0  0  0  0  0  0  0  0  0  0
   71.2449   42.9910   58.8469 N   0  0  0  0  0  0  0  0  0  0  0  0
   70.4634   42.1276   58.1818 C   0  0  0  0  0  0  0  0  0  0  0  0
   69.5133   42.6742   57.3507 C   0  0  0  0  0  0  0  0  0  0  0  0
   69.3671   44.0036   57.2052 N   0  0  0  0  0  0  0  0  0  0  0  0
   70.1606   44.8844   57.8803 C   0  0  0  0  0  0  0  0  0  0  0  0
   69.9465   46.3265   57.6766 C   0  0  0  0  0  0  0  0  0  0  0  0
   70.6155   47.2526   58.2473 N   0  0  0  0  0  0  0  0  0  0  0  0
   71.8856   46.9108   59.3545 S   0  0  0  0  0  0  0  0  0  0  0  0
   73.1873   47.4282   58.7596 O   0  0  0  0  0  0  0  0  0  0  0  0
   71.6354   47.5400   60.6942 O   0  0  0  0  0  0  0  0  0  0  0  0
   70.6362   40.6814   58.3534 C   0  0  0  0  0  0  0  0  0  0  0  0
   69.5021   39.8802   58.4132 C   0  0  0  0  0  0  0  0  0  0  0  0
   69.5979   38.5140   58.5749 C   0  0  0  0  0  0  0  0  0  0  0  0
   70.8199   37.8850   58.6833 C   0  0  0  0  0  0  0  0  0  0  0  0
   71.9500   38.6674   58.6252 C   0  0  0  0  0  0  0  0  0  0  0  0
   71.8495   40.0548   58.4620 C   0  0  0  0  0  0  0  0  0  0  0  0
   72.3893   44.2428   61.6833 C   0  0  0  0  0  0  0  0  0  0  0  0
   72.9612   44.5951   60.3115 C   0  0  0  0  0  0  0  0  0  0  0  0
   68.9271   46.7743   56.7889 N   0  0  0  0  0  0  0  0  0  0  0  0
   69.0681   47.8789   55.8641 C   0  0  0  0  0  0  0  0  0  0  0  0
   68.8267   47.3818   54.4936 C   0  0  0  0  0  0  0  0  0  0  0  0
   69.3521   47.9793   53.3810 C   0  0  0  0  0  0  0  0  0  0  0  0
   69.1141   47.4794   52.0962 C   0  0  0  0  0  0  0  0  0  0  0  0
   68.3333   46.3593   51.9196 C   0  0  0  0  0  0  0  0  0  0  0  0
   67.8056   45.7589   53.0402 C   0  0  0  0  0  0  0  0  0  0  0  0
   68.0384   46.2480   54.3079 C   0  0  0  0  0  0  0  0  0  0  0  0
 19 20  1  0
 20  1  1  0
  1  2  1  0
  1 10  1  0
  2  3  1  0
  2  7  2  0
  3  4  2  0
  4 13  1  0
  4  5  1  0
 13 14  2  0
 13 18  1  0
 14 15  1  0
 15 16  2  0
 16 17  1  0
 17 18  2  0
  5  6  2  0
  6  7  1  0
  7  8  1  0
  8 21  1  0
  8  9  2  0
 21 22  1  0
 22 23  1  0
 23 24  2  0
 23 28  1  0
 24 25  1  0
 25 26  2  0
 26 27  1  0
 27 28  2  0
  9 10  1  0
 10 11  2  0
 10 12  2  0
M  CHG  1   9   1
M  END
>  <minimizedAffinity>  (503) 
-8.70935

$$$$
data/200k_reference_output/data/smiles/79695.pdb
     RDKit          3D

 27 31  0  0  0  0  0  0  0  0999 V2000
   68.8319   44.4952   55.8378 O   0  0  0  0  0  0  0  0  0  0  0  0
   68.8684   45.7359   55.7309 C   0  0  0  0  0  0  0  0  0  0  0  0
   68.2604   46.3558   54.6194 N   0  0  0  0  0  0  0  0  0  0  0  0
   67.5830   45.6271   53.5599 C   0  0  0  0  0  0  0  0  0  0  0  0
   68.2643   45.8755   52.2362 C   0  0  0  0  0  0  0  0  0  0  0  0
   69.0700   47.1160   52.2057 C   0  0  0  0  0  0  0  0  0  0  0  0
   69.8980   47.5624   51.2379 N   0  0  0  0  0  0  0  0  0  0  0  0
   70.4138   48.7074   51.6223 N   0  0  0  0  0  0  0  0  0  0  0  0
   69.9455   49.0428   52.8439 C   0  0  0  0  0  0  0  0  0  0  0  0
   69.0938   48.0363   53.2148 C   0  0  0  0  0  0  0  0  0  0  0  0
   68.2569   47.8146   54.4209 C   0  0  0  0  0  0  0  0  0  0  0  0
   69.5440   46.5024   56.7629 C   0  0  0  0  0  0  0  0  0  0  0  0
   69.5419   47.8741   56.7931 C   0  0  0  0  0  0  0  0  0  0  0  0
   70.2022   48.5682   57.7869 C   0  0  0  0  0  0  0  0  0  0  0  0
   70.8858   47.8928   58.7831 C   0  0  0  0  0  0  0  0  0  0  0  0
   71.6075   48.2809   59.8574 N   0  0  0  0  0  0  0  0  0  0  0  0
   72.0701   47.2112   60.5155 C   0  0  0  0  0  0  0  0  0  0  0  0
   72.7847   47.2372   61.5693 O   0  0  0  0  0  0  0  0  0  0  0  0
   71.6392   46.1264   59.8543 N   0  0  0  0  0  0  0  0  0  0  0  0
   70.9038   46.5117   58.7767 C   0  0  0  0  0  0  0  0  0  0  0  0
   70.2394   45.8490   57.7785 C   0  0  0  0  0  0  0  0  0  0  0  0
   70.2639   50.2334   53.6175 C   0  0  0  0  0  0  0  0  0  0  0  0
   71.4616   50.4566   54.2622 C   0  0  0  0  0  0  0  0  0  0  0  0
   71.7160   51.6110   54.9978 C   0  0  0  0  0  0  0  0  0  0  0  0
   70.7369   52.5713   55.0889 C   0  0  0  0  0  0  0  0  0  0  0  0
   69.5264   52.3715   54.4516 C   0  0  0  0  0  0  0  0  0  0  0  0
   69.2927   51.2337   53.7345 C   0  0  0  0  0  0  0  0  0  0  0  0
  1  2  2  0
  2 12  1  0
  2  3  1  0
 12 13  2  0
 12 21  1  0
 13 14  1  0
 14 15  2  0
 15 16  1  0
 15 20  1  0
 16 17  1  0
 17 18  2  0
 17 19  1  0
 19 20  1  0
 20 21  2  0
  3  4  1  0
  3 11  1  0
  4  5  1  0
  5  6  1  0
  6  7  1  0
  6 10  2  0
  7  8  1  0
  8  9  2  0
  9 22  1  0
  9 10  1  0
 22 23  2  0
 22 27  1  0
 23 24  1  0
 24 25  2  0
 25 26  1  0
 26 27  2  0
 10 11  1  0
M  CHG  1  16   1
M  END
>  <minimizedAffinity>  (504) 
-8.70763

$$$$
data/reference_output_2/data/smiles/93452.pdb
     RDKit          3D

 26 29  0  0  0  0  0  0  0  0999 V2000
   70.1691   48.2301   57.2891 C   0  0  0  0  0  0  0  0  0  0  0  0
   70.8993   48.9520   58.2347 C   0  0  0  0  0  0  0  0  0  0  0  0
   71.6990   48.3778   59.1849 C   0  0  0  0  0  0  0  0  0  0  0  0
   71.7881   47.0014   59.2111 C   0  0  0  0  0  0  0  0  0  0  0  0
   72.5718   46.4151   60.1448 F   0  0  0  0  0  0  0  0  0  0  0  0
   71.0659   46.2578   58.2748 C   0  0  0  0  0  0  0  0  0  0  0  0
   70.2723   46.8698   57.3319 C   0  0  0  0  0  0  0  0  0  0  0  0
   71.1876   44.8389   58.3417 N   0  0  0  0  0  0  0  0  0  0  0  0
   72.4377   44.0719   58.3519 C   0  0  0  0  0  0  0  0  0  0  0  0
   72.1748   42.8142   57.5468 C   0  0  0  0  0  0  0  0  0  0  0  0
   70.9463   42.1602   58.1939 C   0  0  0  0  0  0  0  0  0  0  0  0
   69.9469   43.6413   58.4272 S   0  0  0  0  0  0  0  0  0  0  0  0
   68.9723   43.7350   57.3089 O   0  0  0  0  0  0  0  0  0  0  0  0
   69.2805   43.6307   59.7696 O   0  0  0  0  0  0  0  0  0  0  0  0
   69.3517   49.0101   56.3182 C   0  0  0  0  0  0  0  0  0  0  0  0
   70.7268   48.3411   51.1158 O   0  0  0  0  0  0  0  0  0  0  0  0
   70.3840   48.4590   52.3144 C   0  0  0  0  0  0  0  0  0  0  0  0
   71.0916   49.2684   53.1269 N   0  0  0  0  0  0  0  0  0  0  0  0
   70.7388   49.4004   54.3914 N   0  0  0  0  0  0  0  0  0  0  0  0
   69.6876   48.7528   54.9136 C   0  0  0  0  0  0  0  0  0  0  0  0
   68.9521   47.9258   54.1206 C   0  0  0  0  0  0  0  0  0  0  0  0
   69.2966   47.7721   52.8032 C   0  0  0  0  0  0  0  0  0  0  0  0
   68.4655   46.8827   51.9583 C   0  0  0  0  0  0  0  0  0  0  0  0
   68.2435   45.5981   52.6692 C   0  0  0  0  0  0  0  0  0  0  0  0
   67.9380   45.6928   54.1169 C   0  0  0  0  0  0  0  0  0  0  0  0
   67.7933   47.1363   54.6279 C   0  0  0  0  0  0  0  0  0  0  0  0
 16 17  2  0
 17 18  1  0
 17 22  1  0
 18 19  1  0
 19 20  2  0
 20 15  1  0
 20 21  1  0
 15  1  1  0
  1  2  2  0
  1  7  1  0
  2  3  1  0
  3  4  2  0
  4  5  1  0
  4  6  1  0
  6  8  1  0
  6  7  2  0
  8  9  1  0
  8 12  1  0
  9 10  1  0
 10 11  1  0
 11 12  1  0
 12 13  2  0
 12 14  2  0
 21 22  2  0
 21 26  1  0
 22 23  1  0
 23 24  1  0
 24 25  1  0
 25 26  1  0
M  END
>  <minimizedAffinity>  (505) 
-8.70744

$$$$
data/reference_output_2/data/smiles/123185.pdb
     RDKit          3D

 24 26  0  0  0  0  0  0  0  0999 V2000
   69.0049   47.9648   56.8730 S   0  0  0  0  0  0  0  0  0  0  0  0
   67.6014   47.4347   57.0313 O   0  0  0  0  0  0  0  0  0  0  0  0
   69.0221   49.2840   57.6055 O   0  0  0  0  0  0  0  0  0  0  0  0
   70.0915   46.8492   57.6187 C   0  0  0  0  0  0  0  0  0  0  0  0
   71.1680   47.1767   58.3957 C   0  0  0  0  0  0  0  0  0  0  0  0
   71.9881   46.1854   58.9478 C   0  0  0  0  0  0  0  0  0  0  0  0
   71.7206   44.8438   58.7161 C   0  0  0  0  0  0  0  0  0  0  0  0
   70.6413   44.5032   57.9383 C   0  0  0  0  0  0  0  0  0  0  0  0
   69.8580   45.4880   57.4114 C   0  0  0  0  0  0  0  0  0  0  0  0
   70.3319   43.0561   57.6739 C   0  0  0  0  0  0  0  0  0  0  0  0
   71.6980   42.3610   57.6381 C   0  0  0  0  0  0  0  0  0  0  0  0
   72.2241   42.4396   59.0700 C   0  0  0  0  0  0  0  0  0  0  0  0
   72.6380   43.8523   59.3389 C   0  0  0  0  0  0  0  0  0  0  0  0
   69.2944   48.2372   55.2138 N   0  0  0  0  0  0  0  0  0  0  0  0
   69.0962   47.7374   52.8446 C   0  0  0  0  0  0  0  0  0  0  0  0
   68.6551   46.9216   51.8482 C   0  0  0  0  0  0  0  0  0  0  0  0
   67.9565   45.7673   52.0811 C   0  0  0  0  0  0  0  0  0  0  0  0
   67.7066   45.4474   53.4158 C   0  0  0  0  0  0  0  0  0  0  0  0
   68.1429   46.2535   54.4256 C   0  0  0  0  0  0  0  0  0  0  0  0
   68.8379   47.4013   54.1533 C   0  0  0  0  0  0  0  0  0  0  0  0
   69.2122   50.5239   53.1905 N   0  0  0  0  0  0  0  0  0  0  0  0
   69.9812   49.1819   52.4435 S   0  0  0  0  0  0  0  0  0  0  0  0
   71.3993   49.0422   52.8896 O   0  0  0  0  0  0  0  0  0  0  0  0
   70.0047   49.4085   50.9581 O   0  0  0  0  0  0  0  0  0  0  0  0
 21 22  1  0
 22 23  2  0
 22 24  2  0
 22 15  1  0
 15 16  2  0
 15 20  1  0
 16 17  1  0
 17 18  2  0
 18 19  1  0
 19 20  2  0
 20 14  1  0
 14  1  1  0
  1  2  2  0
  1  3  2  0
  1  4  1  0
  4  5  2  0
  4  9  1  0
  5  6  1  0
  6  7  2  0
  7  8  1  0
  7 13  1  0
  8  9  2  0
  8 10  1  0
 10 11  1  0
 11 12  1  0
 12 13  1  0
M  END
>  <minimizedAffinity>  (506) 
-8.70739

$$$$
data/reference_output_2/data/smiles/185626.pdb
     RDKit          3D

 26 28  0  0  0  0  0  0  0  0999 V2000
   67.9619   42.1946   56.6561 C   0  0  0  0  0  0  0  0  0  0  0  0
   67.3281   41.4082   55.8911 O   0  0  0  0  0  0  0  0  0  0  0  0
   68.2516   41.7317   57.9558 N   0  0  0  0  0  0  0  0  0  0  0  0
   67.8253   40.3999   58.3663 C   0  0  2  0  0  0  0  0  0  0  0  0
   67.8556   40.2454   59.8548 C   0  0  0  0  0  0  0  0  0  0  0  0
   69.3673   40.1034   60.0943 C   0  0  0  0  0  0  0  0  0  0  0  0
   69.6740   39.1204   59.1099 N   0  0  1  0  0  0  0  0  0  0  0  0
   68.9339   39.4407   57.9228 C   0  0  0  0  0  0  0  0  0  0  0  0
   71.0266   38.7704   58.9313 C   0  0  0  0  0  0  0  0  0  0  0  0
   71.3547   37.3568   58.7824 C   0  0  0  0  0  0  0  0  0  0  0  0
   72.1710   36.9627   57.7446 C   0  0  0  0  0  0  0  0  0  0  0  0
   72.5204   35.6207   57.5640 C   0  0  0  0  0  0  0  0  0  0  0  0
   72.0001   34.7301   58.4786 C   0  0  0  0  0  0  0  0  0  0  0  0
   71.1822   35.1223   59.5176 C   0  0  0  0  0  0  0  0  0  0  0  0
   70.8457   36.4476   59.6848 C   0  0  0  0  0  0  0  0  0  0  0  0
   69.2925   44.0914   56.8658 O   0  0  0  0  0  0  0  0  0  0  0  0
   68.3779   43.5215   56.2218 C   0  0  0  0  0  0  0  0  0  0  0  0
   67.7486   44.1325   55.0956 N   0  0  0  0  0  0  0  0  0  0  0  0
   68.1164   45.4081   54.6423 C   0  0  0  0  0  0  0  0  0  0  0  0
   68.4932   46.3944   55.5105 C   0  0  0  0  0  0  0  0  0  0  0  0
   68.8437   47.6265   55.0050 C   0  0  0  0  0  0  0  0  0  0  0  0
   68.8313   47.9047   53.6736 C   0  0  0  0  0  0  0  0  0  0  0  0
   69.2808   49.4787   53.0483 Cl  0  0  0  0  0  0  0  0  0  0  0  0
   68.4546   46.9255   52.7792 C   0  0  0  0  0  0  0  0  0  0  0  0
   68.4203   47.1368   51.4406 F   0  0  0  0  0  0  0  0  0  0  0  0
   68.1029   45.6910   53.2804 C   0  0  0  0  0  0  0  0  0  0  0  0
 16 17  2  0
 17 18  1  0
 17  1  1  0
 18 19  1  0
 19 20  2  0
 19 26  1  0
 20 21  1  0
 21 22  2  0
 22 23  1  0
 22 24  1  0
 24 25  1  0
 24 26  2  0
  1  2  2  0
  1  3  1  0
  4  3  1  1
  4  5  1  0
  4  8  1  0
  5  6  1  0
  6  7  1  0
  7  9  1  6
  7  8  1  0
  9 10  1  0
 10 11  2  0
 10 15  1  0
 11 12  1  0
 12 13  2  0
 13 14  1  0
 14 15  2  0
M  CHG  1   7   1
M  END
>  <minimizedAffinity>  (507) 
-8.70735

$$$$
data/200k_reference_output/data/smiles/29564.pdb
     RDKit          3D

 30 34  0  0  0  0  0  0  0  0999 V2000
   73.1375   35.8604   57.1734 C   0  0  0  0  0  0  0  0  0  0  0  0
   74.4302   35.5926   57.5616 C   0  0  0  0  0  0  0  0  0  0  0  0
   75.3269   35.0954   56.6275 C   0  0  0  0  0  0  0  0  0  0  0  0
   74.9854   34.8575   55.3318 C   0  0  0  0  0  0  0  0  0  0  0  0
   73.6735   35.1214   54.9072 C   0  0  0  0  0  0  0  0  0  0  0  0
   72.7958   35.6115   55.8361 C   0  0  0  0  0  0  0  0  0  0  0  0
   69.9826   33.9951   61.3093 C   0  0  0  0  0  0  0  0  0  0  0  0
   69.8957   35.3838   60.8626 N   0  0  0  0  0  0  0  0  0  0  0  0
   69.0691   36.2991   61.3995 C   0  0  0  0  0  0  0  0  0  0  0  0
   68.2674   36.0671   62.3566 O   0  0  0  0  0  0  0  0  0  0  0  0
   69.2344   37.4858   60.7589 N   0  0  0  0  0  0  0  0  0  0  0  0
   70.1788   37.3364   59.7965 C   0  0  0  0  0  0  0  0  0  0  0  0
   70.7433   38.1369   58.8761 N   0  0  0  0  0  0  0  0  0  0  0  0
   71.6978   37.6937   58.0170 C   0  0  0  0  0  0  0  0  0  0  0  0
   72.1184   36.3832   58.0724 C   0  0  0  0  0  0  0  0  0  0  0  0
   71.5314   35.5689   59.0228 C   0  0  0  0  0  0  0  0  0  0  0  0
   70.5671   36.0035   59.8953 C   0  0  0  0  0  0  0  0  0  0  0  0
   73.3100   34.8644   53.5183 C   0  0  0  0  0  0  0  0  0  0  0  0
   72.4359   35.5921   52.9754 O   0  0  0  0  0  0  0  0  0  0  0  0
   73.8813   33.8479   52.7530 N   0  0  0  0  0  0  0  0  0  0  0  0
   73.5895   33.5195   51.3932 C   0  0  0  0  0  0  0  0  0  0  0  0
   74.7484   33.9135   50.5256 C   0  0  0  0  0  0  0  0  0  0  0  0
   75.8249   34.6335   50.9429 N   0  0  0  0  0  0  0  0  0  0  0  0
   76.6730   34.8277   49.9190 C   0  0  0  0  0  0  0  0  0  0  0  0
   77.8969   35.4778   49.7878 C   0  0  0  0  0  0  0  0  0  0  0  0
   78.5719   35.5279   48.5919 C   0  0  0  0  0  0  0  0  0  0  0  0
   78.0212   34.9105   47.4748 C   0  0  0  0  0  0  0  0  0  0  0  0
   76.8084   34.2671   47.6100 C   0  0  0  0  0  0  0  0  0  0  0  0
   76.1303   34.2180   48.8113 C   0  0  0  0  0  0  0  0  0  0  0  0
   74.9657   33.6782   49.2242 N   0  0  0  0  0  0  0  0  0  0  0  0
  7  8  1  0
  8  9  1  0
  8 17  1  0
  9 10  2  0
  9 11  1  0
 11 12  1  0
 12 13  1  0
 12 17  2  0
 13 14  2  0
 14 15  1  0
 15  1  1  0
 15 16  2  0
  1  2  2  0
  1  6  1  0
  2  3  1  0
  3  4  2  0
  4  5  1  0
  5 18  1  0
  5  6  2  0
 18 19  2  0
 18 20  1  0
 20 21  1  0
 21 22  1  0
 22 23  2  0
 22 30  1  0
 23 24  1  0
 24 25  2  0
 24 29  1  0
 25 26  1  0
 26 27  2  0
 27 28  1  0
 28 29  2  0
 29 30  1  0
 16 17  1  0
M  CHG  1  23   1
M  END
>  <minimizedAffinity>  (508) 
-8.70586

$$$$
data/reference_output_2/data/smiles/100050.pdb
     RDKit          3D

 26 28  0  0  0  0  0  0  0  0999 V2000
   69.4087   48.6569   57.6804 C   0  0  0  0  0  0  0  0  0  0  0  0
   72.5685   50.7643   55.7067 C   0  0  0  0  0  0  0  0  0  0  0  0
   72.4353   52.0819   55.3068 C   0  0  0  0  0  0  0  0  0  0  0  0
   71.2574   52.7332   55.5733 C   0  0  0  0  0  0  0  0  0  0  0  0
   70.2508   52.0675   56.2229 C   0  0  0  0  0  0  0  0  0  0  0  0
   69.0625   52.7205   56.5376 C   0  0  0  0  0  0  0  0  0  0  0  0
   68.0818   52.0913   57.2048 N   0  0  0  0  0  0  0  0  0  0  0  0
   68.2357   50.7922   57.5845 C   0  0  0  0  0  0  0  0  0  0  0  0
   69.3876   50.0809   57.3033 C   0  0  0  0  0  0  0  0  0  0  0  0
   70.3829   50.7367   56.6233 C   0  0  0  0  0  0  0  0  0  0  0  0
   71.5559   50.0744   56.3633 C   0  0  0  0  0  0  0  0  0  0  0  0
   74.7793   49.8918   56.3609 C   0  0  0  0  0  0  0  0  0  0  0  0
   73.7730   50.1605   55.4193 O   0  0  0  0  0  0  0  0  0  0  0  0
   68.8396   47.9268   56.5012 C   0  0  0  0  0  0  0  0  0  0  0  0
   67.7677   47.3092   56.7815 O   0  0  0  0  0  0  0  0  0  0  0  0
   69.3367   47.8594   55.2123 N   0  0  0  0  0  0  0  0  0  0  0  0
   68.8198   47.1572   54.1001 C   0  0  0  0  0  0  0  0  0  0  0  0
   68.1173   45.9868   54.1877 C   0  0  0  0  0  0  0  0  0  0  0  0
   67.6524   45.3795   53.0491 C   0  0  0  0  0  0  0  0  0  0  0  0
   67.8483   45.8771   51.7810 C   0  0  0  0  0  0  0  0  0  0  0  0
   68.5587   47.0569   51.7185 C   0  0  0  0  0  0  0  0  0  0  0  0
   69.0440   47.7048   52.8185 C   0  0  0  0  0  0  0  0  0  0  0  0
   69.9252   49.2192   52.6506 S   0  0  0  0  0  0  0  0  0  0  0  0
   69.7898   49.7009   50.9805 N   0  0  0  0  0  0  0  0  0  0  0  0
   69.2000   50.2573   53.4372 O   0  0  0  0  0  0  0  0  0  0  0  0
   71.3675   49.0851   52.9992 O   0  0  0  0  0  0  0  0  0  0  0  0
 12 13  1  0
 13  2  1  0
  2  3  2  0
  2 11  1  0
  3  4  1  0
  4  5  2  0
  5  6  1  0
  5 10  1  0
  6  7  2  0
  7  8  1  0
  8  9  2  0
  9  1  1  0
  9 10  1  0
  1 14  1  0
 14 15  2  0
 14 16  1  0
 16 17  1  0
 17 18  2  0
 17 22  1  0
 18 19  1  0
 19 20  2  0
 20 21  1  0
 21 22  2  0
 22 23  1  0
 23 24  1  0
 23 25  2  0
 23 26  2  0
 10 11  2  0
M  END
>  <minimizedAffinity>  (509) 
-8.70505

$$$$
data/reference_output_2/data/smiles/117125.pdb
     RDKit          3D

 25 27  0  0  0  0  0  0  0  0999 V2000
   67.7014   43.0920   55.7564 N   0  0  0  0  0  0  0  0  0  0  0  0
   68.2105   44.4188   55.7977 C   0  0  0  0  0  0  0  0  0  0  0  0
   69.0379   44.7055   56.6741 O   0  0  0  0  0  0  0  0  0  0  0  0
   67.8132   45.4287   54.8836 N   0  0  0  0  0  0  0  0  0  0  0  0
   68.3681   46.7334   54.9912 C   0  0  0  0  0  0  0  0  0  0  0  0
   68.3806   47.4685   56.1578 C   0  0  0  0  0  0  0  0  0  0  0  0
   68.9294   48.7341   56.2255 C   0  0  0  0  0  0  0  0  0  0  0  0
   69.4928   49.3219   55.1137 C   0  0  0  0  0  0  0  0  0  0  0  0
   69.4895   48.6044   53.9374 C   0  0  0  0  0  0  0  0  0  0  0  0
   70.0516   49.1819   52.8156 C   0  0  0  0  0  0  0  0  0  0  0  0
   70.0462   48.4571   51.6368 C   0  0  0  0  0  0  0  0  0  0  0  0
   69.4980   47.1863   51.5619 C   0  0  0  0  0  0  0  0  0  0  0  0
   68.9352   46.6178   52.7000 C   0  0  0  0  0  0  0  0  0  0  0  0
   68.9339   47.3276   53.8823 C   0  0  0  0  0  0  0  0  0  0  0  0
   69.0922   41.3892   58.7856 C   0  0  0  0  0  0  0  0  0  0  0  0
   68.9160   40.0704   58.4753 C   0  0  0  0  0  0  0  0  0  0  0  0
   68.3363   39.7582   57.2629 C   0  0  0  0  0  0  0  0  0  0  0  0
   67.9447   40.7693   56.3828 C   0  0  0  0  0  0  0  0  0  0  0  0
   67.3701   40.3731   55.1843 O   0  0  0  0  0  0  0  0  0  0  0  0
   68.1189   42.1032   56.6875 C   0  0  0  0  0  0  0  0  0  0  0  0
   68.6991   42.3856   57.9038 C   0  0  0  0  0  0  0  0  0  0  0  0
   68.9969   43.1055   61.0265 N   0  0  0  0  0  0  0  0  0  0  0  0
   69.8260   41.7787   60.3234 S   0  0  0  0  0  0  0  0  0  0  0  0
   69.8002   40.5743   61.2420 O   0  0  0  0  0  0  0  0  0  0  0  0
   71.2549   42.1338   60.0843 O   0  0  0  0  0  0  0  0  0  0  0  0
 22 23  1  0
 23 24  2  0
 23 25  2  0
 23 15  1  0
 15 16  2  0
 15 21  1  0
 16 17  1  0
 17 18  2  0
 18 19  1  0
 18 20  1  0
 20  1  1  0
 20 21  2  0
  1  2  1  0
  2  3  2  0
  2  4  1  0
  4  5  1  0
  5  6  2  0
  5 14  1  0
  6  7  1  0
  7  8  2  0
  8  9  1  0
  9 10  1  0
  9 14  2  0
 10 11  2  0
 11 12  1  0
 12 13  2  0
 13 14  1  0
M  END
>  <minimizedAffinity>  (510) 
-8.70471

$$$$
data/200k_reference_output/data/smiles/66688.pdb
     RDKit          3D

 26 28  0  0  0  0  0  0  0  0999 V2000
   69.9850   39.6987   59.3389 C   0  0  0  0  0  0  0  0  0  0  0  0
   69.0801   38.7534   58.9083 C   0  0  0  0  0  0  0  0  0  0  0  0
   68.1700   39.1378   57.9475 C   0  0  0  0  0  0  0  0  0  0  0  0
   68.1448   40.4214   57.4177 C   0  0  0  0  0  0  0  0  0  0  0  0
   69.0511   41.3656   57.8500 C   0  0  0  0  0  0  0  0  0  0  0  0
   69.9638   40.9883   58.8104 C   0  0  0  0  0  0  0  0  0  0  0  0
   71.1134   42.1891   59.3569 Cl  0  0  0  0  0  0  0  0  0  0  0  0
   68.8340   42.6410   57.1534 C   0  0  0  0  0  0  0  0  0  0  0  0
   69.4581   43.7427   57.2737 N   0  0  0  0  0  0  0  0  0  0  0  0
   67.7131   42.4070   56.2509 C   0  0  0  0  0  0  0  0  0  0  0  0
   67.1922   43.2596   55.4518 O   0  0  0  0  0  0  0  0  0  0  0  0
   67.3284   41.0574   56.4414 N   0  0  0  0  0  0  0  0  0  0  0  0
   69.1496   44.9138   56.5377 N   0  0  0  0  0  0  0  0  0  0  0  0
   69.3532   46.2051   57.0896 C   0  0  0  0  0  0  0  0  0  0  0  0
   69.8239   46.2141   58.2688 O   0  0  0  0  0  0  0  0  0  0  0  0
   69.0809   47.4878   56.4471 C   0  0  2  0  0  0  0  0  0  0  0  0
   67.9354   48.2486   57.0312 C   0  0  0  0  0  0  0  0  0  0  0  0
   68.9122   47.3606   54.9815 C   0  0  0  0  0  0  0  0  0  0  0  0
   68.0964   46.3755   54.4606 C   0  0  0  0  0  0  0  0  0  0  0  0
   67.9185   46.2155   53.0952 C   0  0  0  0  0  0  0  0  0  0  0  0
   68.5875   47.0790   52.2602 C   0  0  0  0  0  0  0  0  0  0  0  0
   68.3968   46.9024   50.8869 O   0  0  0  0  0  0  0  0  0  0  0  0
   69.4185   48.0838   52.7477 C   0  0  0  0  0  0  0  0  0  0  0  0
   69.5666   48.2069   54.1110 C   0  0  0  0  0  0  0  0  0  0  0  0
   70.6068   39.0650   61.6284 C   0  0  0  0  0  0  0  0  0  0  0  0
   70.9179   39.3610   60.3009 O   0  0  0  0  0  0  0  0  0  0  0  0
 25 26  1  0
 26  1  1  0
  1  2  2  0
  1  6  1  0
  2  3  1  0
  3  4  2  0
  4  5  1  0
  4 12  1  0
  5  6  2  0
  5  8  1  0
  6  7  1  0
  8  9  2  0
  8 10  1  0
  9 13  1  0
 13 14  1  0
 14 15  2  0
 14 16  1  0
 16 17  1  1
 16 18  1  0
 18 19  2  0
 18 24  1  0
 19 20  1  0
 20 21  2  0
 21 22  1  0
 21 23  1  0
 23 24  2  0
 10 11  2  0
 10 12  1  0
M  END
>  <minimizedAffinity>  (511) 
-8.70459

$$$$
data/200k_reference_output/data/smiles/22470.pdb
     RDKit          3D

 26 29  0  0  0  0  0  0  0  0999 V2000
   66.6886   42.5432   56.2247 O   0  0  0  0  0  0  0  0  0  0  0  0
   67.7735   42.1245   56.7376 C   0  0  0  0  0  0  0  0  0  0  0  0
   68.0782   40.8220   57.2338 N   0  0  0  0  0  0  0  0  0  0  0  0
   69.4350   40.8034   57.7261 C   0  0  0  0  0  0  0  0  0  0  0  0
   70.2030   39.8105   58.3027 C   0  0  0  0  0  0  0  0  0  0  0  0
   71.5070   40.0735   58.7009 C   0  0  0  0  0  0  0  0  0  0  0  0
   72.0889   41.3275   58.5383 C   0  0  0  0  0  0  0  0  0  0  0  0
   71.3055   42.2948   57.9632 C   0  0  0  0  0  0  0  0  0  0  0  0
   69.9996   42.0480   57.5589 C   0  0  0  0  0  0  0  0  0  0  0  0
   68.9740   42.9062   56.9377 C   0  0  0  0  0  0  0  0  0  0  0  0
   69.1180   44.1331   56.6405 N   0  0  0  0  0  0  0  0  0  0  0  0
   73.7330   41.5624   59.0787 S   0  0  0  0  0  0  0  0  0  0  0  0
   74.3220   40.2575   59.5761 O   0  0  0  0  0  0  0  0  0  0  0  0
   73.8432   42.5192   60.2258 O   0  0  0  0  0  0  0  0  0  0  0  0
   74.6898   42.1678   57.8166 O   0  0  0  0  0  0  0  0  0  0  0  0
   68.1372   44.9492   56.0716 N   0  0  0  0  0  0  0  0  0  0  0  0
   68.6321   46.1803   55.5103 C   0  0  0  0  0  0  0  0  0  0  0  0
   69.2086   47.1552   56.2584 C   0  0  0  0  0  0  0  0  0  0  0  0
   69.6571   48.3092   55.6558 C   0  0  0  0  0  0  0  0  0  0  0  0
   69.5496   48.5339   54.3041 C   0  0  0  0  0  0  0  0  0  0  0  0
   68.9617   47.5428   53.5397 C   0  0  0  0  0  0  0  0  0  0  0  0
   68.8086   47.6939   52.1807 C   0  0  0  0  0  0  0  0  0  0  0  0
   68.2239   46.7385   51.3944 C   0  0  0  0  0  0  0  0  0  0  0  0
   67.7784   45.5858   52.0065 C   0  0  0  0  0  0  0  0  0  0  0  0
   67.9049   45.3731   53.3802 C   0  0  0  0  0  0  0  0  0  0  0  0
   68.4987   46.3603   54.1338 C   0  0  0  0  0  0  0  0  0  0  0  0
  1  2  2  0
  2  3  1  0
  2 10  1  0
  3  4  1  0
  4  5  2  0
  4  9  1  0
  5  6  1  0
  6  7  2  0
  7 12  1  0
  7  8  1  0
 12 13  2  0
 12 14  2  0
 12 15  1  0
  8  9  2  0
  9 10  1  0
 10 11  2  0
 11 16  1  0
 16 17  1  0
 17 18  2  0
 17 26  1  0
 18 19  1  0
 19 20  2  0
 20 21  1  0
 21 22  1  0
 21 26  2  0
 22 23  2  0
 23 24  1  0
 24 25  2  0
 25 26  1  0
M  CHG  1  15  -1
M  END
>  <minimizedAffinity>  (512) 
-8.70390

$$$$
data/reference_output_2/data/smiles/108095.pdb
     RDKit          3D

 26 28  0  0  0  0  0  0  0  0999 V2000
   69.6377   47.3130   57.1203 C   0  0  0  0  0  0  0  0  0  0  0  0
   70.5249   46.6909   57.9267 C   0  0  0  0  0  0  0  0  0  0  0  0
   71.1485   47.6206   58.7062 N   0  0  0  0  0  0  0  0  0  0  0  0
   70.6817   48.8465   58.4248 C   0  0  0  0  0  0  0  0  0  0  0  0
   71.0125   50.1032   58.9578 C   0  0  0  0  0  0  0  0  0  0  0  0
   70.3500   51.1926   58.4557 C   0  0  0  0  0  0  0  0  0  0  0  0
   69.4021   51.0460   57.4699 C   0  0  0  0  0  0  0  0  0  0  0  0
   68.5637   52.4660   56.8406 Cl  0  0  0  0  0  0  0  0  0  0  0  0
   69.0867   49.8088   56.9550 C   0  0  0  0  0  0  0  0  0  0  0  0
   69.7453   48.6808   57.4460 C   0  0  0  0  0  0  0  0  0  0  0  0
   68.5649   46.7539   55.8604 S   0  0  0  0  0  0  0  0  0  0  0  0
   67.2089   47.3829   56.2096 O   0  0  0  0  0  0  0  0  0  0  0  0
   68.2925   45.2755   55.9384 O   0  0  0  0  0  0  0  0  0  0  0  0
   67.6631   45.5574   53.1622 C   0  0  0  0  0  0  0  0  0  0  0  0
   68.5930   46.7026   53.1177 C   0  0  0  0  0  0  0  0  0  0  0  0
   69.0188   47.1866   51.8655 C   0  0  0  0  0  0  0  0  0  0  0  0
   69.8628   48.2622   51.7679 C   0  0  0  0  0  0  0  0  0  0  0  0
   70.2733   48.8462   52.9403 C   0  0  0  0  0  0  0  0  0  0  0  0
   69.8628   48.3811   54.1678 C   0  0  0  0  0  0  0  0  0  0  0  0
   68.9966   47.2768   54.2870 C   0  0  0  0  0  0  0  0  0  0  0  0
   70.7751   45.2642   58.0189 C   0  0  0  0  0  0  0  0  0  0  0  0
   71.8872   44.7874   57.7583 O   0  0  0  0  0  0  0  0  0  0  0  0
   69.7517   44.3606   58.4130 N   0  0  0  0  0  0  0  0  0  0  0  0
   69.9799   42.9314   58.5125 C   0  0  0  0  0  0  0  0  0  0  0  0
   69.2668   42.4491   59.7409 C   0  0  0  0  0  0  0  0  0  0  0  0
   68.6675   43.5422   60.3939 O   0  0  0  0  0  0  0  0  0  0  0  0
 14 15  1  0
 15 16  2  0
 15 20  1  0
 16 17  1  0
 17 18  2  0
 18 19  1  0
 19 20  2  0
 20 11  1  0
 11 12  2  0
 11 13  2  0
 11  1  1  0
  1  2  2  0
  1 10  1  0
  2 21  1  0
  2  3  1  0
 21 22  2  0
 21 23  1  0
 23 24  1  0
 24 25  1  0
 25 26  1  0
  3  4  1  0
  4  5  1  0
  4 10  2  0
  5  6  2  0
  6  7  1  0
  7  8  1  0
  7  9  2  0
  9 10  1  0
M  END
>  <minimizedAffinity>  (513) 
-8.70311

$$$$
data/reference_output_2/data/smiles/146134.pdb
     RDKit          3D

 26 27  0  0  0  0  0  0  0  0999 V2000
   67.9893   42.2472   56.7184 C   0  0  0  0  0  0  0  0  0  0  0  0
   68.2112   41.9211   57.9690 C   0  0  0  0  0  0  0  0  0  0  0  0
   67.8214   40.7095   58.6614 C   0  0  0  0  0  0  0  0  0  0  0  0
   66.5690   40.4498   59.1699 C   0  0  0  0  0  0  0  0  0  0  0  0
   66.3298   39.2424   59.7818 C   0  0  0  0  0  0  0  0  0  0  0  0
   67.3304   38.2905   59.8906 C   0  0  0  0  0  0  0  0  0  0  0  0
   67.0589   37.1180   60.4964 F   0  0  0  0  0  0  0  0  0  0  0  0
   68.5953   38.5409   59.3836 C   0  0  0  0  0  0  0  0  0  0  0  0
   68.8237   39.7437   58.7773 C   0  0  0  0  0  0  0  0  0  0  0  0
   70.4462   40.0363   58.1391 Cl  0  0  0  0  0  0  0  0  0  0  0  0
   65.9161   41.6901   55.3909 C   0  0  0  0  0  0  0  0  0  0  0  0
   67.2719   41.2987   55.8824 C   0  0  0  0  0  0  0  0  0  0  0  0
   67.6959   40.1779   55.5375 O   0  0  0  0  0  0  0  0  0  0  0  0
   68.4509   43.5410   56.1652 C   0  0  0  0  0  0  0  0  0  0  0  0
   69.5524   44.0572   56.5464 O   0  0  0  0  0  0  0  0  0  0  0  0
   67.7497   44.2996   55.2039 N   0  0  0  0  0  0  0  0  0  0  0  0
   68.2723   45.5515   54.7187 C   0  0  0  0  0  0  0  0  0  0  0  0
   68.7417   46.5593   55.5244 C   0  0  0  0  0  0  0  0  0  0  0  0
   69.2342   47.7442   55.0109 C   0  0  0  0  0  0  0  0  0  0  0  0
   69.2686   47.9519   53.6440 C   0  0  0  0  0  0  0  0  0  0  0  0
   68.8046   46.9571   52.8256 C   0  0  0  0  0  0  0  0  0  0  0  0
   68.3112   45.7676   53.3644 C   0  0  0  0  0  0  0  0  0  0  0  0
   69.8980   49.4661   53.0012 S   0  0  0  0  0  0  0  0  0  0  0  0
   69.8121   49.4802   51.2657 N   0  0  0  0  0  0  0  0  0  0  0  0
   68.9711   50.5653   53.4811 O   0  0  0  0  0  0  0  0  0  0  0  0
   71.2952   49.7105   53.4863 O   0  0  0  0  0  0  0  0  0  0  0  0
 11 12  1  0
 12 13  2  0
 12  1  1  0
  1  2  2  0
  1 14  1  0
  2  3  1  0
  3  4  2  0
  3  9  1  0
  4  5  1  0
  5  6  2  0
  6  7  1  0
  6  8  1  0
  8  9  2  0
  9 10  1  0
 14 15  2  0
 14 16  1  0
 16 17  1  0
 17 18  2  0
 17 22  1  0
 18 19  1  0
 19 20  2  0
 20 23  1  0
 20 21  1  0
 23 24  1  0
 23 25  2  0
 23 26  2  0
 21 22  2  0
M  END
>  <minimizedAffinity>  (514) 
-8.70265

$$$$
data/200k_reference_output/data/smiles/60729.pdb
     RDKit          3D

 29 32  0  0  0  0  0  0  0  0999 V2000
   71.2624   49.3622   58.3790 N   0  0  0  0  0  0  0  0  0  0  0  0
   71.7444   49.3654   57.0179 C   0  0  0  0  0  0  0  0  0  0  0  0
   70.8297   50.0842   56.0830 C   0  0  0  0  0  0  0  0  0  0  0  0
   69.4057   49.7674   56.1372 C   0  0  0  0  0  0  0  0  0  0  0  0
   69.0152   49.9965   57.6243 C   0  0  0  0  0  0  0  0  0  0  0  0
   70.2082   50.3488   58.4732 C   0  0  0  0  0  0  0  0  0  0  0  0
   68.8717   48.5233   55.6998 N   0  0  0  0  0  0  0  0  0  0  0  0
   68.1864   47.6768   56.5610 C   0  0  0  0  0  0  0  0  0  0  0  0
   67.9850   47.9504   57.7783 O   0  0  0  0  0  0  0  0  0  0  0  0
   67.8365   46.6235   55.8572 N   0  0  0  0  0  0  0  0  0  0  0  0
   68.2542   46.7374   54.5848 C   0  0  0  0  0  0  0  0  0  0  0  0
   68.1085   45.8780   53.4922 C   0  0  0  0  0  0  0  0  0  0  0  0
   68.6429   46.2692   52.2845 C   0  0  0  0  0  0  0  0  0  0  0  0
   69.2998   47.4723   52.1701 C   0  0  0  0  0  0  0  0  0  0  0  0
   69.4427   48.3156   53.2453 C   0  0  0  0  0  0  0  0  0  0  0  0
   68.9114   47.9530   54.4986 C   0  0  0  0  0  0  0  0  0  0  0  0
   70.8072   48.0645   58.8047 C   0  0  0  0  0  0  0  0  0  0  0  0
   71.9597   47.1946   59.2197 C   0  0  0  0  0  0  0  0  0  0  0  0
   69.7919   45.3697   58.7846 O   0  0  0  0  0  0  0  0  0  0  0  0
   70.9267   45.0738   58.3019 C   0  0  0  0  0  0  0  0  0  0  0  0
   72.0342   45.9475   58.4900 N   0  0  0  0  0  0  0  0  0  0  0  0
   71.0471   43.8564   57.5788 N   0  0  0  0  0  0  0  0  0  0  0  0
   69.9290   43.0049   57.4079 C   0  0  0  0  0  0  0  0  0  0  0  0
   69.8016   41.8159   58.0994 C   0  0  0  0  0  0  0  0  0  0  0  0
   68.7249   40.9802   57.9484 C   0  0  0  0  0  0  0  0  0  0  0  0
   67.7049   41.2952   57.0850 C   0  0  0  0  0  0  0  0  0  0  0  0
   67.8196   42.4843   56.3862 C   0  0  0  0  0  0  0  0  0  0  0  0
   66.8303   42.8331   55.5212 F   0  0  0  0  0  0  0  0  0  0  0  0
   68.8944   43.3293   56.5285 C   0  0  0  0  0  0  0  0  0  0  0  0
 19 20  2  0
 20 21  1  0
 20 22  1  0
 21 18  1  0
 18 17  1  0
 17  1  1  0
  1  2  1  0
  1  6  1  0
  2  3  1  0
  3  4  1  0
  4  7  1  0
  4  5  1  0
  7  8  1  0
  7 16  1  0
  8  9  2  0
  8 10  1  0
 10 11  1  0
 11 12  1  0
 11 16  2  0
 12 13  2  0
 13 14  1  0
 14 15  2  0
 15 16  1  0
  5  6  1  0
 22 23  1  0
 23 24  2  0
 23 29  1  0
 24 25  1  0
 25 26  2  0
 26 27  1  0
 27 28  1  0
 27 29  2  0
M  CHG  1   1   1
M  END
>  <minimizedAffinity>  (515) 
-8.70257

$$$$
data/reference_output_2/data/smiles/159738.pdb
     RDKit          3D

 25 28  0  0  0  0  0  0  0  0999 V2000
   68.1009   43.5831   55.8224 C   0  0  0  0  0  0  0  0  0  0  0  0
   67.9173   42.2672   56.0358 N   0  0  0  0  0  0  0  0  0  0  0  0
   68.5782   41.5929   57.0163 C   0  0  0  0  0  0  0  0  0  0  0  0
   69.4761   42.2742   57.8329 C   0  0  0  0  0  0  0  0  0  0  0  0
   69.6528   43.6246   57.6003 C   0  0  0  0  0  0  0  0  0  0  0  0
   68.9722   44.2373   56.6181 N   0  0  0  0  0  0  0  0  0  0  0  0
   70.6228   44.2925   58.4626 C   0  0  0  0  0  0  0  0  0  0  0  0
   70.7735   45.6759   58.2965 C   0  0  0  0  0  0  0  0  0  0  0  0
   71.6278   46.4067   59.1071 C   0  0  0  0  0  0  0  0  0  0  0  0
   72.3423   45.7390   60.0971 C   0  0  0  0  0  0  0  0  0  0  0  0
   72.1810   44.3820   60.2415 C   0  0  0  0  0  0  0  0  0  0  0  0
   71.3188   43.6255   59.4274 C   0  0  0  0  0  0  0  0  0  0  0  0
   71.2299   42.1767   59.6234 C   0  0  0  0  0  0  0  0  0  0  0  0
   70.1524   41.5131   58.8854 C   0  0  0  0  0  0  0  0  0  0  0  0
   67.4492   44.3085   54.7927 N   0  0  0  0  0  0  0  0  0  0  0  0
   69.1924   47.9251   53.3785 C   0  0  0  0  0  0  0  0  0  0  0  0
   68.9868   47.7351   54.7209 C   0  0  0  0  0  0  0  0  0  0  0  0
   68.4089   46.5654   55.1896 C   0  0  0  0  0  0  0  0  0  0  0  0
   68.0153   45.5538   54.3658 C   0  0  0  0  0  0  0  0  0  0  0  0
   68.2204   45.7376   52.9894 C   0  0  0  0  0  0  0  0  0  0  0  0
   68.7929   46.8904   52.5211 C   0  0  0  0  0  0  0  0  0  0  0  0
   71.5579   49.5163   53.3889 N   0  0  0  0  0  0  0  0  0  0  0  0
   69.9478   49.3630   52.7045 S   0  0  0  0  0  0  0  0  0  0  0  0
   70.1269   49.1785   51.2367 O   0  0  0  0  0  0  0  0  0  0  0  0
   69.1975   50.6120   53.0382 O   0  0  0  0  0  0  0  0  0  0  0  0
 22 23  1  0
 23 24  2  0
 23 25  2  0
 23 16  1  0
 16 17  2  0
 16 21  1  0
 17 18  1  0
 18 19  2  0
 19 15  1  0
 19 20  1  0
 15  1  1  0
  1  2  2  0
  1  6  1  0
  2  3  1  0
  3  4  2  0
  4  5  1  0
  4 14  1  0
  5  6  2  0
  5  7  1  0
  7  8  2  0
  7 12  1  0
  8  9  1  0
  9 10  2  0
 10 11  1  0
 11 12  2  0
 12 13  1  0
 13 14  1  0
 20 21  2  0
M  END
>  <minimizedAffinity>  (516) 
-8.70157

$$$$
data/200k_reference_output/data/smiles/56182.pdb
     RDKit          3D

 26 28  0  0  0  0  0  0  0  0999 V2000
   69.1484   42.3535   56.5837 O   0  0  0  0  0  0  0  0  0  0  0  0
   69.9187   42.6407   57.4289 C   0  0  0  0  0  0  0  0  0  0  0  0
   70.2659   44.3468   57.4331 N   0  0  0  0  0  0  0  0  0  0  0  0
   69.1617   44.7565   56.6496 C   0  0  0  0  0  0  0  0  0  0  0  0
   68.2448   44.2684   56.1070 O   0  0  0  0  0  0  0  0  0  0  0  0
   69.2541   46.2508   56.5006 N   0  0  0  0  0  0  0  0  0  0  0  0
   70.6674   41.9952   58.4647 C   0  0  0  0  0  0  0  0  0  0  0  0
   70.2783   40.7652   58.9812 N   0  0  2  0  0  0  0  0  0  0  0  0
   71.0925   40.2768   60.0781 C   0  0  0  0  0  0  0  0  0  0  0  0
   71.7666   39.0396   59.6339 C   0  0  0  0  0  0  0  0  0  0  0  0
   71.0183   38.1468   59.0335 C   0  0  0  0  0  0  0  0  0  0  0  0
   69.5803   38.4731   58.8376 C   0  0  0  0  0  0  0  0  0  0  0  0
   69.2854   39.9307   58.5501 C   0  0  0  0  0  0  0  0  0  0  0  0
   71.5829   36.9060   58.5530 C   0  0  0  0  0  0  0  0  0  0  0  0
   71.3974   35.6975   59.2035 C   0  0  0  0  0  0  0  0  0  0  0  0
   71.9064   34.4985   58.7473 C   0  0  0  0  0  0  0  0  0  0  0  0
   72.6422   34.4608   57.5905 C   0  0  0  0  0  0  0  0  0  0  0  0
   72.8402   35.6628   56.9162 C   0  0  0  0  0  0  0  0  0  0  0  0
   72.3156   36.8469   57.4002 C   0  0  0  0  0  0  0  0  0  0  0  0
   68.3324   47.0027   55.7709 C   0  0  0  0  0  0  0  0  0  0  0  0
   68.5351   47.0450   54.3221 C   0  0  0  0  0  0  0  0  0  0  0  0
   67.8963   46.1471   53.4606 C   0  0  0  0  0  0  0  0  0  0  0  0
   68.0888   46.2294   52.1261 C   0  0  0  0  0  0  0  0  0  0  0  0
   68.9165   47.1934   51.5234 C   0  0  0  0  0  0  0  0  0  0  0  0
   69.5237   48.0559   52.3929 C   0  0  0  0  0  0  0  0  0  0  0  0
   69.3478   47.9934   53.7535 C   0  0  0  0  0  0  0  0  0  0  0  0
  1  2  2  0
  2  7  1  0
  2  3  1  0
  8  7  1  6
  8  9  1  0
  8 13  1  0
  9 10  1  0
 10 11  2  0
 11 14  1  0
 11 12  1  0
 14 15  2  0
 14 19  1  0
 15 16  1  0
 16 17  2  0
 17 18  1  0
 18 19  2  0
 12 13  1  0
  3  4  1  0
  4  5  2  0
  4  6  1  0
  6 20  1  0
 20 21  1  0
 21 22  2  0
 21 26  1  0
 22 23  1  0
 23 24  2  0
 24 25  1  0
 25 26  2  0
M  CHG  1   8   1
M  END
>  <minimizedAffinity>  (517) 
-8.70144

$$$$
data/200k_reference_output/data/smiles/8974.pdb
     RDKit          3D

 27 30  0  0  0  0  0  0  0  0999 V2000
   69.6806   43.3212   57.3928 C   0  0  0  0  0  0  0  0  0  0  0  0
   68.4434   42.8532   56.7159 C   0  0  0  0  0  0  0  0  0  0  0  0
   67.8160   41.6656   57.0088 C   0  0  0  0  0  0  0  0  0  0  0  0
   66.7073   41.6182   56.1536 C   0  0  0  0  0  0  0  0  0  0  0  0
   66.7355   42.7329   55.4313 N   0  0  0  0  0  0  0  0  0  0  0  0
   67.7608   43.4869   55.7476 N   0  0  0  0  0  0  0  0  0  0  0  0
   68.1213   44.7640   55.1810 C   0  0  0  0  0  0  0  0  0  0  0  0
   68.1182   45.0162   53.8846 N   0  0  0  0  0  0  0  0  0  0  0  0
   68.4626   46.2275   53.3975 C   0  0  0  0  0  0  0  0  0  0  0  0
   68.8233   47.2094   54.3015 C   0  0  0  0  0  0  0  0  0  0  0  0
   68.8246   46.9425   55.6527 C   0  0  0  0  0  0  0  0  0  0  0  0
   69.1498   47.8178   56.5169 O   0  0  0  0  0  0  0  0  0  0  0  0
   68.4714   45.7180   56.0598 N   0  0  0  0  0  0  0  0  0  0  0  0
   69.1629   48.4634   53.5395 C   0  0  0  0  0  0  0  0  0  0  0  0
   69.6005   47.8906   52.2107 C   0  0  0  0  0  0  0  0  0  0  0  0
   68.5512   46.7925   52.0130 C   0  0  0  0  0  0  0  0  0  0  0  0
   68.1866   40.6482   57.9853 C   0  0  0  0  0  0  0  0  0  0  0  0
   69.0319   39.7938   57.6542 O   0  0  0  0  0  0  0  0  0  0  0  0
   67.5928   40.6451   59.2660 N   0  0  0  0  0  0  0  0  0  0  0  0
   66.6107   41.6109   59.6945 C   0  0  0  0  0  0  0  0  0  0  0  0
   66.9146   42.2606   60.9979 C   0  0  0  0  0  0  0  0  0  0  0  0
   67.7331   41.4963   61.9565 C   0  0  0  0  0  0  0  0  0  0  0  0
   68.5349   40.3759   61.4283 C   0  0  0  0  0  0  0  0  0  0  0  0
   67.9401   39.6370   60.2752 C   0  0  0  0  0  0  0  0  0  0  0  0
   68.6275   42.4667   62.7382 C   0  0  0  0  0  0  0  0  0  0  0  0
   67.9495   43.6147   63.0704 F   0  0  0  0  0  0  0  0  0  0  0  0
   69.1530   41.8256   63.8616 F   0  0  0  0  0  0  0  0  0  0  0  0
  1  2  1  0
  2  3  2  0
  2  6  1  0
  3 17  1  0
  3  4  1  0
 17 18  2  0
 17 19  1  0
 19 20  1  0
 19 24  1  0
 20 21  1  0
 21 22  1  0
 22 25  1  0
 22 23  1  0
 25 26  1  0
 25 27  1  0
 23 24  1  0
  4  5  2  0
  5  6  1  0
  6  7  1  0
  7  8  2  0
  7 13  1  0
  8  9  1  0
  9 10  2  0
  9 16  1  0
 10 11  1  0
 10 14  1  0
 11 12  2  0
 11 13  1  0
 14 15  1  0
 15 16  1  0
M  END
>  <minimizedAffinity>  (518) 
-8.69911

$$$$
data/reference_output_2/data/smiles/106585.pdb
     RDKit          3D

 23 25  0  0  0  0  0  0  0  0999 V2000
   70.3061   52.0367   54.7739 C   0  0  0  0  0  0  0  0  0  0  0  0
   71.1142   50.8479   54.5859 N   0  0  0  0  0  0  0  0  0  0  0  0
   70.5185   49.7488   53.9164 C   0  0  0  0  0  0  0  0  0  0  0  0
   69.6788   48.9015   54.5358 N   0  0  0  0  0  0  0  0  0  0  0  0
   69.0898   47.8512   53.9573 C   0  0  0  0  0  0  0  0  0  0  0  0
   68.2343   46.9975   54.6090 C   0  0  0  0  0  0  0  0  0  0  0  0
   67.6475   45.9128   53.9480 C   0  0  0  0  0  0  0  0  0  0  0  0
   67.9163   45.6743   52.6154 C   0  0  0  0  0  0  0  0  0  0  0  0
   68.7767   46.5298   51.9552 C   0  0  0  0  0  0  0  0  0  0  0  0
   69.3550   47.6061   52.6206 C   0  0  0  0  0  0  0  0  0  0  0  0
   70.2181   48.4843   52.0005 C   0  0  0  0  0  0  0  0  0  0  0  0
   70.4686   48.2698   50.7772 O   0  0  0  0  0  0  0  0  0  0  0  0
   70.7601   49.4965   52.6353 O   0  0  0  0  0  0  0  0  0  0  0  0
   72.7136   50.8502   55.1760 S   0  0  0  0  0  0  0  0  0  0  0  0
   72.8478   49.6827   56.1338 O   0  0  0  0  0  0  0  0  0  0  0  0
   73.6732   50.6796   54.0144 O   0  0  0  0  0  0  0  0  0  0  0  0
   73.1138   52.3131   56.0354 C   0  0  0  0  0  0  0  0  0  0  0  0
   72.9886   52.3857   57.4026 C   0  0  0  0  0  0  0  0  0  0  0  0
   73.3157   53.5703   58.0658 C   0  0  0  0  0  0  0  0  0  0  0  0
   73.7600   54.6659   57.3826 C   0  0  0  0  0  0  0  0  0  0  0  0
   73.8891   54.6023   56.0118 C   0  0  0  0  0  0  0  0  0  0  0  0
   73.5625   53.4216   55.3541 C   0  0  0  0  0  0  0  0  0  0  0  0
   73.7539   53.3734   53.4648 Br  0  0  0  0  0  0  0  0  0  0  0  0
  1  2  1  0
  2  3  1  0
  2 14  1  0
  3  4  2  0
  3 13  1  0
  4  5  1  0
  5  6  2  0
  5 10  1  0
  6  7  1  0
  7  8  2  0
  8  9  1  0
  9 10  2  0
 10 11  1  0
 11 12  2  0
 11 13  1  0
 14 15  2  0
 14 16  2  0
 14 17  1  0
 17 18  2  0
 17 22  1  0
 18 19  1  0
 19 20  2  0
 20 21  1  0
 21 22  2  0
 22 23  1  0
M  END
>  <minimizedAffinity>  (519) 
-8.69909

$$$$
data/200k_reference_output/data/smiles/17982.pdb
     RDKit          3D

 27 29  0  0  0  0  0  0  0  0999 V2000
   68.8474   45.5167   56.1353 C   0  0  0  0  0  0  0  0  0  0  0  0
   69.8217   45.3289   57.0974 C   0  0  0  0  0  0  0  0  0  0  0  0
   70.1225   44.0565   57.5900 C   0  0  0  0  0  0  0  0  0  0  0  0
   69.4791   42.9236   57.1531 C   0  0  0  0  0  0  0  0  0  0  0  0
   68.5042   43.1063   56.1878 C   0  0  0  0  0  0  0  0  0  0  0  0
   68.2011   44.3501   55.6998 C   0  0  0  0  0  0  0  0  0  0  0  0
   69.8197   41.6084   57.6880 C   0  0  0  0  0  0  0  0  0  0  0  0
   71.0881   41.2992   58.1323 C   0  0  0  0  0  0  0  0  0  0  0  0
   71.3574   40.0220   58.6379 C   0  0  0  0  0  0  0  0  0  0  0  0
   70.3928   39.0490   58.7102 C   0  0  0  0  0  0  0  0  0  0  0  0
   69.1289   39.3554   58.2686 C   0  0  0  0  0  0  0  0  0  0  0  0
   68.8653   40.6099   57.7722 C   0  0  0  0  0  0  0  0  0  0  0  0
   70.6361   37.6952   59.2441 C   0  0  0  0  0  0  0  0  0  0  0  0
   69.5360   37.0890   59.7783 F   0  0  0  0  0  0  0  0  0  0  0  0
   71.1874   36.9225   58.2325 F   0  0  0  0  0  0  0  0  0  0  0  0
   71.5873   37.7690   60.2647 F   0  0  0  0  0  0  0  0  0  0  0  0
   67.6355   47.5131   56.2752 O   0  0  0  0  0  0  0  0  0  0  0  0
   68.4571   46.8011   55.5910 C   0  0  0  0  0  0  0  0  0  0  0  0
   68.9161   47.3443   54.3444 C   0  0  0  0  0  0  0  0  0  0  0  0
   69.5920   48.5767   54.3426 C   0  0  0  0  0  0  0  0  0  0  0  0
   70.0884   49.1339   53.1922 C   0  0  0  0  0  0  0  0  0  0  0  0
   70.6825   50.2337   53.2461 O   0  0  0  0  0  0  0  0  0  0  0  0
   69.9342   48.5000   52.0193 N   0  0  0  0  0  0  0  0  0  0  0  0
   70.4496   49.0810   50.8860 O   0  0  0  0  0  0  0  0  0  0  0  0
   69.2867   47.3148   52.0009 C   0  0  0  0  0  0  0  0  0  0  0  0
   69.1704   46.7688   50.8858 O   0  0  0  0  0  0  0  0  0  0  0  0
   68.7999   46.7716   53.1476 N   0  0  0  0  0  0  0  0  0  0  0  0
 17 18  2  0
 18  1  1  0
 18 19  1  0
  1  2  2  0
  1  6  1  0
  2  3  1  0
  3  4  2  0
  4  7  1  0
  4  5  1  0
  7  8  2  0
  7 12  1  0
  8  9  1  0
  9 10  2  0
 10 13  1  0
 10 11  1  0
 13 14  1  0
 13 15  1  0
 13 16  1  0
 11 12  2  0
  5  6  2  0
 19 20  2  0
 19 27  1  0
 20 21  1  0
 21 22  2  0
 21 23  1  0
 23 24  1  0
 23 25  1  0
 25 26  2  0
 25 27  1  0
M  END
>  <minimizedAffinity>  (520) 
-8.69879

$$$$
data/reference_output_2/data/smiles/120091.pdb
     RDKit          3D

 27 29  0  0  0  0  0  0  0  0999 V2000
   68.8518   45.2211   55.9817 C   0  0  0  0  0  0  0  0  0  0  0  0
   68.2519   45.3300   54.7138 C   0  0  0  0  0  0  0  0  0  0  0  0
   68.2158   46.5274   54.1014 C   0  0  0  0  0  0  0  0  0  0  0  0
   68.7597   47.6680   54.6895 C   0  0  0  0  0  0  0  0  0  0  0  0
   69.3359   47.6041   55.8961 N   0  0  0  0  0  0  0  0  0  0  0  0
   69.3577   46.3693   56.4945 C   0  0  0  0  0  0  0  0  0  0  0  0
   69.9105   46.3195   57.6400 O   0  0  0  0  0  0  0  0  0  0  0  0
   68.9248   49.0472   54.2628 C   0  0  0  0  0  0  0  0  0  0  0  0
   70.1331   49.0918   53.3526 C   0  0  0  0  0  0  0  0  0  0  0  0
   69.7605   48.5007   52.0064 C   0  0  0  0  0  0  0  0  0  0  0  0
   69.8061   46.9930   52.0242 C   0  0  0  0  0  0  0  0  0  0  0  0
   68.4747   46.3843   51.6253 C   0  0  0  0  0  0  0  0  0  0  0  0
   67.5258   46.3020   52.8034 C   0  0  0  0  0  0  0  0  0  0  0  0
   67.7597   43.0773   56.8522 N   0  0  0  0  0  0  0  0  0  0  0  0
   68.8737   43.9041   56.6171 C   0  0  0  0  0  0  0  0  0  0  0  0
   69.9927   43.4172   57.0129 O   0  0  0  0  0  0  0  0  0  0  0  0
   67.8887   41.7686   57.5014 C   0  0  0  0  0  0  0  0  0  0  0  0
   67.1985   40.9930   55.3531 O   0  0  0  0  0  0  0  0  0  0  0  0
   67.6791   40.7190   56.4734 C   0  0  0  0  0  0  0  0  0  0  0  0
   68.0189   39.3813   56.7376 O   0  0  0  0  0  0  0  0  0  0  0  0
   69.8598   48.6822   56.6485 C   0  0  0  0  0  0  0  0  0  0  0  0
   68.9988   49.1892   57.7779 C   0  0  0  0  0  0  0  0  0  0  0  0
   69.5202   50.5368   58.2599 C   0  0  0  0  0  0  0  0  0  0  0  0
   69.2667   51.6195   57.2346 C   0  0  0  0  0  0  0  0  0  0  0  0
   67.8143   51.6205   56.8703 C   0  0  0  0  0  0  0  0  0  0  0  0
   66.9714   50.6475   57.6252 C   0  0  0  0  0  0  0  0  0  0  0  0
   67.5481   49.2260   57.6386 C   0  0  0  0  0  0  0  0  0  0  0  0
 18 19  2  0
 19 20  1  0
 19 17  1  0
 17 14  1  0
 14 15  1  0
 15 16  2  0
 15  1  1  0
  1  2  2  0
  1  6  1  0
  2  3  1  0
  3  4  2  0
  3 13  1  0
  4  5  1  0
  4  8  1  0
  5 21  1  0
  5  6  1  0
 21 22  1  0
 22 23  1  0
 22 27  1  0
 23 24  1  0
 24 25  1  0
 25 26  1  0
 26 27  1  0
  6  7  2  0
  8  9  1  0
  9 10  1  0
 10 11  1  0
 11 12  1  0
 12 13  1  0
M  END
>  <minimizedAffinity>  (521) 
-8.69801

$$$$
data/reference_output_2/data/smiles/134082.pdb
     RDKit          3D

 25 27  0  0  0  0  0  0  0  0999 V2000
   68.8659   45.2395   56.2043 C   0  0  0  0  0  0  0  0  0  0  0  0
   69.4711   46.1292   57.1080 C   0  0  0  0  0  0  0  0  0  0  0  0
   69.5684   47.4752   56.8704 C   0  0  0  0  0  0  0  0  0  0  0  0
   69.0692   48.0347   55.7138 C   0  0  0  0  0  0  0  0  0  0  0  0
   68.4734   47.1791   54.8201 C   0  0  0  0  0  0  0  0  0  0  0  0
   68.3739   45.7968   55.0654 C   0  0  0  0  0  0  0  0  0  0  0  0
   67.7757   45.0067   54.1446 F   0  0  0  0  0  0  0  0  0  0  0  0
   68.3060   39.7180   57.3466 N   0  0  0  0  0  0  0  0  0  0  0  0
   68.4626   41.1074   57.0662 C   0  0  0  0  0  0  0  0  0  0  0  0
   67.4864   41.8462   56.4332 C   0  0  0  0  0  0  0  0  0  0  0  0
   67.6642   43.1502   56.1840 N   0  0  0  0  0  0  0  0  0  0  0  0
   68.8047   43.8263   56.5342 C   0  0  0  0  0  0  0  0  0  0  0  0
   69.7528   43.0787   57.1563 C   0  0  0  0  0  0  0  0  0  0  0  0
   69.5869   41.7483   57.4179 N   0  0  0  0  0  0  0  0  0  0  0  0
   69.1845   49.4708   55.4580 C   0  0  0  0  0  0  0  0  0  0  0  0
   69.4093   50.3195   56.5292 C   0  0  0  0  0  0  0  0  0  0  0  0
   69.5494   51.6795   56.3636 C   0  0  0  0  0  0  0  0  0  0  0  0
   69.4699   52.2474   55.1165 C   0  0  0  0  0  0  0  0  0  0  0  0
   69.2464   51.4128   54.0420 C   0  0  0  0  0  0  0  0  0  0  0  0
   69.1066   50.0509   54.2164 C   0  0  0  0  0  0  0  0  0  0  0  0
   68.8559   49.2420   53.0875 N   0  0  0  0  0  0  0  0  0  0  0  0
   70.0700   48.8475   51.9283 S   0  0  0  0  0  0  0  0  0  0  0  0
   69.8543   47.2329   51.3525 N   0  0  0  0  0  0  0  0  0  0  0  0
   71.4330   48.9220   52.5526 O   0  0  0  0  0  0  0  0  0  0  0  0
   70.0134   49.7589   50.7380 O   0  0  0  0  0  0  0  0  0  0  0  0
  8  9  1  0
  9 10  2  0
  9 14  1  0
 10 11  1  0
 11 12  2  0
 12  1  1  0
 12 13  1  0
  1  2  2  0
  1  6  1  0
  2  3  1  0
  3  4  2  0
  4 15  1  0
  4  5  1  0
 15 16  2  0
 15 20  1  0
 16 17  1  0
 17 18  2  0
 18 19  1  0
 19 20  2  0
 20 21  1  0
 21 22  1  0
 22 23  1  0
 22 24  2  0
 22 25  2  0
  5  6  2  0
  6  7  1  0
 13 14  2  0
M  END
>  <minimizedAffinity>  (522) 
-8.69771

$$$$
data/reference_output_2/data/smiles/115778.pdb
     RDKit          3D

 26 28  0  0  0  0  0  0  0  0999 V2000
   70.2872   49.6052   54.2836 C   0  0  0  0  0  0  0  0  0  0  0  0
   70.0274   49.0620   55.5687 C   0  0  0  0  0  0  0  0  0  0  0  0
   69.3975   47.9044   55.4819 N   0  0  0  0  0  0  0  0  0  0  0  0
   69.2145   47.6305   54.1851 C   0  0  0  0  0  0  0  0  0  0  0  0
   68.6177   46.5373   53.5544 C   0  0  0  0  0  0  0  0  0  0  0  0
   68.5373   46.4291   52.1844 C   0  0  0  0  0  0  0  0  0  0  0  0
   69.0743   47.4555   51.4625 C   0  0  0  0  0  0  0  0  0  0  0  0
   69.6712   48.5492   52.0728 C   0  0  0  0  0  0  0  0  0  0  0  0
   69.7553   48.6660   53.4432 C   0  0  0  0  0  0  0  0  0  0  0  0
   70.0762   52.0924   54.0892 C   0  0  0  0  0  0  0  0  0  0  0  0
   70.9767   50.8362   54.1146 C   0  0  0  0  0  0  0  0  0  0  0  0
   72.1545   51.0684   54.0177 N   0  0  0  0  0  0  0  0  0  0  0  0
   73.2583   50.3956   53.9864 N   0  0  0  0  0  0  0  0  0  0  0  0
   74.3449   50.5712   54.9384 C   0  0  0  0  0  0  0  0  0  0  0  0
   75.5312   49.7980   54.8466 N   0  0  0  0  0  0  0  0  0  0  0  0
   74.2595   51.4123   55.8661 O   0  0  0  0  0  0  0  0  0  0  0  0
   68.8933   46.9517   56.8179 S   0  0  0  0  0  0  0  0  0  0  0  0
   67.6540   47.5484   57.4369 O   0  0  0  0  0  0  0  0  0  0  0  0
   68.4925   45.5714   56.3253 O   0  0  0  0  0  0  0  0  0  0  0  0
   70.1532   46.7405   58.0029 C   0  0  0  0  0  0  0  0  0  0  0  0
   70.6246   45.5039   58.3618 C   0  0  0  0  0  0  0  0  0  0  0  0
   71.6343   45.4031   59.3266 C   0  0  0  0  0  0  0  0  0  0  0  0
   72.1871   46.5058   59.9417 C   0  0  0  0  0  0  0  0  0  0  0  0
   73.2625   46.3841   60.9684 C   0  0  0  0  0  0  0  0  0  0  0  0
   71.7041   47.7429   59.5712 C   0  0  0  0  0  0  0  0  0  0  0  0
   70.7103   47.8597   58.6241 C   0  0  0  0  0  0  0  0  0  0  0  0
 10 11  1  0
 11 12  2  0
 11  1  1  0
 12 13  1  0
 13 14  1  0
 14 15  1  0
 14 16  2  0
  1  2  2  0
  1  9  1  0
  2  3  1  0
  3 17  1  0
  3  4  1  0
 17 18  2  0
 17 19  2  0
 17 20  1  0
 20 21  2  0
 20 26  1  0
 21 22  1  0
 22 23  2  0
 23 24  1  0
 23 25  1  0
 25 26  2  0
  4  5  1  0
  4  9  2  0
  5  6  2  0
  6  7  1  0
  7  8  2  0
  8  9  1  0
M  END
>  <minimizedAffinity>  (523) 
-8.69750

$$$$
data/200k_reference_output/data/smiles/81053.pdb
     RDKit          3D

 27 31  0  0  0  0  0  0  0  0999 V2000
   72.0781   50.7640   54.5409 C   0  0  0  0  0  0  0  0  0  0  0  0
   71.6738   49.5911   54.0082 N   0  0  0  0  0  0  0  0  0  0  0  0
   70.3580   49.4942   53.9744 N   0  0  0  0  0  0  0  0  0  0  0  0
   69.8963   50.6427   54.5028 C   0  0  0  0  0  0  0  0  0  0  0  0
   70.9553   51.4507   54.8640 C   0  0  0  0  0  0  0  0  0  0  0  0
   70.4241   52.7191   55.4482 C   0  0  0  0  0  0  0  0  0  0  0  0
   68.9195   52.6409   55.2850 C   0  0  2  0  0  0  0  0  0  0  0  0
   68.2371   51.6805   56.1913 C   0  0  0  0  0  0  0  0  0  0  0  0
   68.5972   51.2961   54.8120 C   0  0  2  0  0  0  0  0  0  0  0  0
   69.5701   48.3974   53.4776 C   0  0  0  0  0  0  0  0  0  0  0  0
   68.7669   47.6614   54.3240 C   0  0  0  0  0  0  0  0  0  0  0  0
   68.0040   46.6029   53.8525 C   0  0  0  0  0  0  0  0  0  0  0  0
   68.0213   46.2473   52.5211 C   0  0  0  0  0  0  0  0  0  0  0  0
   67.2824   45.2138   52.0349 F   0  0  0  0  0  0  0  0  0  0  0  0
   68.8211   46.9773   51.6699 C   0  0  0  0  0  0  0  0  0  0  0  0
   69.5798   48.0333   52.1474 C   0  0  0  0  0  0  0  0  0  0  0  0
   70.3685   48.7486   51.2939 F   0  0  0  0  0  0  0  0  0  0  0  0
   73.8644   52.3099   54.4208 O   0  0  0  0  0  0  0  0  0  0  0  0
   73.4831   51.1601   54.7096 C   0  0  0  0  0  0  0  0  0  0  0  0
   74.3970   50.2150   55.2044 N   0  0  0  0  0  0  0  0  0  0  0  0
   75.8135   50.5146   55.4066 C   0  0  0  0  0  0  0  0  0  0  0  0
   76.3997   49.6448   56.5008 C   0  0  0  0  0  0  0  0  0  0  0  0
   75.4186   49.3389   57.5803 C   0  0  0  0  0  0  0  0  0  0  0  0
   75.6169   50.0477   58.8722 C   0  0  0  0  0  0  0  0  0  0  0  0
   76.8861   50.4935   59.1242 O   0  0  0  0  0  0  0  0  0  0  0  0
   77.8697   49.7896   58.4383 C   0  0  0  0  0  0  0  0  0  0  0  0
   77.7316   50.1504   56.9765 C   0  0  0  0  0  0  0  0  0  0  0  0
 18 19  2  0
 19 20  1  0
 19  1  1  0
 20 21  1  0
 21 22  1  0
 22 23  1  0
 22 27  1  0
 23 24  1  0
 24 25  1  0
 25 26  1  0
 26 27  1  0
  1  2  2  0
  1  5  1  0
  2  3  1  0
  3 10  1  0
  3  4  1  0
 10 11  2  0
 10 16  1  0
 11 12  1  0
 12 13  2  0
 13 14  1  0
 13 15  1  0
 15 16  2  0
 16 17  1  0
  4  5  2  0
  4  9  1  0
  5  6  1  0
  7  6  1  1
  7  8  1  0
  7  9  1  0
  9  8  1  1
M  END
>  <minimizedAffinity>  (524) 
-8.69689

$$$$
data/reference_output_2/data/smiles/182341.pdb
     RDKit          3D

 28 31  0  0  0  0  0  0  0  0999 V2000
   70.4387   43.4293   57.8382 C   0  0  0  0  0  0  0  0  0  0  0  0
   70.0625   44.5516   57.9008 N   0  0  0  0  0  0  0  0  0  0  0  0
   70.7814   45.6064   58.1884 C   0  0  0  0  0  0  0  0  0  0  0  0
   72.0890   45.4524   58.4477 C   0  0  0  0  0  0  0  0  0  0  0  0
   72.2024   43.6135   58.2375 S   0  0  0  0  0  0  0  0  0  0  0  0
   72.8125   46.6560   58.7517 C   0  0  0  0  0  0  0  0  0  0  0  0
   71.8747   47.7504   58.2660 C   0  0  0  0  0  0  0  0  0  0  0  0
   70.5261   47.0920   58.3248 C   0  0  1  0  0  0  0  0  0  0  0  0
   68.6518   41.6757   58.1300 C   0  0  0  0  0  0  0  0  0  0  0  0
   68.0883   42.4954   58.8993 O   0  0  0  0  0  0  0  0  0  0  0  0
   69.8701   42.0877   57.5465 N   0  0  0  0  0  0  0  0  0  0  0  0
   68.0547   40.3365   57.8544 C   0  0  2  0  0  0  0  0  0  0  0  0
   69.1445   39.3266   58.2496 C   0  0  0  0  0  0  0  0  0  0  0  0
   67.1731   41.1945   55.7712 C   0  0  0  0  0  0  0  0  0  0  0  0
   67.8205   40.1155   56.4528 N   0  0  0  0  0  0  0  0  0  0  0  0
   69.5798   47.6022   57.3328 C   0  0  0  0  0  0  0  0  0  0  0  0
   68.3287   47.5371   57.5677 O   0  0  0  0  0  0  0  0  0  0  0  0
   69.9479   48.1768   56.0989 N   0  0  0  0  0  0  0  0  0  0  0  0
   68.9699   48.6677   55.1503 C   0  0  1  0  0  0  0  0  0  0  0  0
   69.2822   50.0704   54.7052 C   0  0  0  0  0  0  0  0  0  0  0  0
   69.8012   50.2217   53.3293 C   0  0  0  0  0  0  0  0  0  0  0  0
   70.3310   48.9643   52.6855 C   0  0  0  0  0  0  0  0  0  0  0  0
   69.3776   47.8369   52.8191 C   0  0  0  0  0  0  0  0  0  0  0  0
   69.1357   46.9435   51.8025 C   0  0  0  0  0  0  0  0  0  0  0  0
   68.2398   45.9103   51.9709 C   0  0  0  0  0  0  0  0  0  0  0  0
   67.5990   45.8020   53.1853 C   0  0  0  0  0  0  0  0  0  0  0  0
   67.8477   46.7092   54.2101 C   0  0  0  0  0  0  0  0  0  0  0  0
   68.7426   47.7400   54.0381 C   0  0  0  0  0  0  0  0  0  0  0  0
 14 15  1  0
 15 12  1  0
 12 13  1  6
 12  9  1  0
  9 10  2  0
  9 11  1  0
 11  1  1  0
  1  2  2  0
  1  5  1  0
  2  3  1  0
  3  4  2  0
  3  8  1  0
  4  5  1  0
  4  6  1  0
  6  7  1  0
  7  8  1  0
  8 16  1  6
 16 17  2  0
 16 18  1  0
 19 18  1  6
 19 20  1  0
 19 28  1  0
 20 21  1  0
 21 22  1  0
 22 23  1  0
 23 24  2  0
 23 28  1  0
 24 25  1  0
 25 26  2  0
 26 27  1  0
 27 28  2  0
M  CHG  1  15   1
M  END
>  <minimizedAffinity>  (525) 
-8.69681

$$$$
data/200k_reference_output/data/smiles/43801.pdb
     RDKit          3D

 27 30  0  0  0  0  0  0  0  0999 V2000
   69.5127   42.4891   57.8243 C   0  0  0  0  0  0  0  0  0  0  0  0
   68.4135   41.6235   57.6788 C   0  0  0  0  0  0  0  0  0  0  0  0
   68.5392   40.2701   57.8522 C   0  0  0  0  0  0  0  0  0  0  0  0
   69.7475   39.6795   58.1770 C   0  0  0  0  0  0  0  0  0  0  0  0
   69.8951   38.3545   58.3551 N   0  0  0  0  0  0  0  0  0  0  0  0
   71.1104   37.8164   58.6802 C   0  0  0  0  0  0  0  0  0  0  0  0
   72.1997   38.5894   58.8321 N   0  0  0  0  0  0  0  0  0  0  0  0
   72.0434   39.9177   58.6526 C   0  0  0  0  0  0  0  0  0  0  0  0
   73.0394   40.6791   58.7858 O   0  0  0  0  0  0  0  0  0  0  0  0
   70.8413   40.4966   58.3259 C   0  0  0  0  0  0  0  0  0  0  0  0
   70.7009   41.8809   58.1472 C   0  0  0  0  0  0  0  0  0  0  0  0
   73.3460   37.7498   59.1752 C   0  0  0  0  0  0  0  0  0  0  0  0
   72.9444   36.3749   58.7544 C   0  0  0  0  0  0  0  0  0  0  0  0
   71.4446   36.3890   58.9190 C   0  0  0  0  0  0  0  0  0  0  0  0
   70.2467   44.9182   57.7521 C   0  0  0  0  0  0  0  0  0  0  0  0
   71.4453   44.5873   58.0724 O   0  0  0  0  0  0  0  0  0  0  0  0
   69.3135   43.8815   57.6386 N   0  0  0  0  0  0  0  0  0  0  0  0
   70.0506   46.3515   57.5594 C   0  0  0  0  0  0  0  0  0  0  0  0
   68.9443   46.8164   56.8349 N   0  0  0  0  0  0  0  0  0  0  0  0
   69.1582   47.7309   55.7673 C   0  0  0  0  0  0  0  0  0  0  0  0
   70.0264   49.0311   53.2785 C   0  0  0  0  0  0  0  0  0  0  0  0
   69.2072   47.7850   53.2924 C   0  0  0  0  0  0  0  0  0  0  0  0
   68.8374   47.2143   52.0744 C   0  0  0  0  0  0  0  0  0  0  0  0
   68.0829   46.0649   52.0022 C   0  0  0  0  0  0  0  0  0  0  0  0
   67.6808   45.4598   53.1640 C   0  0  0  0  0  0  0  0  0  0  0  0
   68.0490   46.0282   54.3878 C   0  0  0  0  0  0  0  0  0  0  0  0
   68.8007   47.1746   54.4415 C   0  0  0  0  0  0  0  0  0  0  0  0
 21 22  1  0
 22 23  2  0
 22 27  1  0
 23 24  1  0
 24 25  2  0
 25 26  1  0
 26 27  2  0
 27 20  1  0
 20 19  1  0
 19 18  1  0
 18 15  1  0
 15 16  2  0
 15 17  1  0
 17  1  1  0
  1  2  2  0
  1 11  1  0
  2  3  1  0
  3  4  2  0
  4  5  1  0
  4 10  1  0
  5  6  2  0
  6  7  1  0
  6 14  1  0
  7  8  1  0
  7 12  1  0
  8  9  2  0
  8 10  1  0
 10 11  2  0
 12 13  1  0
 13 14  1  0
M  CHG  1  19   1
M  END
>  <minimizedAffinity>  (526) 
-8.69562

$$$$
data/200k_reference_output/data/smiles/58963.pdb
     RDKit          3D

 28 32  0  0  0  0  0  0  0  0999 V2000
   71.7866   35.8510   53.3307 O   0  0  0  0  0  0  0  0  0  0  0  0
   72.9484   35.4461   53.6319 C   0  0  0  0  0  0  0  0  0  0  0  0
   73.8083   34.9834   52.7015 N   0  0  0  0  0  0  0  0  0  0  0  0
   75.0438   34.5512   53.0138 C   0  0  0  0  0  0  0  0  0  0  0  0
   75.4002   34.5966   54.3095 N   0  0  0  0  0  0  0  0  0  0  0  0
   74.5722   35.0513   55.2776 C   0  0  0  0  0  0  0  0  0  0  0  0
   74.9449   35.0944   56.6052 C   0  0  0  0  0  0  0  0  0  0  0  0
   74.0797   35.5641   57.5798 C   0  0  0  0  0  0  0  0  0  0  0  0
   72.8072   36.0116   57.2725 C   0  0  0  0  0  0  0  0  0  0  0  0
   72.4461   35.9640   55.9408 C   0  0  0  0  0  0  0  0  0  0  0  0
   73.3050   35.4959   54.9645 C   0  0  0  0  0  0  0  0  0  0  0  0
   75.9672   34.0458   51.9530 C   0  0  2  0  0  0  0  0  0  0  0  0
   76.8370   32.9376   52.4594 C   0  0  0  0  0  0  0  0  0  0  0  0
   78.1502   33.4517   52.6554 N   0  0  0  0  0  0  0  0  0  0  0  0
   78.1918   34.8033   52.2008 C   0  0  0  0  0  0  0  0  0  0  0  0
   76.9221   35.1002   51.4833 C   0  0  1  0  0  0  0  0  0  0  0  0
   77.0304   34.9871   50.0140 C   0  0  0  0  0  0  0  0  0  0  0  0
   78.0102   35.6928   49.3584 C   0  0  0  0  0  0  0  0  0  0  0  0
   78.1759   35.6333   47.9778 C   0  0  0  0  0  0  0  0  0  0  0  0
   77.3434   34.8510   47.2371 C   0  0  0  0  0  0  0  0  0  0  0  0
   77.5011   34.7885   45.8807 F   0  0  0  0  0  0  0  0  0  0  0  0
   76.3533   34.1322   47.8564 C   0  0  0  0  0  0  0  0  0  0  0  0
   76.1995   34.2023   49.2474 C   0  0  0  0  0  0  0  0  0  0  0  0
   71.9133   36.5022   58.3150 C   0  0  0  0  0  0  0  0  0  0  0  0
   71.2617   35.7826   59.2920 C   0  0  0  0  0  0  0  0  0  0  0  0
   70.5401   36.6241   60.0432 N   0  0  0  0  0  0  0  0  0  0  0  0
   70.6851   37.8672   59.6078 N   0  0  0  0  0  0  0  0  0  0  0  0
   71.5331   37.8134   58.5371 C   0  0  0  0  0  0  0  0  0  0  0  0
  1  2  2  0
  2  3  1  0
  2 11  1  0
  3  4  1  0
 12  4  1  1
  4  5  2  0
 12 13  1  0
 12 16  1  0
 13 14  1  0
 14 15  1  0
 15 16  1  0
 16 17  1  6
 17 18  2  0
 17 23  1  0
 18 19  1  0
 19 20  2  0
 20 21  1  0
 20 22  1  0
 22 23  2  0
  5  6  1  0
  6  7  1  0
  6 11  2  0
  7  8  2  0
  8  9  1  0
  9 24  1  0
  9 10  2  0
 24 25  1  0
 24 28  2  0
 25 26  2  0
 26 27  1  0
 27 28  1  0
 10 11  1  0
M  CHG  1  14   1
M  END
>  <minimizedAffinity>  (527) 
-8.69542

$$$$
data/200k_reference_output/data/smiles/60397.pdb
     RDKit          3D

 28 32  0  0  0  0  0  0  0  0999 V2000
   72.0987   42.6314   56.9875 O   0  0  0  0  0  0  0  0  0  0  0  0
   71.4402   41.8302   57.7625 C   0  0  0  0  0  0  0  0  0  0  0  0
   70.0714   42.0802   57.8157 N   0  0  0  0  0  0  0  0  0  0  0  0
   72.1793   40.7927   58.4687 C   0  0  0  0  0  0  0  0  0  0  0  0
   73.4782   40.9776   58.9028 N   0  0  0  0  0  0  0  0  0  0  0  0
   73.9174   39.9059   59.5018 N   0  0  0  0  0  0  0  0  0  0  0  0
   72.9436   38.9485   59.5037 C   0  0  0  0  0  0  0  0  0  0  0  0
   71.8776   39.5073   58.8629 C   0  0  0  0  0  0  0  0  0  0  0  0
   70.6255   38.7608   58.6602 C   0  0  0  0  0  0  0  0  0  0  0  0
   70.6585   37.3090   59.0203 C   0  0  0  0  0  0  0  0  0  0  0  0
   72.0491   36.7503   59.1384 C   0  0  2  0  0  0  0  0  0  0  0  0
   72.7454   36.6246   57.8001 C   0  0  0  0  0  0  0  0  0  0  0  0
   73.6436   35.4230   58.0474 C   0  0  0  0  0  0  0  0  0  0  0  0
   73.3110   34.8986   59.2647 O   0  0  0  0  0  0  0  0  0  0  0  0
   71.9999   35.2915   59.5382 C   0  0  0  0  0  0  0  0  0  0  0  0
   72.9090   37.5695   60.0437 C   0  0  0  0  0  0  0  0  0  0  0  0
   69.4015   43.1128   57.0974 C   0  0  0  0  0  0  0  0  0  0  0  0
   68.2322   42.9355   56.3888 C   0  0  0  0  0  0  0  0  0  0  0  0
   67.8975   44.1229   55.8454 N   0  0  0  0  0  0  0  0  0  0  0  0
   68.7781   45.0435   56.1613 N   0  0  0  0  0  0  0  0  0  0  0  0
   69.7083   44.4315   56.9327 C   0  0  0  0  0  0  0  0  0  0  0  0
   68.7345   46.4248   55.7527 C   0  0  0  0  0  0  0  0  0  0  0  0
   68.6403   46.5849   54.2806 C   0  0  0  0  0  0  0  0  0  0  0  0
   69.3418   47.5835   53.6489 C   0  0  0  0  0  0  0  0  0  0  0  0
   69.2830   47.7695   52.2788 C   0  0  0  0  0  0  0  0  0  0  0  0
   68.4983   46.9307   51.5200 C   0  0  0  0  0  0  0  0  0  0  0  0
   67.7887   45.9239   52.1462 C   0  0  0  0  0  0  0  0  0  0  0  0
   67.8596   45.7525   53.5185 C   0  0  0  0  0  0  0  0  0  0  0  0
  1  2  2  0
  2  3  1  0
  2  4  1  0
  3 17  1  0
 17 18  1  0
 17 21  2  0
 18 19  2  0
 19 20  1  0
 20 22  1  0
 20 21  1  0
 22 23  1  0
 23 24  2  0
 23 28  1  0
 24 25  1  0
 25 26  2  0
 26 27  1  0
 27 28  2  0
  4  5  2  0
  4  8  1  0
  5  6  1  0
  6  7  1  0
  7  8  2  0
  7 16  1  0
  8  9  1  0
  9 10  1  0
 11 10  1  6
 11 12  1  0
 11 15  1  0
 11 16  1  0
 12 13  1  0
 13 14  1  0
 14 15  1  0
M  END
>  <minimizedAffinity>  (528) 
-8.69504

$$$$
data/reference_output_2/data/smiles/113269.pdb
     RDKit          3D

 25 27  0  0  0  0  0  0  0  0999 V2000
   68.7084   47.9695   56.7474 C   0  0  1  0  0  0  0  0  0  0  0  0
   67.5683   47.4363   57.3657 O   0  0  0  0  0  0  0  0  0  0  0  0
   69.9011   47.4554   57.4612 C   0  0  0  0  0  0  0  0  0  0  0  0
   70.7834   48.2936   58.1072 C   0  0  0  0  0  0  0  0  0  0  0  0
   71.8997   47.7921   58.7784 C   0  0  0  0  0  0  0  0  0  0  0  0
   72.1519   46.4352   58.8140 C   0  0  0  0  0  0  0  0  0  0  0  0
   73.5539   45.7774   59.6537 Cl  0  0  0  0  0  0  0  0  0  0  0  0
   71.2666   45.5891   58.1658 C   0  0  0  0  0  0  0  0  0  0  0  0
   70.1696   46.1038   57.5081 C   0  0  0  0  0  0  0  0  0  0  0  0
   69.3551   45.1863   56.8989 F   0  0  0  0  0  0  0  0  0  0  0  0
   69.2644   47.8135   52.9694 C   0  0  0  0  0  0  0  0  0  0  0  0
   68.5536   46.6649   52.6735 C   0  0  0  0  0  0  0  0  0  0  0  0
   67.9125   45.9619   53.6702 C   0  0  0  0  0  0  0  0  0  0  0  0
   67.9692   46.3961   54.9955 C   0  0  0  0  0  0  0  0  0  0  0  0
   68.6711   47.5369   55.3177 C   0  0  0  0  0  0  0  0  0  0  0  0
   69.2980   48.2164   54.3045 C   0  0  0  0  0  0  0  0  0  0  0  0
   70.0322   49.9648   51.9755 N   0  0  0  0  0  0  0  0  0  0  0  0
   69.9402   48.5574   51.9257 C   0  0  0  0  0  0  0  0  0  0  0  0
   70.4483   47.9402   50.9703 O   0  0  0  0  0  0  0  0  0  0  0  0
   68.6133   49.4464   56.7473 C   0  0  0  0  0  0  0  0  0  0  0  0
   69.5230   50.2190   56.0607 C   0  0  0  0  0  0  0  0  0  0  0  0
   69.4478   51.5700   56.0542 N   0  0  0  0  0  0  0  0  0  0  0  0
   68.4711   52.1893   56.7248 C   0  0  0  0  0  0  0  0  0  0  0  0
   67.5780   51.4531   57.3977 N   0  0  0  0  0  0  0  0  0  0  0  0
   67.6145   50.0995   57.4335 C   0  0  0  0  0  0  0  0  0  0  0  0
 17 18  1  0
 18 19  2  0
 18 11  1  0
 11 12  2  0
 11 16  1  0
 12 13  1  0
 13 14  2  0
 14 15  1  0
 15  1  1  0
 15 16  2  0
  1  2  1  1
  1 20  1  0
  1  3  1  0
 20 21  2  0
 20 25  1  0
 21 22  1  0
 22 23  2  0
 23 24  1  0
 24 25  2  0
  3  4  2  0
  3  9  1  0
  4  5  1  0
  5  6  2  0
  6  7  1  0
  6  8  1  0
  8  9  2  0
  9 10  1  0
M  END
>  <minimizedAffinity>  (529) 
-8.69438

$$$$
data/reference_output_2/data/smiles/188213.pdb
     RDKit          3D

 27 30  0  0  0  0  0  0  0  0999 V2000
   70.1692   46.5106   57.9532 C   0  0  0  0  0  0  0  0  0  0  0  0
   70.6936   46.1897   59.0559 O   0  0  0  0  0  0  0  0  0  0  0  0
   69.6293   45.4582   57.1735 N   0  0  0  0  0  0  0  0  0  0  0  0
   70.3357   48.8479   58.6066 N   0  0  0  0  0  0  0  0  0  0  0  0
   70.1431   47.9360   57.5369 C   0  0  2  0  0  0  0  0  0  0  0  0
   68.9697   48.2829   56.6962 C   0  0  0  0  0  0  0  0  0  0  0  0
   69.2674   48.3814   55.2324 C   0  0  0  0  0  0  0  0  0  0  0  0
   70.0750   49.3159   54.6279 C   0  0  0  0  0  0  0  0  0  0  0  0
   70.1139   49.0523   53.3266 N   0  0  0  0  0  0  0  0  0  0  0  0
   69.3436   47.9574   53.0542 C   0  0  0  0  0  0  0  0  0  0  0  0
   69.0793   47.3232   51.8543 C   0  0  0  0  0  0  0  0  0  0  0  0
   68.2381   46.2108   51.8528 C   0  0  0  0  0  0  0  0  0  0  0  0
   67.7117   45.8014   53.0587 C   0  0  0  0  0  0  0  0  0  0  0  0
   67.9680   46.4236   54.2575 C   0  0  0  0  0  0  0  0  0  0  0  0
   68.8028   47.5265   54.2565 C   0  0  0  0  0  0  0  0  0  0  0  0
   69.6705   44.1280   57.5925 N   0  0  0  0  0  0  0  0  0  0  0  0
   69.1762   43.1267   56.9946 C   0  0  0  0  0  0  0  0  0  0  0  0
   69.2586   41.7440   57.4959 C   0  0  0  0  0  0  0  0  0  0  0  0
   68.1672   40.9023   57.4466 C   0  0  0  0  0  0  0  0  0  0  0  0
   68.2536   39.6095   57.9168 C   0  0  0  0  0  0  0  0  0  0  0  0
   69.4401   39.1166   58.4536 C   0  0  0  0  0  0  0  0  0  0  0  0
   69.5044   37.8351   58.9139 N   0  0  0  0  0  0  0  0  0  0  0  0
   70.6498   37.3592   59.4310 C   0  0  0  0  0  0  0  0  0  0  0  0
   71.7291   38.2137   59.4721 C   0  0  0  0  0  0  0  0  0  0  0  0
   71.6581   39.4763   59.0167 N   0  0  0  0  0  0  0  0  0  0  0  0
   70.5108   39.9752   58.4900 C   0  0  0  0  0  0  0  0  0  0  0  0
   70.4261   41.2605   58.0229 C   0  0  0  0  0  0  0  0  0  0  0  0
  5  4  1  1
  5  6  1  0
  5  1  1  0
  6  7  1  0
  7  8  2  0
  7 15  1  0
  8  9  1  0
  9 10  1  0
 10 11  1  0
 10 15  2  0
 11 12  2  0
 12 13  1  0
 13 14  2  0
 14 15  1  0
  1  2  2  0
  1  3  1  0
  3 16  1  0
 16 17  2  0
 17 18  1  0
 18 19  2  0
 18 27  1  0
 19 20  1  0
 20 21  2  0
 21 22  1  0
 21 26  1  0
 22 23  2  0
 23 24  1  0
 24 25  2  0
 25 26  1  0
 26 27  2  0
M  CHG  1   4   1
M  END
>  <minimizedAffinity>  (530) 
-8.69400

$$$$
data/200k_reference_output/data/smiles/55783.pdb
     RDKit          3D

 26 28  0  0  0  0  0  0  0  0999 V2000
   68.3508   42.0205   57.0954 C   0  0  0  0  0  0  0  0  0  0  0  0
   68.9180   43.2283   56.7336 C   0  0  0  0  0  0  0  0  0  0  0  0
   68.1102   43.8435   55.7982 C   0  0  0  0  0  0  0  0  0  0  0  0
   67.1060   43.0220   55.6202 O   0  0  0  0  0  0  0  0  0  0  0  0
   67.2240   41.9590   56.3618 N   0  0  0  0  0  0  0  0  0  0  0  0
   68.3067   45.1297   55.1332 C   0  0  0  0  0  0  0  0  0  0  0  0
   68.8061   46.2225   55.8076 C   0  0  0  0  0  0  0  0  0  0  0  0
   69.0022   47.4457   55.2108 C   0  0  0  0  0  0  0  0  0  0  0  0
   68.6917   47.6301   53.8560 C   0  0  0  0  0  0  0  0  0  0  0  0
   68.1935   46.5382   53.1848 C   0  0  0  0  0  0  0  0  0  0  0  0
   67.9970   45.2947   53.8019 C   0  0  0  0  0  0  0  0  0  0  0  0
   68.9209   48.8925   53.2800 N   0  0  0  0  0  0  0  0  0  0  0  0
   70.0611   49.1986   52.4983 C   0  0  0  0  0  0  0  0  0  0  0  0
   71.1998   49.2933   53.0742 N   0  0  0  0  0  0  0  0  0  0  0  0
   69.9740   49.3964   51.0857 N   0  0  0  0  0  0  0  0  0  0  0  0
   68.6821   39.6292   57.7759 N   0  0  0  0  0  0  0  0  0  0  0  0
   68.8282   41.0180   58.0454 C   0  0  0  0  0  0  0  0  0  0  0  0
   69.3682   41.3660   59.1014 O   0  0  0  0  0  0  0  0  0  0  0  0
   70.8928   37.0767   59.2620 C   0  0  0  0  0  0  0  0  0  0  0  0
   70.1483   36.5936   60.3020 C   0  0  0  0  0  0  0  0  0  0  0  0
   68.8897   37.1075   60.5330 C   0  0  0  0  0  0  0  0  0  0  0  0
   68.3940   38.1061   59.7106 C   0  0  0  0  0  0  0  0  0  0  0  0
   69.1236   38.6106   58.6564 C   0  0  0  0  0  0  0  0  0  0  0  0
   70.3786   38.0772   58.4507 C   0  0  0  0  0  0  0  0  0  0  0  0
   72.6761   36.4717   57.7312 C   0  0  0  0  0  0  0  0  0  0  0  0
   72.1554   36.5484   59.0449 O   0  0  0  0  0  0  0  0  0  0  0  0
 25 26  1  0
 26 19  1  0
 19 20  2  0
 19 24  1  0
 20 21  1  0
 21 22  2  0
 22 23  1  0
 23 16  1  0
 23 24  2  0
 16 17  1  0
 17 18  2  0
 17  1  1  0
  1  2  1  0
  1  5  2  0
  2  3  2  0
  3  6  1  0
  3  4  1  0
  6  7  2  0
  6 11  1  0
  7  8  1  0
  8  9  2  0
  9 12  1  0
  9 10  1  0
 12 13  1  0
 13 14  2  0
 13 15  1  0
 10 11  2  0
  4  5  1  0
M  CHG  1  14   1
M  END
>  <minimizedAffinity>  (531) 
-8.69329

$$$$
data/200k_reference_output/data/smiles/39580.pdb
     RDKit          3D

 27 29  0  0  0  0  0  0  0  0999 V2000
   72.1381   46.1027   58.5281 O   0  0  0  0  0  0  0  0  0  0  0  0
   70.9383   46.4754   58.5233 C   0  0  0  0  0  0  0  0  0  0  0  0
   69.8661   45.6022   58.8621 N   0  0  0  0  0  0  0  0  0  0  0  0
   70.1504   44.2882   59.1990 N   0  0  0  0  0  0  0  0  0  0  0  0
   70.0194   43.1944   58.3072 C   0  0  0  0  0  0  0  0  0  0  0  0
   69.6185   43.4562   57.1496 O   0  0  0  0  0  0  0  0  0  0  0  0
   70.3505   41.8268   58.7497 C   0  0  0  0  0  0  0  0  0  0  0  0
   71.0678   41.7253   59.7792 O   0  0  0  0  0  0  0  0  0  0  0  0
   69.9241   40.6557   58.1078 N   0  0  0  0  0  0  0  0  0  0  0  0
   70.2455   39.3447   58.5399 C   0  0  0  0  0  0  0  0  0  0  0  0
   71.3918   38.7068   58.1545 C   0  0  0  0  0  0  0  0  0  0  0  0
   71.7209   37.4098   58.5729 C   0  0  0  0  0  0  0  0  0  0  0  0
   70.8631   36.7302   59.4106 C   0  0  0  0  0  0  0  0  0  0  0  0
   69.7115   37.3705   59.7992 C   0  0  0  0  0  0  0  0  0  0  0  0
   69.3818   38.6476   59.3900 C   0  0  0  0  0  0  0  0  0  0  0  0
   70.5888   47.8888   58.1449 C   0  0  0  0  0  0  0  0  0  0  0  0
   69.3928   47.9134   57.4338 O   0  0  0  0  0  0  0  0  0  0  0  0
   69.2306   47.7895   56.0676 C   0  0  0  0  0  0  0  0  0  0  0  0
   69.7323   48.7243   55.1699 C   0  0  0  0  0  0  0  0  0  0  0  0
   69.5572   48.5737   53.8253 C   0  0  0  0  0  0  0  0  0  0  0  0
   68.8792   47.4966   53.2946 C   0  0  0  0  0  0  0  0  0  0  0  0
   68.7268   47.3761   51.9151 C   0  0  0  0  0  0  0  0  0  0  0  0
   68.0560   46.3026   51.3765 C   0  0  0  0  0  0  0  0  0  0  0  0
   67.5540   45.3670   52.2863 C   0  0  0  0  0  0  0  0  0  0  0  0
   67.7039   45.4827   53.6482 C   0  0  0  0  0  0  0  0  0  0  0  0
   68.3798   46.5682   54.1621 C   0  0  0  0  0  0  0  0  0  0  0  0
   68.5466   46.7022   55.5278 C   0  0  0  0  0  0  0  0  0  0  0  0
  1  2  2  0
  2 16  1  0
  2  3  1  0
 16 17  1  0
 17 18  1  0
 18 19  2  0
 18 27  1  0
 19 20  1  0
 20 21  2  0
 21 22  1  0
 21 26  1  0
 22 23  2  0
 23 24  1  0
 24 25  2  0
 25 26  1  0
 26 27  2  0
  3  4  1  0
  4  5  1  0
  5  6  2  0
  5  7  1  0
  7  8  2  0
  7  9  1  0
  9 10  1  0
 10 11  2  0
 10 15  1  0
 11 12  1  0
 12 13  2  0
 13 14  1  0
 14 15  2  0
M  END
>  <minimizedAffinity>  (532) 
-8.69290

$$$$
data/200k_reference_output/data/smiles/57411.pdb
     RDKit          3D

 28 31  0  0  0  0  0  0  0  0999 V2000
   71.7083   51.9527   54.6641 C   0  0  0  0  0  0  0  0  0  0  0  0
   70.9179   50.7035   54.8206 C   0  0  0  0  0  0  0  0  0  0  0  0
   70.5926   50.0466   55.9806 C   0  0  0  0  0  0  0  0  0  0  0  0
   69.8616   48.8905   55.6409 C   0  0  0  0  0  0  0  0  0  0  0  0
   69.7660   48.8772   54.3194 N   0  0  0  0  0  0  0  0  0  0  0  0
   70.3913   49.9481   53.8297 N   0  0  0  0  0  0  0  0  0  0  0  0
   69.0668   47.8082   53.6435 C   0  0  0  0  0  0  0  0  0  0  0  0
   68.9771   47.8087   52.2706 C   0  0  0  0  0  0  0  0  0  0  0  0
   68.2968   46.7659   51.6308 C   0  0  0  0  0  0  0  0  0  0  0  0
   67.7088   45.7328   52.3289 C   0  0  0  0  0  0  0  0  0  0  0  0
   67.0404   44.7151   51.6442 O   0  0  0  0  0  0  0  0  0  0  0  0
   67.8082   45.7470   53.7030 C   0  0  0  0  0  0  0  0  0  0  0  0
   68.4868   46.7864   54.3405 C   0  0  0  0  0  0  0  0  0  0  0  0
   68.5566   46.7446   55.8119 C   0  0  0  0  0  0  0  0  0  0  0  0
   69.2702   47.8365   56.4771 C   0  0  0  0  0  0  0  0  0  0  0  0
   73.1755   51.7642   54.5302 C   0  0  0  0  0  0  0  0  0  0  0  0
   74.0784   51.7920   56.7533 O   0  0  0  0  0  0  0  0  0  0  0  0
   73.8747   51.1842   55.6840 C   0  0  0  0  0  0  0  0  0  0  0  0
   74.3620   49.8273   55.5889 N   0  0  0  0  0  0  0  0  0  0  0  0
   75.0417   49.2133   56.6648 C   0  0  0  0  0  0  0  0  0  0  0  0
   74.3822   48.5031   57.6562 C   0  0  0  0  0  0  0  0  0  0  0  0
   75.0497   47.9102   58.6987 C   0  0  0  0  0  0  0  0  0  0  0  0
   76.4217   47.9932   58.8070 C   0  0  0  0  0  0  0  0  0  0  0  0
   77.0914   48.6950   57.8286 C   0  0  0  0  0  0  0  0  0  0  0  0
   76.4141   49.3018   56.7645 C   0  0  0  0  0  0  0  0  0  0  0  0
   77.1934   50.0243   55.7738 C   0  0  0  0  0  0  0  0  0  0  0  0
   77.6502   49.3884   54.7935 O   0  0  0  0  0  0  0  0  0  0  0  0
   77.4572   51.3765   55.8573 O   0  0  0  0  0  0  0  0  0  0  0  0
 17 18  2  0
 18 16  1  0
 18 19  1  0
 16  1  1  0
  1  2  1  0
  2  3  1  0
  2  6  2  0
  3  4  2  0
  4  5  1  0
  4 15  1  0
  5  6  1  0
  5  7  1  0
  7  8  2  0
  7 13  1  0
  8  9  1  0
  9 10  2  0
 10 11  1  0
 10 12  1  0
 12 13  2  0
 13 14  1  0
 14 15  1  0
 19 20  1  0
 20 21  2  0
 20 25  1  0
 21 22  1  0
 22 23  2  0
 23 24  1  0
 24 25  2  0
 25 26  1  0
 26 27  2  0
 26 28  1  0
M  END
>  <minimizedAffinity>  (533) 
-8.69205

$$$$
data/reference_output_2/data/smiles/100823.pdb
     RDKit          3D

 28 30  0  0  0  0  0  0  0  0999 V2000
   70.0677   48.3302   57.2387 C   0  0  0  0  0  0  0  0  0  0  0  0
   70.5818   49.5251   57.3760 O   0  0  0  0  0  0  0  0  0  0  0  0
   70.8055   47.3330   57.8713 N   0  0  0  0  0  0  0  0  0  0  0  0
   72.0298   47.6800   58.6450 C   0  0  0  0  0  0  0  0  0  0  0  0
   71.8880   47.0184   59.9930 C   0  0  0  0  0  0  0  0  0  0  0  0
   72.0690   47.6721   61.0237 O   0  0  0  0  0  0  0  0  0  0  0  0
   71.5472   45.6430   60.0290 N   0  0  0  0  0  0  0  0  0  0  0  0
   70.8113   45.1161   58.9239 C   0  0  0  0  0  0  0  0  0  0  0  0
   70.4620   43.7700   58.9010 C   0  0  0  0  0  0  0  0  0  0  0  0
   69.7628   43.2290   57.8499 C   0  0  0  0  0  0  0  0  0  0  0  0
   69.4267   44.0815   56.8232 C   0  0  0  0  0  0  0  0  0  0  0  0
   69.7690   45.4360   56.8291 C   0  0  0  0  0  0  0  0  0  0  0  0
   70.4677   45.9801   57.8803 C   0  0  0  0  0  0  0  0  0  0  0  0
   69.3896   41.7913   57.8266 C   0  0  0  0  0  0  0  0  0  0  0  0
   68.6374   41.5484   56.6943 F   0  0  0  0  0  0  0  0  0  0  0  0
   70.4606   40.9553   57.9255 F   0  0  0  0  0  0  0  0  0  0  0  0
   68.5772   41.5558   58.9341 F   0  0  0  0  0  0  0  0  0  0  0  0
   68.8421   48.3141   56.4641 C   0  0  0  0  0  0  0  0  0  0  0  0
   69.1500   48.6167   55.0811 O   0  0  0  0  0  0  0  0  0  0  0  0
   69.3049   47.9104   52.8279 C   0  0  0  0  0  0  0  0  0  0  0  0
   69.0109   47.0694   51.7693 C   0  0  0  0  0  0  0  0  0  0  0  0
   68.1645   45.9985   52.0190 C   0  0  0  0  0  0  0  0  0  0  0  0
   67.6390   45.7783   53.2603 C   0  0  0  0  0  0  0  0  0  0  0  0
   67.9622   46.6452   54.2872 C   0  0  0  0  0  0  0  0  0  0  0  0
   68.7906   47.7218   54.1085 C   0  0  0  0  0  0  0  0  0  0  0  0
   69.8043   50.1814   51.8471 N   0  0  0  0  0  0  0  0  0  0  0  0
   70.1928   49.0462   52.5919 C   0  0  0  0  0  0  0  0  0  0  0  0
   71.3656   49.0547   53.0579 O   0  0  0  0  0  0  0  0  0  0  0  0
 26 27  1  0
 27 28  2  0
 27 20  1  0
 20 21  2  0
 20 25  1  0
 21 22  1  0
 22 23  2  0
 23 24  1  0
 24 25  2  0
 25 19  1  0
 19 18  1  0
 18  1  1  0
  1  2  2  0
  1  3  1  0
  3  4  1  0
  3 13  1  0
  4  5  1  0
  5  6  2  0
  5  7  1  0
  7  8  1  0
  8  9  2  0
  8 13  1  0
  9 10  1  0
 10 14  1  0
 10 11  2  0
 14 15  1  0
 14 16  1  0
 14 17  1  0
 11 12  1  0
 12 13  2  0
M  END
>  <minimizedAffinity>  (534) 
-8.69199

$$$$
data/reference_output_2/data/smiles/183162.pdb
     RDKit          3D

 27 30  0  0  0  0  0  0  0  0999 V2000
   70.5982   39.0707   58.4511 C   0  0  0  0  0  0  0  0  0  0  0  0
   69.2851   38.7478   58.6056 N   0  0  0  0  0  0  0  0  0  0  0  0
   68.5314   39.8326   58.5334 N   0  0  0  0  0  0  0  0  0  0  0  0
   69.2944   40.9229   58.3294 C   0  0  0  0  0  0  0  0  0  0  0  0
   69.0255   42.2819   58.1818 C   0  0  0  0  0  0  0  0  0  0  0  0
   70.0396   43.1958   57.9783 C   0  0  0  0  0  0  0  0  0  0  0  0
   71.2893   42.6979   57.9327 N   0  0  0  0  0  0  0  0  0  0  0  0
   71.5783   41.3884   58.0734 C   0  0  0  0  0  0  0  0  0  0  0  0
   70.5896   40.4470   58.2773 C   0  0  0  0  0  0  0  0  0  0  0  0
   73.2140   35.2192   56.7071 C   0  0  0  0  0  0  0  0  0  0  0  0
   73.0615   36.3324   57.6607 C   0  0  0  0  0  0  0  0  0  0  0  0
   71.9321   37.1366   57.5919 C   0  0  0  0  0  0  0  0  0  0  0  0
   71.7487   38.1882   58.4635 C   0  0  0  0  0  0  0  0  0  0  0  0
   72.7373   38.3950   59.3962 C   0  0  0  0  0  0  0  0  0  0  0  0
   73.8679   37.5704   59.4467 C   0  0  0  0  0  0  0  0  0  0  0  0
   74.0122   36.5502   58.5763 N   0  0  0  0  0  0  0  0  0  0  0  0
   69.7793   44.5951   57.8237 N   0  0  0  0  0  0  0  0  0  0  0  0
   69.1765   45.0484   56.6051 C   0  0  0  0  0  0  0  0  0  0  0  0
   68.9062   44.1918   55.7295 O   0  0  0  0  0  0  0  0  0  0  0  0
   68.8773   46.4005   56.3479 N   0  0  0  0  0  0  0  0  0  0  0  0
   68.2735   46.7920   55.0951 C   0  0  0  0  0  0  0  0  0  0  0  0
   68.8889   48.0761   54.5956 C   0  0  0  0  0  0  0  0  0  0  0  0
   69.2909   47.8460   53.1872 C   0  0  0  0  0  0  0  0  0  0  0  0
   70.2352   48.5251   52.4249 C   0  0  0  0  0  0  0  0  0  0  0  0
   70.2605   47.9633   51.1903 N   0  0  0  0  0  0  0  0  0  0  0  0
   69.3748   46.9703   51.1606 N   0  0  0  0  0  0  0  0  0  0  0  0
   68.7742   46.8828   52.3658 C   0  0  0  0  0  0  0  0  0  0  0  0
 10 11  1  0
 11 12  2  0
 11 16  1  0
 12 13  1  0
 13  1  1  0
 13 14  2  0
  1  2  2  0
  1  9  1  0
  2  3  1  0
  3  4  1  0
  4  5  1  0
  4  9  2  0
  5  6  2  0
  6 17  1  0
  6  7  1  0
 17 18  1  0
 18 19  2  0
 18 20  1  0
 20 21  1  0
 21 22  1  0
 22 23  1  0
 23 24  1  0
 23 27  2  0
 24 25  2  0
 25 26  1  0
 26 27  1  0
  7  8  2  0
  8  9  1  0
 14 15  1  0
 15 16  2  0
M  END
>  <minimizedAffinity>  (535) 
-8.69111

$$$$
data/200k_reference_output/data/smiles/33158.pdb
     RDKit          3D

 25 26  0  0  0  0  0  0  0  0999 V2000
   72.9045   51.3747   53.9970 N   0  0  0  0  0  0  0  0  0  0  0  0
   72.1606   50.1727   53.8869 N   0  0  0  0  0  0  0  0  0  0  0  0
   70.8487   50.1339   53.3960 C   0  0  0  0  0  0  0  0  0  0  0  0
   70.3311   51.2317   53.0432 O   0  0  0  0  0  0  0  0  0  0  0  0
   70.0399   48.9247   53.2613 C   0  0  0  0  0  0  0  0  0  0  0  0
   69.9381   48.2254   52.0783 C   0  0  0  0  0  0  0  0  0  0  0  0
   69.1644   47.0771   51.9699 C   0  0  0  0  0  0  0  0  0  0  0  0
   68.4562   46.5770   53.0423 C   0  0  0  0  0  0  0  0  0  0  0  0
   68.5552   47.2770   54.2344 C   0  0  0  0  0  0  0  0  0  0  0  0
   69.3239   48.4155   54.3365 C   0  0  0  0  0  0  0  0  0  0  0  0
   67.6611   45.4026   52.9410 N   0  0  0  0  0  0  0  0  0  0  0  0
   67.6131   44.6353   53.9179 O   0  0  0  0  0  0  0  0  0  0  0  0
   66.9387   45.0572   51.8313 O   0  0  0  0  0  0  0  0  0  0  0  0
   73.7134   51.6572   55.1107 C   0  0  0  0  0  0  0  0  0  0  0  0
   72.9330   52.3400   56.4047 S   0  0  0  0  0  0  0  0  0  0  0  0
   75.7162   50.2226   55.6480 C   0  0  0  0  0  0  0  0  0  0  0  0
   74.9895   49.2415   55.9028 O   0  0  0  0  0  0  0  0  0  0  0  0
   75.0925   51.4287   55.2547 N   0  0  0  0  0  0  0  0  0  0  0  0
   81.4334   49.3639   56.0534 C   0  0  0  0  0  0  0  0  0  0  0  0
   79.9710   49.6082   55.9699 C   0  0  0  0  0  0  0  0  0  0  0  0
   79.1766   48.8300   55.1552 C   0  0  0  0  0  0  0  0  0  0  0  0
   77.8174   49.0385   55.0639 C   0  0  0  0  0  0  0  0  0  0  0  0
   77.1652   50.0408   55.7809 C   0  0  0  0  0  0  0  0  0  0  0  0
   77.9570   50.8156   56.5931 C   0  0  0  0  0  0  0  0  0  0  0  0
   79.3402   50.6008   56.6842 C   0  0  0  0  0  0  0  0  0  0  0  0
 19 20  1  0
 20 21  2  0
 20 25  1  0
 21 22  1  0
 22 23  2  0
 23 16  1  0
 23 24  1  0
 16 17  2  0
 16 18  1  0
 18 14  1  0
 14 15  2  0
 14  1  1  0
  1  2  1  0
  2  3  1  0
  3  4  2  0
  3  5  1  0
  5  6  2  0
  5 10  1  0
  6  7  1  0
  7  8  2  0
  8 11  1  0
  8  9  1  0
 11 12  2  0
 11 13  1  0
  9 10  2  0
 24 25  2  0
M  CHG  2  11   1  13  -1
M  END
>  <minimizedAffinity>  (536) 
-8.69016

$$$$
data/200k_reference_output/data/smiles/13227.pdb
     RDKit          3D

 26 28  0  0  0  0  0  0  0  0999 V2000
   68.5816   39.7580   59.6571 N   0  0  0  0  0  0  0  0  0  0  0  0
   68.0375   39.0701   58.5716 C   0  0  0  0  0  0  0  0  0  0  0  0
   68.1591   39.8564   57.2997 C   0  0  0  0  0  0  0  0  0  0  0  0
   68.2066   41.3268   57.6416 C   0  0  0  0  0  0  0  0  0  0  0  0
   67.2382   41.5342   58.8146 C   0  0  0  0  0  0  0  0  0  0  0  0
   67.9768   40.9746   60.0377 C   0  0  0  0  0  0  0  0  0  0  0  0
   70.1347   39.4388   60.1478 S   0  0  0  0  0  0  0  0  0  0  0  0
   71.0018   40.6476   59.9408 O   0  0  0  0  0  0  0  0  0  0  0  0
   70.1425   39.1693   61.6473 O   0  0  0  0  0  0  0  0  0  0  0  0
   72.7252   34.6575   57.5187 C   0  0  0  0  0  0  0  0  0  0  0  0
   72.1002   35.8420   58.1457 C   0  0  0  0  0  0  0  0  0  0  0  0
   72.2532   37.1047   57.6133 C   0  0  0  0  0  0  0  0  0  0  0  0
   71.6563   38.2147   58.2179 C   0  0  0  0  0  0  0  0  0  0  0  0
   70.8973   38.0798   59.3626 C   0  0  0  0  0  0  0  0  0  0  0  0
   70.7649   36.7913   59.8694 C   0  0  0  0  0  0  0  0  0  0  0  0
   71.3496   35.6954   59.2810 C   0  0  0  0  0  0  0  0  0  0  0  0
   71.1381   34.0929   59.9797 Cl  0  0  0  0  0  0  0  0  0  0  0  0
   67.7846   42.1868   56.5330 C   0  0  0  0  0  0  0  0  0  0  0  0
   66.9858   41.7261   55.6781 O   0  0  0  0  0  0  0  0  0  0  0  0
   68.2156   43.5244   56.3435 N   0  0  0  0  0  0  0  0  0  0  0  0
   67.7925   44.3188   55.2722 N   0  0  0  0  0  0  0  0  0  0  0  0
   68.2926   45.6229   55.0189 C   0  0  0  0  0  0  0  0  0  0  0  0
   69.1612   46.0544   55.8211 O   0  0  0  0  0  0  0  0  0  0  0  0
   67.8485   46.4667   53.8881 C   0  0  0  0  0  0  0  0  0  0  0  0
   68.8252   46.9430   52.8752 C   0  0  0  0  0  0  0  0  0  0  0  0
   67.8460   45.8988   52.4911 C   0  0  0  0  0  0  0  0  0  0  0  0
 10 11  1  0
 11 12  2  0
 11 16  1  0
 12 13  1  0
 13 14  2  0
 14  7  1  0
 14 15  1  0
  7  8  2  0
  7  9  2  0
  7  1  1  0
  1  2  1  0
  1  6  1  0
  2  3  1  0
  3  4  1  0
  4 18  1  0
  4  5  1  0
 18 19  2  0
 18 20  1  0
 20 21  1  0
 21 22  1  0
 22 23  2  0
 22 24  1  0
 24 25  1  0
 24 26  1  0
 25 26  1  0
  5  6  1  0
 15 16  2  0
 16 17  1  0
M  END
>  <minimizedAffinity>  (537) 
-8.68972

$$$$
data/reference_output_2/data/smiles/107648.pdb
     RDKit          3D

 27 30  0  0  0  0  0  0  0  0999 V2000
   72.2888   47.3354   59.9498 C   0  0  0  0  0  0  0  0  0  0  0  0
   72.2902   45.9728   59.7509 C   0  0  0  0  0  0  0  0  0  0  0  0
   71.4319   45.4164   58.7997 C   0  0  0  0  0  0  0  0  0  0  0  0
   70.6012   46.1838   58.0703 N   0  0  0  0  0  0  0  0  0  0  0  0
   69.7121   45.8992   57.1341 N   0  0  0  0  0  0  0  0  0  0  0  0
   69.1005   47.0011   56.6811 C   0  0  0  0  0  0  0  0  0  0  0  0
   69.6871   48.0346   57.4230 C   0  0  0  0  0  0  0  0  0  0  0  0
   70.6171   47.5160   58.2828 C   0  0  0  0  0  0  0  0  0  0  0  0
   71.4499   48.0733   59.2085 N   0  0  0  0  0  0  0  0  0  0  0  0
   71.4486   43.9852   58.6100 C   0  0  0  0  0  0  0  0  0  0  0  0
   70.4326   43.1831   59.0801 C   0  0  0  0  0  0  0  0  0  0  0  0
   70.4394   41.8071   58.9086 C   0  0  0  0  0  0  0  0  0  0  0  0
   71.4860   41.2112   58.2499 C   0  0  0  0  0  0  0  0  0  0  0  0
   71.5052   39.8510   58.0731 F   0  0  0  0  0  0  0  0  0  0  0  0
   72.5014   41.9733   57.7741 C   0  0  0  0  0  0  0  0  0  0  0  0
   72.4808   43.3502   57.9537 C   0  0  0  0  0  0  0  0  0  0  0  0
   74.3923   48.5909   60.5897 N   0  0  0  0  0  0  0  0  0  0  0  0
   73.1798   47.9604   60.9454 C   0  0  0  0  0  0  0  0  0  0  0  0
   72.8419   47.9258   62.1405 O   0  0  0  0  0  0  0  0  0  0  0  0
   68.0490   47.2101   55.6673 C   0  0  0  0  0  0  0  0  0  0  0  0
   68.1907   46.4238   54.4292 C   0  0  0  0  0  0  0  0  0  0  0  0
   68.8965   47.1683   53.3724 C   0  0  0  0  0  0  0  0  0  0  0  0
   69.2855   48.4916   53.6237 C   0  0  0  0  0  0  0  0  0  0  0  0
   69.9110   49.2128   52.6350 C   0  0  0  0  0  0  0  0  0  0  0  0
   70.1461   48.6242   51.4145 C   0  0  0  0  0  0  0  0  0  0  0  0
   69.7667   47.3648   51.2017 N   0  0  0  0  0  0  0  0  0  0  0  0
   69.1482   46.6235   52.1504 C   0  0  0  0  0  0  0  0  0  0  0  0
 17 18  1  0
 18 19  2  0
 18  1  1  0
  1  2  1  0
  1  9  2  0
  2  3  2  0
  3 10  1  0
  3  4  1  0
 10 11  2  0
 10 16  1  0
 11 12  1  0
 12 13  2  0
 13 14  1  0
 13 15  1  0
 15 16  2  0
  4  5  1  0
  4  8  1  0
  5  6  2  0
  6 20  1  0
  6  7  1  0
 20 21  1  0
 21 22  1  0
 22 23  2  0
 22 27  1  0
 23 24  1  0
 24 25  2  0
 25 26  1  0
 26 27  2  0
  7  8  2  0
  8  9  1  0
M  END
>  <minimizedAffinity>  (538) 
-8.68942

$$$$
data/reference_output_2/data/smiles/131494.pdb
     RDKit          3D

 27 29  0  0  0  0  0  0  0  0999 V2000
   69.2235   49.1663   54.1614 N   0  0  0  0  0  0  0  0  0  0  0  0
   68.9136   47.8472   54.1278 C   0  0  0  0  0  0  0  0  0  0  0  0
   68.4138   47.1459   55.2194 C   0  0  0  0  0  0  0  0  0  0  0  0
   68.2537   47.8993   56.3414 C   0  0  0  0  0  0  0  0  0  0  0  0
   67.8038   47.4110   57.4239 O   0  0  0  0  0  0  0  0  0  0  0  0
   68.5655   49.2723   56.3869 C   0  0  0  0  0  0  0  0  0  0  0  0
   68.3811   50.0163   57.5318 C   0  0  0  0  0  0  0  0  0  0  0  0
   68.6850   51.3739   57.5406 C   0  0  0  0  0  0  0  0  0  0  0  0
   69.1874   52.0212   56.4089 C   0  0  0  0  0  0  0  0  0  0  0  0
   69.4894   53.4807   56.4286 C   0  0  0  0  0  0  0  0  0  0  0  0
   69.3414   51.2335   55.3393 N   0  0  0  0  0  0  0  0  0  0  0  0
   69.0554   49.9221   55.2907 C   0  0  0  0  0  0  0  0  0  0  0  0
   68.3017   45.7095   55.1958 C   0  0  0  0  0  0  0  0  0  0  0  0
   67.9559   45.2250   54.0002 O   0  0  0  0  0  0  0  0  0  0  0  0
   68.4676   44.7074   56.0804 N   0  0  0  0  0  0  0  0  0  0  0  0
   68.5004   43.4577   56.5289 N   0  0  0  0  0  0  0  0  0  0  0  0
   69.6335   42.9489   57.3209 C   0  0  0  0  0  0  0  0  0  0  0  0
   70.5327   43.8025   57.5364 O   0  0  0  0  0  0  0  0  0  0  0  0
   69.7606   41.6229   57.8080 C   0  0  0  0  0  0  0  0  0  0  0  0
   68.7088   40.7013   57.7800 C   0  0  0  0  0  0  0  0  0  0  0  0
   68.9071   39.3698   58.2068 C   0  0  0  0  0  0  0  0  0  0  0  0
   70.1408   38.9586   58.6530 C   0  0  0  0  0  0  0  0  0  0  0  0
   70.3810   37.2904   59.2230 Cl  0  0  0  0  0  0  0  0  0  0  0  0
   71.2004   39.8523   58.6942 C   0  0  0  0  0  0  0  0  0  0  0  0
   70.9633   41.1614   58.2666 C   0  0  0  0  0  0  0  0  0  0  0  0
   70.0476   48.7589   51.9528 C   0  0  0  0  0  0  0  0  0  0  0  0
   69.7893   49.7922   53.0032 C   0  0  0  0  0  0  0  0  0  0  0  0
 26 27  1  0
 27  1  1  0
  1  2  1  0
  1 12  1  0
  2  3  2  0
  3 13  1  0
  3  4  1  0
 13 14  2  0
 13 15  1  0
 15 16  1  0
 16 17  1  0
 17 18  2  0
 17 19  1  0
 19 20  2  0
 19 25  1  0
 20 21  1  0
 21 22  2  0
 22 23  1  0
 22 24  1  0
 24 25  2  0
  4  5  2  0
  4  6  1  0
  6  7  1  0
  6 12  2  0
  7  8  2  0
  8  9  1  0
  9 10  1  0
  9 11  2  0
 11 12  1  0
M  END
>  <minimizedAffinity>  (539) 
-8.68939

$$$$
data/reference_output_2/data/smiles/136949.pdb
     RDKit          3D

 28 31  0  0  0  0  0  0  0  0999 V2000
   68.8288   46.9927   56.6437 C   0  0  2  0  0  0  0  0  0  0  0  0
   68.7436   46.8969   55.1231 C   0  0  0  0  0  0  0  0  0  0  0  0
   69.3715   47.8346   54.3629 C   0  0  0  0  0  0  0  0  0  0  0  0
   69.3178   47.7830   52.9622 C   0  0  0  0  0  0  0  0  0  0  0  0
   68.6178   46.7671   52.3825 C   0  0  0  0  0  0  0  0  0  0  0  0
   67.9721   45.8062   53.1088 C   0  0  0  0  0  0  0  0  0  0  0  0
   68.0459   45.8867   54.5049 C   0  0  0  0  0  0  0  0  0  0  0  0
   68.2706   48.2666   56.9918 C   0  0  0  0  0  0  0  0  0  0  0  0
   66.9371   48.1183   57.1333 O   0  0  0  0  0  0  0  0  0  0  0  0
   68.7374   49.5994   57.2184 C   0  0  0  0  0  0  0  0  0  0  0  0
   69.2752   50.0060   58.4616 C   0  0  0  0  0  0  0  0  0  0  0  0
   69.6256   51.2930   58.4090 N   0  0  0  0  0  0  0  0  0  0  0  0
   69.3585   51.8009   57.1926 C   0  0  0  0  0  0  0  0  0  0  0  0
   69.5449   53.0639   56.6730 C   0  0  0  0  0  0  0  0  0  0  0  0
   69.1720   53.2906   55.3722 C   0  0  0  0  0  0  0  0  0  0  0  0
   68.6300   52.2577   54.6428 C   0  0  0  0  0  0  0  0  0  0  0  0
   68.4503   50.9981   55.1795 C   0  0  0  0  0  0  0  0  0  0  0  0
   68.8081   50.7374   56.4648 C   0  0  0  0  0  0  0  0  0  0  0  0
   70.0640   46.5575   57.0411 O   0  0  0  0  0  0  0  0  0  0  0  0
   70.4559   46.2647   58.3319 C   0  0  0  0  0  0  0  0  0  0  0  0
   69.9193   45.2961   58.9142 O   0  0  0  0  0  0  0  0  0  0  0  0
   73.9692   49.4899   60.9245 O   0  0  0  0  0  0  0  0  0  0  0  0
   73.4094   48.5038   60.4356 C   0  0  0  0  0  0  0  0  0  0  0  0
   73.7279   48.0629   59.0562 C   0  0  0  0  0  0  0  0  0  0  0  0
   72.4549   47.8425   58.2908 C   0  0  0  0  0  0  0  0  0  0  0  0
   71.4850   47.0488   59.0582 C   0  0  0  0  0  0  0  0  0  0  0  0
   71.5064   47.0192   60.3394 N   0  0  0  0  0  0  0  0  0  0  0  0
   72.4362   47.7195   61.1243 N   0  0  0  0  0  0  0  0  0  0  0  0
 22 23  2  0
 23 24  1  0
 23 28  1  0
 24 25  1  0
 25 26  1  0
 26 20  1  0
 26 27  2  0
 20 21  2  0
 20 19  1  0
  1 19  1  6
  1  8  1  0
  1  2  1  0
  8  9  2  0
  8 10  1  0
 10 11  2  0
 10 18  1  0
 11 12  1  0
 12 13  1  0
 13 14  1  0
 13 18  2  0
 14 15  2  0
 15 16  1  0
 16 17  2  0
 17 18  1  0
  2  3  2  0
  2  7  1  0
  3  4  1  0
  4  5  2  0
  5  6  1  0
  6  7  2  0
 27 28  1  0
M  END
>  <minimizedAffinity>  (540) 
-8.68929

$$$$
data/reference_output_2/data/smiles/108976.pdb
     RDKit          3D

 27 29  0  0  0  0  0  0  0  0999 V2000
   73.5019   35.1425   53.3395 C   0  0  0  0  0  0  0  0  0  0  0  0
   72.7532   35.3847   54.4957 C   0  0  0  0  0  0  0  0  0  0  0  0
   73.3864   35.4358   55.7094 C   0  0  0  0  0  0  0  0  0  0  0  0
   74.7573   35.2451   55.7602 C   0  0  0  0  0  0  0  0  0  0  0  0
   75.4680   35.0084   54.6043 C   0  0  0  0  0  0  0  0  0  0  0  0
   74.8598   34.9517   53.3712 C   0  0  0  0  0  0  0  0  0  0  0  0
   72.6334   35.6896   56.9536 C   0  0  0  0  0  0  0  0  0  0  0  0
   72.2872   36.9613   57.2789 N   0  0  0  0  0  0  0  0  0  0  0  0
   71.6041   37.2741   58.3950 C   0  0  0  0  0  0  0  0  0  0  0  0
   71.2190   36.2839   59.2747 C   0  0  0  0  0  0  0  0  0  0  0  0
   71.5703   34.9961   58.9432 C   0  0  0  0  0  0  0  0  0  0  0  0
   71.2328   34.0875   59.7235 O   0  0  0  0  0  0  0  0  0  0  0  0
   72.2685   34.7245   57.7944 N   0  0  0  0  0  0  0  0  0  0  0  0
   70.4778   36.6097   60.4897 C   0  0  0  0  0  0  0  0  0  0  0  0
   69.2411   36.5592   60.5618 O   0  0  0  0  0  0  0  0  0  0  0  0
   71.1648   37.0001   61.6436 O   0  0  0  0  0  0  0  0  0  0  0  0
   72.3585   35.0489   50.9936 N   0  0  0  0  0  0  0  0  0  0  0  0
   72.8678   35.0835   52.0485 C   0  0  0  0  0  0  0  0  0  0  0  0
   75.5881   34.7176   52.2640 O   0  0  0  0  0  0  0  0  0  0  0  0
   76.8605   35.1018   51.9214 C   0  0  0  0  0  0  0  0  0  0  0  0
   76.9792   35.0450   50.4221 C   0  0  0  0  0  0  0  0  0  0  0  0
   77.9077   35.8441   49.7717 C   0  0  0  0  0  0  0  0  0  0  0  0
   78.0463   35.8215   48.4005 C   0  0  0  0  0  0  0  0  0  0  0  0
   77.2519   34.9885   47.6380 C   0  0  0  0  0  0  0  0  0  0  0  0
   77.4269   35.0011   46.2937 F   0  0  0  0  0  0  0  0  0  0  0  0
   76.3290   34.1912   48.2666 C   0  0  0  0  0  0  0  0  0  0  0  0
   76.1958   34.2217   49.6523 C   0  0  0  0  0  0  0  0  0  0  0  0
 17 18  3  0
 18  1  1  0
  1  2  2  0
  1  6  1  0
  2  3  1  0
  3  7  1  0
  3  4  2  0
  7  8  2  0
  7 13  1  0
  8  9  1  0
  9 10  2  0
 10 14  1  0
 10 11  1  0
 14 15  2  0
 14 16  1  0
 11 12  2  0
 11 13  1  0
  4  5  1  0
  5  6  2  0
  6 19  1  0
 19 20  1  0
 20 21  1  0
 21 22  2  0
 21 27  1  0
 22 23  1  0
 23 24  2  0
 24 25  1  0
 24 26  1  0
 26 27  2  0
M  END
>  <minimizedAffinity>  (541) 
-8.68768

$$$$
data/reference_output_2/data/smiles/135353.pdb
     RDKit          3D

 26 28  0  0  0  0  0  0  0  0999 V2000
   69.6148   48.2271   55.6232 N   0  0  0  0  0  0  0  0  0  0  0  0
   69.9336   48.8680   54.5427 N   0  0  0  0  0  0  0  0  0  0  0  0
   69.5916   48.4978   53.2700 C   0  0  0  0  0  0  0  0  0  0  0  0
   68.8448   47.3499   53.1099 C   0  0  0  0  0  0  0  0  0  0  0  0
   68.4521   46.8916   51.8719 C   0  0  0  0  0  0  0  0  0  0  0  0
   67.7046   45.7363   51.7245 C   0  0  0  0  0  0  0  0  0  0  0  0
   67.3637   45.0538   52.8698 C   0  0  0  0  0  0  0  0  0  0  0  0
   67.7493   45.5003   54.1123 C   0  0  0  0  0  0  0  0  0  0  0  0
   68.4983   46.6560   54.2713 C   0  0  0  0  0  0  0  0  0  0  0  0
   68.8854   47.1023   55.5054 C   0  0  0  0  0  0  0  0  0  0  0  0
   68.5303   46.4186   56.5017 O   0  0  0  0  0  0  0  0  0  0  0  0
   70.0136   49.3085   52.1647 C   0  0  0  0  0  0  0  0  0  0  0  0
   69.9073   50.5244   52.0876 O   0  0  0  0  0  0  0  0  0  0  0  0
   70.6061   48.6794   51.0521 O   0  0  0  0  0  0  0  0  0  0  0  0
   69.9986   48.6532   56.9526 C   0  0  0  0  0  0  0  0  0  0  0  0
   70.5159   51.1100   56.6349 N   0  0  0  0  0  0  0  0  0  0  0  0
   69.7661   50.0672   57.2492 C   0  0  0  0  0  0  0  0  0  0  0  0
   68.8845   50.4121   58.0722 O   0  0  0  0  0  0  0  0  0  0  0  0
   69.2927   53.1048   55.9886 C   0  0  0  0  0  0  0  0  0  0  0  0
   70.2826   52.5252   56.9354 C   0  0  2  0  0  0  0  0  0  0  0  0
   71.5578   53.2829   56.8866 C   0  0  0  0  0  0  0  0  0  0  0  0
   72.0447   53.7017   55.6703 C   0  0  0  0  0  0  0  0  0  0  0  0
   73.2232   54.4077   55.5470 C   0  0  0  0  0  0  0  0  0  0  0  0
   73.9725   54.7283   56.6558 C   0  0  0  0  0  0  0  0  0  0  0  0
   73.5001   54.3152   57.8865 C   0  0  0  0  0  0  0  0  0  0  0  0
   72.3038   53.6002   57.9983 C   0  0  0  0  0  0  0  0  0  0  0  0
 20 19  1  6
 20 16  1  0
 20 21  1  0
 16 17  1  0
 17 18  2  0
 17 15  1  0
 15  1  1  0
  1  2  1  0
  1 10  1  0
  2  3  2  0
  3 12  1  0
  3  4  1  0
 12 13  2  0
 12 14  1  0
  4  5  2  0
  4  9  1  0
  5  6  1  0
  6  7  2  0
  7  8  1  0
  8  9  2  0
  9 10  1  0
 10 11  2  0
 21 22  2  0
 21 26  1  0
 22 23  1  0
 23 24  2  0
 24 25  1  0
 25 26  2  0
M  END
>  <minimizedAffinity>  (542) 
-8.68614

$$$$
data/reference_output_2/data/smiles/199156.pdb
     RDKit          3D

 27 29  0  0  0  0  0  0  0  0999 V2000
   70.0980   44.1074   57.6394 C   0  0  0  0  0  0  0  0  0  0  0  0
   69.2215   44.5595   56.6768 N   0  0  0  0  0  0  0  0  0  0  0  0
   69.2432   45.8684   56.5543 C   0  0  0  0  0  0  0  0  0  0  0  0
   70.1697   46.3169   57.4706 C   0  0  0  0  0  0  0  0  0  0  0  0
   70.5092   47.6776   57.6758 N   0  0  0  0  0  0  0  0  0  0  0  0
   70.7089   45.2002   58.1486 C   0  0  0  0  0  0  0  0  0  0  0  0
   70.4957   39.8931   58.3744 C   0  0  0  0  0  0  0  0  0  0  0  0
   71.6146   40.6833   58.2997 C   0  0  0  0  0  0  0  0  0  0  0  0
   71.4935   42.0676   58.0894 C   0  0  0  0  0  0  0  0  0  0  0  0
   70.3043   42.7006   57.9466 C   0  0  0  0  0  0  0  0  0  0  0  0
   69.1677   41.8595   58.0303 C   0  0  0  0  0  0  0  0  0  0  0  0
   69.2719   40.5102   58.2353 C   0  0  0  0  0  0  0  0  0  0  0  0
   71.7407   37.7762   58.3062 C   0  0  0  0  0  0  0  0  0  0  0  0
   70.5742   38.5094   58.5817 O   0  0  0  0  0  0  0  0  0  0  0  0
   71.7608   45.3872   59.1423 C   0  0  0  0  0  0  0  0  0  0  0  0
   73.1236   45.1154   58.9489 N   0  0  0  0  0  0  0  0  0  0  0  0
   71.4691   45.8452   60.3044 O   0  0  0  0  0  0  0  0  0  0  0  0
   68.4337   46.7475   55.7058 C   0  0  0  0  0  0  0  0  0  0  0  0
   67.4941   47.4112   56.2699 O   0  0  0  0  0  0  0  0  0  0  0  0
   68.5955   46.9351   54.2847 C   0  0  0  0  0  0  0  0  0  0  0  0
   69.3201   48.0587   53.8331 C   0  0  0  0  0  0  0  0  0  0  0  0
   69.7829   48.9354   54.7500 F   0  0  0  0  0  0  0  0  0  0  0  0
   69.5205   48.2096   52.4852 C   0  0  0  0  0  0  0  0  0  0  0  0
   69.0368   47.3001   51.5691 C   0  0  0  0  0  0  0  0  0  0  0  0
   68.3239   46.1908   51.9999 C   0  0  0  0  0  0  0  0  0  0  0  0
   68.1145   46.0273   53.3767 C   0  0  0  0  0  0  0  0  0  0  0  0
   67.4722   44.9183   53.7454 F   0  0  0  0  0  0  0  0  0  0  0  0
 13 14  1  0
 14  7  1  0
  7  8  2  0
  7 12  1  0
  8  9  1  0
  9 10  2  0
 10  1  1  0
 10 11  1  0
  1  2  1  0
  1  6  2  0
  2  3  1  0
  3 18  1  0
  3  4  2  0
 18 19  2  0
 18 20  1  0
 20 21  2  0
 20 26  1  0
 21 22  1  0
 21 23  1  0
 23 24  2  0
 24 25  1  0
 25 26  2  0
 26 27  1  0
  4  5  1  0
  4  6  1  0
  6 15  1  0
 15 16  1  0
 15 17  2  0
 11 12  2  0
M  END
>  <minimizedAffinity>  (543) 
-8.68569

$$$$
data/reference_output_2/data/smiles/173720.pdb
     RDKit          3D

 27 30  0  0  0  0  0  0  0  0999 V2000
   70.1510   42.0212   59.8040 C   0  0  0  0  0  0  0  0  0  0  0  0
   69.3345   41.5933   58.6629 C   0  0  0  0  0  0  0  0  0  0  0  0
   69.0542   42.5445   57.6896 C   0  0  0  0  0  0  0  0  0  0  0  0
   69.3708   43.8773   57.5201 C   0  0  0  0  0  0  0  0  0  0  0  0
   70.0596   44.5636   58.3143 O   0  0  0  0  0  0  0  0  0  0  0  0
   68.8351   44.3399   56.3753 N   0  0  0  0  0  0  0  0  0  0  0  0
   68.1890   43.3272   55.8236 N   0  0  0  0  0  0  0  0  0  0  0  0
   68.2946   42.2143   56.5884 C   0  0  0  0  0  0  0  0  0  0  0  0
   67.8401   40.9281   56.5033 C   0  0  0  0  0  0  0  0  0  0  0  0
   68.1432   40.0040   57.5004 C   0  0  0  0  0  0  0  0  0  0  0  0
   67.7118   38.8301   57.3948 O   0  0  0  0  0  0  0  0  0  0  0  0
   68.8937   40.3305   58.5889 N   0  0  0  0  0  0  0  0  0  0  0  0
   68.9441   45.7036   55.8383 C   0  0  0  0  0  0  0  0  0  0  0  0
   68.1003   45.8217   54.5671 C   0  0  0  0  0  0  0  0  0  0  0  0
   68.7124   46.8115   53.6577 C   0  0  0  0  0  0  0  0  0  0  0  0
   69.1116   48.0476   54.1722 C   0  0  0  0  0  0  0  0  0  0  0  0
   69.6850   48.9865   53.3410 C   0  0  0  0  0  0  0  0  0  0  0  0
   69.8886   48.7608   51.9969 C   0  0  0  0  0  0  0  0  0  0  0  0
   69.4917   47.5378   51.4946 C   0  0  0  0  0  0  0  0  0  0  0  0
   68.9193   46.5963   52.3132 C   0  0  0  0  0  0  0  0  0  0  0  0
   69.1743   39.3050   59.5889 C   0  0  0  0  0  0  0  0  0  0  0  0
   70.1801   38.3135   59.1283 C   0  0  0  0  0  0  0  0  0  0  0  0
   70.2434   37.0413   59.6510 C   0  0  0  0  0  0  0  0  0  0  0  0
   71.1891   36.1053   59.2149 C   0  0  0  0  0  0  0  0  0  0  0  0
   72.0891   36.4542   58.2326 C   0  0  0  0  0  0  0  0  0  0  0  0
   72.0028   37.7333   57.7264 C   0  0  0  0  0  0  0  0  0  0  0  0
   71.0865   38.6034   58.1666 N   0  0  0  0  0  0  0  0  0  0  0  0
  1  2  1  0
  2  3  2  0
  2 12  1  0
  3  4  1  0
  3  8  1  0
  4  5  2  0
  4  6  1  0
  6 13  1  0
  6  7  1  0
 13 14  1  0
 14 15  1  0
 15 16  2  0
 15 20  1  0
 16 17  1  0
 17 18  2  0
 18 19  1  0
 19 20  2  0
  7  8  1  0
  8  9  2  0
  9 10  1  0
 10 11  2  0
 10 12  1  0
 12 21  1  0
 21 22  1  0
 22 23  2  0
 22 27  1  0
 23 24  1  0
 24 25  2  0
 25 26  1  0
 26 27  2  0
M  END
>  <minimizedAffinity>  (544) 
-8.68440

$$$$
data/reference_output_2/data/smiles/162980.pdb
     RDKit          3D

 25 26  0  0  0  0  0  0  0  0999 V2000
   67.9063   42.6817   56.1382 C   0  0  0  0  0  0  0  0  0  0  0  0
   69.0435   43.0139   56.6119 O   0  0  0  0  0  0  0  0  0  0  0  0
   67.3345   43.6155   55.2388 N   0  0  0  0  0  0  0  0  0  0  0  0
   68.0151   44.7981   54.9391 N   0  0  0  0  0  0  0  0  0  0  0  0
   67.8965   45.4822   53.7129 C   0  0  0  0  0  0  0  0  0  0  0  0
   67.1078   44.9459   52.8626 O   0  0  0  0  0  0  0  0  0  0  0  0
   68.5855   46.7111   53.3634 C   0  0  0  0  0  0  0  0  0  0  0  0
   69.1522   46.9142   52.1287 C   0  0  0  0  0  0  0  0  0  0  0  0
   69.8113   48.1082   51.8182 C   0  0  0  0  0  0  0  0  0  0  0  0
   69.9033   49.1106   52.7520 C   0  0  0  0  0  0  0  0  0  0  0  0
   69.3412   48.9220   53.9888 C   0  0  0  0  0  0  0  0  0  0  0  0
   69.4674   50.2088   55.1681 Cl  0  0  0  0  0  0  0  0  0  0  0  0
   68.6876   47.7253   54.2859 C   0  0  0  0  0  0  0  0  0  0  0  0
   67.3170   41.4201   56.5413 C   0  0  1  0  0  0  0  0  0  0  0  0
   67.4078   40.5495   55.4072 O   0  0  0  0  0  0  0  0  0  0  0  0
   68.1473   39.2717   57.2204 N   0  0  0  0  0  0  0  0  0  0  0  0
   68.1819   40.7200   57.5666 C   0  0  2  0  0  0  0  0  0  0  0  0
   67.7595   40.8016   58.9779 C   0  0  0  0  0  0  0  0  0  0  0  0
   68.5964   41.7935   59.7391 C   0  0  0  0  0  0  0  0  0  0  0  0
   68.1161   41.9164   61.1930 C   0  0  0  0  0  0  0  0  0  0  0  0
   66.7803   42.5441   61.3074 C   0  0  0  0  0  0  0  0  0  0  0  0
   65.6005   41.6672   61.3398 C   0  0  0  0  0  0  0  0  0  0  0  0
   65.8173   40.2096   61.4955 C   0  0  0  0  0  0  0  0  0  0  0  0
   65.9798   39.4861   60.1673 C   0  0  0  0  0  0  0  0  0  0  0  0
   67.4280   39.5415   59.6900 C   0  0  0  0  0  0  0  0  0  0  0  0
 17 16  1  6
 17 18  1  0
 17 14  1  0
 18 19  1  0
 18 25  1  0
 19 20  1  0
 20 21  1  0
 21 22  1  0
 22 23  1  0
 23 24  1  0
 24 25  1  0
 14 15  1  6
 14  1  1  0
  1  2  2  0
  1  3  1  0
  3  4  1  0
  4  5  1  0
  5  6  2  0
  5  7  1  0
  7  8  2  0
  7 13  1  0
  8  9  1  0
  9 10  2  0
 10 11  1  0
 11 12  1  0
 11 13  2  0
M  CHG  1  16   1
M  END
>  <minimizedAffinity>  (545) 
-8.68423

$$$$
data/200k_reference_output/data/smiles/15068.pdb
     RDKit          3D

 27 29  0  0  0  0  0  0  0  0999 V2000
   68.6255   46.1741   54.4096 C   0  0  0  0  0  0  0  0  0  0  0  0
   68.0497   45.7790   53.2062 C   0  0  0  0  0  0  0  0  0  0  0  0
   68.0963   46.5466   52.0663 C   0  0  0  0  0  0  0  0  0  0  0  0
   68.7556   47.7532   52.1756 C   0  0  0  0  0  0  0  0  0  0  0  0
   69.3341   48.1701   53.3514 C   0  0  0  0  0  0  0  0  0  0  0  0
   69.2570   47.3649   54.4522 C   0  0  0  0  0  0  0  0  0  0  0  0
   67.9577   43.9712   55.5131 N   0  0  0  0  0  0  0  0  0  0  0  0
   68.5140   45.2713   55.5643 C   0  0  0  0  0  0  0  0  0  0  0  0
   68.9409   45.6835   56.6683 O   0  0  0  0  0  0  0  0  0  0  0  0
   66.7745   41.5377   55.3443 C   0  0  0  0  0  0  0  0  0  0  0  0
   67.3343   41.9942   56.6436 C   0  0  0  0  0  0  0  0  0  0  0  0
   67.8750   43.1423   56.6558 N   0  0  0  0  0  0  0  0  0  0  0  0
   67.2259   41.1037   57.7954 C   0  0  0  0  0  0  0  0  0  0  0  0
   66.5095   41.4336   58.9276 C   0  0  0  0  0  0  0  0  0  0  0  0
   66.4151   40.5810   60.0089 C   0  0  0  0  0  0  0  0  0  0  0  0
   67.0346   39.3508   60.0162 C   0  0  0  0  0  0  0  0  0  0  0  0
   66.9296   38.4304   61.1906 C   0  0  0  0  0  0  0  0  0  0  0  0
   67.7517   39.0128   58.8898 C   0  0  0  0  0  0  0  0  0  0  0  0
   67.8423   39.8699   57.8108 C   0  0  0  0  0  0  0  0  0  0  0  0
   70.1427   49.7182   53.3770 S   0  0  0  0  0  0  0  0  0  0  0  0
   69.7473   50.4444   52.1217 O   0  0  0  0  0  0  0  0  0  0  0  0
   71.6317   49.4864   53.2785 O   0  0  0  0  0  0  0  0  0  0  0  0
   69.7615   50.6785   54.7159 N   0  0  0  0  0  0  0  0  0  0  0  0
   70.9035   51.3192   55.2967 C   0  0  0  0  0  0  0  0  0  0  0  0
   70.5570   52.7742   55.5041 C   0  0  0  0  0  0  0  0  0  0  0  0
   69.0447   52.7267   55.5558 C   0  0  0  0  0  0  0  0  0  0  0  0
   68.7490   51.6539   54.5077 C   0  0  0  0  0  0  0  0  0  0  0  0
 10 11  1  0
 11 12  2  0
 11 13  1  0
 12  7  1  0
  7  8  1  0
  8  9  2  0
  8  1  1  0
  1  2  2  0
  1  6  1  0
  2  3  1  0
  3  4  2  0
  4  5  1  0
  5 20  1  0
  5  6  2  0
 20 21  2  0
 20 22  2  0
 20 23  1  0
 23 24  1  0
 23 27  1  0
 24 25  1  0
 25 26  1  0
 26 27  1  0
 13 14  2  0
 13 19  1  0
 14 15  1  0
 15 16  2  0
 16 17  1  0
 16 18  1  0
 18 19  2  0
M  END
>  <minimizedAffinity>  (546) 
-8.68417

$$$$
data/200k_reference_output/data/smiles/65456.pdb
     RDKit          3D

 26 28  0  0  0  0  0  0  0  0999 V2000
   69.8147   49.6811   56.6506 C   0  0  0  0  0  0  0  0  0  0  0  0
   69.1204   50.3664   57.6180 C   0  0  0  0  0  0  0  0  0  0  0  0
   68.2087   51.3773   57.2991 C   0  0  0  0  0  0  0  0  0  0  0  0
   67.9612   51.7352   55.9945 C   0  0  0  0  0  0  0  0  0  0  0  0
   68.6462   51.0606   55.0137 C   0  0  0  0  0  0  0  0  0  0  0  0
   69.5530   50.0561   55.3246 C   0  0  0  0  0  0  0  0  0  0  0  0
   70.7248   48.6790   56.8516 O   0  0  0  0  0  0  0  0  0  0  0  0
   72.0501   47.3865   59.9634 C   0  0  1  0  0  0  0  0  0  0  0  0
   72.1784   48.0562   58.5889 C   0  0  0  0  0  0  0  0  0  0  0  0
   70.7942   47.8928   57.9739 C   0  0  2  0  0  0  0  0  0  0  0  0
   70.5123   46.4336   57.6949 C   0  0  2  0  0  0  0  0  0  0  0  0
   69.1401   46.3414   57.4341 O   0  0  0  0  0  0  0  0  0  0  0  0
   70.9561   45.4879   58.7220 C   0  0  1  0  0  0  0  0  0  0  0  0
   71.4709   44.3407   58.0680 O   0  0  0  0  0  0  0  0  0  0  0  0
   71.9337   45.9180   59.7231 C   0  0  2  0  0  0  0  0  0  0  0  0
   71.6807   45.3263   60.9811 O   0  0  0  0  0  0  0  0  0  0  0  0
   72.8642   47.9930   62.0657 O   0  0  0  0  0  0  0  0  0  0  0  0
   73.2791   47.7433   60.7370 C   0  0  0  0  0  0  0  0  0  0  0  0
   70.2565   49.3800   54.2314 C   0  0  0  0  0  0  0  0  0  0  0  0
   69.5054   48.2886   53.6223 C   0  0  0  0  0  0  0  0  0  0  0  0
   69.5244   48.0127   52.2775 C   0  0  0  0  0  0  0  0  0  0  0  0
   68.7836   46.9668   51.7416 C   0  0  0  0  0  0  0  0  0  0  0  0
   67.9962   46.1632   52.5504 C   0  0  0  0  0  0  0  0  0  0  0  0
   67.2708   45.1384   52.0189 F   0  0  0  0  0  0  0  0  0  0  0  0
   67.9651   46.4265   53.9015 C   0  0  0  0  0  0  0  0  0  0  0  0
   68.7038   47.4642   54.4175 C   0  0  0  0  0  0  0  0  0  0  0  0
 17 18  1  0
  8 18  1  1
  8  9  1  0
  8 15  1  0
  9 10  1  0
 10  7  1  6
 10 11  1  0
  7  1  1  0
  1  2  2  0
  1  6  1  0
  2  3  1  0
  3  4  2  0
  4  5  1  0
  5  6  2  0
  6 19  1  0
 19 20  1  0
 20 21  2  0
 20 26  1  0
 21 22  1  0
 22 23  2  0
 23 24  1  0
 23 25  1  0
 25 26  2  0
 11 12  1  1
 11 13  1  0
 13 14  1  6
 13 15  1  0
 15 16  1  1
M  END
>  <minimizedAffinity>  (547) 
-8.68374

$$$$
data/200k_reference_output/data/smiles/17538.pdb
     RDKit          3D

 29 32  0  0  0  0  0  0  0  0999 V2000
   71.5088   47.1825   58.9312 C   0  0  0  0  0  0  0  0  0  0  0  0
   70.5240   47.8230   58.1982 C   0  0  0  0  0  0  0  0  0  0  0  0
   69.7039   47.1489   57.3371 C   0  0  0  0  0  0  0  0  0  0  0  0
   69.8656   45.7793   57.1943 C   0  0  0  0  0  0  0  0  0  0  0  0
   70.8338   45.1345   57.9113 C   0  0  0  0  0  0  0  0  0  0  0  0
   71.6396   45.8206   58.7635 C   0  0  0  0  0  0  0  0  0  0  0  0
   72.5908   45.1511   59.4603 F   0  0  0  0  0  0  0  0  0  0  0  0
   75.9183   47.5843   59.1780 C   0  0  0  0  0  0  0  0  0  0  0  0
   75.4335   48.2800   57.9250 C   0  0  0  0  0  0  0  0  0  0  0  0
   73.9565   48.6066   58.0053 C   0  0  0  0  0  0  0  0  0  0  0  0
   73.5817   48.5274   59.4252 N   0  0  0  0  0  0  0  0  0  0  0  0
   72.4085   47.8416   59.8551 C   0  0  0  0  0  0  0  0  0  0  0  0
   72.1810   47.8318   61.0933 O   0  0  0  0  0  0  0  0  0  0  0  0
   74.4787   49.1920   60.3444 C   0  0  0  0  0  0  0  0  0  0  0  0
   75.7385   48.3933   60.4234 C   0  0  0  0  0  0  0  0  0  0  0  0
   77.8592   48.4160   58.3634 C   0  0  0  0  0  0  0  0  0  0  0  0
   77.2734   47.3361   59.0047 O   0  0  0  0  0  0  0  0  0  0  0  0
   68.6354   47.8617   56.5616 C   0  0  0  0  0  0  0  0  0  0  0  0
   69.0984   48.0561   55.2129 C   0  0  0  0  0  0  0  0  0  0  0  0
   70.0559   49.0246   55.0407 N   0  0  0  0  0  0  0  0  0  0  0  0
   70.6231   49.3037   53.9058 N   0  0  0  0  0  0  0  0  0  0  0  0
   70.3151   48.6582   52.7791 C   0  0  0  0  0  0  0  0  0  0  0  0
   70.8598   48.9294   51.6986 O   0  0  0  0  0  0  0  0  0  0  0  0
   69.3612   47.6649   52.8416 C   0  0  0  0  0  0  0  0  0  0  0  0
   68.9588   46.9483   51.7505 C   0  0  0  0  0  0  0  0  0  0  0  0
   67.9961   45.9625   51.7925 C   0  0  0  0  0  0  0  0  0  0  0  0
   67.4324   45.7181   53.0283 C   0  0  0  0  0  0  0  0  0  0  0  0
   67.8089   46.4161   54.1567 C   0  0  0  0  0  0  0  0  0  0  0  0
   68.7676   47.3840   54.0737 C   0  0  0  0  0  0  0  0  0  0  0  0
 16 17  1  0
 17  8  1  0
  8  9  1  0
  8 15  1  0
  9 10  1  0
 10 11  1  0
 11 12  1  0
 11 14  1  0
 12 13  2  0
 12  1  1  0
  1  2  2  0
  1  6  1  0
  2  3  1  0
  3 18  1  0
  3  4  2  0
 18 19  1  0
 19 20  2  0
 19 29  1  0
 20 21  1  0
 21 22  1  0
 22 23  2  0
 22 24  1  0
 24 25  1  0
 24 29  2  0
 25 26  2  0
 26 27  1  0
 27 28  2  0
 28 29  1  0
  4  5  1  0
  5  6  2  0
  6  7  1  0
 14 15  1  0
M  END
>  <minimizedAffinity>  (548) 
-8.68319

$$$$
data/200k_reference_output/data/smiles/38494.pdb
     RDKit          3D

 27 29  0  0  0  0  0  0  0  0999 V2000
   71.5028   45.8688   58.8146 C   0  0  0  0  0  0  0  0  0  0  0  0
   69.5955   46.4967   57.2681 N   0  0  0  0  0  0  0  0  0  0  0  0
   70.5845   46.8275   58.2009 C   0  0  0  0  0  0  0  0  0  0  0  0
   70.7031   48.0422   58.5523 O   0  0  0  0  0  0  0  0  0  0  0  0
   68.6812   47.4545   56.6471 C   0  0  0  0  0  0  0  0  0  0  0  0
   67.3746   45.0549   52.4216 C   0  0  0  0  0  0  0  0  0  0  0  0
   68.0610   46.1703   53.1137 C   0  0  0  0  0  0  0  0  0  0  0  0
   68.0569   46.2966   54.5039 C   0  0  0  0  0  0  0  0  0  0  0  0
   68.6793   47.3195   55.1746 C   0  0  0  0  0  0  0  0  0  0  0  0
   69.3429   48.2626   54.3732 C   0  0  0  0  0  0  0  0  0  0  0  0
   69.3763   48.1825   53.0062 C   0  0  0  0  0  0  0  0  0  0  0  0
   70.0898   49.1882   52.1942 C   0  0  0  0  0  0  0  0  0  0  0  0
   68.7344   47.1362   52.3901 C   0  0  0  0  0  0  0  0  0  0  0  0
   68.7509   47.0272   50.9847 O   0  0  0  0  0  0  0  0  0  0  0  0
   71.2494   44.5759   58.3208 O   0  0  0  0  0  0  0  0  0  0  0  0
   70.3496   43.6840   58.8230 C   0  0  0  0  0  0  0  0  0  0  0  0
   69.6323   44.0731   59.7990 O   0  0  0  0  0  0  0  0  0  0  0  0
   70.1537   42.3001   58.3081 C   0  0  1  0  0  0  0  0  0  0  0  0
   70.0499   41.3350   59.4356 C   0  0  0  0  0  0  0  0  0  0  0  0
   68.6471   40.9685   59.8264 C   0  0  2  0  0  0  0  0  0  0  0  0
   68.3883   39.4825   59.5169 C   0  0  0  0  0  0  0  0  0  0  0  0
   68.5650   39.1966   58.0587 C   0  0  0  0  0  0  0  0  0  0  0  0
   67.9071   40.1294   57.1143 C   0  0  0  0  0  0  0  0  0  0  0  0
   67.8411   41.5722   57.5599 C   0  0  2  0  0  0  0  0  0  0  0  0
   69.1146   42.3161   57.2754 C   0  0  0  0  0  0  0  0  0  0  0  0
   67.6361   41.6822   59.0181 C   0  0  0  0  0  0  0  0  0  0  0  0
   66.7375   42.2905   59.4946 O   0  0  0  0  0  0  0  0  0  0  0  0
  6  7  1  0
  7  8  2  0
  7 13  1  0
  8  9  1  0
  9  5  1  0
  9 10  2  0
  5  2  1  0
  2  3  1  0
  3  4  2  0
  3  1  1  0
  1 15  1  0
 15 16  1  0
 16 17  2  0
 18 16  1  1
 18 19  1  0
 18 25  1  0
 20 19  1  6
 20 21  1  0
 20 26  1  0
 21 22  1  0
 22 23  1  0
 24 23  1  1
 24 25  1  0
 24 26  1  0
 26 27  2  0
 10 11  1  0
 11 12  1  0
 11 13  2  0
 13 14  1  0
M  END
>  <minimizedAffinity>  (549) 
-8.68263

$$$$
data/200k_reference_output/data/smiles/74570.pdb
     RDKit          3D

 25 26  0  0  0  0  0  0  0  0999 V2000
   68.2086   43.6164   55.9018 C   0  0  0  0  0  0  0  0  0  0  0  0
   69.2462   44.0693   56.4432 O   0  0  0  0  0  0  0  0  0  0  0  0
   67.6413   44.4132   54.9092 N   0  0  0  0  0  0  0  0  0  0  0  0
   68.1879   45.6865   54.5043 C   0  0  0  0  0  0  0  0  0  0  0  0
   68.5420   46.6578   55.4137 C   0  0  0  0  0  0  0  0  0  0  0  0
   69.0654   47.8762   55.0291 C   0  0  0  0  0  0  0  0  0  0  0  0
   69.2600   48.1830   53.6996 C   0  0  0  0  0  0  0  0  0  0  0  0
   68.9084   47.2199   52.7807 C   0  0  0  0  0  0  0  0  0  0  0  0
   68.3821   45.9941   53.1760 C   0  0  0  0  0  0  0  0  0  0  0  0
   69.9228   49.7233   53.1820 S   0  0  0  0  0  0  0  0  0  0  0  0
   71.5547   49.8636   53.7178 N   0  0  0  0  0  0  0  0  0  0  0  0
   69.8366   49.8858   51.6958 O   0  0  0  0  0  0  0  0  0  0  0  0
   69.1629   50.8719   53.7953 O   0  0  0  0  0  0  0  0  0  0  0  0
   67.7086   42.2939   56.3759 C   0  0  0  0  0  0  0  0  0  0  0  0
   67.9867   41.9475   57.6172 C   0  0  0  0  0  0  0  0  0  0  0  0
   67.6453   40.7706   58.3437 C   0  0  0  0  0  0  0  0  0  0  0  0
   68.4980   39.6613   58.2468 C   0  0  0  0  0  0  0  0  0  0  0  0
   68.3033   38.5112   58.9786 C   0  0  0  0  0  0  0  0  0  0  0  0
   67.2423   38.4173   59.8435 C   0  0  0  0  0  0  0  0  0  0  0  0
   67.0423   36.9318   60.7489 Cl  0  0  0  0  0  0  0  0  0  0  0  0
   66.3844   39.4721   59.9702 C   0  0  0  0  0  0  0  0  0  0  0  0
   66.6042   40.5990   59.2317 C   0  0  0  0  0  0  0  0  0  0  0  0
   65.6357   41.6671   54.9741 C   0  0  0  0  0  0  0  0  0  0  0  0
   66.9657   41.4278   55.5355 C   0  0  0  0  0  0  0  0  0  0  0  0
   67.4786   40.2986   55.2128 O   0  0  0  0  0  0  0  0  0  0  0  0
 23 24  1  0
 24 25  2  0
 24 14  1  0
 14 15  2  0
 14  1  1  0
 15 16  1  0
 16 17  2  0
 16 22  1  0
 17 18  1  0
 18 19  2  0
 19 20  1  0
 19 21  1  0
 21 22  2  0
  1  2  2  0
  1  3  1  0
  3  4  1  0
  4  5  2  0
  4  9  1  0
  5  6  1  0
  6  7  2  0
  7 10  1  0
  7  8  1  0
 10 11  1  0
 10 12  2  0
 10 13  2  0
  8  9  2  0
M  END
>  <minimizedAffinity>  (550) 
-8.68247

$$$$
data/reference_output_2/data/smiles/196736.pdb
     RDKit          3D

 26 28  0  0  0  0  0  0  0  0999 V2000
   73.0145   44.2236   58.0456 C   0  0  0  0  0  0  0  0  0  0  0  0
   71.9348   43.2096   58.1585 C   0  0  0  0  0  0  0  0  0  0  0  0
   70.5924   43.5695   58.2071 C   0  0  0  0  0  0  0  0  0  0  0  0
   69.7034   42.5843   58.3109 N   0  0  0  0  0  0  0  0  0  0  0  0
   68.3461   42.8101   58.3528 O   0  0  0  0  0  0  0  0  0  0  0  0
   70.0396   41.2604   58.3712 C   0  0  0  0  0  0  0  0  0  0  0  0
   69.0482   40.2753   58.4810 C   0  0  0  0  0  0  0  0  0  0  0  0
   69.4744   38.9580   58.5355 C   0  0  0  0  0  0  0  0  0  0  0  0
   68.5263   37.9787   58.6421 F   0  0  0  0  0  0  0  0  0  0  0  0
   70.7993   38.5854   58.4885 C   0  0  0  0  0  0  0  0  0  0  0  0
   71.1707   37.2652   58.5460 F   0  0  0  0  0  0  0  0  0  0  0  0
   71.7434   39.5821   58.3805 C   0  0  0  0  0  0  0  0  0  0  0  0
   71.3651   40.9144   58.3224 C   0  0  0  0  0  0  0  0  0  0  0  0
   72.2615   41.9075   58.2175 N   0  0  0  0  0  0  0  0  0  0  0  0
   73.6043   41.5301   58.1694 O   0  0  0  0  0  0  0  0  0  0  0  0
   70.2618   44.9790   58.1240 C   0  0  0  0  0  0  0  0  0  0  0  0
   70.4276   45.7084   59.1734 O   0  0  0  0  0  0  0  0  0  0  0  0
   69.7690   45.6492   56.9954 N   0  0  0  0  0  0  0  0  0  0  0  0
   69.4864   47.0584   56.9251 C   0  0  0  0  0  0  0  0  0  0  0  0
   68.4328   47.4169   55.9655 C   0  0  0  0  0  0  0  0  0  0  0  0
   68.5683   47.1926   54.5357 C   0  0  0  0  0  0  0  0  0  0  0  0
   69.3082   48.0381   53.7149 C   0  0  0  0  0  0  0  0  0  0  0  0
   69.3512   47.8102   52.3738 C   0  0  0  0  0  0  0  0  0  0  0  0
   68.6975   46.7740   51.7480 C   0  0  0  0  0  0  0  0  0  0  0  0
   67.9613   45.9304   52.5493 C   0  0  0  0  0  0  0  0  0  0  0  0
   67.9030   46.1380   53.8960 C   0  0  0  0  0  0  0  0  0  0  0  0
  1  2  1  0
  2  3  2  0
  2 14  1  0
  3 16  1  0
  3  4  1  0
 16 17  2  0
 16 18  1  0
 18 19  1  0
 19 20  1  0
 20 21  1  0
 21 22  2  0
 21 26  1  0
 22 23  1  0
 23 24  2  0
 24 25  1  0
 25 26  2  0
  4  5  1  0
  4  6  2  0
  6  7  1  0
  6 13  1  0
  7  8  2  0
  8  9  1  0
  8 10  1  0
 10 11  1  0
 10 12  2  0
 12 13  1  0
 13 14  2  0
 14 15  1  0
M  CHG  4   4   1   5  -1  14   1  15  -1
M  END
>  <minimizedAffinity>  (551) 
-8.68211

$$$$
data/reference_output_2/data/smiles/93640.pdb
     RDKit          3D

 27 30  0  0  0  0  0  0  0  0999 V2000
   71.1294   43.9128   58.5592 C   0  0  0  0  0  0  0  0  0  0  0  0
   70.1468   43.7461   57.6017 C   0  0  0  0  0  0  0  0  0  0  0  0
   69.5195   44.8393   57.0373 C   0  0  0  0  0  0  0  0  0  0  0  0
   69.8309   46.1365   57.3881 C   0  0  0  0  0  0  0  0  0  0  0  0
   70.8111   46.3012   58.3441 C   0  0  0  0  0  0  0  0  0  0  0  0
   71.4400   45.2097   58.9105 C   0  0  0  0  0  0  0  0  0  0  0  0
   73.0920   42.4040   57.3473 O   0  0  0  0  0  0  0  0  0  0  0  0
   72.7978   42.0468   58.5204 C   0  0  0  0  0  0  0  0  0  0  0  0
   71.7939   42.8067   59.1600 N   0  0  0  0  0  0  0  0  0  0  0  0
   73.4952   40.8953   59.1342 C   0  0  0  0  0  0  0  0  0  0  0  0
   72.7377   39.6349   58.9541 C   0  0  0  0  0  0  0  0  0  0  0  0
   73.2715   38.3918   59.2114 C   0  0  0  0  0  0  0  0  0  0  0  0
   72.5529   37.2264   59.0393 C   0  0  0  0  0  0  0  0  0  0  0  0
   71.2476   37.2879   58.5920 C   0  0  0  0  0  0  0  0  0  0  0  0
   70.7189   38.5309   58.3361 C   0  0  0  0  0  0  0  0  0  0  0  0
   71.4419   39.7025   58.5101 C   0  0  0  0  0  0  0  0  0  0  0  0
   69.1339   47.2974   56.7583 C   0  0  0  0  0  0  0  0  0  0  0  0
   68.7815   47.0300   55.3772 N   0  0  0  0  0  0  0  0  0  0  0  0
   69.3571   47.6109   54.3066 C   0  0  0  0  0  0  0  0  0  0  0  0
   68.7948   47.1386   53.1442 C   0  0  0  0  0  0  0  0  0  0  0  0
   68.9923   47.3806   51.8009 C   0  0  0  0  0  0  0  0  0  0  0  0
   69.8853   48.2237   51.4655 O   0  0  0  0  0  0  0  0  0  0  0  0
   68.2508   46.7325   50.8812 N   0  0  0  0  0  0  0  0  0  0  0  0
   67.3193   45.8487   51.2870 C   0  0  0  0  0  0  0  0  0  0  0  0
   67.1290   45.6157   52.5978 N   0  0  0  0  0  0  0  0  0  0  0  0
   67.8280   46.2221   53.5704 C   0  0  0  0  0  0  0  0  0  0  0  0
   67.8596   46.1942   54.9071 N   0  0  0  0  0  0  0  0  0  0  0  0
  7  8  2  0
  8 10  1  0
  8  9  1  0
 10 11  1  0
 11 12  2  0
 11 16  1  0
 12 13  1  0
 13 14  2  0
 14 15  1  0
 15 16  2  0
  9  1  1  0
  1  2  2  0
  1  6  1  0
  2  3  1  0
  3  4  2  0
  4 17  1  0
  4  5  1  0
 17 18  1  0
 18 19  1  0
 18 27  1  0
 19 20  2  0
 20 21  1  0
 20 26  1  0
 21 22  2  0
 21 23  1  0
 23 24  1  0
 24 25  2  0
 25 26  1  0
 26 27  2  0
  5  6  2  0
M  END
>  <minimizedAffinity>  (552) 
-8.68188

$$$$
data/200k_reference_output/data/smiles/21951.pdb
     RDKit          3D

 26 30  0  0  0  0  0  0  0  0999 V2000
   69.5041   43.2765   57.2677 C   0  0  0  0  0  0  0  0  0  0  0  0
   68.2888   42.8592   56.5338 C   0  0  0  0  0  0  0  0  0  0  0  0
   67.6020   41.6654   56.7318 C   0  0  0  0  0  0  0  0  0  0  0  0
   66.5546   41.7201   55.8341 C   0  0  0  0  0  0  0  0  0  0  0  0
   66.6517   42.8846   55.1698 N   0  0  0  0  0  0  0  0  0  0  0  0
   67.6966   43.5845   55.5822 N   0  0  0  0  0  0  0  0  0  0  0  0
   67.9521   40.6251   57.6864 C   0  0  0  0  0  0  0  0  0  0  0  0
   68.6256   39.6422   57.2975 O   0  0  0  0  0  0  0  0  0  0  0  0
   67.5655   40.6678   59.0487 N   0  0  0  0  0  0  0  0  0  0  0  0
   66.8057   41.6154   59.8391 C   0  0  0  0  0  0  0  0  0  0  0  0
   67.3118   41.0153   61.1314 C   0  0  0  0  0  0  0  0  0  0  0  0
   66.2812   40.7173   62.1680 C   0  0  0  0  0  0  0  0  0  0  0  0
   66.8785   41.1725   63.4814 C   0  0  0  0  0  0  0  0  0  0  0  0
   67.8380   42.2608   63.1284 C   0  0  0  0  0  0  0  0  0  0  0  0
   68.4242   41.7483   61.8068 C   0  0  0  0  0  0  0  0  0  0  0  0
   67.7180   39.8613   60.2422 C   0  0  0  0  0  0  0  0  0  0  0  0
   68.1135   44.8612   55.1097 C   0  0  0  0  0  0  0  0  0  0  0  0
   68.2548   45.1715   53.8153 N   0  0  0  0  0  0  0  0  0  0  0  0
   68.6489   46.3769   53.3635 C   0  0  0  0  0  0  0  0  0  0  0  0
   68.9228   47.3457   54.3058 C   0  0  0  0  0  0  0  0  0  0  0  0
   68.7855   47.0519   55.6516 C   0  0  0  0  0  0  0  0  0  0  0  0
   69.0381   47.9431   56.5076 O   0  0  0  0  0  0  0  0  0  0  0  0
   68.3860   45.8198   56.0118 N   0  0  0  0  0  0  0  0  0  0  0  0
   69.3442   48.6136   53.6584 C   0  0  0  0  0  0  0  0  0  0  0  0
   69.5446   48.2502   52.2243 C   0  0  0  0  0  0  0  0  0  0  0  0
   68.8718   46.9396   51.9822 C   0  0  0  0  0  0  0  0  0  0  0  0
  1  2  1  0
  2  3  2  0
  2  6  1  0
  3  7  1  0
  3  4  1  0
  7  8  2  0
  7  9  1  0
  9 10  1  0
  9 16  1  0
 10 11  1  0
 11 12  1  0
 11 15  1  0
 11 16  1  0
 12 13  1  0
 13 14  1  0
 14 15  1  0
  4  5  2  0
  5  6  1  0
  6 17  1  0
 17 18  2  0
 17 23  1  0
 18 19  1  0
 19 20  2  0
 19 26  1  0
 20 21  1  0
 20 24  1  0
 21 22  2  0
 21 23  1  0
 24 25  1  0
 25 26  1  0
M  END
>  <minimizedAffinity>  (553) 
-8.68163

$$$$
data/200k_reference_output/data/smiles/32862.pdb
     RDKit          3D

 29 32  0  0  0  0  0  0  0  0999 V2000
   69.1981   48.4764   56.7174 C   0  0  0  0  0  0  0  0  0  0  0  0
   70.7219   51.0229   54.2736 C   0  0  2  0  0  0  0  0  0  0  0  0
   70.7025   50.2087   53.1386 O   0  0  0  0  0  0  0  0  0  0  0  0
   69.9833   49.0412   53.0986 C   0  0  0  0  0  0  0  0  0  0  0  0
   69.7324   48.3925   51.8786 C   0  0  0  0  0  0  0  0  0  0  0  0
   69.0089   47.2274   51.8731 C   0  0  0  0  0  0  0  0  0  0  0  0
   68.5108   46.6514   53.0166 C   0  0  0  0  0  0  0  0  0  0  0  0
   67.7307   45.4035   53.0542 C   0  0  0  0  0  0  0  0  0  0  0  0
   68.7764   47.3169   54.2067 C   0  0  0  0  0  0  0  0  0  0  0  0
   69.5014   48.4969   54.2683 C   0  0  0  0  0  0  0  0  0  0  0  0
   69.7097   49.0895   55.5403 N   0  0  0  0  0  0  0  0  0  0  0  0
   70.4577   50.3107   55.5438 C   0  0  0  0  0  0  0  0  0  0  0  0
   70.8785   50.7553   56.6373 O   0  0  0  0  0  0  0  0  0  0  0  0
   68.6860   52.1275   55.2090 C   0  0  0  0  0  0  0  0  0  0  0  0
   69.6324   52.0814   54.0497 C   0  0  0  0  0  0  0  0  0  0  0  0
   70.1077   47.6035   57.4539 C   0  0  0  0  0  0  0  0  0  0  0  0
   71.2528   48.0170   57.7505 O   0  0  0  0  0  0  0  0  0  0  0  0
   69.7479   46.2915   57.8548 N   0  0  0  0  0  0  0  0  0  0  0  0
   70.7200   45.5025   58.5826 C   0  0  0  0  0  0  0  0  0  0  0  0
   70.4461   44.0517   58.3352 C   0  0  1  0  0  0  0  0  0  0  0  0
   70.2474   43.2667   59.6042 C   0  0  0  0  0  0  0  0  0  0  0  0
   70.1787   41.8879   59.2194 O   0  0  0  0  0  0  0  0  0  0  0  0
   69.3144   41.5363   58.1920 C   0  0  0  0  0  0  0  0  0  0  0  0
   68.9220   40.2263   58.0096 C   0  0  0  0  0  0  0  0  0  0  0  0
   68.0638   39.8578   56.9963 C   0  0  0  0  0  0  0  0  0  0  0  0
   67.6106   40.8602   56.1659 C   0  0  0  0  0  0  0  0  0  0  0  0
   68.0031   42.1692   56.3493 C   0  0  0  0  0  0  0  0  0  0  0  0
   68.8615   42.5495   57.3600 C   0  0  0  0  0  0  0  0  0  0  0  0
   69.2639   43.8637   57.5544 O   0  0  0  0  0  0  0  0  0  0  0  0
 14 15  1  0
  2 15  1  6
  2  3  1  0
  2 12  1  0
  3  4  1  0
  4  5  1  0
  4 10  2  0
  5  6  2  0
  6  7  1  0
  7  8  1  0
  7  9  2  0
  9 10  1  0
 10 11  1  0
 11  1  1  0
 11 12  1  0
  1 16  1  0
 16 17  2  0
 16 18  1  0
 18 19  1  0
 20 19  1  1
 20 21  1  0
 20 29  1  0
 21 22  1  0
 22 23  1  0
 23 24  2  0
 23 28  1  0
 24 25  1  0
 25 26  2  0
 26 27  1  0
 27 28  2  0
 28 29  1  0
 12 13  2  0
M  END
>  <minimizedAffinity>  (554) 
-8.68141

$$$$
data/reference_output_2/data/smiles/193421.pdb
     RDKit          3D

 29 32  0  0  0  0  0  0  0  0999 V2000
   70.0285   42.0544   58.4045 C   0  0  0  0  0  0  0  0  0  0  0  0
   69.5357   42.9620   57.5523 C   0  0  0  0  0  0  0  0  0  0  0  0
   68.5523   42.6535   56.6885 N   0  0  0  0  0  0  0  0  0  0  0  0
   68.0548   43.5654   55.8300 C   0  0  0  0  0  0  0  0  0  0  0  0
   67.1291   43.2592   55.0228 O   0  0  0  0  0  0  0  0  0  0  0  0
   68.5317   44.8633   55.7927 C   0  0  0  0  0  0  0  0  0  0  0  0
   68.0693   45.7842   54.9656 C   0  0  0  0  0  0  0  0  0  0  0  0
   69.5157   45.1665   56.6590 N   0  0  0  0  0  0  0  0  0  0  0  0
   70.0161   44.2540   57.5211 C   0  0  0  0  0  0  0  0  0  0  0  0
   70.9330   44.5594   58.3185 O   0  0  0  0  0  0  0  0  0  0  0  0
   68.5770   47.1455   54.9351 C   0  0  0  0  0  0  0  0  0  0  0  0
   68.5339   47.9288   56.0672 C   0  0  0  0  0  0  0  0  0  0  0  0
   69.0132   49.2380   56.0673 C   0  0  0  0  0  0  0  0  0  0  0  0
   69.5434   49.7708   54.9118 C   0  0  0  0  0  0  0  0  0  0  0  0
   69.5867   48.9903   53.7812 C   0  0  0  0  0  0  0  0  0  0  0  0
   70.1203   49.5389   52.6356 C   0  0  0  0  0  0  0  0  0  0  0  0
   70.1920   48.8258   51.4922 N   0  0  0  0  0  0  0  0  0  0  0  0
   69.7372   47.5823   51.4894 C   0  0  0  0  0  0  0  0  0  0  0  0
   69.1949   46.9924   52.6139 C   0  0  0  0  0  0  0  0  0  0  0  0
   69.1058   47.6903   53.7994 C   0  0  0  0  0  0  0  0  0  0  0  0
   70.1016   39.5129   58.7018 C   0  0  0  0  0  0  0  0  0  0  0  0
   69.2058   38.5004   58.5623 N   0  0  0  0  0  0  0  0  0  0  0  0
   68.0657   39.0564   58.1838 C   0  0  0  0  0  0  0  0  0  0  0  0
   68.2308   40.3963   58.0842 N   0  0  0  0  0  0  0  0  0  0  0  0
   69.4946   40.7091   58.4024 C   0  0  0  0  0  0  0  0  0  0  0  0
   71.6962   39.3664   60.5975 C   0  0  0  0  0  0  0  0  0  0  0  0
   71.5157   39.3693   59.1118 C   0  0  0  0  0  0  0  0  0  0  0  0
   72.0676   38.0574   58.5794 C   0  0  0  0  0  0  0  0  0  0  0  0
   72.3925   40.4672   58.5029 C   0  0  0  0  0  0  0  0  0  0  0  0
 26 27  1  0
 27 28  1  0
 27 29  1  0
 27 21  1  0
 21 22  1  0
 21 25  2  0
 22 23  1  0
 23 24  2  0
 24 25  1  0
 25  1  1  0
  1  2  2  0
  2  3  1  0
  2  9  1  0
  3  4  1  0
  4  5  2  0
  4  6  1  0
  6  7  2  0
  6  8  1  0
  7 11  1  0
 11 12  2  0
 11 20  1  0
 12 13  1  0
 13 14  2  0
 14 15  1  0
 15 16  1  0
 15 20  2  0
 16 17  2  0
 17 18  1  0
 18 19  2  0
 19 20  1  0
  8  9  1  0
  9 10  2  0
M  CHG  1  24   1
M  END
>  <minimizedAffinity>  (555) 
-8.68036

$$$$
data/reference_output_2/data/smiles/124032.pdb
     RDKit          3D

 25 27  0  0  0  0  0  0  0  0999 V2000
   69.9747   46.8794   57.4535 C   0  0  0  0  0  0  0  0  0  0  0  0
   69.7782   40.7241   58.0890 C   0  0  0  0  0  0  0  0  0  0  0  0
   71.0997   40.6192   58.4443 C   0  0  0  0  0  0  0  0  0  0  0  0
   71.8558   41.8031   58.5086 C   0  0  0  0  0  0  0  0  0  0  0  0
   71.2177   42.9896   58.2101 C   0  0  0  0  0  0  0  0  0  0  0  0
   71.8074   44.7308   58.1700 S   0  0  0  0  0  0  0  0  0  0  0  0
   70.1155   45.3809   57.6568 C   0  0  0  0  0  0  0  0  0  0  0  0
   69.5277   44.3797   57.6166 N   0  0  0  0  0  0  0  0  0  0  0  0
   69.9057   43.1432   57.8525 C   0  0  0  0  0  0  0  0  0  0  0  0
   69.2034   41.9286   57.8049 C   0  0  0  0  0  0  0  0  0  0  0  0
   67.8259   39.4020   57.1578 N   0  0  0  0  0  0  0  0  0  0  0  0
   68.9398   39.4890   58.0084 C   0  0  0  0  0  0  0  0  0  0  0  0
   69.2540   38.5315   58.7192 O   0  0  0  0  0  0  0  0  0  0  0  0
   69.1628   47.2891   56.4726 O   0  0  0  0  0  0  0  0  0  0  0  0
   68.8853   47.0675   55.1700 C   0  0  0  0  0  0  0  0  0  0  0  0
   68.0608   46.0895   54.6639 C   0  0  0  0  0  0  0  0  0  0  0  0
   67.8190   45.9150   53.3059 C   0  0  0  0  0  0  0  0  0  0  0  0
   68.4280   46.7557   52.4069 C   0  0  0  0  0  0  0  0  0  0  0  0
   68.2041   46.6018   51.0763 F   0  0  0  0  0  0  0  0  0  0  0  0
   69.2634   47.7539   52.8505 C   0  0  0  0  0  0  0  0  0  0  0  0
   69.4727   47.8891   54.1797 C   0  0  0  0  0  0  0  0  0  0  0  0
   70.2950   48.8724   54.6135 F   0  0  0  0  0  0  0  0  0  0  0  0
   69.9096   48.6504   51.8603 C   0  0  0  0  0  0  0  0  0  0  0  0
   69.7403   50.0390   52.0201 N   0  0  0  0  0  0  0  0  0  0  0  0
   70.5807   48.2071   50.9178 O   0  0  0  0  0  0  0  0  0  0  0  0
 11 12  1  0
 12 13  2  0
 12  2  1  0
  2  3  2  0
  2 10  1  0
  3  4  1  0
  4  5  2  0
  5  6  1  0
  5  9  1  0
  6  7  1  0
  7  1  1  0
  7  8  2  0
  1 14  1  0
 14 15  1  0
 15 16  2  0
 15 21  1  0
 16 17  1  0
 17 18  2  0
 18 19  1  0
 18 20  1  0
 20 23  1  0
 20 21  2  0
 23 24  1  0
 23 25  2  0
 21 22  1  0
  8  9  1  0
  9 10  2  0
M  END
>  <minimizedAffinity>  (556) 
-8.67928

$$$$
data/reference_output_2/data/smiles/165004.pdb
     RDKit          3D

 26 28  0  0  0  0  0  0  0  0999 V2000
   70.2501   49.6410   54.3089 C   0  0  0  0  0  0  0  0  0  0  0  0
   69.9944   49.0638   55.5557 C   0  0  0  0  0  0  0  0  0  0  0  0
   69.4007   47.8892   55.4366 N   0  0  0  0  0  0  0  0  0  0  0  0
   69.2397   47.6384   54.1454 C   0  0  0  0  0  0  0  0  0  0  0  0
   68.7000   46.5776   53.4640 C   0  0  0  0  0  0  0  0  0  0  0  0
   68.6574   46.5414   52.0736 C   0  0  0  0  0  0  0  0  0  0  0  0
   69.1679   47.5935   51.3878 C   0  0  0  0  0  0  0  0  0  0  0  0
   69.7183   48.6776   52.0580 C   0  0  0  0  0  0  0  0  0  0  0  0
   69.7623   48.7201   53.4207 C   0  0  0  0  0  0  0  0  0  0  0  0
   69.9959   52.1758   54.3218 C   0  0  0  0  0  0  0  0  0  0  0  0
   70.9156   50.9255   54.1955 C   0  0  0  0  0  0  0  0  0  0  0  0
   72.1010   51.1510   54.0463 N   0  0  0  0  0  0  0  0  0  0  0  0
   73.2245   50.5042   53.8963 N   0  0  0  0  0  0  0  0  0  0  0  0
   74.3098   50.6616   54.8596 C   0  0  0  0  0  0  0  0  0  0  0  0
   75.2419   49.7856   54.8498 N   0  0  0  0  0  0  0  0  0  0  0  0
   74.2446   51.7764   55.7325 N   0  0  0  0  0  0  0  0  0  0  0  0
   68.8966   46.8652   56.7567 S   0  0  0  0  0  0  0  0  0  0  0  0
   68.4626   45.5394   56.2405 O   0  0  0  0  0  0  0  0  0  0  0  0
   67.7062   47.5687   57.3932 O   0  0  0  0  0  0  0  0  0  0  0  0
   70.1517   46.7432   57.9605 C   0  0  0  0  0  0  0  0  0  0  0  0
   70.6317   45.4902   58.3697 C   0  0  0  0  0  0  0  0  0  0  0  0
   71.6090   45.4196   59.3333 C   0  0  0  0  0  0  0  0  0  0  0  0
   72.1540   46.5350   59.9325 C   0  0  0  0  0  0  0  0  0  0  0  0
   73.2085   46.4498   60.9720 C   0  0  0  0  0  0  0  0  0  0  0  0
   71.6772   47.7858   59.5263 C   0  0  0  0  0  0  0  0  0  0  0  0
   70.7030   47.8508   58.5653 C   0  0  0  0  0  0  0  0  0  0  0  0
 10 11  1  0
 11 12  2  0
 11  1  1  0
 12 13  1  0
 13 14  1  0
 14 15  2  0
 14 16  1  0
  1  2  2  0
  1  9  1  0
  2  3  1  0
  3 17  1  0
  3  4  1  0
 17 18  2  0
 17 19  2  0
 17 20  1  0
 20 21  2  0
 20 26  1  0
 21 22  1  0
 22 23  2  0
 23 24  1  0
 23 25  1  0
 25 26  2  0
  4  5  1  0
  4  9  2  0
  5  6  2  0
  6  7  1  0
  7  8  2  0
  8  9  1  0
M  CHG  1  15   1
M  END
>  <minimizedAffinity>  (557) 
-8.67807

$$$$
data/200k_reference_output/data/smiles/61820.pdb
     RDKit          3D

 27 31  0  0  0  0  0  0  0  0999 V2000
   66.9604   40.7982   55.6730 O   0  0  0  0  0  0  0  0  0  0  0  0
   67.8075   41.4378   56.3777 C   0  0  0  0  0  0  0  0  0  0  0  0
   68.1765   42.8343   56.1879 C   0  0  0  0  0  0  0  0  0  0  0  0
   67.8092   43.8120   55.3318 N   0  0  0  0  0  0  0  0  0  0  0  0
   68.3098   45.0593   55.3692 C   0  0  0  0  0  0  0  0  0  0  0  0
   68.1211   46.2174   54.6424 C   0  0  0  0  0  0  0  0  0  0  0  0
   68.9260   47.2193   55.1423 C   0  0  0  0  0  0  0  0  0  0  0  0
   69.5917   46.6558   56.1649 N   0  0  0  0  0  0  0  0  0  0  0  0
   69.2278   45.3694   56.3024 N   0  0  0  0  0  0  0  0  0  0  0  0
   69.6251   44.4275   57.1780 C   0  0  0  0  0  0  0  0  0  0  0  0
   70.4828   44.7101   58.0538 O   0  0  0  0  0  0  0  0  0  0  0  0
   69.1151   43.1275   57.1522 C   0  0  0  0  0  0  0  0  0  0  0  0
   69.3837   41.9243   57.9824 C   0  0  0  0  0  0  0  0  0  0  0  0
   68.5296   40.8842   57.4686 N   0  0  0  0  0  0  0  0  0  0  0  0
   69.0441   48.6056   54.6728 C   0  0  0  0  0  0  0  0  0  0  0  0
   69.4075   48.9993   53.4039 C   0  0  0  0  0  0  0  0  0  0  0  0
   69.4022   50.3980   53.3582 C   0  0  0  0  0  0  0  0  0  0  0  0
   69.0231   50.7600   54.6492 C   0  0  0  0  0  0  0  0  0  0  0  0
   68.8284   49.6881   55.3694 O   0  0  0  0  0  0  0  0  0  0  0  0
   68.4539   39.5170   57.9753 C   0  0  0  0  0  0  0  0  0  0  0  0
   69.3810   39.2376   59.1047 C   0  0  0  0  0  0  0  0  0  0  0  0
   70.2939   38.1103   58.9400 C   0  0  0  0  0  0  0  0  0  0  0  0
   70.2050   36.9617   59.6948 C   0  0  0  0  0  0  0  0  0  0  0  0
   71.0813   35.9089   59.5405 C   0  0  0  0  0  0  0  0  0  0  0  0
   72.0818   36.0077   58.5995 C   0  0  0  0  0  0  0  0  0  0  0  0
   72.2036   37.1372   57.8262 C   0  0  0  0  0  0  0  0  0  0  0  0
   71.3154   38.1745   57.9997 C   0  0  0  0  0  0  0  0  0  0  0  0
  1  2  2  0
  2  3  1  0
  2 14  1  0
  3  4  1  0
  3 12  2  0
  4  5  1  0
  5  6  2  0
  5  9  1  0
  6  7  1  0
  7 15  1  0
  7  8  2  0
 15 16  2  0
 15 19  1  0
 16 17  1  0
 17 18  2  0
 18 19  1  0
  8  9  1  0
  9 10  1  0
 10 11  2  0
 10 12  1  0
 12 13  1  0
 13 14  1  0
 14 20  1  0
 20 21  1  0
 21 22  1  0
 22 23  2  0
 22 27  1  0
 23 24  1  0
 24 25  2  0
 25 26  1  0
 26 27  2  0
M  END
>  <minimizedAffinity>  (558) 
-8.67777

$$$$
data/200k_reference_output/data/smiles/77972.pdb
     RDKit          3D

 24 25  0  0  0  0  0  0  0  0999 V2000
   68.0001   43.7539   56.1823 N   0  0  0  0  0  0  0  0  0  0  0  0
   68.9400   42.8882   56.7504 C   0  0  0  0  0  0  0  0  0  0  0  0
   70.1576   43.1627   56.6591 O   0  0  0  0  0  0  0  0  0  0  0  0
   68.5761   41.6877   57.4392 N   0  0  0  0  0  0  0  0  0  0  0  0
   69.5685   40.8524   57.9921 C   0  0  0  0  0  0  0  0  0  0  0  0
   70.7622   41.4196   58.4224 C   0  0  0  0  0  0  0  0  0  0  0  0
   71.7534   40.6336   58.9668 C   0  0  0  0  0  0  0  0  0  0  0  0
   71.6092   39.2625   59.1114 C   0  0  0  0  0  0  0  0  0  0  0  0
   72.6168   38.5363   59.6544 F   0  0  0  0  0  0  0  0  0  0  0  0
   70.4206   38.7085   58.6825 C   0  0  0  0  0  0  0  0  0  0  0  0
   70.2351   37.3753   58.8025 F   0  0  0  0  0  0  0  0  0  0  0  0
   69.4111   39.4858   58.1307 C   0  0  0  0  0  0  0  0  0  0  0  0
   68.2507   38.9503   57.7108 F   0  0  0  0  0  0  0  0  0  0  0  0
   68.6159   47.3304   53.9368 C   0  0  0  0  0  0  0  0  0  0  0  0
   69.0462   47.2443   55.2353 C   0  0  0  0  0  0  0  0  0  0  0  0
   68.8472   46.0692   55.9838 C   0  0  0  0  0  0  0  0  0  0  0  0
   68.2275   44.9576   55.4838 C   0  0  0  0  0  0  0  0  0  0  0  0
   67.7967   45.0710   54.1514 C   0  0  0  0  0  0  0  0  0  0  0  0
   67.9915   46.2178   53.4242 C   0  0  0  0  0  0  0  0  0  0  0  0
   68.7843   48.4615   53.1519 O   0  0  0  0  0  0  0  0  0  0  0  0
   69.7532   49.9180   50.9174 N   0  0  0  0  0  0  0  0  0  0  0  0
   70.0566   48.6255   52.0340 S   0  0  0  0  0  0  0  0  0  0  0  0
   71.3612   48.8968   52.6975 O   0  0  0  0  0  0  0  0  0  0  0  0
   70.1140   47.3442   51.2406 O   0  0  0  0  0  0  0  0  0  0  0  0
 21 22  1  0
 22 23  2  0
 22 24  2  0
 22 20  1  0
 20 14  1  0
 14 15  2  0
 14 19  1  0
 15 16  1  0
 16 17  2  0
 17  1  1  0
 17 18  1  0
  1  2  1  0
  2  3  2  0
  2  4  1  0
  4  5  1  0
  5  6  2  0
  5 12  1  0
  6  7  1  0
  7  8  2  0
  8  9  1  0
  8 10  1  0
 10 11  1  0
 10 12  2  0
 12 13  1  0
 18 19  2  0
M  END
>  <minimizedAffinity>  (559) 
-8.67612

$$$$
data/reference_output_2/data/smiles/144527.pdb
     RDKit          3D

 26 29  0  0  0  0  0  0  0  0999 V2000
   70.5369   49.5677   53.9749 C   0  0  0  0  0  0  0  0  0  0  0  0
   69.9245   49.3580   55.1873 C   0  0  0  0  0  0  0  0  0  0  0  0
   69.0297   48.3353   55.3280 N   0  0  0  0  0  0  0  0  0  0  0  0
   68.7145   47.5104   54.3125 C   0  0  0  0  0  0  0  0  0  0  0  0
   67.8017   46.4897   54.4482 C   0  0  0  0  0  0  0  0  0  0  0  0
   67.4939   45.6728   53.3858 C   0  0  0  0  0  0  0  0  0  0  0  0
   68.1038   45.8682   52.1556 C   0  0  0  0  0  0  0  0  0  0  0  0
   69.0100   46.8867   52.0299 C   0  0  0  0  0  0  0  0  0  0  0  0
   69.6380   47.1262   50.8483 F   0  0  0  0  0  0  0  0  0  0  0  0
   69.3469   47.7333   53.0759 C   0  0  0  0  0  0  0  0  0  0  0  0
   70.2554   48.7543   52.8982 C   0  0  0  0  0  0  0  0  0  0  0  0
   70.8028   48.9323   51.7969 O   0  0  0  0  0  0  0  0  0  0  0  0
   71.0719   51.8194   53.6065 O   0  0  0  0  0  0  0  0  0  0  0  0
   71.4863   50.6650   53.8536 C   0  0  0  0  0  0  0  0  0  0  0  0
   72.8425   50.4677   54.0038 O   0  0  0  0  0  0  0  0  0  0  0  0
   68.4775   48.1628   56.6279 C   0  0  0  0  0  0  0  0  0  0  0  0
   69.5934   48.0513   57.6126 C   0  0  0  0  0  0  0  0  0  0  0  0
   70.1849   49.1038   58.2697 C   0  0  0  0  0  0  0  0  0  0  0  0
   71.2317   48.9136   59.1788 C   0  0  0  0  0  0  0  0  0  0  0  0
   71.6989   47.6519   59.4397 C   0  0  0  0  0  0  0  0  0  0  0  0
   71.1357   46.5740   58.8049 C   0  0  0  0  0  0  0  0  0  0  0  0
   70.1121   46.7843   57.9184 C   0  0  0  0  0  0  0  0  0  0  0  0
   71.8021   45.3218   59.2444 C   0  0  0  0  0  0  0  0  0  0  0  0
   72.5532   45.7355   60.4717 C   0  0  0  0  0  0  0  0  0  0  0  0
   72.7811   47.2081   60.3492 C   0  0  2  0  0  0  0  0  0  0  0  0
   72.6758   47.7905   61.6107 O   0  0  0  0  0  0  0  0  0  0  0  0
 13 14  2  0
 14 15  1  0
 14  1  1  0
  1  2  2  0
  1 11  1  0
  2  3  1  0
  3 16  1  0
  3  4  1  0
 16 17  1  0
 17 18  2  0
 17 22  1  0
 18 19  1  0
 19 20  2  0
 20 21  1  0
 20 25  1  0
 21 22  2  0
 21 23  1  0
 23 24  1  0
 24 25  1  0
 25 26  1  1
  4  5  1  0
  4 10  2  0
  5  6  2  0
  6  7  1  0
  7  8  2  0
  8  9  1  0
  8 10  1  0
 10 11  1  0
 11 12  2  0
M  END
>  <minimizedAffinity>  (560) 
-8.67562

$$$$
data/reference_output_2/data/smiles/179852.pdb
     RDKit          3D

 28 36  0  0  0  0  0  0  0  0999 V2000
   70.8856   50.3747   55.5904 C   0  0  2  0  0  0  0  0  0  0  0  0
   69.4004   50.6004   55.8097 C   0  0  1  0  0  0  0  0  0  0  0  0
   68.9660   49.4644   56.6779 C   0  0  2  0  0  0  0  0  0  0  0  0
   67.9554   50.1701   57.5960 C   0  0  0  0  0  0  0  0  0  0  0  0
   68.9018   51.2943   58.0401 C   0  0  1  0  0  0  0  0  0  0  0  0
   70.0778   50.5032   58.5212 C   0  0  1  0  0  0  0  0  0  0  0  0
   70.1200   49.2741   57.6024 C   0  0  2  0  0  0  0  0  0  0  0  0
   71.3306   49.8081   56.8770 C   0  0  2  0  0  0  0  0  0  0  0  0
   71.2851   51.0272   57.8081 C   0  0  1  0  0  0  0  0  0  0  0  0
   70.8131   52.1271   56.9214 C   0  0  1  0  0  0  0  0  0  0  0  0
   71.1347   53.3832   57.2895 O   0  0  0  0  0  0  0  0  0  0  0  0
   71.7595   54.0277   56.2203 C   0  0  0  0  0  0  0  0  0  0  0  0
   73.0594   53.3616   55.8301 C   0  0  0  0  0  0  0  0  0  0  0  0
   72.7853   51.8547   55.7186 C   0  0  0  0  0  0  0  0  0  0  0  0
   71.3734   51.7259   55.6191 N   0  0  1  0  0  0  0  0  0  0  0  0
   69.3645   51.8329   56.7279 C   0  0  1  0  0  0  0  0  0  0  0  0
   71.1923   49.6511   54.4614 O   0  0  0  0  0  0  0  0  0  0  0  0
   70.3146   50.8440   52.7743 O   0  0  0  0  0  0  0  0  0  0  0  0
   70.4972   49.7119   53.2911 C   0  0  0  0  0  0  0  0  0  0  0  0
   69.9530   48.5396   52.6022 C   0  0  0  0  0  0  0  0  0  0  0  0
   70.1068   48.1992   51.3100 N   0  0  0  0  0  0  0  0  0  0  0  0
   69.4706   47.0710   51.0420 N   0  0  0  0  0  0  0  0  0  0  0  0
   68.8579   46.6061   52.1587 C   0  0  0  0  0  0  0  0  0  0  0  0
   68.0796   45.5019   52.4392 C   0  0  0  0  0  0  0  0  0  0  0  0
   67.5876   45.2971   53.7122 C   0  0  0  0  0  0  0  0  0  0  0  0
   67.8830   46.2119   54.7004 C   0  0  0  0  0  0  0  0  0  0  0  0
   68.6608   47.3077   54.4009 C   0  0  0  0  0  0  0  0  0  0  0  0
   69.1691   47.5431   53.1412 C   0  0  0  0  0  0  0  0  0  0  0  0
 18 19  2  0
 19 17  1  0
 19 20  1  0
  1 17  1  6
  1  2  1  0
  1  8  1  0
  1 15  1  0
  2  3  1  1
  2 16  1  0
  3  4  1  1
  7  3  1  6
  5  4  1  6
  6  5  1  6
 16  5  1  1
  6  7  1  0
  9  6  1  1
  8  7  1  1
  8  9  1  0
  9 10  1  0
 10 11  1  1
 10 15  1  0
 10 16  1  0
 11 12  1  0
 12 13  1  0
 13 14  1  0
 15 14  1  1
 20 21  2  0
 20 28  1  0
 21 22  1  0
 22 23  1  0
 23 24  1  0
 23 28  2  0
 24 25  2  0
 25 26  1  0
 26 27  2  0
 27 28  1  0
M  CHG  1  15   1
M  END
>  <minimizedAffinity>  (561) 
-8.67527

$$$$
data/reference_output_2/data/smiles/98688.pdb
     RDKit          3D

 26 28  0  0  0  0  0  0  0  0999 V2000
   68.8133   42.2354   57.0125 C   0  0  0  0  0  0  0  0  0  0  0  0
   69.0293   43.5458   56.6611 N   0  0  0  0  0  0  0  0  0  0  0  0
   68.2587   44.1941   55.7762 C   0  0  0  0  0  0  0  0  0  0  0  0
   67.2463   43.5067   55.2320 N   0  0  0  0  0  0  0  0  0  0  0  0
   66.9704   42.2402   55.5171 C   0  0  0  0  0  0  0  0  0  0  0  0
   66.0212   41.6194   54.9984 O   0  0  0  0  0  0  0  0  0  0  0  0
   67.7726   41.5526   56.4435 C   0  0  0  0  0  0  0  0  0  0  0  0
   67.4775   40.2335   56.7360 O   0  0  0  0  0  0  0  0  0  0  0  0
   68.5423   45.5890   55.4449 C   0  0  0  0  0  0  0  0  0  0  0  0
   68.2592   46.0462   54.1497 C   0  0  0  0  0  0  0  0  0  0  0  0
   68.5023   47.3494   53.7714 C   0  0  0  0  0  0  0  0  0  0  0  0
   69.0423   48.2100   54.7158 C   0  0  0  0  0  0  0  0  0  0  0  0
   69.2903   49.5008   54.3642 F   0  0  0  0  0  0  0  0  0  0  0  0
   69.3157   47.7513   55.9840 C   0  0  0  0  0  0  0  0  0  0  0  0
   69.0723   46.4300   56.3767 C   0  0  0  0  0  0  0  0  0  0  0  0
   70.1870   42.4249   58.8616 O   0  0  0  0  0  0  0  0  0  0  0  0
   69.6946   41.6182   57.9836 C   0  0  0  0  0  0  0  0  0  0  0  0
   70.0606   40.2721   58.0689 N   0  0  0  0  0  0  0  0  0  0  0  0
   70.9694   39.7468   59.1026 C   0  0  0  0  0  0  0  0  0  0  0  0
   71.1838   38.2991   59.0013 C   0  0  0  0  0  0  0  0  0  0  0  0
   71.9723   37.8114   57.9514 C   0  0  0  0  0  0  0  0  0  0  0  0
   72.2152   36.4730   57.7766 C   0  0  0  0  0  0  0  0  0  0  0  0
   71.6655   35.5590   58.6642 C   0  0  0  0  0  0  0  0  0  0  0  0
   71.9206   34.2288   58.4691 F   0  0  0  0  0  0  0  0  0  0  0  0
   70.8891   36.0045   59.7008 C   0  0  0  0  0  0  0  0  0  0  0  0
   70.6674   37.3447   59.8457 C   0  0  0  0  0  0  0  0  0  0  0  0
 16 17  2  0
 17 18  1  0
 17  1  1  0
 18 19  1  0
 19 20  1  0
 20 21  2  0
 20 26  1  0
 21 22  1  0
 22 23  2  0
 23 24  1  0
 23 25  1  0
 25 26  2  0
  1  2  1  0
  1  7  2  0
  2  3  2  0
  3  9  1  0
  3  4  1  0
  9 10  2  0
  9 15  1  0
 10 11  1  0
 11 12  2  0
 12 13  1  0
 12 14  1  0
 14 15  2  0
  4  5  1  0
  5  6  2  0
  5  7  1  0
  7  8  1  0
M  END
>  <minimizedAffinity>  (562) 
-8.67515

$$$$
data/200k_reference_output/data/smiles/75214.pdb
     RDKit          3D

 29 32  0  0  0  0  0  0  0  0999 V2000
   72.6639   35.1117   57.4179 C   0  0  0  0  0  0  0  0  0  0  0  0
   72.6631   36.4771   57.0362 C   0  0  0  0  0  0  0  0  0  0  0  0
   71.9750   37.4159   57.7563 C   0  0  0  0  0  0  0  0  0  0  0  0
   71.2578   37.0927   58.8776 C   0  0  0  0  0  0  0  0  0  0  0  0
   71.2396   35.7613   59.2849 C   0  0  0  0  0  0  0  0  0  0  0  0
   70.5513   35.4358   60.4303 C   0  0  0  0  0  0  0  0  0  0  0  0
   70.5568   34.1368   60.8704 C   0  0  0  0  0  0  0  0  0  0  0  0
   71.2479   33.1770   60.1637 C   0  0  0  0  0  0  0  0  0  0  0  0
   71.9347   33.4948   59.0180 C   0  0  0  0  0  0  0  0  0  0  0  0
   71.9396   34.7925   58.5566 C   0  0  0  0  0  0  0  0  0  0  0  0
   73.3116   34.1363   56.5402 C   0  0  0  0  0  0  0  0  0  0  0  0
   76.6767   36.3477   52.5222 N   0  0  0  0  0  0  0  0  0  0  0  0
   75.8197   35.7884   53.5312 C   0  0  0  0  0  0  0  0  0  0  0  0
   76.3197   35.2669   54.7001 C   0  0  0  0  0  0  0  0  0  0  0  0
   75.4615   34.7482   55.6204 C   0  0  0  0  0  0  0  0  0  0  0  0
   74.0956   34.7135   55.4478 N   0  0  0  0  0  0  0  0  0  0  0  0
   73.6496   35.2156   54.3236 C   0  0  0  0  0  0  0  0  0  0  0  0
   72.4408   35.2437   54.0328 O   0  0  0  0  0  0  0  0  0  0  0  0
   74.4946   35.7412   53.3870 N   0  0  0  0  0  0  0  0  0  0  0  0
   70.5120   38.0844   59.6690 C   0  0  0  0  0  0  0  0  0  0  0  0
   70.2242   39.3152   58.9514 N   0  0  0  0  0  0  0  0  0  0  0  0
   69.0159   39.5267   58.2846 C   0  0  0  0  0  0  0  0  0  0  0  0
   68.1374   38.6126   58.3051 O   0  0  0  0  0  0  0  0  0  0  0  0
   68.7231   40.7583   57.5662 C   0  0  0  0  0  0  0  0  0  0  0  0
   67.6553   40.8432   56.7035 C   0  0  0  0  0  0  0  0  0  0  0  0
   67.3767   42.0361   56.0225 C   0  0  0  0  0  0  0  0  0  0  0  0
   68.2024   43.1183   56.2420 C   0  0  0  0  0  0  0  0  0  0  0  0
   69.2780   43.0592   57.1021 C   0  0  0  0  0  0  0  0  0  0  0  0
   69.5408   41.8848   57.7628 C   0  0  0  0  0  0  0  0  0  0  0  0
 12 13  1  0
 13 14  1  0
 13 19  2  0
 14 15  2  0
 15 16  1  0
 16 11  1  0
 16 17  1  0
 11  1  1  0
  1  2  2  0
  1 10  1  0
  2  3  1  0
  3  4  2  0
  4 20  1  0
  4  5  1  0
 20 21  1  0
 21 22  1  0
 22 23  2  0
 22 24  1  0
 24 25  2  0
 24 29  1  0
 25 26  1  0
 26 27  2  0
 27 28  1  0
 28 29  2  0
  5  6  1  0
  5 10  2  0
  6  7  2  0
  7  8  1  0
  8  9  2  0
  9 10  1  0
 17 18  2  0
 17 19  1  0
M  END
>  <minimizedAffinity>  (563) 
-8.67473

$$$$
data/200k_reference_output/data/smiles/48719.pdb
     RDKit          3D

 27 30  0  0  0  0  0  0  0  0999 V2000
   69.2323   49.3275   56.5500 C   0  0  0  0  0  0  0  0  0  0  0  0
   68.3445   50.3353   56.8141 C   0  0  0  0  0  0  0  0  0  0  0  0
   68.5388   51.2264   57.8685 C   0  0  0  0  0  0  0  0  0  0  0  0
   69.6176   51.0896   58.6377 N   0  0  0  0  0  0  0  0  0  0  0  0
   70.4992   50.1126   58.3993 C   0  0  0  0  0  0  0  0  0  0  0  0
   70.3392   49.1983   57.3498 C   0  0  0  0  0  0  0  0  0  0  0  0
   71.5060   48.3039   57.4343 C   0  0  0  0  0  0  0  0  0  0  0  0
   72.4912   49.0567   58.2321 C   0  0  2  0  0  0  0  0  0  0  0  0
   71.6786   49.8201   59.0958 O   0  0  0  0  0  0  0  0  0  0  0  0
   69.2817   47.7838   53.1185 C   0  0  0  0  0  0  0  0  0  0  0  0
   68.6298   46.5931   53.3546 C   0  0  0  0  0  0  0  0  0  0  0  0
   68.1710   46.2865   54.6330 C   0  0  0  0  0  0  0  0  0  0  0  0
   68.3776   47.1871   55.6530 C   0  0  0  0  0  0  0  0  0  0  0  0
   69.0316   48.4028   55.4559 C   0  0  0  0  0  0  0  0  0  0  0  0
   69.4642   48.6525   54.1674 C   0  0  0  0  0  0  0  0  0  0  0  0
   69.9636   49.4384   51.3437 N   0  0  0  0  0  0  0  0  0  0  0  0
   69.7658   48.1172   51.7912 C   0  0  0  0  0  0  0  0  0  0  0  0
   70.0262   47.1872   50.9857 O   0  0  0  0  0  0  0  0  0  0  0  0
   73.4217   49.8923   57.4684 C   0  0  0  0  0  0  0  0  0  0  0  0
   73.7393   51.0139   57.9409 O   0  0  0  0  0  0  0  0  0  0  0  0
   73.9878   49.5112   56.2232 N   0  0  0  0  0  0  0  0  0  0  0  0
   74.9070   50.3535   55.4830 C   0  0  0  0  0  0  0  0  0  0  0  0
   76.2992   49.8766   55.5655 C   0  0  0  0  0  0  0  0  0  0  0  0
   77.1241   49.9732   56.6619 C   0  0  0  0  0  0  0  0  0  0  0  0
   78.3589   49.4013   56.3254 C   0  0  0  0  0  0  0  0  0  0  0  0
   78.1855   48.9905   55.0207 C   0  0  0  0  0  0  0  0  0  0  0  0
   76.9645   49.2865   54.6084 O   0  0  0  0  0  0  0  0  0  0  0  0
 16 17  1  0
 17 18  2  0
 17 10  1  0
 10 11  2  0
 10 15  1  0
 11 12  1  0
 12 13  2  0
 13 14  1  0
 14  1  1  0
 14 15  2  0
  1  2  2  0
  1  6  1  0
  2  3  1  0
  3  4  2  0
  4  5  1  0
  5  6  2  0
  5  9  1  0
  6  7  1  0
  7  8  1  0
  8 19  1  6
  8  9  1  0
 19 20  2  0
 19 21  1  0
 21 22  1  0
 22 23  1  0
 23 24  2  0
 23 27  1  0
 24 25  1  0
 25 26  2  0
 26 27  1  0
M  END
>  <minimizedAffinity>  (564) 
-8.67374

$$$$
data/reference_output_2/data/smiles/180766.pdb
     RDKit          3D

 26 28  0  0  0  0  0  0  0  0999 V2000
   75.8757   35.5406   53.4747 N   0  0  0  0  0  0  0  0  0  0  0  0
   74.5443   35.6575   53.3454 C   0  0  0  0  0  0  0  0  0  0  0  0
   73.6743   35.5491   54.4153 C   0  0  0  0  0  0  0  0  0  0  0  0
   74.1323   35.3156   55.6636 N   0  0  0  0  0  0  0  0  0  0  0  0
   75.4624   35.1974   55.8024 C   0  0  0  0  0  0  0  0  0  0  0  0
   75.9149   34.9765   56.9740 O   0  0  0  0  0  0  0  0  0  0  0  0
   76.3369   35.3046   54.7403 C   0  0  0  0  0  0  0  0  0  0  0  0
   77.5790   35.1912   54.8913 O   0  0  0  0  0  0  0  0  0  0  0  0
   73.2510   35.2036   56.7727 C   0  0  0  0  0  0  0  0  0  0  0  0
   73.0184   33.9920   57.3806 C   0  0  0  0  0  0  0  0  0  0  0  0
   72.1493   33.8908   58.4673 C   0  0  0  0  0  0  0  0  0  0  0  0
   71.4981   35.0014   58.9626 C   0  0  0  0  0  0  0  0  0  0  0  0
   70.6495   34.9021   60.0256 F   0  0  0  0  0  0  0  0  0  0  0  0
   71.7275   36.2187   58.3568 C   0  0  0  0  0  0  0  0  0  0  0  0
   71.0772   37.3215   58.8528 F   0  0  0  0  0  0  0  0  0  0  0  0
   72.5875   36.3046   57.2852 C   0  0  0  0  0  0  0  0  0  0  0  0
   76.8001   35.6411   52.3858 C   0  0  0  0  0  0  0  0  0  0  0  0
   76.5304   33.3805   51.8682 O   0  0  0  0  0  0  0  0  0  0  0  0
   76.7451   34.5533   51.4050 C   0  0  0  0  0  0  0  0  0  0  0  0
   76.9068   34.6567   49.9794 C   0  0  0  0  0  0  0  0  0  0  0  0
   77.8204   35.5399   49.4539 C   0  0  0  0  0  0  0  0  0  0  0  0
   77.9902   35.6641   48.0829 C   0  0  0  0  0  0  0  0  0  0  0  0
   77.2504   34.9091   47.1976 C   0  0  0  0  0  0  0  0  0  0  0  0
   77.4359   35.0518   45.8675 F   0  0  0  0  0  0  0  0  0  0  0  0
   76.3291   34.0182   47.7236 C   0  0  0  0  0  0  0  0  0  0  0  0
   76.1682   33.9030   49.0892 C   0  0  0  0  0  0  0  0  0  0  0  0
 18 19  2  0
 19 17  1  0
 19 20  1  0
 17  1  1  0
  1  2  1  0
  1  7  1  0
  2  3  2  0
  3  4  1  0
  4  9  1  0
  4  5  1  0
  9 10  2  0
  9 16  1  0
 10 11  1  0
 11 12  2  0
 12 13  1  0
 12 14  1  0
 14 15  1  0
 14 16  2  0
  5  6  2  0
  5  7  1  0
  7  8  2  0
 20 21  2  0
 20 26  1  0
 21 22  1  0
 22 23  2  0
 23 24  1  0
 23 25  1  0
 25 26  2  0
M  END
>  <minimizedAffinity>  (565) 
-8.67373

$$$$
data/reference_output_2/data/smiles/135411.pdb
     RDKit          3D

 29 32  0  0  0  0  0  0  0  0999 V2000
   68.5432   41.5032   57.5657 C   0  0  1  0  0  0  0  0  0  0  0  0
   68.1386   41.8347   59.0076 C   0  0  0  0  0  0  0  0  0  0  0  0
   68.6881   40.6405   59.6981 C   0  0  0  0  0  0  0  0  0  0  0  0
   68.8649   40.5364   60.9311 O   0  0  0  0  0  0  0  0  0  0  0  0
   68.9887   39.6201   58.7581 N   0  0  0  0  0  0  0  0  0  0  0  0
   68.2581   40.0335   57.5448 C   0  0  0  0  0  0  0  0  0  0  0  0
   69.8027   38.4528   58.9147 C   0  0  0  0  0  0  0  0  0  0  0  0
   69.5428   37.5246   59.9031 C   0  0  0  0  0  0  0  0  0  0  0  0
   70.3391   36.3901   60.0520 C   0  0  0  0  0  0  0  0  0  0  0  0
   71.4107   36.1461   59.2286 C   0  0  0  0  0  0  0  0  0  0  0  0
   71.6762   37.0713   58.2367 C   0  0  0  0  0  0  0  0  0  0  0  0
   70.8817   38.1973   58.0933 C   0  0  0  0  0  0  0  0  0  0  0  0
   72.7630   36.7999   57.4207 O   0  0  0  0  0  0  0  0  0  0  0  0
   73.2345   35.5011   57.1389 C   0  0  0  0  0  0  0  0  0  0  0  0
   72.9052   34.4899   58.1987 C   0  0  0  0  0  0  0  0  0  0  0  0
   72.2403   35.0418   59.3207 O   0  0  0  0  0  0  0  0  0  0  0  0
   67.5752   44.2695   55.1326 N   0  0  0  0  0  0  0  0  0  0  0  0
   68.2784   43.4569   56.0862 C   0  0  0  0  0  0  0  0  0  0  0  0
   69.4151   43.8700   56.4550 O   0  0  0  0  0  0  0  0  0  0  0  0
   67.7731   42.2601   56.6111 N   0  0  0  0  0  0  0  0  0  0  0  0
   69.2088   47.8605   53.5210 C   0  0  0  0  0  0  0  0  0  0  0  0
   69.1344   47.6502   54.8852 C   0  0  0  0  0  0  0  0  0  0  0  0
   68.6080   46.4912   55.4338 C   0  0  0  0  0  0  0  0  0  0  0  0
   68.1270   45.4815   54.6248 C   0  0  0  0  0  0  0  0  0  0  0  0
   68.2005   45.6898   53.2626 C   0  0  0  0  0  0  0  0  0  0  0  0
   68.7259   46.8459   52.7196 C   0  0  0  0  0  0  0  0  0  0  0  0
   69.4504   50.4394   53.4652 C   0  0  0  0  0  0  0  0  0  0  0  0
   69.7670   49.0865   52.9581 C   0  0  0  0  0  0  0  0  0  0  0  0
   70.5579   48.9840   51.9913 O   0  0  0  0  0  0  0  0  0  0  0  0
 27 28  1  0
 28 29  2  0
 28 21  1  0
 21 22  2  0
 21 26  1  0
 22 23  1  0
 23 24  2  0
 24 17  1  0
 24 25  1  0
 17 18  1  0
 18 19  2  0
 18 20  1  0
  1 20  1  6
  1  2  1  0
  1  6  1  0
  2  3  1  0
  3  4  2  0
  3  5  1  0
  5  7  1  0
  5  6  1  0
  7  8  2  0
  7 12  1  0
  8  9  1  0
  9 10  2  0
 10 11  1  0
 10 16  1  0
 11 12  2  0
 11 13  1  0
 13 14  1  0
 14 15  1  0
 15 16  1  0
 25 26  2  0
M  END
>  <minimizedAffinity>  (566) 
-8.67115

$$$$
data/200k_reference_output/data/smiles/63341.pdb
     RDKit          3D

 24 26  0  0  0  0  0  0  0  0999 V2000
   66.7809   42.7302   55.9349 O   0  0  0  0  0  0  0  0  0  0  0  0
   67.6469   42.0499   56.5662 C   0  0  0  0  0  0  0  0  0  0  0  0
   67.6080   40.6550   56.8779 N   0  0  0  0  0  0  0  0  0  0  0  0
   68.7724   40.2762   57.6005 C   0  0  0  0  0  0  0  0  0  0  0  0
   69.2229   39.0766   58.1305 C   0  0  0  0  0  0  0  0  0  0  0  0
   70.4233   38.9713   58.8065 C   0  0  0  0  0  0  0  0  0  0  0  0
   71.2242   40.1006   58.9715 C   0  0  0  0  0  0  0  0  0  0  0  0
   72.4156   40.0277   59.6347 F   0  0  0  0  0  0  0  0  0  0  0  0
   70.7507   41.2781   58.4339 C   0  0  0  0  0  0  0  0  0  0  0  0
   69.5565   41.4011   57.7570 C   0  0  0  0  0  0  0  0  0  0  0  0
   68.8910   42.5488   57.1223 C   0  0  0  0  0  0  0  0  0  0  0  0
   69.2822   43.7563   57.0461 N   0  0  0  0  0  0  0  0  0  0  0  0
   68.5799   44.7892   56.4182 N   0  0  0  0  0  0  0  0  0  0  0  0
   69.1565   46.1078   56.5131 C   0  0  0  0  0  0  0  0  0  0  0  0
   70.2044   46.3463   57.7054 S   0  0  0  0  0  0  0  0  0  0  0  0
   68.7839   47.0775   55.5920 N   0  0  0  0  0  0  0  0  0  0  0  0
   68.7414   47.0543   54.1927 C   0  0  0  0  0  0  0  0  0  0  0  0
   69.5437   47.9233   53.4321 C   0  0  0  0  0  0  0  0  0  0  0  0
   69.5345   47.9359   52.0629 C   0  0  0  0  0  0  0  0  0  0  0  0
   70.3070   48.7735   51.3358 F   0  0  0  0  0  0  0  0  0  0  0  0
   68.7171   47.0743   51.3697 C   0  0  0  0  0  0  0  0  0  0  0  0
   67.9312   46.2224   52.0841 C   0  0  0  0  0  0  0  0  0  0  0  0
   67.1280   45.3740   51.4071 F   0  0  0  0  0  0  0  0  0  0  0  0
   67.9404   46.2096   53.4904 C   0  0  0  0  0  0  0  0  0  0  0  0
  1  2  2  0
  2  3  1  0
  2 11  1  0
  3  4  1  0
  4  5  2  0
  4 10  1  0
  5  6  1  0
  6  7  2  0
  7  8  1  0
  7  9  1  0
  9 10  2  0
 10 11  1  0
 11 12  2  0
 12 13  1  0
 13 14  1  0
 14 15  2  0
 14 16  1  0
 16 17  1  0
 17 18  2  0
 17 24  1  0
 18 19  1  0
 19 20  1  0
 19 21  2  0
 21 22  1  0
 22 23  1  0
 22 24  2  0
M  END
>  <minimizedAffinity>  (567) 
-8.67081

$$$$
data/reference_output_2/data/smiles/93845.pdb
     RDKit          3D

 28 32  0  0  0  0  0  0  0  0999 V2000
   69.7111   46.6506   57.4548 C   0  0  0  0  0  0  0  0  0  0  0  0
   69.7300   45.3237   57.2740 N   0  0  0  0  0  0  0  0  0  0  0  0
   70.6135   44.7315   58.0513 N   0  0  0  0  0  0  0  0  0  0  0  0
   71.2454   45.6502   58.8091 C   0  0  0  0  0  0  0  0  0  0  0  0
   72.2387   45.5619   59.7701 C   0  0  0  0  0  0  0  0  0  0  0  0
   72.7126   46.6892   60.4046 C   0  0  0  0  0  0  0  0  0  0  0  0
   72.1491   47.8937   60.0334 C   0  0  0  0  0  0  0  0  0  0  0  0
   71.1514   47.9926   59.0697 C   0  0  0  0  0  0  0  0  0  0  0  0
   70.6881   46.8562   58.4441 C   0  0  0  0  0  0  0  0  0  0  0  0
   73.7464   46.6249   61.4046 N   0  0  0  0  0  0  0  0  0  0  0  0
   74.5517   45.4384   61.4127 C   0  0  0  0  0  0  0  0  0  0  0  0
   75.7075   45.4124   62.3070 C   0  0  0  0  0  0  0  0  0  0  0  0
   75.7863   46.4382   63.2991 N   0  0  0  0  0  0  0  0  0  0  0  0
   74.5207   47.0481   63.6151 C   0  0  0  0  0  0  0  0  0  0  0  0
   73.9559   47.6947   62.3455 C   0  0  0  0  0  0  0  0  0  0  0  0
   68.9397   49.2260   57.4493 O   0  0  0  0  0  0  0  0  0  0  0  0
   68.7567   47.9102   56.7085 S   0  0  0  0  0  0  0  0  0  0  0  0
   67.2861   47.5923   56.7816 O   0  0  0  0  0  0  0  0  0  0  0  0
   69.2151   48.1953   55.0479 C   0  0  0  0  0  0  0  0  0  0  0  0
   70.0224   49.2969   54.7547 C   0  0  0  0  0  0  0  0  0  0  0  0
   70.3775   49.5894   53.4683 C   0  0  0  0  0  0  0  0  0  0  0  0
   69.9455   48.7999   52.4312 C   0  0  0  0  0  0  0  0  0  0  0  0
   69.1455   47.7059   52.7112 C   0  0  0  0  0  0  0  0  0  0  0  0
   68.6974   46.8787   51.6967 C   0  0  0  0  0  0  0  0  0  0  0  0
   67.9099   45.7757   51.9324 C   0  0  0  0  0  0  0  0  0  0  0  0
   67.5569   45.4827   53.2158 C   0  0  0  0  0  0  0  0  0  0  0  0
   67.9873   46.2878   54.2590 C   0  0  0  0  0  0  0  0  0  0  0  0
   68.7754   47.3963   54.0233 C   0  0  0  0  0  0  0  0  0  0  0  0
 16 17  2  0
 17 18  2  0
 17 19  1  0
 17  1  1  0
 19 20  2  0
 19 28  1  0
 20 21  1  0
 21 22  2  0
 22 23  1  0
 23 24  1  0
 23 28  2  0
 24 25  2  0
 25 26  1  0
 26 27  2  0
 27 28  1  0
  1  2  2  0
  1  9  1  0
  2  3  1  0
  3  4  1  0
  4  5  1  0
  4  9  2  0
  5  6  2  0
  6 10  1  0
  6  7  1  0
 10 11  1  0
 10 15  1  0
 11 12  1  0
 12 13  1  0
 13 14  1  0
 14 15  1  0
  7  8  2  0
  8  9  1  0
M  CHG  1  13   1
M  END
>  <minimizedAffinity>  (568) 
-8.67080

$$$$
data/reference_output_2/data/smiles/101060.pdb
     RDKit          3D

 27 30  0  0  0  0  0  0  0  0999 V2000
   69.5093   47.3613   56.1831 N   0  0  0  0  0  0  0  0  0  0  0  0
   70.0084   48.3175   55.4366 N   0  0  0  0  0  0  0  0  0  0  0  0
   69.8114   48.3989   54.0825 C   0  0  0  0  0  0  0  0  0  0  0  0
   69.0601   47.4625   53.4054 C   0  0  0  0  0  0  0  0  0  0  0  0
   68.8303   47.4996   52.0463 C   0  0  0  0  0  0  0  0  0  0  0  0
   68.0548   46.5170   51.4096 C   0  0  0  0  0  0  0  0  0  0  0  0
   67.5316   45.5128   52.1923 C   0  0  0  0  0  0  0  0  0  0  0  0
   67.7666   45.4856   53.5468 C   0  0  0  0  0  0  0  0  0  0  0  0
   68.5186   46.4332   54.1871 C   0  0  0  0  0  0  0  0  0  0  0  0
   68.7640   46.4257   55.5323 C   0  0  0  0  0  0  0  0  0  0  0  0
   68.2710   45.4935   56.2207 O   0  0  0  0  0  0  0  0  0  0  0  0
   70.4174   49.5071   53.3626 C   0  0  0  0  0  0  0  0  0  0  0  0
   69.8789   50.3418   52.6517 O   0  0  0  0  0  0  0  0  0  0  0  0
   71.8225   49.6834   53.4712 O   0  0  0  0  0  0  0  0  0  0  0  0
   69.7163   47.2958   57.6018 C   0  0  0  0  0  0  0  0  0  0  0  0
   73.0226   49.4885   58.9888 C   0  0  0  0  0  0  0  0  0  0  0  0
   71.9181   50.3711   58.5826 C   0  0  1  0  0  0  0  0  0  0  0  0
   72.1722   51.0877   57.2516 C   0  0  0  0  0  0  0  0  0  0  0  0
   70.7724   51.4960   56.8814 C   0  0  0  0  0  0  0  0  0  0  0  0
   70.3066   52.5576   56.1510 C   0  0  0  0  0  0  0  0  0  0  0  0
   68.9357   52.7757   56.0128 C   0  0  0  0  0  0  0  0  0  0  0  0
   68.0647   51.8895   56.6364 C   0  0  0  0  0  0  0  0  0  0  0  0
   68.5621   50.8330   57.3614 C   0  0  0  0  0  0  0  0  0  0  0  0
   69.8969   50.5965   57.5081 C   0  0  0  0  0  0  0  0  0  0  0  0
   70.6902   49.6127   58.1557 N   0  0  0  0  0  0  0  0  0  0  0  0
   70.5058   48.2654   58.2950 C   0  0  0  0  0  0  0  0  0  0  0  0
   71.2346   47.7502   59.2852 O   0  0  0  0  0  0  0  0  0  0  0  0
 17 16  1  6
 17 18  1  0
 17 25  1  0
 18 19  1  0
 19 20  2  0
 19 24  1  0
 20 21  1  0
 21 22  2  0
 22 23  1  0
 23 24  2  0
 24 25  1  0
 25 26  1  0
 26 27  2  0
 26 15  1  0
 15  1  1  0
  1  2  1  0
  1 10  1  0
  2  3  2  0
  3 12  1  0
  3  4  1  0
 12 13  2  0
 12 14  1  0
  4  5  2  0
  4  9  1  0
  5  6  1  0
  6  7  2  0
  7  8  1  0
  8  9  2  0
  9 10  1  0
 10 11  2  0
M  END
>  <minimizedAffinity>  (569) 
-8.67011

$$$$
data/reference_output_2/data/smiles/111582.pdb
     RDKit          3D

 21 22  0  0  0  0  0  0  0  0999 V2000
   68.7550   47.3908   56.6437 S   0  0  0  0  0  0  0  0  0  0  0  0
   69.7122   48.4670   57.0319 O   0  0  0  0  0  0  0  0  0  0  0  0
   67.3751   47.5757   57.2067 O   0  0  0  0  0  0  0  0  0  0  0  0
   69.3126   47.8555   52.6519 C   0  0  0  0  0  0  0  0  0  0  0  0
   68.5458   46.8299   52.1539 C   0  0  0  0  0  0  0  0  0  0  0  0
   67.8604   45.9850   53.0291 C   0  0  0  0  0  0  0  0  0  0  0  0
   67.9400   46.1621   54.3860 C   0  0  0  0  0  0  0  0  0  0  0  0
   68.7185   47.2043   54.9004 C   0  0  0  0  0  0  0  0  0  0  0  0
   69.3753   48.0117   54.0237 C   0  0  0  0  0  0  0  0  0  0  0  0
   70.6646   48.2899   50.7435 O   0  0  0  0  0  0  0  0  0  0  0  0
   70.0051   48.7037   51.7016 C   0  0  0  0  0  0  0  0  0  0  0  0
   69.9424   50.1012   51.8518 O   0  0  0  0  0  0  0  0  0  0  0  0
   69.3563   45.8661   57.2588 N   0  0  0  0  0  0  0  0  0  0  0  0
   69.1509   44.8420   56.3502 N   0  0  0  0  0  0  0  0  0  0  0  0
   68.9598   43.5015   56.7569 C   0  0  0  0  0  0  0  0  0  0  0  0
   69.7917   42.8918   57.6832 C   0  0  0  0  0  0  0  0  0  0  0  0
   69.5748   41.5945   58.1043 C   0  0  0  0  0  0  0  0  0  0  0  0
   68.5267   40.8487   57.6228 C   0  0  0  0  0  0  0  0  0  0  0  0
   68.2375   39.0480   58.2268 Br  0  0  0  0  0  0  0  0  0  0  0  0
   67.6889   41.4342   56.7020 C   0  0  0  0  0  0  0  0  0  0  0  0
   67.9105   42.7434   56.2795 C   0  0  0  0  0  0  0  0  0  0  0  0
 10 11  2  0
 11 12  1  0
 11  4  1  0
  4  5  2  0
  4  9  1  0
  5  6  1  0
  6  7  2  0
  7  8  1  0
  8  1  1  0
  8  9  2  0
  1  2  2  0
  1  3  2  0
  1 13  1  0
 13 14  1  0
 14 15  1  0
 15 16  2  0
 15 21  1  0
 16 17  1  0
 17 18  2  0
 18 19  1  0
 18 20  1  0
 20 21  2  0
M  END
>  <minimizedAffinity>  (570) 
-8.66897

$$$$
data/reference_output_2/data/smiles/189976.pdb
     RDKit          3D

 27 30  0  0  0  0  0  0  0  0999 V2000
   70.2608   43.9841   57.3690 C   0  0  0  0  0  0  0  0  0  0  0  0
   70.9075   44.8732   58.1856 C   0  0  0  0  0  0  0  0  0  0  0  0
   70.6053   46.2407   58.1309 C   0  0  0  0  0  0  0  0  0  0  0  0
   69.6431   46.6200   57.2276 C   0  0  0  0  0  0  0  0  0  0  0  0
   68.9915   45.7314   56.4056 C   0  0  0  0  0  0  0  0  0  0  0  0
   69.3116   44.4005   56.4856 C   0  0  0  0  0  0  0  0  0  0  0  0
   69.9382   41.6986   58.2874 C   0  0  0  0  0  0  0  0  0  0  0  0
   68.9946   42.1490   59.0273 O   0  0  0  0  0  0  0  0  0  0  0  0
   70.5903   42.5928   57.4471 N   0  0  0  0  0  0  0  0  0  0  0  0
   72.6929   37.4721   58.6630 C   0  0  0  0  0  0  0  0  0  0  0  0
   71.5195   38.4167   58.5509 C   0  0  0  0  0  0  0  0  0  0  0  0
   71.5604   39.7835   58.4768 C   0  0  0  0  0  0  0  0  0  0  0  0
   70.2527   40.2963   58.3827 C   0  0  0  0  0  0  0  0  0  0  0  0
   69.4748   39.2039   58.4056 N   0  0  0  0  0  0  0  0  0  0  0  0
   68.0382   39.1440   58.3367 C   0  0  0  0  0  0  0  0  0  0  0  0
   70.2241   38.0945   58.5051 N   0  0  0  0  0  0  0  0  0  0  0  0
   68.0476   46.2496   55.5466 O   0  0  0  0  0  0  0  0  0  0  0  0
   68.1408   46.3966   54.1977 C   0  0  0  0  0  0  0  0  0  0  0  0
   67.5077   45.4561   53.3946 C   0  0  0  0  0  0  0  0  0  0  0  0
   67.5330   45.5020   52.0273 C   0  0  0  0  0  0  0  0  0  0  0  0
   68.1991   46.5002   51.3914 C   0  0  0  0  0  0  0  0  0  0  0  0
   68.8461   47.4627   52.1450 C   0  0  0  0  0  0  0  0  0  0  0  0
   69.5675   48.5423   51.8323 N   0  0  0  0  0  0  0  0  0  0  0  0
   69.9665   49.1318   52.9734 C   0  0  0  0  0  0  0  0  0  0  0  0
   70.6658   50.1764   52.9954 O   0  0  0  0  0  0  0  0  0  0  0  0
   69.5118   48.4454   54.0368 N   0  0  0  0  0  0  0  0  0  0  0  0
   68.8127   47.4043   53.5390 C   0  0  0  0  0  0  0  0  0  0  0  0
 10 11  1  0
 11 12  1  0
 11 16  2  0
 12 13  2  0
 13  7  1  0
 13 14  1  0
  7  8  2  0
  7  9  1  0
  9  1  1  0
  1  2  2  0
  1  6  1  0
  2  3  1  0
  3  4  2  0
  4  5  1  0
  5 17  1  0
  5  6  2  0
 17 18  1  0
 18 19  2  0
 18 27  1  0
 19 20  1  0
 20 21  2  0
 21 22  1  0
 22 23  1  0
 22 27  2  0
 23 24  1  0
 24 25  2  0
 24 26  1  0
 26 27  1  0
 14 15  1  0
 14 16  1  0
M  CHG  1  23   1
M  END
>  <minimizedAffinity>  (571) 
-8.66802

$$$$
data/reference_output_2/data/smiles/193802.pdb
     RDKit          3D

 28 31  0  0  0  0  0  0  0  0999 V2000
   69.3070   47.9766   56.3480 C   0  0  0  0  0  0  0  0  0  0  0  0
   69.4360   46.7390   56.4182 O   0  0  0  0  0  0  0  0  0  0  0  0
   69.0367   48.6026   55.1309 N   0  0  0  0  0  0  0  0  0  0  0  0
   68.7739   47.7311   54.0073 C   0  0  0  0  0  0  0  0  0  0  0  0
   68.0690   46.6151   54.3700 C   0  0  0  0  0  0  0  0  0  0  0  0
   67.7439   45.6332   53.4274 C   0  0  0  0  0  0  0  0  0  0  0  0
   68.1287   45.7692   52.1067 C   0  0  0  0  0  0  0  0  0  0  0  0
   68.8349   46.8950   51.7482 C   0  0  0  0  0  0  0  0  0  0  0  0
   69.1546   47.8690   52.6920 C   0  0  0  0  0  0  0  0  0  0  0  0
   69.8723   49.0137   52.1292 C   0  0  0  0  0  0  0  0  0  0  0  0
   70.3910   48.8502   51.0301 O   0  0  0  0  0  0  0  0  0  0  0  0
   70.0356   50.3153   52.7254 N   0  0  0  0  0  0  0  0  0  0  0  0
   69.5729   50.7736   54.0115 C   0  0  0  0  0  0  0  0  0  0  0  0
   69.5944   52.1310   54.1515 C   0  0  0  0  0  0  0  0  0  0  0  0
   69.1732   52.7017   55.3435 C   0  0  0  0  0  0  0  0  0  0  0  0
   68.7242   51.9311   56.4083 C   0  0  0  0  0  0  0  0  0  0  0  0
   68.7211   50.6157   56.2230 N   0  0  0  0  0  0  0  0  0  0  0  0
   69.1163   50.0249   55.0990 C   0  0  0  0  0  0  0  0  0  0  0  0
   69.4541   48.7427   57.6069 C   0  0  0  0  0  0  0  0  0  0  0  0
   75.1474   49.6001   56.5770 C   0  0  0  0  0  0  0  0  0  0  0  0
   74.5013   48.6825   57.5513 C   0  0  0  0  0  0  0  0  0  0  0  0
   75.0432   47.5642   57.7335 O   0  0  0  0  0  0  0  0  0  0  0  0
   73.3365   49.0007   58.2643 N   0  0  0  0  0  0  0  0  0  0  0  0
   72.6734   50.3057   58.0828 C   0  0  0  0  0  0  0  0  0  0  0  0
   71.1963   50.1114   58.5269 C   0  0  0  0  0  0  0  0  0  0  0  0
   70.8695   48.8191   57.9220 N   0  0  0  0  0  0  0  0  0  0  0  0
   71.2782   47.8045   58.8723 C   0  0  0  0  0  0  0  0  0  0  0  0
   72.7410   48.0637   59.1952 C   0  0  0  0  0  0  0  0  0  0  0  0
 20 21  1  0
 21 22  2  0
 21 23  1  0
 23 24  1  0
 23 28  1  0
 24 25  1  0
 25 26  1  0
 26 19  1  0
 26 27  1  0
 19  1  1  0
  1  2  2  0
  1  3  1  0
  3  4  1  0
  3 18  1  0
  4  5  2  0
  4  9  1  0
  5  6  1  0
  6  7  2  0
  7  8  1  0
  8  9  2  0
  9 10  1  0
 10 11  2  0
 10 12  1  0
 12 13  1  0
 13 14  1  0
 13 18  2  0
 14 15  2  0
 15 16  1  0
 16 17  2  0
 17 18  1  0
 27 28  1  0
M  CHG  1  26   1
M  END
>  <minimizedAffinity>  (572) 
-8.66710

$$$$
data/reference_output_2/data/smiles/173112.pdb
     RDKit          3D

 25 27  0  0  0  0  0  0  0  0999 V2000
   70.1300   47.6922   57.9452 C   0  0  0  0  0  0  0  0  0  0  0  0
   71.0319   46.5128   57.9556 C   0  0  0  0  0  0  0  0  0  0  0  0
   69.7636   44.9373   59.1780 O   0  0  0  0  0  0  0  0  0  0  0  0
   70.4191   45.2348   58.1743 C   0  0  0  0  0  0  0  0  0  0  0  0
   70.5230   44.1497   57.2024 N   0  0  0  0  0  0  0  0  0  0  0  0
   69.9243   42.8984   57.4172 C   0  0  0  0  0  0  0  0  0  0  0  0
   70.5437   41.9479   58.1802 C   0  0  0  0  0  0  0  0  0  0  0  0
   69.9607   40.7004   58.4016 C   0  0  0  0  0  0  0  0  0  0  0  0
   68.7303   40.4356   57.8313 C   0  0  0  0  0  0  0  0  0  0  0  0
   67.9859   38.8731   58.1042 Cl  0  0  0  0  0  0  0  0  0  0  0  0
   68.0878   41.3696   57.0640 C   0  0  0  0  0  0  0  0  0  0  0  0
   68.7045   42.6107   56.8640 C   0  0  0  0  0  0  0  0  0  0  0  0
   68.0976   43.5542   56.1120 F   0  0  0  0  0  0  0  0  0  0  0  0
   69.1395   47.7701   56.9251 N   0  0  0  0  0  0  0  0  0  0  0  0
   69.3410   48.0823   55.5344 C   0  0  0  0  0  0  0  0  0  0  0  0
   69.9677   49.1700   55.2541 N   0  0  0  0  0  0  0  0  0  0  0  0
   70.0629   49.2892   53.5455 S   0  0  0  0  0  0  0  0  0  0  0  0
   69.3542   50.5035   53.0299 O   0  0  0  0  0  0  0  0  0  0  0  0
   71.4655   49.1945   53.0391 O   0  0  0  0  0  0  0  0  0  0  0  0
   69.1778   47.8218   53.1878 C   0  0  0  0  0  0  0  0  0  0  0  0
   68.8163   47.2461   51.9933 C   0  0  0  0  0  0  0  0  0  0  0  0
   68.1161   46.0779   52.0079 C   0  0  0  0  0  0  0  0  0  0  0  0
   67.7994   45.5221   53.2222 C   0  0  0  0  0  0  0  0  0  0  0  0
   68.1643   46.1062   54.3959 C   0  0  0  0  0  0  0  0  0  0  0  0
   68.8862   47.3088   54.4282 C   0  0  0  0  0  0  0  0  0  0  0  0
  3  4  2  0
  4  2  1  0
  4  5  1  0
  2  1  1  0
  1 14  1  0
 14 15  1  0
 15 16  2  0
 15 25  1  0
 16 17  1  0
 17 18  2  0
 17 19  2  0
 17 20  1  0
 20 21  1  0
 20 25  2  0
 21 22  2  0
 22 23  1  0
 23 24  2  0
 24 25  1  0
  5  6  1  0
  6  7  2  0
  6 12  1  0
  7  8  1  0
  8  9  2  0
  9 10  1  0
  9 11  1  0
 11 12  2  0
 12 13  1  0
M  CHG  1  16   1
M  END
>  <minimizedAffinity>  (573) 
-8.66667

$$$$
data/200k_reference_output/data/smiles/43862.pdb
     RDKit          3D

 24 26  0  0  0  0  0  0  0  0999 V2000
   68.7980   42.9004   56.8809 C   0  0  0  0  0  0  0  0  0  0  0  0
   68.5177   41.4387   57.5805 S   0  0  0  0  0  0  0  0  0  0  0  0
   69.6881   44.4531   59.0373 O   0  0  0  0  0  0  0  0  0  0  0  0
   70.5058   44.2450   58.1031 C   0  0  0  0  0  0  0  0  0  0  0  0
   70.1068   43.4658   56.9935 N   0  0  0  0  0  0  0  0  0  0  0  0
   71.8408   44.8244   58.2060 C   0  0  0  0  0  0  0  0  0  0  0  0
   71.8506   46.1865   58.5424 C   0  0  0  0  0  0  0  0  0  0  0  0
   73.0399   46.8601   58.6620 C   0  0  0  0  0  0  0  0  0  0  0  0
   74.1898   46.1402   58.4383 C   0  0  0  0  0  0  0  0  0  0  0  0
   74.2065   44.8204   58.1128 C   0  0  0  0  0  0  0  0  0  0  0  0
   72.9909   44.1482   57.9939 C   0  0  0  0  0  0  0  0  0  0  0  0
   72.9470   42.4508   57.5849 Cl  0  0  0  0  0  0  0  0  0  0  0  0
   67.7618   43.5443   56.1972 N   0  0  0  0  0  0  0  0  0  0  0  0
   67.8702   44.5273   55.2344 N   0  0  0  0  0  0  0  0  0  0  0  0
   68.3324   45.8380   55.4183 C   0  0  0  0  0  0  0  0  0  0  0  0
   68.4910   46.4666   56.5896 N   0  0  0  0  0  0  0  0  0  0  0  0
   68.9284   47.7409   56.6820 C   0  0  0  0  0  0  0  0  0  0  0  0
   69.2285   48.4400   55.5668 N   0  0  0  0  0  0  0  0  0  0  0  0
   69.0950   47.8735   54.3270 C   0  0  0  0  0  0  0  0  0  0  0  0
   69.4034   48.5793   53.1870 C   0  0  0  0  0  0  0  0  0  0  0  0
   69.2783   48.0215   51.9304 C   0  0  0  0  0  0  0  0  0  0  0  0
   68.8279   46.7196   51.8863 C   0  0  0  0  0  0  0  0  0  0  0  0
   68.5157   45.9995   53.0164 C   0  0  0  0  0  0  0  0  0  0  0  0
   68.6476   46.5777   54.2703 C   0  0  0  0  0  0  0  0  0  0  0  0
  3  4  2  0
  4  5  1  0
  4  6  1  0
  5  1  1  0
  1  2  2  0
  1 13  1  0
 13 14  1  0
 14 15  1  0
 15 16  2  0
 15 24  1  0
 16 17  1  0
 17 18  2  0
 18 19  1  0
 19 20  1  0
 19 24  2  0
 20 21  2  0
 21 22  1  0
 22 23  2  0
 23 24  1  0
  6  7  2  0
  6 11  1  0
  7  8  1  0
  8  9  2  0
  9 10  1  0
 10 11  2  0
 11 12  1  0
M  END
>  <minimizedAffinity>  (574) 
-8.66608

$$$$
data/reference_output_2/data/smiles/137897.pdb
     RDKit          3D

 25 27  0  0  0  0  0  0  0  0999 V2000
   70.6782   49.6199   56.2600 C   0  0  0  0  0  0  0  0  0  0  0  0
   66.8548   45.2846   50.8789 N   0  0  0  0  0  0  0  0  0  0  0  0
   67.6376   46.1519   51.6888 C   0  0  0  0  0  0  0  0  0  0  0  0
   68.5346   46.9853   51.1111 N   0  0  0  0  0  0  0  0  0  0  0  0
   69.3008   47.8267   51.8637 C   0  0  0  0  0  0  0  0  0  0  0  0
   70.2384   48.7055   51.2740 N   0  0  0  0  0  0  0  0  0  0  0  0
   69.1866   47.8531   53.2396 C   0  0  0  0  0  0  0  0  0  0  0  0
   69.9526   48.6988   54.0230 C   0  0  0  0  0  0  0  0  0  0  0  0
   69.8477   48.7419   55.4015 C   0  0  0  0  0  0  0  0  0  0  0  0
   68.9113   47.8682   55.9574 C   0  0  0  0  0  0  0  0  0  0  0  0
   68.1491   47.0261   55.1824 C   0  0  0  0  0  0  0  0  0  0  0  0
   68.2657   46.9952   53.8059 C   0  0  0  0  0  0  0  0  0  0  0  0
   67.5316   46.1854   53.0291 N   0  0  0  0  0  0  0  0  0  0  0  0
   71.5835   48.9470   57.1330 N   0  0  0  0  0  0  0  0  0  0  0  0
   71.5225   48.9118   58.5506 C   0  0  0  0  0  0  0  0  0  0  0  0
   70.6048   49.5200   59.1322 O   0  0  0  0  0  0  0  0  0  0  0  0
   72.5205   48.1715   59.3539 C   0  0  0  0  0  0  0  0  0  0  0  0
   72.7856   46.8206   58.8574 C   0  0  0  0  0  0  0  0  0  0  0  0
   74.0522   46.3537   58.6276 C   0  0  0  0  0  0  0  0  0  0  0  0
   74.2691   45.0681   58.1545 C   0  0  0  0  0  0  0  0  0  0  0  0
   73.1920   44.2435   57.9091 C   0  0  0  0  0  0  0  0  0  0  0  0
   73.5131   42.6096   57.3065 Cl  0  0  0  0  0  0  0  0  0  0  0  0
   71.9107   44.6772   58.1278 C   0  0  0  0  0  0  0  0  0  0  0  0
   70.5484   43.6165   57.8157 Cl  0  0  0  0  0  0  0  0  0  0  0  0
   71.7267   45.9602   58.5985 C   0  0  0  0  0  0  0  0  0  0  0  0
  2  3  1  0
  3  4  2  0
  3 13  1  0
  4  5  1  0
  5  6  1  0
  5  7  2  0
  7  8  1  0
  7 12  1  0
  8  9  2  0
  9  1  1  0
  9 10  1  0
  1 14  1  0
 14 15  1  0
 15 16  2  0
 15 17  1  0
 17 18  1  0
 18 19  2  0
 18 25  1  0
 19 20  1  0
 20 21  2  0
 21 22  1  0
 21 23  1  0
 23 24  1  0
 23 25  2  0
 10 11  2  0
 11 12  1  0
 12 13  2  0
M  END
>  <minimizedAffinity>  (575) 
-8.66480

$$$$
data/reference_output_2/data/smiles/154037.pdb
     RDKit          3D

 26 27  0  0  0  0  0  0  0  0999 V2000
   68.7475   47.5837   55.8169 C   0  0  0  0  0  0  0  0  0  0  0  0
   69.4049   48.7001   56.3104 F   0  0  0  0  0  0  0  0  0  0  0  0
   67.3905   47.6709   56.1531 F   0  0  0  0  0  0  0  0  0  0  0  0
   69.7274   48.2197   53.6169 C   0  0  0  0  0  0  0  0  0  0  0  0
   69.7789   48.0512   52.2255 C   0  0  0  0  0  0  0  0  0  0  0  0
   68.9933   47.1389   51.5629 C   0  0  0  0  0  0  0  0  0  0  0  0
   68.1280   46.3709   52.3170 C   0  0  0  0  0  0  0  0  0  0  0  0
   67.0989   45.1858   51.5098 Cl  0  0  0  0  0  0  0  0  0  0  0  0
   68.0799   46.5384   53.6811 C   0  0  0  0  0  0  0  0  0  0  0  0
   68.8772   47.4655   54.3567 C   0  0  0  0  0  0  0  0  0  0  0  0
   71.2941   51.5969   54.6328 C   0  0  0  0  0  0  0  0  0  0  0  0
   70.3467   50.6075   54.0370 C   0  0  0  0  0  0  0  0  0  0  0  0
   69.3445   51.0109   53.4291 O   0  0  0  0  0  0  0  0  0  0  0  0
   70.5871   49.2135   54.1614 N   0  0  0  0  0  0  0  0  0  0  0  0
   69.2278   46.3427   56.4646 C   0  0  0  0  0  0  0  0  0  0  0  0
   70.2413   46.3890   57.2327 O   0  0  0  0  0  0  0  0  0  0  0  0
   68.5546   45.1152   56.2230 N   0  0  0  0  0  0  0  0  0  0  0  0
   69.0126   43.9440   56.8408 N   0  0  0  0  0  0  0  0  0  0  0  0
   68.2709   42.7514   56.6753 C   0  0  0  0  0  0  0  0  0  0  0  0
   67.2272   42.7949   55.9777 O   0  0  0  0  0  0  0  0  0  0  0  0
   68.6731   41.4940   57.2802 C   0  0  0  0  0  0  0  0  0  0  0  0
   67.9151   40.3542   57.2243 C   0  0  0  0  0  0  0  0  0  0  0  0
   68.3476   39.1783   57.8212 C   0  0  0  0  0  0  0  0  0  0  0  0
   69.5256   39.1354   58.4686 N   0  0  0  0  0  0  0  0  0  0  0  0
   70.3027   40.2331   58.5471 C   0  0  0  0  0  0  0  0  0  0  0  0
   69.8776   41.4035   57.9569 C   0  0  0  0  0  0  0  0  0  0  0  0
 11 12  1  0
 12 13  2  0
 12 14  1  0
 14  4  1  0
  4  5  2  0
  4 10  1  0
  5  6  1  0
  6  7  2  0
  7  8  1  0
  7  9  1  0
  9 10  2  0
 10  1  1  0
  1  2  1  0
  1  3  1  0
  1 15  1  0
 15 16  2  0
 15 17  1  0
 17 18  1  0
 18 19  1  0
 19 20  2  0
 19 21  1  0
 21 22  2  0
 21 26  1  0
 22 23  1  0
 23 24  2  0
 24 25  1  0
 25 26  2  0
M  END
>  <minimizedAffinity>  (576) 
-8.66457

$$$$
data/reference_output_2/data/smiles/111697.pdb
     RDKit          3D

 28 30  0  0  0  0  0  0  0  0999 V2000
   68.5895   39.5387   58.4693 C   0  0  0  0  0  0  0  0  0  0  0  0
   67.7391   38.8534   57.7791 O   0  0  0  0  0  0  0  0  0  0  0  0
   68.5537   40.9341   58.2726 N   0  0  0  0  0  0  0  0  0  0  0  0
   67.5660   41.4577   57.2967 C   0  0  0  0  0  0  0  0  0  0  0  0
   68.1921   42.4956   56.4147 C   0  0  0  0  0  0  0  0  0  0  0  0
   69.2452   43.2545   57.0426 N   0  0  0  0  0  0  0  0  0  0  0  0
   69.3762   44.6643   56.9431 C   0  0  0  0  0  0  0  0  0  0  0  0
   70.3025   45.3069   57.4968 O   0  0  0  0  0  0  0  0  0  0  0  0
   70.2269   42.5305   57.8218 C   0  0  0  0  0  0  0  0  0  0  0  0
   69.4006   41.8661   58.9486 C   0  0  0  0  0  0  0  0  0  0  0  0
   69.4439   38.7899   59.3329 C   0  0  0  0  0  0  0  0  0  0  0  0
   69.3603   39.0120   60.5867 O   0  0  0  0  0  0  0  0  0  0  0  0
   71.4627   35.6231   59.1199 C   0  0  0  0  0  0  0  0  0  0  0  0
   72.3956   35.8978   58.1572 C   0  0  0  0  0  0  0  0  0  0  0  0
   72.3217   37.1622   57.5930 C   0  0  0  0  0  0  0  0  0  0  0  0
   71.3770   38.0638   57.9807 C   0  0  0  0  0  0  0  0  0  0  0  0
   70.4313   37.7738   58.9621 C   0  0  0  0  0  0  0  0  0  0  0  0
   70.4860   36.5290   59.5338 C   0  0  0  0  0  0  0  0  0  0  0  0
   71.4856   33.2720   60.2548 N   0  0  0  0  0  0  0  0  0  0  0  0
   71.4869   34.3154   59.7496 C   0  0  0  0  0  0  0  0  0  0  0  0
   68.4658   45.4400   56.2072 O   0  0  0  0  0  0  0  0  0  0  0  0
   68.8377   46.7267   55.7109 C   0  0  0  0  0  0  0  0  0  0  0  0
   68.6310   46.6771   54.2399 C   0  0  0  0  0  0  0  0  0  0  0  0
   69.2185   47.5903   53.3846 C   0  0  0  0  0  0  0  0  0  0  0  0
   69.0231   47.5383   52.0208 C   0  0  0  0  0  0  0  0  0  0  0  0
   68.2297   46.5691   51.4474 C   0  0  0  0  0  0  0  0  0  0  0  0
   67.6368   45.6514   52.2893 C   0  0  0  0  0  0  0  0  0  0  0  0
   67.8380   45.7097   53.6589 C   0  0  0  0  0  0  0  0  0  0  0  0
 19 20  3  0
 20 13  1  0
 13 14  2  0
 13 18  1  0
 14 15  1  0
 15 16  2  0
 16 17  1  0
 17 11  1  0
 17 18  2  0
 11 12  2  0
 11  1  1  0
  1  2  2  0
  1  3  1  0
  3  4  1  0
  3 10  1  0
  4  5  1  0
  5  6  1  0
  6  7  1  0
  6  9  1  0
  7  8  2  0
  7 21  1  0
 21 22  1  0
 22 23  1  0
 23 24  2  0
 23 28  1  0
 24 25  1  0
 25 26  2  0
 26 27  1  0
 27 28  2  0
  9 10  1  0
M  END
>  <minimizedAffinity>  (577) 
-8.66343

$$$$
data/200k_reference_output/data/smiles/68675.pdb
     RDKit          3D

 27 29  0  0  0  0  0  0  0  0999 V2000
   68.4373   46.0150   54.1985 C   0  0  0  0  0  0  0  0  0  0  0  0
   67.8683   45.5720   53.0041 C   0  0  0  0  0  0  0  0  0  0  0  0
   67.9819   46.3267   51.8588 C   0  0  0  0  0  0  0  0  0  0  0  0
   68.6663   47.5485   51.8629 C   0  0  0  0  0  0  0  0  0  0  0  0
   69.2307   47.9926   53.0356 C   0  0  0  0  0  0  0  0  0  0  0  0
   69.1014   47.2172   54.1622 C   0  0  0  0  0  0  0  0  0  0  0  0
   67.7946   43.8687   55.4097 N   0  0  0  0  0  0  0  0  0  0  0  0
   68.3067   45.1933   55.4136 C   0  0  0  0  0  0  0  0  0  0  0  0
   68.6793   45.7173   56.5095 O   0  0  0  0  0  0  0  0  0  0  0  0
   67.0047   41.3033   55.3925 C   0  0  0  0  0  0  0  0  0  0  0  0
   67.3490   41.9722   56.6517 C   0  0  0  0  0  0  0  0  0  0  0  0
   67.7182   43.1854   56.6231 N   0  0  0  0  0  0  0  0  0  0  0  0
   67.2466   41.1908   57.8991 C   0  0  0  0  0  0  0  0  0  0  0  0
   66.5863   41.6445   58.9954 C   0  0  0  0  0  0  0  0  0  0  0  0
   66.5133   40.8818   60.1453 C   0  0  0  0  0  0  0  0  0  0  0  0
   67.1327   39.6410   60.1454 C   0  0  0  0  0  0  0  0  0  0  0  0
   67.0788   38.8731   61.2521 F   0  0  0  0  0  0  0  0  0  0  0  0
   67.8060   39.1764   59.0295 C   0  0  0  0  0  0  0  0  0  0  0  0
   67.8623   39.9563   57.9020 C   0  0  0  0  0  0  0  0  0  0  0  0
   70.0869   49.5143   53.0537 S   0  0  0  0  0  0  0  0  0  0  0  0
   69.7264   50.3743   51.8856 O   0  0  0  0  0  0  0  0  0  0  0  0
   71.5641   49.1645   52.9587 O   0  0  0  0  0  0  0  0  0  0  0  0
   69.8022   50.2701   54.5489 N   0  0  0  0  0  0  0  0  0  0  0  0
   70.8781   51.0180   55.0927 C   0  0  0  0  0  0  0  0  0  0  0  0
   70.2944   52.3572   55.5524 C   0  0  0  0  0  0  0  0  0  0  0  0
   69.0522   52.4456   54.6581 C   0  0  0  0  0  0  0  0  0  0  0  0
   68.5953   51.0057   54.6621 C   0  0  0  0  0  0  0  0  0  0  0  0
 10 11  1  0
 11 12  2  0
 11 13  1  0
 12  7  1  0
  7  8  1  0
  8  9  2  0
  8  1  1  0
  1  2  2  0
  1  6  1  0
  2  3  1  0
  3  4  2  0
  4  5  1  0
  5 20  1  0
  5  6  2  0
 20 21  2  0
 20 22  2  0
 20 23  1  0
 23 24  1  0
 23 27  1  0
 24 25  1  0
 25 26  1  0
 26 27  1  0
 13 14  2  0
 13 19  1  0
 14 15  1  0
 15 16  2  0
 16 17  1  0
 16 18  1  0
 18 19  2  0
M  END
>  <minimizedAffinity>  (578) 
-8.66286

$$$$
data/reference_output_2/data/smiles/145858.pdb
     RDKit          3D

 27 30  0  0  0  0  0  0  0  0999 V2000
   69.6609   43.0432   57.3783 C   0  0  0  0  0  0  0  0  0  0  0  0
   68.4970   42.2969   57.2948 C   0  0  0  0  0  0  0  0  0  0  0  0
   68.4966   40.9445   57.5988 C   0  0  0  0  0  0  0  0  0  0  0  0
   69.6279   40.2734   57.9940 C   0  0  0  0  0  0  0  0  0  0  0  0
   69.6767   38.9677   58.2978 N   0  0  0  0  0  0  0  0  0  0  0  0
   70.7901   38.3201   58.6837 C   0  0  0  0  0  0  0  0  0  0  0  0
   71.9581   39.0221   58.7783 N   0  0  0  0  0  0  0  0  0  0  0  0
   71.9340   40.3356   58.4774 C   0  0  0  0  0  0  0  0  0  0  0  0
   73.0074   40.9826   58.5644 O   0  0  0  0  0  0  0  0  0  0  0  0
   70.8056   41.0132   58.0810 C   0  0  0  0  0  0  0  0  0  0  0  0
   70.7907   42.3572   57.7757 C   0  0  0  0  0  0  0  0  0  0  0  0
   73.0225   38.1364   59.2136 C   0  0  0  0  0  0  0  0  0  0  0  0
   72.5507   36.7228   58.8836 C   0  0  0  0  0  0  0  0  0  0  0  0
   71.0382   36.9022   59.0516 C   0  0  0  0  0  0  0  0  0  0  0  0
   70.0249   45.0875   59.2313 O   0  0  0  0  0  0  0  0  0  0  0  0
   69.8668   45.4539   58.0408 C   0  0  0  0  0  0  0  0  0  0  0  0
   69.6798   44.4365   57.0726 N   0  0  0  0  0  0  0  0  0  0  0  0
   69.8665   46.8587   57.6059 C   0  0  0  0  0  0  0  0  0  0  0  0
   68.6897   47.2016   56.8284 N   0  0  0  0  0  0  0  0  0  0  0  0
   69.0190   48.1160   55.7501 C   0  0  0  0  0  0  0  0  0  0  0  0
   68.8014   47.4884   54.4216 C   0  0  0  0  0  0  0  0  0  0  0  0
   67.9925   46.3782   54.3309 C   0  0  0  0  0  0  0  0  0  0  0  0
   67.7522   45.7673   53.1178 C   0  0  0  0  0  0  0  0  0  0  0  0
   68.3495   46.3043   51.9870 C   0  0  0  0  0  0  0  0  0  0  0  0
   69.1628   47.4174   52.0588 C   0  0  0  0  0  0  0  0  0  0  0  0
   69.3962   48.0211   53.2881 C   0  0  0  0  0  0  0  0  0  0  0  0
   70.1942   49.1227   53.4164 F   0  0  0  0  0  0  0  0  0  0  0  0
 15 16  2  0
 16 18  1  0
 16 17  1  0
 18 19  1  0
 19 20  1  0
 20 21  1  0
 21 22  2  0
 21 26  1  0
 22 23  1  0
 23 24  2  0
 24 25  1  0
 25 26  2  0
 26 27  1  0
 17  1  1  0
  1  2  2  0
  1 11  1  0
  2  3  1  0
  3  4  2  0
  4  5  1  0
  4 10  1  0
  5  6  2  0
  6  7  1  0
  6 14  1  0
  7  8  1  0
  7 12  1  0
  8  9  2  0
  8 10  1  0
 10 11  2  0
 12 13  1  0
 13 14  1  0
M  CHG  1  19   1
M  END
>  <minimizedAffinity>  (579) 
-8.66244

$$$$
data/200k_reference_output/data/smiles/43208.pdb
     RDKit          3D

 25 27  0  0  0  0  0  0  0  0999 V2000
   69.6384   48.4638   54.1924 C   0  0  0  0  0  0  0  0  0  0  0  0
   69.7811   48.2704   55.5710 C   0  0  0  0  0  0  0  0  0  0  0  0
   70.4798   49.2899   56.2409 O   0  0  0  0  0  0  0  0  0  0  0  0
   69.3266   47.2362   56.2565 N   0  0  0  0  0  0  0  0  0  0  0  0
   68.6609   46.2637   55.5856 C   0  0  0  0  0  0  0  0  0  0  0  0
   68.2012   45.2523   56.1528 O   0  0  0  0  0  0  0  0  0  0  0  0
   68.4651   46.3564   54.2269 C   0  0  0  0  0  0  0  0  0  0  0  0
   67.7814   45.3547   53.5472 C   0  0  0  0  0  0  0  0  0  0  0  0
   67.5926   45.4536   52.1973 C   0  0  0  0  0  0  0  0  0  0  0  0
   68.0692   46.5305   51.5046 C   0  0  0  0  0  0  0  0  0  0  0  0
   68.7486   47.5207   52.2021 C   0  0  0  0  0  0  0  0  0  0  0  0
   68.9477   47.4418   53.5466 C   0  0  0  0  0  0  0  0  0  0  0  0
   70.2952   49.8458   53.4138 S   0  0  0  0  0  0  0  0  0  0  0  0
   71.8277   49.6930   53.5588 O   0  0  0  0  0  0  0  0  0  0  0  0
   70.1616   49.8597   51.9171 O   0  0  0  0  0  0  0  0  0  0  0  0
   69.9763   51.3846   54.1553 C   0  0  0  0  0  0  0  0  0  0  0  0
   68.2659   51.7907   55.9648 C   0  0  0  0  0  0  0  0  0  0  0  0
   68.5919   51.7508   54.4904 C   0  0  0  0  0  0  0  0  0  0  0  0
   69.5143   47.1043   57.6884 C   0  0  0  0  0  0  0  0  0  0  0  0
   70.7915   46.4264   57.9832 C   0  0  0  0  0  0  0  0  0  0  0  0
   71.9090   47.1338   58.3423 C   0  0  0  0  0  0  0  0  0  0  0  0
   73.1056   46.5031   58.6238 C   0  0  0  0  0  0  0  0  0  0  0  0
   73.1981   45.1246   58.5478 C   0  0  0  0  0  0  0  0  0  0  0  0
   72.1016   44.3920   58.1941 C   0  0  0  0  0  0  0  0  0  0  0  0
   70.9153   45.0343   57.9168 C   0  0  0  0  0  0  0  0  0  0  0  0
 17 18  1  0
 18 16  1  0
 16 13  1  0
 13 14  2  0
 13 15  2  0
 13  1  1  0
  1  2  2  0
  1 12  1  0
  2  3  1  0
  2  4  1  0
  4 19  1  0
  4  5  1  0
 19 20  1  0
 20 21  2  0
 20 25  1  0
 21 22  1  0
 22 23  2  0
 23 24  1  0
 24 25  2  0
  5  6  2  0
  5  7  1  0
  7  8  1  0
  7 12  2  0
  8  9  2  0
  9 10  1  0
 10 11  2  0
 11 12  1  0
M  END
>  <minimizedAffinity>  (580) 
-8.66226

$$$$
data/reference_output_2/data/smiles/91191.pdb
     RDKit          3D

 27 30  0  0  0  0  0  0  0  0999 V2000
   70.7132   37.9395   59.0316 C   0  0  0  0  0  0  0  0  0  0  0  0
   69.8705   37.7088   60.1013 C   0  0  0  0  0  0  0  0  0  0  0  0
   69.7460   36.4715   60.6864 C   0  0  0  0  0  0  0  0  0  0  0  0
   68.8839   36.2908   61.7631 C   0  0  0  0  0  0  0  0  0  0  0  0
   68.7606   35.0686   62.3437 C   0  0  0  0  0  0  0  0  0  0  0  0
   69.4979   34.0029   61.8564 C   0  0  0  0  0  0  0  0  0  0  0  0
   70.3637   34.1434   60.7907 C   0  0  0  0  0  0  0  0  0  0  0  0
   70.4768   35.3899   60.2140 C   0  0  0  0  0  0  0  0  0  0  0  0
   71.3304   35.5761   59.1435 C   0  0  0  0  0  0  0  0  0  0  0  0
   72.0482   34.5207   58.6388 C   0  0  0  0  0  0  0  0  0  0  0  0
   72.8728   34.7857   57.5332 C   0  0  0  0  0  0  0  0  0  0  0  0
   72.9734   36.0233   56.9699 C   0  0  0  0  0  0  0  0  0  0  0  0
   72.2400   37.0764   57.4949 C   0  0  0  0  0  0  0  0  0  0  0  0
   71.4293   36.8524   58.5726 C   0  0  0  0  0  0  0  0  0  0  0  0
   70.8266   39.3188   58.5552 C   0  0  0  0  0  0  0  0  0  0  0  0
   69.6032   40.0945   58.9590 C   0  0  0  0  0  0  0  0  0  0  0  0
   69.1701   42.3478   58.0280 C   0  0  0  0  0  0  0  0  0  0  0  0
   68.5136   43.1169   57.0928 N   0  0  0  0  0  0  0  0  0  0  0  0
   67.7202   42.5854   56.1606 C   0  0  0  0  0  0  0  0  0  0  0  0
   67.1384   43.3197   55.3215 O   0  0  0  0  0  0  0  0  0  0  0  0
   67.5495   41.2408   56.1253 N   0  0  0  0  0  0  0  0  0  0  0  0
   68.1594   40.4499   57.0048 C   0  0  0  0  0  0  0  0  0  0  0  0
   68.0161   39.1830   56.9951 O   0  0  0  0  0  0  0  0  0  0  0  0
   69.0037   40.9933   58.0020 C   0  0  0  0  0  0  0  0  0  0  0  0
   69.4832   43.7629   59.8496 O   0  0  0  0  0  0  0  0  0  0  0  0
   70.0344   42.9849   58.9931 C   0  0  0  0  0  0  0  0  0  0  0  0
   71.3882   42.8812   59.1325 O   0  0  0  0  0  0  0  0  0  0  0  0
 25 26  2  0
 26 27  1  0
 26 17  1  0
 17 18  1  0
 17 24  2  0
 18 19  1  0
 19 20  2  0
 19 21  1  0
 21 22  1  0
 22 23  2  0
 22 24  1  0
 24 16  1  0
 16 15  1  0
 15  1  1  0
  1  2  2  0
  1 14  1  0
  2  3  1  0
  3  4  2  0
  3  8  1  0
  4  5  1  0
  5  6  2  0
  6  7  1  0
  7  8  2  0
  8  9  1  0
  9 10  1  0
  9 14  2  0
 10 11  2  0
 11 12  1  0
 12 13  2  0
 13 14  1  0
M  END
>  <minimizedAffinity>  (581) 
-8.66128

$$$$
data/reference_output_2/data/smiles/148274.pdb
     RDKit          3D

 28 31  0  0  0  0  0  0  0  0999 V2000
   69.3053   43.1826   57.3164 C   0  0  0  0  0  0  0  0  0  0  0  0
   68.2357   42.3984   56.8842 C   0  0  0  0  0  0  0  0  0  0  0  0
   68.1109   41.0806   57.2760 C   0  0  0  0  0  0  0  0  0  0  0  0
   69.0276   40.4638   58.1106 C   0  0  0  0  0  0  0  0  0  0  0  0
   70.0969   41.2514   58.5390 C   0  0  0  0  0  0  0  0  0  0  0  0
   70.2179   42.5686   58.1460 C   0  0  0  0  0  0  0  0  0  0  0  0
   70.9064   40.3611   59.3737 C   0  0  0  0  0  0  0  0  0  0  0  0
   71.9824   40.7308   59.9527 O   0  0  0  0  0  0  0  0  0  0  0  0
   70.3353   39.0595   59.4475 N   0  0  0  0  0  0  0  0  0  0  0  0
   69.1567   39.1160   58.6588 C   0  0  0  0  0  0  0  0  0  0  0  0
   68.3607   38.1574   58.4669 O   0  0  0  0  0  0  0  0  0  0  0  0
   70.4715   45.2249   57.2357 O   0  0  0  0  0  0  0  0  0  0  0  0
   69.4327   44.5460   56.8568 C   0  0  0  0  0  0  0  0  0  0  0  0
   68.5401   45.2472   56.0205 N   0  0  0  0  0  0  0  0  0  0  0  0
   68.7126   46.6055   55.6013 C   0  0  0  0  0  0  0  0  0  0  0  0
   68.5670   46.6468   54.1292 C   0  0  0  0  0  0  0  0  0  0  0  0
   67.8148   45.7108   53.4719 C   0  0  0  0  0  0  0  0  0  0  0  0
   67.6673   45.7181   52.1114 C   0  0  0  0  0  0  0  0  0  0  0  0
   68.2932   46.6974   51.3794 C   0  0  0  0  0  0  0  0  0  0  0  0
   69.0553   47.6537   52.0078 C   0  0  0  0  0  0  0  0  0  0  0  0
   69.1894   47.6244   53.3923 C   0  0  0  0  0  0  0  0  0  0  0  0
   70.8903   37.8989   60.1673 C   0  0  0  0  0  0  0  0  0  0  0  0
   71.4564   36.9763   59.1531 C   0  0  0  0  0  0  0  0  0  0  0  0
   72.0973   37.3594   58.0029 C   0  0  0  0  0  0  0  0  0  0  0  0
   72.6136   36.4403   57.0874 C   0  0  0  0  0  0  0  0  0  0  0  0
   72.4792   35.1366   57.3404 N   0  0  0  0  0  0  0  0  0  0  0  0
   71.8655   34.7165   58.4460 C   0  0  0  0  0  0  0  0  0  0  0  0
   71.3442   35.6184   59.3715 C   0  0  0  0  0  0  0  0  0  0  0  0
 12 13  2  0
 13 14  1  0
 13  1  1  0
 14 15  1  0
 15 16  1  0
 16 17  2  0
 16 21  1  0
 17 18  1  0
 18 19  2  0
 19 20  1  0
 20 21  2  0
  1  2  2  0
  1  6  1  0
  2  3  1  0
  3  4  2  0
  4  5  1  0
  4 10  1  0
  5  6  2  0
  5  7  1  0
  7  8  2  0
  7  9  1  0
  9 22  1  0
  9 10  1  0
 22 23  1  0
 23 24  2  0
 23 28  1  0
 24 25  1  0
 25 26  2  0
 26 27  1  0
 27 28  2  0
 10 11  2  0
M  END
>  <minimizedAffinity>  (582) 
-8.66019

$$$$
data/reference_output_2/data/smiles/117629.pdb
     RDKit          3D

 29 32  0  0  0  0  0  0  0  0999 V2000
   70.8673   44.1220   57.9959 C   0  0  0  0  0  0  0  0  0  0  0  0
   72.1494   43.7136   58.2727 C   0  0  0  0  0  0  0  0  0  0  0  0
   72.4675   42.3598   58.4471 C   0  0  0  0  0  0  0  0  0  0  0  0
   71.5123   41.3740   58.3513 C   0  0  0  0  0  0  0  0  0  0  0  0
   71.7879   40.0335   58.5171 C   0  0  0  0  0  0  0  0  0  0  0  0
   72.9733   39.6897   58.7692 O   0  0  0  0  0  0  0  0  0  0  0  0
   70.8508   39.0651   58.4223 N   0  0  0  0  0  0  0  0  0  0  0  0
   69.5992   39.4863   58.1507 C   0  0  0  0  0  0  0  0  0  0  0  0
   68.7152   38.5819   58.0604 O   0  0  0  0  0  0  0  0  0  0  0  0
   69.2995   40.7877   57.9831 N   0  0  0  0  0  0  0  0  0  0  0  0
   70.2202   41.7676   58.0737 C   0  0  0  0  0  0  0  0  0  0  0  0
   69.9129   43.0996   57.9030 C   0  0  0  0  0  0  0  0  0  0  0  0
   71.1718   37.6926   58.5978 C   0  0  0  0  0  0  0  0  0  0  0  0
   70.6806   36.9885   59.6767 C   0  0  0  0  0  0  0  0  0  0  0  0
   70.9813   35.6475   59.8683 C   0  0  0  0  0  0  0  0  0  0  0  0
   71.7839   34.9701   58.9837 C   0  0  0  0  0  0  0  0  0  0  0  0
   72.2823   35.6612   57.8998 C   0  0  0  0  0  0  0  0  0  0  0  0
   71.9756   36.9975   57.7212 C   0  0  0  0  0  0  0  0  0  0  0  0
   69.3200   45.8812   57.0537 N   0  0  0  0  0  0  0  0  0  0  0  0
   70.4604   45.5080   57.8021 C   0  0  0  0  0  0  0  0  0  0  0  0
   71.1624   46.4098   58.3290 O   0  0  0  0  0  0  0  0  0  0  0  0
   68.8837   47.2466   56.8351 C   0  0  0  0  0  0  0  0  0  0  0  0
   69.7889   49.1953   51.4731 C   0  0  0  0  0  0  0  0  0  0  0  0
   69.5526   48.6940   52.8714 C   0  0  0  0  0  0  0  0  0  0  0  0
   69.9731   49.4242   53.9656 C   0  0  0  0  0  0  0  0  0  0  0  0
   69.7471   48.9465   55.2518 C   0  0  0  0  0  0  0  0  0  0  0  0
   69.0979   47.7336   55.4573 C   0  0  0  0  0  0  0  0  0  0  0  0
   68.6728   46.9940   54.3824 C   0  0  0  0  0  0  0  0  0  0  0  0
   68.9144   47.5006   53.1084 C   0  0  0  0  0  0  0  0  0  0  0  0
 23 24  1  0
 24 25  2  0
 24 29  1  0
 25 26  1  0
 26 27  2  0
 27 22  1  0
 27 28  1  0
 22 19  1  0
 19 20  1  0
 20 21  2  0
 20  1  1  0
  1  2  2  0
  1 12  1  0
  2  3  1  0
  3  4  2  0
  4  5  1  0
  4 11  1  0
  5  6  2  0
  5  7  1  0
  7 13  1  0
  7  8  1  0
 13 14  2  0
 13 18  1  0
 14 15  1  0
 15 16  2  0
 16 17  1  0
 17 18  2  0
  8  9  2  0
  8 10  1  0
 10 11  1  0
 11 12  2  0
 28 29  2  0
M  END
>  <minimizedAffinity>  (583) 
-8.66018

$$$$
data/200k_reference_output/data/smiles/36346.pdb
     RDKit          3D

 26 28  0  0  0  0  0  0  0  0999 V2000
   68.6602   49.2468   56.5517 C   0  0  0  0  0  0  0  0  0  0  0  0
   67.7334   48.8973   57.5116 C   0  0  0  0  0  0  0  0  0  0  0  0
   66.8376   49.8545   58.0035 C   0  0  0  0  0  0  0  0  0  0  0  0
   66.9167   51.1342   57.5027 C   0  0  0  0  0  0  0  0  0  0  0  0
   67.8673   51.4629   56.5287 C   0  0  0  0  0  0  0  0  0  0  0  0
   68.7495   50.5236   56.0425 C   0  0  0  0  0  0  0  0  0  0  0  0
   69.5938   48.2210   56.0473 C   0  0  0  0  0  0  0  0  0  0  0  0
   67.3106   45.2107   51.6677 C   0  0  0  0  0  0  0  0  0  0  0  0
   67.8865   45.9623   52.8013 C   0  0  0  0  0  0  0  0  0  0  0  0
   68.5106   47.1776   52.5823 C   0  0  0  0  0  0  0  0  0  0  0  0
   69.0452   47.8710   53.6504 C   0  0  0  0  0  0  0  0  0  0  0  0
   68.9932   47.4149   54.9499 C   0  0  0  0  0  0  0  0  0  0  0  0
   68.3746   46.2066   55.1733 C   0  0  0  0  0  0  0  0  0  0  0  0
   67.8430   45.5198   54.1059 C   0  0  0  0  0  0  0  0  0  0  0  0
   69.6840   50.8324   55.0893 O   0  0  0  0  0  0  0  0  0  0  0  0
   71.0091   51.1934   55.2514 C   0  0  2  0  0  0  0  0  0  0  0  0
   71.1889   52.7167   55.3547 C   0  0  0  0  0  0  0  0  0  0  0  0
   72.6238   52.9864   55.7125 C   0  0  1  0  0  0  0  0  0  0  0  0
   73.6080   52.3507   54.7879 C   0  0  1  0  0  0  0  0  0  0  0  0
   74.8611   52.3732   55.4429 O   0  0  0  0  0  0  0  0  0  0  0  0
   73.3077   50.9029   54.4965 C   0  0  2  0  0  0  0  0  0  0  0  0
   74.1943   50.4309   53.5510 O   0  0  0  0  0  0  0  0  0  0  0  0
   71.8815   50.7992   54.0609 C   0  0  1  0  0  0  0  0  0  0  0  0
   71.5588   49.5385   53.5852 O   0  0  0  0  0  0  0  0  0  0  0  0
   72.8842   54.4781   55.7222 C   0  0  0  0  0  0  0  0  0  0  0  0
   73.3994   54.9376   54.5253 O   0  0  0  0  0  0  0  0  0  0  0  0
  8  9  1  0
  9 10  2  0
  9 14  1  0
 10 11  1  0
 11 12  2  0
 12  7  1  0
 12 13  1  0
  7  1  1  0
  1  2  2  0
  1  6  1  0
  2  3  1  0
  3  4  2  0
  4  5  1  0
  5  6  2  0
  6 15  1  0
 16 15  1  6
 16 17  1  0
 16 23  1  0
 17 18  1  0
 18 25  1  6
 18 19  1  0
 25 26  1  0
 19 20  1  1
 19 21  1  0
 21 22  1  6
 21 23  1  0
 23 24  1  1
 13 14  2  0
M  END
>  <minimizedAffinity>  (584) 
-8.65914

$$$$
data/reference_output_2/data/smiles/108643.pdb
     RDKit          3D

 28 31  0  0  0  0  0  0  0  0999 V2000
   68.6708   47.2113   53.8199 C   0  0  0  0  0  0  0  0  0  0  0  0
   69.0745   46.7286   52.5868 C   0  0  0  0  0  0  0  0  0  0  0  0
   69.7127   47.5462   51.6833 C   0  0  0  0  0  0  0  0  0  0  0  0
   69.9306   48.8546   52.0573 C   0  0  0  0  0  0  0  0  0  0  0  0
   69.5366   49.3499   53.2764 C   0  0  0  0  0  0  0  0  0  0  0  0
   69.7890   50.6698   53.5785 C   0  0  0  0  0  0  0  0  0  0  0  0
   70.3674   51.4591   52.7949 O   0  0  0  0  0  0  0  0  0  0  0  0
   69.3833   51.1415   54.8095 C   0  0  0  0  0  0  0  0  0  0  0  0
   69.6130   52.4711   55.1699 C   0  0  0  0  0  0  0  0  0  0  0  0
   69.2134   52.9579   56.3936 C   0  0  0  0  0  0  0  0  0  0  0  0
   68.5769   52.0874   57.2547 C   0  0  0  0  0  0  0  0  0  0  0  0
   68.3532   50.7750   56.8933 C   0  0  0  0  0  0  0  0  0  0  0  0
   68.7474   50.2662   55.6654 C   0  0  0  0  0  0  0  0  0  0  0  0
   68.5201   49.0038   55.3440 O   0  0  0  0  0  0  0  0  0  0  0  0
   68.8941   48.5262   54.1847 C   0  0  0  0  0  0  0  0  0  0  0  0
   67.9985   46.2850   54.7310 C   0  0  0  0  0  0  0  0  0  0  0  0
   68.8191   44.7270   56.2893 O   0  0  0  0  0  0  0  0  0  0  0  0
   68.8558   45.9137   55.9092 C   0  0  0  0  0  0  0  0  0  0  0  0
   69.6760   46.8169   56.5854 N   0  0  0  0  0  0  0  0  0  0  0  0
   70.6396   46.3319   57.9315 S   0  0  0  0  0  0  0  0  0  0  0  0
   69.7058   45.8337   59.0297 O   0  0  0  0  0  0  0  0  0  0  0  0
   71.5086   45.1607   57.5864 O   0  0  0  0  0  0  0  0  0  0  0  0
   71.5900   47.6596   58.5431 C   0  0  0  0  0  0  0  0  0  0  0  0
   71.5505   48.8771   57.9085 C   0  0  0  0  0  0  0  0  0  0  0  0
   72.2931   49.9639   58.3610 C   0  0  0  0  0  0  0  0  0  0  0  0
   73.0980   49.8505   59.4693 C   0  0  0  0  0  0  0  0  0  0  0  0
   73.1450   48.6361   60.1136 C   0  0  0  0  0  0  0  0  0  0  0  0
   72.3938   47.5436   59.6530 C   0  0  0  0  0  0  0  0  0  0  0  0
 17 18  2  0
 18 16  1  0
 18 19  1  0
 16  1  1  0
  1  2  2  0
  1 15  1  0
  2  3  1  0
  3  4  2  0
  4  5  1  0
  5  6  1  0
  5 15  2  0
  6  7  2  0
  6  8  1  0
  8  9  1  0
  8 13  2  0
  9 10  2  0
 10 11  1  0
 11 12  2  0
 12 13  1  0
 13 14  1  0
 14 15  1  0
 19 20  1  0
 20 21  2  0
 20 22  2  0
 20 23  1  0
 23 24  2  0
 23 28  1  0
 24 25  1  0
 25 26  2  0
 26 27  1  0
 27 28  2  0
M  END
>  <minimizedAffinity>  (585) 
-8.65895

$$$$
data/reference_output_2/data/smiles/116666.pdb
     RDKit          3D

 27 31  0  0  0  0  0  0  0  0999 V2000
   69.4162   43.2617   57.1815 C   0  0  0  0  0  0  0  0  0  0  0  0
   68.2146   42.9225   56.3878 C   0  0  0  0  0  0  0  0  0  0  0  0
   67.5012   41.7481   56.5202 C   0  0  0  0  0  0  0  0  0  0  0  0
   66.4792   41.8600   55.5973 C   0  0  0  0  0  0  0  0  0  0  0  0
   66.6088   43.0434   54.9709 N   0  0  0  0  0  0  0  0  0  0  0  0
   67.6548   43.7055   55.4341 N   0  0  0  0  0  0  0  0  0  0  0  0
   68.1338   44.9946   55.0340 C   0  0  0  0  0  0  0  0  0  0  0  0
   68.3654   45.3430   53.7670 N   0  0  0  0  0  0  0  0  0  0  0  0
   68.8156   46.5718   53.4703 C   0  0  0  0  0  0  0  0  0  0  0  0
   69.0436   47.4923   54.4828 C   0  0  0  0  0  0  0  0  0  0  0  0
   68.8072   47.1370   55.7877 C   0  0  0  0  0  0  0  0  0  0  0  0
   69.0085   47.9580   56.7165 O   0  0  0  0  0  0  0  0  0  0  0  0
   68.3566   45.8893   56.0119 N   0  0  0  0  0  0  0  0  0  0  0  0
   69.5357   48.7738   53.9136 C   0  0  0  0  0  0  0  0  0  0  0  0
   69.2937   48.6652   52.4347 C   0  0  0  0  0  0  0  0  0  0  0  0
   69.1387   47.1748   52.1570 C   0  0  0  0  0  0  0  0  0  0  0  0
   67.7764   40.6446   57.4347 C   0  0  0  0  0  0  0  0  0  0  0  0
   68.4276   39.6598   56.9805 O   0  0  0  0  0  0  0  0  0  0  0  0
   67.3233   40.6984   58.7718 N   0  0  0  0  0  0  0  0  0  0  0  0
   66.6144   41.3938   59.8791 C   0  0  0  0  0  0  0  0  0  0  0  0
   67.2246   40.0806   60.0819 C   0  0  1  0  0  0  0  0  0  0  0  0
   66.4133   38.8380   60.2080 C   0  0  0  0  0  0  0  0  0  0  0  0
   66.9756   37.5786   60.1760 C   0  0  0  0  0  0  0  0  0  0  0  0
   66.1926   36.4341   60.2959 C   0  0  0  0  0  0  0  0  0  0  0  0
   64.8259   36.5215   60.4502 C   0  0  0  0  0  0  0  0  0  0  0  0
   64.2486   37.7782   60.4830 C   0  0  0  0  0  0  0  0  0  0  0  0
   65.0382   38.9055   60.3630 C   0  0  0  0  0  0  0  0  0  0  0  0
  1  2  1  0
  2  3  2  0
  2  6  1  0
  3 17  1  0
  3  4  1  0
 17 18  2  0
 17 19  1  0
 19 20  1  0
 19 21  1  0
 20 21  1  0
 21 22  1  6
 22 23  2  0
 22 27  1  0
 23 24  1  0
 24 25  2  0
 25 26  1  0
 26 27  2  0
  4  5  2  0
  5  6  1  0
  6  7  1  0
  7  8  2  0
  7 13  1  0
  8  9  1  0
  9 10  2  0
  9 16  1  0
 10 11  1  0
 10 14  1  0
 11 12  2  0
 11 13  1  0
 14 15  1  0
 15 16  1  0
M  END
>  <minimizedAffinity>  (586) 
-8.65787

$$$$
data/200k_reference_output/data/smiles/1767.pdb
     RDKit          3D

 25 28  0  0  0  0  0  0  0  0999 V2000
   69.6820   49.6103   50.9439 O   0  0  0  0  0  0  0  0  0  0  0  0
   69.7984   49.3453   52.1771 C   0  0  0  0  0  0  0  0  0  0  0  0
   70.4675   50.1846   53.0542 O   0  0  0  0  0  0  0  0  0  0  0  0
   70.6001   49.9057   54.3962 C   0  0  0  0  0  0  0  0  0  0  0  0
   71.2067   50.6582   55.2130 O   0  0  0  0  0  0  0  0  0  0  0  0
   69.9877   48.6485   54.8803 C   0  0  0  0  0  0  0  0  0  0  0  0
   70.1108   48.3619   56.2015 C   0  0  0  0  0  0  0  0  0  0  0  0
   69.5566   47.1932   56.7200 C   0  0  0  0  0  0  0  0  0  0  0  0
   68.8954   46.3681   55.8427 C   0  0  0  0  0  0  0  0  0  0  0  0
   68.7553   46.6388   54.4835 C   0  0  0  0  0  0  0  0  0  0  0  0
   68.0732   45.7514   53.6775 C   0  0  0  0  0  0  0  0  0  0  0  0
   67.9751   46.0878   52.3388 C   0  0  0  0  0  0  0  0  0  0  0  0
   68.5336   47.2505   51.8580 C   0  0  0  0  0  0  0  0  0  0  0  0
   69.2054   48.1158   52.6783 C   0  0  0  0  0  0  0  0  0  0  0  0
   69.3207   47.8074   54.0194 C   0  0  0  0  0  0  0  0  0  0  0  0
   69.6987   46.9180   58.1071 N   0  0  0  0  0  0  0  0  0  0  0  0
   71.2647   46.5856   58.7444 S   0  0  0  0  0  0  0  0  0  0  0  0
   71.2723   46.6465   60.2439 O   0  0  0  0  0  0  0  0  0  0  0  0
   72.2882   47.4972   58.1577 O   0  0  0  0  0  0  0  0  0  0  0  0
   71.6490   44.9226   58.2718 C   0  0  0  0  0  0  0  0  0  0  0  0
   70.6491   43.9768   58.1069 C   0  0  0  0  0  0  0  0  0  0  0  0
   70.9189   42.6768   57.7398 C   0  0  0  0  0  0  0  0  0  0  0  0
   72.2315   42.2838   57.5239 C   0  0  0  0  0  0  0  0  0  0  0  0
   73.2430   43.2206   57.6854 C   0  0  0  0  0  0  0  0  0  0  0  0
   72.9439   44.5136   58.0533 C   0  0  0  0  0  0  0  0  0  0  0  0
  1  2  2  0
  2  3  1  0
  2 14  1  0
  3  4  1  0
  4  5  2  0
  4  6  1  0
  6  7  1  0
  6 15  2  0
  7  8  2  0
  8 16  1  0
  8  9  1  0
 16 17  1  0
 17 18  2  0
 17 19  2  0
 17 20  1  0
 20 21  2  0
 20 25  1  0
 21 22  1  0
 22 23  2  0
 23 24  1  0
 24 25  2  0
  9 10  2  0
 10 11  1  0
 10 15  1  0
 11 12  2  0
 12 13  1  0
 13 14  2  0
 14 15  1  0
M  END
>  <minimizedAffinity>  (587) 
-8.65778

$$$$
data/reference_output_2/data/smiles/170301.pdb
     RDKit          3D

 28 32  0  0  0  0  0  0  0  0999 V2000
   73.6129   34.9156   55.4771 C   0  0  0  0  0  0  0  0  0  0  0  0
   73.5265   33.6352   55.9754 C   0  0  0  0  0  0  0  0  0  0  0  0
   72.8818   33.3958   57.1959 C   0  0  0  0  0  0  0  0  0  0  0  0
   72.3179   34.4146   57.9370 C   0  0  0  0  0  0  0  0  0  0  0  0
   71.6567   34.4831   59.1057 N   0  0  0  0  0  0  0  0  0  0  0  0
   71.3131   35.7770   59.3758 C   0  0  0  0  0  0  0  0  0  0  0  0
   71.7878   36.4806   58.3350 N   0  0  0  0  0  0  0  0  0  0  0  0
   72.4060   35.6961   57.4356 C   0  0  0  0  0  0  0  0  0  0  0  0
   73.0449   35.9255   56.2272 C   0  0  0  0  0  0  0  0  0  0  0  0
   71.6762   37.9115   58.1535 C   0  0  0  0  0  0  0  0  0  0  0  0
   70.3327   38.4379   58.6022 C   0  0  0  0  0  0  0  0  0  0  0  0
   70.2737   38.7013   60.0807 C   0  0  0  0  0  0  0  0  0  0  0  0
   70.0945   37.4938   60.8632 N   0  0  0  0  0  0  0  0  0  0  0  0
   70.5863   36.2011   60.5682 C   0  0  0  0  0  0  0  0  0  0  0  0
   70.3638   35.3365   61.4363 O   0  0  0  0  0  0  0  0  0  0  0  0
   73.9245   36.2004   53.5215 O   0  0  0  0  0  0  0  0  0  0  0  0
   74.2802   35.1979   54.2041 C   0  0  0  0  0  0  0  0  0  0  0  0
   75.3232   34.4081   53.6669 N   0  0  0  0  0  0  0  0  0  0  0  0
   75.9533   34.7153   52.4162 C   0  0  0  0  0  0  0  0  0  0  0  0
   76.9583   35.6582   52.3406 C   0  0  0  0  0  0  0  0  0  0  0  0
   77.5503   35.9463   51.1612 N   0  0  0  0  0  0  0  0  0  0  0  0
   77.2049   35.3426   50.0047 C   0  0  0  0  0  0  0  0  0  0  0  0
   77.8154   35.6449   48.8082 C   0  0  0  0  0  0  0  0  0  0  0  0
   77.4610   35.0275   47.6260 C   0  0  0  0  0  0  0  0  0  0  0  0
   76.4526   34.0633   47.6304 C   0  0  0  0  0  0  0  0  0  0  0  0
   75.8557   33.7786   48.8422 C   0  0  0  0  0  0  0  0  0  0  0  0
   76.2006   34.3866   50.0248 C   0  0  0  0  0  0  0  0  0  0  0  0
   75.5979   34.0970   51.2344 C   0  0  0  0  0  0  0  0  0  0  0  0
 16 17  2  0
 17 18  1  0
 17  1  1  0
 18 19  1  0
 19 20  2  0
 19 28  1  0
 20 21  1  0
 21 22  2  0
 22 23  1  0
 22 27  1  0
 23 24  2  0
 24 25  1  0
 25 26  2  0
 26 27  1  0
 27 28  2  0
  1  2  2  0
  1  9  1  0
  2  3  1  0
  3  4  2  0
  4  5  1  0
  4  8  1  0
  5  6  2  0
  6  7  1  0
  6 14  1  0
  7  8  1  0
  7 10  1  0
  8  9  2  0
 10 11  1  0
 11 12  1  0
 12 13  1  0
 13 14  1  0
 14 15  2  0
M  END
>  <minimizedAffinity>  (588) 
-8.65766

$$$$
data/reference_output_2/data/smiles/103132.pdb
     RDKit          3D

 25 26  0  0  0  0  0  0  0  0999 V2000
   70.2236   42.0683   57.8776 N   0  0  0  0  0  0  0  0  0  0  0  0
   69.2857   42.7303   57.3133 C   0  0  0  0  0  0  0  0  0  0  0  0
   67.8669   41.8599   56.6544 S   0  0  0  0  0  0  0  0  0  0  0  0
   72.3545   40.9171   59.0084 C   0  0  0  0  0  0  0  0  0  0  0  0
   71.2175   40.0690   58.5550 C   0  0  0  0  0  0  0  0  0  0  0  0
   70.2156   40.6768   58.0176 N   0  0  0  0  0  0  0  0  0  0  0  0
   71.2446   38.6084   58.7179 C   0  0  0  0  0  0  0  0  0  0  0  0
   72.0418   37.8283   57.9057 C   0  0  0  0  0  0  0  0  0  0  0  0
   72.1001   36.4531   58.0208 C   0  0  0  0  0  0  0  0  0  0  0  0
   71.3128   35.8782   59.0007 C   0  0  0  0  0  0  0  0  0  0  0  0
   70.5198   36.6515   59.8084 C   0  0  0  0  0  0  0  0  0  0  0  0
   70.5078   37.9725   59.6471 N   0  0  0  0  0  0  0  0  0  0  0  0
   69.7050   38.7487   60.4652 O   0  0  0  0  0  0  0  0  0  0  0  0
   69.4110   44.1452   57.2342 N   0  0  0  0  0  0  0  0  0  0  0  0
   68.7474   44.9200   56.2744 N   0  0  0  0  0  0  0  0  0  0  0  0
   68.8411   46.2068   56.2170 C   0  0  0  0  0  0  0  0  0  0  0  0
   69.8536   47.0352   57.4026 S   0  0  0  0  0  0  0  0  0  0  0  0
   68.1153   46.9092   55.1877 N   0  0  0  0  0  0  0  0  0  0  0  0
   68.7469   47.3524   54.0050 C   0  0  0  0  0  0  0  0  0  0  0  0
   69.5329   48.4791   54.0072 C   0  0  0  0  0  0  0  0  0  0  0  0
   70.1661   48.9324   52.8470 C   0  0  0  0  0  0  0  0  0  0  0  0
   70.0013   48.2378   51.6671 C   0  0  0  0  0  0  0  0  0  0  0  0
   69.2179   47.1085   51.6505 C   0  0  0  0  0  0  0  0  0  0  0  0
   68.6023   46.6802   52.8122 C   0  0  0  0  0  0  0  0  0  0  0  0
   67.5988   45.2410   52.8045 Cl  0  0  0  0  0  0  0  0  0  0  0  0
  4  5  1  0
  5  6  2  0
  5  7  1  0
  6  1  1  0
  1  2  2  0
  2  3  1  0
  2 14  1  0
 14 15  1  0
 15 16  2  0
 16 17  1  0
 16 18  1  0
 18 19  1  0
 19 20  2  0
 19 24  1  0
 20 21  1  0
 21 22  2  0
 22 23  1  0
 23 24  2  0
 24 25  1  0
  7  8  2  0
  7 12  1  0
  8  9  1  0
  9 10  2  0
 10 11  1  0
 11 12  2  0
 12 13  1  0
M  CHG  4   1   1  12   1  13  -1  15   1
M  END
>  <minimizedAffinity>  (589) 
-8.65670

$$$$
data/reference_output_2/data/smiles/111695.pdb
     RDKit          3D

 26 28  0  0  0  0  0  0  0  0999 V2000
   67.4049   41.1874   55.5859 O   0  0  0  0  0  0  0  0  0  0  0  0
   67.4465   41.8389   56.6589 C   0  0  0  0  0  0  0  0  0  0  0  0
   67.6686   43.2320   56.5459 N   0  0  0  0  0  0  0  0  0  0  0  0
   67.2668   41.1308   57.9257 C   0  0  0  0  0  0  0  0  0  0  0  0
   66.5236   41.7001   58.9422 C   0  0  0  0  0  0  0  0  0  0  0  0
   66.3217   41.0785   60.1571 C   0  0  0  0  0  0  0  0  0  0  0  0
   66.8639   39.8358   60.4126 C   0  0  0  0  0  0  0  0  0  0  0  0
   67.6087   39.2484   59.4132 C   0  0  0  0  0  0  0  0  0  0  0  0
   67.8075   39.8891   58.1842 C   0  0  0  0  0  0  0  0  0  0  0  0
   66.6363   39.2225   61.6755 N   0  0  0  0  0  0  0  0  0  0  0  0
   66.9615   39.7778   62.8520 C   0  0  0  0  0  0  0  0  0  0  0  0
   66.6129   38.9348   63.8908 C   0  0  0  0  0  0  0  0  0  0  0  0
   66.0493   37.8132   63.3186 C   0  0  0  0  0  0  0  0  0  0  0  0
   66.0829   38.0300   61.9584 C   0  0  0  0  0  0  0  0  0  0  0  0
   67.8402   43.9073   55.3354 N   0  0  0  0  0  0  0  0  0  0  0  0
   68.2326   45.2700   55.3146 C   0  0  0  0  0  0  0  0  0  0  0  0
   68.4167   45.8349   56.4334 O   0  0  0  0  0  0  0  0  0  0  0  0
   68.4304   46.0382   54.0957 C   0  0  0  0  0  0  0  0  0  0  0  0
   67.8570   45.6011   52.9025 C   0  0  0  0  0  0  0  0  0  0  0  0
   67.9977   46.2706   51.7116 C   0  0  0  0  0  0  0  0  0  0  0  0
   68.7424   47.4312   51.6937 C   0  0  0  0  0  0  0  0  0  0  0  0
   69.3300   47.9090   52.8383 C   0  0  0  0  0  0  0  0  0  0  0  0
   69.1608   47.1950   54.0274 C   0  0  0  0  0  0  0  0  0  0  0  0
   70.0850   49.0886   52.8139 N   0  0  0  0  0  0  0  0  0  0  0  0
   71.3235   49.0294   52.8633 O   0  0  0  0  0  0  0  0  0  0  0  0
   69.4849   50.3091   52.7360 O   0  0  0  0  0  0  0  0  0  0  0  0
  1  2  2  0
  2  3  1  0
  2  4  1  0
  3 15  1  0
 15 16  1  0
 16 17  2  0
 16 18  1  0
 18 19  2  0
 18 23  1  0
 19 20  1  0
 20 21  2  0
 21 22  1  0
 22 24  1  0
 22 23  2  0
 24 25  2  0
 24 26  1  0
  4  5  2  0
  4  9  1  0
  5  6  1  0
  6  7  2  0
  7 10  1  0
  7  8  1  0
 10 11  1  0
 10 14  1  0
 11 12  2  0
 12 13  1  0
 13 14  2  0
  8  9  2  0
M  CHG  2  24   1  26  -1
M  END
>  <minimizedAffinity>  (590) 
-8.65609

$$$$
data/reference_output_2/data/smiles/176710.pdb
     RDKit          3D

 26 28  0  0  0  0  0  0  0  0999 V2000
   68.4446   46.0613   54.0853 C   0  0  0  0  0  0  0  0  0  0  0  0
   68.0035   45.7577   52.8239 C   0  0  0  0  0  0  0  0  0  0  0  0
   68.2605   46.6744   51.7904 C   0  0  0  0  0  0  0  0  0  0  0  0
   68.9355   47.8483   52.0257 C   0  0  0  0  0  0  0  0  0  0  0  0
   69.3865   48.1674   53.2933 C   0  0  0  0  0  0  0  0  0  0  0  0
   69.1283   47.2706   54.2753 C   0  0  0  0  0  0  0  0  0  0  0  0
   68.4872   45.5712   56.3516 O   0  0  0  0  0  0  0  0  0  0  0  0
   68.2086   45.1637   55.1878 C   0  0  0  0  0  0  0  0  0  0  0  0
   67.6886   43.8636   55.0557 N   0  0  0  0  0  0  0  0  0  0  0  0
   67.4420   42.9571   56.0750 N   0  0  0  0  0  0  0  0  0  0  0  0
   68.1626   42.0321   56.5276 C   0  0  0  0  0  0  0  0  0  0  0  0
   67.6697   41.1816   57.6426 C   0  0  0  0  0  0  0  0  0  0  0  0
   68.1005   39.8733   57.7207 C   0  0  0  0  0  0  0  0  0  0  0  0
   67.6872   39.0410   58.7240 C   0  0  0  0  0  0  0  0  0  0  0  0
   66.8228   39.5057   59.6835 C   0  0  0  0  0  0  0  0  0  0  0  0
   66.3688   38.7333   60.7152 F   0  0  0  0  0  0  0  0  0  0  0  0
   66.3937   40.8046   59.6083 C   0  0  0  0  0  0  0  0  0  0  0  0
   66.8079   41.6469   58.5977 C   0  0  0  0  0  0  0  0  0  0  0  0
   70.2371   49.6744   53.5195 S   0  0  0  0  0  0  0  0  0  0  0  0
   69.8208   50.6135   52.4194 O   0  0  0  0  0  0  0  0  0  0  0  0
   71.7047   49.5043   53.4193 O   0  0  0  0  0  0  0  0  0  0  0  0
   69.7907   50.2692   55.0732 N   0  0  0  0  0  0  0  0  0  0  0  0
   68.6523   51.1597   55.0101 C   0  0  0  0  0  0  0  0  0  0  0  0
   69.2679   52.5006   54.7288 C   0  0  0  0  0  0  0  0  0  0  0  0
   70.5706   52.4690   55.4783 C   0  0  0  0  0  0  0  0  0  0  0  0
   70.8428   51.0240   55.7083 C   0  0  0  0  0  0  0  0  0  0  0  0
  7  8  2  0
  8  9  1  0
  8  1  1  0
  9 10  1  0
 10 11  2  0
 11 12  1  0
 12 13  2  0
 12 18  1  0
 13 14  1  0
 14 15  2  0
 15 16  1  0
 15 17  1  0
 17 18  2  0
  1  2  2  0
  1  6  1  0
  2  3  1  0
  3  4  2  0
  4  5  1  0
  5 19  1  0
  5  6  2  0
 19 20  2  0
 19 21  2  0
 19 22  1  0
 22 23  1  0
 22 26  1  0
 23 24  1  0
 24 25  1  0
 25 26  1  0
M  END
>  <minimizedAffinity>  (591) 
-8.65599

$$$$
data/reference_output_2/data/smiles/177720.pdb
     RDKit          3D

 28 31  0  0  0  0  0  0  0  0999 V2000
   69.5428   42.6333   57.3490 C   0  0  2  0  0  0  0  0  0  0  0  0
   68.3381   42.1764   56.5596 C   0  0  0  0  0  0  0  0  0  0  0  0
   68.2576   40.7545   56.9826 C   0  0  0  0  0  0  0  0  0  0  0  0
   67.5117   39.8908   56.4771 O   0  0  0  0  0  0  0  0  0  0  0  0
   69.1691   40.5258   58.0653 N   0  0  0  0  0  0  0  0  0  0  0  0
   69.3410   41.8450   58.6373 C   0  0  0  0  0  0  0  0  0  0  0  0
   69.7672   39.3313   58.4895 C   0  0  0  0  0  0  0  0  0  0  0  0
   69.1551   38.4912   59.3878 C   0  0  0  0  0  0  0  0  0  0  0  0
   69.7334   37.3119   59.8207 C   0  0  0  0  0  0  0  0  0  0  0  0
   70.9593   36.9276   59.3644 C   0  0  0  0  0  0  0  0  0  0  0  0
   71.6043   37.7425   58.4643 C   0  0  0  0  0  0  0  0  0  0  0  0
   71.0247   38.9089   58.0402 C   0  0  0  0  0  0  0  0  0  0  0  0
   72.8493   37.3076   58.0297 O   0  0  0  0  0  0  0  0  0  0  0  0
   73.7403   36.6778   58.9522 C   0  0  0  0  0  0  0  0  0  0  0  0
   73.0332   35.7005   59.8510 C   0  0  0  0  0  0  0  0  0  0  0  0
   71.6277   35.7704   59.7321 O   0  0  0  0  0  0  0  0  0  0  0  0
   69.9967   44.5284   58.6613 O   0  0  0  0  0  0  0  0  0  0  0  0
   69.6228   44.0576   57.5606 C   0  0  0  0  0  0  0  0  0  0  0  0
   69.2825   44.9961   56.5331 N   0  0  0  0  0  0  0  0  0  0  0  0
   69.3547   46.4065   56.7299 C   0  0  0  0  0  0  0  0  0  0  0  0
   68.3737   47.1790   55.9282 C   0  0  0  0  0  0  0  0  0  0  0  0
   68.6688   47.1602   54.4846 C   0  0  0  0  0  0  0  0  0  0  0  0
   69.4023   48.2636   54.0216 C   0  0  0  0  0  0  0  0  0  0  0  0
   69.6910   48.4054   52.7011 C   0  0  0  0  0  0  0  0  0  0  0  0
   69.2452   47.4382   51.8403 C   0  0  0  0  0  0  0  0  0  0  0  0
   68.5266   46.3457   52.2630 C   0  0  0  0  0  0  0  0  0  0  0  0
   68.2372   46.2045   53.5952 C   0  0  0  0  0  0  0  0  0  0  0  0
   67.5780   45.0820   54.0124 F   0  0  0  0  0  0  0  0  0  0  0  0
 17 18  2  0
 18 19  1  0
  1 18  1  1
 19 20  1  0
 20 21  1  0
 21 22  1  0
 22 23  2  0
 22 27  1  0
 23 24  1  0
 24 25  2  0
 25 26  1  0
 26 27  2  0
 27 28  1  0
  1  2  1  0
  1  6  1  0
  2  3  1  0
  3  4  2  0
  3  5  1  0
  5  7  1  0
  5  6  1  0
  7  8  2  0
  7 12  1  0
  8  9  1  0
  9 10  2  0
 10 11  1  0
 10 16  1  0
 11 12  2  0
 11 13  1  0
 13 14  1  0
 14 15  1  0
 15 16  1  0
M  END
>  <minimizedAffinity>  (592) 
-8.65574

$$$$
data/reference_output_2/data/smiles/124511.pdb
     RDKit          3D

 28 30  0  0  0  0  0  0  0  0999 V2000
   69.5793   47.5487   56.7469 C   0  0  0  0  0  0  0  0  0  0  0  0
   70.3957   48.3934   57.4661 C   0  0  0  0  0  0  0  0  0  0  0  0
   71.2044   47.8923   58.4090 N   0  0  0  0  0  0  0  0  0  0  0  0
   71.2130   46.5751   58.6453 C   0  0  0  0  0  0  0  0  0  0  0  0
   71.8917   45.7829   59.5014 N   0  0  0  0  0  0  0  0  0  0  0  0
   71.5406   44.4979   59.3497 C   0  0  0  0  0  0  0  0  0  0  0  0
   70.5883   44.4027   58.3588 C   0  0  0  0  0  0  0  0  0  0  0  0
   70.3916   45.7046   57.9260 C   0  0  0  0  0  0  0  0  0  0  0  0
   69.5899   46.2266   56.9863 N   0  0  0  0  0  0  0  0  0  0  0  0
   69.9289   43.1783   57.8666 C   0  0  0  0  0  0  0  0  0  0  0  0
   70.4674   42.4656   56.9872 O   0  0  0  0  0  0  0  0  0  0  0  0
   68.6731   42.7881   58.3803 N   0  0  0  0  0  0  0  0  0  0  0  0
   68.0146   41.5941   57.9133 C   0  0  0  0  0  0  0  0  0  0  0  0
   67.6128   41.6595   56.4781 C   0  0  0  0  0  0  0  0  0  0  0  0
   66.7260   41.4209   58.7267 C   0  0  0  0  0  0  0  0  0  0  0  0
   68.9026   40.3733   58.1203 C   0  0  0  0  0  0  0  0  0  0  0  0
   68.7310   48.1133   55.7294 N   0  0  0  0  0  0  0  0  0  0  0  0
   69.4296   48.3937   53.3691 C   0  0  0  0  0  0  0  0  0  0  0  0
   69.3499   47.8641   52.1089 C   0  0  0  0  0  0  0  0  0  0  0  0
   68.6378   46.6928   51.8018 C   0  0  0  0  0  0  0  0  0  0  0  0
   67.9887   46.0439   52.8180 C   0  0  0  0  0  0  0  0  0  0  0  0
   68.0601   46.5610   54.0771 C   0  0  0  0  0  0  0  0  0  0  0  0
   68.7579   47.7077   54.3703 C   0  0  0  0  0  0  0  0  0  0  0  0
   68.5022   51.2284   54.4052 C   0  0  0  0  0  0  0  0  0  0  0  0
   69.8351   50.7773   54.1386 N   0  0  0  0  0  0  0  0  0  0  0  0
   70.8955   51.8134   54.3747 C   0  0  0  0  0  0  0  0  0  0  0  0
   70.2190   49.5267   53.6961 C   0  0  0  0  0  0  0  0  0  0  0  0
   71.5031   49.3677   53.5623 O   0  0  0  0  0  0  0  0  0  0  0  0
 24 25  1  0
 25 26  1  0
 25 27  1  0
 27 28  2  0
 27 18  1  0
 18 19  2  0
 18 23  1  0
 19 20  1  0
 20 21  2  0
 21 22  1  0
 22 23  2  0
 23 17  1  0
 17  1  1  0
  1  2  2  0
  1  9  1  0
  2  3  1  0
  3  4  2  0
  4  5  1  0
  4  8  1  0
  5  6  1  0
  6  7  2  0
  7 10  1  0
  7  8  1  0
 10 11  2  0
 10 12  1  0
 12 13  1  0
 13 14  1  0
 13 15  1  0
 13 16  1  0
  8  9  2  0
M  END
>  <minimizedAffinity>  (593) 
-8.65504

$$$$
data/200k_reference_output/data/smiles/59522.pdb
     RDKit          3D

 28 31  0  0  0  0  0  0  0  0999 V2000
   68.9209   47.9756   53.3171 C   0  0  0  0  0  0  0  0  0  0  0  0
   68.4871   46.9041   52.6109 C   0  0  0  0  0  0  0  0  0  0  0  0
   68.0870   45.7311   53.2514 C   0  0  0  0  0  0  0  0  0  0  0  0
   68.1460   45.6957   54.6203 C   0  0  0  0  0  0  0  0  0  0  0  0
   68.5908   46.7917   55.3381 C   0  0  0  0  0  0  0  0  0  0  0  0
   68.9807   47.9355   54.7145 C   0  0  0  0  0  0  0  0  0  0  0  0
   69.3435   49.2585   52.6717 C   0  0  0  0  0  0  0  0  0  0  0  0
   73.1393   51.8365   55.6244 O   0  0  0  0  0  0  0  0  0  0  0  0
   72.2119   51.2820   54.9504 C   0  0  0  0  0  0  0  0  0  0  0  0
   72.5251   50.2296   54.1922 N   0  0  0  0  0  0  0  0  0  0  0  0
   71.5894   49.6364   53.4860 N   0  0  0  0  0  0  0  0  0  0  0  0
   70.2849   50.0405   53.4800 C   0  0  0  0  0  0  0  0  0  0  0  0
   69.9449   51.1023   54.2369 C   0  0  0  0  0  0  0  0  0  0  0  0
   70.9310   51.7480   54.9980 C   0  0  0  0  0  0  0  0  0  0  0  0
   70.6247   52.9069   55.8476 C   0  0  0  0  0  0  0  0  0  0  0  0
   69.2038   53.0548   56.2564 C   0  0  0  0  0  0  0  0  0  0  0  0
   68.3555   51.9056   55.8276 C   0  0  0  0  0  0  0  0  0  0  0  0
   68.6113   51.6856   54.3281 C   0  0  0  0  0  0  0  0  0  0  0  0
   68.6377   46.6617   56.7329 N   0  0  0  0  0  0  0  0  0  0  0  0
   70.0345   46.5360   57.7144 S   0  0  0  0  0  0  0  0  0  0  0  0
   71.0531   45.6726   57.0125 O   0  0  0  0  0  0  0  0  0  0  0  0
   69.6887   45.9023   59.0515 O   0  0  0  0  0  0  0  0  0  0  0  0
   70.7177   48.1009   58.0165 C   0  0  0  0  0  0  0  0  0  0  0  0
   69.9493   49.2163   58.2596 C   0  0  0  0  0  0  0  0  0  0  0  0
   70.5029   50.4524   58.5289 C   0  0  0  0  0  0  0  0  0  0  0  0
   71.8734   50.5808   58.5568 C   0  0  0  0  0  0  0  0  0  0  0  0
   72.6319   49.4829   58.3174 N   0  0  0  0  0  0  0  0  0  0  0  0
   72.0945   48.2809   58.0554 C   0  0  0  0  0  0  0  0  0  0  0  0
  8  9  2  0
  9 10  1  0
  9 14  1  0
 10 11  1  0
 11 12  2  0
 12  7  1  0
 12 13  1  0
  7  1  1  0
  1  2  2  0
  1  6  1  0
  2  3  1  0
  3  4  2  0
  4  5  1  0
  5 19  1  0
  5  6  2  0
 19 20  1  0
 20 21  2  0
 20 22  2  0
 20 23  1  0
 23 24  2  0
 23 28  1  0
 24 25  1  0
 25 26  2  0
 26 27  1  0
 27 28  2  0
 13 14  2  0
 13 18  1  0
 14 15  1  0
 15 16  1  0
 16 17  1  0
 17 18  1  0
M  END
>  <minimizedAffinity>  (594) 
-8.65237

$$$$
data/200k_reference_output/data/smiles/3098.pdb
     RDKit          3D

 29 32  0  0  0  0  0  0  0  0999 V2000
   71.0541   45.9763   58.3601 C   0  0  0  0  0  0  0  0  0  0  0  0
   70.0575   46.5609   57.5751 C   0  0  0  0  0  0  0  0  0  0  0  0
   69.8315   47.9090   57.5812 C   0  0  0  0  0  0  0  0  0  0  0  0
   70.6077   48.7112   58.3827 C   0  0  0  0  0  0  0  0  0  0  0  0
   71.6183   48.1735   59.1869 C   0  0  0  0  0  0  0  0  0  0  0  0
   71.8209   46.7988   59.1555 C   0  0  0  0  0  0  0  0  0  0  0  0
   72.8065   46.2410   59.9352 F   0  0  0  0  0  0  0  0  0  0  0  0
   69.4543   44.1786   59.6460 O   0  0  0  0  0  0  0  0  0  0  0  0
   70.4529   43.6877   59.0613 C   0  0  0  0  0  0  0  0  0  0  0  0
   71.3164   44.5843   58.3778 N   0  0  0  0  0  0  0  0  0  0  0  0
   70.7022   42.2420   59.0954 C   0  0  0  0  0  0  0  0  0  0  0  0
   69.6359   41.5040   58.4576 N   0  0  0  0  0  0  0  0  0  0  0  0
   68.9898   41.9192   57.2037 C   0  0  0  0  0  0  0  0  0  0  0  0
   67.8299   40.9557   57.0481 C   0  0  0  0  0  0  0  0  0  0  0  0
   68.3805   39.7131   57.7154 C   0  0  0  0  0  0  0  0  0  0  0  0
   69.0461   40.2890   58.9139 C   0  0  0  0  0  0  0  0  0  0  0  0
   69.1041   39.8445   60.0901 O   0  0  0  0  0  0  0  0  0  0  0  0
   68.7797   48.5183   56.7520 C   0  0  0  0  0  0  0  0  0  0  0  0
   68.5375   47.6277   55.5771 C   0  0  0  0  0  0  0  0  0  0  0  0
   67.8169   46.4966   55.6887 N   0  0  0  0  0  0  0  0  0  0  0  0
   67.5663   45.6708   54.7019 N   0  0  0  0  0  0  0  0  0  0  0  0
   68.0342   45.9227   53.4815 C   0  0  0  0  0  0  0  0  0  0  0  0
   67.8033   45.1477   52.5398 O   0  0  0  0  0  0  0  0  0  0  0  0
   68.7951   47.0739   53.2664 C   0  0  0  0  0  0  0  0  0  0  0  0
   69.0425   47.9246   54.3229 C   0  0  0  0  0  0  0  0  0  0  0  0
   69.8449   49.1720   54.1717 C   0  0  0  0  0  0  0  0  0  0  0  0
   70.6472   49.0453   52.8978 C   0  0  0  0  0  0  0  0  0  0  0  0
   69.6466   48.7681   51.7684 C   0  0  0  0  0  0  0  0  0  0  0  0
   69.2907   47.3012   51.8838 C   0  0  0  0  0  0  0  0  0  0  0  0
  8  9  2  0
  9 11  1  0
  9 10  1  0
 11 12  1  0
 12 13  1  0
 12 16  1  0
 13 14  1  0
 14 15  1  0
 15 16  1  0
 16 17  2  0
 10  1  1  0
  1  2  2  0
  1  6  1  0
  2  3  1  0
  3 18  1  0
  3  4  2  0
 18 19  1  0
 19 20  2  0
 19 25  1  0
 20 21  1  0
 21 22  1  0
 22 23  2  0
 22 24  1  0
 24 25  2  0
 24 29  1  0
 25 26  1  0
 26 27  1  0
 27 28  1  0
 28 29  1  0
  4  5  1  0
  5  6  2  0
  6  7  1  0
M  END
>  <minimizedAffinity>  (595) 
-8.64982

$$$$
data/reference_output_2/data/smiles/116510.pdb
     RDKit          3D

 26 28  0  0  0  0  0  0  0  0999 V2000
   68.2927   41.8052   57.1373 C   0  0  0  0  0  0  0  0  0  0  0  0
   67.8213   40.5284   57.1093 C   0  0  0  0  0  0  0  0  0  0  0  0
   68.2967   39.4718   57.8689 C   0  0  0  0  0  0  0  0  0  0  0  0
   69.3287   39.7283   58.7329 C   0  0  0  0  0  0  0  0  0  0  0  0
   69.8276   41.0097   58.8090 C   0  0  0  0  0  0  0  0  0  0  0  0
   69.3170   42.0441   58.0085 C   0  0  0  0  0  0  0  0  0  0  0  0
   68.4674   44.0456   56.0535 N   0  0  0  0  0  0  0  0  0  0  0  0
   67.8480   42.8086   56.1377 C   0  0  0  0  0  0  0  0  0  0  0  0
   66.9080   42.5935   55.3631 O   0  0  0  0  0  0  0  0  0  0  0  0
   68.8442   47.7505   54.2030 C   0  0  0  0  0  0  0  0  0  0  0  0
   68.3445   46.7124   53.4873 C   0  0  0  0  0  0  0  0  0  0  0  0
   68.1268   45.4683   54.0575 C   0  0  0  0  0  0  0  0  0  0  0  0
   68.4121   45.2456   55.3982 C   0  0  0  0  0  0  0  0  0  0  0  0
   68.9173   46.3612   56.1076 C   0  0  0  0  0  0  0  0  0  0  0  0
   69.1353   47.5989   55.5345 C   0  0  0  0  0  0  0  0  0  0  0  0
   69.1811   49.0548   53.4611 C   0  0  0  0  0  0  0  0  0  0  0  0
   70.4500   48.5211   51.1881 N   0  0  0  0  0  0  0  0  0  0  0  0
   69.8433   48.7635   52.2705 C   0  0  0  0  0  0  0  0  0  0  0  0
   70.0622   38.4149   59.6537 S   0  0  0  0  0  0  0  0  0  0  0  0
   70.9957   38.9196   60.6594 O   0  0  0  0  0  0  0  0  0  0  0  0
   68.9068   37.7049   60.3022 O   0  0  0  0  0  0  0  0  0  0  0  0
   70.7623   37.2707   58.5428 N   0  0  0  0  0  0  0  0  0  0  0  0
   72.1626   37.6727   58.1913 C   0  0  0  0  0  0  0  0  0  0  0  0
   72.6331   36.3579   57.5432 C   0  0  0  0  0  0  0  0  0  0  0  0
   72.0384   35.3024   58.4985 C   0  0  0  0  0  0  0  0  0  0  0  0
   71.2686   36.1549   59.4371 C   0  0  0  0  0  0  0  0  0  0  0  0
 17 18  3  0
 18 16  1  0
 16 10  1  0
 10 11  2  0
 10 15  1  0
 11 12  1  0
 12 13  2  0
 13  7  1  0
 13 14  1  0
  7  8  1  0
  8  9  2  0
  8  1  1  0
  1  2  2  0
  1  6  1  0
  2  3  1  0
  3  4  2  0
  4 19  1  0
  4  5  1  0
 19 20  2  0
 19 21  2  0
 19 22  1  0
 22 23  1  0
 22 26  1  0
 23 24  1  0
 24 25  1  0
 25 26  1  0
  5  6  2  0
 14 15  2  0
M  END
>  <minimizedAffinity>  (596) 
-8.64980

$$$$
data/200k_reference_output/data/smiles/63866.pdb
     RDKit          3D

 27 30  0  0  0  0  0  0  0  0999 V2000
   68.9412   43.1318   57.5832 N   0  0  0  0  0  0  0  0  0  0  0  0
   68.2449   41.9406   57.3308 C   0  0  0  0  0  0  0  0  0  0  0  0
   68.4877   40.7880   58.2287 C   0  0  0  0  0  0  0  0  0  0  0  0
   69.8467   40.6826   58.5708 N   0  0  0  0  0  0  0  0  0  0  0  0
   70.4803   41.8694   59.0410 C   0  0  0  0  0  0  0  0  0  0  0  0
   70.1275   43.1192   58.3222 C   0  0  0  0  0  0  0  0  0  0  0  0
   69.0970   45.4243   56.6104 C   0  0  0  0  0  0  0  0  0  0  0  0
   69.4808   45.8907   57.7115 O   0  0  0  0  0  0  0  0  0  0  0  0
   68.8315   44.0449   56.5537 N   0  0  0  0  0  0  0  0  0  0  0  0
   67.9777   46.3998   51.8095 C   0  0  0  0  0  0  0  0  0  0  0  0
   68.4201   46.8407   53.1618 C   0  0  0  0  0  0  0  0  0  0  0  0
   68.7001   48.1799   53.3386 C   0  0  0  0  0  0  0  0  0  0  0  0
   69.1066   48.5815   54.5915 C   0  0  0  0  0  0  0  0  0  0  0  0
   69.2364   47.7003   55.6437 C   0  0  0  0  0  0  0  0  0  0  0  0
   68.9572   46.3368   55.4813 C   0  0  0  0  0  0  0  0  0  0  0  0
   68.5525   45.9596   54.2218 C   0  0  0  0  0  0  0  0  0  0  0  0
   70.3378   39.4744   59.0507 C   0  0  0  0  0  0  0  0  0  0  0  0
   71.2370   38.6194   58.2645 C   0  0  0  0  0  0  0  0  0  0  0  0
   71.2881   37.1901   58.6425 C   0  0  0  0  0  0  0  0  0  0  0  0
   70.6736   36.6494   59.7712 C   0  0  0  0  0  0  0  0  0  0  0  0
   70.9648   35.3550   59.8082 N   0  0  0  0  0  0  0  0  0  0  0  0
   71.7389   35.0005   58.7658 C   0  0  0  0  0  0  0  0  0  0  0  0
   72.2965   33.7961   58.3546 C   0  0  0  0  0  0  0  0  0  0  0  0
   73.0643   33.6930   57.2169 C   0  0  0  0  0  0  0  0  0  0  0  0
   73.2648   34.8416   56.4863 C   0  0  0  0  0  0  0  0  0  0  0  0
   72.7174   36.0357   56.8853 C   0  0  0  0  0  0  0  0  0  0  0  0
   71.9422   36.1455   58.0357 C   0  0  0  0  0  0  0  0  0  0  0  0
 10 11  1  0
 11 12  2  0
 11 16  1  0
 12 13  1  0
 13 14  2  0
 14 15  1  0
 15  7  1  0
 15 16  2  0
  7  8  2  0
  7  9  1  0
  9  1  1  0
  1  2  1  0
  1  6  1  0
  2  3  1  0
  3  4  1  0
  4 17  1  0
  4  5  1  0
 17 18  1  0
 18 19  1  0
 19 20  2  0
 19 27  1  0
 20 21  1  0
 21 22  1  0
 22 23  1  0
 22 27  2  0
 23 24  2  0
 24 25  1  0
 25 26  2  0
 26 27  1  0
  5  6  1  0
M  CHG  1   4   1
M  END
>  <minimizedAffinity>  (597) 
-8.64952

$$$$
data/reference_output_2/data/smiles/127618.pdb
     RDKit          3D

 23 24  0  0  0  0  0  0  0  0999 V2000
   68.3445   44.6596   56.4341 N   0  0  0  0  0  0  0  0  0  0  0  0
   72.0896   40.9546   58.6795 C   0  0  0  0  0  0  0  0  0  0  0  0
   71.1262   41.9287   58.0988 C   0  0  0  0  0  0  0  0  0  0  0  0
   71.4038   43.2782   58.0317 C   0  0  0  0  0  0  0  0  0  0  0  0
   70.5083   44.1850   57.4921 C   0  0  0  0  0  0  0  0  0  0  0  0
   69.3002   43.7840   56.9975 C   0  0  0  0  0  0  0  0  0  0  0  0
   69.0029   42.4191   57.0577 C   0  0  0  0  0  0  0  0  0  0  0  0
   69.9063   41.5273   57.5991 C   0  0  0  0  0  0  0  0  0  0  0  0
   67.4795   41.8607   56.4395 S   0  0  0  0  0  0  0  0  0  0  0  0
   67.7111   40.3199   55.7132 N   0  0  0  0  0  0  0  0  0  0  0  0
   66.8483   42.8404   55.4978 O   0  0  0  0  0  0  0  0  0  0  0  0
   66.5356   41.6790   57.5905 O   0  0  0  0  0  0  0  0  0  0  0  0
   68.7092   46.2742   55.9617 S   0  0  0  0  0  0  0  0  0  0  0  0
   67.7427   47.2286   56.6238 O   0  0  0  0  0  0  0  0  0  0  0  0
   70.0801   46.6797   56.4183 O   0  0  0  0  0  0  0  0  0  0  0  0
   68.6073   46.5147   54.2348 C   0  0  0  0  0  0  0  0  0  0  0  0
   67.9909   45.6072   53.4164 C   0  0  0  0  0  0  0  0  0  0  0  0
   67.9285   45.8334   52.0617 C   0  0  0  0  0  0  0  0  0  0  0  0
   68.4855   46.9737   51.5210 C   0  0  0  0  0  0  0  0  0  0  0  0
   69.1110   47.9005   52.3250 C   0  0  0  0  0  0  0  0  0  0  0  0
   69.8234   49.3557   51.6414 Cl  0  0  0  0  0  0  0  0  0  0  0  0
   69.1571   47.6452   53.6734 C   0  0  0  0  0  0  0  0  0  0  0  0
   69.9658   48.8511   54.6898 Cl  0  0  0  0  0  0  0  0  0  0  0  0
  2  3  1  0
  3  4  2  0
  3  8  1  0
  4  5  1  0
  5  6  2  0
  6  1  1  0
  6  7  1  0
  1 13  1  0
 13 14  2  0
 13 15  2  0
 13 16  1  0
 16 17  2  0
 16 22  1  0
 17 18  1  0
 18 19  2  0
 19 20  1  0
 20 21  1  0
 20 22  2  0
 22 23  1  0
  7  9  1  0
  7  8  2  0
  9 10  1  0
  9 11  2  0
  9 12  2  0
M  END
>  <minimizedAffinity>  (598) 
-8.64898

$$$$
data/reference_output_2/data/smiles/187538.pdb
     RDKit          3D

 29 32  0  0  0  0  0  0  0  0999 V2000
   73.5301   34.9236   55.4526 C   0  0  0  0  0  0  0  0  0  0  0  0
   73.5367   33.6485   55.9820 C   0  0  0  0  0  0  0  0  0  0  0  0
   72.9634   33.3670   57.2173 C   0  0  0  0  0  0  0  0  0  0  0  0
   72.3646   34.3587   57.9640 C   0  0  0  0  0  0  0  0  0  0  0  0
   71.8032   34.0917   59.1690 N   0  0  0  0  0  0  0  0  0  0  0  0
   71.2201   35.0575   59.8941 C   0  0  0  0  0  0  0  0  0  0  0  0
   71.2050   36.3066   59.3924 N   0  0  0  0  0  0  0  0  0  0  0  0
   71.7498   36.6129   58.2026 C   0  0  0  0  0  0  0  0  0  0  0  0
   71.7418   37.7763   57.7218 O   0  0  0  0  0  0  0  0  0  0  0  0
   72.3535   35.6350   57.4415 C   0  0  0  0  0  0  0  0  0  0  0  0
   72.9254   35.9055   56.2138 C   0  0  0  0  0  0  0  0  0  0  0  0
   70.6345   37.4972   59.9971 C   0  0  0  0  0  0  0  0  0  0  0  0
   69.3672   37.1976   60.7338 C   0  0  0  0  0  0  0  0  0  0  0  0
   69.5651   36.6136   62.0965 C   0  0  0  0  0  0  0  0  0  0  0  0
   70.8222   35.7648   62.1692 C   0  0  0  0  0  0  0  0  0  0  0  0
   70.6561   34.5972   61.1878 C   0  0  0  0  0  0  0  0  0  0  0  0
   76.2782   35.0488   54.9503 O   0  0  0  0  0  0  0  0  0  0  0  0
   75.5242   35.2343   53.9682 C   0  0  0  0  0  0  0  0  0  0  0  0
   74.1260   35.1782   54.1839 N   0  0  0  0  0  0  0  0  0  0  0  0
   76.1433   35.4942   52.6750 C   0  0  0  0  0  0  0  0  0  0  0  0
   76.8077   36.5496   52.5106 O   0  0  0  0  0  0  0  0  0  0  0  0
   76.0185   34.5884   51.5883 N   0  0  0  0  0  0  0  0  0  0  0  0
   76.6037   34.8005   50.3129 C   0  0  0  0  0  0  0  0  0  0  0  0
   77.6892   35.6208   50.0926 C   0  0  0  0  0  0  0  0  0  0  0  0
   78.2428   35.8127   48.8441 C   0  0  0  0  0  0  0  0  0  0  0  0
   77.7084   35.1701   47.7464 C   0  0  0  0  0  0  0  0  0  0  0  0
   76.6178   34.3419   47.9465 C   0  0  0  0  0  0  0  0  0  0  0  0
   76.0763   34.1617   49.2091 C   0  0  0  0  0  0  0  0  0  0  0  0
   75.0113   33.3433   49.3587 F   0  0  0  0  0  0  0  0  0  0  0  0
 17 18  2  0
 18 19  1  0
 18 20  1  0
 19  1  1  0
  1  2  2  0
  1 11  1  0
  2  3  1  0
  3  4  2  0
  4  5  1  0
  4 10  1  0
  5  6  2  0
  6  7  1  0
  6 16  1  0
  7  8  1  0
  7 12  1  0
  8  9  2  0
  8 10  1  0
 10 11  2  0
 12 13  1  0
 13 14  1  0
 14 15  1  0
 15 16  1  0
 20 21  2  0
 20 22  1  0
 22 23  1  0
 23 24  2  0
 23 28  1  0
 24 25  1  0
 25 26  2  0
 26 27  1  0
 27 28  2  0
 28 29  1  0
M  END
>  <minimizedAffinity>  (599) 
-8.64875

$$$$
data/200k_reference_output/data/smiles/30313.pdb
     RDKit          3D

 27 30  0  0  0  0  0  0  0  0999 V2000
   68.9647   41.4054   57.4870 C   0  0  0  0  0  0  0  0  0  0  0  0
   67.5424   41.6789   56.3037 S   0  0  0  0  0  0  0  0  0  0  0  0
   68.1102   43.4360   55.9268 C   0  0  0  0  0  0  0  0  0  0  0  0
   69.0494   43.4660   56.6125 N   0  0  0  0  0  0  0  0  0  0  0  0
   69.5430   42.5658   57.3901 N   0  0  0  0  0  0  0  0  0  0  0  0
   70.7528   42.8601   58.1525 C   0  0  0  0  0  0  0  0  0  0  0  0
   71.9942   42.5821   57.5906 C   0  0  0  0  0  0  0  0  0  0  0  0
   73.1559   42.8318   58.2878 C   0  0  0  0  0  0  0  0  0  0  0  0
   73.1033   43.3597   59.5506 C   0  0  0  0  0  0  0  0  0  0  0  0
   71.8726   43.6371   60.1112 C   0  0  0  0  0  0  0  0  0  0  0  0
   70.7108   43.3852   59.4082 C   0  0  0  0  0  0  0  0  0  0  0  0
   70.1880   39.4068   58.2148 C   0  0  0  0  0  0  0  0  0  0  0  0
   69.1144   40.1588   58.1620 C   0  0  0  0  0  0  0  0  0  0  0  0
   70.9197   34.0477   60.9106 Cl  0  0  0  0  0  0  0  0  0  0  0  0
   70.6774   35.6143   60.1533 C   0  0  0  0  0  0  0  0  0  0  0  0
   69.7034   36.4896   60.5783 C   0  0  0  0  0  0  0  0  0  0  0  0
   69.5174   37.7368   59.9680 C   0  0  0  0  0  0  0  0  0  0  0  0
   70.3054   38.1339   58.9151 C   0  0  0  0  0  0  0  0  0  0  0  0
   71.2785   37.2467   58.4995 C   0  0  0  0  0  0  0  0  0  0  0  0
   71.4713   36.0091   59.0969 C   0  0  0  0  0  0  0  0  0  0  0  0
   67.4065   44.2594   55.0294 N   0  0  0  0  0  0  0  0  0  0  0  0
   67.9593   45.4111   54.4536 C   0  0  0  0  0  0  0  0  0  0  0  0
   67.9536   45.5326   53.0583 C   0  0  0  0  0  0  0  0  0  0  0  0
   68.5004   46.6244   52.4190 C   0  0  0  0  0  0  0  0  0  0  0  0
   69.0763   47.6467   53.1335 C   0  0  0  0  0  0  0  0  0  0  0  0
   69.0959   47.5529   54.5061 C   0  0  0  0  0  0  0  0  0  0  0  0
   68.5399   46.4406   55.1495 C   0  0  0  0  0  0  0  0  0  0  0  0
 14 15  1  0
 15 16  2  0
 15 20  1  0
 16 17  1  0
 17 18  2  0
 18 12  1  0
 18 19  1  0
 12 13  2  0
 13  1  1  0
  1  2  1  0
  1  5  2  0
  2  3  1  0
  3 21  1  0
  3  4  2  0
 21 22  1  0
 22 23  2  0
 22 27  1  0
 23 24  1  0
 24 25  2  0
 25 26  1  0
 26 27  2  0
  4  5  1  0
  5  6  1  0
  6  7  2  0
  6 11  1  0
  7  8  1  0
  8  9  2  0
  9 10  1  0
 10 11  2  0
 19 20  2  0
M  CHG  1   5   1
M  END
>  <minimizedAffinity>  (600) 
-8.64842

$$$$
data/200k_reference_output/data/smiles/73098.pdb
     RDKit          3D

 26 29  0  0  0  0  0  0  0  0999 V2000
   71.3298   52.2273   55.0808 N   0  0  0  0  0  0  0  0  0  0  0  0
   71.1828   52.1950   56.5262 C   0  0  0  0  0  0  0  0  0  0  0  0
   69.7314   51.9947   56.7980 C   0  0  0  0  0  0  0  0  0  0  0  0
   69.0332   52.3627   55.5368 C   0  0  0  0  0  0  0  0  0  0  0  0
   70.1226   52.1471   54.4622 C   0  0  2  0  0  0  0  0  0  0  0  0
   69.8292   50.7583   53.9432 C   0  0  0  0  0  0  0  0  0  0  0  0
   69.0640   49.8158   54.5539 N   0  0  0  0  0  0  0  0  0  0  0  0
   69.0148   48.6971   53.8140 C   0  0  0  0  0  0  0  0  0  0  0  0
   68.4121   47.4622   53.9319 C   0  0  0  0  0  0  0  0  0  0  0  0
   68.5517   46.4772   52.9706 C   0  0  0  0  0  0  0  0  0  0  0  0
   67.9519   45.2564   53.0958 F   0  0  0  0  0  0  0  0  0  0  0  0
   69.3206   46.7144   51.8334 C   0  0  0  0  0  0  0  0  0  0  0  0
   69.9192   47.9529   51.7258 C   0  0  0  0  0  0  0  0  0  0  0  0
   69.7896   48.9446   52.6749 C   0  0  0  0  0  0  0  0  0  0  0  0
   70.2614   50.2130   52.8037 N   0  0  0  0  0  0  0  0  0  0  0  0
   72.6116   52.2849   54.6436 C   0  0  0  0  0  0  0  0  0  0  0  0
   73.5422   50.2735   53.9044 O   0  0  0  0  0  0  0  0  0  0  0  0
   73.6183   51.2616   54.7490 C   0  0  0  0  0  0  0  0  0  0  0  0
   74.6845   51.1713   55.6419 N   0  0  0  0  0  0  0  0  0  0  0  0
   75.6258   50.0360   55.5911 C   0  0  0  0  0  0  0  0  0  0  0  0
   76.8208   50.2949   56.4235 C   0  0  0  0  0  0  0  0  0  0  0  0
   78.1086   50.4162   55.9709 C   0  0  0  0  0  0  0  0  0  0  0  0
   79.1936   50.6803   56.8058 C   0  0  0  0  0  0  0  0  0  0  0  0
   78.9859   50.8299   58.1590 C   0  0  0  0  0  0  0  0  0  0  0  0
   77.6787   50.7023   58.5922 C   0  0  0  0  0  0  0  0  0  0  0  0
   76.6514   50.4484   57.7703 N   0  0  0  0  0  0  0  0  0  0  0  0
 17 18  2  0
 18 16  1  0
 18 19  1  0
 16  1  1  0
  1  2  1  0
  1  5  1  0
  2  3  1  0
  3  4  1  0
  4  5  1  0
  5  6  1  1
  6  7  2  0
  6 15  1  0
  7  8  1  0
  8  9  2  0
  8 14  1  0
  9 10  1  0
 10 11  1  0
 10 12  2  0
 12 13  1  0
 13 14  2  0
 14 15  1  0
 19 20  1  0
 20 21  1  0
 21 22  2  0
 21 26  1  0
 22 23  1  0
 23 24  2  0
 24 25  1  0
 25 26  2  0
M  CHG  2   1   1   7   1
M  END
>  <minimizedAffinity>  (601) 
-8.64811

$$$$
data/reference_output_2/data/smiles/100770.pdb
     RDKit          3D

 27 30  0  0  0  0  0  0  0  0999 V2000
   67.9431   45.1086   54.6423 C   0  0  0  0  0  0  0  0  0  0  0  0
   68.1670   45.3971   53.3111 C   0  0  0  0  0  0  0  0  0  0  0  0
   68.6177   46.6238   52.8688 C   0  0  0  0  0  0  0  0  0  0  0  0
   68.9154   47.1798   51.6842 N   0  0  0  0  0  0  0  0  0  0  0  0
   69.3193   48.4293   51.8062 N   0  0  0  0  0  0  0  0  0  0  0  0
   69.3016   48.7565   53.1323 C   0  0  0  0  0  0  0  0  0  0  0  0
   68.8639   47.6315   53.8001 C   0  0  0  0  0  0  0  0  0  0  0  0
   68.6291   47.3092   55.1267 C   0  0  0  0  0  0  0  0  0  0  0  0
   68.1890   46.0981   55.5203 N   0  0  0  0  0  0  0  0  0  0  0  0
   69.6567   49.9957   53.7201 N   0  0  0  0  0  0  0  0  0  0  0  0
   68.7554   51.0337   54.1692 C   0  0  0  0  0  0  0  0  0  0  0  0
   69.5832   52.2457   54.5010 C   0  0  0  0  0  0  0  0  0  0  0  0
   70.9720   51.7247   54.7006 C   0  0  0  0  0  0  0  0  0  0  0  0
   70.9682   50.4283   53.9681 C   0  0  0  0  0  0  0  0  0  0  0  0
   72.0106   49.8213   53.6285 O   0  0  0  0  0  0  0  0  0  0  0  0
   67.7443   41.9121   56.6588 N   0  0  0  0  0  0  0  0  0  0  0  0
   68.1236   43.1685   56.1555 C   0  0  0  0  0  0  0  0  0  0  0  0
   69.1052   43.7584   56.6905 O   0  0  0  0  0  0  0  0  0  0  0  0
   67.4772   43.8317   55.0777 N   0  0  0  0  0  0  0  0  0  0  0  0
   68.1913   39.7868   57.6454 C   0  0  0  0  0  0  0  0  0  0  0  0
   68.4444   41.2737   57.7709 C   0  0  2  0  0  0  0  0  0  0  0  0
   67.9061   41.7067   59.0813 C   0  0  0  0  0  0  0  0  0  0  0  0
   66.5829   41.4254   59.3538 C   0  0  0  0  0  0  0  0  0  0  0  0
   65.9811   41.7840   60.5439 C   0  0  0  0  0  0  0  0  0  0  0  0
   66.7513   42.4466   61.4810 C   0  0  0  0  0  0  0  0  0  0  0  0
   68.0789   42.7334   61.2183 C   0  0  0  0  0  0  0  0  0  0  0  0
   68.6506   42.3645   60.0243 C   0  0  0  0  0  0  0  0  0  0  0  0
 21 20  1  6
 21 16  1  0
 21 22  1  0
 16 17  1  0
 17 18  2  0
 17 19  1  0
 19  1  1  0
  1  2  2  0
  1  9  1  0
  2  3  1  0
  3  4  1  0
  3  7  2  0
  4  5  1  0
  5  6  2  0
  6 10  1  0
  6  7  1  0
 10 11  1  0
 10 14  1  0
 11 12  1  0
 12 13  1  0
 13 14  1  0
 14 15  2  0
  7  8  1  0
  8  9  2  0
 22 23  2  0
 22 27  1  0
 23 24  1  0
 24 25  2  0
 25 26  1  0
 26 27  2  0
M  END
>  <minimizedAffinity>  (602) 
-8.64695

$$$$
data/reference_output_2/data/smiles/190394.pdb
     RDKit          3D

 29 32  0  0  0  0  0  0  0  0999 V2000
   70.4012   40.3910   58.8120 C   0  0  0  0  0  0  0  0  0  0  0  0
   69.1526   40.3921   58.6035 O   0  0  0  0  0  0  0  0  0  0  0  0
   71.1717   41.4628   58.3159 N   0  0  0  0  0  0  0  0  0  0  0  0
   72.5964   41.5915   58.4716 C   0  0  0  0  0  0  0  0  0  0  0  0
   73.1610   42.7357   57.6788 C   0  0  0  0  0  0  0  0  0  0  0  0
   72.4525   44.0454   57.8704 C   0  0  0  0  0  0  0  0  0  0  0  0
   71.0479   43.8210   58.2826 C   0  0  2  0  0  0  0  0  0  0  0  0
   70.5291   42.5656   57.5781 C   0  0  0  0  0  0  0  0  0  0  0  0
   70.1674   45.0007   57.9944 C   0  0  0  0  0  0  0  0  0  0  0  0
   69.7386   45.7347   58.9192 O   0  0  0  0  0  0  0  0  0  0  0  0
   69.8080   45.3051   56.6699 N   0  0  0  0  0  0  0  0  0  0  0  0
   68.9748   46.4011   56.2430 C   0  0  0  0  0  0  0  0  0  0  0  0
   68.7173   46.4379   54.7877 C   0  0  0  0  0  0  0  0  0  0  0  0
   67.9654   45.4208   54.2279 C   0  0  0  0  0  0  0  0  0  0  0  0
   67.7138   45.4488   52.8819 C   0  0  0  0  0  0  0  0  0  0  0  0
   68.2099   46.4826   52.1041 C   0  0  0  0  0  0  0  0  0  0  0  0
   68.9600   47.4939   52.6737 C   0  0  0  0  0  0  0  0  0  0  0  0
   69.2181   47.4676   54.0486 C   0  0  0  0  0  0  0  0  0  0  0  0
   71.2450   39.4505   60.7790 O   0  0  0  0  0  0  0  0  0  0  0  0
   71.0221   39.3209   59.5407 C   0  0  0  0  0  0  0  0  0  0  0  0
   71.4248   38.0602   58.9388 C   0  0  0  0  0  0  0  0  0  0  0  0
   72.0711   37.8821   57.7439 C   0  0  0  0  0  0  0  0  0  0  0  0
   72.2745   36.5530   57.5269 N   0  0  0  0  0  0  0  0  0  0  0  0
   71.7705   35.8632   58.5627 C   0  0  0  0  0  0  0  0  0  0  0  0
   71.7060   34.5235   58.8534 C   0  0  0  0  0  0  0  0  0  0  0  0
   71.1167   34.1120   60.0156 C   0  0  0  0  0  0  0  0  0  0  0  0
   70.5759   34.9973   60.9226 C   0  0  0  0  0  0  0  0  0  0  0  0
   70.6486   36.3570   60.6138 C   0  0  0  0  0  0  0  0  0  0  0  0
   71.2394   36.7796   59.4492 C   0  0  0  0  0  0  0  0  0  0  0  0
 19 20  2  0
 20  1  1  0
 20 21  1  0
  1  2  2  0
  1  3  1  0
  3  4  1  0
  3  8  1  0
  4  5  1  0
  5  6  1  0
  6  7  1  0
  7  9  1  6
  7  8  1  0
  9 10  2  0
  9 11  1  0
 11 12  1  0
 12 13  1  0
 13 14  2  0
 13 18  1  0
 14 15  1  0
 15 16  2  0
 16 17  1  0
 17 18  2  0
 21 22  2  0
 21 29  1  0
 22 23  1  0
 23 24  1  0
 24 25  1  0
 24 29  2  0
 25 26  2  0
 26 27  1  0
 27 28  2  0
 28 29  1  0
M  END
>  <minimizedAffinity>  (603) 
-8.64655

$$$$
data/200k_reference_output/data/smiles/43601.pdb
     RDKit          3D

 26 28  0  0  0  0  0  0  0  0999 V2000
   69.6416   48.4957   56.1143 N   0  0  0  0  0  0  0  0  0  0  0  0
   68.8696   47.3177   55.9739 C   0  0  0  0  0  0  0  0  0  0  0  0
   68.4090   46.6087   56.9199 O   0  0  0  0  0  0  0  0  0  0  0  0
   68.6764   47.0243   54.5413 C   0  0  0  0  0  0  0  0  0  0  0  0
   68.0098   46.0027   53.9015 C   0  0  0  0  0  0  0  0  0  0  0  0
   67.9766   45.9461   52.5294 C   0  0  0  0  0  0  0  0  0  0  0  0
   68.6136   46.9165   51.7697 C   0  0  0  0  0  0  0  0  0  0  0  0
   69.2753   47.9310   52.4278 C   0  0  0  0  0  0  0  0  0  0  0  0
   69.3258   48.0127   53.8058 C   0  0  0  0  0  0  0  0  0  0  0  0
   69.9211   48.9207   54.7697 C   0  0  0  0  0  0  0  0  0  0  0  0
   70.6043   49.9593   54.4856 O   0  0  0  0  0  0  0  0  0  0  0  0
   69.9203   48.9075   51.6412 N   0  0  0  0  0  0  0  0  0  0  0  0
   70.7576   48.4917   50.7834 O   0  0  0  0  0  0  0  0  0  0  0  0
   69.7469   50.2474   51.7022 O   0  0  0  0  0  0  0  0  0  0  0  0
   70.0904   49.2355   57.2561 C   0  0  0  0  0  0  0  0  0  0  0  0
   71.3684   48.8490   57.8635 C   0  0  0  0  0  0  0  0  0  0  0  0
   71.3848   47.8743   60.0189 O   0  0  0  0  0  0  0  0  0  0  0  0
   71.4296   47.7345   58.7905 C   0  0  0  0  0  0  0  0  0  0  0  0
   71.5486   46.3797   58.2913 N   0  0  0  0  0  0  0  0  0  0  0  0
   71.6084   45.2783   59.2025 C   0  0  0  0  0  0  0  0  0  0  0  0
   72.9656   44.6082   59.2473 C   0  0  0  0  0  0  0  0  0  0  0  0
   73.5081   44.2267   57.9170 C   0  0  0  0  0  0  0  0  0  0  0  0
   73.2568   42.7842   57.5456 C   0  0  0  0  0  0  0  0  0  0  0  0
   71.8632   42.3378   57.9254 C   0  0  0  0  0  0  0  0  0  0  0  0
   70.9017   43.4764   57.6627 C   0  0  0  0  0  0  0  0  0  0  0  0
   70.5889   44.2079   58.9264 C   0  0  0  0  0  0  0  0  0  0  0  0
 17 18  2  0
 18 16  1  0
 18 19  1  0
 16 15  1  0
 15  1  1  0
  1  2  1  0
  1 10  1  0
  2  3  2  0
  2  4  1  0
  4  5  1  0
  4  9  2  0
  5  6  2  0
  6  7  1  0
  7  8  2  0
  8 12  1  0
  8  9  1  0
 12 13  2  0
 12 14  1  0
  9 10  1  0
 10 11  2  0
 19 20  1  0
 20 21  1  0
 20 26  1  0
 21 22  1  0
 22 23  1  0
 23 24  1  0
 24 25  1  0
 25 26  1  0
M  CHG  2  12   1  14  -1
M  END
>  <minimizedAffinity>  (604) 
-8.64470

$$$$
data/200k_reference_output/data/smiles/46066.pdb
     RDKit          3D

 23 25  0  0  0  0  0  0  0  0999 V2000
   68.7016   43.8203   56.1501 N   0  0  0  0  0  0  0  0  0  0  0  0
   68.5511   42.6828   56.6832 C   0  0  0  0  0  0  0  0  0  0  0  0
   67.3189   41.9137   56.6589 C   0  0  0  0  0  0  0  0  0  0  0  0
   66.2421   42.2536   56.1308 O   0  0  0  0  0  0  0  0  0  0  0  0
   67.6135   40.7008   57.3671 N   0  0  0  0  0  0  0  0  0  0  0  0
   68.9673   40.7277   57.8037 C   0  0  0  0  0  0  0  0  0  0  0  0
   69.7466   39.8189   58.5169 C   0  0  0  0  0  0  0  0  0  0  0  0
   71.0699   40.0943   58.8170 C   0  0  0  0  0  0  0  0  0  0  0  0
   71.6662   41.2760   58.4221 C   0  0  0  0  0  0  0  0  0  0  0  0
   73.5016   41.6529   58.8391 Br  0  0  0  0  0  0  0  0  0  0  0  0
   70.8897   42.1691   57.7174 C   0  0  0  0  0  0  0  0  0  0  0  0
   69.5724   41.9007   57.4162 C   0  0  0  0  0  0  0  0  0  0  0  0
   67.7403   44.5517   55.4471 N   0  0  0  0  0  0  0  0  0  0  0  0
   69.2942   47.9967   53.5712 C   0  0  0  0  0  0  0  0  0  0  0  0
   69.3489   47.8554   54.9417 C   0  0  0  0  0  0  0  0  0  0  0  0
   68.8288   46.7085   55.5596 C   0  0  0  0  0  0  0  0  0  0  0  0
   68.2595   45.7136   54.7909 C   0  0  0  0  0  0  0  0  0  0  0  0
   68.2223   45.8848   53.4284 C   0  0  0  0  0  0  0  0  0  0  0  0
   68.7284   47.0060   52.8097 C   0  0  0  0  0  0  0  0  0  0  0  0
   71.5603   49.6644   53.4877 N   0  0  0  0  0  0  0  0  0  0  0  0
   69.9552   49.4560   52.8245 S   0  0  0  0  0  0  0  0  0  0  0  0
   70.1144   49.2055   51.3633 O   0  0  0  0  0  0  0  0  0  0  0  0
   69.0943   50.6468   53.0678 O   0  0  0  0  0  0  0  0  0  0  0  0
 20 21  1  0
 21 22  2  0
 21 23  2  0
 21 14  1  0
 14 15  2  0
 14 19  1  0
 15 16  1  0
 16 17  2  0
 17 13  1  0
 17 18  1  0
 13  1  1  0
  1  2  2  0
  2  3  1  0
  2 12  1  0
  3  4  2  0
  3  5  1  0
  5  6  1  0
  6  7  1  0
  6 12  2  0
  7  8  2  0
  8  9  1  0
  9 10  1  0
  9 11  2  0
 11 12  1  0
 18 19  2  0
M  END
>  <minimizedAffinity>  (605) 
-8.64437

$$$$
data/200k_reference_output/data/smiles/13809.pdb
     RDKit          3D

 26 28  0  0  0  0  0  0  0  0999 V2000
   68.0025   43.3303   56.0579 C   0  0  0  0  0  0  0  0  0  0  0  0
   67.5566   41.7600   56.1500 S   0  0  0  0  0  0  0  0  0  0  0  0
   67.4839   44.1219   55.0275 N   0  0  0  0  0  0  0  0  0  0  0  0
   69.2273   47.6579   53.4221 C   0  0  0  0  0  0  0  0  0  0  0  0
   69.1630   47.4542   54.7822 C   0  0  0  0  0  0  0  0  0  0  0  0
   68.5874   46.3149   55.3361 C   0  0  0  0  0  0  0  0  0  0  0  0
   68.0537   45.3347   54.5373 C   0  0  0  0  0  0  0  0  0  0  0  0
   68.1192   45.5447   53.1600 C   0  0  0  0  0  0  0  0  0  0  0  0
   68.6879   46.6691   52.6143 C   0  0  0  0  0  0  0  0  0  0  0  0
   69.1795   50.5247   53.3128 N   0  0  0  0  0  0  0  0  0  0  0  0
   69.9608   49.0950   52.7245 S   0  0  0  0  0  0  0  0  0  0  0  0
   71.4069   49.1516   53.1232 O   0  0  0  0  0  0  0  0  0  0  0  0
   69.9118   49.0997   51.2354 O   0  0  0  0  0  0  0  0  0  0  0  0
   68.8879   43.8097   57.0219 N   0  0  0  0  0  0  0  0  0  0  0  0
   70.2000   43.3705   57.1270 N   0  0  0  0  0  0  0  0  0  0  0  0
   71.0993   44.0145   57.8275 C   0  0  0  0  0  0  0  0  0  0  0  0
   70.8809   45.2281   58.5727 C   0  0  0  0  0  0  0  0  0  0  0  0
   69.7873   45.8505   58.6896 O   0  0  0  0  0  0  0  0  0  0  0  0
   72.1416   45.5751   59.1450 N   0  0  0  0  0  0  0  0  0  0  0  0
   73.1441   44.6297   58.7902 C   0  0  0  0  0  0  0  0  0  0  0  0
   74.4952   44.5557   59.1017 C   0  0  0  0  0  0  0  0  0  0  0  0
   75.1182   45.4766   59.8754 F   0  0  0  0  0  0  0  0  0  0  0  0
   75.2606   43.5181   58.6156 C   0  0  0  0  0  0  0  0  0  0  0  0
   74.6291   42.5760   57.8220 C   0  0  0  0  0  0  0  0  0  0  0  0
   73.2865   42.6483   57.5111 C   0  0  0  0  0  0  0  0  0  0  0  0
   72.5060   43.6933   57.9977 C   0  0  0  0  0  0  0  0  0  0  0  0
 10 11  1  0
 11 12  2  0
 11 13  2  0
 11  4  1  0
  4  5  2  0
  4  9  1  0
  5  6  1  0
  6  7  2  0
  7  3  1  0
  7  8  1  0
  3  1  1  0
  1  2  2  0
  1 14  1  0
 14 15  1  0
 15 16  2  0
 16 17  1  0
 16 26  1  0
 17 18  2  0
 17 19  1  0
 19 20  1  0
 20 21  1  0
 20 26  2  0
 21 22  1  0
 21 23  2  0
 23 24  1  0
 24 25  2  0
 25 26  1  0
  8  9  2  0
M  END
>  <minimizedAffinity>  (606) 
-8.64291

$$$$
data/reference_output_2/data/smiles/130241.pdb
     RDKit          3D

 28 32  0  0  0  0  0  0  0  0999 V2000
   71.1339   44.2928   58.3751 O   0  0  0  0  0  0  0  0  0  0  0  0
   70.1840   43.8495   57.6577 C   0  0  0  0  0  0  0  0  0  0  0  0
   69.5906   44.6965   56.8036 N   0  0  0  0  0  0  0  0  0  0  0  0
   68.5817   44.2425   56.0368 C   0  0  0  0  0  0  0  0  0  0  0  0
   68.0031   45.0808   55.1988 C   0  0  0  0  0  0  0  0  0  0  0  0
   68.1974   42.9190   56.1608 C   0  0  0  0  0  0  0  0  0  0  0  0
   67.2391   42.5513   55.4084 O   0  0  0  0  0  0  0  0  0  0  0  0
   68.7900   42.0691   57.0145 N   0  0  0  0  0  0  0  0  0  0  0  0
   69.7905   42.5262   57.7731 C   0  0  0  0  0  0  0  0  0  0  0  0
   70.4200   41.7262   58.6442 C   0  0  0  0  0  0  0  0  0  0  0  0
   68.3995   46.4808   55.0595 C   0  0  0  0  0  0  0  0  0  0  0  0
   68.3980   47.4673   56.0297 C   0  0  0  0  0  0  0  0  0  0  0  0
   68.8378   48.6243   55.4957 N   0  0  0  0  0  0  0  0  0  0  0  0
   69.1368   48.4430   54.1845 C   0  0  0  0  0  0  0  0  0  0  0  0
   69.6156   49.3072   53.2123 C   0  0  0  0  0  0  0  0  0  0  0  0
   69.8305   48.8335   51.9360 C   0  0  0  0  0  0  0  0  0  0  0  0
   69.5547   47.5016   51.6778 C   0  0  0  0  0  0  0  0  0  0  0  0
   69.0780   46.6493   52.6534 C   0  0  0  0  0  0  0  0  0  0  0  0
   68.8656   47.1171   53.9151 C   0  0  0  0  0  0  0  0  0  0  0  0
   70.0390   40.3398   58.7940 C   0  0  0  0  0  0  0  0  0  0  0  0
   68.7800   39.8189   58.9684 C   0  0  0  0  0  0  0  0  0  0  0  0
   68.8672   38.4581   59.0670 N   0  0  0  0  0  0  0  0  0  0  0  0
   70.1410   38.0922   58.9609 C   0  0  0  0  0  0  0  0  0  0  0  0
   70.7441   36.8564   58.9948 C   0  0  0  0  0  0  0  0  0  0  0  0
   72.1132   36.7145   58.8615 C   0  0  0  0  0  0  0  0  0  0  0  0
   72.8728   37.8510   58.6909 C   0  0  0  0  0  0  0  0  0  0  0  0
   72.2542   39.0985   58.6580 C   0  0  0  0  0  0  0  0  0  0  0  0
   70.8913   39.2584   58.7890 C   0  0  0  0  0  0  0  0  0  0  0  0
  1  2  2  0
  2  3  1  0
  2  9  1  0
  3  4  1  0
  4  5  2  0
  4  6  1  0
  5 11  1  0
 11 12  2  0
 11 19  1  0
 12 13  1  0
 13 14  1  0
 14 15  1  0
 14 19  2  0
 15 16  2  0
 16 17  1  0
 17 18  2  0
 18 19  1  0
  6  7  2  0
  6  8  1  0
  8  9  1  0
  9 10  2  0
 10 20  1  0
 20 21  2  0
 20 28  1  0
 21 22  1  0
 22 23  1  0
 23 24  1  0
 23 28  2  0
 24 25  2  0
 25 26  1  0
 26 27  2  0
 27 28  1  0
M  END
>  <minimizedAffinity>  (607) 
-8.64275

$$$$
data/reference_output_2/data/smiles/139340.pdb
     RDKit          3D

 28 32  0  0  0  0  0  0  0  0999 V2000
   69.5136   47.7652   57.7472 C   0  0  0  0  0  0  0  0  0  0  0  0
   69.4042   47.7439   56.2812 N   0  0  0  0  0  0  0  0  0  0  0  0
   69.9908   48.6677   55.5700 N   0  0  0  0  0  0  0  0  0  0  0  0
   69.9216   48.6978   54.1952 C   0  0  0  0  0  0  0  0  0  0  0  0
   69.2175   47.7320   53.5178 C   0  0  0  0  0  0  0  0  0  0  0  0
   69.1024   47.6946   52.1458 C   0  0  0  0  0  0  0  0  0  0  0  0
   68.3661   46.6782   51.5078 C   0  0  0  0  0  0  0  0  0  0  0  0
   67.7446   45.6987   52.2545 C   0  0  0  0  0  0  0  0  0  0  0  0
   67.8733   45.7572   53.6257 C   0  0  0  0  0  0  0  0  0  0  0  0
   68.5853   46.7364   54.2750 C   0  0  0  0  0  0  0  0  0  0  0  0
   68.7165   46.7986   55.6406 C   0  0  0  0  0  0  0  0  0  0  0  0
   68.1556   45.9137   56.3344 O   0  0  0  0  0  0  0  0  0  0  0  0
   70.6001   49.7565   53.4842 C   0  0  0  0  0  0  0  0  0  0  0  0
   71.8825   49.6961   53.5002 O   0  0  0  0  0  0  0  0  0  0  0  0
   70.0892   50.8155   52.7947 O   0  0  0  0  0  0  0  0  0  0  0  0
   71.6620   47.3740   58.6067 O   0  0  0  0  0  0  0  0  0  0  0  0
   70.6058   46.8622   58.1567 C   0  0  0  0  0  0  0  0  0  0  0  0
   70.5588   45.4630   58.0826 N   0  0  0  0  0  0  0  0  0  0  0  0
   71.5792   44.5323   58.4640 C   0  0  1  0  0  0  0  0  0  0  0  0
   72.9533   44.9820   57.9696 C   0  0  0  0  0  0  0  0  0  0  0  0
   73.9576   43.9040   58.2206 C   0  0  2  0  0  0  0  0  0  0  0  0
   73.5696   42.6686   57.4345 C   0  0  0  0  0  0  0  0  0  0  0  0
   72.2861   42.1556   58.0083 C   0  0  1  0  0  0  0  0  0  0  0  0
   72.3544   41.9053   59.4979 C   0  0  0  0  0  0  0  0  0  0  0  0
   72.6920   43.1907   60.1714 C   0  0  1  0  0  0  0  0  0  0  0  0
   74.0596   43.6412   59.7006 C   0  0  0  0  0  0  0  0  0  0  0  0
   71.6836   44.2812   59.9292 C   0  0  0  0  0  0  0  0  0  0  0  0
   71.2189   43.2049   57.7850 C   0  0  0  0  0  0  0  0  0  0  0  0
 16 17  2  0
 17  1  1  0
 17 18  1  0
  1  2  1  0
  2  3  1  0
  2 11  1  0
  3  4  2  0
  4 13  1  0
  4  5  1  0
 13 14  2  0
 13 15  1  0
  5  6  2  0
  5 10  1  0
  6  7  1  0
  7  8  2  0
  8  9  1  0
  9 10  2  0
 10 11  1  0
 11 12  2  0
 19 18  1  1
 19 20  1  0
 19 27  1  0
 19 28  1  0
 21 20  1  1
 21 22  1  0
 21 26  1  0
 23 22  1  1
 23 24  1  0
 23 28  1  0
 25 24  1  6
 25 26  1  0
 25 27  1  0
M  END
>  <minimizedAffinity>  (608) 
-8.64198

$$$$
data/200k_reference_output/data/smiles/53905.pdb
     RDKit          3D

 25 27  0  0  0  0  0  0  0  0999 V2000
   69.4370   44.1952   57.2039 N   0  0  0  0  0  0  0  0  0  0  0  0
   69.4623   42.8154   57.3534 C   0  0  0  0  0  0  0  0  0  0  0  0
   68.7447   42.0947   56.6473 O   0  0  0  0  0  0  0  0  0  0  0  0
   70.2925   42.1388   58.3034 N   0  0  0  0  0  0  0  0  0  0  0  0
   70.3109   40.7317   58.4474 C   0  0  0  0  0  0  0  0  0  0  0  0
   69.2013   39.9628   58.7130 C   0  0  0  0  0  0  0  0  0  0  0  0
   69.3233   38.5936   58.8366 C   0  0  0  0  0  0  0  0  0  0  0  0
   70.5556   37.9492   58.6982 C   0  0  0  0  0  0  0  0  0  0  0  0
   71.6699   38.7164   58.4334 C   0  0  0  0  0  0  0  0  0  0  0  0
   71.5212   40.0844   58.3142 C   0  0  0  0  0  0  0  0  0  0  0  0
   72.7358   37.8453   58.3473 O   0  0  0  0  0  0  0  0  0  0  0  0
   72.3757   36.5436   58.7581 C   0  0  0  0  0  0  0  0  0  0  0  0
   70.9581   36.6184   58.7718 O   0  0  0  0  0  0  0  0  0  0  0  0
   69.7616   47.0506   56.7599 O   0  0  0  0  0  0  0  0  0  0  0  0
   68.8993   46.3954   56.1700 C   0  0  0  0  0  0  0  0  0  0  0  0
   68.7212   45.0136   56.3658 N   0  0  0  0  0  0  0  0  0  0  0  0
   68.0018   47.1252   55.1934 C   0  0  0  0  0  0  0  0  0  0  0  0
   68.7599   47.4962   53.9784 C   0  0  0  0  0  0  0  0  0  0  0  0
   69.5431   48.6112   53.9516 C   0  0  0  0  0  0  0  0  0  0  0  0
   69.6689   49.4374   55.0311 F   0  0  0  0  0  0  0  0  0  0  0  0
   70.2415   48.9302   52.7955 C   0  0  0  0  0  0  0  0  0  0  0  0
   70.1484   48.1226   51.6680 C   0  0  0  0  0  0  0  0  0  0  0  0
   69.3592   46.9980   51.6934 C   0  0  0  0  0  0  0  0  0  0  0  0
   68.6611   46.6900   52.8659 C   0  0  0  0  0  0  0  0  0  0  0  0
   67.6503   45.2708   52.9314 Cl  0  0  0  0  0  0  0  0  0  0  0  0
 14 15  2  0
 15 17  1  0
 15 16  1  0
 17 18  1  0
 18 19  2  0
 18 24  1  0
 19 20  1  0
 19 21  1  0
 21 22  2  0
 22 23  1  0
 23 24  2  0
 24 25  1  0
 16  1  1  0
  1  2  1  0
  2  3  2  0
  2  4  1  0
  4  5  1  0
  5  6  2  0
  5 10  1  0
  6  7  1  0
  7  8  2  0
  8  9  1  0
  8 13  1  0
  9 10  2  0
  9 11  1  0
 11 12  1  0
 12 13  1  0
M  END
>  <minimizedAffinity>  (609) 
-8.64066

$$$$
data/reference_output_2/data/smiles/185323.pdb
     RDKit          3D

 28 31  0  0  0  0  0  0  0  0999 V2000
   69.7177   47.4762   57.1153 C   0  0  0  0  0  0  0  0  0  0  0  0
   69.7560   46.0998   57.0033 C   0  0  0  0  0  0  0  0  0  0  0  0
   70.6241   45.3437   57.7803 C   0  0  0  0  0  0  0  0  0  0  0  0
   71.4652   45.9650   58.6802 C   0  0  0  0  0  0  0  0  0  0  0  0
   72.3312   45.2295   59.4568 F   0  0  0  0  0  0  0  0  0  0  0  0
   71.4088   47.3340   58.7739 C   0  0  0  0  0  0  0  0  0  0  0  0
   70.5532   48.0977   58.0102 C   0  0  0  0  0  0  0  0  0  0  0  0
   72.2964   47.9922   59.7233 C   0  0  0  0  0  0  0  0  0  0  0  0
   72.0442   47.8879   60.9478 O   0  0  0  0  0  0  0  0  0  0  0  0
   73.4269   48.7418   59.3250 N   0  0  0  0  0  0  0  0  0  0  0  0
   74.2182   49.3405   60.3771 C   0  0  0  0  0  0  0  0  0  0  0  0
   75.2677   48.3043   60.7795 C   0  0  0  0  0  0  0  0  0  0  0  0
   76.2826   48.2622   59.6392 C   0  0  0  0  0  0  0  0  0  0  0  0
   75.6987   47.5506   58.5223 N   0  0  0  0  0  0  0  0  0  0  0  0
   75.1000   48.4195   57.5552 C   0  0  0  0  0  0  0  0  0  0  0  0
   73.7153   48.8605   57.9079 C   0  0  0  0  0  0  0  0  0  0  0  0
   68.7784   48.2879   56.2773 C   0  0  0  0  0  0  0  0  0  0  0  0
   67.1693   44.8290   52.1623 C   0  0  0  0  0  0  0  0  0  0  0  0
   67.9780   46.0179   52.5971 C   0  0  0  0  0  0  0  0  0  0  0  0
   68.7895   46.7900   51.7948 C   0  0  0  0  0  0  0  0  0  0  0  0
   69.3176   47.7519   52.6265 C   0  0  0  0  0  0  0  0  0  0  0  0
   70.1992   48.7777   52.3155 C   0  0  0  0  0  0  0  0  0  0  0  0
   70.6241   48.9247   51.1360 O   0  0  0  0  0  0  0  0  0  0  0  0
   70.5902   49.6095   53.2944 N   0  0  0  0  0  0  0  0  0  0  0  0
   70.1288   49.4410   54.5506 C   0  0  0  0  0  0  0  0  0  0  0  0
   69.2487   48.4233   54.8769 C   0  0  0  0  0  0  0  0  0  0  0  0
   68.8697   47.6009   53.8838 N   0  0  0  0  0  0  0  0  0  0  0  0
   68.0519   46.5433   53.8696 C   0  0  0  0  0  0  0  0  0  0  0  0
 18 19  1  0
 19 20  1  0
 19 28  2  0
 20 21  2  0
 21 22  1  0
 21 27  1  0
 22 23  2  0
 22 24  1  0
 24 25  1  0
 25 26  2  0
 26 17  1  0
 26 27  1  0
 17  1  1  0
  1  2  2  0
  1  7  1  0
  2  3  1  0
  3  4  2  0
  4  5  1  0
  4  6  1  0
  6  8  1  0
  6  7  2  0
  8  9  2  0
  8 10  1  0
 10 11  1  0
 10 16  1  0
 11 12  1  0
 12 13  1  0
 13 14  1  0
 14 15  1  0
 15 16  1  0
 27 28  1  0
M  CHG  1  14   1
M  END
>  <minimizedAffinity>  (610) 
-8.64001

$$$$
data/reference_output_2/data/smiles/145416.pdb
     RDKit          3D

 28 32  0  0  0  0  0  0  0  0999 V2000
   71.1918   48.8559   58.0174 C   0  0  0  0  0  0  0  0  0  0  0  0
   71.7224   48.7723   59.3152 C   0  0  0  0  0  0  0  0  0  0  0  0
   71.8013   47.5819   60.0081 C   0  0  0  0  0  0  0  0  0  0  0  0
   71.3595   46.4231   59.4483 C   0  0  0  0  0  0  0  0  0  0  0  0
   70.8336   46.4436   58.1902 C   0  0  0  0  0  0  0  0  0  0  0  0
   70.7601   47.6646   57.5021 C   0  0  0  0  0  0  0  0  0  0  0  0
   72.6133   49.8543   55.4179 O   0  0  0  0  0  0  0  0  0  0  0  0
   71.6271   50.3475   56.0061 C   0  0  0  0  0  0  0  0  0  0  0  0
   70.6769   51.3340   55.4541 C   0  0  1  0  0  0  0  0  0  0  0  0
   69.2920   50.8403   55.2149 C   0  0  1  0  0  0  0  0  0  0  0  0
   68.6555   50.3709   56.4971 C   0  0  0  0  0  0  0  0  0  0  0  0
   68.2492   51.4083   57.2237 C   0  0  0  0  0  0  0  0  0  0  0  0
   68.9405   52.5794   56.5877 C   0  0  2  0  0  0  0  0  0  0  0  0
   68.6012   52.2266   55.1252 C   0  0  0  0  0  0  0  0  0  0  0  0
   70.3980   52.2855   56.6442 C   0  0  1  0  0  0  0  0  0  0  0  0
   70.6488   51.3568   57.8079 C   0  0  0  0  0  0  0  0  0  0  0  0
   70.4270   51.6945   58.9821 O   0  0  0  0  0  0  0  0  0  0  0  0
   71.1513   50.1081   57.3456 N   0  0  0  0  0  0  0  0  0  0  0  0
   70.2095   47.5739   56.2425 O   0  0  0  0  0  0  0  0  0  0  0  0
   68.8239   46.6298   55.9278 S   0  0  0  0  0  0  0  0  0  0  0  0
   68.9955   45.2093   56.3800 O   0  0  0  0  0  0  0  0  0  0  0  0
   67.6390   47.2229   56.6052 O   0  0  0  0  0  0  0  0  0  0  0  0
   68.5309   46.5608   54.1895 C   0  0  0  0  0  0  0  0  0  0  0  0
   69.1180   47.4867   53.3563 C   0  0  0  0  0  0  0  0  0  0  0  0
   68.8721   47.4109   51.9958 C   0  0  0  0  0  0  0  0  0  0  0  0
   68.0582   46.4319   51.4869 C   0  0  0  0  0  0  0  0  0  0  0  0
   67.4707   45.5081   52.3113 C   0  0  0  0  0  0  0  0  0  0  0  0
   67.7213   45.5911   53.6604 C   0  0  0  0  0  0  0  0  0  0  0  0
  7  8  2  0
  9  8  1  1
  8 18  1  0
  9 10  1  0
  9 15  1  0
 10 11  1  1
 10 14  1  0
 11 12  2  0
 13 12  1  1
 13 14  1  0
 13 15  1  0
 15 16  1  1
 16 17  2  0
 16 18  1  0
 18  1  1  0
  1  2  2  0
  1  6  1  0
  2  3  1  0
  3  4  2  0
  4  5  1  0
  5  6  2  0
  6 19  1  0
 19 20  1  0
 20 21  2  0
 20 22  2  0
 20 23  1  0
 23 24  2  0
 23 28  1  0
 24 25  1  0
 25 26  2  0
 26 27  1  0
 27 28  2  0
M  END
>  <minimizedAffinity>  (611) 
-8.63969

$$$$
data/200k_reference_output/data/smiles/27640.pdb
     RDKit          3D

 27 30  0  0  0  0  0  0  0  0999 V2000
   70.8608   49.1107   58.2952 C   0  0  2  0  0  0  0  0  0  0  0  0
   70.0840   48.0944   57.6209 N   0  0  0  0  0  0  0  0  0  0  0  0
   69.9000   48.0910   56.2208 C   0  0  0  0  0  0  0  0  0  0  0  0
   70.4336   49.0087   55.5484 O   0  0  0  0  0  0  0  0  0  0  0  0
   69.1364   47.0794   55.6139 N   0  0  0  0  0  0  0  0  0  0  0  0
   68.5510   46.0917   56.2504 N   0  0  0  0  0  0  0  0  0  0  0  0
   67.9271   45.3341   55.3987 N   0  0  0  0  0  0  0  0  0  0  0  0
   68.1031   45.8330   54.1614 C   0  0  0  0  0  0  0  0  0  0  0  0
   67.6607   45.4152   52.9324 C   0  0  0  0  0  0  0  0  0  0  0  0
   68.0296   46.1729   51.8255 C   0  0  0  0  0  0  0  0  0  0  0  0
   68.8081   47.2987   51.9584 C   0  0  0  0  0  0  0  0  0  0  0  0
   69.2468   47.7077   53.1950 C   0  0  0  0  0  0  0  0  0  0  0  0
   68.8926   46.9713   54.3061 C   0  0  0  0  0  0  0  0  0  0  0  0
   71.1411   47.7261   60.1050 O   0  0  0  0  0  0  0  0  0  0  0  0
   71.7129   48.6138   59.3727 C   0  0  0  0  0  0  0  0  0  0  0  0
   73.0310   49.0001   59.6624 N   0  0  0  0  0  0  0  0  0  0  0  0
   73.8977   49.9582   59.0143 C   0  0  0  0  0  0  0  0  0  0  0  0
   75.0177   50.2680   59.9669 C   0  0  0  0  0  0  0  0  0  0  0  0
   74.6467   49.6379   61.2671 C   0  0  0  0  0  0  0  0  0  0  0  0
   73.8168   48.4419   60.7772 C   0  0  0  0  0  0  0  0  0  0  0  0
   69.8975   50.2055   58.6605 C   0  0  0  0  0  0  0  0  0  0  0  0
   70.0404   51.4412   57.8663 C   0  0  0  0  0  0  0  0  0  0  0  0
   71.2505   52.0703   57.7160 C   0  0  0  0  0  0  0  0  0  0  0  0
   71.3467   53.2128   56.9672 C   0  0  0  0  0  0  0  0  0  0  0  0
   70.2423   53.7609   56.3480 C   0  0  0  0  0  0  0  0  0  0  0  0
   69.0395   53.0992   56.5217 C   0  0  0  0  0  0  0  0  0  0  0  0
   68.9250   51.9492   57.2711 C   0  0  0  0  0  0  0  0  0  0  0  0
 14 15  2  0
 15  1  1  0
 15 16  1  0
  1 21  1  1
  1  2  1  0
 21 22  1  0
 22 23  2  0
 22 27  1  0
 23 24  1  0
 24 25  2  0
 25 26  1  0
 26 27  2  0
  2  3  1  0
  3  4  2  0
  3  5  1  0
  5  6  1  0
  5 13  1  0
  6  7  2  0
  7  8  1  0
  8  9  1  0
  8 13  2  0
  9 10  2  0
 10 11  1  0
 11 12  2  0
 12 13  1  0
 16 17  1  0
 16 20  1  0
 17 18  1  0
 18 19  1  0
 19 20  1  0
M  END
>  <minimizedAffinity>  (612) 
-8.63923

$$$$
data/200k_reference_output/data/smiles/51887.pdb
     RDKit          3D

 27 30  0  0  0  0  0  0  0  0999 V2000
   68.9599   44.6275   56.3366 C   0  0  0  0  0  0  0  0  0  0  0  0
   69.8933   44.0712   57.1717 C   0  0  0  0  0  0  0  0  0  0  0  0
   69.5157   42.7561   57.3516 C   0  0  0  0  0  0  0  0  0  0  0  0
   68.3995   42.5374   56.6514 N   0  0  0  0  0  0  0  0  0  0  0  0
   68.0696   43.6862   56.0362 N   0  0  0  0  0  0  0  0  0  0  0  0
   67.7084   41.2672   56.5987 C   0  0  0  0  0  0  0  0  0  0  0  0
   68.3270   40.2028   57.3869 C   0  0  0  0  0  0  0  0  0  0  0  0
   67.7578   39.0530   57.3798 O   0  0  0  0  0  0  0  0  0  0  0  0
   69.5057   40.3643   58.1505 N   0  0  0  0  0  0  0  0  0  0  0  0
   70.0965   41.6516   58.1269 C   0  0  0  0  0  0  0  0  0  0  0  0
   71.1348   41.8662   58.7759 O   0  0  0  0  0  0  0  0  0  0  0  0
   68.8635   48.6635   54.8871 C   0  0  0  0  0  0  0  0  0  0  0  0
   68.5180   47.6084   54.0729 C   0  0  0  0  0  0  0  0  0  0  0  0
   68.5520   46.2933   54.5533 C   0  0  0  0  0  0  0  0  0  0  0  0
   68.9298   46.0229   55.8474 C   0  0  0  0  0  0  0  0  0  0  0  0
   69.2735   47.0815   56.6561 C   0  0  0  0  0  0  0  0  0  0  0  0
   69.2400   48.3838   56.1824 C   0  0  0  0  0  0  0  0  0  0  0  0
   69.6469   50.3340   53.3140 C   0  0  0  0  0  0  0  0  0  0  0  0
   68.8257   49.9702   54.3989 O   0  0  0  0  0  0  0  0  0  0  0  0
   70.0669   39.2647   58.9092 C   0  0  0  0  0  0  0  0  0  0  0  0
   71.3640   38.7714   58.3282 C   0  0  0  0  0  0  0  0  0  0  0  0
   71.5525   37.3133   58.4673 C   0  0  0  0  0  0  0  0  0  0  0  0
   70.9627   36.5845   59.4687 C   0  0  0  0  0  0  0  0  0  0  0  0
   71.1450   35.2261   59.5898 C   0  0  0  0  0  0  0  0  0  0  0  0
   71.9412   34.5799   58.6820 C   0  0  0  0  0  0  0  0  0  0  0  0
   72.5358   35.3042   57.6743 C   0  0  0  0  0  0  0  0  0  0  0  0
   72.3516   36.6623   57.5563 C   0  0  0  0  0  0  0  0  0  0  0  0
 18 19  1  0
 19 12  1  0
 12 13  2  0
 12 17  1  0
 13 14  1  0
 14 15  2  0
 15  1  1  0
 15 16  1  0
  1  2  1  0
  1  5  2  0
  2  3  2  0
  3  4  1  0
  3 10  1  0
  4  5  1  0
  4  6  1  0
  6  7  1  0
  7  8  2  0
  7  9  1  0
  9 20  1  0
  9 10  1  0
 20 21  1  0
 21 22  1  0
 22 23  2  0
 22 27  1  0
 23 24  1  0
 24 25  2  0
 25 26  1  0
 26 27  2  0
 10 11  2  0
 16 17  2  0
M  END
>  <minimizedAffinity>  (613) 
-8.63745

$$$$
data/200k_reference_output/data/smiles/41706.pdb
     RDKit          3D

 26 29  0  0  0  0  0  0  0  0999 V2000
   70.5442   46.2247   58.5040 C   0  0  0  0  0  0  0  0  0  0  0  0
   69.9071   47.0893   57.6522 C   0  0  0  0  0  0  0  0  0  0  0  0
   70.4381   48.2869   57.1921 C   0  0  0  0  0  0  0  0  0  0  0  0
   71.6956   48.6080   57.6364 C   0  0  0  0  0  0  0  0  0  0  0  0
   72.3695   47.7630   58.4949 C   0  0  0  0  0  0  0  0  0  0  0  0
   71.8092   46.5731   58.9349 C   0  0  0  0  0  0  0  0  0  0  0  0
   72.4800   45.7494   59.7796 F   0  0  0  0  0  0  0  0  0  0  0  0
   71.1192   43.8303   57.3684 O   0  0  0  0  0  0  0  0  0  0  0  0
   70.2754   43.7707   58.3135 C   0  0  0  0  0  0  0  0  0  0  0  0
   69.9401   45.0018   58.9410 N   0  0  0  0  0  0  0  0  0  0  0  0
   69.6733   42.4684   58.7321 C   0  0  0  0  0  0  0  0  0  0  0  0
   68.8763   42.5260   60.0007 C   0  0  0  0  0  0  0  0  0  0  0  0
   67.7321   42.0143   59.2321 N   0  0  0  0  0  0  0  0  0  0  0  0
   68.4478   42.0596   57.9486 C   0  0  0  0  0  0  0  0  0  0  0  0
   69.6261   49.1492   56.2650 C   0  0  0  0  0  0  0  0  0  0  0  0
   69.8456   48.8086   54.8391 C   0  0  0  0  0  0  0  0  0  0  0  0
   70.8633   49.3850   54.1310 N   0  0  0  0  0  0  0  0  0  0  0  0
   71.0972   49.1585   52.8658 N   0  0  0  0  0  0  0  0  0  0  0  0
   70.3453   48.3192   52.1190 C   0  0  0  0  0  0  0  0  0  0  0  0
   70.5705   48.1028   50.9091 O   0  0  0  0  0  0  0  0  0  0  0  0
   69.2963   47.6990   52.7705 C   0  0  0  0  0  0  0  0  0  0  0  0
   69.0582   47.9444   54.1046 C   0  0  0  0  0  0  0  0  0  0  0  0
   67.9458   47.2312   54.7585 C   0  0  0  0  0  0  0  0  0  0  0  0
   67.9586   45.7776   54.3054 C   0  0  0  0  0  0  0  0  0  0  0  0
   68.0120   45.5859   52.8378 C   0  0  0  0  0  0  0  0  0  0  0  0
   68.4085   46.7741   52.0349 C   0  0  0  0  0  0  0  0  0  0  0  0
  8  9  2  0
  9 10  1  0
  9 11  1  0
 10  1  1  0
  1  2  2  0
  1  6  1  0
  2  3  1  0
  3 15  1  0
  3  4  2  0
 15 16  1  0
 16 17  2  0
 16 22  1  0
 17 18  1  0
 18 19  1  0
 19 20  2  0
 19 21  1  0
 21 22  2  0
 21 26  1  0
 22 23  1  0
 23 24  1  0
 24 25  1  0
 25 26  1  0
  4  5  1  0
  5  6  2  0
  6  7  1  0
 11 12  1  0
 11 14  1  0
 12 13  1  0
 13 14  1  0
M  CHG  1  13   1
M  END
>  <minimizedAffinity>  (614) 
-8.63744

$$$$
data/200k_reference_output/data/smiles/28549.pdb
     RDKit          3D

 25 27  0  0  0  0  0  0  0  0999 V2000
   68.5023   46.2940   54.0577 C   0  0  0  0  0  0  0  0  0  0  0  0
   67.9871   45.8155   52.8782 C   0  0  0  0  0  0  0  0  0  0  0  0
   68.2120   46.4455   51.6709 C   0  0  0  0  0  0  0  0  0  0  0  0
   68.9882   47.5918   51.7118 C   0  0  0  0  0  0  0  0  0  0  0  0
   69.5059   48.0755   52.8900 C   0  0  0  0  0  0  0  0  0  0  0  0
   69.2444   47.4102   54.0200 N   0  0  0  0  0  0  0  0  0  0  0  0
   68.2901   46.1868   56.4031 O   0  0  0  0  0  0  0  0  0  0  0  0
   68.2266   45.5807   55.3006 C   0  0  0  0  0  0  0  0  0  0  0  0
   67.8907   44.2019   55.2108 N   0  0  0  0  0  0  0  0  0  0  0  0
   67.6162   43.4546   56.3240 N   0  0  0  0  0  0  0  0  0  0  0  0
   68.5907   42.5106   56.7476 C   0  0  2  0  0  0  0  0  0  0  0  0
   68.1110   41.2763   57.3947 C   0  0  0  0  0  0  0  0  0  0  0  0
   68.0776   41.3998   58.8874 C   0  0  0  0  0  0  0  0  0  0  0  0
   69.4285   42.5048   59.1901 S   0  0  0  0  0  0  0  0  0  0  0  0
   70.6322   41.7787   59.7202 O   0  0  0  0  0  0  0  0  0  0  0  0
   69.0682   43.5947   60.1446 O   0  0  0  0  0  0  0  0  0  0  0  0
   69.7135   43.1170   57.5522 C   0  0  0  0  0  0  0  0  0  0  0  0
   70.3290   49.3056   52.8748 C   0  0  0  0  0  0  0  0  0  0  0  0
   69.9464   50.2648   53.9360 C   0  0  0  0  0  0  0  0  0  0  0  0
   70.6934   50.4258   55.0979 C   0  0  0  0  0  0  0  0  0  0  0  0
   70.3276   51.3219   56.0796 C   0  0  0  0  0  0  0  0  0  0  0  0
   69.1887   52.0949   55.9293 C   0  0  0  0  0  0  0  0  0  0  0  0
   68.7823   52.9866   56.8538 F   0  0  0  0  0  0  0  0  0  0  0  0
   68.4354   51.9544   54.7910 C   0  0  0  0  0  0  0  0  0  0  0  0
   68.8124   51.0625   53.8298 C   0  0  0  0  0  0  0  0  0  0  0  0
  7  8  2  0
  8  9  1  0
  8  1  1  0
  9 10  1  0
 11 10  1  1
 11 12  1  0
 11 17  1  0
 12 13  1  0
 13 14  1  0
 14 15  2  0
 14 16  2  0
 14 17  1  0
  1  2  2  0
  1  6  1  0
  2  3  1  0
  3  4  2  0
  4  5  1  0
  5 18  1  0
  5  6  2  0
 18 19  1  0
 19 20  2  0
 19 25  1  0
 20 21  1  0
 21 22  2  0
 22 23  1  0
 22 24  1  0
 24 25  2  0
M  END
>  <minimizedAffinity>  (615) 
-8.63655

$$$$
data/200k_reference_output/data/smiles/68582.pdb
     RDKit          3D

 26 27  0  0  0  0  0  0  0  0999 V2000
   74.9532   49.9023   54.8217 N   0  0  0  0  0  0  0  0  0  0  0  0
   74.0137   50.8958   55.2009 C   0  0  0  0  0  0  0  0  0  0  0  0
   74.5510   51.9709   55.6513 O   0  0  0  0  0  0  0  0  0  0  0  0
   76.9826   49.5414   56.0920 C   0  0  0  0  0  0  0  0  0  0  0  0
   76.2096   48.8521   56.8504 O   0  0  0  0  0  0  0  0  0  0  0  0
   76.3358   50.1319   54.9631 N   0  0  0  0  0  0  0  0  0  0  0  0
   82.0073   49.0680   55.7811 C   0  0  0  0  0  0  0  0  0  0  0  0
   80.6147   49.3824   56.1796 C   0  0  0  0  0  0  0  0  0  0  0  0
   79.4040   49.1341   55.6118 C   0  0  0  0  0  0  0  0  0  0  0  0
   78.3807   49.6624   56.4247 C   0  0  0  0  0  0  0  0  0  0  0  0
   79.0774   50.2171   57.4675 C   0  0  0  0  0  0  0  0  0  0  0  0
   78.3923   50.9063   58.5930 C   0  0  0  0  0  0  0  0  0  0  0  0
   80.3796   50.0470   57.3143 O   0  0  0  0  0  0  0  0  0  0  0  0
   72.5452   50.7782   55.1206 C   0  0  2  0  0  0  0  0  0  0  0  0
   72.1199   50.0945   56.4368 C   0  0  0  0  0  0  0  0  0  0  0  0
   72.0044   50.1230   54.0026 N   0  0  0  0  0  0  0  0  0  0  0  0
   70.3165   50.3430   53.7667 S   0  0  0  0  0  0  0  0  0  0  0  0
   69.6487   51.0667   54.8636 O   0  0  0  0  0  0  0  0  0  0  0  0
   70.1439   51.1419   52.5049 O   0  0  0  0  0  0  0  0  0  0  0  0
   69.5839   48.7602   53.4408 C   0  0  0  0  0  0  0  0  0  0  0  0
   68.8092   48.1268   54.3714 C   0  0  0  0  0  0  0  0  0  0  0  0
   68.2669   46.9027   54.0686 C   0  0  0  0  0  0  0  0  0  0  0  0
   68.5001   46.3130   52.8349 C   0  0  0  0  0  0  0  0  0  0  0  0
   69.2751   46.9379   51.8916 C   0  0  0  0  0  0  0  0  0  0  0  0
   69.8172   48.1929   52.2352 C   0  0  0  0  0  0  0  0  0  0  0  0
   70.5862   48.7881   51.2832 F   0  0  0  0  0  0  0  0  0  0  0  0
  7  8  1  0
  8  9  2  0
  8 13  1  0
  9 10  1  0
 10  4  1  0
 10 11  2  0
  4  5  2  0
  4  6  1  0
  6  1  1  0
  1  2  1  0
  2  3  2  0
  2 14  1  0
 14 15  1  1
 14 16  1  0
 16 17  1  0
 17 18  2  0
 17 19  2  0
 17 20  1  0
 20 21  2  0
 20 25  1  0
 21 22  1  0
 22 23  2  0
 23 24  1  0
 24 25  2  0
 25 26  1  0
 11 12  1  0
 11 13  1  0
M  END
>  <minimizedAffinity>  (616) 
-8.63619

$$$$
data/reference_output_2/data/smiles/175493.pdb
     RDKit          3D

 24 25  0  0  0  0  0  0  0  0999 V2000
   70.0668   49.2684   52.5918 S   0  0  0  0  0  0  0  0  0  0  0  0
   69.8943   49.3347   51.1098 O   0  0  0  0  0  0  0  0  0  0  0  0
   71.5457   49.0658   52.8408 O   0  0  0  0  0  0  0  0  0  0  0  0
   69.2355   47.8869   53.2176 C   0  0  0  0  0  0  0  0  0  0  0  0
   69.2260   47.6477   54.5754 C   0  0  0  0  0  0  0  0  0  0  0  0
   69.8813   48.5206   55.3721 F   0  0  0  0  0  0  0  0  0  0  0  0
   68.5696   46.5505   55.1163 C   0  0  0  0  0  0  0  0  0  0  0  0
   68.5872   46.3562   56.4550 F   0  0  0  0  0  0  0  0  0  0  0  0
   67.9120   45.6849   54.2531 C   0  0  0  0  0  0  0  0  0  0  0  0
   67.9258   45.9296   52.8943 C   0  0  0  0  0  0  0  0  0  0  0  0
   67.2809   45.0806   52.0511 F   0  0  0  0  0  0  0  0  0  0  0  0
   68.5866   47.0347   52.3486 C   0  0  0  0  0  0  0  0  0  0  0  0
   68.5848   47.2538   51.0117 F   0  0  0  0  0  0  0  0  0  0  0  0
   69.6157   50.7391   53.3586 N   0  0  0  0  0  0  0  0  0  0  0  0
   72.0501   52.7036   56.2562 C   0  0  0  0  0  0  0  0  0  0  0  0
   72.5402   51.6718   55.4810 C   0  0  0  0  0  0  0  0  0  0  0  0
   71.7412   51.0451   54.5472 C   0  0  0  0  0  0  0  0  0  0  0  0
   70.4191   51.4015   54.3277 C   0  0  0  0  0  0  0  0  0  0  0  0
   69.9388   52.4334   55.1084 C   0  0  0  0  0  0  0  0  0  0  0  0
   70.7326   53.0652   56.0443 C   0  0  0  0  0  0  0  0  0  0  0  0
   73.8601   52.3021   58.3915 N   0  0  0  0  0  0  0  0  0  0  0  0
   73.0552   53.5047   57.4427 S   0  0  0  0  0  0  0  0  0  0  0  0
   72.2632   54.4050   58.3379 O   0  0  0  0  0  0  0  0  0  0  0  0
   74.1501   54.3099   56.7604 O   0  0  0  0  0  0  0  0  0  0  0  0
 21 22  1  0
 22 23  2  0
 22 24  2  0
 22 15  1  0
 15 16  2  0
 15 20  1  0
 16 17  1  0
 17 18  2  0
 18 14  1  0
 18 19  1  0
 14  1  1  0
  1  2  2  0
  1  3  2  0
  1  4  1  0
  4  5  2  0
  4 12  1  0
  5  6  1  0
  5  7  1  0
  7  8  1  0
  7  9  2  0
  9 10  1  0
 10 11  1  0
 10 12  2  0
 12 13  1  0
 19 20  2  0
M  END
>  <minimizedAffinity>  (617) 
-8.63573

$$$$
data/reference_output_2/data/smiles/183851.pdb
     RDKit          3D

 27 29  0  0  0  0  0  0  0  0999 V2000
   70.6926   49.3372   57.7053 C   0  0  0  0  0  0  0  0  0  0  0  0
   70.1201   50.3540   58.1993 O   0  0  0  0  0  0  0  0  0  0  0  0
   70.8016   49.3272   56.2916 N   0  0  0  0  0  0  0  0  0  0  0  0
   73.4305   47.8698   61.5249 C   0  0  0  0  0  0  0  0  0  0  0  0
   72.5316   47.5141   60.4126 C   0  0  0  0  0  0  0  0  0  0  0  0
   72.0541   48.5336   59.6177 C   0  0  0  0  0  0  0  0  0  0  0  0
   71.1974   48.2636   58.5449 C   0  0  0  0  0  0  0  0  0  0  0  0
   70.8606   46.9700   58.3229 C   0  0  0  0  0  0  0  0  0  0  0  0
   71.3117   45.8915   59.0927 C   0  0  0  0  0  0  0  0  0  0  0  0
   72.1549   46.2098   60.1402 C   0  0  0  0  0  0  0  0  0  0  0  0
   70.9228   44.5632   58.8085 N   0  0  0  0  0  0  0  0  0  0  0  0
   69.7339   44.0669   59.1111 N   0  0  0  0  0  0  0  0  0  0  0  0
   69.6370   42.7834   58.7258 C   0  0  0  0  0  0  0  0  0  0  0  0
   70.8366   42.4432   58.1438 C   0  0  0  0  0  0  0  0  0  0  0  0
   71.6239   43.5935   58.2143 C   0  0  0  0  0  0  0  0  0  0  0  0
   73.0043   43.7690   57.7311 C   0  0  0  0  0  0  0  0  0  0  0  0
   70.3129   50.3667   55.4878 N   0  0  0  0  0  0  0  0  0  0  0  0
   70.5054   49.9585   53.8425 S   0  0  0  0  0  0  0  0  0  0  0  0
   70.0789   51.1458   53.0177 O   0  0  0  0  0  0  0  0  0  0  0  0
   71.9861   49.7767   53.5782 O   0  0  0  0  0  0  0  0  0  0  0  0
   69.6310   48.5139   53.4060 C   0  0  0  0  0  0  0  0  0  0  0  0
   68.8150   47.8779   54.3171 C   0  0  0  0  0  0  0  0  0  0  0  0
   68.1068   46.7197   53.9857 C   0  0  0  0  0  0  0  0  0  0  0  0
   68.2378   46.2130   52.7107 C   0  0  0  0  0  0  0  0  0  0  0  0
   69.0476   46.8299   51.7798 C   0  0  0  0  0  0  0  0  0  0  0  0
   69.7341   47.9769   52.1447 C   0  0  0  0  0  0  0  0  0  0  0  0
   70.5210   48.5605   51.2145 F   0  0  0  0  0  0  0  0  0  0  0  0
  4  5  1  0
  5  6  2  0
  5 10  1  0
  6  7  1  0
  7  1  1  0
  7  8  2  0
  1  2  2  0
  1  3  1  0
  3 17  1  0
 17 18  1  0
 18 19  2  0
 18 20  2  0
 18 21  1  0
 21 22  2  0
 21 26  1  0
 22 23  1  0
 23 24  2  0
 24 25  1  0
 25 26  2  0
 26 27  1  0
  8  9  1  0
  9 11  1  0
  9 10  2  0
 11 12  1  0
 11 15  1  0
 12 13  2  0
 13 14  1  0
 14 15  2  0
 15 16  1  0
M  END
>  <minimizedAffinity>  (618) 
-8.63556

$$$$
data/reference_output_2/data/smiles/176943.pdb
     RDKit          3D

 25 27  0  0  0  0  0  0  0  0999 V2000
   70.8244   39.9638   59.0034 C   0  0  0  0  0  0  0  0  0  0  0  0
   69.9872   38.8783   58.7307 C   0  0  0  0  0  0  0  0  0  0  0  0
   68.8502   39.0292   57.9634 C   0  0  0  0  0  0  0  0  0  0  0  0
   68.4948   40.2587   57.4356 C   0  0  0  0  0  0  0  0  0  0  0  0
   69.2946   41.3482   57.6860 C   0  0  0  0  0  0  0  0  0  0  0  0
   70.4260   41.1793   58.4518 C   0  0  0  0  0  0  0  0  0  0  0  0
   71.4368   42.5610   58.7684 Cl  0  0  0  0  0  0  0  0  0  0  0  0
   68.7008   42.5121   56.9983 C   0  0  0  0  0  0  0  0  0  0  0  0
   69.1098   43.7158   56.9861 N   0  0  0  0  0  0  0  0  0  0  0  0
   67.4909   42.0549   56.3114 C   0  0  0  0  0  0  0  0  0  0  0  0
   66.6962   42.7145   55.6107 O   0  0  0  0  0  0  0  0  0  0  0  0
   67.3937   40.6599   56.6040 N   0  0  0  0  0  0  0  0  0  0  0  0
   68.5382   44.8005   56.3317 N   0  0  0  0  0  0  0  0  0  0  0  0
   68.9678   46.1300   56.3383 C   0  0  0  0  0  0  0  0  0  0  0  0
   69.9826   46.4144   57.0380 O   0  0  0  0  0  0  0  0  0  0  0  0
   68.2381   47.1239   55.5530 C   0  0  0  0  0  0  0  0  0  0  0  0
   68.8636   47.4350   54.2372 C   0  0  0  0  0  0  0  0  0  0  0  0
   69.6664   48.5850   54.1248 C   0  0  0  0  0  0  0  0  0  0  0  0
   70.2524   48.9489   52.9455 C   0  0  0  0  0  0  0  0  0  0  0  0
   70.0724   48.1795   51.7889 C   0  0  0  0  0  0  0  0  0  0  0  0
   70.6955   48.6198   50.6446 O   0  0  0  0  0  0  0  0  0  0  0  0
   69.2923   47.0581   51.8941 C   0  0  0  0  0  0  0  0  0  0  0  0
   68.7066   46.7008   53.0880 C   0  0  0  0  0  0  0  0  0  0  0  0
   73.0626   39.1045   59.3501 C   0  0  0  0  0  0  0  0  0  0  0  0
   71.9687   39.8563   59.7616 O   0  0  0  0  0  0  0  0  0  0  0  0
 24 25  1  0
 25  1  1  0
  1  2  2  0
  1  6  1  0
  2  3  1  0
  3  4  2  0
  4  5  1  0
  4 12  1  0
  5  6  2  0
  5  8  1  0
  6  7  1  0
  8  9  2  0
  8 10  1  0
  9 13  1  0
 13 14  1  0
 14 15  2  0
 14 16  1  0
 16 17  1  0
 17 18  2  0
 17 23  1  0
 18 19  1  0
 19 20  2  0
 20 21  1  0
 20 22  1  0
 22 23  2  0
 10 11  2  0
 10 12  1  0
M  END
>  <minimizedAffinity>  (619) 
-8.63488

$$$$
data/reference_output_2/data/smiles/134380.pdb
     RDKit          3D

 26 28  0  0  0  0  0  0  0  0999 V2000
   66.9586   42.1182   55.5630 O   0  0  0  0  0  0  0  0  0  0  0  0
   67.6628   41.5895   56.4652 C   0  0  0  0  0  0  0  0  0  0  0  0
   67.4458   40.2452   56.8735 N   0  0  0  0  0  0  0  0  0  0  0  0
   68.2168   39.6146   57.8854 C   0  0  0  0  0  0  0  0  0  0  0  0
   68.0110   38.4165   58.2363 O   0  0  0  0  0  0  0  0  0  0  0  0
   69.2697   40.3029   58.5619 N   0  0  0  0  0  0  0  0  0  0  0  0
   69.4962   41.6491   58.1610 C   0  0  0  0  0  0  0  0  0  0  0  0
   70.4109   42.3283   58.7110 O   0  0  0  0  0  0  0  0  0  0  0  0
   68.7145   42.3294   57.1168 C   0  0  0  0  0  0  0  0  0  0  0  0
   68.9392   43.5794   56.7583 C   0  0  0  0  0  0  0  0  0  0  0  0
   70.0752   39.6868   59.5987 C   0  0  0  0  0  0  0  0  0  0  0  0
   70.6982   38.4328   59.1460 C   0  0  0  0  0  0  0  0  0  0  0  0
   71.5416   38.4414   58.0701 C   0  0  0  0  0  0  0  0  0  0  0  0
   72.1297   37.2693   57.6429 C   0  0  0  0  0  0  0  0  0  0  0  0
   71.8779   36.0807   58.2859 C   0  0  0  0  0  0  0  0  0  0  0  0
   72.4585   34.9435   57.8577 F   0  0  0  0  0  0  0  0  0  0  0  0
   71.0302   36.0492   59.3725 C   0  0  0  0  0  0  0  0  0  0  0  0
   70.4500   37.2507   59.7844 C   0  0  0  0  0  0  0  0  0  0  0  0
   68.1924   44.2502   55.7509 N   0  0  0  0  0  0  0  0  0  0  0  0
   68.5400   45.6345   55.4534 C   0  0  0  0  0  0  0  0  0  0  0  0
   68.3186   45.9390   54.0187 C   0  0  0  0  0  0  0  0  0  0  0  0
   69.0307   46.9551   53.4358 C   0  0  0  0  0  0  0  0  0  0  0  0
   68.8247   47.2331   52.1151 C   0  0  0  0  0  0  0  0  0  0  0  0
   67.9145   46.5059   51.3729 C   0  0  0  0  0  0  0  0  0  0  0  0
   67.2142   45.4981   51.9673 N   0  0  0  0  0  0  0  0  0  0  0  0
   67.4180   45.2264   53.2644 C   0  0  0  0  0  0  0  0  0  0  0  0
  1  2  2  0
  2  3  1  0
  2  9  1  0
  3  4  1  0
  4  5  2  0
  4  6  1  0
  6 11  1  0
  6  7  1  0
 11 12  1  0
 12 13  2  0
 12 18  1  0
 13 14  1  0
 14 15  2  0
 15 16  1  0
 15 17  1  0
 17 18  2  0
  7  8  2  0
  7  9  1  0
  9 10  2  0
 10 19  1  0
 19 20  1  0
 20 21  1  0
 21 22  2  0
 21 26  1  0
 22 23  1  0
 23 24  2  0
 24 25  1  0
 25 26  2  0
M  END
>  <minimizedAffinity>  (620) 
-8.63466

$$$$
data/200k_reference_output/data/smiles/40967.pdb
     RDKit          3D

 27 29  0  0  0  0  0  0  0  0999 V2000
   70.2405   43.4393   57.7850 C   0  0  0  0  0  0  0  0  0  0  0  0
   69.8945   44.5518   57.1329 N   0  0  0  0  0  0  0  0  0  0  0  0
   68.8540   44.5979   56.2398 C   0  0  0  0  0  0  0  0  0  0  0  0
   68.1951   43.4171   56.0636 C   0  0  0  0  0  0  0  0  0  0  0  0
   67.1171   43.3301   55.1807 O   0  0  0  0  0  0  0  0  0  0  0  0
   68.5336   42.2353   56.7316 C   0  0  0  0  0  0  0  0  0  0  0  0
   67.8248   41.0572   56.5132 C   0  0  0  0  0  0  0  0  0  0  0  0
   68.2110   39.9438   57.1993 C   0  0  0  0  0  0  0  0  0  0  0  0
   69.2670   39.9089   58.1032 C   0  0  0  0  0  0  0  0  0  0  0  0
   69.9508   41.0962   58.2968 C   0  0  0  0  0  0  0  0  0  0  0  0
   69.5796   42.2576   57.6076 C   0  0  0  0  0  0  0  0  0  0  0  0
   69.6362   38.6895   58.8135 C   0  0  0  0  0  0  0  0  0  0  0  0
   70.7901   37.9821   58.5309 C   0  0  0  0  0  0  0  0  0  0  0  0
   71.1115   36.8215   59.2286 C   0  0  0  0  0  0  0  0  0  0  0  0
   70.2858   36.3474   60.2199 C   0  0  0  0  0  0  0  0  0  0  0  0
   69.1363   37.0514   60.5013 C   0  0  0  0  0  0  0  0  0  0  0  0
   68.8182   38.2061   59.8065 C   0  0  0  0  0  0  0  0  0  0  0  0
   68.5337   45.8326   55.5623 C   0  0  0  0  0  0  0  0  0  0  0  0
   67.9037   46.6958   56.2715 O   0  0  0  0  0  0  0  0  0  0  0  0
   68.8118   46.2136   54.2503 N   0  0  0  0  0  0  0  0  0  0  0  0
   68.4475   47.5067   53.6500 C   0  0  0  0  0  0  0  0  0  0  0  0
   69.6945   48.2110   53.2576 C   0  0  0  0  0  0  0  0  0  0  0  0
   69.9190   48.2558   51.7991 C   0  0  0  0  0  0  0  0  0  0  0  0
   70.0238   47.1764   51.1742 O   0  0  0  0  0  0  0  0  0  0  0  0
   70.0204   49.4351   51.0915 O   0  0  0  0  0  0  0  0  0  0  0  0
   72.2267   43.4209   59.4625 N   0  0  0  0  0  0  0  0  0  0  0  0
   71.3442   43.4400   58.7161 C   0  0  0  0  0  0  0  0  0  0  0  0
 26 27  3  0
 27  1  1  0
  1  2  2  0
  1 11  1  0
  2  3  1  0
  3 18  1  0
  3  4  2  0
 18 19  2  0
 18 20  1  0
 20 21  1  0
 21 22  1  0
 22 23  1  0
 23 24  2  0
 23 25  1  0
  4  5  1  0
  4  6  1  0
  6  7  1  0
  6 11  2  0
  7  8  2  0
  8  9  1  0
  9 12  1  0
  9 10  2  0
 12 13  2  0
 12 17  1  0
 13 14  1  0
 14 15  2  0
 15 16  1  0
 16 17  2  0
 10 11  1  0
M  END
>  <minimizedAffinity>  (621) 
-8.63451

$$$$
data/200k_reference_output/data/smiles/44626.pdb
     RDKit          3D

 28 30  0  0  0  0  0  0  0  0999 V2000
   69.8359   39.6932   58.4578 C   0  0  0  0  0  0  0  0  0  0  0  0
   68.7416   39.6790   57.8207 O   0  0  0  0  0  0  0  0  0  0  0  0
   70.4686   40.8536   58.9172 N   0  0  0  0  0  0  0  0  0  0  0  0
   71.7198   40.7786   59.6391 C   0  0  0  0  0  0  0  0  0  0  0  0
   71.6103   41.5081   60.9588 C   0  0  0  0  0  0  0  0  0  0  0  0
   70.3419   42.1839   61.1435 N   0  0  0  0  0  0  0  0  0  0  0  0
   69.5487   42.6512   60.0674 C   0  0  0  0  0  0  0  0  0  0  0  0
   68.5995   43.4195   60.2745 O   0  0  0  0  0  0  0  0  0  0  0  0
   69.9271   42.1670   58.7241 C   0  0  2  0  0  0  0  0  0  0  0  0
   72.0054   34.4834   59.4090 C   0  0  0  0  0  0  0  0  0  0  0  0
   71.4241   35.8503   59.1701 C   0  0  0  0  0  0  0  0  0  0  0  0
   70.4342   36.3539   59.9900 C   0  0  0  0  0  0  0  0  0  0  0  0
   69.9231   37.6165   59.7412 C   0  0  0  0  0  0  0  0  0  0  0  0
   70.4078   38.3464   58.6847 C   0  0  0  0  0  0  0  0  0  0  0  0
   71.3928   37.8257   57.8823 C   0  0  0  0  0  0  0  0  0  0  0  0
   71.9163   36.5785   58.1060 C   0  0  0  0  0  0  0  0  0  0  0  0
   72.9934   36.0034   57.2315 C   0  0  0  0  0  0  0  0  0  0  0  0
   68.8876   42.2866   57.6829 C   0  0  0  0  0  0  0  0  0  0  0  0
   69.1632   43.5335   56.8939 C   0  0  0  0  0  0  0  0  0  0  0  0
   70.2827   44.1067   56.9273 O   0  0  0  0  0  0  0  0  0  0  0  0
   68.1329   44.1020   56.0737 N   0  0  0  0  0  0  0  0  0  0  0  0
   68.3122   45.2707   55.3050 C   0  0  0  0  0  0  0  0  0  0  0  0
   68.7400   46.4311   55.8844 C   0  0  0  0  0  0  0  0  0  0  0  0
   68.9226   47.6023   55.1364 C   0  0  0  0  0  0  0  0  0  0  0  0
   68.6635   47.5762   53.7892 C   0  0  0  0  0  0  0  0  0  0  0  0
   68.8526   48.7412   53.0905 F   0  0  0  0  0  0  0  0  0  0  0  0
   68.2318   46.4213   53.1840 C   0  0  0  0  0  0  0  0  0  0  0  0
   68.0575   45.2659   53.9545 C   0  0  0  0  0  0  0  0  0  0  0  0
 10 11  1  0
 11 12  2  0
 11 16  1  0
 12 13  1  0
 13 14  2  0
 14  1  1  0
 14 15  1  0
  1  2  2  0
  1  3  1  0
  3  4  1  0
  3  9  1  0
  4  5  1  0
  5  6  1  0
  6  7  1  0
  7  8  2  0
  7  9  1  0
  9 18  1  6
 18 19  1  0
 19 20  2  0
 19 21  1  0
 21 22  1  0
 22 23  2  0
 22 28  1  0
 23 24  1  0
 24 25  2  0
 25 26  1  0
 25 27  1  0
 27 28  2  0
 15 16  2  0
 16 17  1  0
M  END
>  <minimizedAffinity>  (622) 
-8.63390

$$$$
data/reference_output_2/data/smiles/127420.pdb
     RDKit          3D

 26 28  0  0  0  0  0  0  0  0999 V2000
   69.3361   47.2088   56.2643 N   0  0  0  0  0  0  0  0  0  0  0  0
   69.8179   48.2355   55.6119 N   0  0  0  0  0  0  0  0  0  0  0  0
   69.6902   48.4222   54.2646 C   0  0  0  0  0  0  0  0  0  0  0  0
   69.0126   47.4736   53.5427 C   0  0  0  0  0  0  0  0  0  0  0  0
   68.8056   47.5267   52.1880 C   0  0  0  0  0  0  0  0  0  0  0  0
   68.1061   46.5371   51.4831 C   0  0  0  0  0  0  0  0  0  0  0  0
   67.6022   45.4661   52.1512 C   0  0  0  0  0  0  0  0  0  0  0  0
   67.7986   45.3876   53.5231 C   0  0  0  0  0  0  0  0  0  0  0  0
   68.4865   46.3681   54.2007 C   0  0  0  0  0  0  0  0  0  0  0  0
   68.6667   46.2683   55.5602 C   0  0  0  0  0  0  0  0  0  0  0  0
   68.1710   45.2400   56.1268 O   0  0  0  0  0  0  0  0  0  0  0  0
   70.2665   49.5842   53.6277 C   0  0  0  0  0  0  0  0  0  0  0  0
   69.7126   50.6373   53.2968 O   0  0  0  0  0  0  0  0  0  0  0  0
   71.6446   49.5045   53.3473 O   0  0  0  0  0  0  0  0  0  0  0  0
   69.4978   47.0570   57.7033 C   0  0  0  0  0  0  0  0  0  0  0  0
   71.6952   47.1973   58.5098 O   0  0  0  0  0  0  0  0  0  0  0  0
   70.8306   46.4677   57.9883 C   0  0  0  0  0  0  0  0  0  0  0  0
   71.1223   45.1282   57.6855 N   0  0  0  0  0  0  0  0  0  0  0  0
   72.3384   44.4476   57.8967 C   0  0  0  0  0  0  0  0  0  0  0  0
   73.5277   44.9763   58.2862 C   0  0  0  0  0  0  0  0  0  0  0  0
   74.6566   44.1897   58.4651 C   0  0  0  0  0  0  0  0  0  0  0  0
   74.6425   42.8141   58.2592 C   0  0  0  0  0  0  0  0  0  0  0  0
   75.7370   42.0418   58.4328 F   0  0  0  0  0  0  0  0  0  0  0  0
   73.4264   42.2929   57.8647 C   0  0  0  0  0  0  0  0  0  0  0  0
   72.3215   43.0567   57.6878 C   0  0  0  0  0  0  0  0  0  0  0  0
   71.1848   42.4159   57.2972 F   0  0  0  0  0  0  0  0  0  0  0  0
 16 17  2  0
 17 15  1  0
 17 18  1  0
 15  1  1  0
  1  2  1  0
  1 10  1  0
  2  3  2  0
  3 12  1  0
  3  4  1  0
 12 13  2  0
 12 14  1  0
  4  5  2  0
  4  9  1  0
  5  6  1  0
  6  7  2  0
  7  8  1  0
  8  9  2  0
  9 10  1  0
 10 11  2  0
 18 19  1  0
 19 20  2  0
 19 25  1  0
 20 21  1  0
 21 22  2  0
 22 23  1  0
 22 24  1  0
 24 25  2  0
 25 26  1  0
M  END
>  <minimizedAffinity>  (623) 
-8.63386

$$$$
data/200k_reference_output/data/smiles/26713.pdb
     RDKit          3D

 27 29  0  0  0  0  0  0  0  0999 V2000
   70.0709   46.1838   58.6600 N   0  0  0  0  0  0  0  0  0  0  0  0
   71.5732   46.8047   59.1755 S   0  0  0  0  0  0  0  0  0  0  0  0
   71.5123   47.0749   60.6519 O   0  0  0  0  0  0  0  0  0  0  0  0
   72.6053   45.7020   58.9974 O   0  0  0  0  0  0  0  0  0  0  0  0
   72.9149   50.5140   56.8189 C   0  0  0  0  0  0  0  0  0  0  0  0
   71.6384   50.3929   57.3285 C   0  0  0  0  0  0  0  0  0  0  0  0
   71.2586   49.2701   58.0328 C   0  0  0  0  0  0  0  0  0  0  0  0
   72.1175   48.1985   58.2759 C   0  0  0  0  0  0  0  0  0  0  0  0
   73.3898   48.3229   57.7655 C   0  0  0  0  0  0  0  0  0  0  0  0
   73.7743   49.4599   57.0528 C   0  0  0  0  0  0  0  0  0  0  0  0
   73.9432   52.9034   53.9143 C   0  0  0  0  0  0  0  0  0  0  0  0
   73.5094   51.7412   54.6936 C   0  0  0  0  0  0  0  0  0  0  0  0
   73.2474   50.6505   54.0517 O   0  0  0  0  0  0  0  0  0  0  0  0
   73.3347   51.6476   56.0768 N   0  0  0  0  0  0  0  0  0  0  0  0
   69.7245   46.1752   57.3388 N   0  0  0  0  0  0  0  0  0  0  0  0
   68.9437   46.9448   56.6963 C   0  0  0  0  0  0  0  0  0  0  0  0
   68.7508   46.7097   55.2546 C   0  0  0  0  0  0  0  0  0  0  0  0
   68.2098   45.5352   54.7678 C   0  0  0  0  0  0  0  0  0  0  0  0
   67.8538   44.5707   55.7077 O   0  0  0  0  0  0  0  0  0  0  0  0
   68.0350   45.3324   53.4231 C   0  0  0  0  0  0  0  0  0  0  0  0
   68.3966   46.2980   52.5290 C   0  0  0  0  0  0  0  0  0  0  0  0
   68.9423   47.4888   53.0010 C   0  0  0  0  0  0  0  0  0  0  0  0
   69.3073   48.4731   52.1184 C   0  0  0  0  0  0  0  0  0  0  0  0
   69.8419   49.6632   52.5459 C   0  0  0  0  0  0  0  0  0  0  0  0
   70.0179   49.8727   53.8974 C   0  0  0  0  0  0  0  0  0  0  0  0
   69.6540   48.8862   54.7841 C   0  0  0  0  0  0  0  0  0  0  0  0
   69.1145   47.6835   54.3635 C   0  0  0  0  0  0  0  0  0  0  0  0
 11 12  1  0
 12 13  2  0
 12 14  1  0
 14  5  1  0
  5  6  2  0
  5 10  1  0
  6  7  1  0
  7  8  2  0
  8  2  1  0
  8  9  1  0
  2  3  2  0
  2  4  2  0
  2  1  1  0
  1 15  1  0
 15 16  2  0
 16 17  1  0
 17 18  2  0
 17 27  1  0
 18 19  1  0
 18 20  1  0
 20 21  2  0
 21 22  1  0
 22 23  1  0
 22 27  2  0
 23 24  2  0
 24 25  1  0
 25 26  2  0
 26 27  1  0
  9 10  2  0
M  END
>  <minimizedAffinity>  (624) 
-8.63384

$$$$
data/200k_reference_output/data/smiles/86183.pdb
     RDKit          3D

 28 31  0  0  0  0  0  0  0  0999 V2000
   72.7469   39.4484   58.8848 O   0  0  0  0  0  0  0  0  0  0  0  0
   71.7331   38.7026   58.5969 C   0  0  0  0  0  0  0  0  0  0  0  0
   70.4886   39.3647   58.5944 N   0  0  0  0  0  0  0  0  0  0  0  0
   69.2474   38.6686   58.3236 C   0  0  0  0  0  0  0  0  0  0  0  0
   68.0735   39.6000   58.6445 C   0  0  0  0  0  0  0  0  0  0  0  0
   68.2212   40.8194   57.8372 N   0  0  0  0  0  0  0  0  0  0  0  0
   67.4539   41.4817   57.0046 N   0  0  0  0  0  0  0  0  0  0  0  0
   68.1035   42.5391   56.4872 C   0  0  0  0  0  0  0  0  0  0  0  0
   69.3751   42.4830   57.0820 C   0  0  0  0  0  0  0  0  0  0  0  0
   69.4431   41.3995   57.9308 C   0  0  0  0  0  0  0  0  0  0  0  0
   70.4285   40.7837   58.8427 C   0  0  0  0  0  0  0  0  0  0  0  0
   71.9738   37.3064   58.3150 C   0  0  0  0  0  0  0  0  0  0  0  0
   72.4923   36.8048   57.2012 N   0  0  0  0  0  0  0  0  0  0  0  0
   72.6826   35.4887   56.9899 C   0  0  0  0  0  0  0  0  0  0  0  0
   72.3314   34.5661   57.9648 C   0  0  0  0  0  0  0  0  0  0  0  0
   72.5047   33.2433   57.7874 F   0  0  0  0  0  0  0  0  0  0  0  0
   71.7916   35.0473   59.1345 C   0  0  0  0  0  0  0  0  0  0  0  0
   71.6087   36.4076   59.3212 C   0  0  0  0  0  0  0  0  0  0  0  0
   71.0750   36.7965   60.5050 F   0  0  0  0  0  0  0  0  0  0  0  0
   67.6529   43.5753   55.5183 C   0  0  0  0  0  0  0  0  0  0  0  0
   68.1421   44.8634   55.8430 O   0  0  0  0  0  0  0  0  0  0  0  0
   68.3958   45.8632   54.9861 C   0  0  0  0  0  0  0  0  0  0  0  0
   68.9258   47.0740   55.4369 C   0  0  0  0  0  0  0  0  0  0  0  0
   69.1863   48.0968   54.5607 C   0  0  0  0  0  0  0  0  0  0  0  0
   68.9396   47.9765   53.2134 C   0  0  0  0  0  0  0  0  0  0  0  0
   68.4140   46.7789   52.7645 C   0  0  0  0  0  0  0  0  0  0  0  0
   68.1563   46.6092   51.4376 F   0  0  0  0  0  0  0  0  0  0  0  0
   68.1540   45.7567   53.6348 C   0  0  0  0  0  0  0  0  0  0  0  0
  1  2  2  0
  2 12  1  0
  2  3  1  0
 12 13  2  0
 12 18  1  0
 13 14  1  0
 14 15  2  0
 15 16  1  0
 15 17  1  0
 17 18  2  0
 18 19  1  0
  3  4  1  0
  3 11  1  0
  4  5  1  0
  5  6  1  0
  6  7  1  0
  6 10  1  0
  7  8  2  0
  8 20  1  0
  8  9  1  0
 20 21  1  0
 21 22  1  0
 22 23  2  0
 22 28  1  0
 23 24  1  0
 24 25  2  0
 25 26  1  0
 26 27  1  0
 26 28  2  0
  9 10  2  0
 10 11  1  0
M  END
>  <minimizedAffinity>  (625) 
-8.63352

$$$$
data/reference_output_2/data/smiles/100656.pdb
     RDKit          3D

 26 28  0  0  0  0  0  0  0  0999 V2000
   68.7392   47.8478   56.3278 C   0  0  0  0  0  0  0  0  0  0  0  0
   72.1295   51.0805   54.8529 C   0  0  0  0  0  0  0  0  0  0  0  0
   71.1561   49.9854   54.5401 C   0  0  0  0  0  0  0  0  0  0  0  0
   70.9857   49.5350   53.2879 N   0  0  0  0  0  0  0  0  0  0  0  0
   70.0907   48.5335   53.0262 C   0  0  0  0  0  0  0  0  0  0  0  0
   69.9343   48.0806   51.7221 C   0  0  0  0  0  0  0  0  0  0  0  0
   69.0473   47.0715   51.4072 C   0  0  0  0  0  0  0  0  0  0  0  0
   68.3034   46.5065   52.4239 C   0  0  0  0  0  0  0  0  0  0  0  0
   68.4363   46.9352   53.7280 C   0  0  0  0  0  0  0  0  0  0  0  0
   69.3290   47.9440   54.0069 C   0  0  0  0  0  0  0  0  0  0  0  0
   69.5101   48.4099   55.2695 N   0  0  0  0  0  0  0  0  0  0  0  0
   70.3941   49.3957   55.5233 C   0  0  0  0  0  0  0  0  0  0  0  0
   70.5701   49.8386   56.7060 O   0  0  0  0  0  0  0  0  0  0  0  0
   69.3019   46.5943   56.8851 C   0  0  0  0  0  0  0  0  0  0  0  0
   70.2479   46.5482   57.6988 O   0  0  0  0  0  0  0  0  0  0  0  0
   68.7309   45.3609   56.4707 N   0  0  0  0  0  0  0  0  0  0  0  0
   69.2562   44.1501   56.9946 N   0  0  0  0  0  0  0  0  0  0  0  0
   68.5251   42.9384   56.9295 C   0  0  0  0  0  0  0  0  0  0  0  0
   67.4009   42.9763   56.3944 O   0  0  0  0  0  0  0  0  0  0  0  0
   69.0211   41.6648   57.4534 C   0  0  0  0  0  0  0  0  0  0  0  0
   68.2195   40.5411   57.4347 C   0  0  0  0  0  0  0  0  0  0  0  0
   68.6385   39.3172   57.9154 C   0  0  0  0  0  0  0  0  0  0  0  0
   69.9014   39.1672   58.4460 C   0  0  0  0  0  0  0  0  0  0  0  0
   70.4213   37.6044   59.0539 Cl  0  0  0  0  0  0  0  0  0  0  0  0
   70.7223   40.2736   58.4766 C   0  0  0  0  0  0  0  0  0  0  0  0
   70.2829   41.5083   57.9849 C   0  0  0  0  0  0  0  0  0  0  0  0
  2  3  1  0
  3  4  2  0
  3 12  1  0
  4  5  1  0
  5  6  2  0
  5 10  1  0
  6  7  1  0
  7  8  2  0
  8  9  1  0
  9 10  2  0
 10 11  1  0
 11  1  1  0
 11 12  1  0
  1 14  1  0
 14 15  2  0
 14 16  1  0
 16 17  1  0
 17 18  1  0
 18 19  2  0
 18 20  1  0
 20 21  2  0
 20 26  1  0
 21 22  1  0
 22 23  2  0
 23 24  1  0
 23 25  1  0
 25 26  2  0
 12 13  2  0
M  END
>  <minimizedAffinity>  (626) 
-8.63252

$$$$
data/200k_reference_output/data/smiles/56756.pdb
     RDKit          3D

 28 30  0  0  0  0  0  0  0  0999 V2000
   68.4241   46.0262   54.8684 C   0  0  0  0  0  0  0  0  0  0  0  0
   67.8868   45.3982   53.9288 O   0  0  0  0  0  0  0  0  0  0  0  0
   68.5822   45.3329   56.0950 N   0  0  0  0  0  0  0  0  0  0  0  0
   69.6890   50.0607   54.1437 C   0  0  0  0  0  0  0  0  0  0  0  0
   69.6380   49.1209   53.1377 C   0  0  0  0  0  0  0  0  0  0  0  0
   69.2275   47.8299   53.3977 C   0  0  0  0  0  0  0  0  0  0  0  0
   68.8491   47.4063   54.6563 C   0  0  0  0  0  0  0  0  0  0  0  0
   68.8994   48.3454   55.6632 C   0  0  0  0  0  0  0  0  0  0  0  0
   69.3141   49.6550   55.4058 C   0  0  0  0  0  0  0  0  0  0  0  0
   70.1305   51.4356   53.8423 C   0  0  0  0  0  0  0  0  0  0  0  0
   71.9130   52.3927   55.8904 C   0  0  0  0  0  0  0  0  0  0  0  0
   71.8398   51.6999   54.2551 S   0  0  0  0  0  0  0  0  0  0  0  0
   72.4720   52.7138   53.3250 O   0  0  0  0  0  0  0  0  0  0  0  0
   72.6338   50.4512   54.1733 O   0  0  0  0  0  0  0  0  0  0  0  0
   68.1531   43.9910   56.2496 N   0  0  0  0  0  0  0  0  0  0  0  0
   68.9627   43.0205   56.9165 C   0  0  0  0  0  0  0  0  0  0  0  0
   70.0656   43.4185   57.3538 O   0  0  0  0  0  0  0  0  0  0  0  0
   68.5354   41.6363   57.0831 C   0  0  0  0  0  0  0  0  0  0  0  0
   68.6421   40.9249   58.2615 C   0  0  0  0  0  0  0  0  0  0  0  0
   68.1500   39.6487   58.0884 C   0  0  0  0  0  0  0  0  0  0  0  0
   67.7503   39.6152   56.7897 N   0  0  0  0  0  0  0  0  0  0  0  0
   67.9861   40.8007   56.2130 N   0  0  0  0  0  0  0  0  0  0  0  0
   68.0701   38.5629   59.0709 C   0  0  0  0  0  0  0  0  0  0  0  0
   69.1832   38.0360   59.6562 C   0  0  0  0  0  0  0  0  0  0  0  0
   69.0204   37.0150   60.5711 C   0  0  0  0  0  0  0  0  0  0  0  0
   67.7660   36.5413   60.8843 C   0  0  0  0  0  0  0  0  0  0  0  0
   66.6357   37.0781   60.2893 C   0  0  0  0  0  0  0  0  0  0  0  0
   66.8105   38.0931   59.3811 C   0  0  0  0  0  0  0  0  0  0  0  0
 11 12  1  0
 12 13  2  0
 12 14  2  0
 12 10  1  0
 10  4  1  0
  4  5  2  0
  4  9  1  0
  5  6  1  0
  6  7  2  0
  7  1  1  0
  7  8  1  0
  1  2  2  0
  1  3  1  0
  3 15  1  0
 15 16  1  0
 16 17  2  0
 16 18  1  0
 18 19  1  0
 18 22  2  0
 19 20  2  0
 20 23  1  0
 20 21  1  0
 23 24  2  0
 23 28  1  0
 24 25  1  0
 25 26  2  0
 26 27  1  0
 27 28  2  0
 21 22  1  0
  8  9  2  0
M  END
>  <minimizedAffinity>  (627) 
-8.63201

$$$$
data/reference_output_2/data/smiles/152491.pdb
     RDKit          3D

 26 29  0  0  0  0  0  0  0  0999 V2000
   71.0145   46.0408   58.1120 C   0  0  0  0  0  0  0  0  0  0  0  0
   71.7428   46.8068   58.9988 C   0  0  0  0  0  0  0  0  0  0  0  0
   71.5423   48.1812   59.0418 C   0  0  0  0  0  0  0  0  0  0  0  0
   70.6336   48.7874   58.2172 C   0  0  0  0  0  0  0  0  0  0  0  0
   69.9047   48.0450   57.3327 C   0  0  0  0  0  0  0  0  0  0  0  0
   70.1083   46.6775   57.2958 C   0  0  0  0  0  0  0  0  0  0  0  0
   69.5205   44.2342   59.5237 O   0  0  0  0  0  0  0  0  0  0  0  0
   70.3849   43.7335   58.7801 C   0  0  0  0  0  0  0  0  0  0  0  0
   71.1833   44.6300   58.0293 N   0  0  0  0  0  0  0  0  0  0  0  0
   70.5906   42.2508   58.6663 C   0  0  0  0  0  0  0  0  0  0  0  0
   71.8316   41.7034   58.7495 C   0  0  0  0  0  0  0  0  0  0  0  0
   71.4973   39.9118   58.5508 S   0  0  0  0  0  0  0  0  0  0  0  0
   69.6513   40.2211   58.3805 C   0  0  0  0  0  0  0  0  0  0  0  0
   69.6051   41.4174   58.4839 N   0  0  0  0  0  0  0  0  0  0  0  0
   68.8972   48.6303   56.3905 C   0  0  0  0  0  0  0  0  0  0  0  0
   69.3045   48.5752   54.9800 C   0  0  0  0  0  0  0  0  0  0  0  0
   70.1772   49.5161   54.5220 N   0  0  0  0  0  0  0  0  0  0  0  0
   70.6079   49.5770   53.2990 N   0  0  0  0  0  0  0  0  0  0  0  0
   70.2071   48.6906   52.3854 C   0  0  0  0  0  0  0  0  0  0  0  0
   70.6403   48.7817   51.2286 O   0  0  0  0  0  0  0  0  0  0  0  0
   69.3196   47.6973   52.7609 C   0  0  0  0  0  0  0  0  0  0  0  0
   68.8671   47.6405   54.0659 C   0  0  0  0  0  0  0  0  0  0  0  0
   67.9104   46.5779   54.5161 C   0  0  0  0  0  0  0  0  0  0  0  0
   67.9681   45.4248   53.5088 C   0  0  0  0  0  0  0  0  0  0  0  0
   67.6055   46.1012   52.1769 C   0  0  0  0  0  0  0  0  0  0  0  0
   68.8999   46.7281   51.7070 C   0  0  0  0  0  0  0  0  0  0  0  0
  7  8  2  0
  8  9  1  0
  8 10  1  0
  9  1  1  0
  1  2  2  0
  1  6  1  0
  2  3  1  0
  3  4  2  0
  4  5  1  0
  5 15  1  0
  5  6  2  0
 15 16  1  0
 16 17  2  0
 16 22  1  0
 17 18  1  0
 18 19  1  0
 19 20  2  0
 19 21  1  0
 21 22  2  0
 21 26  1  0
 22 23  1  0
 23 24  1  0
 24 25  1  0
 25 26  1  0
 10 11  2  0
 10 14  1  0
 11 12  1  0
 12 13  1  0
 13 14  2  0
M  END
>  <minimizedAffinity>  (628) 
-8.63198

$$$$
data/200k_reference_output/data/smiles/65998.pdb
     RDKit          3D

 28 30  0  0  0  0  0  0  0  0999 V2000
   69.8603   43.2081   57.4069 C   0  0  0  0  0  0  0  0  0  0  0  0
   70.9725   43.6497   57.7554 O   0  0  0  0  0  0  0  0  0  0  0  0
   68.9252   44.1007   56.8318 N   0  0  0  0  0  0  0  0  0  0  0  0
   67.2806   41.8046   56.5160 C   0  0  0  0  0  0  0  0  0  0  0  0
   68.4045   41.1312   57.2102 C   0  0  0  0  0  0  0  0  0  0  0  0
   68.5450   39.8541   57.5807 N   0  0  0  0  0  0  0  0  0  0  0  0
   69.7118   39.6652   58.1803 N   0  0  0  0  0  0  0  0  0  0  0  0
   70.3127   40.8421   58.1851 N   0  0  0  0  0  0  0  0  0  0  0  0
   69.5539   41.7835   57.6009 C   0  0  0  0  0  0  0  0  0  0  0  0
   70.1728   38.4193   58.6957 C   0  0  0  0  0  0  0  0  0  0  0  0
   71.2524   37.7283   58.1868 C   0  0  0  0  0  0  0  0  0  0  0  0
   71.6804   36.5215   58.7035 C   0  0  0  0  0  0  0  0  0  0  0  0
   71.0007   35.9839   59.7725 C   0  0  0  0  0  0  0  0  0  0  0  0
   69.9133   36.6387   60.3160 C   0  0  0  0  0  0  0  0  0  0  0  0
   69.5105   37.8580   59.7654 C   0  0  0  0  0  0  0  0  0  0  0  0
   69.1851   45.4676   56.6308 N   0  0  0  0  0  0  0  0  0  0  0  0
   68.5916   46.1260   55.5220 C   0  0  0  0  0  0  0  0  0  0  0  0
   67.8529   45.4432   54.7658 O   0  0  0  0  0  0  0  0  0  0  0  0
   68.8083   47.5558   55.2330 C   0  0  0  0  0  0  0  0  0  0  0  0
   68.7600   48.4944   56.2441 C   0  0  0  0  0  0  0  0  0  0  0  0
   68.9608   49.8329   55.9847 C   0  0  0  0  0  0  0  0  0  0  0  0
   69.2197   50.3082   54.7162 C   0  0  0  0  0  0  0  0  0  0  0  0
   69.2694   49.3738   53.7041 C   0  0  0  0  0  0  0  0  0  0  0  0
   69.0651   48.0144   53.9611 C   0  0  0  0  0  0  0  0  0  0  0  0
   69.4324   51.7586   54.4723 C   0  0  0  0  0  0  0  0  0  0  0  0
   68.1791   52.3750   54.3780 F   0  0  0  0  0  0  0  0  0  0  0  0
   70.0405   51.9082   53.2441 F   0  0  0  0  0  0  0  0  0  0  0  0
   70.1205   52.3272   55.4988 F   0  0  0  0  0  0  0  0  0  0  0  0
  4  5  1  0
  5  6  2  0
  5  9  1  0
  6  7  1  0
  7 10  1  0
  7  8  1  0
 10 11  2  0
 10 15  1  0
 11 12  1  0
 12 13  2  0
 13 14  1  0
 14 15  2  0
  8  9  2  0
  9  1  1  0
  1  2  2  0
  1  3  1  0
  3 16  1  0
 16 17  1  0
 17 18  2  0
 17 19  1  0
 19 20  2  0
 19 24  1  0
 20 21  1  0
 21 22  2  0
 22 25  1  0
 22 23  1  0
 25 26  1  0
 25 27  1  0
 25 28  1  0
 23 24  2  0
M  END
>  <minimizedAffinity>  (629) 
-8.63184

$$$$
data/reference_output_2/data/smiles/130342.pdb
     RDKit          3D

 26 29  0  0  0  0  0  0  0  0999 V2000
   69.0568   43.7845   56.5730 C   0  0  0  0  0  0  0  0  0  0  0  0
   68.7216   42.5509   56.8727 C   0  0  0  0  0  0  0  0  0  0  0  0
   67.3744   42.0111   56.5658 C   0  0  0  0  0  0  0  0  0  0  0  0
   66.4093   42.5969   56.0135 O   0  0  0  0  0  0  0  0  0  0  0  0
   67.3351   40.6831   57.0065 N   0  0  0  0  0  0  0  0  0  0  0  0
   68.5889   40.3529   57.5766 C   0  0  0  0  0  0  0  0  0  0  0  0
   69.0522   39.1875   58.1448 C   0  0  0  0  0  0  0  0  0  0  0  0
   70.3186   39.1242   58.6290 C   0  0  0  0  0  0  0  0  0  0  0  0
   71.1543   40.2147   58.5598 C   0  0  0  0  0  0  0  0  0  0  0  0
   72.3929   40.0827   59.0575 N   0  0  0  0  0  0  0  0  0  0  0  0
   73.2557   41.1056   59.0222 C   0  0  0  0  0  0  0  0  0  0  0  0
   72.8732   42.3068   58.4718 C   0  0  0  0  0  0  0  0  0  0  0  0
   71.5893   42.4837   57.9421 C   0  0  0  0  0  0  0  0  0  0  0  0
   70.7329   41.4188   57.9946 C   0  0  0  0  0  0  0  0  0  0  0  0
   69.4390   41.4614   57.5074 C   0  0  0  0  0  0  0  0  0  0  0  0
   68.1050   44.6453   55.9312 N   0  0  0  0  0  0  0  0  0  0  0  0
   69.2930   48.1387   53.8676 C   0  0  0  0  0  0  0  0  0  0  0  0
   69.4569   47.9995   55.2289 C   0  0  0  0  0  0  0  0  0  0  0  0
   69.0728   46.8638   55.9108 C   0  0  0  0  0  0  0  0  0  0  0  0
   68.4919   45.7948   55.2224 C   0  0  0  0  0  0  0  0  0  0  0  0
   68.3331   45.9452   53.8629 C   0  0  0  0  0  0  0  0  0  0  0  0
   68.7234   47.0873   53.1983 C   0  0  0  0  0  0  0  0  0  0  0  0
   69.7617   49.3461   51.3263 N   0  0  0  0  0  0  0  0  0  0  0  0
   69.7894   49.5889   53.0316 S   0  0  0  0  0  0  0  0  0  0  0  0
   71.1391   50.0506   53.4989 O   0  0  0  0  0  0  0  0  0  0  0  0
   68.7990   50.6711   53.3593 O   0  0  0  0  0  0  0  0  0  0  0  0
 23 24  1  0
 24 25  2  0
 24 26  2  0
 24 17  1  0
 17 18  2  0
 17 22  1  0
 18 19  1  0
 19 20  2  0
 20 16  1  0
 20 21  1  0
 16  1  1  0
  1  2  2  0
  2  3  1  0
  2 15  1  0
  3  4  2  0
  3  5  1  0
  5  6  1  0
  6  7  1  0
  6 15  2  0
  7  8  2  0
  8  9  1  0
  9 10  1  0
  9 14  2  0
 10 11  2  0
 11 12  1  0
 12 13  2  0
 13 14  1  0
 14 15  1  0
 21 22  2  0
M  END
>  <minimizedAffinity>  (630) 
-8.63133

$$$$
data/200k_reference_output/data/smiles/14300.pdb
     RDKit          3D

 26 29  0  0  0  0  0  0  0  0999 V2000
   71.0354   50.3408   54.7056 C   0  0  0  0  0  0  0  0  0  0  0  0
   70.0941   49.1951   54.6095 C   0  0  0  0  0  0  0  0  0  0  0  0
   69.6184   48.5552   55.7177 C   0  0  0  0  0  0  0  0  0  0  0  0
   68.8613   47.4348   55.4564 N   0  0  0  0  0  0  0  0  0  0  0  0
   68.3335   46.7151   56.5312 O   0  0  0  0  0  0  0  0  0  0  0  0
   68.6135   47.0180   54.2150 C   0  0  0  0  0  0  0  0  0  0  0  0
   67.8441   45.8835   53.9662 C   0  0  0  0  0  0  0  0  0  0  0  0
   67.5953   45.4646   52.6827 C   0  0  0  0  0  0  0  0  0  0  0  0
   68.1008   46.1564   51.5990 C   0  0  0  0  0  0  0  0  0  0  0  0
   68.8532   47.2662   51.8196 C   0  0  0  0  0  0  0  0  0  0  0  0
   69.1000   47.6814   53.1138 C   0  0  0  0  0  0  0  0  0  0  0  0
   69.8362   48.7665   53.3704 N   0  0  0  0  0  0  0  0  0  0  0  0
   70.3357   49.4506   52.2761 O   0  0  0  0  0  0  0  0  0  0  0  0
   69.7318   49.0085   57.0892 C   0  0  0  0  0  0  0  0  0  0  0  0
   68.6143   49.5142   57.5438 O   0  0  0  0  0  0  0  0  0  0  0  0
   70.8172   49.0129   58.0317 C   0  0  0  0  0  0  0  0  0  0  0  0
   70.8112   48.0082   59.0702 N   0  0  0  0  0  0  0  0  0  0  0  0
   70.9672   46.6092   58.7409 C   0  0  0  0  0  0  0  0  0  0  0  0
   70.0191   45.6597   58.7226 N   0  0  0  0  0  0  0  0  0  0  0  0
   70.6210   44.5035   58.3590 C   0  0  0  0  0  0  0  0  0  0  0  0
   70.1779   43.2041   58.1670 C   0  0  0  0  0  0  0  0  0  0  0  0
   71.0373   42.2050   57.7871 C   0  0  0  0  0  0  0  0  0  0  0  0
   72.3776   42.4430   57.5758 C   0  0  0  0  0  0  0  0  0  0  0  0
   72.8417   43.7290   57.7604 C   0  0  0  0  0  0  0  0  0  0  0  0
   71.9667   44.7261   58.1436 C   0  0  0  0  0  0  0  0  0  0  0  0
   72.1342   46.0460   58.3927 N   0  0  0  0  0  0  0  0  0  0  0  0
  1  2  1  0
  2  3  2  0
  2 12  1  0
  3 14  1  0
  3  4  1  0
 14 15  2  0
 14 16  1  0
 16 17  1  0
 17 18  1  0
 18 19  2  0
 18 26  1  0
 19 20  1  0
 20 21  2  0
 20 25  1  0
 21 22  1  0
 22 23  2  0
 23 24  1  0
 24 25  2  0
 25 26  1  0
  4  5  1  0
  4  6  2  0
  6  7  1  0
  6 11  1  0
  7  8  2  0
  8  9  1  0
  9 10  2  0
 10 11  1  0
 11 12  2  0
 12 13  1  0
M  CHG  5   4   1   5  -1  12   1  13  -1  19   1
M  END
>  <minimizedAffinity>  (631) 
-8.63075

$$$$
data/reference_output_2/data/smiles/147714.pdb
     RDKit          3D

 27 29  0  0  0  0  0  0  0  0999 V2000
   67.7485   44.4429   55.0146 N   0  0  0  0  0  0  0  0  0  0  0  0
   68.2541   43.5839   56.0395 C   0  0  0  0  0  0  0  0  0  0  0  0
   69.1301   44.0909   56.7757 O   0  0  0  0  0  0  0  0  0  0  0  0
   69.8972   50.5001   55.5750 C   0  0  0  0  0  0  0  0  0  0  0  0
   69.6858   49.6652   54.3727 C   0  0  0  0  0  0  0  0  0  0  0  0
   69.9449   50.1182   53.0919 C   0  0  0  0  0  0  0  0  0  0  0  0
   69.7136   49.2608   52.0467 C   0  0  0  0  0  0  0  0  0  0  0  0
   69.9413   49.6431   50.8585 O   0  0  0  0  0  0  0  0  0  0  0  0
   69.2608   48.0500   52.2451 O   0  0  0  0  0  0  0  0  0  0  0  0
   68.9967   47.5694   53.4506 C   0  0  0  0  0  0  0  0  0  0  0  0
   68.5210   46.2896   53.6351 C   0  0  0  0  0  0  0  0  0  0  0  0
   68.2380   45.7664   54.8831 C   0  0  0  0  0  0  0  0  0  0  0  0
   68.4624   46.6079   55.9495 C   0  0  0  0  0  0  0  0  0  0  0  0
   68.9376   47.8903   55.7859 C   0  0  0  0  0  0  0  0  0  0  0  0
   69.2109   48.3838   54.5278 C   0  0  0  0  0  0  0  0  0  0  0  0
   67.8079   42.2186   56.2405 C   0  0  0  0  0  0  0  0  0  0  0  0
   67.6288   41.7031   57.6021 C   0  0  0  0  0  0  0  0  0  0  0  0
   68.5705   40.6395   58.0299 C   0  0  0  0  0  0  0  0  0  0  0  0
   69.9229   40.8277   58.1716 C   0  0  0  0  0  0  0  0  0  0  0  0
   70.7728   39.8000   58.6016 C   0  0  0  0  0  0  0  0  0  0  0  0
   70.3014   38.5509   58.9061 C   0  0  0  0  0  0  0  0  0  0  0  0
   68.9334   38.3612   58.7612 C   0  0  0  0  0  0  0  0  0  0  0  0
   68.0891   39.3585   58.3409 C   0  0  0  0  0  0  0  0  0  0  0  0
   71.1011   37.4685   59.3515 N   0  0  0  0  0  0  0  0  0  0  0  0
   71.6995   36.5522   58.4480 C   0  0  0  0  0  0  0  0  0  0  0  0
   71.5235   35.2784   58.7152 N   0  0  0  0  0  0  0  0  0  0  0  0
   72.4375   36.9739   57.3175 N   0  0  0  0  0  0  0  0  0  0  0  0
  4  5  1  0
  5  6  2  0
  5 15  1  0
  6  7  1  0
  7  8  2  0
  7  9  1  0
  9 10  1  0
 10 11  1  0
 10 15  2  0
 11 12  2  0
 12  1  1  0
 12 13  1  0
  1  2  1  0
  2  3  2  0
  2 16  1  0
 16 17  1  0
 17 18  1  0
 18 19  2  0
 18 23  1  0
 19 20  1  0
 20 21  2  0
 21 24  1  0
 21 22  1  0
 24 25  1  0
 25 26  2  0
 25 27  1  0
 22 23  2  0
 13 14  2  0
 14 15  1  0
M  CHG  1  26   1
M  END
>  <minimizedAffinity>  (632) 
-8.62911

$$$$
data/reference_output_2/data/smiles/110485.pdb
     RDKit          3D

 24 26  0  0  0  0  0  0  0  0999 V2000
   71.1753   48.8048   58.0891 C   0  0  0  0  0  0  0  0  0  0  0  0
   70.8602   47.3829   57.9104 C   0  0  0  0  0  0  0  0  0  0  0  0
   71.5469   46.3011   58.4360 C   0  0  0  0  0  0  0  0  0  0  0  0
   70.9369   45.1286   58.0393 C   0  0  0  0  0  0  0  0  0  0  0  0
   71.1965   43.7931   58.2691 C   0  0  0  0  0  0  0  0  0  0  0  0
   70.3774   42.8224   57.7168 C   0  0  0  0  0  0  0  0  0  0  0  0
   69.3226   43.2796   56.9504 C   0  0  0  0  0  0  0  0  0  0  0  0
   69.0785   44.5821   56.7344 N   0  0  0  0  0  0  0  0  0  0  0  0
   69.8586   45.5431   57.2582 C   0  0  0  0  0  0  0  0  0  0  0  0
   69.8324   46.8915   57.1948 N   0  0  0  0  0  0  0  0  0  0  0  0
   68.6580   47.8023   56.3281 S   0  0  0  0  0  0  0  0  0  0  0  0
   67.2632   47.4628   56.7676 O   0  0  0  0  0  0  0  0  0  0  0  0
   68.8405   49.2881   56.5580 O   0  0  0  0  0  0  0  0  0  0  0  0
   68.7391   47.5176   54.6020 C   0  0  0  0  0  0  0  0  0  0  0  0
   69.5093   48.3074   53.7943 C   0  0  0  0  0  0  0  0  0  0  0  0
   69.5823   48.0941   52.4440 C   0  0  0  0  0  0  0  0  0  0  0  0
   68.8644   47.0550   51.8615 C   0  0  0  0  0  0  0  0  0  0  0  0
   68.0942   46.2716   52.6977 C   0  0  0  0  0  0  0  0  0  0  0  0
   67.1906   44.9636   51.9700 Cl  0  0  0  0  0  0  0  0  0  0  0  0
   68.0189   46.4836   54.0559 C   0  0  0  0  0  0  0  0  0  0  0  0
   72.7529   46.4200   59.2892 C   0  0  0  0  0  0  0  0  0  0  0  0
   72.3462   46.4659   60.7176 C   0  0  0  0  0  0  0  0  0  0  0  0
   71.8728   45.4408   61.2823 O   0  0  0  0  0  0  0  0  0  0  0  0
   72.4729   47.6216   61.4673 O   0  0  0  0  0  0  0  0  0  0  0  0
  1  2  1  0
  2  3  2  0
  2 10  1  0
  3 21  1  0
  3  4  1  0
 21 22  1  0
 22 23  2  0
 22 24  1  0
  4  5  2  0
  4  9  1  0
  5  6  1  0
  6  7  2  0
  7  8  1  0
  8  9  2  0
  9 10  1  0
 10 11  1  0
 11 12  2  0
 11 13  2  0
 11 14  1  0
 14 15  2  0
 14 20  1  0
 15 16  1  0
 16 17  2  0
 17 18  1  0
 18 19  1  0
 18 20  2  0
M  END
>  <minimizedAffinity>  (633) 
-8.62900

$$$$
data/200k_reference_output/data/smiles/47696.pdb
     RDKit          3D

 27 30  0  0  0  0  0  0  0  0999 V2000
   74.7394   34.3551   53.8266 N   0  0  0  0  0  0  0  0  0  0  0  0
   74.4601   33.9719   55.1417 C   0  0  0  0  0  0  0  0  0  0  0  0
   75.1903   33.1121   55.6950 O   0  0  0  0  0  0  0  0  0  0  0  0
   73.3484   34.5364   55.8944 C   0  0  1  0  0  0  0  0  0  0  0  0
   73.1923   33.9711   57.2748 C   0  0  0  0  0  0  0  0  0  0  0  0
   72.4025   35.0343   57.9495 C   0  0  0  0  0  0  0  0  0  0  0  0
   72.6356   36.1949   57.2452 C   0  0  0  0  0  0  0  0  0  0  0  0
   72.0045   37.3425   57.6834 C   0  0  0  0  0  0  0  0  0  0  0  0
   71.1648   37.3762   58.7789 C   0  0  0  0  0  0  0  0  0  0  0  0
   70.9299   36.2029   59.4888 C   0  0  0  0  0  0  0  0  0  0  0  0
   70.0898   36.2002   60.5959 C   0  0  0  0  0  0  0  0  0  0  0  0
   69.8869   35.0152   61.2690 C   0  0  0  0  0  0  0  0  0  0  0  0
   70.5032   33.8528   60.8555 C   0  0  0  0  0  0  0  0  0  0  0  0
   71.3306   33.8882   59.7551 C   0  0  0  0  0  0  0  0  0  0  0  0
   71.5650   35.0561   59.0455 C   0  0  0  0  0  0  0  0  0  0  0  0
   73.5144   35.9247   56.1795 O   0  0  0  0  0  0  0  0  0  0  0  0
   75.8126   33.8263   53.0639 N   0  0  0  0  0  0  0  0  0  0  0  0
   76.6480   35.1907   52.4041 S   0  0  0  0  0  0  0  0  0  0  0  0
   78.0251   35.3047   53.0154 O   0  0  0  0  0  0  0  0  0  0  0  0
   75.9255   36.4746   52.7613 O   0  0  0  0  0  0  0  0  0  0  0  0
   77.4364   34.7715   46.4468 C   0  0  0  0  0  0  0  0  0  0  0  0
   77.2271   34.8607   47.9152 C   0  0  0  0  0  0  0  0  0  0  0  0
   76.2578   34.0933   48.5380 C   0  0  0  0  0  0  0  0  0  0  0  0
   76.0797   34.1959   49.9219 C   0  0  0  0  0  0  0  0  0  0  0  0
   76.8509   35.0460   50.6794 C   0  0  0  0  0  0  0  0  0  0  0  0
   77.8198   35.8059   50.0183 C   0  0  0  0  0  0  0  0  0  0  0  0
   78.0115   35.7200   48.6559 C   0  0  0  0  0  0  0  0  0  0  0  0
 21 22  1  0
 22 23  2  0
 22 27  1  0
 23 24  1  0
 24 25  2  0
 25 18  1  0
 25 26  1  0
 18 19  2  0
 18 20  2  0
 18 17  1  0
 17  1  1  0
  1  2  1  0
  2  3  2  0
  4  2  1  1
  4  5  1  0
  4 16  1  0
  5  6  1  0
  6  7  2  0
  6 15  1  0
  7  8  1  0
  7 16  1  0
  8  9  2  0
  9 10  1  0
 10 11  1  0
 10 15  2  0
 11 12  2  0
 12 13  1  0
 13 14  2  0
 14 15  1  0
 26 27  2  0
M  END
>  <minimizedAffinity>  (634) 
-8.62893

$$$$
data/reference_output_2/data/smiles/100852.pdb
     RDKit          3D

 26 28  0  0  0  0  0  0  0  0999 V2000
   71.0361   39.7191   58.4601 C   0  0  0  0  0  0  0  0  0  0  0  0
   69.7470   40.1950   58.3834 C   0  0  0  0  0  0  0  0  0  0  0  0
   69.4757   41.5342   58.2276 C   0  0  0  0  0  0  0  0  0  0  0  0
   70.5011   42.4853   58.1372 C   0  0  0  0  0  0  0  0  0  0  0  0
   71.7836   41.9996   58.2142 C   0  0  0  0  0  0  0  0  0  0  0  0
   72.0540   40.6421   58.3731 C   0  0  0  0  0  0  0  0  0  0  0  0
   71.6598   35.5030   58.9547 C   0  0  0  0  0  0  0  0  0  0  0  0
   72.3889   36.2375   58.0426 C   0  0  0  0  0  0  0  0  0  0  0  0
   72.1848   37.5898   57.8891 C   0  0  0  0  0  0  0  0  0  0  0  0
   71.2489   38.2869   58.6271 C   0  0  0  0  0  0  0  0  0  0  0  0
   70.5209   37.5496   59.5373 C   0  0  0  0  0  0  0  0  0  0  0  0
   70.7223   36.1966   59.6948 C   0  0  0  0  0  0  0  0  0  0  0  0
   72.0330   32.9385   59.2459 N   0  0  0  0  0  0  0  0  0  0  0  0
   71.8641   34.0891   59.1249 C   0  0  0  0  0  0  0  0  0  0  0  0
   70.1041   44.1776   57.9113 S   0  0  0  0  0  0  0  0  0  0  0  0
   71.3575   44.9369   57.5508 O   0  0  0  0  0  0  0  0  0  0  0  0
   69.7085   44.6899   59.2813 O   0  0  0  0  0  0  0  0  0  0  0  0
   68.9054   44.4673   56.7447 N   0  0  0  0  0  0  0  0  0  0  0  0
   68.8242   45.5665   55.8568 C   0  0  0  0  0  0  0  0  0  0  0  0
   69.1840   46.8536   56.1821 C   0  0  0  0  0  0  0  0  0  0  0  0
   69.1098   47.9236   55.2907 C   0  0  0  0  0  0  0  0  0  0  0  0
   68.6570   47.7008   54.0189 C   0  0  0  0  0  0  0  0  0  0  0  0
   68.2984   46.4104   53.6968 C   0  0  0  0  0  0  0  0  0  0  0  0
   68.3819   45.4030   54.5771 N   0  0  0  0  0  0  0  0  0  0  0  0
   67.8024   46.1330   52.3196 C   0  0  0  0  0  0  0  0  0  0  0  0
   67.0732   44.9475   52.2796 O   0  0  0  0  0  0  0  0  0  0  0  0
 13 14  3  0
 14  7  1  0
  7  8  2  0
  7 12  1  0
  8  9  1  0
  9 10  2  0
 10  1  1  0
 10 11  1  0
  1  2  2  0
  1  6  1  0
  2  3  1  0
  3  4  2  0
  4 15  1  0
  4  5  1  0
 15 16  2  0
 15 17  2  0
 15 18  1  0
 18 19  1  0
 19 20  2  0
 19 24  1  0
 20 21  1  0
 21 22  2  0
 22 23  1  0
 23 25  1  0
 23 24  2  0
 25 26  1  0
  5  6  2  0
 11 12  2  0
M  END
>  <minimizedAffinity>  (635) 
-8.62746

$$$$
data/reference_output_2/data/smiles/198081.pdb
     RDKit          3D

 27 29  0  0  0  0  0  0  0  0999 V2000
   70.5722   51.4235   57.4652 C   0  0  1  0  0  0  0  0  0  0  0  0
   69.1066   51.7075   57.3482 C   0  0  0  0  0  0  0  0  0  0  0  0
   68.2612   50.4549   57.4069 C   0  0  0  0  0  0  0  0  0  0  0  0
   69.0237   49.2744   56.8445 C   0  0  1  0  0  0  0  0  0  0  0  0
   70.1464   48.9413   57.7391 C   0  0  0  0  0  0  0  0  0  0  0  0
   70.7940   50.1751   58.3119 C   0  0  0  0  0  0  0  0  0  0  0  0
   73.6396   51.4970   55.5036 C   0  0  2  0  0  0  0  0  0  0  0  0
   73.5615   53.0216   55.3789 C   0  0  0  0  0  0  0  0  0  0  0  0
   72.1341   53.4916   55.5692 C   0  0  0  0  0  0  0  0  0  0  0  0
   71.1951   52.3248   55.3029 C   0  0  0  0  0  0  0  0  0  0  0  0
   71.2954   51.2717   56.2588 N   0  0  1  0  0  0  0  0  0  0  0  0
   72.6865   51.0203   56.5744 C   0  0  0  0  0  0  0  0  0  0  0  0
   74.9498   51.2188   55.9844 O   0  0  0  0  0  0  0  0  0  0  0  0
   76.8481   49.7718   56.2737 N   0  0  0  0  0  0  0  0  0  0  0  0
   75.6974   50.1507   55.5532 C   0  0  0  0  0  0  0  0  0  0  0  0
   75.3654   49.5176   54.5325 O   0  0  0  0  0  0  0  0  0  0  0  0
   68.1426   48.1989   56.3514 C   0  0  2  0  0  0  0  0  0  0  0  0
   67.4131   47.7272   57.5870 N   0  0  0  0  0  0  0  0  0  0  0  0
   68.7463   46.9933   55.7391 C   0  0  0  0  0  0  0  0  0  0  0  0
   68.6345   46.8507   54.2839 C   0  0  0  0  0  0  0  0  0  0  0  0
   67.8170   45.8783   53.6878 C   0  0  0  0  0  0  0  0  0  0  0  0
   67.7009   45.7932   52.3186 C   0  0  0  0  0  0  0  0  0  0  0  0
   66.9114   44.8537   51.7230 F   0  0  0  0  0  0  0  0  0  0  0  0
   68.3731   46.6487   51.4719 C   0  0  0  0  0  0  0  0  0  0  0  0
   69.1785   47.6076   52.0475 C   0  0  0  0  0  0  0  0  0  0  0  0
   69.2950   47.6921   53.4144 C   0  0  0  0  0  0  0  0  0  0  0  0
   70.0943   48.6449   53.9995 F   0  0  0  0  0  0  0  0  0  0  0  0
 14 15  1  0
 15 16  2  0
 15 13  1  0
  7 13  1  1
  7  8  1  0
  7 12  1  0
  8  9  1  0
  9 10  1  0
 11 10  1  6
 11  1  1  0
 11 12  1  0
  1  2  1  6
  1  6  1  0
  2  3  1  0
  4  3  1  1
  4 17  1  0
  4  5  1  0
 17 18  1  1
 17 19  1  0
 19 20  1  0
 20 21  2  0
 20 26  1  0
 21 22  1  0
 22 23  1  0
 22 24  2  0
 24 25  1  0
 25 26  2  0
 26 27  1  0
  5  6  1  0
M  CHG  2  11   1  18   1
M  END
>  <minimizedAffinity>  (636) 
-8.62738

$$$$
data/reference_output_2/data/smiles/147552.pdb
     RDKit          3D

 26 28  0  0  0  0  0  0  0  0999 V2000
   68.8029   42.5325   57.1452 C   0  0  0  0  0  0  0  0  0  0  0  0
   68.9784   43.7635   56.6588 N   0  0  0  0  0  0  0  0  0  0  0  0
   68.2273   44.3166   55.6799 C   0  0  0  0  0  0  0  0  0  0  0  0
   67.2433   43.5653   55.1715 N   0  0  0  0  0  0  0  0  0  0  0  0
   67.0098   42.3181   55.6134 C   0  0  0  0  0  0  0  0  0  0  0  0
   66.0759   41.6592   55.1027 O   0  0  0  0  0  0  0  0  0  0  0  0
   67.7890   41.7769   56.6120 C   0  0  0  0  0  0  0  0  0  0  0  0
   67.5771   40.4827   57.0976 O   0  0  0  0  0  0  0  0  0  0  0  0
   68.4858   45.6692   55.1988 C   0  0  0  0  0  0  0  0  0  0  0  0
   68.9408   46.6713   56.0146 C   0  0  0  0  0  0  0  0  0  0  0  0
   69.1798   47.9602   55.5250 C   0  0  0  0  0  0  0  0  0  0  0  0
   68.9560   48.2455   54.1924 C   0  0  0  0  0  0  0  0  0  0  0  0
   69.1765   49.4960   53.6694 F   0  0  0  0  0  0  0  0  0  0  0  0
   68.4986   47.2456   53.3627 C   0  0  0  0  0  0  0  0  0  0  0  0
   68.2689   45.9744   53.8685 C   0  0  0  0  0  0  0  0  0  0  0  0
   69.6202   42.4793   59.3558 O   0  0  0  0  0  0  0  0  0  0  0  0
   69.6319   41.9538   58.2036 C   0  0  0  0  0  0  0  0  0  0  0  0
   70.4499   40.8285   57.9966 N   0  0  0  0  0  0  0  0  0  0  0  0
   71.2616   40.2590   59.0430 C   0  0  0  0  0  0  0  0  0  0  0  0
   71.3235   38.7772   59.0197 C   0  0  0  0  0  0  0  0  0  0  0  0
   72.1688   38.1513   58.0951 C   0  0  0  0  0  0  0  0  0  0  0  0
   72.2930   36.7875   58.0112 C   0  0  0  0  0  0  0  0  0  0  0  0
   71.5803   35.9594   58.8451 C   0  0  0  0  0  0  0  0  0  0  0  0
   71.7562   34.2238   58.7160 Cl  0  0  0  0  0  0  0  0  0  0  0  0
   70.7388   36.5578   59.7664 C   0  0  0  0  0  0  0  0  0  0  0  0
   70.6079   37.9507   59.8577 C   0  0  0  0  0  0  0  0  0  0  0  0
 16 17  2  0
 17 18  1  0
 17  1  1  0
 18 19  1  0
 19 20  1  0
 20 21  2  0
 20 26  1  0
 21 22  1  0
 22 23  2  0
 23 24  1  0
 23 25  1  0
 25 26  2  0
  1  2  1  0
  1  7  2  0
  2  3  2  0
  3  9  1  0
  3  4  1  0
  9 10  2  0
  9 15  1  0
 10 11  1  0
 11 12  2  0
 12 13  1  0
 12 14  1  0
 14 15  2  0
  4  5  1  0
  5  6  2  0
  5  7  1  0
  7  8  1  0
M  END
>  <minimizedAffinity>  (637) 
-8.62637

$$$$
data/200k_reference_output/data/smiles/68635.pdb
     RDKit          3D

 26 28  0  0  0  0  0  0  0  0999 V2000
   69.1705   47.0679   57.6245 O   0  0  0  0  0  0  0  0  0  0  0  0
   68.7977   48.0401   56.7410 C   0  0  0  0  0  0  0  0  0  0  0  0
   67.9591   48.8857   57.2413 O   0  0  0  0  0  0  0  0  0  0  0  0
   69.2079   48.2364   55.3648 C   0  0  0  0  0  0  0  0  0  0  0  0
   70.0645   49.3108   55.0668 C   0  0  0  0  0  0  0  0  0  0  0  0
   70.4781   49.5341   53.7776 C   0  0  0  0  0  0  0  0  0  0  0  0
   71.2436   50.5098   53.5730 O   0  0  0  0  0  0  0  0  0  0  0  0
   70.1016   48.7634   52.7516 N   0  0  0  0  0  0  0  0  0  0  0  0
   69.2830   47.7262   52.9934 C   0  0  0  0  0  0  0  0  0  0  0  0
   68.9123   46.9503   51.9138 C   0  0  0  0  0  0  0  0  0  0  0  0
   68.0746   45.8875   52.1526 C   0  0  0  0  0  0  0  0  0  0  0  0
   67.6291   45.6161   53.4203 C   0  0  0  0  0  0  0  0  0  0  0  0
   67.9970   46.3890   54.5028 C   0  0  0  0  0  0  0  0  0  0  0  0
   68.8339   47.4577   54.2940 C   0  0  0  0  0  0  0  0  0  0  0  0
   70.4585   46.7566   58.0672 C   0  0  0  0  0  0  0  0  0  0  0  0
   69.7904   44.4222   58.9155 N   0  0  0  0  0  0  0  0  0  0  0  0
   70.6689   45.3072   58.2509 C   0  0  0  0  0  0  0  0  0  0  0  0
   71.7433   44.8444   57.7512 O   0  0  0  0  0  0  0  0  0  0  0  0
   69.8388   42.5065   60.4425 C   0  0  0  0  0  0  0  0  0  0  0  0
   70.1199   43.0023   59.0333 C   0  0  1  0  0  0  0  0  0  0  0  0
   69.2907   42.2111   58.1141 C   0  0  0  0  0  0  0  0  0  0  0  0
   69.1662   40.8534   58.2966 C   0  0  0  0  0  0  0  0  0  0  0  0
   68.3940   40.0847   57.4475 C   0  0  0  0  0  0  0  0  0  0  0  0
   67.7298   40.6732   56.3931 C   0  0  0  0  0  0  0  0  0  0  0  0
   67.8467   42.0324   56.1989 C   0  0  0  0  0  0  0  0  0  0  0  0
   68.6219   42.7832   57.0569 C   0  0  0  0  0  0  0  0  0  0  0  0
 20 19  1  1
 20 16  1  0
 20 21  1  0
 16 17  1  0
 17 18  2  0
 17 15  1  0
 15  1  1  0
  1  2  1  0
  2  3  2  0
  2  4  1  0
  4  5  2  0
  4 14  1  0
  5  6  1  0
  6  7  2  0
  6  8  1  0
  8  9  1  0
  9 10  1  0
  9 14  2  0
 10 11  2  0
 11 12  1  0
 12 13  2  0
 13 14  1  0
 21 22  2  0
 21 26  1  0
 22 23  1  0
 23 24  2  0
 24 25  1  0
 25 26  2  0
M  END
>  <minimizedAffinity>  (638) 
-8.62625

$$$$
data/200k_reference_output/data/smiles/11073.pdb
     RDKit          3D

 25 26  0  0  0  0  0  0  0  0999 V2000
   73.5601   50.2954   53.6214 O   0  0  0  0  0  0  0  0  0  0  0  0
   72.9373   50.7718   54.5917 C   0  0  0  0  0  0  0  0  0  0  0  0
   73.7262   51.2650   55.6693 N   0  0  0  0  0  0  0  0  0  0  0  0
   75.1252   51.2406   55.6892 N   0  0  0  0  0  0  0  0  0  0  0  0
   75.8806   50.0860   55.9998 C   0  0  0  0  0  0  0  0  0  0  0  0
   75.2199   49.0476   56.2646 O   0  0  0  0  0  0  0  0  0  0  0  0
   77.3339   50.0245   56.0305 C   0  0  0  0  0  0  0  0  0  0  0  0
   78.0019   49.0954   55.2619 C   0  0  0  0  0  0  0  0  0  0  0  0
   79.3831   48.9932   55.2544 C   0  0  0  0  0  0  0  0  0  0  0  0
   80.1130   49.8557   56.0451 C   0  0  0  0  0  0  0  0  0  0  0  0
   81.3828   49.7872   56.0598 O   0  0  0  0  0  0  0  0  0  0  0  0
   79.4604   50.7610   56.7939 N   0  0  0  0  0  0  0  0  0  0  0  0
   78.1022   50.8634   56.8041 C   0  0  0  0  0  0  0  0  0  0  0  0
   71.4555   50.8066   54.5889 C   0  0  0  0  0  0  0  0  0  0  0  0
   70.9763   50.2688   53.4083 O   0  0  0  0  0  0  0  0  0  0  0  0
   70.2782   49.1224   53.1887 C   0  0  0  0  0  0  0  0  0  0  0  0
   70.0794   48.5983   51.9366 C   0  0  0  0  0  0  0  0  0  0  0  0
   69.3567   47.4143   51.7497 C   0  0  0  0  0  0  0  0  0  0  0  0
   68.8342   46.7611   52.8363 C   0  0  0  0  0  0  0  0  0  0  0  0
   69.0209   47.2686   54.1047 C   0  0  0  0  0  0  0  0  0  0  0  0
   69.7368   48.4352   54.2546 C   0  0  0  0  0  0  0  0  0  0  0  0
   68.4320   46.5171   55.2428 C   0  0  0  0  0  0  0  0  0  0  0  0
   69.4213   46.1654   56.1382 F   0  0  0  0  0  0  0  0  0  0  0  0
   67.5105   47.2836   55.9251 F   0  0  0  0  0  0  0  0  0  0  0  0
   67.8886   45.3600   54.7348 F   0  0  0  0  0  0  0  0  0  0  0  0
  1  2  2  0
  2 14  1  0
  2  3  1  0
 14 15  1  0
 15 16  1  0
 16 17  2  0
 16 21  1  0
 17 18  1  0
 18 19  2  0
 19 20  1  0
 20 22  1  0
 20 21  2  0
 22 23  1  0
 22 24  1  0
 22 25  1  0
  3  4  1  0
  4  5  1  0
  5  6  2  0
  5  7  1  0
  7  8  1  0
  7 13  2  0
  8  9  2  0
  9 10  1  0
 10 11  2  0
 10 12  1  0
 12 13  1  0
M  END
>  <minimizedAffinity>  (639) 
-8.62516

$$$$
data/200k_reference_output/data/smiles/21959.pdb
     RDKit          3D

 24 26  0  0  0  0  0  0  0  0999 V2000
   68.0500   46.6940   54.4502 C   0  0  2  0  0  0  0  0  0  0  0  0
   67.7233   46.2307   53.0835 C   0  0  0  0  0  0  0  0  0  0  0  0
   68.7223   46.4785   52.0094 C   0  0  0  0  0  0  0  0  0  0  0  0
   69.4769   47.7590   52.1272 C   0  0  0  0  0  0  0  0  0  0  0  0
   69.1620   48.5261   53.2953 N   0  0  0  0  0  0  0  0  0  0  0  0
   69.0687   47.7738   54.4958 C   0  0  0  0  0  0  0  0  0  0  0  0
   69.2503   45.6966   56.2806 O   0  0  0  0  0  0  0  0  0  0  0  0
   68.4130   45.5502   55.3603 C   0  0  0  0  0  0  0  0  0  0  0  0
   67.8248   44.2613   55.2130 N   0  0  0  0  0  0  0  0  0  0  0  0
   68.1704   43.1746   56.0759 C   0  0  0  0  0  0  0  0  0  0  0  0
   67.4476   42.0173   56.1633 C   0  0  0  0  0  0  0  0  0  0  0  0
   67.8338   41.0065   57.0194 C   0  0  0  0  0  0  0  0  0  0  0  0
   68.9512   41.1039   57.8230 C   0  0  0  0  0  0  0  0  0  0  0  0
   69.6827   42.2727   57.7372 C   0  0  0  0  0  0  0  0  0  0  0  0
   70.7915   42.3932   58.5219 F   0  0  0  0  0  0  0  0  0  0  0  0
   69.2954   43.2956   56.8733 C   0  0  0  0  0  0  0  0  0  0  0  0
   69.9854   50.0012   53.3983 S   0  0  0  0  0  0  0  0  0  0  0  0
   71.4281   49.7006   53.7263 O   0  0  0  0  0  0  0  0  0  0  0  0
   69.9640   50.6838   52.0664 O   0  0  0  0  0  0  0  0  0  0  0  0
   69.3372   51.0773   54.6109 C   0  0  0  0  0  0  0  0  0  0  0  0
   69.3515   52.4536   54.5560 C   0  0  0  0  0  0  0  0  0  0  0  0
   68.7557   52.8964   55.6768 N   0  0  0  0  0  0  0  0  0  0  0  0
   68.3751   51.8441   56.4156 C   0  0  0  0  0  0  0  0  0  0  0  0
   68.7369   50.7402   55.7511 N   0  0  0  0  0  0  0  0  0  0  0  0
  7  8  2  0
  8  9  1  0
  1  8  1  1
  9 10  1  0
 10 11  2  0
 10 16  1  0
 11 12  1  0
 12 13  2  0
 13 14  1  0
 14 15  1  0
 14 16  2  0
  1  2  1  0
  1  6  1  0
  2  3  1  0
  3  4  1  0
  4  5  1  0
  5 17  1  0
  5  6  1  0
 17 18  2  0
 17 19  2  0
 17 20  1  0
 20 21  2  0
 20 24  1  0
 21 22  1  0
 22 23  1  0
 23 24  2  0
M  CHG  1  24   1
M  END
>  <minimizedAffinity>  (640) 
-8.62474

$$$$
data/200k_reference_output/data/smiles/48796.pdb
     RDKit          3D

 25 27  0  0  0  0  0  0  0  0999 V2000
   67.1504   47.5322   56.6441 O   0  0  0  0  0  0  0  0  0  0  0  0
   68.5610   47.8858   56.1490 P   0  0  0  0  0  0  0  0  0  0  0  0
   69.6882   46.9752   57.1729 C   0  0  0  0  0  0  0  0  0  0  0  0
   70.6111   47.6086   57.9731 C   0  0  0  0  0  0  0  0  0  0  0  0
   71.4887   46.9126   58.7700 C   0  0  0  0  0  0  0  0  0  0  0  0
   71.4779   45.5297   58.7998 C   0  0  0  0  0  0  0  0  0  0  0  0
   70.5697   44.8787   58.0143 C   0  0  0  0  0  0  0  0  0  0  0  0
   69.7048   45.5757   57.2276 C   0  0  0  0  0  0  0  0  0  0  0  0
   68.7906   44.8830   56.4365 O   0  0  0  0  0  0  0  0  0  0  0  0
   72.6500   47.7437   59.7763 S   0  0  0  0  0  0  0  0  0  0  0  0
   72.6952   49.2053   59.4787 O   0  0  0  0  0  0  0  0  0  0  0  0
   72.2665   47.5974   61.2309 O   0  0  0  0  0  0  0  0  0  0  0  0
   74.1517   47.0227   59.5294 O   0  0  0  0  0  0  0  0  0  0  0  0
   68.7195   49.6454   56.3768 C   0  0  0  0  0  0  0  0  0  0  0  0
   69.6656   50.4002   55.7183 C   0  0  0  0  0  0  0  0  0  0  0  0
   69.7589   51.7664   55.9197 C   0  0  0  0  0  0  0  0  0  0  0  0
   68.8991   52.3992   56.7907 C   0  0  0  0  0  0  0  0  0  0  0  0
   67.9409   51.6672   57.4625 C   0  0  0  0  0  0  0  0  0  0  0  0
   67.8708   50.3096   57.2428 C   0  0  0  0  0  0  0  0  0  0  0  0
   68.6302   47.4055   54.4483 C   0  0  0  0  0  0  0  0  0  0  0  0
   69.4658   48.0148   53.5142 C   0  0  0  0  0  0  0  0  0  0  0  0
   69.5195   47.6460   52.2075 C   0  0  0  0  0  0  0  0  0  0  0  0
   68.7205   46.6213   51.7452 C   0  0  0  0  0  0  0  0  0  0  0  0
   67.8761   45.9904   52.6391 C   0  0  0  0  0  0  0  0  0  0  0  0
   67.8387   46.3829   53.9646 C   0  0  0  0  0  0  0  0  0  0  0  0
  1  2  2  0
  2 14  1  0
  2 20  1  0
  2  3  1  0
 14 15  2  0
 14 19  1  0
 15 16  1  0
 16 17  2  0
 17 18  1  0
 18 19  2  0
 20 21  2  0
 20 25  1  0
 21 22  1  0
 22 23  2  0
 23 24  1  0
 24 25  2  0
  3  4  2  0
  3  8  1  0
  4  5  1  0
  5 10  1  0
  5  6  2  0
 10 11  2  0
 10 12  2  0
 10 13  1  0
  6  7  1  0
  7  8  2  0
  8  9  1  0
M  CHG  1  13  -1
M  END
>  <minimizedAffinity>  (641) 
-8.62474

$$$$
data/reference_output_2/data/smiles/127532.pdb
     RDKit          3D

 28 31  0  0  0  0  0  0  0  0999 V2000
   69.8630   42.2393   58.1350 N   0  0  0  0  0  0  0  0  0  0  0  0
   70.5423   43.4720   58.1646 C   0  0  0  0  0  0  0  0  0  0  0  0
   69.9080   44.4998   57.8315 O   0  0  0  0  0  0  0  0  0  0  0  0
   71.9362   43.5871   58.5644 C   0  0  0  0  0  0  0  0  0  0  0  0
   72.7655   42.3808   58.4547 C   0  0  0  0  0  0  0  0  0  0  0  0
   72.0067   41.1410   58.4192 N   0  0  0  0  0  0  0  0  0  0  0  0
   72.5064   39.9201   58.5250 N   0  0  0  0  0  0  0  0  0  0  0  0
   71.5317   39.0281   58.4506 C   0  0  0  0  0  0  0  0  0  0  0  0
   70.3542   39.7235   58.2895 C   0  0  0  0  0  0  0  0  0  0  0  0
   70.6892   41.0653   58.2730 C   0  0  0  0  0  0  0  0  0  0  0  0
   71.6262   37.5512   58.5238 C   0  0  0  0  0  0  0  0  0  0  0  0
   72.3964   36.9089   57.5713 C   0  0  0  0  0  0  0  0  0  0  0  0
   72.5294   35.5231   57.5772 C   0  0  0  0  0  0  0  0  0  0  0  0
   71.8660   34.8291   58.5663 C   0  0  0  0  0  0  0  0  0  0  0  0
   71.0953   35.4806   59.5182 C   0  0  0  0  0  0  0  0  0  0  0  0
   70.9690   36.8623   59.5026 C   0  0  0  0  0  0  0  0  0  0  0  0
   68.4483   42.1144   57.9810 C   0  0  0  0  0  0  0  0  0  0  0  0
   67.8127   43.6575   56.0543 N   0  0  0  0  0  0  0  0  0  0  0  0
   67.9912   42.3668   56.5967 C   0  0  0  0  0  0  0  0  0  0  0  0
   67.7517   41.3728   55.8741 O   0  0  0  0  0  0  0  0  0  0  0  0
   67.3710   43.9518   54.7115 C   0  0  0  0  0  0  0  0  0  0  0  0
   69.6191   48.9011   52.6750 C   0  0  0  0  0  0  0  0  0  0  0  0
   69.0461   47.6428   53.2131 C   0  0  0  0  0  0  0  0  0  0  0  0
   68.5066   46.6880   52.3776 C   0  0  0  0  0  0  0  0  0  0  0  0
   67.9761   45.5223   52.8776 C   0  0  0  0  0  0  0  0  0  0  0  0
   67.9510   45.2353   54.2504 C   0  0  0  0  0  0  0  0  0  0  0  0
   68.4929   46.1955   55.0756 C   0  0  0  0  0  0  0  0  0  0  0  0
   69.0279   47.3709   54.5725 C   0  0  0  0  0  0  0  0  0  0  0  0
 22 23  1  0
 23 24  2  0
 23 28  1  0
 24 25  1  0
 25 26  2  0
 26 21  1  0
 26 27  1  0
 21 18  1  0
 18 19  1  0
 19 20  2  0
 19 17  1  0
 17  1  1  0
  1  2  1  0
  1 10  1  0
  2  3  2  0
  2  4  1  0
  4  5  1  0
  5  6  1  0
  6  7  1  0
  6 10  1  0
  7  8  2  0
  8 11  1  0
  8  9  1  0
 11 12  2  0
 11 16  1  0
 12 13  1  0
 13 14  2  0
 14 15  1  0
 15 16  2  0
  9 10  2  0
 27 28  2  0
M  END
>  <minimizedAffinity>  (642) 
-8.62468

$$$$
data/200k_reference_output/data/smiles/60537.pdb
     RDKit          3D

 25 27  0  0  0  0  0  0  0  0999 V2000
   70.6344   43.9191   58.3533 O   0  0  0  0  0  0  0  0  0  0  0  0
   69.6722   43.7205   57.5547 C   0  0  0  0  0  0  0  0  0  0  0  0
   69.1831   44.8657   56.8735 N   0  0  0  0  0  0  0  0  0  0  0  0
   69.1431   42.3759   57.3909 C   0  0  0  0  0  0  0  0  0  0  0  0
   68.0235   42.1896   56.5979 C   0  0  0  0  0  0  0  0  0  0  0  0
   67.5045   40.9056   56.4313 C   0  0  0  0  0  0  0  0  0  0  0  0
   68.0958   39.8378   57.0468 C   0  0  0  0  0  0  0  0  0  0  0  0
   69.2049   39.9879   57.8385 C   0  0  0  0  0  0  0  0  0  0  0  0
   69.7055   41.2714   57.9904 C   0  0  0  0  0  0  0  0  0  0  0  0
   69.8826   38.8914   58.5182 C   0  0  0  0  0  0  0  0  0  0  0  0
   71.2136   38.5767   58.2543 C   0  0  0  0  0  0  0  0  0  0  0  0
   71.7720   37.5570   58.9162 N   0  0  0  0  0  0  0  0  0  0  0  0
   71.1373   36.8095   59.8232 C   0  0  0  0  0  0  0  0  0  0  0  0
   69.8595   37.0868   60.0973 N   0  0  0  0  0  0  0  0  0  0  0  0
   69.2568   38.1010   59.4583 C   0  0  0  0  0  0  0  0  0  0  0  0
   69.7294   46.1442   57.0658 N   0  0  0  0  0  0  0  0  0  0  0  0
   68.8141   47.3546   56.2536 S   0  0  0  0  0  0  0  0  0  0  0  0
   69.4686   48.6759   56.4828 O   0  0  0  0  0  0  0  0  0  0  0  0
   67.4210   47.4372   56.8287 O   0  0  0  0  0  0  0  0  0  0  0  0
   68.6795   47.0661   54.5529 C   0  0  0  0  0  0  0  0  0  0  0  0
   69.3285   47.9282   53.6955 C   0  0  0  0  0  0  0  0  0  0  0  0
   69.2814   47.7829   52.3351 C   0  0  0  0  0  0  0  0  0  0  0  0
   68.5688   46.7484   51.7565 C   0  0  0  0  0  0  0  0  0  0  0  0
   67.9153   45.8776   52.6080 C   0  0  0  0  0  0  0  0  0  0  0  0
   67.9664   46.0291   53.9796 C   0  0  0  0  0  0  0  0  0  0  0  0
  1  2  2  0
  2  3  1  0
  2  4  1  0
  3 16  1  0
 16 17  1  0
 17 18  2  0
 17 19  2  0
 17 20  1  0
 20 21  2  0
 20 25  1  0
 21 22  1  0
 22 23  2  0
 23 24  1  0
 24 25  2  0
  4  5  2  0
  4  9  1  0
  5  6  1  0
  6  7  2  0
  7  8  1  0
  8 10  1  0
  8  9  2  0
 10 11  2  0
 10 15  1  0
 11 12  1  0
 12 13  2  0
 13 14  1  0
 14 15  2  0
M  END
>  <minimizedAffinity>  (643) 
-8.62325

$$$$
data/200k_reference_output/data/smiles/43248.pdb
     RDKit          3D

 26 28  0  0  0  0  0  0  0  0999 V2000
   70.6390   51.0538   56.3625 C   0  0  2  0  0  0  0  0  0  0  0  0
   70.1005   49.9921   55.5338 N   0  0  0  0  0  0  0  0  0  0  0  0
   70.5279   49.8745   54.2052 C   0  0  0  0  0  0  0  0  0  0  0  0
   71.4105   50.7715   53.8213 O   0  0  0  0  0  0  0  0  0  0  0  0
   70.1461   48.9336   53.2301 N   0  0  0  0  0  0  0  0  0  0  0  0
   70.6628   48.9646   51.9840 N   0  0  0  0  0  0  0  0  0  0  0  0
   70.1831   48.0136   51.2335 N   0  0  0  0  0  0  0  0  0  0  0  0
   69.3059   47.2823   51.9487 C   0  0  0  0  0  0  0  0  0  0  0  0
   68.5338   46.1849   51.6398 C   0  0  0  0  0  0  0  0  0  0  0  0
   67.7274   45.6760   52.6335 C   0  0  0  0  0  0  0  0  0  0  0  0
   67.7143   46.2663   53.8858 C   0  0  0  0  0  0  0  0  0  0  0  0
   68.4984   47.3634   54.1641 C   0  0  0  0  0  0  0  0  0  0  0  0
   69.3102   47.8995   53.2122 C   0  0  0  0  0  0  0  0  0  0  0  0
   71.1559   50.4389   57.6126 C   0  0  0  0  0  0  0  0  0  0  0  0
   71.4562   51.1310   58.6283 O   0  0  0  0  0  0  0  0  0  0  0  0
   71.3444   49.0342   57.7350 N   0  0  0  0  0  0  0  0  0  0  0  0
   71.8460   48.3932   58.9342 C   0  0  0  0  0  0  0  0  0  0  0  0
   71.3850   46.9374   58.8705 C   0  0  0  0  0  0  0  0  0  0  0  0
   72.1532   46.1275   59.8611 C   0  0  0  0  0  0  0  0  0  0  0  0
   72.7776   47.0292   60.9024 C   0  0  0  0  0  0  0  0  0  0  0  0
   73.8110   47.9451   60.3334 C   0  0  0  0  0  0  0  0  0  0  0  0
   73.3742   48.3382   58.9279 C   0  0  0  0  0  0  0  0  0  0  0  0
   69.6128   52.0966   56.7059 C   0  0  1  0  0  0  0  0  0  0  0  0
   70.0419   53.4714   56.2430 C   0  0  0  0  0  0  0  0  0  0  0  0
   67.4638   51.1457   57.3610 C   0  0  0  0  0  0  0  0  0  0  0  0
   68.2407   51.7738   56.2225 C   0  0  0  0  0  0  0  0  0  0  0  0
 25 26  1  0
 26 23  1  0
 23 24  1  6
 23  1  1  0
  1  2  1  6
  1 14  1  0
  2  3  1  0
  3  4  2  0
  3  5  1  0
  5  6  1  0
  5 13  1  0
  6  7  2  0
  7  8  1  0
  8  9  1  0
  8 13  2  0
  9 10  2  0
 10 11  1  0
 11 12  2  0
 12 13  1  0
 14 15  2  0
 14 16  1  0
 16 17  1  0
 17 18  1  0
 17 22  1  0
 18 19  1  0
 19 20  1  0
 20 21  1  0
 21 22  1  0
M  END
>  <minimizedAffinity>  (644) 
-8.62227

$$$$
data/reference_output_2/data/smiles/153799.pdb
     RDKit          3D

 26 28  0  0  0  0  0  0  0  0999 V2000
   69.0437   41.6871   60.1570 C   0  0  0  0  0  0  0  0  0  0  0  0
   68.6126   40.8897   58.9995 C   0  0  0  0  0  0  0  0  0  0  0  0
   68.5359   41.2904   57.6886 C   0  0  0  0  0  0  0  0  0  0  0  0
   68.0610   40.1965   57.0105 N   0  0  0  0  0  0  0  0  0  0  0  0
   67.8306   40.1644   55.6426 O   0  0  0  0  0  0  0  0  0  0  0  0
   67.8578   39.1816   57.8512 C   0  0  0  0  0  0  0  0  0  0  0  0
   68.1941   39.5999   59.0697 N   0  0  0  0  0  0  0  0  0  0  0  0
   68.8818   42.5488   57.0666 C   0  0  0  0  0  0  0  0  0  0  0  0
   70.1238   42.8613   57.0395 O   0  0  0  0  0  0  0  0  0  0  0  0
   68.0306   43.4928   56.4811 N   0  0  0  0  0  0  0  0  0  0  0  0
   68.4761   44.6896   55.8986 N   0  0  0  0  0  0  0  0  0  0  0  0
   68.0342   45.1674   54.8094 C   0  0  0  0  0  0  0  0  0  0  0  0
   68.5034   46.4130   54.2101 C   0  0  0  0  0  0  0  0  0  0  0  0
   68.9163   47.4826   54.9703 C   0  0  0  0  0  0  0  0  0  0  0  0
   69.3560   48.6480   54.3501 C   0  0  0  0  0  0  0  0  0  0  0  0
   69.3964   48.7854   52.9777 C   0  0  0  0  0  0  0  0  0  0  0  0
   68.9804   47.7079   52.2189 C   0  0  0  0  0  0  0  0  0  0  0  0
   68.5433   46.5481   52.8374 C   0  0  0  0  0  0  0  0  0  0  0  0
   68.1220   45.4583   52.0660 O   0  0  0  0  0  0  0  0  0  0  0  0
   68.1347   38.7974   60.2913 C   0  0  0  0  0  0  0  0  0  0  0  0
   66.8296   38.0922   60.3448 C   0  0  0  0  0  0  0  0  0  0  0  0
   66.6658   36.7327   60.3610 C   0  0  0  0  0  0  0  0  0  0  0  0
   65.4055   36.1309   60.4087 C   0  0  0  0  0  0  0  0  0  0  0  0
   64.2778   36.9229   60.4422 C   0  0  0  0  0  0  0  0  0  0  0  0
   64.4110   38.2927   60.4273 C   0  0  0  0  0  0  0  0  0  0  0  0
   65.6632   38.8635   60.3797 C   0  0  0  0  0  0  0  0  0  0  0  0
  1  2  1  0
  2  3  2  0
  2  7  1  0
  3  8  1  0
  3  4  1  0
  8  9  2  0
  8 10  1  0
 10 11  1  0
 11 12  2  0
 12 13  1  0
 13 14  2  0
 13 18  1  0
 14 15  1  0
 15 16  2  0
 16 17  1  0
 17 18  2  0
 18 19  1  0
  4  5  1  0
  4  6  2  0
  6  7  1  0
  7 20  1  0
 20 21  1  0
 21 22  2  0
 21 26  1  0
 22 23  1  0
 23 24  2  0
 24 25  1  0
 25 26  2  0
M  CHG  2   4   1   5  -1
M  END
>  <minimizedAffinity>  (645) 
-8.62154

$$$$
data/200k_reference_output/data/smiles/51467.pdb
     RDKit          3D

 29 33  0  0  0  0  0  0  0  0999 V2000
   70.1875   49.4262   57.3012 C   0  0  0  0  0  0  0  0  0  0  0  0
   69.3819   48.3328   57.4611 C   0  0  0  0  0  0  0  0  0  0  0  0
   68.9033   47.6004   56.3638 C   0  0  0  0  0  0  0  0  0  0  0  0
   69.2313   47.9612   55.0879 C   0  0  0  0  0  0  0  0  0  0  0  0
   70.0426   49.0637   54.9287 C   0  0  0  0  0  0  0  0  0  0  0  0
   70.5194   49.7940   56.0203 C   0  0  0  0  0  0  0  0  0  0  0  0
   70.3851   49.4437   53.6378 C   0  0  0  0  0  0  0  0  0  0  0  0
   71.1252   50.4495   53.4896 O   0  0  0  0  0  0  0  0  0  0  0  0
   69.9301   48.7451   52.5813 N   0  0  0  0  0  0  0  0  0  0  0  0
   69.1371   47.6684   52.7398 C   0  0  0  0  0  0  0  0  0  0  0  0
   68.6860   46.9723   51.6314 C   0  0  0  0  0  0  0  0  0  0  0  0
   67.8800   45.8739   51.7541 C   0  0  0  0  0  0  0  0  0  0  0  0
   67.5214   45.4712   53.0333 C   0  0  0  0  0  0  0  0  0  0  0  0
   67.9441   46.1308   54.1647 C   0  0  0  0  0  0  0  0  0  0  0  0
   68.7557   47.2341   54.0025 C   0  0  0  0  0  0  0  0  0  0  0  0
   70.6954   50.1982   58.4303 C   0  0  0  0  0  0  0  0  0  0  0  0
   71.9910   49.7127   58.9978 C   0  0  1  0  0  0  0  0  0  0  0  0
   72.1908   48.2864   58.8092 N   0  0  0  0  0  0  0  0  0  0  0  0
   72.2507   47.3680   59.8935 C   0  0  0  0  0  0  0  0  0  0  0  0
   72.1258   47.7987   61.0749 O   0  0  0  0  0  0  0  0  0  0  0  0
   72.4568   45.9306   59.6380 C   0  0  1  0  0  0  0  0  0  0  0  0
   71.5541   45.0911   60.4016 N   0  0  0  0  0  0  0  0  0  0  0  0
   71.1315   44.0724   59.4617 C   0  0  2  0  0  0  0  0  0  0  0  0
   72.3452   43.3116   59.0089 C   0  0  0  0  0  0  0  0  0  0  0  0
   73.0935   44.2223   58.0309 C   0  0  0  0  0  0  0  0  0  0  0  0
   72.3150   45.5283   58.2108 C   0  0  1  0  0  0  0  0  0  0  0  0
   70.8928   44.9418   58.2137 C   0  0  0  0  0  0  0  0  0  0  0  0
   74.0494   51.1016   58.1662 N   0  0  0  0  0  0  0  0  0  0  0  0
   73.1454   50.4862   58.5421 C   0  0  0  0  0  0  0  0  0  0  0  0
 28 29  3  0
 17 29  1  6
 17 16  1  0
 17 18  1  0
 16  1  1  0
  1  2  2  0
  1  6  1  0
  2  3  1  0
  3  4  2  0
  4  5  1  0
  4 15  1  0
  5  6  2  0
  5  7  1  0
  7  8  2  0
  7  9  1  0
  9 10  1  0
 10 11  1  0
 10 15  2  0
 11 12  2  0
 12 13  1  0
 13 14  2  0
 14 15  1  0
 18 19  1  0
 19 20  2  0
 21 19  1  6
 21 22  1  0
 21 26  1  0
 22 23  1  0
 23 24  1  6
 23 27  1  0
 24 25  1  0
 26 25  1  1
 26 27  1  0
M  CHG  1  22   1
M  END
>  <minimizedAffinity>  (646) 
-8.62069

$$$$
data/200k_reference_output/data/smiles/21221.pdb
     RDKit          3D

 22 24  0  0  0  0  0  0  0  0999 V2000
   68.2506   44.5238   55.8274 N   0  0  0  0  0  0  0  0  0  0  0  0
   67.8522   45.0136   54.7063 C   0  0  0  0  0  0  0  0  0  0  0  0
   68.3883   46.2385   54.1295 C   0  0  0  0  0  0  0  0  0  0  0  0
   68.4169   47.4343   54.8127 C   0  0  0  0  0  0  0  0  0  0  0  0
   68.9427   48.5847   54.2128 C   0  0  0  0  0  0  0  0  0  0  0  0
   69.4419   48.5532   52.9355 C   0  0  0  0  0  0  0  0  0  0  0  0
   69.4176   47.3530   52.2401 C   0  0  0  0  0  0  0  0  0  0  0  0
   68.8931   46.2267   52.8493 C   0  0  0  0  0  0  0  0  0  0  0  0
   69.9620   47.6278   51.0418 N   0  0  0  0  0  0  0  0  0  0  0  0
   70.2840   48.8866   51.0258 O   0  0  0  0  0  0  0  0  0  0  0  0
   69.9920   49.4719   52.1322 N   0  0  0  0  0  0  0  0  0  0  0  0
   70.1950   50.7870   52.4517 O   0  0  0  0  0  0  0  0  0  0  0  0
   69.7703   42.9918   57.3613 O   0  0  0  0  0  0  0  0  0  0  0  0
   68.5875   42.5587   57.1958 C   0  0  0  0  0  0  0  0  0  0  0  0
   67.7352   43.3484   56.3799 N   0  0  0  0  0  0  0  0  0  0  0  0
   68.1494   41.3162   57.8212 C   0  0  0  0  0  0  0  0  0  0  0  0
   68.6456   40.0747   57.5107 C   0  0  0  0  0  0  0  0  0  0  0  0
   68.2120   38.9196   58.1200 C   0  0  0  0  0  0  0  0  0  0  0  0
   67.2374   38.9940   59.0849 C   0  0  0  0  0  0  0  0  0  0  0  0
   66.6107   37.4015   59.9525 Br  0  0  0  0  0  0  0  0  0  0  0  0
   66.7192   40.2035   59.4215 C   0  0  0  0  0  0  0  0  0  0  0  0
   67.1747   41.3601   58.7905 C   0  0  0  0  0  0  0  0  0  0  0  0
 13 14  2  0
 14 15  1  0
 14 16  1  0
 15  1  1  0
  1  2  2  0
  2  3  1  0
  3  4  1  0
  3  8  2  0
  4  5  2  0
  5  6  1  0
  6  7  1  0
  6 11  2  0
  7  8  1  0
  7  9  2  0
  9 10  1  0
 10 11  1  0
 11 12  1  0
 16 17  2  0
 16 22  1  0
 17 18  1  0
 18 19  2  0
 19 20  1  0
 19 21  1  0
 21 22  2  0
M  CHG  2  11   1  12  -1
M  END
>  <minimizedAffinity>  (647) 
-8.61746

$$$$
data/reference_output_2/data/smiles/100227.pdb
     RDKit          3D

 26 28  0  0  0  0  0  0  0  0999 V2000
   69.8643   45.4620   59.1076 O   0  0  0  0  0  0  0  0  0  0  0  0
   70.2728   44.9980   58.0011 C   0  0  0  0  0  0  0  0  0  0  0  0
   69.6519   45.5074   56.8401 N   0  0  0  0  0  0  0  0  0  0  0  0
   71.3285   43.9965   58.0274 C   0  0  0  0  0  0  0  0  0  0  0  0
   72.6585   44.3189   57.8867 C   0  0  0  0  0  0  0  0  0  0  0  0
   73.6456   43.3290   57.9183 C   0  0  0  0  0  0  0  0  0  0  0  0
   73.3135   42.0098   58.0904 C   0  0  0  0  0  0  0  0  0  0  0  0
   71.9744   41.6552   58.2363 C   0  0  0  0  0  0  0  0  0  0  0  0
   71.0423   42.6519   58.1999 C   0  0  0  0  0  0  0  0  0  0  0  0
   71.6369   40.2482   58.4189 C   0  0  0  0  0  0  0  0  0  0  0  0
   70.3649   39.8295   58.3456 N   0  0  0  0  0  0  0  0  0  0  0  0
   70.0271   38.5276   58.5110 C   0  0  0  0  0  0  0  0  0  0  0  0
   71.0194   37.5862   58.7660 C   0  0  0  0  0  0  0  0  0  0  0  0
   72.3227   38.0289   58.8377 C   0  0  0  0  0  0  0  0  0  0  0  0
   72.5893   39.3446   58.6625 N   0  0  0  0  0  0  0  0  0  0  0  0
   68.6425   46.4650   56.8469 N   0  0  0  0  0  0  0  0  0  0  0  0
   68.9987   47.8893   55.9722 S   0  0  0  0  0  0  0  0  0  0  0  0
   70.3753   48.3432   56.4359 O   0  0  0  0  0  0  0  0  0  0  0  0
   68.0709   49.0198   56.3293 O   0  0  0  0  0  0  0  0  0  0  0  0
   69.0718   47.6620   54.2385 C   0  0  0  0  0  0  0  0  0  0  0  0
   69.8473   48.5327   53.4549 C   0  0  0  0  0  0  0  0  0  0  0  0
   69.8977   48.3111   52.1047 C   0  0  0  0  0  0  0  0  0  0  0  0
   69.1997   47.2561   51.5379 C   0  0  0  0  0  0  0  0  0  0  0  0
   68.4474   46.4116   52.2999 C   0  0  0  0  0  0  0  0  0  0  0  0
   68.3760   46.6128   53.6814 C   0  0  0  0  0  0  0  0  0  0  0  0
   67.6072   45.7793   54.4377 F   0  0  0  0  0  0  0  0  0  0  0  0
  1  2  2  0
  2  3  1  0
  2  4  1  0
  3 16  1  0
 16 17  1  0
 17 18  2  0
 17 19  2  0
 17 20  1  0
 20 21  2  0
 20 25  1  0
 21 22  1  0
 22 23  2  0
 23 24  1  0
 24 25  2  0
 25 26  1  0
  4  5  2  0
  4  9  1  0
  5  6  1  0
  6  7  2  0
  7  8  1  0
  8 10  1  0
  8  9  2  0
 10 11  2  0
 10 15  1  0
 11 12  1  0
 12 13  2  0
 13 14  1  0
 14 15  2  0
M  END
>  <minimizedAffinity>  (648) 
-8.61707

$$$$
data/reference_output_2/data/smiles/180525.pdb
     RDKit          3D

 26 28  0  0  0  0  0  0  0  0999 V2000
   73.2280   51.9596   58.1698 C   0  0  0  0  0  0  0  0  0  0  0  0
   71.8473   52.0290   58.2743 C   0  0  0  0  0  0  0  0  0  0  0  0
   71.0914   50.8632   58.2822 C   0  0  0  0  0  0  0  0  0  0  0  0
   71.6727   49.6167   58.1893 C   0  0  0  0  0  0  0  0  0  0  0  0
   73.0365   49.5466   58.0863 C   0  0  0  0  0  0  0  0  0  0  0  0
   73.8126   50.7145   58.0769 C   0  0  0  0  0  0  0  0  0  0  0  0
   70.7516   48.4548   58.2090 C   0  0  0  0  0  0  0  0  0  0  0  0
   69.7593   48.7320   57.1978 N   0  0  0  0  0  0  0  0  0  0  0  0
   69.0533   49.9509   57.3397 C   0  0  0  0  0  0  0  0  0  0  0  0
   69.6100   50.8675   58.3923 C   0  0  0  0  0  0  0  0  0  0  0  0
   68.8036   47.3855   56.7843 S   0  0  0  0  0  0  0  0  0  0  0  0
   67.4086   47.6045   57.2493 O   0  0  0  0  0  0  0  0  0  0  0  0
   69.3215   46.1488   57.4554 O   0  0  0  0  0  0  0  0  0  0  0  0
   68.7838   47.2285   55.0414 C   0  0  0  0  0  0  0  0  0  0  0  0
   68.1302   46.1530   54.4681 C   0  0  0  0  0  0  0  0  0  0  0  0
   68.0983   46.0026   53.0808 C   0  0  0  0  0  0  0  0  0  0  0  0
   68.7222   46.9335   52.2759 C   0  0  0  0  0  0  0  0  0  0  0  0
   69.3787   48.0125   52.8220 C   0  0  0  0  0  0  0  0  0  0  0  0
   69.3969   48.1391   54.1988 C   0  0  0  0  0  0  0  0  0  0  0  0
   70.0286   48.9779   51.9516 C   0  0  0  0  0  0  0  0  0  0  0  0
   70.0147   50.2162   52.1774 O   0  0  0  0  0  0  0  0  0  0  0  0
   70.6870   48.5386   50.8358 O   0  0  0  0  0  0  0  0  0  0  0  0
   73.3481   54.3740   58.1906 C   0  0  0  0  0  0  0  0  0  0  0  0
   74.0119   53.1276   58.1595 O   0  0  0  0  0  0  0  0  0  0  0  0
   75.1949   50.6491   57.9725 O   0  0  0  0  0  0  0  0  0  0  0  0
   75.9287   50.1057   59.0520 C   0  0  0  0  0  0  0  0  0  0  0  0
 23 24  1  0
 24  1  1  0
  1  2  2  0
  1  6  1  0
  2  3  1  0
  3  4  2  0
  3 10  1  0
  4  5  1  0
  4  7  1  0
  5  6  2  0
  6 25  1  0
 25 26  1  0
  7  8  1  0
  8 11  1  0
  8  9  1  0
 11 12  2  0
 11 13  2  0
 11 14  1  0
 14 15  2  0
 14 19  1  0
 15 16  1  0
 16 17  2  0
 17 18  1  0
 18 20  1  0
 18 19  2  0
 20 21  2  0
 20 22  1  0
  9 10  1  0
M  END
>  <minimizedAffinity>  (649) 
-8.61659

$$$$
data/200k_reference_output/data/smiles/10589.pdb
     RDKit          3D

 26 28  0  0  0  0  0  0  0  0999 V2000
   69.1096   45.5200   56.8529 N   0  0  0  0  0  0  0  0  0  0  0  0
   69.5529   46.8402   57.0386 C   0  0  0  0  0  0  0  0  0  0  0  0
   70.6090   47.0153   57.7073 O   0  0  0  0  0  0  0  0  0  0  0  0
   69.3392   43.0730   57.1489 C   0  0  0  0  0  0  0  0  0  0  0  0
   68.2908   42.9410   56.4468 O   0  0  0  0  0  0  0  0  0  0  0  0
   69.7770   44.3951   57.3688 N   0  0  0  0  0  0  0  0  0  0  0  0
   71.2774   39.5764   58.7084 C   0  0  0  0  0  0  0  0  0  0  0  0
   69.9218   39.6152   58.4531 C   0  0  0  0  0  0  0  0  0  0  0  0
   69.3069   40.7444   57.9506 C   0  0  0  0  0  0  0  0  0  0  0  0
   70.0256   41.8906   57.6820 C   0  0  0  0  0  0  0  0  0  0  0  0
   71.3757   41.8533   57.9362 C   0  0  0  0  0  0  0  0  0  0  0  0
   71.9977   40.7221   58.4404 C   0  0  0  0  0  0  0  0  0  0  0  0
   71.9865   37.2582   58.1841 C   0  0  0  0  0  0  0  0  0  0  0  0
   71.9484   38.3615   59.2498 C   0  0  0  0  0  0  0  0  0  0  0  0
   68.8248   48.0251   56.4786 C   0  0  0  0  0  0  0  0  0  0  0  0
   69.3974   48.4159   55.2327 N   0  0  0  0  0  0  0  0  0  0  0  0
   70.2829   49.4252   55.1905 C   0  0  0  0  0  0  0  0  0  0  0  0
   70.6108   50.0324   56.2660 O   0  0  0  0  0  0  0  0  0  0  0  0
   70.8835   49.8665   54.0297 C   0  0  0  0  0  0  0  0  0  0  0  0
   70.5613   49.2481   52.8678 N   0  0  0  0  0  0  0  0  0  0  0  0
   69.6837   48.2384   52.8690 C   0  0  0  0  0  0  0  0  0  0  0  0
   69.3773   47.6328   51.6774 C   0  0  0  0  0  0  0  0  0  0  0  0
   68.4726   46.5930   51.6710 C   0  0  0  0  0  0  0  0  0  0  0  0
   67.8914   46.1776   52.8491 C   0  0  0  0  0  0  0  0  0  0  0  0
   68.1996   46.7863   54.0467 C   0  0  0  0  0  0  0  0  0  0  0  0
   69.1037   47.8231   54.0418 C   0  0  0  0  0  0  0  0  0  0  0  0
 13 14  1  0
 14  7  1  0
  7  8  2  0
  7 12  1  0
  8  9  1  0
  9 10  2  0
 10  4  1  0
 10 11  1  0
  4  5  2  0
  4  6  1  0
  6  1  1  0
  1  2  1  0
  2  3  2  0
  2 15  1  0
 15 16  1  0
 16 17  1  0
 16 26  1  0
 17 18  2  0
 17 19  1  0
 19 20  2  0
 20 21  1  0
 21 22  1  0
 21 26  2  0
 22 23  2  0
 23 24  1  0
 24 25  2  0
 25 26  1  0
 11 12  2  0
M  END
>  <minimizedAffinity>  (650) 
-8.61646

$$$$
data/reference_output_2/data/smiles/192834.pdb
     RDKit          3D

 27 29  0  0  0  0  0  0  0  0999 V2000
   70.9831   42.0045   58.4862 C   0  0  2  0  0  0  0  0  0  0  0  0
   72.5029   42.2265   58.3144 C   0  0  0  0  0  0  0  0  0  0  0  0
   72.9304   43.3415   59.2369 C   0  0  0  0  0  0  0  0  0  0  0  0
   72.0979   44.5663   59.1442 C   0  0  0  0  0  0  0  0  0  0  0  0
   70.9819   44.4745   58.2003 C   0  0  0  0  0  0  0  0  0  0  0  0
   70.4757   45.6582   57.6273 C   0  0  0  0  0  0  0  0  0  0  0  0
   69.4283   45.6434   56.7381 C   0  0  0  0  0  0  0  0  0  0  0  0
   68.8925   44.4115   56.4304 C   0  0  0  0  0  0  0  0  0  0  0  0
   69.3877   43.2491   56.9907 C   0  0  0  0  0  0  0  0  0  0  0  0
   68.8565   42.0273   56.6788 F   0  0  0  0  0  0  0  0  0  0  0  0
   70.4364   43.2535   57.8830 C   0  0  0  0  0  0  0  0  0  0  0  0
   68.7991   47.1263   56.0246 S   0  0  0  0  0  0  0  0  0  0  0  0
   67.4147   47.3217   56.5641 O   0  0  0  0  0  0  0  0  0  0  0  0
   69.6977   48.2819   56.3438 O   0  0  0  0  0  0  0  0  0  0  0  0
   68.6576   46.9561   54.2793 C   0  0  0  0  0  0  0  0  0  0  0  0
   69.3315   47.8256   53.4376 C   0  0  0  0  0  0  0  0  0  0  0  0
   69.2482   47.7270   52.0532 C   0  0  0  0  0  0  0  0  0  0  0  0
   68.4725   46.7393   51.4774 C   0  0  0  0  0  0  0  0  0  0  0  0
   67.7943   45.8642   52.3018 C   0  0  0  0  0  0  0  0  0  0  0  0
   67.0340   44.8940   51.7285 F   0  0  0  0  0  0  0  0  0  0  0  0
   67.8895   45.9774   53.6922 C   0  0  0  0  0  0  0  0  0  0  0  0
   70.6341   41.8051   59.9178 C   0  0  0  0  0  0  0  0  0  0  0  0
   68.4984   43.5296   60.6729 O   0  0  0  0  0  0  0  0  0  0  0  0
   68.2118   42.3455   60.4163 C   0  0  0  0  0  0  0  0  0  0  0  0
   69.2439   41.4630   60.0387 N   0  0  0  0  0  0  0  0  0  0  0  0
   66.7989   41.8758   60.5087 C   0  0  0  0  0  0  0  0  0  0  0  0
   66.0006   42.9251   60.9339 O   0  0  0  0  0  0  0  0  0  0  0  0
 23 24  2  0
 24 26  1  0
 24 25  1  0
 26 27  1  0
 25 22  1  0
  1 22  1  1
  1  2  1  0
  1 11  1  0
  2  3  1  0
  3  4  1  0
  4  5  1  0
  5  6  1  0
  5 11  2  0
  6  7  2  0
  7 12  1  0
  7  8  1  0
 12 13  2  0
 12 14  2  0
 12 15  1  0
 15 16  2  0
 15 21  1  0
 16 17  1  0
 17 18  2  0
 18 19  1  0
 19 20  1  0
 19 21  2  0
  8  9  2  0
  9 10  1  0
  9 11  1  0
M  END
>  <minimizedAffinity>  (651) 
-8.61600

$$$$
data/200k_reference_output/data/smiles/16068.pdb
     RDKit          3D

 26 27  0  0  0  0  0  0  0  0999 V2000
   69.1526   41.9203   57.5260 C   0  0  0  0  0  0  0  0  0  0  0  0
   68.0314   41.1042   57.2706 C   0  0  0  0  0  0  0  0  0  0  0  0
   68.1358   39.7627   57.5483 C   0  0  0  0  0  0  0  0  0  0  0  0
   69.2941   39.2205   58.0605 C   0  0  0  0  0  0  0  0  0  0  0  0
   70.3591   39.9967   58.3031 N   0  0  0  0  0  0  0  0  0  0  0  0
   70.2651   41.3339   58.0296 C   0  0  0  0  0  0  0  0  0  0  0  0
   71.2878   41.9742   58.2818 O   0  0  0  0  0  0  0  0  0  0  0  0
   68.4373   43.9761   56.1666 N   0  0  0  0  0  0  0  0  0  0  0  0
   69.0668   43.3315   57.2424 C   0  0  0  0  0  0  0  0  0  0  0  0
   69.6431   44.1326   58.0794 O   0  0  0  0  0  0  0  0  0  0  0  0
   68.4383   45.3794   56.0234 N   0  0  0  0  0  0  0  0  0  0  0  0
   67.6916   45.6922   52.4250 C   0  0  0  0  0  0  0  0  0  0  0  0
   67.8447   45.2100   53.7846 N   0  0  0  0  0  0  0  0  0  0  0  0
   68.3355   45.9529   54.7346 C   0  0  0  0  0  0  0  0  0  0  0  0
   68.8601   47.6458   54.4072 S   0  0  0  0  0  0  0  0  0  0  0  0
   71.5318   39.3875   58.8352 C   0  0  0  0  0  0  0  0  0  0  0  0
   71.6222   37.9435   58.7168 C   0  0  0  0  0  0  0  0  0  0  0  0
   71.0163   37.1328   59.6443 C   0  0  0  0  0  0  0  0  0  0  0  0
   71.0533   35.7589   59.6033 C   0  0  0  0  0  0  0  0  0  0  0  0
   71.7490   35.1995   58.5526 C   0  0  0  0  0  0  0  0  0  0  0  0
   72.3691   35.9831   57.6021 C   0  0  0  0  0  0  0  0  0  0  0  0
   72.3049   37.3579   57.6858 C   0  0  0  0  0  0  0  0  0  0  0  0
   73.1176   35.3151   56.4725 C   0  0  0  0  0  0  0  0  0  0  0  0
   74.4633   35.5590   56.6552 F   0  0  0  0  0  0  0  0  0  0  0  0
   72.8376   33.9652   56.4540 F   0  0  0  0  0  0  0  0  0  0  0  0
   72.7386   35.8923   55.3001 F   0  0  0  0  0  0  0  0  0  0  0  0
 12 13  1  0
 13 14  2  0
 14 15  1  0
 14 11  1  0
 11  8  1  0
  8  9  1  0
  9 10  2  0
  9  1  1  0
  1  2  2  0
  1  6  1  0
  2  3  1  0
  3  4  2  0
  4  5  1  0
  5 16  1  0
  5  6  1  0
 16 17  1  0
 17 18  2  0
 17 22  1  0
 18 19  1  0
 19 20  2  0
 20 21  1  0
 21 23  1  0
 21 22  2  0
 23 24  1  0
 23 25  1  0
 23 26  1  0
  6  7  2  0
M  CHG  1  13   1
M  END
>  <minimizedAffinity>  (652) 
-8.61596

$$$$
data/reference_output_2/data/smiles/199618.pdb
     RDKit          3D

 25 27  0  0  0  0  0  0  0  0999 V2000
   69.9534   46.9901   57.9530 C   0  0  0  0  0  0  0  0  0  0  0  0
   70.9863   45.8945   57.8242 C   0  0  0  0  0  0  0  0  0  0  0  0
   69.6533   44.3947   59.1700 O   0  0  0  0  0  0  0  0  0  0  0  0
   70.3230   44.5895   58.1348 C   0  0  0  0  0  0  0  0  0  0  0  0
   70.4172   43.4745   57.2546 N   0  0  0  0  0  0  0  0  0  0  0  0
   69.8224   42.2351   57.4886 C   0  0  0  0  0  0  0  0  0  0  0  0
   70.4126   41.2649   58.2561 C   0  0  0  0  0  0  0  0  0  0  0  0
   69.8331   40.0279   58.4975 C   0  0  0  0  0  0  0  0  0  0  0  0
   68.5971   39.7386   57.9441 C   0  0  0  0  0  0  0  0  0  0  0  0
   68.0442   38.5246   58.1891 F   0  0  0  0  0  0  0  0  0  0  0  0
   67.9824   40.6986   57.1666 C   0  0  0  0  0  0  0  0  0  0  0  0
   68.5859   41.9353   56.9388 C   0  0  0  0  0  0  0  0  0  0  0  0
   67.7414   43.1169   55.9349 Cl  0  0  0  0  0  0  0  0  0  0  0  0
   68.9844   46.8046   56.9010 N   0  0  0  0  0  0  0  0  0  0  0  0
   69.1927   47.4772   55.6363 C   0  0  0  0  0  0  0  0  0  0  0  0
   69.8022   48.6015   55.6218 N   0  0  0  0  0  0  0  0  0  0  0  0
   69.9113   49.1725   54.0001 S   0  0  0  0  0  0  0  0  0  0  0  0
   69.1714   50.4446   53.7824 O   0  0  0  0  0  0  0  0  0  0  0  0
   71.3265   49.2278   53.5359 O   0  0  0  0  0  0  0  0  0  0  0  0
   69.0761   47.7945   53.2824 C   0  0  0  0  0  0  0  0  0  0  0  0
   68.7502   47.4913   51.9662 C   0  0  0  0  0  0  0  0  0  0  0  0
   68.0820   46.3305   51.6549 C   0  0  0  0  0  0  0  0  0  0  0  0
   67.7641   45.5057   52.7121 C   0  0  0  0  0  0  0  0  0  0  0  0
   68.0850   45.8034   54.0115 C   0  0  0  0  0  0  0  0  0  0  0  0
   68.7684   46.9889   54.3465 C   0  0  0  0  0  0  0  0  0  0  0  0
  3  4  2  0
  4  2  1  0
  4  5  1  0
  2  1  1  0
  1 14  1  0
 14 15  1  0
 15 16  2  0
 15 25  1  0
 16 17  1  0
 17 18  2  0
 17 19  2  0
 17 20  1  0
 20 21  1  0
 20 25  2  0
 21 22  2  0
 22 23  1  0
 23 24  2  0
 24 25  1  0
  5  6  1  0
  6  7  2  0
  6 12  1  0
  7  8  1  0
  8  9  2  0
  9 10  1  0
  9 11  1  0
 11 12  2  0
 12 13  1  0
M  CHG  1  16   1
M  END
>  <minimizedAffinity>  (653) 
-8.61528

$$$$
data/200k_reference_output/data/smiles/46456.pdb
     RDKit          3D

 24 25  0  0  0  0  0  0  0  0999 V2000
   69.3738   43.4581   57.7363 N   0  0  0  0  0  0  0  0  0  0  0  0
   69.9837   45.8791   58.8450 O   0  0  0  0  0  0  0  0  0  0  0  0
   69.6904   45.9003   57.6439 C   0  0  0  0  0  0  0  0  0  0  0  0
   69.3621   44.6397   57.0199 N   0  0  0  0  0  0  0  0  0  0  0  0
   69.6504   47.1042   56.7993 C   0  0  0  0  0  0  0  0  0  0  0  0
   68.4453   47.3242   55.9823 C   0  0  0  0  0  0  0  0  0  0  0  0
   68.5323   47.1516   54.5454 C   0  0  0  0  0  0  0  0  0  0  0  0
   67.8850   46.1099   53.9266 C   0  0  0  0  0  0  0  0  0  0  0  0
   67.9704   45.9141   52.5423 C   0  0  0  0  0  0  0  0  0  0  0  0
   68.7037   46.7577   51.7550 C   0  0  0  0  0  0  0  0  0  0  0  0
   69.3589   47.8103   52.3618 C   0  0  0  0  0  0  0  0  0  0  0  0
   69.2693   47.9926   53.7117 C   0  0  0  0  0  0  0  0  0  0  0  0
   68.9753   42.2060   57.3686 C   0  0  0  0  0  0  0  0  0  0  0  0
   67.5926   42.1709   56.3853 S   0  0  0  0  0  0  0  0  0  0  0  0
   69.5022   40.9408   57.6169 N   0  0  0  0  0  0  0  0  0  0  0  0
   69.5588   40.1655   58.7877 C   0  0  0  0  0  0  0  0  0  0  0  0
   69.0497   40.6621   59.8149 O   0  0  0  0  0  0  0  0  0  0  0  0
   70.1643   38.8406   58.8786 C   0  0  0  0  0  0  0  0  0  0  0  0
   69.7182   37.8657   59.7262 C   0  0  0  0  0  0  0  0  0  0  0  0
   70.3448   36.6156   59.7641 C   0  0  0  0  0  0  0  0  0  0  0  0
   71.4239   36.3498   58.9459 C   0  0  0  0  0  0  0  0  0  0  0  0
   72.2363   34.7946   58.9649 Cl  0  0  0  0  0  0  0  0  0  0  0  0
   71.8824   37.3254   58.0879 C   0  0  0  0  0  0  0  0  0  0  0  0
   71.2398   38.5482   58.0760 C   0  0  0  0  0  0  0  0  0  0  0  0
  2  3  2  0
  3  5  1  0
  3  4  1  0
  5  6  1  0
  6  7  1  0
  7  8  2  0
  7 12  1  0
  8  9  1  0
  9 10  2  0
 10 11  1  0
 11 12  2  0
  4  1  1  0
  1 13  1  0
 13 14  2  0
 13 15  1  0
 15 16  1  0
 16 17  2  0
 16 18  1  0
 18 19  2  0
 18 24  1  0
 19 20  1  0
 20 21  2  0
 21 22  1  0
 21 23  1  0
 23 24  2  0
M  END
>  <minimizedAffinity>  (654) 
-8.61522

$$$$
data/reference_output_2/data/smiles/111510.pdb
     RDKit          3D

 26 28  0  0  0  0  0  0  0  0999 V2000
   69.7561   44.7614   59.0961 O   0  0  0  0  0  0  0  0  0  0  0  0
   70.6782   44.7202   58.2742 C   0  0  0  0  0  0  0  0  0  0  0  0
   70.7214   45.7375   57.2607 N   0  0  0  0  0  0  0  0  0  0  0  0
   71.6947   43.6850   58.3131 C   0  0  0  0  0  0  0  0  0  0  0  0
   73.0512   44.0283   58.1738 C   0  0  0  0  0  0  0  0  0  0  0  0
   74.0159   43.0997   58.2047 N   0  0  0  0  0  0  0  0  0  0  0  0
   73.7333   41.7953   58.3694 C   0  0  0  0  0  0  0  0  0  0  0  0
   72.4324   41.3654   58.5146 C   0  0  0  0  0  0  0  0  0  0  0  0
   71.4438   42.3548   58.4785 C   0  0  0  0  0  0  0  0  0  0  0  0
   72.1096   39.9545   58.6937 C   0  0  0  0  0  0  0  0  0  0  0  0
   70.8418   39.4769   58.4287 C   0  0  0  0  0  0  0  0  0  0  0  0
   70.5083   38.1454   58.5895 C   0  0  0  0  0  0  0  0  0  0  0  0
   71.4544   37.2396   59.0296 C   0  0  0  0  0  0  0  0  0  0  0  0
   72.7216   37.6962   59.2999 C   0  0  0  0  0  0  0  0  0  0  0  0
   73.0371   39.0309   59.1325 C   0  0  0  0  0  0  0  0  0  0  0  0
   69.8088   46.7297   57.1645 N   0  0  0  0  0  0  0  0  0  0  0  0
   68.6336   46.5736   55.9967 S   0  0  0  0  0  0  0  0  0  0  0  0
   68.1069   45.1537   55.9071 O   0  0  0  0  0  0  0  0  0  0  0  0
   67.4055   47.3714   56.4875 O   0  0  0  0  0  0  0  0  0  0  0  0
   68.9568   47.1513   54.4024 C   0  0  0  0  0  0  0  0  0  0  0  0
   69.6264   48.3895   54.3297 C   0  0  0  0  0  0  0  0  0  0  0  0
   69.9151   48.9966   53.1346 C   0  0  0  0  0  0  0  0  0  0  0  0
   69.5467   48.3936   51.9414 C   0  0  0  0  0  0  0  0  0  0  0  0
   68.8960   47.1895   52.0105 C   0  0  0  0  0  0  0  0  0  0  0  0
   68.6123   46.5891   53.2217 C   0  0  0  0  0  0  0  0  0  0  0  0
   68.0000   45.3735   53.2142 F   0  0  0  0  0  0  0  0  0  0  0  0
  1  2  2  0
  2  3  1  0
  2  4  1  0
  3 16  1  0
 16 17  1  0
 17 18  2  0
 17 19  2  0
 17 20  1  0
 20 21  2  0
 20 25  1  0
 21 22  1  0
 22 23  2  0
 23 24  1  0
 24 25  2  0
 25 26  1  0
  4  5  2  0
  4  9  1  0
  5  6  1  0
  6  7  2  0
  7  8  1  0
  8 10  1  0
  8  9  2  0
 10 11  2  0
 10 15  1  0
 11 12  1  0
 12 13  2  0
 13 14  1  0
 14 15  2  0
M  END
>  <minimizedAffinity>  (655) 
-8.61515

$$$$
data/200k_reference_output/data/smiles/76652.pdb
     RDKit          3D

 26 28  0  0  0  0  0  0  0  0999 V2000
   72.1334   45.7475   58.5187 O   0  0  0  0  0  0  0  0  0  0  0  0
   71.0511   46.3449   58.3675 C   0  0  0  0  0  0  0  0  0  0  0  0
   69.8438   45.6020   58.4158 N   0  0  0  0  0  0  0  0  0  0  0  0
   69.9428   44.2197   58.6344 N   0  0  0  0  0  0  0  0  0  0  0  0
   69.4449   43.2600   57.7182 C   0  0  0  0  0  0  0  0  0  0  0  0
   68.8966   43.7509   56.6722 O   0  0  0  0  0  0  0  0  0  0  0  0
   69.5147   41.8207   57.8844 C   0  0  0  0  0  0  0  0  0  0  0  0
   68.4222   41.0157   57.6762 C   0  0  0  0  0  0  0  0  0  0  0  0
   68.4995   39.6259   57.8398 C   0  0  0  0  0  0  0  0  0  0  0  0
   69.7004   39.0592   58.2168 C   0  0  0  0  0  0  0  0  0  0  0  0
   70.7977   39.8436   58.4276 C   0  0  0  0  0  0  0  0  0  0  0  0
   72.3059   39.0982   58.9043 Cl  0  0  0  0  0  0  0  0  0  0  0  0
   70.6980   41.2293   58.2594 C   0  0  0  0  0  0  0  0  0  0  0  0
   71.0804   47.8158   58.1415 C   0  0  0  0  0  0  0  0  0  0  0  0
   69.7707   48.3243   57.6196 C   0  0  0  0  0  0  0  0  0  0  0  0
   69.5774   48.1107   56.1857 C   0  0  0  0  0  0  0  0  0  0  0  0
   68.8267   47.1231   55.6569 N   0  0  0  0  0  0  0  0  0  0  0  0
   68.6693   46.9545   54.3313 C   0  0  0  0  0  0  0  0  0  0  0  0
   67.8977   45.9379   53.7981 C   0  0  0  0  0  0  0  0  0  0  0  0
   67.7346   45.7634   52.4374 C   0  0  0  0  0  0  0  0  0  0  0  0
   68.3592   46.6278   51.5495 C   0  0  0  0  0  0  0  0  0  0  0  0
   69.1263   47.6379   52.0923 C   0  0  0  0  0  0  0  0  0  0  0  0
   69.2901   47.8145   53.4484 C   0  0  0  0  0  0  0  0  0  0  0  0
   70.0560   48.8216   53.9991 C   0  0  0  0  0  0  0  0  0  0  0  0
   70.6249   49.6098   53.2075 O   0  0  0  0  0  0  0  0  0  0  0  0
   70.1849   48.9512   55.3315 N   0  0  0  0  0  0  0  0  0  0  0  0
  1  2  2  0
  2 14  1  0
  2  3  1  0
 14 15  1  0
 15 16  1  0
 16 17  2  0
 16 26  1  0
 17 18  1  0
 18 19  2  0
 18 23  1  0
 19 20  1  0
 20 21  2  0
 21 22  1  0
 22 23  2  0
 23 24  1  0
 24 25  2  0
 24 26  1  0
  3  4  1  0
  4  5  1  0
  5  6  2  0
  5  7  1  0
  7  8  2  0
  7 13  1  0
  8  9  1  0
  9 10  2  0
 10 11  1  0
 11 12  1  0
 11 13  2  0
M  END
>  <minimizedAffinity>  (656) 
-8.61252

$$$$
data/200k_reference_output/data/smiles/16866.pdb
     RDKit          3D

 28 31  0  0  0  0  0  0  0  0999 V2000
   71.5603   50.5695   56.4572 O   0  0  0  0  0  0  0  0  0  0  0  0
   71.1911   50.3771   55.2705 C   0  0  0  0  0  0  0  0  0  0  0  0
   71.6296   51.2675   54.2073 N   0  0  0  0  0  0  0  0  0  0  0  0
   70.3139   49.2642   54.9006 C   0  0  0  0  0  0  0  0  0  0  0  0
   70.1517   48.8759   53.6245 N   0  0  0  0  0  0  0  0  0  0  0  0
   69.3381   47.8448   53.2915 C   0  0  0  0  0  0  0  0  0  0  0  0
   69.1710   47.4452   51.9815 C   0  0  0  0  0  0  0  0  0  0  0  0
   68.3390   46.3922   51.6494 C   0  0  0  0  0  0  0  0  0  0  0  0
   67.6391   45.6948   52.6141 C   0  0  0  0  0  0  0  0  0  0  0  0
   67.8071   46.0940   53.9241 C   0  0  0  0  0  0  0  0  0  0  0  0
   68.6409   47.1506   54.2581 C   0  0  0  0  0  0  0  0  0  0  0  0
   68.8188   47.5613   55.5624 C   0  0  0  0  0  0  0  0  0  0  0  0
   68.1878   46.9348   56.4502 O   0  0  0  0  0  0  0  0  0  0  0  0
   69.6379   48.5913   55.8464 N   0  0  0  0  0  0  0  0  0  0  0  0
   72.4641   52.3166   54.5938 C   0  0  0  0  0  0  0  0  0  0  0  0
   73.9057   52.3402   54.3626 C   0  0  0  0  0  0  0  0  0  0  0  0
   74.8328   51.8121   55.2804 N   0  0  0  0  0  0  0  0  0  0  0  0
   75.4072   50.5303   55.3649 C   0  0  0  0  0  0  0  0  0  0  0  0
   75.1109   49.6689   54.5252 O   0  0  0  0  0  0  0  0  0  0  0  0
   76.3688   50.1740   56.4411 C   0  0  0  0  0  0  0  0  0  0  0  0
   76.4200   48.9729   57.1156 C   0  0  0  0  0  0  0  0  0  0  0  0
   77.4412   49.0091   58.0433 C   0  0  0  0  0  0  0  0  0  0  0  0
   77.9851   48.1677   58.9868 C   0  0  0  0  0  0  0  0  0  0  0  0
   79.0494   48.5306   59.7825 C   0  0  0  0  0  0  0  0  0  0  0  0
   79.5887   49.7976   59.6199 C   0  0  0  0  0  0  0  0  0  0  0  0
   79.0535   50.6468   58.6804 C   0  0  0  0  0  0  0  0  0  0  0  0
   77.9892   50.2867   57.8832 C   0  0  0  0  0  0  0  0  0  0  0  0
   77.3153   50.9143   56.9313 O   0  0  0  0  0  0  0  0  0  0  0  0
  1  2  2  0
  2  3  1  0
  2  4  1  0
  3 15  1  0
 15 16  1  0
 16 17  1  0
 17 18  1  0
 18 19  2  0
 18 20  1  0
 20 21  2  0
 20 28  1  0
 21 22  1  0
 22 23  2  0
 22 27  1  0
 23 24  1  0
 24 25  2  0
 25 26  1  0
 26 27  2  0
 27 28  1  0
  4  5  2  0
  4 14  1  0
  5  6  1  0
  6  7  2  0
  6 11  1  0
  7  8  1  0
  8  9  2  0
  9 10  1  0
 10 11  2  0
 11 12  1  0
 12 13  2  0
 12 14  1  0
M  END
>  <minimizedAffinity>  (657) 
-8.61184

$$$$
data/reference_output_2/data/smiles/92864.pdb
     RDKit          3D

 28 31  0  0  0  0  0  0  0  0999 V2000
   73.9122   49.3205   57.2021 C   0  0  0  0  0  0  0  0  0  0  0  0
   73.6429   48.3839   58.1713 C   0  0  0  0  0  0  0  0  0  0  0  0
   72.3309   47.9351   58.3840 C   0  0  0  0  0  0  0  0  0  0  0  0
   71.3076   48.4383   57.6158 C   0  0  0  0  0  0  0  0  0  0  0  0
   71.5473   49.3968   56.6166 C   0  0  0  0  0  0  0  0  0  0  0  0
   72.8441   49.7865   56.4651 C   0  0  0  0  0  0  0  0  0  0  0  0
   75.4171   50.8248   56.2766 O   0  0  0  0  0  0  0  0  0  0  0  0
   75.2663   49.7904   56.9752 C   0  0  0  0  0  0  0  0  0  0  0  0
   76.4354   49.1760   57.4780 N   0  0  0  0  0  0  0  0  0  0  0  0
   77.6839   49.6441   57.2449 N   0  0  0  0  0  0  0  0  0  0  0  0
   78.3335   49.3604   56.0289 C   0  0  0  0  0  0  0  0  0  0  0  0
   79.7936   49.0400   56.4009 C   0  0  0  0  0  0  0  0  0  0  0  0
   79.6994   48.1386   57.6065 C   0  0  0  0  0  0  0  0  0  0  0  0
   79.8195   48.8051   58.9156 C   0  0  0  0  0  0  0  0  0  0  0  0
   79.2760   50.1689   59.0540 C   0  0  0  0  0  0  0  0  0  0  0  0
   78.2519   50.6070   58.0876 C   0  0  0  0  0  0  0  0  0  0  0  0
   70.3994   49.8901   55.8001 C   0  0  0  0  0  0  0  0  0  0  0  0
   70.2008   49.1658   54.5442 C   0  0  0  0  0  0  0  0  0  0  0  0
   71.0239   49.4919   53.5149 N   0  0  0  0  0  0  0  0  0  0  0  0
   71.0033   48.9271   52.3356 N   0  0  0  0  0  0  0  0  0  0  0  0
   70.0964   47.9466   52.1230 C   0  0  0  0  0  0  0  0  0  0  0  0
   70.0811   47.4100   50.9953 O   0  0  0  0  0  0  0  0  0  0  0  0
   69.2290   47.5531   53.0996 C   0  0  0  0  0  0  0  0  0  0  0  0
   69.2931   48.1889   54.3410 C   0  0  0  0  0  0  0  0  0  0  0  0
   68.3104   47.7315   55.3342 C   0  0  0  0  0  0  0  0  0  0  0  0
   68.4441   46.2073   55.3881 C   0  0  0  0  0  0  0  0  0  0  0  0
   68.0990   45.5661   54.0689 C   0  0  0  0  0  0  0  0  0  0  0  0
   68.2506   46.4908   52.8838 C   0  0  0  0  0  0  0  0  0  0  0  0
  7  8  2  0
  8  9  1  0
  8  1  1  0
  9 10  1  0
 10 11  1  0
 10 16  1  0
 11 12  1  0
 12 13  1  0
 13 14  1  0
 14 15  1  0
 15 16  1  0
  1  2  2  0
  1  6  1  0
  2  3  1  0
  3  4  2  0
  4  5  1  0
  5 17  1  0
  5  6  2  0
 17 18  1  0
 18 19  2  0
 18 24  1  0
 19 20  1  0
 20 21  1  0
 21 22  2  0
 21 23  1  0
 23 24  2  0
 23 28  1  0
 24 25  1  0
 25 26  1  0
 26 27  1  0
 27 28  1  0
M  END
>  <minimizedAffinity>  (658) 
-8.61149

$$$$
data/200k_reference_output/data/smiles/34457.pdb
     RDKit          3D

 27 30  0  0  0  0  0  0  0  0999 V2000
   69.2451   40.4992   58.2244 C   0  0  0  0  0  0  0  0  0  0  0  0
   68.0404   40.5995   57.5583 C   0  0  0  0  0  0  0  0  0  0  0  0
   67.7753   41.6675   56.7158 C   0  0  0  0  0  0  0  0  0  0  0  0
   68.7092   42.6641   56.5187 C   0  0  0  0  0  0  0  0  0  0  0  0
   69.8669   42.5126   57.1961 N   0  0  0  0  0  0  0  0  0  0  0  0
   70.1201   41.4922   58.0001 N   0  0  0  0  0  0  0  0  0  0  0  0
   68.4678   43.7729   55.6604 N   0  0  0  0  0  0  0  0  0  0  0  0
   68.7804   45.1062   56.0325 C   0  0  0  0  0  0  0  0  0  0  0  0
   69.2932   45.2326   57.1936 O   0  0  0  0  0  0  0  0  0  0  0  0
   68.5541   46.2251   55.2097 N   0  0  0  0  0  0  0  0  0  0  0  0
   67.9920   46.3050   53.8784 C   0  0  0  0  0  0  0  0  0  0  0  0
   68.8318   47.3328   53.2363 C   0  0  0  0  0  0  0  0  0  0  0  0
   69.1661   47.6452   51.9247 C   0  0  0  0  0  0  0  0  0  0  0  0
   69.9937   48.6919   51.6326 C   0  0  0  0  0  0  0  0  0  0  0  0
   70.5043   49.4457   52.6185 N   0  0  0  0  0  0  0  0  0  0  0  0
   70.1873   49.1528   53.8850 C   0  0  0  0  0  0  0  0  0  0  0  0
   69.3603   48.1135   54.2443 C   0  0  0  0  0  0  0  0  0  0  0  0
   68.8643   47.5938   55.5690 C   0  0  0  0  0  0  0  0  0  0  0  0
   69.0439   39.3633   60.2651 O   0  0  0  0  0  0  0  0  0  0  0  0
   69.5076   39.3684   59.1085 C   0  0  0  0  0  0  0  0  0  0  0  0
   70.2826   38.2443   58.7111 N   0  0  0  0  0  0  0  0  0  0  0  0
   70.5500   37.1204   59.5697 C   0  0  0  0  0  0  0  0  0  0  0  0
   71.8401   36.4505   59.1262 C   0  0  0  0  0  0  0  0  0  0  0  0
   71.6637   34.9543   59.0000 C   0  0  0  0  0  0  0  0  0  0  0  0
   72.6115   34.4699   57.9525 C   0  0  0  0  0  0  0  0  0  0  0  0
   73.1952   35.7021   57.3455 C   0  0  0  0  0  0  0  0  0  0  0  0
   72.2786   36.8546   57.7495 C   0  0  0  0  0  0  0  0  0  0  0  0
 19 20  2  0
 20 21  1  0
 20  1  1  0
 21 22  1  0
 22 23  1  0
 23 24  1  0
 23 27  1  0
 24 25  1  0
 25 26  1  0
 26 27  1  0
  1  2  2  0
  1  6  1  0
  2  3  1  0
  3  4  2  0
  4  7  1  0
  4  5  1  0
  7  8  1  0
  8  9  2  0
  8 10  1  0
 10 11  1  0
 10 18  1  0
 11 12  1  0
 12 13  1  0
 12 17  2  0
 13 14  2  0
 14 15  1  0
 15 16  2  0
 16 17  1  0
 17 18  1  0
  5  6  2  0
M  END
>  <minimizedAffinity>  (659) 
-8.61070

$$$$
data/200k_reference_output/data/smiles/5907.pdb
     RDKit          3D

 26 27  0  0  0  0  0  0  0  0999 V2000
   71.6141   53.2889   55.8126 C   0  0  0  0  0  0  0  0  0  0  0  0
   70.6340   52.1878   55.4553 C   0  0  0  0  0  0  0  0  0  0  0  0
   69.2346   52.5588   55.7305 C   0  0  0  0  0  0  0  0  0  0  0  0
   71.0449   51.0749   54.9701 C   0  0  0  0  0  0  0  0  0  0  0  0
   70.3650   49.9205   54.5653 N   0  0  0  0  0  0  0  0  0  0  0  0
   69.9908   49.3821   53.3452 C   0  0  0  0  0  0  0  0  0  0  0  0
   70.2693   49.9726   52.3110 O   0  0  0  0  0  0  0  0  0  0  0  0
   69.2517   48.0983   53.1980 C   0  0  0  0  0  0  0  0  0  0  0  0
   68.7373   47.3999   54.2555 C   0  0  0  0  0  0  0  0  0  0  0  0
   68.0505   46.1941   54.0366 C   0  0  0  0  0  0  0  0  0  0  0  0
   67.8685   45.6705   52.7795 C   0  0  0  0  0  0  0  0  0  0  0  0
   68.3871   46.3739   51.7165 C   0  0  0  0  0  0  0  0  0  0  0  0
   69.0653   47.5655   51.9397 C   0  0  0  0  0  0  0  0  0  0  0  0
   72.5436   50.9839   54.8035 C   0  0  0  0  0  0  0  0  0  0  0  0
   73.1367   51.6104   53.9026 O   0  0  0  0  0  0  0  0  0  0  0  0
   73.3747   50.2045   55.6266 N   0  0  0  0  0  0  0  0  0  0  0  0
   74.7901   50.1649   55.4106 N   0  0  0  0  0  0  0  0  0  0  0  0
   75.5921   49.8318   56.3797 C   0  0  0  0  0  0  0  0  0  0  0  0
   74.9400   49.5101   57.6764 C   0  0  0  0  0  0  0  0  0  0  0  0
   77.0359   49.7774   56.2070 C   0  0  0  0  0  0  0  0  0  0  0  0
   77.5756   49.0592   55.1618 C   0  0  0  0  0  0  0  0  0  0  0  0
   78.9632   48.9946   54.9778 C   0  0  0  0  0  0  0  0  0  0  0  0
   79.8164   49.6476   55.8400 C   0  0  0  0  0  0  0  0  0  0  0  0
   79.2786   50.3667   56.8891 C   0  0  0  0  0  0  0  0  0  0  0  0
   77.9186   50.4160   57.0476 C   0  0  0  0  0  0  0  0  0  0  0  0
   77.4017   51.1425   58.1048 O   0  0  0  0  0  0  0  0  0  0  0  0
  1  2  1  0
  2  3  1  0
  2  4  2  0
  4  5  1  0
  4 14  1  0
  5  6  1  0
  6  7  2  0
  6  8  1  0
  8  9  2  0
  8 13  1  0
  9 10  1  0
 10 11  2  0
 11 12  1  0
 12 13  2  0
 14 15  2  0
 14 16  1  0
 16 17  1  0
 17 18  2  0
 18 19  1  0
 18 20  1  0
 20 21  2  0
 20 25  1  0
 21 22  1  0
 22 23  2  0
 23 24  1  0
 24 25  2  0
 25 26  1  0
M  END
>  <minimizedAffinity>  (660) 
-8.60942

$$$$
data/200k_reference_output/data/smiles/56896.pdb
     RDKit          3D

 28 30  0  0  0  0  0  0  0  0999 V2000
   70.9857   43.8310   58.1340 C   0  0  0  0  0  0  0  0  0  0  0  0
   72.2520   43.3103   58.2413 C   0  0  0  0  0  0  0  0  0  0  0  0
   72.4964   41.9568   58.2564 C   0  0  0  0  0  0  0  0  0  0  0  0
   71.4368   41.0348   58.1611 C   0  0  0  0  0  0  0  0  0  0  0  0
   70.1931   41.5729   58.0558 C   0  0  0  0  0  0  0  0  0  0  0  0
   69.9404   42.9521   58.0399 C   0  0  0  0  0  0  0  0  0  0  0  0
   71.7247   46.2182   58.6324 C   0  0  0  0  0  0  0  0  0  0  0  0
   70.7252   45.2536   58.1176 C   0  0  0  0  0  0  0  0  0  0  0  0
   69.6175   45.7142   57.6544 N   0  0  0  0  0  0  0  0  0  0  0  0
   69.4142   47.0938   57.6609 N   0  0  0  0  0  0  0  0  0  0  0  0
   68.4102   47.7524   56.9256 C   0  0  0  0  0  0  0  0  0  0  0  0
   67.6486   47.0456   56.2183 O   0  0  0  0  0  0  0  0  0  0  0  0
   68.2177   49.1985   56.9478 C   0  0  0  0  0  0  0  0  0  0  0  0
   67.3725   49.9412   57.7373 C   0  0  0  0  0  0  0  0  0  0  0  0
   67.4861   51.2821   57.4535 C   0  0  0  0  0  0  0  0  0  0  0  0
   68.4285   51.3331   56.4663 N   0  0  0  0  0  0  0  0  0  0  0  0
   68.8921   52.5480   55.8340 C   0  0  0  0  0  0  0  0  0  0  0  0
   68.8479   50.1071   56.1811 N   0  0  0  0  0  0  0  0  0  0  0  0
   71.7681   39.6537   58.1837 N   0  0  0  0  0  0  0  0  0  0  0  0
   70.9281   38.5727   58.4844 C   0  0  0  0  0  0  0  0  0  0  0  0
   69.7320   38.7991   58.7749 O   0  0  0  0  0  0  0  0  0  0  0  0
   71.3997   37.1715   58.4719 C   0  0  0  0  0  0  0  0  0  0  0  0
   71.0249   36.2247   59.3777 C   0  0  0  0  0  0  0  0  0  0  0  0
   71.5066   34.9195   59.3085 C   0  0  0  0  0  0  0  0  0  0  0  0
   72.3836   34.5364   58.3189 C   0  0  0  0  0  0  0  0  0  0  0  0
   72.7706   35.4831   57.3971 C   0  0  0  0  0  0  0  0  0  0  0  0
   73.6396   35.1047   56.4156 F   0  0  0  0  0  0  0  0  0  0  0  0
   72.2832   36.7711   57.4806 C   0  0  0  0  0  0  0  0  0  0  0  0
  7  8  1  0
  8  9  2  0
  8  1  1  0
  9 10  1  0
 10 11  1  0
 11 12  2  0
 11 13  1  0
 13 14  1  0
 13 18  2  0
 14 15  2  0
 15 16  1  0
 16 17  1  0
 16 18  1  0
  1  2  2  0
  1  6  1  0
  2  3  1  0
  3  4  2  0
  4 19  1  0
  4  5  1  0
 19 20  1  0
 20 21  2  0
 20 22  1  0
 22 23  2  0
 22 28  1  0
 23 24  1  0
 24 25  2  0
 25 26  1  0
 26 27  1  0
 26 28  2  0
  5  6  2  0
M  END
>  <minimizedAffinity>  (661) 
-8.60923

$$$$
data/200k_reference_output/data/smiles/67917.pdb
     RDKit          3D

 28 32  0  0  0  0  0  0  0  0999 V2000
   73.7759   34.8796   55.2239 C   0  0  0  0  0  0  0  0  0  0  0  0
   73.8298   33.5682   55.6434 C   0  0  0  0  0  0  0  0  0  0  0  0
   73.2457   33.2170   56.8451 C   0  0  0  0  0  0  0  0  0  0  0  0
   72.6101   34.1915   57.6155 C   0  0  0  0  0  0  0  0  0  0  0  0
   71.9465   34.1749   58.8277 C   0  0  0  0  0  0  0  0  0  0  0  0
   71.5149   35.4522   59.1077 C   0  0  0  0  0  0  0  0  0  0  0  0
   71.9003   36.2473   58.0941 N   0  0  0  0  0  0  0  0  0  0  0  0
   72.5715   35.4962   57.1701 C   0  0  0  0  0  0  0  0  0  0  0  0
   73.1559   35.7906   55.9913 N   0  0  0  0  0  0  0  0  0  0  0  0
   71.7255   37.6635   57.8526 C   0  0  0  0  0  0  0  0  0  0  0  0
   71.3883   38.4258   59.1037 C   0  0  0  0  0  0  0  0  0  0  0  0
   69.9984   38.2038   59.5930 C   0  0  0  0  0  0  0  0  0  0  0  0
   70.0498   37.0912   60.5512 N   0  0  0  0  0  0  0  0  0  0  0  0
   70.7735   35.8833   60.2867 C   0  0  0  0  0  0  0  0  0  0  0  0
   70.7768   35.0438   61.2217 O   0  0  0  0  0  0  0  0  0  0  0  0
   74.0854   36.2897   53.3230 O   0  0  0  0  0  0  0  0  0  0  0  0
   74.4004   35.2625   53.9379 C   0  0  0  0  0  0  0  0  0  0  0  0
   75.4045   34.4339   53.3661 N   0  0  0  0  0  0  0  0  0  0  0  0
   76.0448   34.7370   52.1411 C   0  0  0  0  0  0  0  0  0  0  0  0
   77.0734   35.6404   52.0036 C   0  0  0  0  0  0  0  0  0  0  0  0
   77.6512   35.8941   50.8142 N   0  0  0  0  0  0  0  0  0  0  0  0
   77.2596   35.2837   49.6820 C   0  0  0  0  0  0  0  0  0  0  0  0
   77.8833   35.5819   48.5003 C   0  0  0  0  0  0  0  0  0  0  0  0
   77.4781   34.9531   47.3457 C   0  0  0  0  0  0  0  0  0  0  0  0
   76.4519   34.0270   47.3712 C   0  0  0  0  0  0  0  0  0  0  0  0
   75.8444   33.7510   48.5874 C   0  0  0  0  0  0  0  0  0  0  0  0
   76.2360   34.3706   49.7556 C   0  0  0  0  0  0  0  0  0  0  0  0
   75.6321   34.1018   50.9886 C   0  0  0  0  0  0  0  0  0  0  0  0
 16 17  2  0
 17 18  1  0
 17  1  1  0
 18 19  1  0
 19 20  2  0
 19 28  1  0
 20 21  1  0
 21 22  2  0
 22 23  1  0
 22 27  1  0
 23 24  2  0
 24 25  1  0
 25 26  2  0
 26 27  1  0
 27 28  2  0
  1  2  2  0
  1  9  1  0
  2  3  1  0
  3  4  2  0
  4  5  1  0
  4  8  1  0
  5  6  2  0
  6  7  1  0
  6 14  1  0
  7  8  1  0
  7 10  1  0
  8  9  2  0
 10 11  1  0
 11 12  1  0
 12 13  1  0
 13 14  1  0
 14 15  2  0
M  END
>  <minimizedAffinity>  (662) 
-8.60611

$$$$
data/200k_reference_output/data/smiles/14933.pdb
     RDKit          3D

 28 32  0  0  0  0  0  0  0  0999 V2000
   70.6205   41.9859   57.4467 N   0  0  0  0  0  0  0  0  0  0  0  0
   69.2422   41.6831   57.5267 C   0  0  0  0  0  0  0  0  0  0  0  0
   68.2685   42.4538   57.0642 C   0  0  0  0  0  0  0  0  0  0  0  0
   67.0148   41.7678   57.3672 C   0  0  0  0  0  0  0  0  0  0  0  0
   65.9245   41.9344   56.8138 O   0  0  0  0  0  0  0  0  0  0  0  0
   67.3425   40.7975   58.5204 C   0  0  0  0  0  0  0  0  0  0  0  0
   68.6947   40.4822   58.0678 N   0  0  0  0  0  0  0  0  0  0  0  0
   68.4515   43.7390   56.3862 C   0  0  0  0  0  0  0  0  0  0  0  0
   69.0782   44.8439   56.7692 N   0  0  0  0  0  0  0  0  0  0  0  0
   68.9677   45.8194   55.8135 C   0  0  0  0  0  0  0  0  0  0  0  0
   69.4079   47.1221   55.6862 C   0  0  0  0  0  0  0  0  0  0  0  0
   69.1026   47.8566   54.5436 C   0  0  0  0  0  0  0  0  0  0  0  0
   68.3642   47.3232   53.5142 C   0  0  0  0  0  0  0  0  0  0  0  0
   67.9273   46.0361   53.6356 C   0  0  0  0  0  0  0  0  0  0  0  0
   68.2232   45.2779   54.7789 C   0  0  0  0  0  0  0  0  0  0  0  0
   67.9287   44.0261   55.1520 N   0  0  0  0  0  0  0  0  0  0  0  0
   69.2739   39.2136   58.1256 N   0  0  0  0  0  0  0  0  0  0  0  0
   69.7503   38.6914   59.3683 C   0  0  0  0  0  0  0  0  0  0  0  0
   69.6399   39.4340   60.4154 O   0  0  0  0  0  0  0  0  0  0  0  0
   70.3388   37.3756   59.4799 C   0  0  0  0  0  0  0  0  0  0  0  0
   70.0387   36.4300   60.4574 C   0  0  0  0  0  0  0  0  0  0  0  0
   70.7624   35.2947   60.2425 N   0  0  0  0  0  0  0  0  0  0  0  0
   71.5316   35.4640   59.1468 C   0  0  0  0  0  0  0  0  0  0  0  0
   72.4529   34.6093   58.5038 C   0  0  0  0  0  0  0  0  0  0  0  0
   73.1084   35.0920   57.3613 C   0  0  0  0  0  0  0  0  0  0  0  0
   72.8436   36.3519   56.9156 C   0  0  0  0  0  0  0  0  0  0  0  0
   71.9363   37.1455   57.5805 C   0  0  0  0  0  0  0  0  0  0  0  0
   71.2677   36.7305   58.6952 C   0  0  0  0  0  0  0  0  0  0  0  0
  1  2  1  0
  2  3  2  0
  2  7  1  0
  3  8  1  0
  3  4  1  0
  8  9  2  0
  8 16  1  0
  9 10  1  0
 10 11  2  0
 10 15  1  0
 11 12  1  0
 12 13  2  0
 13 14  1  0
 14 15  2  0
 15 16  1  0
  4  5  2  0
  4  6  1  0
  6  7  1  0
  7 17  1  0
 17 18  1  0
 18 19  2  0
 18 20  1  0
 20 21  2  0
 20 28  1  0
 21 22  1  0
 22 23  1  0
 23 24  1  0
 23 28  2  0
 24 25  2  0
 25 26  1  0
 26 27  2  0
 27 28  1  0
M  CHG  1   9   1
M  END
>  <minimizedAffinity>  (663) 
-8.60581

$$$$
data/200k_reference_output/data/smiles/70593.pdb
     RDKit          3D

 26 28  0  0  0  0  0  0  0  0999 V2000
   69.3951   42.3041   58.2086 C   0  0  0  0  0  0  0  0  0  0  0  0
   69.0901   42.5703   59.4332 O   0  0  0  0  0  0  0  0  0  0  0  0
   70.1877   41.1514   58.0302 N   0  0  0  0  0  0  0  0  0  0  0  0
   67.2054   41.5470   56.1122 C   0  0  0  0  0  0  0  0  0  0  0  0
   67.9587   42.8362   56.2109 C   0  0  0  0  0  0  0  0  0  0  0  0
   67.8228   43.9011   55.4020 N   0  0  0  0  0  0  0  0  0  0  0  0
   68.6433   44.8940   55.7760 N   0  0  0  0  0  0  0  0  0  0  0  0
   69.2829   44.4209   56.8269 N   0  0  0  0  0  0  0  0  0  0  0  0
   68.9174   43.1759   57.1467 C   0  0  0  0  0  0  0  0  0  0  0  0
   68.7421   46.1557   55.1191 C   0  0  0  0  0  0  0  0  0  0  0  0
   68.5181   46.3228   53.7697 C   0  0  0  0  0  0  0  0  0  0  0  0
   68.6113   47.5433   53.1450 C   0  0  0  0  0  0  0  0  0  0  0  0
   68.9416   48.6873   53.8621 C   0  0  0  0  0  0  0  0  0  0  0  0
   69.1689   48.5292   55.2127 C   0  0  0  0  0  0  0  0  0  0  0  0
   69.0728   47.2918   55.8338 C   0  0  0  0  0  0  0  0  0  0  0  0
   70.6324   40.3099   59.0391 N   0  0  0  0  0  0  0  0  0  0  0  0
   70.0502   39.0273   59.2263 C   0  0  0  0  0  0  0  0  0  0  0  0
   68.5091   38.7982   58.6636 S   0  0  0  0  0  0  0  0  0  0  0  0
   70.7010   37.9326   59.8551 N   0  0  0  0  0  0  0  0  0  0  0  0
   71.3262   36.9449   59.0603 C   0  0  0  0  0  0  0  0  0  0  0  0
   71.9918   37.3213   57.9242 C   0  0  0  0  0  0  0  0  0  0  0  0
   72.6215   36.3675   57.1237 C   0  0  0  0  0  0  0  0  0  0  0  0
   72.5843   35.0375   57.4586 C   0  0  0  0  0  0  0  0  0  0  0  0
   73.3698   33.8142   56.4762 Cl  0  0  0  0  0  0  0  0  0  0  0  0
   71.9074   34.6564   58.6111 C   0  0  0  0  0  0  0  0  0  0  0  0
   71.2916   35.6194   59.3887 C   0  0  0  0  0  0  0  0  0  0  0  0
  4  5  1  0
  5  6  2  0
  5  9  1  0
  6  7  1  0
  7 10  1  0
  7  8  1  0
 10 11  2  0
 10 15  1  0
 11 12  1  0
 12 13  2  0
 13 14  1  0
 14 15  2  0
  8  9  2  0
  9  1  1  0
  1  2  2  0
  1  3  1  0
  3 16  1  0
 16 17  1  0
 17 18  2  0
 17 19  1  0
 19 20  1  0
 20 21  2  0
 20 26  1  0
 21 22  1  0
 22 23  2  0
 23 24  1  0
 23 25  1  0
 25 26  2  0
M  END
>  <minimizedAffinity>  (664) 
-8.60547

$$$$
data/reference_output_2/data/smiles/176213.pdb
     RDKit          3D

 26 28  0  0  0  0  0  0  0  0999 V2000
   68.8178   42.5789   57.1059 C   0  0  0  0  0  0  0  0  0  0  0  0
   68.9954   43.8201   56.6431 N   0  0  0  0  0  0  0  0  0  0  0  0
   68.2120   44.3506   55.6651 C   0  0  0  0  0  0  0  0  0  0  0  0
   67.2325   43.6107   55.1463 N   0  0  0  0  0  0  0  0  0  0  0  0
   67.0146   42.3432   55.5863 C   0  0  0  0  0  0  0  0  0  0  0  0
   66.0846   41.6306   55.0981 O   0  0  0  0  0  0  0  0  0  0  0  0
   67.7980   41.8185   56.5609 C   0  0  0  0  0  0  0  0  0  0  0  0
   67.6504   40.5353   57.0736 O   0  0  0  0  0  0  0  0  0  0  0  0
   68.5103   45.7121   55.2609 C   0  0  0  0  0  0  0  0  0  0  0  0
   68.3101   46.1328   53.9541 C   0  0  0  0  0  0  0  0  0  0  0  0
   68.5912   47.4162   53.5451 C   0  0  0  0  0  0  0  0  0  0  0  0
   69.0894   48.3472   54.4270 C   0  0  0  0  0  0  0  0  0  0  0  0
   69.4401   49.9831   53.8755 Cl  0  0  0  0  0  0  0  0  0  0  0  0
   69.2991   47.9619   55.7280 C   0  0  0  0  0  0  0  0  0  0  0  0
   69.0061   46.6506   56.1258 C   0  0  0  0  0  0  0  0  0  0  0  0
   69.6628   42.6298   59.2652 O   0  0  0  0  0  0  0  0  0  0  0  0
   69.6816   42.0592   58.1548 C   0  0  0  0  0  0  0  0  0  0  0  0
   70.5067   40.9402   57.8935 N   0  0  0  0  0  0  0  0  0  0  0  0
   71.4024   40.3514   58.8700 C   0  0  0  0  0  0  0  0  0  0  0  0
   71.3681   38.8815   58.9094 C   0  0  0  0  0  0  0  0  0  0  0  0
   72.2084   38.1520   58.1105 C   0  0  0  0  0  0  0  0  0  0  0  0
   72.1377   36.7591   58.1753 C   0  0  0  0  0  0  0  0  0  0  0  0
   71.2693   36.0816   58.9991 C   0  0  0  0  0  0  0  0  0  0  0  0
   71.2275   34.7210   59.0356 F   0  0  0  0  0  0  0  0  0  0  0  0
   70.4207   36.8447   59.8067 C   0  0  0  0  0  0  0  0  0  0  0  0
   70.4819   38.2202   59.7499 C   0  0  0  0  0  0  0  0  0  0  0  0
 16 17  2  0
 17 18  1  0
 17  1  1  0
 18 19  1  0
 19 20  1  0
 20 21  2  0
 20 26  1  0
 21 22  1  0
 22 23  2  0
 23 24  1  0
 23 25  1  0
 25 26  2  0
  1  2  1  0
  1  7  2  0
  2  3  2  0
  3  9  1  0
  3  4  1  0
  9 10  2  0
  9 15  1  0
 10 11  1  0
 11 12  2  0
 12 13  1  0
 12 14  1  0
 14 15  2  0
  4  5  1  0
  5  6  2  0
  5  7  1  0
  7  8  1  0
M  END
>  <minimizedAffinity>  (665) 
-8.60522

$$$$
data/200k_reference_output/data/smiles/69235.pdb
     RDKit          3D

 28 31  0  0  0  0  0  0  0  0999 V2000
   67.8558   45.3661   54.2604 C   0  0  0  0  0  0  0  0  0  0  0  0
   68.0020   45.4204   52.8684 C   0  0  0  0  0  0  0  0  0  0  0  0
   68.5976   46.4974   52.2563 C   0  0  0  0  0  0  0  0  0  0  0  0
   69.0830   47.5824   52.9765 C   0  0  0  0  0  0  0  0  0  0  0  0
   68.9445   47.5388   54.3425 C   0  0  0  0  0  0  0  0  0  0  0  0
   68.3423   46.4482   54.9553 C   0  0  0  0  0  0  0  0  0  0  0  0
   69.5290   48.7836   54.8496 C   0  0  0  0  0  0  0  0  0  0  0  0
   69.5558   49.0401   56.0806 O   0  0  0  0  0  0  0  0  0  0  0  0
   70.0254   49.5915   53.8014 N   0  0  0  0  0  0  0  0  0  0  0  0
   69.7425   48.8260   52.6035 C   0  0  0  0  0  0  0  0  0  0  0  0
   70.0236   49.1843   51.4239 O   0  0  0  0  0  0  0  0  0  0  0  0
   70.6684   50.8989   53.8326 C   0  0  1  0  0  0  0  0  0  0  0  0
   69.8035   52.0066   54.3393 C   0  0  0  0  0  0  0  0  0  0  0  0
   69.6493   52.1502   55.7963 C   0  0  0  0  0  0  0  0  0  0  0  0
   70.9067   51.8987   56.5406 C   0  0  0  0  0  0  0  0  0  0  0  0
   71.1191   52.4508   57.6739 O   0  0  0  0  0  0  0  0  0  0  0  0
   71.8901   51.0314   55.9847 N   0  0  0  0  0  0  0  0  0  0  0  0
   71.9133   50.8102   54.5911 C   0  0  0  0  0  0  0  0  0  0  0  0
   73.0382   50.5384   54.0458 O   0  0  0  0  0  0  0  0  0  0  0  0
   67.2187   44.2508   54.8555 N   0  0  0  0  0  0  0  0  0  0  0  0
   69.0479   41.5870   57.5235 C   0  0  0  0  0  0  0  0  0  0  0  0
   69.5971   42.8588   57.3898 C   0  0  0  0  0  0  0  0  0  0  0  0
   68.9811   43.7247   56.4967 C   0  0  0  0  0  0  0  0  0  0  0  0
   67.8710   43.3775   55.7569 C   0  0  0  0  0  0  0  0  0  0  0  0
   67.3520   42.0879   55.9229 C   0  0  0  0  0  0  0  0  0  0  0  0
   67.9387   41.2118   56.7960 C   0  0  0  0  0  0  0  0  0  0  0  0
   68.9063   39.3121   58.3365 C   0  0  0  0  0  0  0  0  0  0  0  0
   69.6659   40.6225   58.4625 C   0  0  0  0  0  0  0  0  0  0  0  0
 27 28  1  0
 28 21  1  0
 21 22  2  0
 21 26  1  0
 22 23  1  0
 23 24  2  0
 24 20  1  0
 24 25  1  0
 20  1  1  0
  1  2  2  0
  1  6  1  0
  2  3  1  0
  3  4  2  0
  4  5  1  0
  4 10  1  0
  5  6  2  0
  5  7  1  0
  7  8  2  0
  7  9  1  0
 12  9  1  1
  9 10  1  0
 12 13  1  0
 12 18  1  0
 13 14  1  0
 14 15  1  0
 15 16  2  0
 15 17  1  0
 17 18  1  0
 18 19  2  0
 10 11  2  0
 25 26  2  0
M  END
>  <minimizedAffinity>  (666) 
-8.60492

$$$$
data/200k_reference_output/data/smiles/19729.pdb
     RDKit          3D

 26 28  0  0  0  0  0  0  0  0999 V2000
   70.5288   46.0514   58.4428 C   0  0  0  0  0  0  0  0  0  0  0  0
   69.8839   46.9455   57.6281 C   0  0  0  0  0  0  0  0  0  0  0  0
   70.3738   48.1412   57.1754 C   0  0  0  0  0  0  0  0  0  0  0  0
   71.6590   48.4876   57.5844 C   0  0  0  0  0  0  0  0  0  0  0  0
   72.3647   47.6359   58.4038 C   0  0  0  0  0  0  0  0  0  0  0  0
   71.8286   46.4494   58.8290 C   0  0  0  0  0  0  0  0  0  0  0  0
   72.5562   45.6598   59.6233 F   0  0  0  0  0  0  0  0  0  0  0  0
   69.4103   42.4200   58.7089 N   0  0  0  0  0  0  0  0  0  0  0  0
   69.9227   43.6533   58.1656 C   0  0  0  0  0  0  0  0  0  0  0  0
   70.2566   43.5970   56.9784 O   0  0  0  0  0  0  0  0  0  0  0  0
   70.0371   44.8186   58.9064 N   0  0  0  0  0  0  0  0  0  0  0  0
   67.9420   41.0314   57.3021 C   0  0  0  0  0  0  0  0  0  0  0  0
   69.3013   41.2162   57.9092 C   0  0  0  0  0  0  0  0  0  0  0  0
   69.6987   39.9848   58.6864 C   0  0  0  0  0  0  0  0  0  0  0  0
   69.6204   49.0745   56.2640 C   0  0  0  0  0  0  0  0  0  0  0  0
   69.7837   48.7923   54.8484 C   0  0  0  0  0  0  0  0  0  0  0  0
   70.7947   49.3800   54.1663 N   0  0  0  0  0  0  0  0  0  0  0  0
   71.0338   49.1338   52.8855 N   0  0  0  0  0  0  0  0  0  0  0  0
   70.2733   48.2736   52.1799 C   0  0  0  0  0  0  0  0  0  0  0  0
   70.5312   48.0584   50.9474 O   0  0  0  0  0  0  0  0  0  0  0  0
   69.2411   47.6621   52.8370 C   0  0  0  0  0  0  0  0  0  0  0  0
   68.9829   47.9180   54.1912 C   0  0  0  0  0  0  0  0  0  0  0  0
   67.8149   47.2064   54.7172 C   0  0  0  0  0  0  0  0  0  0  0  0
   68.0866   45.7256   54.4315 C   0  0  0  0  0  0  0  0  0  0  0  0
   67.9076   45.5443   52.9235 C   0  0  0  0  0  0  0  0  0  0  0  0
   68.3848   46.7046   52.1200 C   0  0  0  0  0  0  0  0  0  0  0  0
 12 13  1  0
 13 14  1  0
 13  8  1  0
  8  9  1  0
  9 10  2  0
  9 11  1  0
 11  1  1  0
  1  2  2  0
  1  6  1  0
  2  3  1  0
  3 15  1  0
  3  4  2  0
 15 16  1  0
 16 17  2  0
 16 22  1  0
 17 18  1  0
 18 19  1  0
 19 20  2  0
 19 21  1  0
 21 22  2  0
 21 26  1  0
 22 23  1  0
 23 24  1  0
 24 25  1  0
 25 26  1  0
  4  5  1  0
  5  6  2  0
  6  7  1  0
M  END
>  <minimizedAffinity>  (667) 
-8.60484

$$$$
data/200k_reference_output/data/smiles/30691.pdb
     RDKit          3D

 26 30  0  0  0  0  0  0  0  0999 V2000
   67.8065   43.4273   61.9034 O   0  0  0  0  0  0  0  0  0  0  0  0
   67.6821   42.5305   61.0004 C   0  0  0  0  0  0  0  0  0  0  0  0
   67.9790   42.6699   59.6262 N   0  0  0  0  0  0  0  0  0  0  0  0
   67.7033   41.4296   58.9543 C   0  0  0  0  0  0  0  0  0  0  0  0
   69.0077   40.9660   58.3362 C   0  0  0  0  0  0  0  0  0  0  0  0
   69.5506   42.1812   57.5701 C   0  0  0  0  0  0  0  0  0  0  0  0
   68.4928   42.7429   56.7719 N   0  0  0  0  0  0  0  0  0  0  0  0
   67.3093   41.9634   56.5191 C   0  0  0  0  0  0  0  0  0  0  0  0
   66.6847   41.5956   57.8456 C   0  0  0  0  0  0  0  0  0  0  0  0
   67.2138   40.5026   59.9836 C   0  0  0  0  0  0  0  0  0  0  0  0
   66.7924   39.1906   59.9703 C   0  0  0  0  0  0  0  0  0  0  0  0
   66.3664   38.5276   61.1173 C   0  0  0  0  0  0  0  0  0  0  0  0
   66.3628   39.2003   62.3190 C   0  0  0  0  0  0  0  0  0  0  0  0
   66.7822   40.5105   62.3452 C   0  0  0  0  0  0  0  0  0  0  0  0
   67.2068   41.1667   61.1886 C   0  0  0  0  0  0  0  0  0  0  0  0
   68.5887   44.0432   56.2279 C   0  0  0  0  0  0  0  0  0  0  0  0
   68.0633   44.3539   55.0230 N   0  0  0  0  0  0  0  0  0  0  0  0
   68.1448   45.5822   54.4932 C   0  0  0  0  0  0  0  0  0  0  0  0
   68.7869   46.5846   55.1868 C   0  0  0  0  0  0  0  0  0  0  0  0
   69.3220   46.2948   56.3976 C   0  0  0  0  0  0  0  0  0  0  0  0
   69.9095   47.2119   57.0325 O   0  0  0  0  0  0  0  0  0  0  0  0
   69.2094   45.0338   56.8876 N   0  0  0  0  0  0  0  0  0  0  0  0
   68.8431   47.9217   54.5424 C   0  0  0  0  0  0  0  0  0  0  0  0
   69.3195   47.7377   53.1382 C   0  0  0  0  0  0  0  0  0  0  0  0
   68.6443   46.6442   52.3877 C   0  0  0  0  0  0  0  0  0  0  0  0
   67.5723   45.9364   53.1704 C   0  0  0  0  0  0  0  0  0  0  0  0
  1  2  2  0
  2  3  1  0
  2 15  1  0
  3  4  1  0
  4  5  1  0
  4  9  1  0
  4 10  1  0
  5  6  1  0
  6  7  1  0
  7 16  1  0
  7  8  1  0
 16 17  2  0
 16 22  1  0
 17 18  1  0
 18 19  2  0
 18 26  1  0
 19 20  1  0
 19 23  1  0
 20 21  2  0
 20 22  1  0
 23 24  1  0
 24 25  1  0
 25 26  1  0
  8  9  1  0
 10 11  2  0
 10 15  1  0
 11 12  1  0
 12 13  2  0
 13 14  1  0
 14 15  2  0
M  END
>  <minimizedAffinity>  (668) 
-8.60400

$$$$
data/200k_reference_output/data/smiles/5749.pdb
     RDKit          3D

 26 28  0  0  0  0  0  0  0  0999 V2000
   69.3570   43.3783   57.5129 N   0  0  0  0  0  0  0  0  0  0  0  0
   68.5666   42.2676   57.1905 C   0  0  0  0  0  0  0  0  0  0  0  0
   67.7692   42.3873   56.2239 O   0  0  0  0  0  0  0  0  0  0  0  0
   68.6152   40.9936   57.9042 C   0  0  0  0  0  0  0  0  0  0  0  0
   69.8257   40.3488   58.1093 C   0  0  0  0  0  0  0  0  0  0  0  0
   69.9103   39.1462   58.7774 C   0  0  0  0  0  0  0  0  0  0  0  0
   68.7647   38.5540   59.2628 C   0  0  0  0  0  0  0  0  0  0  0  0
   67.5340   39.1561   59.0845 C   0  0  0  0  0  0  0  0  0  0  0  0
   67.4990   40.3616   58.4078 C   0  0  0  0  0  0  0  0  0  0  0  0
   66.3639   38.5261   59.5944 N   0  0  0  0  0  0  0  0  0  0  0  0
   66.1074   37.2139   59.4230 C   0  0  0  0  0  0  0  0  0  0  0  0
   64.8998   36.9410   60.0416 C   0  0  0  0  0  0  0  0  0  0  0  0
   64.4595   38.1185   60.5737 C   0  0  0  0  0  0  0  0  0  0  0  0
   65.3684   39.0946   60.2945 C   0  0  0  0  0  0  0  0  0  0  0  0
   69.8762   45.7804   58.6896 O   0  0  0  0  0  0  0  0  0  0  0  0
   69.5930   45.8459   57.4412 C   0  0  0  0  0  0  0  0  0  0  0  0
   69.3227   44.6046   56.8409 N   0  0  0  0  0  0  0  0  0  0  0  0
   69.5900   47.1690   56.8411 C   0  0  0  0  0  0  0  0  0  0  0  0
   68.6110   47.4672   55.9173 O   0  0  0  0  0  0  0  0  0  0  0  0
   68.7723   47.3779   54.5240 C   0  0  0  0  0  0  0  0  0  0  0  0
   69.4159   48.3453   53.7977 C   0  0  0  0  0  0  0  0  0  0  0  0
   69.5453   48.2145   52.4406 C   0  0  0  0  0  0  0  0  0  0  0  0
   69.0315   47.1158   51.7974 C   0  0  0  0  0  0  0  0  0  0  0  0
   68.3863   46.1341   52.4852 C   0  0  0  0  0  0  0  0  0  0  0  0
   68.2590   46.2716   53.8487 C   0  0  0  0  0  0  0  0  0  0  0  0
   67.6210   45.3051   54.5456 F   0  0  0  0  0  0  0  0  0  0  0  0
 15 16  2  0
 16 18  1  0
 16 17  1  0
 18 19  1  0
 19 20  1  0
 20 21  2  0
 20 25  1  0
 21 22  1  0
 22 23  2  0
 23 24  1  0
 24 25  2  0
 25 26  1  0
 17  1  1  0
  1  2  1  0
  2  3  2  0
  2  4  1  0
  4  5  2  0
  4  9  1  0
  5  6  1  0
  6  7  2  0
  7  8  1  0
  8 10  1  0
  8  9  2  0
 10 11  1  0
 10 14  1  0
 11 12  2  0
 12 13  1  0
 13 14  2  0
M  END
>  <minimizedAffinity>  (669) 
-8.60391

$$$$
data/reference_output_2/data/smiles/126005.pdb
     RDKit          3D

 25 27  0  0  0  0  0  0  0  0999 V2000
   70.4778   49.6200   53.9659 C   0  0  0  0  0  0  0  0  0  0  0  0
   69.9940   49.1066   55.1553 C   0  0  0  0  0  0  0  0  0  0  0  0
   69.1920   48.0196   55.2282 N   0  0  0  0  0  0  0  0  0  0  0  0
   68.8000   47.3460   54.1400 C   0  0  0  0  0  0  0  0  0  0  0  0
   67.9921   46.2267   54.2021 C   0  0  0  0  0  0  0  0  0  0  0  0
   67.6084   45.5400   53.0450 C   0  0  0  0  0  0  0  0  0  0  0  0
   68.0639   46.0168   51.8362 C   0  0  0  0  0  0  0  0  0  0  0  0
   68.8695   47.1329   51.7889 C   0  0  0  0  0  0  0  0  0  0  0  0
   69.2551   47.8192   52.9207 C   0  0  0  0  0  0  0  0  0  0  0  0
   70.0807   48.9398   52.8362 C   0  0  0  0  0  0  0  0  0  0  0  0
   70.4562   49.3146   51.7102 O   0  0  0  0  0  0  0  0  0  0  0  0
   72.6122   50.9152   54.5241 N   0  0  0  0  0  0  0  0  0  0  0  0
   71.3384   50.7971   53.9692 C   0  0  0  0  0  0  0  0  0  0  0  0
   70.8832   51.8415   53.4034 O   0  0  0  0  0  0  0  0  0  0  0  0
   72.7815   53.6722   55.4060 C   0  0  0  0  0  0  0  0  0  0  0  0
   73.5436   52.3734   54.4658 S   0  0  0  0  0  0  0  0  0  0  0  0
   73.7194   52.7909   53.0413 O   0  0  0  0  0  0  0  0  0  0  0  0
   74.9052   52.1165   55.0478 O   0  0  0  0  0  0  0  0  0  0  0  0
   68.6990   47.5829   56.5349 C   0  0  0  0  0  0  0  0  0  0  0  0
   69.7634   46.9765   57.3777 C   0  0  0  0  0  0  0  0  0  0  0  0
   70.5896   47.6518   58.2297 C   0  0  0  0  0  0  0  0  0  0  0  0
   71.5505   47.0037   58.9666 C   0  0  0  0  0  0  0  0  0  0  0  0
   71.7247   45.6232   58.8761 C   0  0  0  0  0  0  0  0  0  0  0  0
   70.8855   44.9500   58.0140 C   0  0  0  0  0  0  0  0  0  0  0  0
   69.9247   45.5892   57.2761 C   0  0  0  0  0  0  0  0  0  0  0  0
 15 16  1  0
 16 17  2  0
 16 18  2  0
 16 12  1  0
 12 13  1  0
 13 14  2  0
 13  1  1  0
  1  2  2  0
  1 10  1  0
  2  3  1  0
  3 19  1  0
  3  4  1  0
 19 20  1  0
 20 21  2  0
 20 25  1  0
 21 22  1  0
 22 23  2  0
 23 24  1  0
 24 25  2  0
  4  5  1  0
  4  9  2  0
  5  6  2  0
  6  7  1  0
  7  8  2  0
  8  9  1  0
  9 10  1  0
 10 11  2  0
M  END
>  <minimizedAffinity>  (670) 
-8.60312

$$$$
data/reference_output_2/data/smiles/87438.pdb
     RDKit          3D

 26 28  0  0  0  0  0  0  0  0999 V2000
   69.3858   47.6948   56.3083 N   0  0  0  0  0  0  0  0  0  0  0  0
   69.9693   48.6599   55.6367 N   0  0  0  0  0  0  0  0  0  0  0  0
   69.9586   48.7781   54.2858 C   0  0  0  0  0  0  0  0  0  0  0  0
   69.2877   47.8156   53.5802 C   0  0  0  0  0  0  0  0  0  0  0  0
   69.2031   47.8211   52.2140 C   0  0  0  0  0  0  0  0  0  0  0  0
   68.5007   46.8015   51.5665 C   0  0  0  0  0  0  0  0  0  0  0  0
   67.8901   45.7901   52.2714 C   0  0  0  0  0  0  0  0  0  0  0  0
   67.9633   45.7666   53.6402 C   0  0  0  0  0  0  0  0  0  0  0  0
   68.6575   46.7733   54.2790 C   0  0  0  0  0  0  0  0  0  0  0  0
   68.7296   46.7482   55.6516 C   0  0  0  0  0  0  0  0  0  0  0  0
   68.1649   45.8160   56.2680 O   0  0  0  0  0  0  0  0  0  0  0  0
   70.6305   49.8792   53.6310 C   0  0  0  0  0  0  0  0  0  0  0  0
   70.1347   50.8658   53.0646 O   0  0  0  0  0  0  0  0  0  0  0  0
   72.0606   49.8437   53.6267 O   0  0  0  0  0  0  0  0  0  0  0  0
   69.4669   47.6722   57.7614 C   0  0  0  0  0  0  0  0  0  0  0  0
   70.8541   47.5049   58.2579 C   0  0  0  0  0  0  0  0  0  0  0  0
   71.3739   48.5324   58.7758 O   0  0  0  0  0  0  0  0  0  0  0  0
   73.9013   42.5953   57.8859 C   0  0  0  0  0  0  0  0  0  0  0  0
   73.0930   43.8573   57.9814 C   0  0  0  0  0  0  0  0  0  0  0  0
   73.6999   45.0841   58.1090 C   0  0  0  0  0  0  0  0  0  0  0  0
   72.9677   46.2681   58.1987 C   0  0  0  0  0  0  0  0  0  0  0  0
   73.6592   47.5541   58.3334 C   0  0  0  0  0  0  0  0  0  0  0  0
   71.5832   46.2515   58.1624 C   0  0  0  0  0  0  0  0  0  0  0  0
   70.9743   45.0233   58.0350 C   0  0  0  0  0  0  0  0  0  0  0  0
   71.7181   43.8368   57.9455 C   0  0  0  0  0  0  0  0  0  0  0  0
   70.9917   42.5508   57.8089 C   0  0  0  0  0  0  0  0  0  0  0  0
 18 19  1  0
 19 20  2  0
 19 25  1  0
 20 21  1  0
 21 22  1  0
 21 23  2  0
 23 16  1  0
 23 24  1  0
 16 17  2  0
 16 15  1  0
 15  1  1  0
  1  2  1  0
  1 10  1  0
  2  3  2  0
  3 12  1  0
  3  4  1  0
 12 13  2  0
 12 14  1  0
  4  5  2  0
  4  9  1  0
  5  6  1  0
  6  7  2  0
  7  8  1  0
  8  9  2  0
  9 10  1  0
 10 11  2  0
 24 25  2  0
 25 26  1  0
M  END
>  <minimizedAffinity>  (671) 
-8.60275

$$$$
data/200k_reference_output/data/smiles/12876.pdb
     RDKit          3D

 27 30  0  0  0  0  0  0  0  0999 V2000
   68.5120   43.2106   56.4768 C   0  0  0  0  0  0  0  0  0  0  0  0
   67.4994   42.2750   56.5022 C   0  0  0  0  0  0  0  0  0  0  0  0
   67.6875   41.0551   57.1259 C   0  0  0  0  0  0  0  0  0  0  0  0
   68.8771   40.7256   57.7385 C   0  0  0  0  0  0  0  0  0  0  0  0
   69.8967   41.6474   57.7218 C   0  0  0  0  0  0  0  0  0  0  0  0
   69.6982   42.8757   57.0909 C   0  0  0  0  0  0  0  0  0  0  0  0
   71.0178   41.0443   58.4229 C   0  0  0  0  0  0  0  0  0  0  0  0
   72.1179   41.6146   58.5929 O   0  0  0  0  0  0  0  0  0  0  0  0
   70.6880   39.7173   58.8870 N   0  0  0  0  0  0  0  0  0  0  0  0
   69.3428   39.5242   58.4572 C   0  0  0  0  0  0  0  0  0  0  0  0
   68.6200   38.4973   58.6429 O   0  0  0  0  0  0  0  0  0  0  0  0
   69.6297   45.5360   57.3443 O   0  0  0  0  0  0  0  0  0  0  0  0
   68.9133   45.6309   56.3144 C   0  0  0  0  0  0  0  0  0  0  0  0
   68.2982   44.4572   55.8115 N   0  0  0  0  0  0  0  0  0  0  0  0
   68.7582   46.9892   55.6896 C   0  0  0  0  0  0  0  0  0  0  0  0
   68.6143   46.8884   54.2267 C   0  0  0  0  0  0  0  0  0  0  0  0
   69.3923   47.7571   53.4500 C   0  0  0  0  0  0  0  0  0  0  0  0
   69.3449   47.7298   52.0867 C   0  0  0  0  0  0  0  0  0  0  0  0
   68.5318   46.8466   51.4383 C   0  0  0  0  0  0  0  0  0  0  0  0
   67.7437   45.9652   52.1902 C   0  0  0  0  0  0  0  0  0  0  0  0
   67.8022   46.0053   53.5747 C   0  0  0  0  0  0  0  0  0  0  0  0
   71.5457   38.8435   59.6550 C   0  0  0  0  0  0  0  0  0  0  0  0
   72.6249   38.1536   58.8287 C   0  0  2  0  0  0  0  0  0  0  0  0
   72.0430   37.1818   57.8753 C   0  0  0  0  0  0  0  0  0  0  0  0
   72.3470   35.8197   58.5119 C   0  0  0  0  0  0  0  0  0  0  0  0
   73.6546   36.1906   59.1972 C   0  0  0  0  0  0  0  0  0  0  0  0
   73.4919   37.4606   59.6457 O   0  0  0  0  0  0  0  0  0  0  0  0
 12 13  2  0
 13 15  1  0
 13 14  1  0
 15 16  1  0
 16 17  2  0
 16 21  1  0
 17 18  1  0
 18 19  2  0
 19 20  1  0
 20 21  2  0
 14  1  1  0
  1  2  2  0
  1  6  1  0
  2  3  1  0
  3  4  2  0
  4  5  1  0
  4 10  1  0
  5  6  2  0
  5  7  1  0
  7  8  2  0
  7  9  1  0
  9 22  1  0
  9 10  1  0
 23 22  1  1
 23 24  1  0
 23 27  1  0
 24 25  1  0
 25 26  1  0
 26 27  1  0
 10 11  2  0
M  END
>  <minimizedAffinity>  (672) 
-8.60206

$$$$
data/200k_reference_output/data/smiles/47902.pdb
     RDKit          3D

 27 30  0  0  0  0  0  0  0  0999 V2000
   70.3739   48.5932   58.3887 C   0  0  1  0  0  0  0  0  0  0  0  0
   70.1439   48.3623   56.9917 N   0  0  0  0  0  0  0  0  0  0  0  0
   69.0367   47.6423   56.5003 C   0  0  0  0  0  0  0  0  0  0  0  0
   68.1596   47.1514   57.2591 O   0  0  0  0  0  0  0  0  0  0  0  0
   68.8416   47.4216   55.0679 C   0  0  0  0  0  0  0  0  0  0  0  0
   69.5244   48.2085   54.1312 C   0  0  0  0  0  0  0  0  0  0  0  0
   69.3661   48.0277   52.7744 C   0  0  0  0  0  0  0  0  0  0  0  0
   68.5265   47.0610   52.2642 C   0  0  0  0  0  0  0  0  0  0  0  0
   68.1875   46.6716   51.0143 N   0  0  0  0  0  0  0  0  0  0  0  0
   67.3084   45.6598   51.1087 C   0  0  0  0  0  0  0  0  0  0  0  0
   67.1085   45.4273   52.4245 N   0  0  0  0  0  0  0  0  0  0  0  0
   67.8464   46.2763   53.1691 C   0  0  0  0  0  0  0  0  0  0  0  0
   68.0087   46.4623   54.5368 C   0  0  0  0  0  0  0  0  0  0  0  0
   71.6316   48.0551   58.9066 C   0  0  0  0  0  0  0  0  0  0  0  0
   72.6372   47.7984   58.2164 O   0  0  0  0  0  0  0  0  0  0  0  0
   72.5195   46.7564   60.7918 C   0  0  0  0  0  0  0  0  0  0  0  0
   71.7138   47.8066   60.2880 O   0  0  0  0  0  0  0  0  0  0  0  0
   70.1656   50.0689   58.6846 C   0  0  0  0  0  0  0  0  0  0  0  0
   69.1658   50.6456   57.7530 C   0  0  0  0  0  0  0  0  0  0  0  0
   67.7990   50.7879   57.9314 C   0  0  0  0  0  0  0  0  0  0  0  0
   67.2563   51.3721   56.8250 N   0  0  0  0  0  0  0  0  0  0  0  0
   68.2222   51.6151   55.9291 C   0  0  0  0  0  0  0  0  0  0  0  0
   68.2725   52.1736   54.6586 C   0  0  0  0  0  0  0  0  0  0  0  0
   69.4469   52.2979   53.9457 C   0  0  0  0  0  0  0  0  0  0  0  0
   70.6316   51.8585   54.4973 C   0  0  0  0  0  0  0  0  0  0  0  0
   70.5845   51.2986   55.7709 C   0  0  0  0  0  0  0  0  0  0  0  0
   69.4111   51.1731   56.4831 C   0  0  0  0  0  0  0  0  0  0  0  0
 16 17  1  0
 17 14  1  0
 14 15  2  0
 14  1  1  0
  1 18  1  6
  1  2  1  0
 18 19  1  0
 19 20  2  0
 19 27  1  0
 20 21  1  0
 21 22  1  0
 22 23  1  0
 22 27  2  0
 23 24  2  0
 24 25  1  0
 25 26  2  0
 26 27  1  0
  2  3  1  0
  3  4  2  0
  3  5  1  0
  5  6  2  0
  5 13  1  0
  6  7  1  0
  7  8  2  0
  8  9  1  0
  8 12  1  0
  9 10  1  0
 10 11  2  0
 11 12  1  0
 12 13  2  0
M  CHG  1  11   1
M  END
>  <minimizedAffinity>  (673) 
-8.60127

$$$$
data/reference_output_2/data/smiles/165720.pdb
     RDKit          3D

 26 28  0  0  0  0  0  0  0  0999 V2000
   70.6778   46.4161   59.2655 O   0  0  0  0  0  0  0  0  0  0  0  0
   70.4560   45.6255   58.3171 C   0  0  0  0  0  0  0  0  0  0  0  0
   69.4580   45.9603   57.3717 N   0  0  0  0  0  0  0  0  0  0  0  0
   71.1922   44.3850   58.1688 C   0  0  0  0  0  0  0  0  0  0  0  0
   72.5687   44.4851   57.9017 C   0  0  0  0  0  0  0  0  0  0  0  0
   73.3651   43.3788   57.7426 C   0  0  0  0  0  0  0  0  0  0  0  0
   72.7919   42.1315   57.8488 C   0  0  0  0  0  0  0  0  0  0  0  0
   71.4453   41.9569   58.1097 C   0  0  0  0  0  0  0  0  0  0  0  0
   70.6946   43.1283   58.2607 C   0  0  0  0  0  0  0  0  0  0  0  0
   70.8642   40.6822   58.2165 N   0  0  0  0  0  0  0  0  0  0  0  0
   71.5125   39.5299   58.4027 C   0  0  0  0  0  0  0  0  0  0  0  0
   70.5841   38.4826   58.4555 C   0  0  0  0  0  0  0  0  0  0  0  0
   70.8572   37.1592   58.6334 F   0  0  0  0  0  0  0  0  0  0  0  0
   69.3600   39.0867   58.2896 C   0  0  0  0  0  0  0  0  0  0  0  0
   69.5862   40.4025   58.1511 N   0  0  0  0  0  0  0  0  0  0  0  0
   68.7043   47.1332   57.4418 N   0  0  0  0  0  0  0  0  0  0  0  0
   69.2287   48.1915   56.1866 S   0  0  0  0  0  0  0  0  0  0  0  0
   68.5400   49.5128   56.2416 O   0  0  0  0  0  0  0  0  0  0  0  0
   70.7053   48.4424   56.2687 O   0  0  0  0  0  0  0  0  0  0  0  0
   68.8872   47.4923   54.6118 C   0  0  0  0  0  0  0  0  0  0  0  0
   68.0853   46.3882   54.4463 C   0  0  0  0  0  0  0  0  0  0  0  0
   67.8585   45.8928   53.1941 C   0  0  0  0  0  0  0  0  0  0  0  0
   68.4083   46.4580   52.0512 C   0  0  0  0  0  0  0  0  0  0  0  0
   69.2131   47.5641   52.2119 C   0  0  0  0  0  0  0  0  0  0  0  0
   69.4407   48.0630   53.4728 C   0  0  0  0  0  0  0  0  0  0  0  0
   70.2280   49.1492   53.6472 F   0  0  0  0  0  0  0  0  0  0  0  0
  1  2  2  0
  2  3  1  0
  2  4  1  0
  3 16  1  0
 16 17  1  0
 17 18  2  0
 17 19  2  0
 17 20  1  0
 20 21  2  0
 20 25  1  0
 21 22  1  0
 22 23  2  0
 23 24  1  0
 24 25  2  0
 25 26  1  0
  4  5  2  0
  4  9  1  0
  5  6  1  0
  6  7  2  0
  7  8  1  0
  8 10  1  0
  8  9  2  0
 10 11  1  0
 10 15  1  0
 11 12  2  0
 12 13  1  0
 12 14  1  0
 14 15  2  0
M  END
>  <minimizedAffinity>  (674) 
-8.59928

$$$$
data/200k_reference_output/data/smiles/72237.pdb
     RDKit          3D

 24 26  0  0  0  0  0  0  0  0999 V2000
   69.5562   43.9728   56.9556 N   0  0  0  0  0  0  0  0  0  0  0  0
   69.1971   42.7746   57.2415 C   0  0  0  0  0  0  0  0  0  0  0  0
   67.9130   42.1929   56.9110 C   0  0  0  0  0  0  0  0  0  0  0  0
   66.9773   42.7923   56.2953 O   0  0  0  0  0  0  0  0  0  0  0  0
   67.9392   40.8700   57.4063 N   0  0  0  0  0  0  0  0  0  0  0  0
   69.1782   40.5774   58.0383 C   0  0  0  0  0  0  0  0  0  0  0  0
   69.6856   39.4445   58.6677 C   0  0  0  0  0  0  0  0  0  0  0  0
   68.6929   38.0073   58.7738 Cl  0  0  0  0  0  0  0  0  0  0  0  0
   70.9535   39.4232   59.2120 C   0  0  0  0  0  0  0  0  0  0  0  0
   71.7042   40.5754   59.1082 C   0  0  0  0  0  0  0  0  0  0  0  0
   71.2062   41.6997   58.4853 C   0  0  0  0  0  0  0  0  0  0  0  0
   72.1683   43.1589   58.3590 Cl  0  0  0  0  0  0  0  0  0  0  0  0
   69.9403   41.7229   57.9416 C   0  0  0  0  0  0  0  0  0  0  0  0
   69.0374   46.2701   56.2800 C   0  0  0  0  0  0  0  0  0  0  0  0
   70.0732   46.6168   56.9113 O   0  0  0  0  0  0  0  0  0  0  0  0
   68.7107   44.8698   56.2688 N   0  0  0  0  0  0  0  0  0  0  0  0
   68.2210   47.2792   55.5943 C   0  0  0  0  0  0  0  0  0  0  0  0
   70.3606   48.7805   51.3546 N   0  0  0  0  0  0  0  0  0  0  0  0
   69.4828   47.9264   52.0877 C   0  0  0  0  0  0  0  0  0  0  0  0
   68.8072   46.9688   51.3901 C   0  0  0  0  0  0  0  0  0  0  0  0
   67.9444   46.1132   52.0451 C   0  0  0  0  0  0  0  0  0  0  0  0
   67.7930   46.2573   53.4059 C   0  0  0  0  0  0  0  0  0  0  0  0
   68.4596   47.2118   54.1341 C   0  0  0  0  0  0  0  0  0  0  0  0
   69.3133   48.0499   53.4502 C   0  0  0  0  0  0  0  0  0  0  0  0
 18 19  1  0
 19 20  2  0
 19 24  1  0
 20 21  1  0
 21 22  2  0
 22 23  1  0
 23 17  1  0
 23 24  2  0
 17 14  1  0
 14 15  2  0
 14 16  1  0
 16  1  1  0
  1  2  2  0
  2  3  1  0
  2 13  1  0
  3  4  2  0
  3  5  1  0
  5  6  1  0
  6  7  1  0
  6 13  2  0
  7  8  1  0
  7  9  2  0
  9 10  1  0
 10 11  2  0
 11 12  1  0
 11 13  1  0
M  END
>  <minimizedAffinity>  (675) 
-8.59884

$$$$
data/200k_reference_output/data/smiles/21070.pdb
     RDKit          3D

 26 28  0  0  0  0  0  0  0  0999 V2000
   71.5475   42.7170   57.7564 C   0  0  0  0  0  0  0  0  0  0  0  0
   72.7380   42.1894   57.5358 N   0  0  0  0  0  0  0  0  0  0  0  0
   73.7836   42.6219   57.5997 C   0  0  0  0  0  0  0  0  0  0  0  0
   75.0708   42.4109   57.4642 O   0  0  0  0  0  0  0  0  0  0  0  0
   73.3570   44.4198   58.1422 S   0  0  0  0  0  0  0  0  0  0  0  0
   71.6243   44.0612   58.1394 C   0  0  0  0  0  0  0  0  0  0  0  0
   68.7550   38.8357   58.8846 C   0  0  0  0  0  0  0  0  0  0  0  0
   68.9343   40.1158   58.1561 C   0  0  0  0  0  0  0  0  0  0  0  0
   67.9142   40.6001   57.3634 C   0  0  0  0  0  0  0  0  0  0  0  0
   68.1007   41.7909   56.6974 C   0  0  0  0  0  0  0  0  0  0  0  0
   67.0072   42.3178   55.8427 C   0  0  0  0  0  0  0  0  0  0  0  0
   69.2936   42.4594   56.8426 C   0  0  0  0  0  0  0  0  0  0  0  0
   70.2955   41.9979   57.6123 N   0  0  0  0  0  0  0  0  0  0  0  0
   70.1125   40.8426   58.2576 C   0  0  0  0  0  0  0  0  0  0  0  0
   70.5116   44.9955   58.4789 C   0  0  0  0  0  0  0  0  0  0  0  0
   70.1742   45.8319   57.6025 N   0  0  0  0  0  0  0  0  0  0  0  0
   69.1755   46.7563   57.7508 N   0  0  0  0  0  0  0  0  0  0  0  0
   68.7779   47.6483   56.9215 C   0  0  0  0  0  0  0  0  0  0  0  0
   67.4165   48.7628   57.3612 S   0  0  0  0  0  0  0  0  0  0  0  0
   69.4114   47.7447   55.6509 N   0  0  0  0  0  0  0  0  0  0  0  0
   68.9024   47.1279   54.4896 C   0  0  0  0  0  0  0  0  0  0  0  0
   69.2240   47.6902   53.2652 C   0  0  0  0  0  0  0  0  0  0  0  0
   68.7947   47.1519   52.0672 C   0  0  0  0  0  0  0  0  0  0  0  0
   68.0268   46.0229   52.0898 C   0  0  0  0  0  0  0  0  0  0  0  0
   67.6924   45.4398   53.2923 C   0  0  0  0  0  0  0  0  0  0  0  0
   68.1301   45.9953   54.4613 C   0  0  0  0  0  0  0  0  0  0  0  0
  7  8  1  0
  8  9  2  0
  8 14  1  0
  9 10  1  0
 10 11  1  0
 10 12  2  0
 12 13  1  0
 13  1  1  0
 13 14  2  0
  1  2  1  0
  1  6  2  0
  2  3  1  0
  3  4  2  0
  3  5  1  0
  5  6  1  0
  6 15  1  0
 15 16  2  0
 16 17  1  0
 17 18  2  0
 18 19  1  0
 18 20  1  0
 20 21  1  0
 21 22  2  0
 21 26  1  0
 22 23  1  0
 23 24  2  0
 24 25  1  0
 25 26  2  0
M  CHG  3   2  -1  13   1  17   1
M  END
>  <minimizedAffinity>  (676) 
-8.59837

$$$$
data/reference_output_2/data/smiles/100910.pdb
     RDKit          3D

 25 26  0  0  0  0  0  0  0  0999 V2000
   69.7017   43.1288   57.0368 O   0  0  0  0  0  0  0  0  0  0  0  0
   68.5428   42.7186   56.6718 C   0  0  0  0  0  0  0  0  0  0  0  0
   67.7800   43.7202   56.0165 N   0  0  0  0  0  0  0  0  0  0  0  0
   68.2545   45.0324   55.7979 N   0  0  0  0  0  0  0  0  0  0  0  0
   68.2091   45.6591   54.5356 C   0  0  0  0  0  0  0  0  0  0  0  0
   67.7119   44.9706   53.5968 O   0  0  0  0  0  0  0  0  0  0  0  0
   68.6767   47.0029   54.2409 C   0  0  0  0  0  0  0  0  0  0  0  0
   69.0313   47.4121   52.9769 C   0  0  0  0  0  0  0  0  0  0  0  0
   69.4749   48.6970   52.7134 C   0  0  0  0  0  0  0  0  0  0  0  0
   69.5820   49.6367   53.7151 C   0  0  0  0  0  0  0  0  0  0  0  0
   70.1408   51.2703   53.4072 Cl  0  0  0  0  0  0  0  0  0  0  0  0
   69.2275   49.2363   54.9925 C   0  0  0  0  0  0  0  0  0  0  0  0
   68.7855   47.9472   55.2448 C   0  0  0  0  0  0  0  0  0  0  0  0
   68.1180   41.3426   56.9358 C   0  0  0  0  0  0  0  0  0  0  0  0
   68.6876   40.7143   58.0310 O   0  0  0  0  0  0  0  0  0  0  0  0
   68.5264   39.3965   58.3560 C   0  0  0  0  0  0  0  0  0  0  0  0
   67.7851   38.6686   57.6542 O   0  0  0  0  0  0  0  0  0  0  0  0
   69.2188   38.7799   59.5463 C   0  0  0  0  0  0  0  0  0  0  0  0
   70.2878   37.8681   59.0952 C   0  0  0  0  0  0  0  0  0  0  0  0
   71.2201   38.2684   58.1509 C   0  0  0  0  0  0  0  0  0  0  0  0
   72.1975   37.3882   57.7586 C   0  0  0  0  0  0  0  0  0  0  0  0
   72.2918   36.1034   58.2713 C   0  0  0  0  0  0  0  0  0  0  0  0
   71.3637   35.7052   59.2104 C   0  0  0  0  0  0  0  0  0  0  0  0
   70.3803   36.5916   59.6054 C   0  0  0  0  0  0  0  0  0  0  0  0
   69.4619   36.1909   60.5381 F   0  0  0  0  0  0  0  0  0  0  0  0
  1  2  2  0
  2 14  1  0
  2  3  1  0
 14 15  1  0
 15 16  1  0
 16 17  2  0
 16 18  1  0
 18 19  1  0
 19 20  2  0
 19 24  1  0
 20 21  1  0
 21 22  2  0
 22 23  1  0
 23 24  2  0
 24 25  1  0
  3  4  1  0
  4  5  1  0
  5  6  2  0
  5  7  1  0
  7  8  2  0
  7 13  1  0
  8  9  1  0
  9 10  2  0
 10 11  1  0
 10 12  1  0
 12 13  2  0
M  END
>  <minimizedAffinity>  (677) 
-8.59826

$$$$
data/200k_reference_output/data/smiles/74269.pdb
     RDKit          3D

 26 28  0  0  0  0  0  0  0  0999 V2000
   70.2549   48.6306   51.3667 C   0  0  0  0  0  0  0  0  0  0  0  0
   69.5786   48.3319   52.6533 C   0  0  0  0  0  0  0  0  0  0  0  0
   69.1091   47.0894   52.9001 N   0  0  0  0  0  0  0  0  0  0  0  0
   68.4874   46.7628   54.0476 C   0  0  0  0  0  0  0  0  0  0  0  0
   68.3496   47.7692   54.9736 C   0  0  0  0  0  0  0  0  0  0  0  0
   68.8133   49.0548   54.7651 C   0  0  0  0  0  0  0  0  0  0  0  0
   69.4427   49.3426   53.5766 C   0  0  0  0  0  0  0  0  0  0  0  0
   69.8008   50.6615   53.6195 N   0  0  0  0  0  0  0  0  0  0  0  0
   69.4202   51.2070   54.7856 C   0  0  0  0  0  0  0  0  0  0  0  0
   69.5469   52.4852   55.3047 C   0  0  0  0  0  0  0  0  0  0  0  0
   69.0606   52.8078   56.5622 C   0  0  0  0  0  0  0  0  0  0  0  0
   68.4380   51.8076   57.2947 C   0  0  0  0  0  0  0  0  0  0  0  0
   68.3222   50.5435   56.7592 C   0  0  0  0  0  0  0  0  0  0  0  0
   68.8010   50.2142   55.5143 C   0  0  0  0  0  0  0  0  0  0  0  0
   67.9883   45.4023   54.2856 C   0  0  0  0  0  0  0  0  0  0  0  0
   67.4036   44.7817   53.3637 O   0  0  0  0  0  0  0  0  0  0  0  0
   68.1289   44.7302   55.5216 N   0  0  0  0  0  0  0  0  0  0  0  0
   67.6561   43.4301   55.7607 N   0  0  0  0  0  0  0  0  0  0  0  0
   68.3445   42.5985   56.6879 C   0  0  0  0  0  0  0  0  0  0  0  0
   69.3591   43.0944   57.2505 O   0  0  0  0  0  0  0  0  0  0  0  0
   67.9238   41.2102   57.0085 C   0  0  1  0  0  0  0  0  0  0  0  0
   67.8469   40.3872   55.8276 N   0  0  0  0  0  0  0  0  0  0  0  0
   68.8034   40.5933   58.0745 C   0  0  0  0  0  0  0  0  0  0  0  0
   68.6041   39.1279   58.2173 C   0  0  0  0  0  0  0  0  0  0  0  0
   67.4602   38.7548   59.1190 C   0  0  0  0  0  0  0  0  0  0  0  0
   69.9116   38.5109   58.6650 C   0  0  0  0  0  0  0  0  0  0  0  0
  1  2  1  0
  2  3  2  0
  2  7  1  0
  3  4  1  0
  4 15  1  0
  4  5  2  0
 15 16  2  0
 15 17  1  0
 17 18  1  0
 18 19  1  0
 19 20  2  0
 19 21  1  0
 21 22  1  6
 21 23  1  0
 23 24  1  0
 24 25  1  0
 24 26  1  0
  5  6  1  0
  6  7  2  0
  6 14  1  0
  7  8  1  0
  8  9  1  0
  9 10  1  0
  9 14  2  0
 10 11  2  0
 11 12  1  0
 12 13  2  0
 13 14  1  0
M  CHG  1  22   1
M  END
>  <minimizedAffinity>  (678) 
-8.59742

$$$$
data/reference_output_2/data/smiles/125428.pdb
     RDKit          3D

 28 31  0  0  0  0  0  0  0  0999 V2000
   71.4312   50.3707   54.9909 N   0  0  0  0  0  0  0  0  0  0  0  0
   70.9244   49.6512   54.0239 N   0  0  0  0  0  0  0  0  0  0  0  0
   70.0469   48.7154   54.5009 C   0  0  0  0  0  0  0  0  0  0  0  0
   70.0249   48.8792   55.8388 C   0  0  0  0  0  0  0  0  0  0  0  0
   70.8816   49.9105   56.1440 C   0  0  0  0  0  0  0  0  0  0  0  0
   71.0857   50.3966   57.5144 C   0  0  0  0  0  0  0  0  0  0  0  0
   70.5330   49.5045   58.5909 C   0  0  0  0  0  0  0  0  0  0  0  0
   70.3518   48.1277   57.9978 N   0  0  0  0  0  0  0  0  0  0  0  0
   71.1634   47.1403   58.4914 C   0  0  0  0  0  0  0  0  0  0  0  0
   71.9726   47.6600   59.4597 O   0  0  0  0  0  0  0  0  0  0  0  0
   69.3351   48.1538   56.9677 C   0  0  0  0  0  0  0  0  0  0  0  0
   71.4231   45.7586   58.3006 C   0  0  0  0  0  0  0  0  0  0  0  0
   70.4587   44.7980   58.0857 C   0  0  0  0  0  0  0  0  0  0  0  0
   70.7709   43.4542   57.8722 C   0  0  0  0  0  0  0  0  0  0  0  0
   72.0738   43.0208   57.8707 C   0  0  0  0  0  0  0  0  0  0  0  0
   72.4152   41.7388   57.6648 F   0  0  0  0  0  0  0  0  0  0  0  0
   73.0565   43.9667   58.0859 C   0  0  0  0  0  0  0  0  0  0  0  0
   72.7584   45.2976   58.2960 C   0  0  0  0  0  0  0  0  0  0  0  0
   69.2884   47.7894   53.6642 C   0  0  0  0  0  0  0  0  0  0  0  0
   69.3252   47.7921   52.3030 C   0  0  0  0  0  0  0  0  0  0  0  0
   68.5785   46.8779   51.5382 C   0  0  0  0  0  0  0  0  0  0  0  0
   67.7845   45.9451   52.1451 C   0  0  0  0  0  0  0  0  0  0  0  0
   67.7359   45.9300   53.5194 C   0  0  0  0  0  0  0  0  0  0  0  0
   68.4730   46.8351   54.2786 C   0  0  0  0  0  0  0  0  0  0  0  0
   72.3885   51.4413   54.8164 C   0  0  0  0  0  0  0  0  0  0  0  0
   74.0481   50.1824   53.6395 O   0  0  0  0  0  0  0  0  0  0  0  0
   73.7451   50.9241   54.5960 C   0  0  0  0  0  0  0  0  0  0  0  0
   74.7533   51.2880   55.5137 O   0  0  0  0  0  0  0  0  0  0  0  0
 26 27  2  0
 27 28  1  0
 27 25  1  0
 25  1  1  0
  1  2  1  0
  1  5  1  0
  2  3  2  0
  3 19  1  0
  3  4  1  0
 19 20  2  0
 19 24  1  0
 20 21  1  0
 21 22  2  0
 22 23  1  0
 23 24  2  0
  4  5  2  0
  4 11  1  0
  5  6  1  0
  6  7  1  0
  7  8  1  0
  8  9  1  0
  8 11  1  0
  9 10  2  0
  9 12  1  0
 12 13  2  0
 12 18  1  0
 13 14  1  0
 14 15  2  0
 15 16  1  0
 15 17  1  0
 17 18  2  0
M  END
>  <minimizedAffinity>  (679) 
-8.59741

$$$$
data/reference_output_2/data/smiles/111835.pdb
     RDKit          3D

 29 34  0  0  0  0  0  0  0  0999 V2000
   70.4634   52.4121   57.1569 C   0  0  0  0  0  0  0  0  0  0  0  0
   69.8345   51.3015   57.6214 C   0  0  0  0  0  0  0  0  0  0  0  0
   70.7852   50.6538   58.5302 C   0  0  0  0  0  0  0  0  0  0  0  0
   71.3022   49.4892   57.7661 N   0  0  1  0  0  0  0  0  0  0  0  0
   72.6537   49.1941   58.3658 C   0  0  0  0  0  0  0  0  0  0  0  0
   70.4843   48.3182   58.1324 C   0  0  0  0  0  0  0  0  0  0  0  0
   70.0975   47.5235   56.9281 C   0  0  0  0  0  0  0  0  0  0  0  0
   69.0661   48.2906   56.0900 C   0  0  2  0  0  0  0  0  0  0  0  0
   67.9231   48.5463   57.0427 C   0  0  0  0  0  0  0  0  0  0  0  0
   67.1150   47.6474   57.1667 O   0  0  0  0  0  0  0  0  0  0  0  0
   67.7728   49.8351   57.8038 C   0  0  0  0  0  0  0  0  0  0  0  0
   68.5063   50.9512   57.1880 C   0  0  2  0  0  0  0  0  0  0  0  0
   68.5386   50.6602   55.6692 C   0  0  1  0  0  0  0  0  0  0  0  0
   68.8836   51.8580   54.8552 C   0  0  2  0  0  0  0  0  0  0  0  0
   70.1068   51.6655   53.9833 C   0  0  0  0  0  0  0  0  0  0  0  0
   69.8820   50.3868   53.2096 C   0  0  0  0  0  0  0  0  0  0  0  0
   70.0407   50.2642   51.9931 O   0  0  0  0  0  0  0  0  0  0  0  0
   69.4562   49.2798   54.0095 N   0  0  0  0  0  0  0  0  0  0  0  0
   68.9468   48.0009   53.7707 C   0  0  0  0  0  0  0  0  0  0  0  0
   68.7007   47.3827   52.5625 C   0  0  0  0  0  0  0  0  0  0  0  0
   68.1698   46.1105   52.5321 C   0  0  0  0  0  0  0  0  0  0  0  0
   67.8947   45.4778   53.7162 C   0  0  0  0  0  0  0  0  0  0  0  0
   68.1488   46.1108   54.9083 C   0  0  0  0  0  0  0  0  0  0  0  0
   68.6792   47.3836   54.9802 C   0  0  0  0  0  0  0  0  0  0  0  0
   69.5524   49.5177   55.4502 C   0  0  2  0  0  0  0  0  0  0  0  0
   68.8486   53.0390   55.5413 O   0  0  0  0  0  0  0  0  0  0  0  0
   69.9744   53.4218   56.2037 C   0  0  0  0  0  0  0  0  0  0  0  0
   72.5038   53.6622   57.0324 C   0  0  0  0  0  0  0  0  0  0  0  0
   71.7331   52.6290   57.6404 O   0  0  0  0  0  0  0  0  0  0  0  0
 28 29  1  0
 29  1  1  0
  1  2  2  0
  1 27  1  0
  2  3  1  0
  2 12  1  0
  3  4  1  0
  4  5  1  1
  4  6  1  0
  6  7  1  0
  7  8  1  0
  8  9  1  0
  8 24  1  6
  8 25  1  0
  9 10  2  0
  9 11  1  0
 12 11  1  1
 12 13  1  0
 13 14  1  6
 13 25  1  0
 14 15  1  1
 14 26  1  0
 15 16  1  0
 16 17  2  0
 16 18  1  0
 18 19  1  0
 25 18  1  6
 19 20  1  0
 19 24  2  0
 20 21  2  0
 21 22  1  0
 22 23  2  0
 23 24  1  0
 26 27  1  0
M  CHG  1   4   1
M  END
>  <minimizedAffinity>  (680) 
-8.59704

$$$$
data/reference_output_2/data/smiles/106017.pdb
     RDKit          3D

 26 28  0  0  0  0  0  0  0  0999 V2000
   70.7554   44.8706   58.1020 C   0  0  0  0  0  0  0  0  0  0  0  0
   70.1088   43.8151   57.5756 C   0  0  0  0  0  0  0  0  0  0  0  0
   69.2076   44.3522   56.6627 N   0  0  0  0  0  0  0  0  0  0  0  0
   69.2921   45.6650   56.6165 C   0  0  0  0  0  0  0  0  0  0  0  0
   70.2800   46.0525   57.5292 C   0  0  0  0  0  0  0  0  0  0  0  0
   70.6818   47.3792   57.7874 N   0  0  0  0  0  0  0  0  0  0  0  0
   70.1764   42.3872   57.8231 C   0  0  0  0  0  0  0  0  0  0  0  0
   71.2942   41.6763   58.1106 C   0  0  0  0  0  0  0  0  0  0  0  0
   71.2521   40.3053   58.4249 C   0  0  0  0  0  0  0  0  0  0  0  0
   70.0699   39.6042   58.4557 C   0  0  0  0  0  0  0  0  0  0  0  0
   70.0556   38.2221   58.7754 N   0  0  0  0  0  0  0  0  0  0  0  0
   68.9264   40.3127   58.1633 C   0  0  0  0  0  0  0  0  0  0  0  0
   68.9734   41.6481   57.8588 C   0  0  0  0  0  0  0  0  0  0  0  0
   71.5244   45.0217   60.5209 N   0  0  0  0  0  0  0  0  0  0  0  0
   71.7599   44.9145   59.1423 C   0  0  0  0  0  0  0  0  0  0  0  0
   72.9897   44.8600   58.7921 O   0  0  0  0  0  0  0  0  0  0  0  0
   68.4941   46.6010   55.8423 C   0  0  0  0  0  0  0  0  0  0  0  0
   67.6000   47.2727   56.4621 O   0  0  0  0  0  0  0  0  0  0  0  0
   68.6156   46.8437   54.4288 C   0  0  0  0  0  0  0  0  0  0  0  0
   69.3387   47.9838   54.0313 C   0  0  0  0  0  0  0  0  0  0  0  0
   69.8373   48.8159   54.9894 F   0  0  0  0  0  0  0  0  0  0  0  0
   69.5559   48.2836   52.7176 C   0  0  0  0  0  0  0  0  0  0  0  0
   69.0685   47.4682   51.7080 C   0  0  0  0  0  0  0  0  0  0  0  0
   68.3586   46.3453   52.0683 C   0  0  0  0  0  0  0  0  0  0  0  0
   68.1435   46.0488   53.4199 C   0  0  0  0  0  0  0  0  0  0  0  0
   67.4877   44.9024   53.7047 F   0  0  0  0  0  0  0  0  0  0  0  0
 14 15  1  0
 15 16  2  0
 15  1  1  0
  1  2  2  0
  1  5  1  0
  2  7  1  0
  2  3  1  0
  7  8  2  0
  7 13  1  0
  8  9  1  0
  9 10  2  0
 10 11  1  0
 10 12  1  0
 12 13  2  0
  3  4  1  0
  4 17  1  0
  4  5  2  0
 17 18  2  0
 17 19  1  0
 19 20  2  0
 19 25  1  0
 20 21  1  0
 20 22  1  0
 22 23  2  0
 23 24  1  0
 24 25  2  0
 25 26  1  0
  5  6  1  0
M  END
>  <minimizedAffinity>  (681) 
-8.59665

$$$$
data/200k_reference_output/data/smiles/15774.pdb
     RDKit          3D

 29 33  0  0  0  0  0  0  0  0999 V2000
   69.5650   43.1054   57.0679 C   0  0  0  0  0  0  0  0  0  0  0  0
   68.2879   42.7885   56.3855 C   0  0  0  0  0  0  0  0  0  0  0  0
   67.5702   41.6145   56.5170 C   0  0  0  0  0  0  0  0  0  0  0  0
   66.4703   41.8060   55.6881 C   0  0  0  0  0  0  0  0  0  0  0  0
   66.5869   43.0269   55.1350 N   0  0  0  0  0  0  0  0  0  0  0  0
   67.6786   43.6452   55.5385 N   0  0  0  0  0  0  0  0  0  0  0  0
   67.8986   40.4529   57.3348 C   0  0  0  0  0  0  0  0  0  0  0  0
   68.1613   39.3730   56.7540 O   0  0  0  0  0  0  0  0  0  0  0  0
   67.9266   40.5114   58.7554 N   0  0  0  0  0  0  0  0  0  0  0  0
   68.2495   39.3687   59.5798 C   0  0  0  0  0  0  0  0  0  0  0  0
   69.3861   39.8161   60.5087 C   0  0  0  0  0  0  0  0  0  0  0  0
   68.8185   40.8581   61.4051 C   0  0  0  0  0  0  0  0  0  0  0  0
   69.1149   40.9221   62.7532 C   0  0  0  0  0  0  0  0  0  0  0  0
   68.5488   41.9245   63.5381 C   0  0  0  0  0  0  0  0  0  0  0  0
   67.6932   42.8617   62.9914 C   0  0  0  0  0  0  0  0  0  0  0  0
   67.4235   42.7612   61.6337 C   0  0  0  0  0  0  0  0  0  0  0  0
   67.9684   41.7808   60.8358 C   0  0  0  0  0  0  0  0  0  0  0  0
   67.6231   41.7568   59.4126 C   0  0  0  0  0  0  0  0  0  0  0  0
   68.1283   44.9509   55.1623 C   0  0  0  0  0  0  0  0  0  0  0  0
   68.3480   45.2936   53.8904 N   0  0  0  0  0  0  0  0  0  0  0  0
   68.7751   46.5339   53.5281 C   0  0  0  0  0  0  0  0  0  0  0  0
   68.9970   46.8731   52.2103 C   0  0  0  0  0  0  0  0  0  0  0  0
   69.4296   48.1249   51.8220 C   0  0  0  0  0  0  0  0  0  0  0  0
   69.6473   49.0723   52.8036 C   0  0  0  0  0  0  0  0  0  0  0  0
   69.4314   48.7533   54.1314 C   0  0  0  0  0  0  0  0  0  0  0  0
   68.9980   47.4947   54.4913 C   0  0  0  0  0  0  0  0  0  0  0  0
   68.7698   47.1335   55.8029 C   0  0  0  0  0  0  0  0  0  0  0  0
   68.9757   48.0141   56.6774 O   0  0  0  0  0  0  0  0  0  0  0  0
   68.3456   45.8865   56.1037 N   0  0  0  0  0  0  0  0  0  0  0  0
  1  2  1  0
  2  3  2  0
  2  6  1  0
  3  7  1  0
  3  4  1  0
  7  8  2  0
  7  9  1  0
  9 10  1  0
  9 18  1  0
 10 11  1  0
 11 12  1  0
 12 13  2  0
 12 17  1  0
 13 14  1  0
 14 15  2  0
 15 16  1  0
 16 17  2  0
 17 18  1  0
  4  5  2  0
  5  6  1  0
  6 19  1  0
 19 20  2  0
 19 29  1  0
 20 21  1  0
 21 22  2  0
 21 26  1  0
 22 23  1  0
 23 24  2  0
 24 25  1  0
 25 26  2  0
 26 27  1  0
 27 28  2  0
 27 29  1  0
M  END
>  <minimizedAffinity>  (682) 
-8.59627

$$$$
data/reference_output_2/data/smiles/179652.pdb
     RDKit          3D

 26 28  0  0  0  0  0  0  0  0999 V2000
   70.4649   43.7091   57.3494 N   0  0  0  0  0  0  0  0  0  0  0  0
   70.3675   44.7786   58.2806 C   0  0  0  0  0  0  0  0  0  0  0  0
   69.7145   44.5457   59.3297 O   0  0  0  0  0  0  0  0  0  0  0  0
   68.4971   40.0362   58.0431 C   0  0  0  0  0  0  0  0  0  0  0  0
   69.7634   40.2572   58.5441 C   0  0  0  0  0  0  0  0  0  0  0  0
   70.4262   41.4489   58.3310 C   0  0  0  0  0  0  0  0  0  0  0  0
   69.8572   42.4690   57.6107 C   0  0  0  0  0  0  0  0  0  0  0  0
   68.5877   42.2448   57.1092 C   0  0  0  0  0  0  0  0  0  0  0  0
   67.9183   41.0569   57.3178 C   0  0  0  0  0  0  0  0  0  0  0  0
   66.2640   37.3045   59.6254 C   0  0  0  0  0  0  0  0  0  0  0  0
   67.0029   38.5636   59.4071 C   0  0  0  0  0  0  0  0  0  0  0  0
   66.9431   39.4548   60.2787 O   0  0  0  0  0  0  0  0  0  0  0  0
   67.7875   38.8187   58.2459 N   0  0  0  0  0  0  0  0  0  0  0  0
   71.0079   46.1087   58.0236 C   0  0  0  0  0  0  0  0  0  0  0  0
   70.0760   47.1405   57.9758 O   0  0  0  0  0  0  0  0  0  0  0  0
   69.4733   47.6363   56.8548 C   0  0  0  0  0  0  0  0  0  0  0  0
   69.4350   48.8812   56.6971 O   0  0  0  0  0  0  0  0  0  0  0  0
   68.8779   46.7672   55.8460 C   0  0  0  0  0  0  0  0  0  0  0  0
   68.2239   45.6085   56.0427 N   0  0  0  0  0  0  0  0  0  0  0  0
   67.8257   45.1021   54.8870 N   0  0  0  0  0  0  0  0  0  0  0  0
   68.2068   45.9150   53.8776 C   0  0  0  0  0  0  0  0  0  0  0  0
   68.0657   45.8838   52.5119 C   0  0  0  0  0  0  0  0  0  0  0  0
   68.5879   46.9013   51.7502 C   0  0  0  0  0  0  0  0  0  0  0  0
   69.2488   47.9514   52.3242 C   0  0  0  0  0  0  0  0  0  0  0  0
   69.3917   47.9867   53.6861 C   0  0  0  0  0  0  0  0  0  0  0  0
   68.8760   46.9745   54.4817 C   0  0  0  0  0  0  0  0  0  0  0  0
 10 11  1  0
 11 12  2  0
 11 13  1  0
 13  4  1  0
  4  5  2  0
  4  9  1  0
  5  6  1  0
  6  7  2  0
  7  1  1  0
  7  8  1  0
  1  2  1  0
  2  3  2  0
  2 14  1  0
 14 15  1  0
 15 16  1  0
 16 17  2  0
 16 18  1  0
 18 19  1  0
 18 26  2  0
 19 20  1  0
 20 21  2  0
 21 22  1  0
 21 26  1  0
 22 23  2  0
 23 24  1  0
 24 25  2  0
 25 26  1  0
  8  9  2  0
M  END
>  <minimizedAffinity>  (683) 
-8.59553

$$$$
data/reference_output_2/data/smiles/111028.pdb
     RDKit          3D

 29 33  0  0  0  0  0  0  0  0999 V2000
   68.6925   44.1654   56.2669 C   0  0  0  0  0  0  0  0  0  0  0  0
   69.2235   45.2504   56.9227 N   0  0  0  0  0  0  0  0  0  0  0  0
   69.0960   46.3672   56.2076 C   0  0  0  0  0  0  0  0  0  0  0  0
   69.4607   47.7017   56.4178 C   0  0  0  0  0  0  0  0  0  0  0  0
   69.2078   48.6909   55.4953 C   0  0  0  0  0  0  0  0  0  0  0  0
   68.5695   48.3140   54.3340 C   0  0  0  0  0  0  0  0  0  0  0  0
   68.2002   46.9852   54.1109 C   0  0  0  0  0  0  0  0  0  0  0  0
   68.4629   46.0110   55.0467 C   0  0  0  0  0  0  0  0  0  0  0  0
   68.2359   44.6698   55.1227 N   0  0  0  0  0  0  0  0  0  0  0  0
   72.1258   41.0941   58.7124 C   0  0  0  0  0  0  0  0  0  0  0  0
   70.8121   40.4001   58.5263 C   0  0  0  0  0  0  0  0  0  0  0  0
   70.6325   39.1033   58.9981 C   0  0  0  0  0  0  0  0  0  0  0  0
   69.4696   38.3895   58.8845 C   0  0  0  0  0  0  0  0  0  0  0  0
   68.4118   38.9915   58.2663 C   0  0  0  0  0  0  0  0  0  0  0  0
   68.5369   40.2661   57.7843 C   0  0  0  0  0  0  0  0  0  0  0  0
   67.4536   40.8076   57.1848 N   0  0  0  0  0  0  0  0  0  0  0  0
   67.5184   42.0467   56.7004 C   0  0  0  0  0  0  0  0  0  0  0  0
   66.5300   42.5597   56.1449 O   0  0  0  0  0  0  0  0  0  0  0  0
   68.6946   42.8054   56.7993 C   0  0  0  0  0  0  0  0  0  0  0  0
   69.7759   42.2609   57.3989 C   0  0  0  0  0  0  0  0  0  0  0  0
   70.9640   42.9862   57.4892 N   0  0  0  0  0  0  0  0  0  0  0  0
   69.7274   40.9816   57.9071 C   0  0  0  0  0  0  0  0  0  0  0  0
   69.5830   50.0440   55.7050 N   0  0  0  0  0  0  0  0  0  0  0  0
   69.0160   51.1690   54.9797 C   0  0  0  0  0  0  0  0  0  0  0  0
   68.8099   52.2749   56.0006 C   0  0  0  0  0  0  0  0  0  0  0  0
   68.6451   51.7179   57.3377 N   0  0  0  0  0  0  0  0  0  0  0  0
   67.5215   50.8194   57.3559 C   0  0  0  0  0  0  0  0  0  0  0  0
   69.8520   51.0748   57.8264 C   0  0  0  0  0  0  0  0  0  0  0  0
   70.5869   50.4230   56.6772 C   0  0  0  0  0  0  0  0  0  0  0  0
 10 11  1  0
 11 12  2  0
 11 22  1  0
 12 13  1  0
 13 14  2  0
 14 15  1  0
 15 16  1  0
 15 22  2  0
 16 17  1  0
 17 18  2  0
 17 19  1  0
 19  1  1  0
 19 20  2  0
  1  2  2  0
  1  9  1  0
  2  3  1  0
  3  4  2  0
  3  8  1  0
  4  5  1  0
  5 23  1  0
  5  6  2  0
 23 24  1  0
 23 29  1  0
 24 25  1  0
 25 26  1  0
 26 27  1  0
 26 28  1  0
 28 29  1  0
  6  7  1  0
  7  8  2  0
  8  9  1  0
 20 21  1  0
 20 22  1  0
M  CHG  2   2   1  26   1
M  END
>  <minimizedAffinity>  (684) 
-8.59488

$$$$
data/reference_output_2/data/smiles/164500.pdb
     RDKit          3D

 24 26  0  0  0  0  0  0  0  0999 V2000
   69.5385   46.3346   57.3127 C   0  0  0  0  0  0  0  0  0  0  0  0
   70.1982   46.2991   58.4117 O   0  0  0  0  0  0  0  0  0  0  0  0
   69.1659   45.0949   56.7411 N   0  0  0  0  0  0  0  0  0  0  0  0
   69.5466   43.9068   57.4247 N   0  0  0  0  0  0  0  0  0  0  0  0
   68.9588   42.7829   57.2101 C   0  0  0  0  0  0  0  0  0  0  0  0
   67.8716   42.6040   56.2717 C   0  0  0  0  0  0  0  0  0  0  0  0
   67.3645   43.5124   55.5521 O   0  0  0  0  0  0  0  0  0  0  0  0
   67.5071   41.2178   56.3349 N   0  0  0  0  0  0  0  0  0  0  0  0
   68.3266   40.5398   57.2719 C   0  0  0  0  0  0  0  0  0  0  0  0
   68.3486   39.2131   57.6704 C   0  0  0  0  0  0  0  0  0  0  0  0
   69.2840   38.8588   58.6213 C   0  0  0  0  0  0  0  0  0  0  0  0
   70.1669   39.7808   59.1621 C   0  0  0  0  0  0  0  0  0  0  0  0
   70.1180   41.0935   58.7447 C   0  0  0  0  0  0  0  0  0  0  0  0
   69.1979   41.4708   57.8001 C   0  0  0  0  0  0  0  0  0  0  0  0
   70.2515   48.6817   57.2123 C   0  0  0  0  0  0  0  0  0  0  0  0
   69.2303   47.6717   56.7462 C   0  0  1  0  0  0  0  0  0  0  0  0
   69.2136   47.6957   55.2630 C   0  0  0  0  0  0  0  0  0  0  0  0
   69.8623   48.6125   54.4784 C   0  0  0  0  0  0  0  0  0  0  0  0
   69.7770   48.5201   53.0871 C   0  0  0  0  0  0  0  0  0  0  0  0
   69.0601   47.5358   52.4417 C   0  0  0  0  0  0  0  0  0  0  0  0
   69.0048   47.4850   51.0560 O   0  0  0  0  0  0  0  0  0  0  0  0
   68.4083   46.6170   53.2359 C   0  0  0  0  0  0  0  0  0  0  0  0
   67.4140   45.2512   52.3579 Br  0  0  0  0  0  0  0  0  0  0  0  0
   68.4889   46.7011   54.6112 C   0  0  0  0  0  0  0  0  0  0  0  0
 16 15  1  6
 16  1  1  0
 16 17  1  0
  1  2  2  0
  1  3  1  0
  3  4  1  0
  4  5  2  0
  5  6  1  0
  5 14  1  0
  6  7  2  0
  6  8  1  0
  8  9  1  0
  9 10  1  0
  9 14  2  0
 10 11  2  0
 11 12  1  0
 12 13  2  0
 13 14  1  0
 17 18  2  0
 17 24  1  0
 18 19  1  0
 19 20  2  0
 20 21  1  0
 20 22  1  0
 22 23  1  0
 22 24  2  0
M  END
>  <minimizedAffinity>  (685) 
-8.59475

$$$$
data/reference_output_2/data/smiles/138703.pdb
     RDKit          3D

 29 32  0  0  0  0  0  0  0  0999 V2000
   71.5551   48.9741   58.0485 N   0  0  0  0  0  0  0  0  0  0  0  0
   72.6790   49.1984   57.1973 C   0  0  0  0  0  0  0  0  0  0  0  0
   73.8502   48.8052   57.4342 O   0  0  0  0  0  0  0  0  0  0  0  0
   72.2188   49.9186   56.0874 N   0  0  0  0  0  0  0  0  0  0  0  0
   70.7760   50.0334   56.0687 C   0  0  2  0  0  0  0  0  0  0  0  0
   70.3645   51.4601   55.8949 C   0  0  0  0  0  0  0  0  0  0  0  0
   70.4001   49.5775   57.4270 C   0  0  0  0  0  0  0  0  0  0  0  0
   69.2459   49.7182   57.9104 O   0  0  0  0  0  0  0  0  0  0  0  0
   70.1824   49.1775   55.0144 C   0  0  0  0  0  0  0  0  0  0  0  0
   70.3556   49.5048   53.7034 C   0  0  0  0  0  0  0  0  0  0  0  0
   69.8139   48.7257   52.6758 C   0  0  0  0  0  0  0  0  0  0  0  0
   69.0806   47.5932   52.9609 C   0  0  0  0  0  0  0  0  0  0  0  0
   68.5242   46.7897   51.9784 C   0  0  0  0  0  0  0  0  0  0  0  0
   67.7912   45.6591   52.2724 C   0  0  0  0  0  0  0  0  0  0  0  0
   67.6254   45.3412   53.6114 C   0  0  0  0  0  0  0  0  0  0  0  0
   68.1799   46.1407   54.5888 C   0  0  0  0  0  0  0  0  0  0  0  0
   68.9109   47.2715   54.2951 C   0  0  0  0  0  0  0  0  0  0  0  0
   69.4509   48.0465   55.3124 C   0  0  0  0  0  0  0  0  0  0  0  0
   71.4846   48.2929   59.3010 C   0  0  0  0  0  0  0  0  0  0  0  0
   70.9893   46.2852   57.8735 N   0  0  0  0  0  0  0  0  0  0  0  0
   71.2935   46.8384   59.1427 C   0  0  0  0  0  0  0  0  0  0  0  0
   71.3902   46.0469   60.1093 O   0  0  0  0  0  0  0  0  0  0  0  0
   68.0386   42.6529   56.5946 C   0  0  0  0  0  0  0  0  0  0  0  0
   69.3378   43.1486   57.1269 C   0  0  0  0  0  0  0  0  0  0  0  0
   70.2849   42.2101   57.4800 C   0  0  0  0  0  0  0  0  0  0  0  0
   71.4919   42.6316   57.9734 C   0  0  0  0  0  0  0  0  0  0  0  0
   71.7832   43.9725   58.1271 C   0  0  0  0  0  0  0  0  0  0  0  0
   70.8127   44.8794   57.7645 C   0  0  0  0  0  0  0  0  0  0  0  0
   69.6294   44.4452   57.2800 N   0  0  0  0  0  0  0  0  0  0  0  0
 23 24  1  0
 24 25  2  0
 24 29  1  0
 25 26  1  0
 26 27  2  0
 27 28  1  0
 28 20  1  0
 28 29  2  0
 20 21  1  0
 21 22  2  0
 21 19  1  0
 19  1  1  0
  1  2  1  0
  1  7  1  0
  2  3  2  0
  2  4  1  0
  4  5  1  0
  5  6  1  6
  5  9  1  0
  5  7  1  0
  9 10  2  0
  9 18  1  0
 10 11  1  0
 11 12  2  0
 12 13  1  0
 12 17  1  0
 13 14  2  0
 14 15  1  0
 15 16  2  0
 16 17  1  0
 17 18  2  0
  7  8  2  0
M  END
>  <minimizedAffinity>  (686) 
-8.59447

$$$$
data/200k_reference_output/data/smiles/10183.pdb
     RDKit          3D

 25 27  0  0  0  0  0  0  0  0999 V2000
   69.4245   47.6951   56.0773 C   0  0  0  0  0  0  0  0  0  0  0  0
   68.4913   48.6674   56.6459 C   0  0  0  0  0  0  0  0  0  0  0  0
   68.7371   50.0106   56.3634 C   0  0  0  0  0  0  0  0  0  0  0  0
   67.9385   51.0234   56.8481 C   0  0  0  0  0  0  0  0  0  0  0  0
   66.8473   50.7464   57.6440 C   0  0  0  0  0  0  0  0  0  0  0  0
   66.5949   49.4230   57.9303 C   0  0  0  0  0  0  0  0  0  0  0  0
   67.4081   48.3911   57.4379 C   0  0  0  0  0  0  0  0  0  0  0  0
   69.0085   47.3720   54.6776 C   0  0  0  0  0  0  0  0  0  0  0  0
   68.0779   46.4055   54.3899 C   0  0  0  0  0  0  0  0  0  0  0  0
   67.6946   46.0884   53.1056 C   0  0  0  0  0  0  0  0  0  0  0  0
   68.2461   46.7468   52.0312 C   0  0  0  0  0  0  0  0  0  0  0  0
   69.1845   47.7230   52.2868 C   0  0  0  0  0  0  0  0  0  0  0  0
   69.5590   48.0316   53.5726 C   0  0  0  0  0  0  0  0  0  0  0  0
   69.2233   45.3936   56.6397 O   0  0  0  0  0  0  0  0  0  0  0  0
   69.7625   46.5380   56.8898 C   0  0  0  0  0  0  0  0  0  0  0  0
   70.6644   46.4966   57.9965 N   0  0  0  0  0  0  0  0  0  0  0  0
   70.9036   45.2855   58.7010 C   0  0  0  0  0  0  0  0  0  0  0  0
   72.4006   44.7169   58.9390 S   0  0  0  0  0  0  0  0  0  0  0  0
   69.7998   44.5667   59.2003 N   0  0  0  0  0  0  0  0  0  0  0  0
   69.8371   43.1248   59.3143 C   0  0  0  0  0  0  0  0  0  0  0  0
   69.4903   42.4323   58.0398 C   0  0  1  0  0  0  0  0  0  0  0  0
   69.4412   40.9358   58.3307 C   0  0  0  0  0  0  0  0  0  0  0  0
   68.2121   40.4765   57.5853 C   0  0  0  0  0  0  0  0  0  0  0  0
   67.8608   41.6624   56.7427 C   0  0  0  0  0  0  0  0  0  0  0  0
   68.2440   42.7560   57.5499 O   0  0  0  0  0  0  0  0  0  0  0  0
 14 15  2  0
 15 16  1  0
 15  1  1  0
 16 17  1  0
 17 18  2  0
 17 19  1  0
 19 20  1  0
 21 20  1  1
 21 22  1  0
 21 25  1  0
 22 23  1  0
 23 24  1  0
 24 25  1  0
  1  2  1  0
  1  8  1  0
  2  3  2  0
  2  7  1  0
  3  4  1  0
  4  5  2  0
  5  6  1  0
  6  7  2  0
  8  9  2  0
  8 13  1  0
  9 10  1  0
 10 11  2  0
 11 12  1  0
 12 13  2  0
M  END
>  <minimizedAffinity>  (687) 
-8.59388

$$$$
data/200k_reference_output/data/smiles/45025.pdb
     RDKit          3D

 28 31  0  0  0  0  0  0  0  0999 V2000
   70.4818   49.3847   54.0408 N   0  0  0  0  0  0  0  0  0  0  0  0
   69.9643   48.9197   55.1892 N   0  0  0  0  0  0  0  0  0  0  0  0
   69.1004   47.8869   55.2577 C   0  0  0  0  0  0  0  0  0  0  0  0
   68.7559   47.3046   54.0654 C   0  0  0  0  0  0  0  0  0  0  0  0
   67.9043   46.2511   54.0696 C   0  0  0  0  0  0  0  0  0  0  0  0
   67.5643   45.6548   52.8621 C   0  0  0  0  0  0  0  0  0  0  0  0
   68.0500   46.0766   51.6462 C   0  0  0  0  0  0  0  0  0  0  0  0
   68.9164   47.1448   51.6423 C   0  0  0  0  0  0  0  0  0  0  0  0
   69.2561   47.7383   52.8351 C   0  0  0  0  0  0  0  0  0  0  0  0
   70.1427   48.8162   52.8776 C   0  0  0  0  0  0  0  0  0  0  0  0
   70.5738   49.1857   51.7521 O   0  0  0  0  0  0  0  0  0  0  0  0
   71.4131   50.4825   54.0347 C   0  0  0  0  0  0  0  0  0  0  0  0
   72.1719   51.6965   56.7700 C   0  0  0  0  0  0  0  0  0  0  0  0
   70.8527   51.3994   56.2264 N   0  0  1  0  0  0  0  0  0  0  0  0
   69.8246   52.2161   56.7894 C   0  0  0  0  0  0  0  0  0  0  0  0
   68.9565   52.7816   55.7107 C   0  0  0  0  0  0  0  0  0  0  0  0
   69.3780   51.9268   54.4931 C   0  0  0  0  0  0  0  0  0  0  0  0
   70.8440   51.6488   54.7845 C   0  0  2  0  0  0  0  0  0  0  0  0
   68.5807   47.5286   56.5698 C   0  0  0  0  0  0  0  0  0  0  0  0
   69.6916   47.3984   57.5417 C   0  0  0  0  0  0  0  0  0  0  0  0
   70.3085   46.2432   57.9336 C   0  0  0  0  0  0  0  0  0  0  0  0
   71.3445   46.2534   58.8784 C   0  0  0  0  0  0  0  0  0  0  0  0
   71.7853   47.4262   59.4487 C   0  0  0  0  0  0  0  0  0  0  0  0
   71.1689   48.5954   59.0574 C   0  0  0  0  0  0  0  0  0  0  0  0
   70.1552   48.5779   58.1335 C   0  0  0  0  0  0  0  0  0  0  0  0
   72.8712   47.4387   60.4399 C   0  0  0  0  0  0  0  0  0  0  0  0
   72.6011   47.7966   61.6036 O   0  0  0  0  0  0  0  0  0  0  0  0
   74.1553   47.0773   60.1458 O   0  0  0  0  0  0  0  0  0  0  0  0
 14 13  1  1
 14 15  1  0
 14 18  1  0
 15 16  1  0
 16 17  1  0
 17 18  1  0
 18 12  1  6
 12  1  1  0
  1  2  1  0
  1 10  1  0
  2  3  2  0
  3 19  1  0
  3  4  1  0
 19 20  1  0
 20 21  2  0
 20 25  1  0
 21 22  1  0
 22 23  2  0
 23 26  1  0
 23 24  1  0
 26 27  2  0
 26 28  1  0
 24 25  2  0
  4  5  2  0
  4  9  1  0
  5  6  1  0
  6  7  2  0
  7  8  1  0
  8  9  2  0
  9 10  1  0
 10 11  2  0
M  CHG  1  14   1
M  END
>  <minimizedAffinity>  (688) 
-8.59371

$$$$
data/200k_reference_output/data/smiles/16579.pdb
     RDKit          3D

 26 29  0  0  0  0  0  0  0  0999 V2000
   67.5823   44.2108   55.1497 N   0  0  0  0  0  0  0  0  0  0  0  0
   68.2122   43.4472   56.1644 C   0  0  0  0  0  0  0  0  0  0  0  0
   69.3580   43.8618   56.5414 O   0  0  0  0  0  0  0  0  0  0  0  0
   67.6513   42.2909   56.7570 N   0  0  0  0  0  0  0  0  0  0  0  0
   69.7574   48.7407   52.6970 C   0  0  0  0  0  0  0  0  0  0  0  0
   69.5504   48.3560   51.4169 N   0  0  0  0  0  0  0  0  0  0  0  0
   68.9700   47.1680   51.3872 N   0  0  0  0  0  0  0  0  0  0  0  0
   68.7625   46.7061   52.6366 C   0  0  0  0  0  0  0  0  0  0  0  0
   68.2086   45.5551   53.1797 C   0  0  0  0  0  0  0  0  0  0  0  0
   68.1416   45.3749   54.5479 C   0  0  0  0  0  0  0  0  0  0  0  0
   68.6380   46.3673   55.3115 N   0  0  0  0  0  0  0  0  0  0  0  0
   69.1756   47.4853   54.8198 C   0  0  0  0  0  0  0  0  0  0  0  0
   69.2621   47.7034   53.4627 C   0  0  0  0  0  0  0  0  0  0  0  0
   69.4790   50.9256   53.6687 C   0  0  0  0  0  0  0  0  0  0  0  0
   70.3416   49.9240   53.1590 O   0  0  0  0  0  0  0  0  0  0  0  0
   68.3338   41.5361   57.7981 C   0  0  1  0  0  0  0  0  0  0  0  0
   67.7991   41.8392   59.1377 C   0  0  0  0  0  0  0  0  0  0  0  0
   66.4577   41.6386   59.4585 C   0  0  0  0  0  0  0  0  0  0  0  0
   65.9603   41.9230   60.7134 C   0  0  0  0  0  0  0  0  0  0  0  0
   66.8342   42.4165   61.6546 C   0  0  0  0  0  0  0  0  0  0  0  0
   68.1738   42.6254   61.3598 C   0  0  0  0  0  0  0  0  0  0  0  0
   68.6445   42.3328   60.0994 C   0  0  0  0  0  0  0  0  0  0  0  0
   68.3337   40.0561   57.5003 C   0  0  0  0  0  0  0  0  0  0  0  0
   67.9161   39.7387   56.2090 O   0  0  0  0  0  0  0  0  0  0  0  0
   69.3119   39.1471   58.1113 C   0  0  0  0  0  0  0  0  0  0  0  0
   67.8691   39.0954   58.5592 C   0  0  0  0  0  0  0  0  0  0  0  0
 14 15  1  0
 15  5  1  0
  5  6  2  0
  5 13  1  0
  6  7  1  0
  7  8  1  0
  8  9  1  0
  8 13  2  0
  9 10  2  0
 10  1  1  0
 10 11  1  0
  1  2  1  0
  2  3  2  0
  2  4  1  0
 16  4  1  6
 16 17  1  0
 16 23  1  0
 17 18  2  0
 17 22  1  0
 18 19  1  0
 19 20  2  0
 20 21  1  0
 21 22  2  0
 23 24  1  0
 23 25  1  0
 23 26  1  0
 25 26  1  0
 11 12  2  0
 12 13  1  0
M  END
>  <minimizedAffinity>  (689) 
-8.59314

$$$$
data/reference_output_2/data/smiles/196999.pdb
     RDKit          3D

 28 30  0  0  0  0  0  0  0  0999 V2000
   75.2272   34.7234   55.1614 N   0  0  0  0  0  0  0  0  0  0  0  0
   73.9648   34.9123   54.7894 C   0  0  0  0  0  0  0  0  0  0  0  0
   73.0259   35.3978   55.6851 C   0  0  0  0  0  0  0  0  0  0  0  0
   73.3128   35.7065   56.9632 N   0  0  0  0  0  0  0  0  0  0  0  0
   74.6015   35.5105   57.3412 C   0  0  0  0  0  0  0  0  0  0  0  0
   74.9174   35.7818   58.5235 O   0  0  0  0  0  0  0  0  0  0  0  0
   75.5406   35.0284   56.4573 C   0  0  0  0  0  0  0  0  0  0  0  0
   76.7396   34.8338   56.7724 O   0  0  0  0  0  0  0  0  0  0  0  0
   72.3440   36.2307   57.8578 C   0  0  0  0  0  0  0  0  0  0  0  0
   71.8980   37.5280   57.7832 C   0  0  0  0  0  0  0  0  0  0  0  0
   70.9454   38.0240   58.6802 C   0  0  0  0  0  0  0  0  0  0  0  0
   70.4598   39.4350   58.6072 C   0  0  0  0  0  0  0  0  0  0  0  0
   70.4587   37.1755   59.6499 C   0  0  0  0  0  0  0  0  0  0  0  0
   70.8759   35.8596   59.7658 C   0  0  0  0  0  0  0  0  0  0  0  0
   70.3016   35.0063   60.8376 C   0  0  0  0  0  0  0  0  0  0  0  0
   71.8090   35.4315   58.8600 C   0  0  0  0  0  0  0  0  0  0  0  0
   76.2192   34.2741   54.2372 C   0  0  0  0  0  0  0  0  0  0  0  0
   77.0880   34.7079   51.9385 N   0  0  0  0  0  0  0  0  0  0  0  0
   76.6626   35.1904   53.1957 C   0  0  0  0  0  0  0  0  0  0  0  0
   76.6660   36.4267   53.3908 O   0  0  0  0  0  0  0  0  0  0  0  0
   77.4909   35.5840   50.8885 C   0  0  0  0  0  0  0  0  0  0  0  0
   76.4681   33.6519   45.5385 C   0  0  0  0  0  0  0  0  0  0  0  0
   76.6968   34.1474   46.9321 C   0  0  0  0  0  0  0  0  0  0  0  0
   75.9879   33.6688   48.0053 C   0  0  0  0  0  0  0  0  0  0  0  0
   76.2239   34.1275   49.2842 C   0  0  0  0  0  0  0  0  0  0  0  0
   77.1740   35.0793   49.5476 C   0  0  0  0  0  0  0  0  0  0  0  0
   77.8886   35.5578   48.4363 C   0  0  0  0  0  0  0  0  0  0  0  0
   77.6566   35.1044   47.1604 C   0  0  0  0  0  0  0  0  0  0  0  0
 22 23  1  0
 23 24  2  0
 23 28  1  0
 24 25  1  0
 25 26  2  0
 26 21  1  0
 26 27  1  0
 21 18  1  0
 18 19  1  0
 19 20  2  0
 19 17  1  0
 17  1  1  0
  1  2  1  0
  1  7  1  0
  2  3  2  0
  3  4  1  0
  4  9  1  0
  4  5  1  0
  9 10  2  0
  9 16  1  0
 10 11  1  0
 11 12  1  0
 11 13  2  0
 13 14  1  0
 14 15  1  0
 14 16  2  0
  5  6  2  0
  5  7  1  0
  7  8  2  0
 27 28  2  0
M  END
>  <minimizedAffinity>  (690) 
-8.58733

$$$$
data/reference_output_2/data/smiles/133612.pdb
     RDKit          3D

 26 28  0  0  0  0  0  0  0  0999 V2000
   67.8095   44.2476   55.5121 C   0  0  0  0  0  0  0  0  0  0  0  0
   67.5228   44.2292   54.1956 N   0  0  0  0  0  0  0  0  0  0  0  0
   67.9884   45.3462   53.6078 C   0  0  0  0  0  0  0  0  0  0  0  0
   67.9865   45.8541   52.3273 C   0  0  0  0  0  0  0  0  0  0  0  0
   68.5565   47.0639   52.0014 C   0  0  0  0  0  0  0  0  0  0  0  0
   69.1658   47.8302   52.9759 C   0  0  0  0  0  0  0  0  0  0  0  0
   69.1681   47.3216   54.2588 C   0  0  0  0  0  0  0  0  0  0  0  0
   68.5977   46.1068   54.5933 C   0  0  0  0  0  0  0  0  0  0  0  0
   68.4620   45.3971   55.7282 N   0  0  0  0  0  0  0  0  0  0  0  0
   68.4487   42.4127   57.0875 C   0  0  0  0  0  0  0  0  0  0  0  0
   69.6594   42.6359   56.7716 O   0  0  0  0  0  0  0  0  0  0  0  0
   67.4685   43.2250   56.4574 N   0  0  0  0  0  0  0  0  0  0  0  0
   68.2921   40.0308   57.6801 C   0  0  0  0  0  0  0  0  0  0  0  0
   68.1629   41.4229   57.9988 O   0  0  0  0  0  0  0  0  0  0  0  0
   69.9039   49.3804   52.5927 S   0  0  0  0  0  0  0  0  0  0  0  0
   71.2978   49.3548   53.1164 O   0  0  0  0  0  0  0  0  0  0  0  0
   69.9400   49.6009   51.1073 O   0  0  0  0  0  0  0  0  0  0  0  0
   69.0635   50.6692   53.3757 N   0  0  0  0  0  0  0  0  0  0  0  0
   69.8812   51.1951   54.4802 C   0  0  0  0  0  0  0  0  0  0  0  0
   69.2378   50.8200   55.7608 C   0  0  0  0  0  0  0  0  0  0  0  0
   69.8946   50.0027   56.6484 C   0  0  0  0  0  0  0  0  0  0  0  0
   69.2630   49.6715   57.8390 C   0  0  0  0  0  0  0  0  0  0  0  0
   68.0079   50.1506   58.1224 C   0  0  0  0  0  0  0  0  0  0  0  0
   67.3388   50.9699   57.2430 C   0  0  0  0  0  0  0  0  0  0  0  0
   66.0953   51.4283   57.5554 F   0  0  0  0  0  0  0  0  0  0  0  0
   67.9670   51.3029   56.0537 C   0  0  0  0  0  0  0  0  0  0  0  0
 13 14  1  0
 14 10  1  0
 10 11  2  0
 10 12  1  0
 12  1  1  0
  1  2  2  0
  1  9  1  0
  2  3  1  0
  3  4  2  0
  3  8  1  0
  4  5  1  0
  5  6  2  0
  6 15  1  0
  6  7  1  0
 15 16  2  0
 15 17  2  0
 15 18  1  0
 18 19  1  0
 19 20  1  0
 20 21  2  0
 20 26  1  0
 21 22  1  0
 22 23  2  0
 23 24  1  0
 24 25  1  0
 24 26  2  0
  7  8  2  0
  8  9  1  0
M  CHG  1   2   1
M  END
>  <minimizedAffinity>  (691) 
-8.58720

$$$$
data/200k_reference_output/data/smiles/61646.pdb
     RDKit          3D

 27 29  0  0  0  0  0  0  0  0999 V2000
   69.7116   46.8726   57.3281 C   0  0  0  0  0  0  0  0  0  0  0  0
   70.7684   47.3643   57.8225 O   0  0  0  0  0  0  0  0  0  0  0  0
   69.5881   45.4786   57.3769 N   0  0  0  0  0  0  0  0  0  0  0  0
   68.6534   47.7263   56.7323 C   0  0  0  0  0  0  0  0  0  0  0  0
   70.7342   51.1615   54.0250 C   0  0  0  0  0  0  0  0  0  0  0  0
   70.0485   49.8590   54.0953 N   0  0  0  0  0  0  0  0  0  0  0  0
   69.6502   49.3512   55.2338 N   0  0  0  0  0  0  0  0  0  0  0  0
   68.9810   48.1638   55.3498 C   0  0  0  0  0  0  0  0  0  0  0  0
   68.7194   47.4843   54.1962 C   0  0  0  0  0  0  0  0  0  0  0  0
   68.0397   46.3065   54.2702 C   0  0  0  0  0  0  0  0  0  0  0  0
   67.7775   45.6248   53.0840 C   0  0  0  0  0  0  0  0  0  0  0  0
   68.1849   46.1145   51.8569 C   0  0  0  0  0  0  0  0  0  0  0  0
   68.8649   47.3128   51.8344 C   0  0  0  0  0  0  0  0  0  0  0  0
   69.1468   48.0243   52.9811 C   0  0  0  0  0  0  0  0  0  0  0  0
   69.8164   49.2218   52.9289 C   0  0  0  0  0  0  0  0  0  0  0  0
   70.1947   49.6950   51.8402 O   0  0  0  0  0  0  0  0  0  0  0  0
   70.6586   44.6752   57.9717 C   0  0  0  0  0  0  0  0  0  0  0  0
   70.2184   43.2689   58.0599 C   0  0  0  0  0  0  0  0  0  0  0  0
   69.1713   42.8058   57.2933 C   0  0  0  0  0  0  0  0  0  0  0  0
   68.7312   41.4773   57.3785 C   0  0  0  0  0  0  0  0  0  0  0  0
   69.3414   40.6044   58.2364 C   0  0  0  0  0  0  0  0  0  0  0  0
   70.3907   41.0613   59.0064 C   0  0  0  0  0  0  0  0  0  0  0  0
   70.8174   42.3862   58.9094 C   0  0  0  0  0  0  0  0  0  0  0  0
   68.8785   39.1991   58.3606 C   0  0  0  0  0  0  0  0  0  0  0  0
   68.3224   39.0666   59.6127 F   0  0  0  0  0  0  0  0  0  0  0  0
   69.9429   38.3152   58.3049 F   0  0  0  0  0  0  0  0  0  0  0  0
   67.9068   38.8954   57.4317 F   0  0  0  0  0  0  0  0  0  0  0  0
  5  6  1  0
  6  7  1  0
  6 15  1  0
  7  8  2  0
  8  4  1  0
  8  9  1  0
  4  1  1  0
  1  2  2  0
  1  3  1  0
  3 17  1  0
 17 18  1  0
 18 19  2  0
 18 23  1  0
 19 20  1  0
 20 21  2  0
 21 24  1  0
 21 22  1  0
 24 25  1  0
 24 26  1  0
 24 27  1  0
 22 23  2  0
  9 10  1  0
  9 14  2  0
 10 11  2  0
 11 12  1  0
 12 13  2  0
 13 14  1  0
 14 15  1  0
 15 16  2  0
M  END
>  <minimizedAffinity>  (692) 
-8.58683

$$$$
data/200k_reference_output/data/smiles/11225.pdb
     RDKit          3D

 24 26  0  0  0  0  0  0  0  0999 V2000
   69.7018   48.3373   54.6707 C   0  0  0  0  0  0  0  0  0  0  0  0
   69.8215   48.1309   56.0264 C   0  0  0  0  0  0  0  0  0  0  0  0
   69.3021   47.0218   56.6629 C   0  0  0  0  0  0  0  0  0  0  0  0
   68.6421   46.1022   55.8772 C   0  0  0  0  0  0  0  0  0  0  0  0
   68.5167   46.3013   54.5143 C   0  0  0  0  0  0  0  0  0  0  0  0
   67.8432   45.3577   53.7354 C   0  0  0  0  0  0  0  0  0  0  0  0
   67.7148   45.5500   52.3777 C   0  0  0  0  0  0  0  0  0  0  0  0
   68.2462   46.6677   51.7802 C   0  0  0  0  0  0  0  0  0  0  0  0
   68.9175   47.6231   52.5128 C   0  0  0  0  0  0  0  0  0  0  0  0
   69.0347   47.4084   53.8771 C   0  0  0  0  0  0  0  0  0  0  0  0
   71.5500   49.3181   53.0981 O   0  0  0  0  0  0  0  0  0  0  0  0
   70.3862   49.7644   53.9425 S   0  0  0  0  0  0  0  0  0  0  0  0
   70.9483   50.6260   55.0338 O   0  0  0  0  0  0  0  0  0  0  0  0
   69.2575   50.6096   53.0432 O   0  0  0  0  0  0  0  0  0  0  0  0
   69.4390   46.8359   58.0485 O   0  0  0  0  0  0  0  0  0  0  0  0
   71.0209   46.5007   58.6268 S   0  0  0  0  0  0  0  0  0  0  0  0
   71.1526   46.7455   60.0781 O   0  0  0  0  0  0  0  0  0  0  0  0
   71.9457   47.4266   57.8548 O   0  0  0  0  0  0  0  0  0  0  0  0
   71.4979   44.8596   58.1922 C   0  0  0  0  0  0  0  0  0  0  0  0
   70.5802   43.8522   58.0310 C   0  0  0  0  0  0  0  0  0  0  0  0
   70.9557   42.5630   57.6898 C   0  0  0  0  0  0  0  0  0  0  0  0
   72.2853   42.2647   57.5016 C   0  0  0  0  0  0  0  0  0  0  0  0
   73.2084   43.2562   57.6586 C   0  0  0  0  0  0  0  0  0  0  0  0
   72.8290   44.5321   57.9969 C   0  0  0  0  0  0  0  0  0  0  0  0
 11 12  2  0
 12 13  2  0
 12 14  1  0
 12  1  1  0
  1  2  2  0
  1 10  1  0
  2  3  1  0
  3 15  1  0
  3  4  2  0
 15 16  1  0
 16 17  2  0
 16 18  2  0
 16 19  1  0
 19 20  2  0
 19 24  1  0
 20 21  1  0
 21 22  2  0
 22 23  1  0
 23 24  2  0
  4  5  1  0
  5  6  1  0
  5 10  2  0
  6  7  2  0
  7  8  1  0
  8  9  2  0
  9 10  1  0
M  CHG  1  14  -1
M  END
>  <minimizedAffinity>  (693) 
-8.58580

$$$$
data/200k_reference_output/data/smiles/64357.pdb
     RDKit          3D

 28 30  0  0  0  0  0  0  0  0999 V2000
   68.3590   44.0677   56.2354 N   0  0  0  0  0  0  0  0  0  0  0  0
   67.6521   42.8466   56.1376 C   0  0  0  0  0  0  0  0  0  0  0  0
   66.9505   42.6884   55.0892 O   0  0  0  0  0  0  0  0  0  0  0  0
   68.8712   47.4842   54.9808 C   0  0  0  0  0  0  0  0  0  0  0  0
   68.8078   46.3688   55.7850 C   0  0  0  0  0  0  0  0  0  0  0  0
   68.3747   45.1194   55.3102 C   0  0  0  0  0  0  0  0  0  0  0  0
   68.0264   45.1110   53.9989 C   0  0  0  0  0  0  0  0  0  0  0  0
   68.0754   46.2109   53.1581 C   0  0  0  0  0  0  0  0  0  0  0  0
   68.5017   47.4021   53.6592 C   0  0  0  0  0  0  0  0  0  0  0  0
   69.1900   49.8394   54.8182 O   0  0  0  0  0  0  0  0  0  0  0  0
   69.3236   48.7825   55.4835 C   0  0  0  0  0  0  0  0  0  0  0  0
   69.9289   48.9043   56.7330 O   0  0  0  0  0  0  0  0  0  0  0  0
   67.6717   46.0729   51.7582 C   0  0  0  0  0  0  0  0  0  0  0  0
   68.1942   46.8099   50.8869 O   0  0  0  0  0  0  0  0  0  0  0  0
   66.7256   45.1518   51.3476 O   0  0  0  0  0  0  0  0  0  0  0  0
   67.6810   41.7853   57.1468 C   0  0  0  0  0  0  0  0  0  0  0  0
   68.0584   40.5029   56.7793 C   0  0  0  0  0  0  0  0  0  0  0  0
   68.0990   39.4779   57.6961 C   0  0  0  0  0  0  0  0  0  0  0  0
   67.7648   39.6837   59.0230 C   0  0  0  0  0  0  0  0  0  0  0  0
   67.3897   40.9510   59.3995 C   0  0  0  0  0  0  0  0  0  0  0  0
   67.3528   41.9838   58.4553 C   0  0  0  0  0  0  0  0  0  0  0  0
   67.0400   41.1971   60.7430 N   0  0  0  0  0  0  0  0  0  0  0  0
   67.3905   42.3023   61.5625 C   0  0  0  0  0  0  0  0  0  0  0  0
   67.6341   43.4769   61.1738 O   0  0  0  0  0  0  0  0  0  0  0  0
   67.4174   41.8223   62.9612 C   0  0  0  0  0  0  0  0  0  0  0  0
   66.6236   40.5626   62.9956 C   0  0  0  0  0  0  0  0  0  0  0  0
   66.2421   40.3661   61.5696 C   0  0  0  0  0  0  0  0  0  0  0  0
   65.3295   39.5533   61.2512 O   0  0  0  0  0  0  0  0  0  0  0  0
 10 11  2  0
 11 12  1  0
 11  4  1  0
  4  5  2  0
  4  9  1  0
  5  6  1  0
  6  1  1  0
  6  7  2  0
  1  2  1  0
  2  3  2  0
  2 16  1  0
 16 17  2  0
 16 21  1  0
 17 18  1  0
 18 19  2  0
 19 20  1  0
 20 22  1  0
 20 21  2  0
 22 23  1  0
 22 27  1  0
 23 24  2  0
 23 25  1  0
 25 26  1  0
 26 27  1  0
 27 28  2  0
  7  8  1  0
  8 13  1  0
  8  9  2  0
 13 14  2  0
 13 15  1  0
M  END
>  <minimizedAffinity>  (694) 
-8.58553

$$$$
data/200k_reference_output/data/smiles/11888.pdb
     RDKit          3D

 26 28  0  0  0  0  0  0  0  0999 V2000
   68.2247   44.6551   55.4762 N   0  0  0  0  0  0  0  0  0  0  0  0
   67.4204   43.7276   54.9845 N   0  0  0  0  0  0  0  0  0  0  0  0
   67.3672   42.6558   55.7946 C   0  0  0  0  0  0  0  0  0  0  0  0
   68.1977   42.9494   56.8548 C   0  0  0  0  0  0  0  0  0  0  0  0
   68.6887   44.1761   56.6056 N   0  0  0  0  0  0  0  0  0  0  0  0
   69.4935   49.7719   53.2928 C   0  0  0  0  0  0  0  0  0  0  0  0
   69.1630   48.4387   53.8588 C   0  0  0  0  0  0  0  0  0  0  0  0
   68.7421   47.4164   53.0268 C   0  0  0  0  0  0  0  0  0  0  0  0
   68.4266   46.1552   53.5459 C   0  0  0  0  0  0  0  0  0  0  0  0
   68.5411   45.9414   54.9034 C   0  0  0  0  0  0  0  0  0  0  0  0
   68.9648   46.9914   55.6965 C   0  0  0  0  0  0  0  0  0  0  0  0
   69.2814   48.2374   55.2205 C   0  0  0  0  0  0  0  0  0  0  0  0
   69.7377   49.3456   56.1271 C   0  0  0  0  0  0  0  0  0  0  0  0
   68.4629   42.0859   57.9940 C   0  0  0  0  0  0  0  0  0  0  0  0
   68.3920   42.5219   59.1678 O   0  0  0  0  0  0  0  0  0  0  0  0
   68.8115   40.7213   57.8145 N   0  0  0  0  0  0  0  0  0  0  0  0
   69.0795   39.8461   58.9387 C   0  0  1  0  0  0  0  0  0  0  0  0
   68.0470   38.7346   59.0296 C   0  0  0  0  0  0  0  0  0  0  0  0
   70.4399   39.2619   58.8670 C   0  0  0  0  0  0  0  0  0  0  0  0
   71.5774   39.9925   59.1207 C   0  0  0  0  0  0  0  0  0  0  0  0
   72.8225   39.4235   59.0458 C   0  0  0  0  0  0  0  0  0  0  0  0
   72.9791   38.0754   58.7094 C   0  0  0  0  0  0  0  0  0  0  0  0
   71.8315   37.3530   58.4588 C   0  0  0  0  0  0  0  0  0  0  0  0
   70.5773   37.9310   58.5342 C   0  0  0  0  0  0  0  0  0  0  0  0
   66.5716   41.3963   55.5914 C   0  0  0  0  0  0  0  0  0  0  0  0
   67.3822   40.3586   55.1367 O   0  0  0  0  0  0  0  0  0  0  0  0
  6  7  1  0
  7  8  2  0
  7 12  1  0
  8  9  1  0
  9 10  2  0
 10  1  1  0
 10 11  1  0
  1  2  1  0
  1  5  1  0
  2  3  2  0
  3 25  1  0
  3  4  1  0
 25 26  1  0
  4 14  1  0
  4  5  2  0
 14 15  2  0
 14 16  1  0
 16 17  1  0
 17 18  1  6
 17 19  1  0
 19 20  2  0
 19 24  1  0
 20 21  1  0
 21 22  2  0
 22 23  1  0
 23 24  2  0
 11 12  2  0
 12 13  1  0
M  END
>  <minimizedAffinity>  (695) 
-8.58433

$$$$
data/200k_reference_output/data/smiles/44787.pdb
     RDKit          3D

 29 33  0  0  0  0  0  0  0  0999 V2000
   68.0776   44.7187   55.1996 C   0  0  0  0  0  0  0  0  0  0  0  0
   68.4770   45.9944   55.3994 C   0  0  0  0  0  0  0  0  0  0  0  0
   68.4491   46.9856   54.4119 C   0  0  0  0  0  0  0  0  0  0  0  0
   67.9806   46.6027   53.1779 C   0  0  0  0  0  0  0  0  0  0  0  0
   67.5596   45.2883   52.9431 C   0  0  0  0  0  0  0  0  0  0  0  0
   67.6271   44.4291   53.9422 N   0  0  0  0  0  0  0  0  0  0  0  0
   68.8906   48.3448   54.6781 C   0  0  0  0  0  0  0  0  0  0  0  0
   69.3281   49.2310   53.7207 C   0  0  0  0  0  0  0  0  0  0  0  0
   69.6660   50.4270   54.3354 C   0  0  0  0  0  0  0  0  0  0  0  0
   69.4354   50.2698   55.6730 C   0  0  0  0  0  0  0  0  0  0  0  0
   68.9720   49.0117   55.8352 N   0  0  0  0  0  0  0  0  0  0  0  0
   69.7146   51.3733   56.6506 C   0  0  2  0  0  0  0  0  0  0  0  0
   71.1713   51.2422   57.1075 C   0  0  0  0  0  0  0  0  0  0  0  0
   71.0537   51.1532   58.6174 C   0  0  0  0  0  0  0  0  0  0  0  0
   69.7637   50.5196   58.8064 N   0  0  0  0  0  0  0  0  0  0  0  0
   68.8943   51.1724   57.8743 C   0  0  0  0  0  0  0  0  0  0  0  0
   69.5081   52.7078   55.9997 C   0  0  0  0  0  0  0  0  0  0  0  0
   70.3659   52.7422   54.8325 N   0  0  0  0  0  0  0  0  0  0  0  0
   70.1591   51.7116   53.8445 C   0  0  0  0  0  0  0  0  0  0  0  0
   70.3847   51.8913   52.6232 O   0  0  0  0  0  0  0  0  0  0  0  0
   66.5210   42.3104   55.1452 O   0  0  0  0  0  0  0  0  0  0  0  0
   67.3032   42.4841   56.0955 C   0  0  0  0  0  0  0  0  0  0  0  0
   68.0746   43.6633   56.1362 N   0  0  0  0  0  0  0  0  0  0  0  0
   67.3889   41.4484   57.1401 C   0  0  0  0  0  0  0  0  0  0  0  0
   68.1049   40.2973   56.9036 C   0  0  0  0  0  0  0  0  0  0  0  0
   68.2194   39.2887   57.8506 C   0  0  0  0  0  0  0  0  0  0  0  0
   67.5956   39.4439   59.0748 C   0  0  0  0  0  0  0  0  0  0  0  0
   66.8851   40.6068   59.2855 C   0  0  0  0  0  0  0  0  0  0  0  0
   66.7929   41.5762   58.3317 N   0  0  0  0  0  0  0  0  0  0  0  0
 21 22  2  0
 22 23  1  0
 22 24  1  0
 23  1  1  0
  1  2  2  0
  1  6  1  0
  2  3  1  0
  3  7  1  0
  3  4  2  0
  7  8  2  0
  7 11  1  0
  8  9  1  0
  9 10  2  0
  9 19  1  0
 10 11  1  0
 12 10  1  0
 12 13  1  1
 12 16  1  0
 12 17  1  0
 13 14  1  0
 14 15  1  0
 15 16  1  0
 17 18  1  0
 18 19  1  0
 19 20  2  0
  4  5  1  0
  5  6  2  0
 24 25  2  0
 24 29  1  0
 25 26  1  0
 26 27  2  0
 27 28  1  0
 28 29  2  0
M  CHG  1  15   1
M  END
>  <minimizedAffinity>  (696) 
-8.58383

$$$$
data/reference_output_2/data/smiles/134311.pdb
     RDKit          3D

 26 29  0  0  0  0  0  0  0  0999 V2000
   71.9884   49.9183   56.6919 C   0  0  0  0  0  0  0  0  0  0  0  0
   73.2633   50.4281   56.1508 C   0  0  1  0  0  0  0  0  0  0  0  0
   74.4976   49.8878   56.8244 C   0  0  0  0  0  0  0  0  0  0  0  0
   75.5194   50.0013   55.7323 C   0  0  0  0  0  0  0  0  0  0  0  0
   74.8876   50.1776   54.6453 N   0  0  0  0  0  0  0  0  0  0  0  0
   73.5241   50.2060   54.8081 O   0  0  0  0  0  0  0  0  0  0  0  0
   76.9544   49.9123   55.9859 C   0  0  0  0  0  0  0  0  0  0  0  0
   77.8008   49.2133   55.1306 C   0  0  0  0  0  0  0  0  0  0  0  0
   79.1630   49.1334   55.3793 C   0  0  0  0  0  0  0  0  0  0  0  0
   79.7131   49.7471   56.4835 C   0  0  0  0  0  0  0  0  0  0  0  0
   81.0899   49.6391   56.6935 O   0  0  0  0  0  0  0  0  0  0  0  0
   78.8901   50.4403   57.3372 C   0  0  0  0  0  0  0  0  0  0  0  0
   79.4644   51.0296   58.4101 F   0  0  0  0  0  0  0  0  0  0  0  0
   77.5503   50.5065   57.0732 C   0  0  0  0  0  0  0  0  0  0  0  0
   70.7374   50.3139   56.0138 C   0  0  0  0  0  0  0  0  0  0  0  0
   68.9278   47.9610   56.8448 O   0  0  0  0  0  0  0  0  0  0  0  0
   69.2661   48.2418   55.6495 C   0  0  0  0  0  0  0  0  0  0  0  0
   68.8416   47.4751   54.4722 C   0  0  0  0  0  0  0  0  0  0  0  0
   68.0462   46.3570   54.3292 C   0  0  0  0  0  0  0  0  0  0  0  0
   67.7779   45.7947   53.0909 C   0  0  0  0  0  0  0  0  0  0  0  0
   68.3126   46.3566   51.9520 C   0  0  0  0  0  0  0  0  0  0  0  0
   69.1092   47.4767   52.0999 C   0  0  0  0  0  0  0  0  0  0  0  0
   69.3775   48.0363   53.3344 C   0  0  0  0  0  0  0  0  0  0  0  0
   70.1557   49.1790   53.7910 C   0  0  0  0  0  0  0  0  0  0  0  0
   70.7941   49.9376   53.0032 O   0  0  0  0  0  0  0  0  0  0  0  0
   70.0940   49.3147   55.2156 N   0  0  0  0  0  0  0  0  0  0  0  0
 16 17  2  0
 17 18  1  0
 17 26  1  0
 18 19  2  0
 18 23  1  0
 19 20  1  0
 20 21  2  0
 21 22  1  0
 22 23  2  0
 23 24  1  0
 24 25  2  0
 24 26  1  0
 26 15  1  0
 15  1  1  0
  2  1  1  1
  2  3  1  0
  2  6  1  0
  3  4  1  0
  4  7  1  0
  4  5  2  0
  7  8  2  0
  7 14  1  0
  8  9  1  0
  9 10  2  0
 10 11  1  0
 10 12  1  0
 12 13  1  0
 12 14  2  0
  5  6  1  0
M  END
>  <minimizedAffinity>  (697) 
-8.58361

$$$$
data/reference_output_2/data/smiles/132021.pdb
     RDKit          3D

 25 26  0  0  0  0  0  0  0  0999 V2000
   70.2632   46.4703   57.9206 C   0  0  0  0  0  0  0  0  0  0  0  0
   70.8742   47.9591   58.4638 S   0  0  0  0  0  0  0  0  0  0  0  0
   70.0112   46.4772   56.5372 N   0  0  0  0  0  0  0  0  0  0  0  0
   68.8357   46.7474   55.8267 C   0  0  0  0  0  0  0  0  0  0  0  0
   67.8264   47.0196   56.5245 O   0  0  0  0  0  0  0  0  0  0  0  0
   68.6945   46.7319   54.3621 C   0  0  0  0  0  0  0  0  0  0  0  0
   67.9133   45.7348   53.7661 C   0  0  0  0  0  0  0  0  0  0  0  0
   67.7070   45.7179   52.3845 C   0  0  0  0  0  0  0  0  0  0  0  0
   68.2546   46.6721   51.5722 C   0  0  0  0  0  0  0  0  0  0  0  0
   69.0132   47.6404   52.1457 C   0  0  0  0  0  0  0  0  0  0  0  0
   69.2430   47.6793   53.5558 C   0  0  0  0  0  0  0  0  0  0  0  0
   70.0537   48.7411   53.9921 N   0  0  0  0  0  0  0  0  0  0  0  0
   71.0849   49.0284   53.2954 O   0  0  0  0  0  0  0  0  0  0  0  0
   69.8468   49.4997   55.0724 O   0  0  0  0  0  0  0  0  0  0  0  0
   70.1354   45.5113   58.8883 N   0  0  0  0  0  0  0  0  0  0  0  0
   71.1800   43.4470   57.3553 O   0  0  0  0  0  0  0  0  0  0  0  0
   70.1817   43.1451   58.0916 C   0  0  0  0  0  0  0  0  0  0  0  0
   69.6588   44.2146   58.8649 N   0  0  0  0  0  0  0  0  0  0  0  0
   69.6842   41.7798   58.0798 C   0  0  0  0  0  0  0  0  0  0  0  0
   70.3140   40.8239   58.8863 C   0  0  0  0  0  0  0  0  0  0  0  0
   69.8303   39.5399   58.8986 C   0  0  0  0  0  0  0  0  0  0  0  0
   68.7205   39.2118   58.1063 C   0  0  0  0  0  0  0  0  0  0  0  0
   68.0854   40.1209   57.3099 C   0  0  0  0  0  0  0  0  0  0  0  0
   68.6009   41.4333   57.3133 C   0  0  0  0  0  0  0  0  0  0  0  0
   67.8678   42.6689   56.3265 Cl  0  0  0  0  0  0  0  0  0  0  0  0
 16 17  2  0
 17 18  1  0
 17 19  1  0
 18 15  1  0
 15  1  1  0
  1  2  2  0
  1  3  1  0
  3  4  1  0
  4  5  2  0
  4  6  1  0
  6  7  2  0
  6 11  1  0
  7  8  1  0
  8  9  2  0
  9 10  1  0
 10 11  2  0
 11 12  1  0
 12 13  2  0
 12 14  1  0
 19 20  2  0
 19 24  1  0
 20 21  1  0
 21 22  2  0
 22 23  1  0
 23 24  2  0
 24 25  1  0
M  CHG  2  12   1  14  -1
M  END
>  <minimizedAffinity>  (698) 
-8.58359

$$$$
data/reference_output_2/data/smiles/186715.pdb
     RDKit          3D

 25 27  0  0  0  0  0  0  0  0999 V2000
   70.4887   46.3348   59.1102 O   0  0  0  0  0  0  0  0  0  0  0  0
   70.5745   45.4711   58.2233 C   0  0  0  0  0  0  0  0  0  0  0  0
   69.8055   45.8307   57.0411 N   0  0  0  0  0  0  0  0  0  0  0  0
   71.2938   44.2482   58.2309 C   0  0  0  0  0  0  0  0  0  0  0  0
   72.6037   44.4016   58.1358 O   0  0  0  0  0  0  0  0  0  0  0  0
   70.9144   42.8781   58.3225 C   0  0  0  0  0  0  0  0  0  0  0  0
   71.6211   41.9311   59.0945 C   0  0  0  0  0  0  0  0  0  0  0  0
   71.0039   40.7370   59.0276 N   0  0  0  0  0  0  0  0  0  0  0  0
   69.9267   40.8209   58.2578 C   0  0  0  0  0  0  0  0  0  0  0  0
   69.0070   39.8887   57.8934 C   0  0  0  0  0  0  0  0  0  0  0  0
   67.9578   40.2575   57.0435 C   0  0  0  0  0  0  0  0  0  0  0  0
   67.8453   41.5359   56.5784 C   0  0  0  0  0  0  0  0  0  0  0  0
   66.5628   42.0713   55.5125 Cl  0  0  0  0  0  0  0  0  0  0  0  0
   68.8160   42.4607   56.9814 C   0  0  0  0  0  0  0  0  0  0  0  0
   69.8674   42.1485   57.8169 C   0  0  0  0  0  0  0  0  0  0  0  0
   69.0607   47.0668   56.9962 C   0  0  0  0  0  0  0  0  0  0  0  0
   68.1667   47.1815   55.8287 C   0  0  0  0  0  0  0  0  0  0  0  0
   68.7548   47.5460   54.5477 C   0  0  0  0  0  0  0  0  0  0  0  0
   68.5950   46.8275   53.3817 C   0  0  0  0  0  0  0  0  0  0  0  0
   69.1640   47.2248   52.2091 C   0  0  0  0  0  0  0  0  0  0  0  0
   69.9273   48.3665   52.1349 C   0  0  0  0  0  0  0  0  0  0  0  0
   70.5016   48.7596   50.9353 O   0  0  0  0  0  0  0  0  0  0  0  0
   70.1127   49.1130   53.2769 C   0  0  0  0  0  0  0  0  0  0  0  0
   70.8779   50.2655   53.2285 O   0  0  0  0  0  0  0  0  0  0  0  0
   69.5213   48.6888   54.4699 C   0  0  0  0  0  0  0  0  0  0  0  0
  1  2  2  0
  2  3  1  0
  2  4  1  0
  3 16  1  0
 16 17  1  0
 17 18  1  0
 18 19  2  0
 18 25  1  0
 19 20  1  0
 20 21  2  0
 21 22  1  0
 21 23  1  0
 23 24  1  0
 23 25  2  0
  4  5  2  0
  4  6  1  0
  6  7  2  0
  6 15  1  0
  7  8  1  0
  8  9  1  0
  9 10  1  0
  9 15  2  0
 10 11  2  0
 11 12  1  0
 12 13  1  0
 12 14  2  0
 14 15  1  0
M  END
>  <minimizedAffinity>  (699) 
-8.58351

$$$$
data/reference_output_2/data/smiles/182049.pdb
     RDKit          3D

 29 32  0  0  0  0  0  0  0  0999 V2000
   68.9035   46.4032   55.3573 C   0  0  0  0  0  0  0  0  0  0  0  0
   68.1752   45.5013   54.6139 C   0  0  0  0  0  0  0  0  0  0  0  0
   67.8314   45.7864   53.3029 C   0  0  0  0  0  0  0  0  0  0  0  0
   68.2116   46.9752   52.7222 C   0  0  0  0  0  0  0  0  0  0  0  0
   68.9563   47.9230   53.4442 C   0  0  0  0  0  0  0  0  0  0  0  0
   69.2671   47.5843   54.7396 C   0  0  0  0  0  0  0  0  0  0  0  0
   69.9304   44.9141   57.1528 N   0  0  0  0  0  0  0  0  0  0  0  0
   69.2539   46.0771   56.7354 C   0  0  0  0  0  0  0  0  0  0  0  0
   68.9376   46.8867   57.6443 O   0  0  0  0  0  0  0  0  0  0  0  0
   70.2344   44.6776   58.5448 C   0  0  0  0  0  0  0  0  0  0  0  0
   67.6478   39.8219   58.9226 C   0  0  0  0  0  0  0  0  0  0  0  0
   68.6996   40.8210   59.0107 N   0  0  0  0  0  0  0  0  0  0  0  0
   68.3321   41.9209   59.8761 C   0  0  0  0  0  0  0  0  0  0  0  0
   69.4885   42.8280   60.0327 C   0  0  0  0  0  0  0  0  0  0  0  0
   70.2472   43.1621   58.8072 C   0  0  0  0  0  0  0  0  0  0  0  0
   69.9095   42.4086   57.5791 C   0  0  0  0  0  0  0  0  0  0  0  0
   68.8518   41.3820   57.6839 C   0  0  0  0  0  0  0  0  0  0  0  0
   69.3408   49.2083   52.7979 C   0  0  0  0  0  0  0  0  0  0  0  0
   70.3074   50.0090   53.5266 C   0  0  0  0  0  0  0  0  0  0  0  0
   71.6112   49.6398   53.4917 N   0  0  0  0  0  0  0  0  0  0  0  0
   72.5563   50.2889   54.1516 N   0  0  0  0  0  0  0  0  0  0  0  0
   72.2634   51.3681   54.9041 C   0  0  0  0  0  0  0  0  0  0  0  0
   73.1379   52.0066   55.5438 O   0  0  0  0  0  0  0  0  0  0  0  0
   70.9506   51.7716   54.9635 C   0  0  0  0  0  0  0  0  0  0  0  0
   69.9674   51.0832   54.2659 C   0  0  0  0  0  0  0  0  0  0  0  0
   68.6069   51.6461   54.3933 C   0  0  0  0  0  0  0  0  0  0  0  0
   68.2867   51.6929   55.8520 C   0  0  0  0  0  0  0  0  0  0  0  0
   69.3074   52.5149   56.5950 C   0  0  0  0  0  0  0  0  0  0  0  0
   70.4871   52.9377   55.7634 C   0  0  0  0  0  0  0  0  0  0  0  0
 11 12  1  0
 12 13  1  0
 12 17  1  0
 13 14  1  0
 14 15  1  0
 15 10  1  0
 15 16  1  0
 10  7  1  0
  7  8  1  0
  8  9  2  0
  8  1  1  0
  1  2  2  0
  1  6  1  0
  2  3  1  0
  3  4  2  0
  4  5  1  0
  5 18  1  0
  5  6  2  0
 18 19  1  0
 19 20  2  0
 19 25  1  0
 20 21  1  0
 21 22  1  0
 22 23  2  0
 22 24  1  0
 24 25  2  0
 24 29  1  0
 25 26  1  0
 26 27  1  0
 27 28  1  0
 28 29  1  0
 16 17  1  0
M  CHG  1  12   1
M  END
>  <minimizedAffinity>  (700) 
-8.58336

$$$$
data/200k_reference_output/data/smiles/37933.pdb
     RDKit          3D

 27 29  0  0  0  0  0  0  0  0999 V2000
   70.2168   45.8072   58.6265 N   0  0  0  0  0  0  0  0  0  0  0  0
   70.5020   47.0656   58.0517 C   0  0  0  0  0  0  0  0  0  0  0  0
   71.6763   47.4163   57.9576 O   0  0  0  0  0  0  0  0  0  0  0  0
   71.1128   44.8605   59.1226 C   0  0  0  0  0  0  0  0  0  0  0  0
   71.5543   43.7456   58.2473 C   0  0  0  0  0  0  0  0  0  0  0  0
   67.5923   39.0359   58.9603 C   0  0  0  0  0  0  0  0  0  0  0  0
   68.7413   39.5738   58.1119 C   0  0  1  0  0  0  0  0  0  0  0  0
   68.1336   40.1720   56.8664 C   0  0  0  0  0  0  0  0  0  0  0  0
   67.8106   41.6453   57.1517 C   0  0  2  0  0  0  0  0  0  0  0  0
   67.0853   42.2320   55.9874 C   0  0  0  0  0  0  0  0  0  0  0  0
   69.1554   42.3150   57.2650 C   0  0  0  0  0  0  0  0  0  0  0  0
   69.9610   41.7430   58.2972 N   0  0  0  0  0  0  0  0  0  0  0  0
   71.1434   42.4174   58.7818 C   0  0  0  0  0  0  0  0  0  0  0  0
   71.7830   41.8088   59.6738 O   0  0  0  0  0  0  0  0  0  0  0  0
   69.6055   40.4888   58.8950 C   0  0  0  0  0  0  0  0  0  0  0  0
   69.4458   48.0061   57.5447 C   0  0  0  0  0  0  0  0  0  0  0  0
   69.2888   47.8686   56.1141 N   0  0  0  0  0  0  0  0  0  0  0  0
   69.8004   48.8032   55.3005 C   0  0  0  0  0  0  0  0  0  0  0  0
   69.6818   48.7250   53.9183 C   0  0  0  0  0  0  0  0  0  0  0  0
   69.0249   47.6643   53.3716 C   0  0  0  0  0  0  0  0  0  0  0  0
   68.8761   47.5380   52.0126 C   0  0  0  0  0  0  0  0  0  0  0  0
   68.2076   46.4663   51.4403 C   0  0  0  0  0  0  0  0  0  0  0  0
   67.6747   45.4930   52.2731 C   0  0  0  0  0  0  0  0  0  0  0  0
   67.8255   45.6215   53.6356 C   0  0  0  0  0  0  0  0  0  0  0  0
   68.4953   46.6969   54.1986 C   0  0  0  0  0  0  0  0  0  0  0  0
   68.6444   46.8274   55.5628 C   0  0  0  0  0  0  0  0  0  0  0  0
   68.1418   45.9164   56.2717 O   0  0  0  0  0  0  0  0  0  0  0  0
  7  6  1  1
  7  8  1  0
  7 15  1  0
  8  9  1  0
  9 10  1  6
  9 11  1  0
 11 12  1  0
 12 13  1  0
 12 15  1  0
 13 14  2  0
 13  5  1  0
  5  4  1  0
  4  1  1  0
  1  2  1  0
  2  3  2  0
  2 16  1  0
 16 17  1  0
 17 18  1  0
 17 26  1  0
 18 19  2  0
 19 20  1  0
 20 21  2  0
 20 25  1  0
 21 22  1  0
 22 23  2  0
 23 24  1  0
 24 25  2  0
 25 26  1  0
 26 27  2  0
M  END
>  <minimizedAffinity>  (701) 
-8.58246

$$$$
data/reference_output_2/data/smiles/195713.pdb
     RDKit          3D

 28 31  0  0  0  0  0  0  0  0999 V2000
   70.6817   45.4782   59.2192 O   0  0  0  0  0  0  0  0  0  0  0  0
   71.4033   46.4958   59.1871 C   0  0  0  0  0  0  0  0  0  0  0  0
   72.4865   46.5709   60.1142 N   0  0  0  0  0  0  0  0  0  0  0  0
   73.3696   47.7377   60.1292 C   0  0  0  0  0  0  0  0  0  0  0  0
   73.5157   48.1341   61.6027 C   0  0  0  0  0  0  0  0  0  0  0  0
   74.2246   47.0513   62.2725 N   0  0  0  0  0  0  0  0  0  0  0  0
   74.0652   45.6941   61.7594 C   0  0  0  0  0  0  0  0  0  0  0  0
   72.7448   45.5210   61.0525 C   0  0  0  0  0  0  0  0  0  0  0  0
   75.0244   47.3701   63.3869 C   0  0  0  0  0  0  0  0  0  0  0  0
   76.3274   47.7574   63.2371 C   0  0  0  0  0  0  0  0  0  0  0  0
   77.1263   48.0686   64.3377 C   0  0  0  0  0  0  0  0  0  0  0  0
   76.5778   47.9798   65.5824 C   0  0  0  0  0  0  0  0  0  0  0  0
   77.3689   48.2883   66.6612 F   0  0  0  0  0  0  0  0  0  0  0  0
   75.2804   47.5944   65.7340 C   0  0  0  0  0  0  0  0  0  0  0  0
   74.4904   47.2855   64.6455 C   0  0  0  0  0  0  0  0  0  0  0  0
   71.1116   47.5522   58.2113 C   0  0  0  0  0  0  0  0  0  0  0  0
   69.6613   47.7119   57.8970 C   0  0  0  0  0  0  0  0  0  0  0  0
   69.2684   47.2336   56.5503 C   0  0  0  0  0  0  0  0  0  0  0  0
   69.4612   47.9058   55.4087 N   0  0  0  0  0  0  0  0  0  0  0  0
   69.0960   47.4511   54.2024 C   0  0  0  0  0  0  0  0  0  0  0  0
   69.2846   48.1258   53.0193 C   0  0  0  0  0  0  0  0  0  0  0  0
   68.8965   47.6283   51.7939 C   0  0  0  0  0  0  0  0  0  0  0  0
   68.2869   46.3945   51.7355 C   0  0  0  0  0  0  0  0  0  0  0  0
   68.0846   45.6918   52.9243 C   0  0  0  0  0  0  0  0  0  0  0  0
   68.4845   46.2170   54.1353 C   0  0  0  0  0  0  0  0  0  0  0  0
   68.2763   45.5064   55.2994 C   0  0  0  0  0  0  0  0  0  0  0  0
   67.7152   44.3628   55.2749 O   0  0  0  0  0  0  0  0  0  0  0  0
   68.6662   46.0142   56.4976 N   0  0  0  0  0  0  0  0  0  0  0  0
  1  2  2  0
  2 16  1  0
  2  3  1  0
 16 17  1  0
 17 18  1  0
 18 19  2  0
 18 28  1  0
 19 20  1  0
 20 21  2  0
 20 25  1  0
 21 22  1  0
 22 23  2  0
 23 24  1  0
 24 25  2  0
 25 26  1  0
 26 27  2  0
 26 28  1  0
  3  4  1  0
  3  8  1  0
  4  5  1  0
  5  6  1  0
  6  9  1  0
  6  7  1  0
  9 10  2  0
  9 15  1  0
 10 11  1  0
 11 12  2  0
 12 13  1  0
 12 14  1  0
 14 15  2  0
  7  8  1  0
M  END
>  <minimizedAffinity>  (702) 
-8.58148

$$$$
data/reference_output_2/data/smiles/91917.pdb
     RDKit          3D

 26 29  0  0  0  0  0  0  0  0999 V2000
   69.5592   43.6844   57.8710 O   0  0  0  0  0  0  0  0  0  0  0  0
   68.8703   42.8603   57.2387 C   0  0  0  0  0  0  0  0  0  0  0  0
   68.9370   41.4458   57.5749 C   0  0  0  0  0  0  0  0  0  0  0  0
   69.6137   40.7068   58.5391 C   0  0  0  0  0  0  0  0  0  0  0  0
   69.2604   39.3537   58.4175 C   0  0  0  0  0  0  0  0  0  0  0  0
   68.4033   39.3347   57.4041 N   0  0  0  0  0  0  0  0  0  0  0  0
   68.2045   40.5732   56.8948 N   0  0  0  0  0  0  0  0  0  0  0  0
   67.3855   40.9951   55.7816 C   0  0  0  0  0  0  0  0  0  0  0  0
   66.9506   42.4053   55.8562 C   0  0  0  0  0  0  0  0  0  0  0  0
   68.0204   43.3204   56.1864 N   0  0  0  0  0  0  0  0  0  0  0  0
   68.1404   44.5260   55.4958 C   0  0  0  0  0  0  0  0  0  0  0  0
   67.7601   44.6401   54.1590 C   0  0  0  0  0  0  0  0  0  0  0  0
   67.8894   45.8553   53.4884 C   0  0  0  0  0  0  0  0  0  0  0  0
   68.3934   46.9579   54.1379 C   0  0  0  0  0  0  0  0  0  0  0  0
   68.5197   48.1402   53.4854 F   0  0  0  0  0  0  0  0  0  0  0  0
   68.7617   46.8129   55.4621 C   0  0  0  0  0  0  0  0  0  0  0  0
   68.6256   45.6371   56.0773 N   0  0  0  0  0  0  0  0  0  0  0  0
   69.7595   38.2469   59.2864 C   0  0  0  0  0  0  0  0  0  0  0  0
   71.0311   37.8415   58.9958 O   0  0  0  0  0  0  0  0  0  0  0  0
   71.6006   36.7179   58.5044 C   0  0  0  0  0  0  0  0  0  0  0  0
   71.4743   35.5031   59.1232 C   0  0  0  0  0  0  0  0  0  0  0  0
   72.0663   34.3443   58.6035 C   0  0  0  0  0  0  0  0  0  0  0  0
   72.7946   34.3893   57.4553 C   0  0  0  0  0  0  0  0  0  0  0  0
   72.9272   35.6057   56.8269 C   0  0  0  0  0  0  0  0  0  0  0  0
   73.6692   35.6218   55.6671 F   0  0  0  0  0  0  0  0  0  0  0  0
   72.3556   36.7456   57.3204 C   0  0  0  0  0  0  0  0  0  0  0  0
  1  2  2  0
  2  3  1  0
  2 10  1  0
  3  4  2  0
  3  7  1  0
  4  5  1  0
  5 18  1  0
  5  6  2  0
 18 19  1  0
 19 20  1  0
 20 21  2  0
 20 26  1  0
 21 22  1  0
 22 23  2  0
 23 24  1  0
 24 25  1  0
 24 26  2  0
  6  7  1  0
  7  8  1  0
  8  9  1  0
  9 10  1  0
 10 11  1  0
 11 12  2  0
 11 17  1  0
 12 13  1  0
 13 14  2  0
 14 15  1  0
 14 16  1  0
 16 17  2  0
M  END
>  <minimizedAffinity>  (703) 
-8.58146

$$$$
data/200k_reference_output/data/smiles/70086.pdb
     RDKit          3D

 29 31  0  0  0  0  0  0  0  0999 V2000
   69.1103   39.5992   59.0368 C   0  0  0  0  0  0  0  0  0  0  0  0
   68.7386   38.9887   57.9971 O   0  0  0  0  0  0  0  0  0  0  0  0
   70.5692   37.3214   60.0527 N   0  0  0  0  0  0  0  0  0  0  0  0
   69.1257   37.4395   60.1464 C   0  0  0  0  0  0  0  0  0  0  0  0
   68.9669   38.9301   60.3407 C   0  0  1  0  0  0  0  0  0  0  0  0
   70.0818   39.2723   61.2948 C   0  0  0  0  0  0  0  0  0  0  0  0
   71.0804   38.1652   61.0726 C   0  0  0  0  0  0  0  0  0  0  0  0
   72.1747   38.0217   61.6899 O   0  0  0  0  0  0  0  0  0  0  0  0
   73.5797   34.1403   56.3620 C   0  0  0  0  0  0  0  0  0  0  0  0
   72.8035   34.9978   57.3022 C   0  0  0  0  0  0  0  0  0  0  0  0
   72.2221   34.3908   58.3897 C   0  0  0  0  0  0  0  0  0  0  0  0
   71.5015   35.1719   59.2677 C   0  0  0  0  0  0  0  0  0  0  0  0
   71.3225   36.5288   59.1307 C   0  0  0  0  0  0  0  0  0  0  0  0
   71.9239   37.1211   58.0166 C   0  0  0  0  0  0  0  0  0  0  0  0
   72.6562   36.3537   57.1156 C   0  0  0  0  0  0  0  0  0  0  0  0
   69.6417   40.8822   58.9002 O   0  0  0  0  0  0  0  0  0  0  0  0
   68.9017   42.0418   58.7395 C   0  0  0  0  0  0  0  0  0  0  0  0
   69.1507   42.7877   57.4643 C   0  0  0  0  0  0  0  0  0  0  0  0
   70.3307   42.9089   57.0573 O   0  0  0  0  0  0  0  0  0  0  0  0
   68.1262   43.3585   56.6937 N   0  0  0  0  0  0  0  0  0  0  0  0
   68.1746   44.0671   55.5285 N   0  0  0  0  0  0  0  0  0  0  0  0
   68.2764   45.4364   55.2664 C   0  0  0  0  0  0  0  0  0  0  0  0
   68.3384   46.2119   56.2492 O   0  0  0  0  0  0  0  0  0  0  0  0
   68.3133   45.9945   53.8955 C   0  0  0  0  0  0  0  0  0  0  0  0
   69.1138   47.0834   53.6669 C   0  0  0  0  0  0  0  0  0  0  0  0
   69.1857   47.6503   52.3887 C   0  0  0  0  0  0  0  0  0  0  0  0
   68.4560   47.1246   51.3462 C   0  0  0  0  0  0  0  0  0  0  0  0
   67.6529   46.0326   51.5750 C   0  0  0  0  0  0  0  0  0  0  0  0
   67.5981   45.4885   52.8493 C   0  0  0  0  0  0  0  0  0  0  0  0
  9 10  1  0
 10 11  2  0
 10 15  1  0
 11 12  1  0
 12 13  2  0
 13  3  1  0
 13 14  1  0
  3  4  1  0
  3  7  1  0
  4  5  1  0
  5  1  1  6
  5  6  1  0
  1  2  2  0
  1 16  1  0
 16 17  1  0
 17 18  1  0
 18 19  2  0
 18 20  1  0
 20 21  1  0
 21 22  1  0
 22 23  2  0
 22 24  1  0
 24 25  2  0
 24 29  1  0
 25 26  1  0
 26 27  2  0
 27 28  1  0
 28 29  2  0
  6  7  1  0
  7  8  2  0
 14 15  2  0
M  END
>  <minimizedAffinity>  (704) 
-8.58143

$$$$
data/200k_reference_output/data/smiles/7685.pdb
     RDKit          3D

 27 29  0  0  0  0  0  0  0  0999 V2000
   73.5530   52.9420   55.2961 O   0  0  0  0  0  0  0  0  0  0  0  0
   72.9065   51.8393   55.1766 C   0  0  0  0  0  0  0  0  0  0  0  0
   73.6468   50.7082   55.5938 N   0  0  0  0  0  0  0  0  0  0  0  0
   74.9558   50.8158   56.0738 N   0  0  0  0  0  0  0  0  0  0  0  0
   76.0449   50.0676   55.5535 C   0  0  0  0  0  0  0  0  0  0  0  0
   75.7434   49.2774   54.6014 O   0  0  0  0  0  0  0  0  0  0  0  0
   77.4278   50.1599   56.0386 C   0  0  2  0  0  0  0  0  0  0  0  0
   78.3676   49.1938   55.3701 C   0  0  0  0  0  0  0  0  0  0  0  0
   79.7397   49.4167   55.9504 C   0  0  0  0  0  0  0  0  0  0  0  0
   79.7709   49.2921   57.4516 C   0  0  0  0  0  0  0  0  0  0  0  0
   78.8205   50.2952   58.0778 C   0  0  0  0  0  0  0  0  0  0  0  0
   77.4418   49.9870   57.5414 C   0  0  2  0  0  0  0  0  0  0  0  0
   76.9553   48.6571   57.9600 C   0  0  0  0  0  0  0  0  0  0  0  0
   77.6824   47.7090   58.3127 O   0  0  0  0  0  0  0  0  0  0  0  0
   75.5822   48.4529   57.9581 O   0  0  0  0  0  0  0  0  0  0  0  0
   71.5256   51.8304   54.6521 C   0  0  0  0  0  0  0  0  0  0  0  0
   71.2887   50.8267   53.7420 O   0  0  0  0  0  0  0  0  0  0  0  0
   70.4856   49.7289   53.8290 C   0  0  0  0  0  0  0  0  0  0  0  0
   70.0342   49.3305   55.0719 C   0  0  0  0  0  0  0  0  0  0  0  0
   69.2090   48.2126   55.1951 C   0  0  0  0  0  0  0  0  0  0  0  0
   68.8360   47.4943   54.0651 C   0  0  0  0  0  0  0  0  0  0  0  0
   68.0166   46.3842   54.1830 C   0  0  0  0  0  0  0  0  0  0  0  0
   67.6406   45.6617   53.0512 C   0  0  0  0  0  0  0  0  0  0  0  0
   68.0857   46.0501   51.8024 C   0  0  0  0  0  0  0  0  0  0  0  0
   68.9013   47.1587   51.7058 C   0  0  0  0  0  0  0  0  0  0  0  0
   69.2811   47.8843   52.8170 C   0  0  0  0  0  0  0  0  0  0  0  0
   70.0975   48.9977   52.7480 C   0  0  0  0  0  0  0  0  0  0  0  0
  1  2  2  0
  2 16  1  0
  2  3  1  0
 16 17  1  0
 17 18  1  0
 18 19  2  0
 18 27  1  0
 19 20  1  0
 20 21  2  0
 21 22  1  0
 21 26  1  0
 22 23  2  0
 23 24  1  0
 24 25  2  0
 25 26  1  0
 26 27  2  0
  3  4  1  0
  4  5  1  0
  5  6  2  0
  7  5  1  6
  7  8  1  0
  7 12  1  0
  8  9  1  0
  9 10  1  0
 10 11  1  0
 11 12  1  0
 12 13  1  6
 13 14  2  0
 13 15  1  0
M  END
>  <minimizedAffinity>  (705) 
-8.58118

$$$$
data/reference_output_2/data/smiles/158558.pdb
     RDKit          3D

 25 27  0  0  0  0  0  0  0  0999 V2000
   68.9153   42.8889   57.2988 C   0  0  0  0  0  0  0  0  0  0  0  0
   69.2564   44.1333   56.9099 N   0  0  0  0  0  0  0  0  0  0  0  0
   68.5456   44.5457   55.8761 N   0  0  0  0  0  0  0  0  0  0  0  0
   67.7235   43.5581   55.5788 N   0  0  0  0  0  0  0  0  0  0  0  0
   67.9050   42.5226   56.4137 C   0  0  0  0  0  0  0  0  0  0  0  0
   68.6598   45.8209   55.2226 C   0  0  0  0  0  0  0  0  0  0  0  0
   69.1270   46.9281   55.8961 C   0  0  0  0  0  0  0  0  0  0  0  0
   69.2465   48.1736   55.2787 C   0  0  0  0  0  0  0  0  0  0  0  0
   68.8909   48.3206   53.9547 C   0  0  0  0  0  0  0  0  0  0  0  0
   69.0547   49.9080   53.2047 Cl  0  0  0  0  0  0  0  0  0  0  0  0
   68.4215   47.2213   53.2648 C   0  0  0  0  0  0  0  0  0  0  0  0
   68.3087   45.9797   53.9008 C   0  0  0  0  0  0  0  0  0  0  0  0
   70.8406   41.7758   58.4105 N   0  0  0  0  0  0  0  0  0  0  0  0
   69.4699   42.0985   58.3917 C   0  0  0  0  0  0  0  0  0  0  0  0
   68.7200   41.7139   59.3050 O   0  0  0  0  0  0  0  0  0  0  0  0
   71.5026   41.0000   59.4410 C   0  0  0  0  0  0  0  0  0  0  0  0
   72.7833   35.6136   57.7460 C   0  0  0  0  0  0  0  0  0  0  0  0
   72.4662   36.9976   58.1911 C   0  0  0  0  0  0  0  0  0  0  0  0
   73.3785   37.7701   58.8765 C   0  0  0  0  0  0  0  0  0  0  0  0
   73.0299   39.0454   59.2635 C   0  0  0  0  0  0  0  0  0  0  0  0
   71.7862   39.6095   58.9954 C   0  0  0  0  0  0  0  0  0  0  0  0
   70.8802   38.8406   58.3137 C   0  0  0  0  0  0  0  0  0  0  0  0
   71.2357   37.5659   57.9304 C   0  0  0  0  0  0  0  0  0  0  0  0
   67.1928   41.2141   56.4356 C   0  0  0  0  0  0  0  0  0  0  0  0
   67.6507   40.4225   55.3823 O   0  0  0  0  0  0  0  0  0  0  0  0
 17 18  1  0
 18 19  2  0
 18 23  1  0
 19 20  1  0
 20 21  2  0
 21 16  1  0
 21 22  1  0
 16 13  1  0
 13 14  1  0
 14 15  2  0
 14  1  1  0
  1  2  2  0
  1  5  1  0
  2  3  1  0
  3  6  1  0
  3  4  1  0
  6  7  2  0
  6 12  1  0
  7  8  1  0
  8  9  2  0
  9 10  1  0
  9 11  1  0
 11 12  2  0
  4  5  2  0
  5 24  1  0
 24 25  1  0
 22 23  2  0
M  END
>  <minimizedAffinity>  (706) 
-8.58099

$$$$
data/reference_output_2/data/smiles/161968.pdb
     RDKit          3D

 27 30  0  0  0  0  0  0  0  0999 V2000
   71.1942   47.3822   58.6377 C   0  0  0  0  0  0  0  0  0  0  0  0
   71.0946   45.9966   58.5361 C   0  0  0  0  0  0  0  0  0  0  0  0
   70.2426   45.3570   57.6760 C   0  0  0  0  0  0  0  0  0  0  0  0
   69.4463   46.1886   56.8720 C   0  0  0  0  0  0  0  0  0  0  0  0
   69.4942   47.5214   56.9213 N   0  0  0  0  0  0  0  0  0  0  0  0
   70.3724   48.0987   57.8071 C   0  0  0  0  0  0  0  0  0  0  0  0
   70.4052   49.3387   57.8372 O   0  0  0  0  0  0  0  0  0  0  0  0
   74.1535   49.2758   60.3122 C   0  0  0  0  0  0  0  0  0  0  0  0
   73.2588   48.7301   59.2989 N   0  0  0  0  0  0  0  0  0  0  0  0
   72.1303   47.9591   59.5817 C   0  0  0  0  0  0  0  0  0  0  0  0
   71.9198   47.7526   60.8301 O   0  0  0  0  0  0  0  0  0  0  0  0
   70.1323   43.9122   57.5641 C   0  0  0  0  0  0  0  0  0  0  0  0
   71.1782   43.2098   57.5745 O   0  0  0  0  0  0  0  0  0  0  0  0
   68.8935   43.2395   57.4421 N   0  0  0  0  0  0  0  0  0  0  0  0
   68.7998   41.7881   57.3306 C   0  0  0  0  0  0  0  0  0  0  0  0
   67.7927   41.1643   56.4378 C   0  0  0  0  0  0  0  0  0  0  0  0
   67.6865   41.0505   57.9598 C   0  0  0  0  0  0  0  0  0  0  0  0
   68.6739   48.3510   56.0721 C   0  0  0  0  0  0  0  0  0  0  0  0
   69.1410   48.2535   54.6761 C   0  0  0  0  0  0  0  0  0  0  0  0
   70.1096   49.1567   54.2131 C   0  0  0  0  0  0  0  0  0  0  0  0
   70.5295   49.1131   52.9142 C   0  0  0  0  0  0  0  0  0  0  0  0
   70.0578   48.2173   51.9932 C   0  0  0  0  0  0  0  0  0  0  0  0
   69.1054   47.3214   52.4391 C   0  0  0  0  0  0  0  0  0  0  0  0
   68.4834   46.3288   51.7890 N   0  0  0  0  0  0  0  0  0  0  0  0
   67.6555   45.6967   52.6100 C   0  0  0  0  0  0  0  0  0  0  0  0
   67.7540   46.3199   53.8519 C   0  0  0  0  0  0  0  0  0  0  0  0
   68.6592   47.3430   53.7542 C   0  0  0  0  0  0  0  0  0  0  0  0
  8  9  1  0
  9 10  1  0
 10 11  2  0
 10  1  1  0
  1  2  2  0
  1  6  1  0
  2  3  1  0
  3 12  1  0
  3  4  2  0
 12 13  2  0
 12 14  1  0
 14 15  1  0
 15 16  1  0
 15 17  1  0
 16 17  1  0
  4  5  1  0
  5 18  1  0
  5  6  1  0
 18 19  1  0
 19 20  2  0
 19 27  1  0
 20 21  1  0
 21 22  2  0
 22 23  1  0
 23 24  1  0
 23 27  2  0
 24 25  1  0
 25 26  2  0
 26 27  1  0
  6  7  2  0
M  END
>  <minimizedAffinity>  (707) 
-8.58085

$$$$
data/reference_output_2/data/smiles/117719.pdb
     RDKit          3D

 27 30  0  0  0  0  0  0  0  0999 V2000
   71.7406   50.6989   56.9690 O   0  0  0  0  0  0  0  0  0  0  0  0
   71.0553   49.7248   56.6273 C   0  0  0  0  0  0  0  0  0  0  0  0
   71.2549   48.5308   57.4125 N   0  0  0  0  0  0  0  0  0  0  0  0
   70.5031   47.3478   57.0890 C   0  0  0  0  0  0  0  0  0  0  0  0
   70.3392   46.5045   58.3263 C   0  0  0  0  0  0  0  0  0  0  0  0
   71.6441   46.0816   58.9189 C   0  0  0  0  0  0  0  0  0  0  0  0
   71.4647   45.9687   60.2977 O   0  0  0  0  0  0  0  0  0  0  0  0
   72.7259   47.1238   58.7029 C   0  0  0  0  0  0  0  0  0  0  0  0
   72.1732   48.4961   58.5044 C   0  0  0  0  0  0  0  0  0  0  0  0
   72.1522   44.7762   58.4404 C   0  0  0  0  0  0  0  0  0  0  0  0
   73.4575   44.5002   58.1378 C   0  0  0  0  0  0  0  0  0  0  0  0
   73.8856   43.2762   57.6881 C   0  0  0  0  0  0  0  0  0  0  0  0
   72.9827   42.2446   57.5201 C   0  0  0  0  0  0  0  0  0  0  0  0
   71.6629   42.4967   57.8179 C   0  0  0  0  0  0  0  0  0  0  0  0
   70.7815   41.4736   57.6500 F   0  0  0  0  0  0  0  0  0  0  0  0
   71.2452   43.7311   58.2685 C   0  0  0  0  0  0  0  0  0  0  0  0
   70.1204   49.7678   55.5240 C   0  0  0  0  0  0  0  0  0  0  0  0
   70.5883   49.9459   54.1450 C   0  0  0  0  0  0  0  0  0  0  0  0
   70.2331   48.9906   53.1587 N   0  0  0  0  0  0  0  0  0  0  0  0
   70.6987   48.9494   51.9120 N   0  0  0  0  0  0  0  0  0  0  0  0
   70.1595   47.9706   51.2302 N   0  0  0  0  0  0  0  0  0  0  0  0
   69.3023   47.3167   52.0172 C   0  0  0  0  0  0  0  0  0  0  0  0
   68.4924   46.2255   51.8274 C   0  0  0  0  0  0  0  0  0  0  0  0
   67.7019   45.7279   52.8279 C   0  0  0  0  0  0  0  0  0  0  0  0
   67.7373   46.3510   54.0380 C   0  0  0  0  0  0  0  0  0  0  0  0
   68.5459   47.4441   54.2311 C   0  0  0  0  0  0  0  0  0  0  0  0
   69.3596   47.9775   53.2450 C   0  0  0  0  0  0  0  0  0  0  0  0
  1  2  2  0
  2 17  1  0
  2  3  1  0
 17 18  1  0
 18 19  1  0
 19 20  1  0
 19 27  1  0
 20 21  2  0
 21 22  1  0
 22 23  1  0
 22 27  2  0
 23 24  2  0
 24 25  1  0
 25 26  2  0
 26 27  1  0
  3  4  1  0
  3  9  1  0
  4  5  1  0
  5  6  1  0
  6  7  1  0
  6 10  1  0
  6  8  1  0
 10 11  2  0
 10 16  1  0
 11 12  1  0
 12 13  2  0
 13 14  1  0
 14 15  1  0
 14 16  2  0
  8  9  1  0
M  END
>  <minimizedAffinity>  (708) 
-8.58068

$$$$
data/200k_reference_output/data/smiles/84581.pdb
     RDKit          3D

 29 33  0  0  0  0  0  0  0  0999 V2000
   73.1086   50.0872   56.6529 C   0  0  0  0  0  0  0  0  0  0  0  0
   73.7049   49.1830   57.5040 C   0  0  0  0  0  0  0  0  0  0  0  0
   72.9291   48.2273   58.1289 C   0  0  0  0  0  0  0  0  0  0  0  0
   71.5536   48.1217   57.9466 C   0  0  0  0  0  0  0  0  0  0  0  0
   70.9580   49.0183   57.1019 C   0  0  0  0  0  0  0  0  0  0  0  0
   71.7455   49.9802   56.4738 C   0  0  0  0  0  0  0  0  0  0  0  0
   73.3384   53.3873   56.4320 C   0  0  1  0  0  0  0  0  0  0  0  0
   73.9266   52.2360   56.7402 O   0  0  0  0  0  0  0  0  0  0  0  0
   73.8989   51.1524   55.9368 C   0  0  2  0  0  0  0  0  0  0  0  0
   73.3736   51.3847   54.5466 C   0  0  2  0  0  0  0  0  0  0  0  0
   73.9007   50.5200   53.6196 O   0  0  0  0  0  0  0  0  0  0  0  0
   73.8568   52.7918   54.1539 C   0  0  1  0  0  0  0  0  0  0  0  0
   73.6585   53.0500   52.8225 O   0  0  0  0  0  0  0  0  0  0  0  0
   73.0226   53.7129   55.0209 C   0  0  2  0  0  0  0  0  0  0  0  0
   73.2741   55.0518   54.7338 O   0  0  0  0  0  0  0  0  0  0  0  0
   72.1229   52.8134   58.4363 O   0  0  0  0  0  0  0  0  0  0  0  0
   72.0116   53.4673   57.2075 C   0  0  0  0  0  0  0  0  0  0  0  0
   70.7904   47.0481   58.6693 C   0  0  0  0  0  0  0  0  0  0  0  0
   70.8396   45.6636   58.0160 C   0  0  0  0  0  0  0  0  0  0  0  0
   71.6200   45.9020   59.2295 C   0  0  0  0  0  0  0  0  0  0  0  0
   69.5106   49.0305   56.8115 C   0  0  0  0  0  0  0  0  0  0  0  0
   69.1332   48.2129   55.6358 C   0  0  0  0  0  0  0  0  0  0  0  0
   68.3288   47.1274   55.7354 C   0  0  0  0  0  0  0  0  0  0  0  0
   67.9937   46.3903   54.6253 C   0  0  0  0  0  0  0  0  0  0  0  0
   68.4882   46.7627   53.3767 C   0  0  0  0  0  0  0  0  0  0  0  0
   69.3078   47.8701   53.2867 C   0  0  0  0  0  0  0  0  0  0  0  0
   69.6338   48.5931   54.3857 C   0  0  0  0  0  0  0  0  0  0  0  0
   69.4276   47.6708   51.8091 C   0  0  0  0  0  0  0  0  0  0  0  0
   68.5289   46.4583   51.9189 C   0  0  0  0  0  0  0  0  0  0  0  0
 16 17  1  0
  7 17  1  1
  7  8  1  0
  7 14  1  0
  8  9  1  0
  9  1  1  1
  9 10  1  0
  1  2  2  0
  1  6  1  0
  2  3  1  0
  3  4  2  0
  4 18  1  0
  4  5  1  0
 18 19  1  0
 18 20  1  0
 19 20  1  0
  5 21  1  0
  5  6  2  0
 21 22  1  0
 22 23  2  0
 22 27  1  0
 23 24  1  0
 24 25  2  0
 25 26  1  0
 25 29  1  0
 26 27  2  0
 26 28  1  0
 28 29  1  0
 10 11  1  6
 10 12  1  0
 12 13  1  6
 12 14  1  0
 14 15  1  6
M  END
>  <minimizedAffinity>  (709) 
-8.57978

$$$$
data/reference_output_2/data/smiles/98591.pdb
     RDKit          3D

 29 32  0  0  0  0  0  0  0  0999 V2000
   72.2643   51.8594   54.8892 C   0  0  0  0  0  0  0  0  0  0  0  0
   72.4191   52.3099   53.6907 O   0  0  0  0  0  0  0  0  0  0  0  0
   70.9505   51.8390   55.3640 N   0  0  0  0  0  0  0  0  0  0  0  0
   70.5075   51.3846   56.6611 C   0  0  0  0  0  0  0  0  0  0  0  0
   69.2961   50.4968   56.5197 C   0  0  0  0  0  0  0  0  0  0  0  0
   69.0257   50.0166   55.1437 C   0  0  0  0  0  0  0  0  0  0  0  0
   69.0693   51.0963   54.0937 C   0  0  0  0  0  0  0  0  0  0  0  0
   69.8235   52.3120   54.5251 C   0  0  0  0  0  0  0  0  0  0  0  0
   74.0732   50.1686   55.3293 N   0  0  0  0  0  0  0  0  0  0  0  0
   73.4600   51.4333   55.5934 C   0  0  0  0  0  0  0  0  0  0  0  0
   74.0333   52.1260   56.4673 O   0  0  0  0  0  0  0  0  0  0  0  0
   81.0698   49.0983   57.2710 O   0  0  0  0  0  0  0  0  0  0  0  0
   79.8128   49.1842   57.0730 C   0  0  0  0  0  0  0  0  0  0  0  0
   79.1193   49.9160   55.9908 C   0  0  0  0  0  0  0  0  0  0  0  0
   77.6767   49.6727   56.2499 C   0  0  0  0  0  0  0  0  0  0  0  0
   76.5106   50.0789   55.6021 C   0  0  0  0  0  0  0  0  0  0  0  0
   75.2450   49.7381   56.0106 C   0  0  0  0  0  0  0  0  0  0  0  0
   75.1275   48.9411   57.1371 C   0  0  0  0  0  0  0  0  0  0  0  0
   76.2545   48.5182   57.8060 C   0  0  0  0  0  0  0  0  0  0  0  0
   77.5156   48.8804   57.3666 C   0  0  0  0  0  0  0  0  0  0  0  0
   78.8073   48.5797   57.8705 N   0  0  0  0  0  0  0  0  0  0  0  0
   69.8937   48.8833   54.6830 C   0  0  0  0  0  0  0  0  0  0  0  0
   69.2002   47.8510   53.9361 C   0  0  0  0  0  0  0  0  0  0  0  0
   68.4358   46.9154   54.5876 C   0  0  0  0  0  0  0  0  0  0  0  0
   67.7687   45.9225   53.8582 C   0  0  0  0  0  0  0  0  0  0  0  0
   67.8735   45.8750   52.4925 C   0  0  0  0  0  0  0  0  0  0  0  0
   67.1995   44.8797   51.8238 F   0  0  0  0  0  0  0  0  0  0  0  0
   68.6366   46.8070   51.8309 C   0  0  0  0  0  0  0  0  0  0  0  0
   69.2915   47.7856   52.5689 C   0  0  0  0  0  0  0  0  0  0  0  0
 12 13  2  0
 13 14  1  0
 13 21  1  0
 14 15  1  0
 15 16  2  0
 15 20  1  0
 16 17  1  0
 17  9  1  0
 17 18  2  0
  9 10  1  0
 10 11  2  0
 10  1  1  0
  1  2  2  0
  1  3  1  0
  3  4  1  0
  3  8  1  0
  4  5  1  0
  5  6  1  0
  6 22  1  0
  6  7  1  0
 22 23  1  0
 23 24  2  0
 23 29  1  0
 24 25  1  0
 25 26  2  0
 26 27  1  0
 26 28  1  0
 28 29  2  0
  7  8  1  0
 18 19  1  0
 19 20  2  0
 20 21  1  0
M  END
>  <minimizedAffinity>  (710) 
-8.57975

$$$$
data/reference_output_2/data/smiles/127932.pdb
     RDKit          3D

 29 31  0  0  0  0  0  0  0  0999 V2000
   71.5854   48.1802   57.9418 C   0  0  0  0  0  0  0  0  0  0  0  0
   72.7273   48.8753   57.4875 O   0  0  0  0  0  0  0  0  0  0  0  0
   70.4801   48.7869   57.3841 N   0  0  0  0  0  0  0  0  0  0  0  0
   69.0598   48.7401   57.5802 C   0  0  0  0  0  0  0  0  0  0  0  0
   68.3098   48.2733   56.3414 C   0  0  0  0  0  0  0  0  0  0  0  0
   69.3911   47.9808   55.3169 C   0  0  0  0  0  0  0  0  0  0  0  0
   70.0633   49.2977   55.0250 C   0  0  0  0  0  0  0  0  0  0  0  0
   70.7922   49.7665   56.2465 C   0  0  0  0  0  0  0  0  0  0  0  0
   68.8518   47.3406   54.1063 C   0  0  0  0  0  0  0  0  0  0  0  0
   69.1414   47.7743   52.8274 C   0  0  0  0  0  0  0  0  0  0  0  0
   68.5966   47.1212   51.7447 C   0  0  0  0  0  0  0  0  0  0  0  0
   67.7602   46.0317   51.9165 C   0  0  0  0  0  0  0  0  0  0  0  0
   67.2324   45.3986   50.8468 F   0  0  0  0  0  0  0  0  0  0  0  0
   67.4598   45.5831   53.1807 C   0  0  0  0  0  0  0  0  0  0  0  0
   68.0168   46.2537   54.2469 C   0  0  0  0  0  0  0  0  0  0  0  0
   71.8875   46.0013   59.0615 C   0  0  0  0  0  0  0  0  0  0  0  0
   72.1184   47.2010   58.7609 C   0  0  0  0  0  0  0  0  0  0  0  0
   71.0991   44.0140   57.7321 N   0  0  0  0  0  0  0  0  0  0  0  0
   70.9392   45.0428   58.6534 C   0  0  0  0  0  0  0  0  0  0  0  0
   69.7729   45.1433   59.1908 O   0  0  0  0  0  0  0  0  0  0  0  0
   68.7424   41.1418   57.5998 C   0  0  0  0  0  0  0  0  0  0  0  0
   67.7751   41.6079   56.7199 C   0  0  0  0  0  0  0  0  0  0  0  0
   67.9055   42.8491   56.1841 C   0  0  0  0  0  0  0  0  0  0  0  0
   69.0072   43.6283   56.5289 C   0  0  0  0  0  0  0  0  0  0  0  0
   69.9682   43.1771   57.3976 C   0  0  0  0  0  0  0  0  0  0  0  0
   69.8482   41.9236   57.9461 C   0  0  0  0  0  0  0  0  0  0  0  0
   67.8008   38.8589   57.5101 N   0  0  0  0  0  0  0  0  0  0  0  0
   68.5957   39.8190   58.1660 C   0  0  0  0  0  0  0  0  0  0  0  0
   69.1665   39.5090   59.2386 O   0  0  0  0  0  0  0  0  0  0  0  0
 27 28  1  0
 28 29  2  0
 28 21  1  0
 21 22  2  0
 21 26  1  0
 22 23  1  0
 23 24  2  0
 24 25  1  0
 25 18  1  0
 25 26  2  0
 18 19  1  0
 19 20  2  0
 19 16  1  0
 16 17  2  0
 17  1  1  0
  1  2  2  0
  1  3  1  0
  3  4  1  0
  3  8  1  0
  4  5  1  0
  5  6  1  0
  6  9  1  0
  6  7  1  0
  9 10  2  0
  9 15  1  0
 10 11  1  0
 11 12  2  0
 12 13  1  0
 12 14  1  0
 14 15  2  0
  7  8  1  0
M  END
>  <minimizedAffinity>  (711) 
-8.57913

$$$$
data/200k_reference_output/data/smiles/42519.pdb
     RDKit          3D

 26 29  0  0  0  0  0  0  0  0999 V2000
   71.1625   45.9065   58.4051 C   0  0  0  0  0  0  0  0  0  0  0  0
   70.2640   46.4188   57.5026 C   0  0  0  0  0  0  0  0  0  0  0  0
   70.0526   47.7698   57.4472 C   0  0  0  0  0  0  0  0  0  0  0  0
   70.7335   48.5936   58.2846 C   0  0  0  0  0  0  0  0  0  0  0  0
   71.6382   48.1027   59.1960 C   0  0  0  0  0  0  0  0  0  0  0  0
   71.8645   46.7298   59.2644 C   0  0  0  0  0  0  0  0  0  0  0  0
   72.7579   46.2541   60.1658 F   0  0  0  0  0  0  0  0  0  0  0  0
   69.4054   44.1167   59.6904 O   0  0  0  0  0  0  0  0  0  0  0  0
   70.5570   43.7484   59.3520 C   0  0  0  0  0  0  0  0  0  0  0  0
   71.0715   42.5015   59.8666 N   0  0  0  0  0  0  0  0  0  0  0  0
   72.4662   42.2357   59.4812 C   0  0  0  0  0  0  0  0  0  0  0  0
   72.4853   42.4209   57.9587 C   0  0  0  0  0  0  0  0  0  0  0  0
   72.4569   43.8952   57.6888 C   0  0  0  0  0  0  0  0  0  0  0  0
   71.3984   44.4975   58.4802 N   0  0  0  0  0  0  0  0  0  0  0  0
   69.0848   48.3121   56.4977 C   0  0  0  0  0  0  0  0  0  0  0  0
   69.4530   48.3357   55.0950 C   0  0  0  0  0  0  0  0  0  0  0  0
   70.3929   49.2559   54.7276 N   0  0  0  0  0  0  0  0  0  0  0  0
   70.8219   49.4097   53.5083 N   0  0  0  0  0  0  0  0  0  0  0  0
   70.3238   48.6268   52.5404 C   0  0  0  0  0  0  0  0  0  0  0  0
   70.7236   48.7587   51.3617 O   0  0  0  0  0  0  0  0  0  0  0  0
   69.3472   47.6528   52.8522 C   0  0  0  0  0  0  0  0  0  0  0  0
   68.9126   47.5070   54.1282 C   0  0  0  0  0  0  0  0  0  0  0  0
   67.9167   46.5300   54.5375 C   0  0  0  0  0  0  0  0  0  0  0  0
   67.8608   45.4292   53.4946 C   0  0  0  0  0  0  0  0  0  0  0  0
   67.6796   46.0445   52.1079 C   0  0  0  0  0  0  0  0  0  0  0  0
   68.8692   46.8420   51.7209 C   0  0  0  0  0  0  0  0  0  0  0  0
  8  9  2  0
  9 10  1  0
  9 14  1  0
 10 11  1  0
 11 12  1  0
 12 13  1  0
 13 14  1  0
 14  1  1  0
  1  2  2  0
  1  6  1  0
  2  3  1  0
  3 15  1  0
  3  4  2  0
 15 16  1  0
 16 17  2  0
 16 22  1  0
 17 18  1  0
 18 19  1  0
 19 20  2  0
 19 21  1  0
 21 22  2  0
 21 26  1  0
 22 23  1  0
 23 24  1  0
 24 25  1  0
 25 26  1  0
  4  5  1  0
  5  6  2  0
  6  7  1  0
M  END
>  <minimizedAffinity>  (712) 
-8.57852

$$$$
data/reference_output_2/data/smiles/103719.pdb
     RDKit          3D

 27 29  0  0  0  0  0  0  0  0999 V2000
   69.2487   43.7289   56.8587 N   0  0  0  0  0  0  0  0  0  0  0  0
   68.8082   42.5298   56.9918 C   0  0  0  0  0  0  0  0  0  0  0  0
   67.5353   42.0663   56.5145 C   0  0  0  0  0  0  0  0  0  0  0  0
   66.6773   42.7612   55.9028 O   0  0  0  0  0  0  0  0  0  0  0  0
   67.4550   40.6856   56.8724 N   0  0  0  0  0  0  0  0  0  0  0  0
   68.6349   40.2786   57.5555 C   0  0  0  0  0  0  0  0  0  0  0  0
   69.0623   39.0724   58.1063 C   0  0  0  0  0  0  0  0  0  0  0  0
   70.2878   38.9643   58.7263 C   0  0  0  0  0  0  0  0  0  0  0  0
   71.1315   40.0527   58.8180 C   0  0  0  0  0  0  0  0  0  0  0  0
   70.6844   41.2453   58.2609 C   0  0  0  0  0  0  0  0  0  0  0  0
   71.7081   42.6645   58.3455 Cl  0  0  0  0  0  0  0  0  0  0  0  0
   69.4624   41.3789   57.6363 C   0  0  0  0  0  0  0  0  0  0  0  0
   69.0222   46.0871   56.3937 C   0  0  0  0  0  0  0  0  0  0  0  0
   70.0437   46.3263   57.0913 O   0  0  0  0  0  0  0  0  0  0  0  0
   68.5455   44.7566   56.2263 N   0  0  0  0  0  0  0  0  0  0  0  0
   68.4093   48.4866   56.5883 C   0  0  0  0  0  0  0  0  0  0  0  0
   68.3230   47.2494   55.7472 C   0  0  1  0  0  0  0  0  0  0  0  0
   68.8878   47.5368   54.4185 C   0  0  0  0  0  0  0  0  0  0  0  0
   68.6724   46.7601   53.3099 C   0  0  0  0  0  0  0  0  0  0  0  0
   69.2464   47.1133   52.1082 C   0  0  0  0  0  0  0  0  0  0  0  0
   70.0433   48.2251   51.9422 C   0  0  0  0  0  0  0  0  0  0  0  0
   70.6011   48.5584   50.7501 F   0  0  0  0  0  0  0  0  0  0  0  0
   70.2574   49.0072   53.0701 C   0  0  0  0  0  0  0  0  0  0  0  0
   69.6900   48.6647   54.2746 C   0  0  0  0  0  0  0  0  0  0  0  0
   72.4314   39.9707   59.4657 C   0  0  0  0  0  0  0  0  0  0  0  0
   73.3533   39.3068   58.9509 O   0  0  0  0  0  0  0  0  0  0  0  0
   72.6883   40.6171   60.6587 O   0  0  0  0  0  0  0  0  0  0  0  0
 17 16  1  1
 17 13  1  0
 17 18  1  0
 13 14  2  0
 13 15  1  0
 15  1  1  0
  1  2  2  0
  2  3  1  0
  2 12  1  0
  3  4  2  0
  3  5  1  0
  5  6  1  0
  6  7  1  0
  6 12  2  0
  7  8  2  0
  8  9  1  0
  9 25  1  0
  9 10  2  0
 25 26  2  0
 25 27  1  0
 10 11  1  0
 10 12  1  0
 18 19  2  0
 18 24  1  0
 19 20  1  0
 20 21  2  0
 21 22  1  0
 21 23  1  0
 23 24  2  0
M  END
>  <minimizedAffinity>  (713) 
-8.57827

$$$$
data/reference_output_2/data/smiles/118125.pdb
     RDKit          3D

 26 28  0  0  0  0  0  0  0  0999 V2000
   71.1929   51.0898   55.8589 C   0  0  2  0  0  0  0  0  0  0  0  0
   71.1423   52.3199   56.6969 C   0  0  0  0  0  0  0  0  0  0  0  0
   70.1639   53.3501   56.2656 C   0  0  0  0  0  0  0  0  0  0  0  0
   68.8253   52.6587   56.1018 C   0  0  0  0  0  0  0  0  0  0  0  0
   68.9809   51.6616   55.0106 C   0  0  0  0  0  0  0  0  0  0  0  0
   70.0375   50.7369   55.1345 N   0  0  0  0  0  0  0  0  0  0  0  0
   72.8196   49.4413   56.2368 O   0  0  0  0  0  0  0  0  0  0  0  0
   71.7622   49.9637   56.6710 C   0  0  0  0  0  0  0  0  0  0  0  0
   71.1852   49.4890   57.8472 N   0  0  0  0  0  0  0  0  0  0  0  0
   71.7152   48.4058   58.6406 C   0  0  0  0  0  0  0  0  0  0  0  0
   71.1698   47.0779   58.2621 C   0  0  0  0  0  0  0  0  0  0  0  0
   71.8450   45.9075   58.4710 C   0  0  0  0  0  0  0  0  0  0  0  0
   71.3396   44.6608   58.1096 C   0  0  0  0  0  0  0  0  0  0  0  0
   70.0983   44.6309   57.5159 C   0  0  0  0  0  0  0  0  0  0  0  0
   69.4178   45.7707   57.3020 N   0  0  0  0  0  0  0  0  0  0  0  0
   69.9122   46.9663   57.6535 C   0  0  0  0  0  0  0  0  0  0  0  0
   70.4476   50.0044   53.6042 S   0  0  0  0  0  0  0  0  0  0  0  0
   71.9082   49.7111   53.5261 O   0  0  0  0  0  0  0  0  0  0  0  0
   70.0864   50.8904   52.4622 O   0  0  0  0  0  0  0  0  0  0  0  0
   69.5526   48.4996   53.3901 C   0  0  0  0  0  0  0  0  0  0  0  0
   69.5156   47.8494   52.1731 C   0  0  0  0  0  0  0  0  0  0  0  0
   68.8103   46.6761   52.0142 C   0  0  0  0  0  0  0  0  0  0  0  0
   68.1176   46.1010   53.0493 C   0  0  0  0  0  0  0  0  0  0  0  0
   67.4169   44.9454   52.9137 F   0  0  0  0  0  0  0  0  0  0  0  0
   68.1559   46.7525   54.2630 C   0  0  0  0  0  0  0  0  0  0  0  0
   68.8577   47.9269   54.4341 C   0  0  0  0  0  0  0  0  0  0  0  0
  7  8  2  0
  8  9  1  0
  1  8  1  1
  9 10  1  0
 10 11  1  0
 11 12  2  0
 11 16  1  0
 12 13  1  0
 13 14  2  0
 14 15  1  0
 15 16  2  0
  1  2  1  0
  1  6  1  0
  2  3  1  0
  3  4  1  0
  4  5  1  0
  5  6  1  0
  6 17  1  0
 17 18  2  0
 17 19  2  0
 17 20  1  0
 20 21  2  0
 20 26  1  0
 21 22  1  0
 22 23  2  0
 23 24  1  0
 23 25  1  0
 25 26  2  0
M  END
>  <minimizedAffinity>  (714) 
-8.57815

$$$$
data/200k_reference_output/data/smiles/11332.pdb
     RDKit          3D

 26 28  0  0  0  0  0  0  0  0999 V2000
   69.9158   45.1130   58.8386 O   0  0  0  0  0  0  0  0  0  0  0  0
   70.2132   44.3386   57.8643 C   0  0  0  0  0  0  0  0  0  0  0  0
   69.4776   44.4181   56.6656 N   0  0  0  0  0  0  0  0  0  0  0  0
   71.3052   43.4065   58.0465 C   0  0  0  0  0  0  0  0  0  0  0  0
   72.6194   43.7839   58.0626 C   0  0  0  0  0  0  0  0  0  0  0  0
   73.6309   42.8562   58.2398 C   0  0  0  0  0  0  0  0  0  0  0  0
   73.3198   41.5406   58.4014 C   0  0  0  0  0  0  0  0  0  0  0  0
   72.0188   41.1200   58.3910 C   0  0  0  0  0  0  0  0  0  0  0  0
   71.0370   42.0463   58.2160 C   0  0  0  0  0  0  0  0  0  0  0  0
   71.6299   39.7363   58.5570 C   0  0  0  0  0  0  0  0  0  0  0  0
   72.5949   38.7782   58.7449 C   0  0  0  0  0  0  0  0  0  0  0  0
   72.2087   37.4458   58.9050 C   0  0  0  0  0  0  0  0  0  0  0  0
   70.9102   37.1740   58.8661 N   0  0  0  0  0  0  0  0  0  0  0  0
   69.9705   38.0705   58.6871 N   0  0  0  0  0  0  0  0  0  0  0  0
   70.3148   39.3750   58.5291 C   0  0  0  0  0  0  0  0  0  0  0  0
   68.4536   45.2900   56.5165 N   0  0  0  0  0  0  0  0  0  0  0  0
   68.7026   46.8462   55.9895 S   0  0  0  0  0  0  0  0  0  0  0  0
   69.8608   47.5402   56.7176 O   0  0  0  0  0  0  0  0  0  0  0  0
   67.4827   47.6750   56.4374 O   0  0  0  0  0  0  0  0  0  0  0  0
   68.8232   47.0708   54.2925 C   0  0  0  0  0  0  0  0  0  0  0  0
   69.4426   48.0949   53.6359 C   0  0  0  0  0  0  0  0  0  0  0  0
   69.4831   48.1718   52.2372 C   0  0  0  0  0  0  0  0  0  0  0  0
   68.8858   47.1949   51.4842 C   0  0  0  0  0  0  0  0  0  0  0  0
   68.2606   46.1627   52.1106 C   0  0  0  0  0  0  0  0  0  0  0  0
   68.2251   46.0932   53.4782 C   0  0  0  0  0  0  0  0  0  0  0  0
   67.5795   45.0269   54.0433 F   0  0  0  0  0  0  0  0  0  0  0  0
  1  2  2  0
  2  3  1  0
  2  4  1  0
  3 16  1  0
 16 17  1  0
 17 18  2  0
 17 19  2  0
 17 20  1  0
 20 21  2  0
 20 25  1  0
 21 22  1  0
 22 23  2  0
 23 24  1  0
 24 25  2  0
 25 26  1  0
  4  5  2  0
  4  9  1  0
  5  6  1  0
  6  7  2  0
  7  8  1  0
  8 10  1  0
  8  9  2  0
 10 11  2  0
 10 15  1  0
 11 12  1  0
 12 13  2  0
 13 14  1  0
 14 15  2  0
M  END
>  <minimizedAffinity>  (715) 
-8.57761

$$$$
data/200k_reference_output/data/smiles/11175.pdb
     RDKit          3D

 29 32  0  0  0  0  0  0  0  0999 V2000
   68.7087   47.1938   53.9602 C   0  0  0  0  0  0  0  0  0  0  0  0
   68.9001   46.7134   52.6791 C   0  0  0  0  0  0  0  0  0  0  0  0
   69.6274   47.4418   51.7687 C   0  0  0  0  0  0  0  0  0  0  0  0
   70.1786   48.6754   52.1374 C   0  0  0  0  0  0  0  0  0  0  0  0
   70.0045   49.1757   53.4010 C   0  0  0  0  0  0  0  0  0  0  0  0
   69.2563   48.3972   54.2905 C   0  0  0  0  0  0  0  0  0  0  0  0
   70.5796   50.4781   53.8216 C   0  0  2  0  0  0  0  0  0  0  0  0
   71.8206   50.1523   54.4087 O   0  0  0  0  0  0  0  0  0  0  0  0
   72.6204   51.2559   54.5495 C   0  0  1  0  0  0  0  0  0  0  0  0
   71.9806   52.2906   55.4600 C   0  0  1  0  0  0  0  0  0  0  0  0
   72.6632   53.4886   55.2200 O   0  0  0  0  0  0  0  0  0  0  0  0
   70.5420   52.5122   55.1562 C   0  0  2  0  0  0  0  0  0  0  0  0
   69.9219   53.1419   56.2366 O   0  0  0  0  0  0  0  0  0  0  0  0
   69.7774   51.2294   54.8175 C   0  0  1  0  0  0  0  0  0  0  0  0
   68.5539   51.6822   54.3012 O   0  0  0  0  0  0  0  0  0  0  0  0
   73.9247   50.8536   55.1856 C   0  0  0  0  0  0  0  0  0  0  0  0
   74.6014   50.0215   54.2965 O   0  0  0  0  0  0  0  0  0  0  0  0
   67.9225   46.4431   54.9714 C   0  0  0  0  0  0  0  0  0  0  0  0
   71.3766   45.3714   58.5457 C   0  0  0  0  0  0  0  0  0  0  0  0
   70.2903   45.2357   57.5313 C   0  0  0  0  0  0  0  0  0  0  0  0
   69.7240   46.2103   56.7455 C   0  0  0  0  0  0  0  0  0  0  0  0
   68.7330   45.6784   55.9206 C   0  0  0  0  0  0  0  0  0  0  0  0
   68.6961   44.3372   56.2118 C   0  0  0  0  0  0  0  0  0  0  0  0
   67.8608   43.4275   55.6129 C   0  0  0  0  0  0  0  0  0  0  0  0
   67.4548   42.2025   56.0465 C   0  0  0  0  0  0  0  0  0  0  0  0
   68.1256   41.3760   56.9464 C   0  0  0  0  0  0  0  0  0  0  0  0
   69.2739   41.6198   57.7064 C   0  0  0  0  0  0  0  0  0  0  0  0
   69.9665   42.8011   57.8205 C   0  0  0  0  0  0  0  0  0  0  0  0
   69.6953   44.0244   57.2538 C   0  0  0  0  0  0  0  0  0  0  0  0
 19 20  1  0
 20 21  2  0
 20 29  1  0
 21 22  1  0
 22 18  1  0
 22 23  2  0
 18  1  1  0
  1  2  2  0
  1  6  1  0
  2  3  1  0
  3  4  2  0
  4  5  1  0
  7  5  1  1
  5  6  2  0
  7  8  1  0
  7 14  1  0
  8  9  1  0
  9 16  1  1
  9 10  1  0
 16 17  1  0
 10 11  1  6
 10 12  1  0
 12 13  1  1
 12 14  1  0
 14 15  1  6
 23 24  1  0
 23 29  1  0
 24 25  2  0
 25 26  1  0
 26 27  2  0
 27 28  1  0
 28 29  2  0
M  END
>  <minimizedAffinity>  (716) 
-8.57751

$$$$
data/reference_output_2/data/smiles/139151.pdb
     RDKit          3D

 26 28  0  0  0  0  0  0  0  0999 V2000
   69.0732   47.7145   55.0134 N   0  0  0  0  0  0  0  0  0  0  0  0
   69.8887   48.8059   54.8943 C   0  0  0  0  0  0  0  0  0  0  0  0
   70.3376   49.3362   53.7166 C   0  0  0  0  0  0  0  0  0  0  0  0
   69.9503   48.7380   52.5420 C   0  0  0  0  0  0  0  0  0  0  0  0
   70.3453   49.2040   51.4489 O   0  0  0  0  0  0  0  0  0  0  0  0
   69.1293   47.6331   52.6219 C   0  0  0  0  0  0  0  0  0  0  0  0
   68.7305   46.9873   51.4707 C   0  0  0  0  0  0  0  0  0  0  0  0
   67.9280   45.8667   51.4610 C   0  0  0  0  0  0  0  0  0  0  0  0
   67.5185   45.3854   52.6834 C   0  0  0  0  0  0  0  0  0  0  0  0
   67.9145   46.0307   53.8633 C   0  0  0  0  0  0  0  0  0  0  0  0
   67.4788   45.4378   54.9889 F   0  0  0  0  0  0  0  0  0  0  0  0
   68.7087   47.1446   53.8612 C   0  0  0  0  0  0  0  0  0  0  0  0
   71.2179   50.5231   53.6873 C   0  0  0  0  0  0  0  0  0  0  0  0
   72.4220   50.3528   53.9715 O   0  0  0  0  0  0  0  0  0  0  0  0
   70.7769   51.7891   53.3655 O   0  0  0  0  0  0  0  0  0  0  0  0
   68.6226   47.3146   56.3321 C   0  0  0  0  0  0  0  0  0  0  0  0
   71.7650   47.1787   59.2884 C   0  0  0  0  0  0  0  0  0  0  0  0
   71.2525   46.0424   58.7016 C   0  0  0  0  0  0  0  0  0  0  0  0
   70.2508   46.1370   57.7637 C   0  0  0  0  0  0  0  0  0  0  0  0
   69.7039   47.3642   57.3593 C   0  0  0  0  0  0  0  0  0  0  0  0
   70.2054   48.4782   57.9335 C   0  0  0  0  0  0  0  0  0  0  0  0
   71.2253   48.3645   58.8858 C   0  0  0  0  0  0  0  0  0  0  0  0
   73.1438   45.3836   61.0306 C   0  0  0  0  0  0  0  0  0  0  0  0
   73.0371   47.0685   60.4790 S   0  0  0  0  0  0  0  0  0  0  0  0
   74.3497   47.5563   59.9482 O   0  0  0  0  0  0  0  0  0  0  0  0
   72.7003   47.9034   61.6985 O   0  0  0  0  0  0  0  0  0  0  0  0
 23 24  1  0
 24 25  2  0
 24 26  2  0
 24 17  1  0
 17 18  2  0
 17 22  1  0
 18 19  1  0
 19 20  2  0
 20 16  1  0
 20 21  1  0
 16  1  1  0
  1  2  1  0
  1 12  1  0
  2  3  2  0
  3 13  1  0
  3  4  1  0
 13 14  2  0
 13 15  1  0
  4  5  2  0
  4  6  1  0
  6  7  1  0
  6 12  2  0
  7  8  2  0
  8  9  1  0
  9 10  2  0
 10 11  1  0
 10 12  1  0
 21 22  2  0
M  END
>  <minimizedAffinity>  (717) 
-8.57683

$$$$
data/200k_reference_output/data/smiles/39125.pdb
     RDKit          3D

 28 30  0  0  0  0  0  0  0  0999 V2000
   69.8712   43.8900   57.3777 C   0  0  0  0  0  0  0  0  0  0  0  0
   68.9802   42.8853   57.4209 N   0  0  0  0  0  0  0  0  0  0  0  0
   69.2827   41.6233   57.7586 C   0  0  0  0  0  0  0  0  0  0  0  0
   68.3437   40.6111   57.7940 C   0  0  0  0  0  0  0  0  0  0  0  0
   68.6813   39.3206   58.1459 C   0  0  0  0  0  0  0  0  0  0  0  0
   69.9841   38.9954   58.4765 C   0  0  0  0  0  0  0  0  0  0  0  0
   70.9198   40.0104   58.4398 C   0  0  0  0  0  0  0  0  0  0  0  0
   70.5882   41.3070   58.0879 C   0  0  0  0  0  0  0  0  0  0  0  0
   71.4965   42.3425   58.0413 C   0  0  0  0  0  0  0  0  0  0  0  0
   72.6961   42.0471   58.3448 O   0  0  0  0  0  0  0  0  0  0  0  0
   71.1362   43.6024   57.6927 N   0  0  0  0  0  0  0  0  0  0  0  0
   68.5846   45.4812   55.8862 N   0  0  0  0  0  0  0  0  0  0  0  0
   69.4092   45.2143   56.9946 C   0  0  0  0  0  0  0  0  0  0  0  0
   69.7650   46.1942   57.6974 O   0  0  0  0  0  0  0  0  0  0  0  0
   68.1091   46.7848   55.4763 C   0  0  0  0  0  0  0  0  0  0  0  0
   69.8417   48.9912   52.9708 C   0  0  0  0  0  0  0  0  0  0  0  0
   69.8197   48.2093   51.8390 C   0  0  0  0  0  0  0  0  0  0  0  0
   69.2368   46.9506   51.8931 C   0  0  0  0  0  0  0  0  0  0  0  0
   68.6791   46.4817   53.0863 C   0  0  0  0  0  0  0  0  0  0  0  0
   68.7000   47.2575   54.2128 C   0  0  0  0  0  0  0  0  0  0  0  0
   69.2843   48.5118   54.1426 C   0  0  0  0  0  0  0  0  0  0  0  0
   70.1165   51.3246   53.7358 C   0  0  0  0  0  0  0  0  0  0  0  0
   70.4285   50.2391   52.8865 O   0  0  0  0  0  0  0  0  0  0  0  0
   70.2986   37.6897   58.8267 O   0  0  0  0  0  0  0  0  0  0  0  0
   71.5735   37.1816   58.4082 C   0  0  0  0  0  0  0  0  0  0  0  0
   71.8900   37.6198   57.1516 F   0  0  0  0  0  0  0  0  0  0  0  0
   71.4626   35.8049   58.4653 F   0  0  0  0  0  0  0  0  0  0  0  0
   72.4964   37.6049   59.3524 F   0  0  0  0  0  0  0  0  0  0  0  0
 22 23  1  0
 23 16  1  0
 16 17  2  0
 16 21  1  0
 17 18  1  0
 18 19  2  0
 19 20  1  0
 20 15  1  0
 20 21  2  0
 15 12  1  0
 12 13  1  0
 13 14  2  0
 13  1  1  0
  1  2  2  0
  1 11  1  0
  2  3  1  0
  3  4  2  0
  3  8  1  0
  4  5  1  0
  5  6  2  0
  6 24  1  0
  6  7  1  0
 24 25  1  0
 25 26  1  0
 25 27  1  0
 25 28  1  0
  7  8  2  0
  8  9  1  0
  9 10  2  0
  9 11  1  0
M  END
>  <minimizedAffinity>  (718) 
-8.57658

$$$$
data/200k_reference_output/data/smiles/34391.pdb
     RDKit          3D

 27 29  0  0  0  0  0  0  0  0999 V2000
   71.3554   41.5127   58.4642 C   0  0  0  0  0  0  0  0  0  0  0  0
   70.2346   42.1386   58.9732 C   0  0  0  0  0  0  0  0  0  0  0  0
   70.1106   43.5165   58.9919 C   0  0  0  0  0  0  0  0  0  0  0  0
   71.0909   44.3487   58.5056 C   0  0  0  0  0  0  0  0  0  0  0  0
   72.2290   43.7154   57.9889 C   0  0  0  0  0  0  0  0  0  0  0  0
   72.3427   42.3476   57.9758 C   0  0  0  0  0  0  0  0  0  0  0  0
   70.9818   46.0923   58.4987 S   0  0  0  0  0  0  0  0  0  0  0  0
   71.1274   46.6315   59.9175 O   0  0  0  0  0  0  0  0  0  0  0  0
   72.1247   46.7042   57.7319 O   0  0  0  0  0  0  0  0  0  0  0  0
   69.5182   46.6513   57.8511 N   0  0  0  0  0  0  0  0  0  0  0  0
   69.0473   46.4707   56.5375 C   0  0  0  0  0  0  0  0  0  0  0  0
   69.0648   47.4910   55.6218 C   0  0  0  0  0  0  0  0  0  0  0  0
   68.6086   47.2448   54.3295 C   0  0  0  0  0  0  0  0  0  0  0  0
   68.1385   46.0100   53.9321 C   0  0  0  0  0  0  0  0  0  0  0  0
   68.1401   45.0152   54.8856 C   0  0  0  0  0  0  0  0  0  0  0  0
   68.5763   45.2451   56.1273 N   0  0  0  0  0  0  0  0  0  0  0  0
   71.5858   38.8799   58.4255 C   0  0  0  0  0  0  0  0  0  0  0  0
   71.4759   40.0821   58.4488 C   0  0  0  0  0  0  0  0  0  0  0  0
   72.5856   35.4001   57.4611 C   0  0  0  0  0  0  0  0  0  0  0  0
   71.9814   34.6652   58.4556 C   0  0  0  0  0  0  0  0  0  0  0  0
   71.2633   35.3057   59.4173 C   0  0  0  0  0  0  0  0  0  0  0  0
   71.1462   36.6754   59.3896 C   0  0  0  0  0  0  0  0  0  0  0  0
   71.7330   37.4531   58.4162 C   0  0  0  0  0  0  0  0  0  0  0  0
   72.4540   36.7787   57.4539 C   0  0  0  0  0  0  0  0  0  0  0  0
   72.9728   33.5649   56.0730 O   0  0  0  0  0  0  0  0  0  0  0  0
   73.3460   34.6995   56.4463 C   0  0  0  0  0  0  0  0  0  0  0  0
   74.4786   35.2383   55.8660 O   0  0  0  0  0  0  0  0  0  0  0  0
 25 26  2  0
 26 27  1  0
 26 19  1  0
 19 20  2  0
 19 24  1  0
 20 21  1  0
 21 22  2  0
 22 23  1  0
 23 17  1  0
 23 24  2  0
 17 18  3  0
 18  1  1  0
  1  2  2  0
  1  6  1  0
  2  3  1  0
  3  4  2  0
  4  7  1  0
  4  5  1  0
  7  8  2  0
  7  9  2  0
  7 10  1  0
 10 11  1  0
 11 12  2  0
 11 16  1  0
 12 13  1  0
 13 14  2  0
 14 15  1  0
 15 16  2  0
  5  6  2  0
M  END
>  <minimizedAffinity>  (719) 
-8.57644

$$$$
data/200k_reference_output/data/smiles/77480.pdb
     RDKit          3D

 25 27  0  0  0  0  0  0  0  0999 V2000
   67.3813   41.8816   56.8338 S   0  0  0  0  0  0  0  0  0  0  0  0
   66.1505   41.8552   57.6657 O   0  0  0  0  0  0  0  0  0  0  0  0
   67.0862   41.4732   55.3994 O   0  0  0  0  0  0  0  0  0  0  0  0
   68.5488   40.7918   57.5328 C   0  0  0  0  0  0  0  0  0  0  0  0
   68.2708   39.4843   57.8351 C   0  0  0  0  0  0  0  0  0  0  0  0
   69.2304   38.6711   58.3840 C   0  0  0  0  0  0  0  0  0  0  0  0
   70.4991   39.1317   58.6515 C   0  0  0  0  0  0  0  0  0  0  0  0
   71.4828   38.3326   59.2047 C   0  0  0  0  0  0  0  0  0  0  0  0
   72.7456   38.8316   59.4598 C   0  0  0  0  0  0  0  0  0  0  0  0
   73.0174   40.1550   59.1506 C   0  0  0  0  0  0  0  0  0  0  0  0
   72.0272   40.9418   58.5989 C   0  0  0  0  0  0  0  0  0  0  0  0
   70.7523   40.4592   58.3365 C   0  0  0  0  0  0  0  0  0  0  0  0
   69.8172   41.2863   57.7897 C   0  0  0  0  0  0  0  0  0  0  0  0
   68.0325   43.4584   56.7837 N   0  0  0  0  0  0  0  0  0  0  0  0
   68.2162   45.3423   55.2283 C   0  0  0  0  0  0  0  0  0  0  0  0
   68.3547   46.1277   56.2269 O   0  0  0  0  0  0  0  0  0  0  0  0
   68.0502   43.9742   55.4823 N   0  0  0  0  0  0  0  0  0  0  0  0
   68.9567   47.3744   52.1504 C   0  0  0  0  0  0  0  0  0  0  0  0
   68.1609   46.7195   51.2409 C   0  0  0  0  0  0  0  0  0  0  0  0
   67.4071   45.6418   51.6416 C   0  0  0  0  0  0  0  0  0  0  0  0
   67.4254   45.1919   52.9436 C   0  0  0  0  0  0  0  0  0  0  0  0
   68.2300   45.8514   53.8691 C   0  0  0  0  0  0  0  0  0  0  0  0
   68.9803   46.9237   53.4726 C   0  0  0  0  0  0  0  0  0  0  0  0
   69.8229   49.5888   52.6589 C   0  0  0  0  0  0  0  0  0  0  0  0
   69.7398   48.4678   51.8034 O   0  0  0  0  0  0  0  0  0  0  0  0
 24 25  1  0
 25 18  1  0
 18 19  2  0
 18 23  1  0
 19 20  1  0
 20 21  2  0
 21 22  1  0
 22 15  1  0
 22 23  2  0
 15 16  2  0
 15 17  1  0
 17 14  1  0
 14  1  1  0
  1  2  2  0
  1  3  2  0
  1  4  1  0
  4  5  2  0
  4 13  1  0
  5  6  1  0
  6  7  2  0
  7  8  1  0
  7 12  1  0
  8  9  2  0
  9 10  1  0
 10 11  2  0
 11 12  1  0
 12 13  2  0
M  END
>  <minimizedAffinity>  (720) 
-8.57635

$$$$
data/reference_output_2/data/smiles/160530.pdb
     RDKit          3D

 26 28  0  0  0  0  0  0  0  0999 V2000
   68.8659   42.6187   57.1729 C   0  0  0  0  0  0  0  0  0  0  0  0
   69.0516   43.8542   56.6850 N   0  0  0  0  0  0  0  0  0  0  0  0
   68.2718   44.3709   55.6915 C   0  0  0  0  0  0  0  0  0  0  0  0
   67.3004   43.5807   55.2180 N   0  0  0  0  0  0  0  0  0  0  0  0
   67.0769   42.3204   55.6848 C   0  0  0  0  0  0  0  0  0  0  0  0
   66.1450   41.6221   55.1985 O   0  0  0  0  0  0  0  0  0  0  0  0
   67.8673   41.8069   56.6862 C   0  0  0  0  0  0  0  0  0  0  0  0
   67.7032   40.5330   57.2128 O   0  0  0  0  0  0  0  0  0  0  0  0
   68.5070   45.7180   55.1936 C   0  0  0  0  0  0  0  0  0  0  0  0
   68.2763   45.9736   53.8408 C   0  0  0  0  0  0  0  0  0  0  0  0
   68.4817   47.2244   53.3085 C   0  0  0  0  0  0  0  0  0  0  0  0
   68.9226   48.2639   54.0948 C   0  0  0  0  0  0  0  0  0  0  0  0
   69.1415   49.5211   53.6177 F   0  0  0  0  0  0  0  0  0  0  0  0
   69.1617   48.0460   55.4423 C   0  0  0  0  0  0  0  0  0  0  0  0
   68.9435   46.7751   55.9417 C   0  0  0  0  0  0  0  0  0  0  0  0
   69.5493   42.4421   59.4365 O   0  0  0  0  0  0  0  0  0  0  0  0
   69.7237   42.0816   58.2476 C   0  0  0  0  0  0  0  0  0  0  0  0
   70.7593   41.1506   57.9694 N   0  0  0  0  0  0  0  0  0  0  0  0
   71.6453   40.5751   58.9532 C   0  0  0  0  0  0  0  0  0  0  0  0
   71.4437   39.1117   59.0100 C   0  0  0  0  0  0  0  0  0  0  0  0
   70.6622   38.4601   59.9435 C   0  0  0  0  0  0  0  0  0  0  0  0
   70.4958   37.0874   59.9626 C   0  0  0  0  0  0  0  0  0  0  0  0
   71.1236   36.3008   59.0205 C   0  0  0  0  0  0  0  0  0  0  0  0
   71.9116   36.9104   58.0712 C   0  0  0  0  0  0  0  0  0  0  0  0
   72.5169   36.1080   57.1527 F   0  0  0  0  0  0  0  0  0  0  0  0
   72.0558   38.2621   58.0785 C   0  0  0  0  0  0  0  0  0  0  0  0
 16 17  2  0
 17 18  1  0
 17  1  1  0
 18 19  1  0
 19 20  1  0
 20 21  2  0
 20 26  1  0
 21 22  1  0
 22 23  2  0
 23 24  1  0
 24 25  1  0
 24 26  2  0
  1  2  1  0
  1  7  2  0
  2  3  2  0
  3  9  1  0
  3  4  1  0
  9 10  2  0
  9 15  1  0
 10 11  1  0
 11 12  2  0
 12 13  1  0
 12 14  1  0
 14 15  2  0
  4  5  1  0
  5  6  2  0
  5  7  1  0
  7  8  1  0
M  END
>  <minimizedAffinity>  (721) 
-8.57477

$$$$
data/200k_reference_output/data/smiles/32774.pdb
     RDKit          3D

 27 30  0  0  0  0  0  0  0  0999 V2000
   69.3112   45.1653   56.9260 C   0  0  0  0  0  0  0  0  0  0  0  0
   69.3035   43.8370   56.7411 N   0  0  0  0  0  0  0  0  0  0  0  0
   70.2320   43.2633   57.4848 N   0  0  0  0  0  0  0  0  0  0  0  0
   70.9101   44.1848   58.2068 C   0  0  0  0  0  0  0  0  0  0  0  0
   71.9443   44.1271   59.1118 C   0  0  0  0  0  0  0  0  0  0  0  0
   72.4102   45.2874   59.6783 C   0  0  0  0  0  0  0  0  0  0  0  0
   71.8544   46.5078   59.3509 C   0  0  0  0  0  0  0  0  0  0  0  0
   70.8204   46.5280   58.4406 C   0  0  0  0  0  0  0  0  0  0  0  0
   70.3133   45.3986   57.8418 C   0  0  0  0  0  0  0  0  0  0  0  0
   72.4511   47.9605   60.0711 S   0  0  0  0  0  0  0  0  0  0  0  0
   71.4175   49.0351   59.8807 O   0  0  0  0  0  0  0  0  0  0  0  0
   72.5875   47.7788   61.5769 O   0  0  0  0  0  0  0  0  0  0  0  0
   73.9330   48.4922   59.4687 N   0  0  0  0  0  0  0  0  0  0  0  0
   74.0957   48.4741   58.0666 C   0  0  0  0  0  0  0  0  0  0  0  0
   74.1166   49.8664   57.4768 C   0  0  0  0  0  0  0  0  0  0  0  0
   75.0824   50.6019   58.1715 O   0  0  0  0  0  0  0  0  0  0  0  0
   74.6479   50.8481   59.4810 C   0  0  0  0  0  0  0  0  0  0  0  0
   74.5750   49.5274   60.1832 C   0  0  0  0  0  0  0  0  0  0  0  0
   68.4621   46.1118   56.3030 N   0  0  0  0  0  0  0  0  0  0  0  0
   69.7822   48.6064   52.2175 C   0  0  0  0  0  0  0  0  0  0  0  0
   69.0653   47.4898   52.8889 C   0  0  0  0  0  0  0  0  0  0  0  0
   69.0925   47.3179   54.2585 C   0  0  0  0  0  0  0  0  0  0  0  0
   68.4286   46.2818   54.8887 C   0  0  0  0  0  0  0  0  0  0  0  0
   67.7294   45.4154   54.0806 C   0  0  0  0  0  0  0  0  0  0  0  0
   67.6938   45.5769   52.7046 C   0  0  0  0  0  0  0  0  0  0  0  0
   68.3604   46.6142   52.0902 C   0  0  0  0  0  0  0  0  0  0  0  0
   68.3145   46.7560   50.7411 F   0  0  0  0  0  0  0  0  0  0  0  0
 20 21  1  0
 21 22  2  0
 21 26  1  0
 22 23  1  0
 23 19  1  0
 23 24  2  0
 19  1  1  0
  1  2  2  0
  1  9  1  0
  2  3  1  0
  3  4  1  0
  4  5  1  0
  4  9  2  0
  5  6  2  0
  6  7  1  0
  7 10  1  0
  7  8  2  0
 10 11  2  0
 10 12  2  0
 10 13  1  0
 13 14  1  0
 13 18  1  0
 14 15  1  0
 15 16  1  0
 16 17  1  0
 17 18  1  0
  8  9  1  0
 24 25  1  0
 25 26  2  0
 26 27  1  0
M  END
>  <minimizedAffinity>  (722) 
-8.57377

$$$$
data/reference_output_2/data/smiles/87752.pdb
     RDKit          3D

 25 27  0  0  0  0  0  0  0  0999 V2000
   70.8103   43.8215   57.9370 O   0  0  0  0  0  0  0  0  0  0  0  0
   69.6811   43.7164   57.3307 C   0  0  0  0  0  0  0  0  0  0  0  0
   69.1551   44.9431   56.8867 N   0  0  0  0  0  0  0  0  0  0  0  0
   69.1037   42.4136   57.1788 C   0  0  0  0  0  0  0  0  0  0  0  0
   69.7239   41.3235   57.8213 C   0  0  0  0  0  0  0  0  0  0  0  0
   69.2853   40.0477   57.7601 C   0  0  0  0  0  0  0  0  0  0  0  0
   68.1500   39.7853   57.0209 C   0  0  0  0  0  0  0  0  0  0  0  0
   67.4886   40.7925   56.3662 C   0  0  0  0  0  0  0  0  0  0  0  0
   67.9950   42.0860   56.4694 C   0  0  0  0  0  0  0  0  0  0  0  0
   67.3272   43.0592   55.8167 F   0  0  0  0  0  0  0  0  0  0  0  0
   69.9551   38.9883   58.4315 N   0  0  0  0  0  0  0  0  0  0  0  0
   69.4611   38.2445   59.4495 C   0  0  0  0  0  0  0  0  0  0  0  0
   70.3872   37.3065   59.8549 C   0  0  0  0  0  0  0  0  0  0  0  0
   71.4779   37.5085   59.0360 C   0  0  0  0  0  0  0  0  0  0  0  0
   71.1714   38.5176   58.2076 N   0  0  0  0  0  0  0  0  0  0  0  0
   69.8071   46.1741   57.0889 N   0  0  0  0  0  0  0  0  0  0  0  0
   68.8707   47.3955   56.3073 S   0  0  0  0  0  0  0  0  0  0  0  0
   67.5260   47.5508   56.9338 O   0  0  0  0  0  0  0  0  0  0  0  0
   69.6205   48.6901   56.4526 O   0  0  0  0  0  0  0  0  0  0  0  0
   68.7021   47.0768   54.6035 C   0  0  0  0  0  0  0  0  0  0  0  0
   67.9827   46.0186   54.1182 C   0  0  0  0  0  0  0  0  0  0  0  0
   67.8859   45.8168   52.7414 C   0  0  0  0  0  0  0  0  0  0  0  0
   68.5101   46.6769   51.8877 C   0  0  0  0  0  0  0  0  0  0  0  0
   69.2366   47.7455   52.3740 C   0  0  0  0  0  0  0  0  0  0  0  0
   69.3237   47.9326   53.7233 C   0  0  0  0  0  0  0  0  0  0  0  0
  1  2  2  0
  2  3  1  0
  2  4  1  0
  3 16  1  0
 16 17  1  0
 17 18  2  0
 17 19  2  0
 17 20  1  0
 20 21  2  0
 20 25  1  0
 21 22  1  0
 22 23  2  0
 23 24  1  0
 24 25  2  0
  4  5  2  0
  4  9  1  0
  5  6  1  0
  6 11  1  0
  6  7  2  0
 11 12  1  0
 11 15  1  0
 12 13  2  0
 13 14  1  0
 14 15  2  0
  7  8  1  0
  8  9  2  0
  9 10  1  0
M  END
>  <minimizedAffinity>  (723) 
-8.57311

$$$$
data/reference_output_2/data/smiles/179424.pdb
     RDKit          3D

 27 29  0  0  0  0  0  0  0  0999 V2000
   74.2128   51.8049   54.9117 C   0  0  0  0  0  0  0  0  0  0  0  0
   73.9349   50.0922   53.3545 O   0  0  0  0  0  0  0  0  0  0  0  0
   73.3724   50.8398   54.1864 C   0  0  0  0  0  0  0  0  0  0  0  0
   71.9793   50.7141   54.3789 N   0  0  0  0  0  0  0  0  0  0  0  0
   71.2904   49.7496   53.6195 N   0  0  0  0  0  0  0  0  0  0  0  0
   70.2034   49.0219   54.1319 C   0  0  0  0  0  0  0  0  0  0  0  0
   69.9024   49.3202   55.3505 O   0  0  0  0  0  0  0  0  0  0  0  0
   69.4080   48.0109   53.4779 C   0  0  0  0  0  0  0  0  0  0  0  0
   68.5325   47.2047   54.2160 C   0  0  0  0  0  0  0  0  0  0  0  0
   67.7579   46.2298   53.6368 C   0  0  0  0  0  0  0  0  0  0  0  0
   67.7990   45.9907   52.2825 C   0  0  0  0  0  0  0  0  0  0  0  0
   68.6480   46.7656   51.5351 C   0  0  0  0  0  0  0  0  0  0  0  0
   69.4407   47.7643   52.1364 C   0  0  0  0  0  0  0  0  0  0  0  0
   70.2508   48.4819   51.3144 F   0  0  0  0  0  0  0  0  0  0  0  0
   74.7523   51.3199   56.0988 O   0  0  0  0  0  0  0  0  0  0  0  0
   75.3329   50.0805   56.2970 C   0  0  0  0  0  0  0  0  0  0  0  0
   76.3274   49.7742   55.5984 O   0  0  0  0  0  0  0  0  0  0  0  0
   74.8357   49.1065   57.2935 C   0  0  1  0  0  0  0  0  0  0  0  0
   75.9196   48.2546   57.8963 C   0  0  0  0  0  0  0  0  0  0  0  0
   76.5444   48.8652   59.1241 C   0  0  2  0  0  0  0  0  0  0  0  0
   75.9890   48.3157   60.3880 C   0  0  0  0  0  0  0  0  0  0  0  0
   74.9426   49.0697   61.0857 C   0  0  0  0  0  0  0  0  0  0  0  0
   74.7003   50.4895   60.6946 C   0  0  0  0  0  0  0  0  0  0  0  0
   74.9329   50.7480   59.2210 C   0  0  2  0  0  0  0  0  0  0  0  0
   74.0993   49.8337   58.3856 C   0  0  0  0  0  0  0  0  0  0  0  0
   76.3770   50.3472   59.0188 C   0  0  0  0  0  0  0  0  0  0  0  0
   77.2645   51.1241   58.8032 O   0  0  0  0  0  0  0  0  0  0  0  0
  2  3  2  0
  3  1  1  0
  3  4  1  0
  1 15  1  0
 15 16  1  0
 16 17  2  0
 18 16  1  6
 18 19  1  0
 18 25  1  0
 20 19  1  6
 20 21  1  0
 20 26  1  0
 21 22  1  0
 22 23  1  0
 24 23  1  1
 24 25  1  0
 24 26  1  0
 26 27  2  0
  4  5  1  0
  5  6  1  0
  6  7  2  0
  6  8  1  0
  8  9  2  0
  8 13  1  0
  9 10  1  0
 10 11  2  0
 11 12  1  0
 12 13  2  0
 13 14  1  0
M  END
>  <minimizedAffinity>  (724) 
-8.57264

$$$$
data/200k_reference_output/data/smiles/57066.pdb
     RDKit          3D

 27 31  0  0  0  0  0  0  0  0999 V2000
   69.6745   43.3269   57.2445 C   0  0  0  0  0  0  0  0  0  0  0  0
   68.4244   42.8649   56.6039 C   0  0  0  0  0  0  0  0  0  0  0  0
   67.7762   41.6729   56.8568 C   0  0  0  0  0  0  0  0  0  0  0  0
   66.6663   41.6910   56.0266 C   0  0  0  0  0  0  0  0  0  0  0  0
   66.6998   42.8348   55.3492 N   0  0  0  0  0  0  0  0  0  0  0  0
   67.7470   43.5718   55.6703 N   0  0  0  0  0  0  0  0  0  0  0  0
   68.1583   40.6209   57.7842 C   0  0  0  0  0  0  0  0  0  0  0  0
   68.6121   39.5524   57.3203 O   0  0  0  0  0  0  0  0  0  0  0  0
   68.0228   40.7960   59.1778 N   0  0  0  0  0  0  0  0  0  0  0  0
   67.5538   41.8594   60.0436 C   0  0  0  0  0  0  0  0  0  0  0  0
   68.2486   41.1959   61.1726 C   0  0  0  0  0  0  0  0  0  0  0  0
   68.2997   39.9807   60.3404 C   0  0  0  0  0  0  0  0  0  0  0  0
   67.6301   41.1664   62.4992 C   0  0  0  0  0  0  0  0  0  0  0  0
   68.6899   42.1785   62.9602 C   0  0  0  0  0  0  0  0  0  0  0  0
   69.2587   41.7233   64.1297 F   0  0  0  0  0  0  0  0  0  0  0  0
   68.2744   43.4743   62.9620 F   0  0  0  0  0  0  0  0  0  0  0  0
   69.4854   41.7746   61.7102 C   0  0  0  0  0  0  0  0  0  0  0  0
   68.1205   44.8476   55.1633 C   0  0  0  0  0  0  0  0  0  0  0  0
   68.1998   45.1127   53.8498 N   0  0  0  0  0  0  0  0  0  0  0  0
   68.5556   46.3318   53.3618 C   0  0  0  0  0  0  0  0  0  0  0  0
   68.8457   47.3288   54.2661 C   0  0  0  0  0  0  0  0  0  0  0  0
   68.7696   47.0725   55.6047 C   0  0  0  0  0  0  0  0  0  0  0  0
   69.0281   47.9639   56.4712 O   0  0  0  0  0  0  0  0  0  0  0  0
   68.4102   45.8438   56.0173 N   0  0  0  0  0  0  0  0  0  0  0  0
   69.2107   48.5751   53.5152 C   0  0  0  0  0  0  0  0  0  0  0  0
   69.6672   48.0096   52.1677 C   0  0  0  0  0  0  0  0  0  0  0  0
   68.7156   46.8760   51.9840 C   0  0  0  0  0  0  0  0  0  0  0  0
  1  2  1  0
  2  3  2  0
  2  6  1  0
  3  7  1  0
  3  4  1  0
  7  8  2  0
  7  9  1  0
  9 10  1  0
  9 12  1  0
 10 11  1  0
 11 12  1  0
 11 13  1  0
 11 17  1  0
 13 14  1  0
 14 15  1  0
 14 16  1  0
 14 17  1  0
  4  5  2  0
  5  6  1  0
  6 18  1  0
 18 19  2  0
 18 24  1  0
 19 20  1  0
 20 21  2  0
 20 27  1  0
 21 22  1  0
 21 25  1  0
 22 23  2  0
 22 24  1  0
 25 26  1  0
 26 27  1  0
M  END
>  <minimizedAffinity>  (725) 
-8.57260

$$$$
data/reference_output_2/data/smiles/174480.pdb
     RDKit          3D

 30 34  0  0  0  0  0  0  0  0999 V2000
   73.8278   35.6002   56.8650 N   0  0  0  0  0  0  0  0  0  0  0  0
   73.8252   35.5900   55.5469 N   0  0  0  0  0  0  0  0  0  0  0  0
   75.0345   35.2789   55.0473 C   0  0  0  0  0  0  0  0  0  0  0  0
   75.8135   35.0917   56.1380 N   0  0  0  0  0  0  0  0  0  0  0  0
   75.0834   35.2864   57.2224 N   0  0  0  0  0  0  0  0  0  0  0  0
   70.6231   34.1256   60.1527 F   0  0  0  0  0  0  0  0  0  0  0  0
   71.1889   35.0890   59.4051 C   0  0  0  0  0  0  0  0  0  0  0  0
   70.6784   36.3829   59.5639 C   0  0  0  0  0  0  0  0  0  0  0  0
   71.2484   37.3844   58.8026 C   0  0  0  0  0  0  0  0  0  0  0  0
   72.2750   37.1545   57.9169 C   0  0  0  0  0  0  0  0  0  0  0  0
   72.7696   35.8778   57.7677 C   0  0  0  0  0  0  0  0  0  0  0  0
   72.2269   34.8533   58.5093 C   0  0  0  0  0  0  0  0  0  0  0  0
   75.4743   35.1567   53.6601 C   0  0  0  0  0  0  0  0  0  0  0  0
   76.6335   35.7686   53.2181 C   0  0  0  0  0  0  0  0  0  0  0  0
   77.0593   35.6600   51.9096 C   0  0  0  0  0  0  0  0  0  0  0  0
   76.3495   34.9363   50.9782 C   0  0  0  0  0  0  0  0  0  0  0  0
   75.1939   34.3252   51.4091 C   0  0  0  0  0  0  0  0  0  0  0  0
   74.7699   34.4343   52.7189 C   0  0  0  0  0  0  0  0  0  0  0  0
   76.8171   34.8286   49.5781 C   0  0  0  0  0  0  0  0  0  0  0  0
   76.1689   34.0132   48.6799 C   0  0  0  0  0  0  0  0  0  0  0  0
   76.5889   33.8989   47.3725 C   0  0  0  0  0  0  0  0  0  0  0  0
   77.6860   34.6241   46.9662 C   0  0  0  0  0  0  0  0  0  0  0  0
   78.3462   35.4431   47.8473 C   0  0  0  0  0  0  0  0  0  0  0  0
   77.9051   35.5376   49.1415 C   0  0  0  0  0  0  0  0  0  0  0  0
   75.5660   35.1761   58.5500 C   0  0  0  0  0  0  0  0  0  0  0  0
   75.8637   36.3146   59.2989 C   0  0  0  0  0  0  0  0  0  0  0  0
   76.3370   36.2456   60.5894 C   0  0  0  0  0  0  0  0  0  0  0  0
   76.5268   35.0287   61.1735 C   0  0  0  0  0  0  0  0  0  0  0  0
   76.2342   33.8959   60.4384 C   0  0  0  0  0  0  0  0  0  0  0  0
   75.7649   33.9492   59.1562 C   0  0  0  0  0  0  0  0  0  0  0  0
  6  7  1  0
  7  8  2  0
  7 12  1  0
  8  9  1  0
  9 10  2  0
 10 11  1  0
 11  1  1  0
 11 12  2  0
  1  2  2  0
  1  5  1  0
  2  3  1  0
  3 13  1  0
  3  4  2  0
 13 14  2  0
 13 18  1  0
 14 15  1  0
 15 16  2  0
 16 19  1  0
 16 17  1  0
 19 20  2  0
 19 24  1  0
 20 21  1  0
 21 22  2  0
 22 23  1  0
 23 24  2  0
 17 18  2  0
  4  5  1  0
  5 25  1  0
 25 26  2  0
 25 30  1  0
 26 27  1  0
 27 28  2  0
 28 29  1  0
 29 30  2  0
M  CHG  1   1   1
M  END
>  <minimizedAffinity>  (726) 
-8.57205

$$$$
data/reference_output_2/data/smiles/185845.pdb
     RDKit          3D

 27 29  0  0  0  0  0  0  0  0999 V2000
   69.0330   47.1367   56.6784 S   0  0  0  0  0  0  0  0  0  0  0  0
   67.6967   47.5327   57.2124 O   0  0  0  0  0  0  0  0  0  0  0  0
   69.0583   45.6410   56.5390 O   0  0  0  0  0  0  0  0  0  0  0  0
   70.2894   47.5798   57.8262 C   0  0  0  0  0  0  0  0  0  0  0  0
   70.4723   48.8987   58.1814 C   0  0  0  0  0  0  0  0  0  0  0  0
   71.4570   49.2326   59.0796 C   0  0  0  0  0  0  0  0  0  0  0  0
   72.2690   48.2611   59.6328 C   0  0  0  0  0  0  0  0  0  0  0  0
   72.0745   46.9313   59.2665 C   0  0  0  0  0  0  0  0  0  0  0  0
   71.0932   46.5976   58.3721 C   0  0  0  0  0  0  0  0  0  0  0  0
   72.9990   45.9690   59.9261 C   0  0  0  0  0  0  0  0  0  0  0  0
   73.1933   46.2687   61.3958 C   0  0  0  0  0  0  0  0  0  0  0  0
   73.5123   47.7105   61.6875 C   0  0  0  0  0  0  0  0  0  0  0  0
   73.2926   48.5717   60.5577 N   0  0  0  0  0  0  0  0  0  0  0  0
   74.0982   49.7018   60.3469 C   0  0  0  0  0  0  0  0  0  0  0  0
   74.0767   50.5760   59.1475 C   0  0  0  0  0  0  0  0  0  0  0  0
   74.9226   49.9847   61.2846 O   0  0  0  0  0  0  0  0  0  0  0  0
   69.2731   47.8660   55.1439 N   0  0  0  0  0  0  0  0  0  0  0  0
   69.2984   47.8479   52.7414 C   0  0  0  0  0  0  0  0  0  0  0  0
   68.8610   47.2514   51.5489 C   0  0  0  0  0  0  0  0  0  0  0  0
   68.0042   46.1777   51.5293 C   0  0  0  0  0  0  0  0  0  0  0  0
   67.5703   45.6844   52.7265 C   0  0  0  0  0  0  0  0  0  0  0  0
   67.9785   46.2430   53.8892 C   0  0  0  0  0  0  0  0  0  0  0  0
   68.8340   47.3128   53.9059 C   0  0  0  0  0  0  0  0  0  0  0  0
   70.1797   48.9924   52.6595 C   0  0  0  0  0  0  0  0  0  0  0  0
   71.4433   48.7501   52.6413 O   0  0  0  0  0  0  0  0  0  0  0  0
   69.8200   51.1903   53.7047 C   0  0  0  0  0  0  0  0  0  0  0  0
   69.8367   50.3098   52.5965 O   0  0  0  0  0  0  0  0  0  0  0  0
 26 27  1  0
 27 24  1  0
 24 25  2  0
 24 18  1  0
 18 19  2  0
 18 23  1  0
 19 20  1  0
 20 21  2  0
 21 22  1  0
 22 23  2  0
 23 17  1  0
 17  1  1  0
  1  2  2  0
  1  3  2  0
  1  4  1  0
  4  5  2  0
  4  9  1  0
  5  6  1  0
  6  7  2  0
  7  8  1  0
  7 13  1  0
  8  9  2  0
  8 10  1  0
 10 11  1  0
 11 12  1  0
 12 13  1  0
 13 14  1  0
 14 15  1  0
 14 16  2  0
M  END
>  <minimizedAffinity>  (727) 
-8.57082

$$$$
data/200k_reference_output/data/smiles/19113.pdb
     RDKit          3D

 27 31  0  0  0  0  0  0  0  0999 V2000
   70.0200   43.0301   57.4046 C   0  0  0  0  0  0  0  0  0  0  0  0
   71.2760   42.7073   57.8772 C   0  0  0  0  0  0  0  0  0  0  0  0
   72.1617   43.6913   58.3230 C   0  0  0  0  0  0  0  0  0  0  0  0
   71.7479   45.0055   58.2802 C   0  0  0  0  0  0  0  0  0  0  0  0
   72.6062   45.9770   58.7139 C   0  0  0  0  0  0  0  0  0  0  0  0
   72.2474   47.3062   58.6943 C   0  0  0  0  0  0  0  0  0  0  0  0
   70.9780   47.6146   58.2163 C   0  0  0  0  0  0  0  0  0  0  0  0
   70.1000   46.6541   57.7754 C   0  0  0  0  0  0  0  0  0  0  0  0
   70.4993   45.3114   57.8091 C   0  0  0  0  0  0  0  0  0  0  0  0
   69.6785   44.3304   57.3895 N   0  0  0  0  0  0  0  0  0  0  0  0
   66.8894   41.4393   61.1663 O   0  0  0  0  0  0  0  0  0  0  0  0
   67.2389   41.2795   59.9645 C   0  0  0  0  0  0  0  0  0  0  0  0
   67.2992   40.0031   59.3351 N   0  0  0  0  0  0  0  0  0  0  0  0
   67.7263   40.1706   57.9898 C   0  0  0  0  0  0  0  0  0  0  0  0
   67.8386   39.2324   57.1733 O   0  0  0  0  0  0  0  0  0  0  0  0
   67.9823   41.5981   57.8091 C   0  0  2  0  0  0  0  0  0  0  0  0
   67.7000   42.2960   56.5327 C   0  0  0  0  0  0  0  0  0  0  0  0
   69.0863   41.9880   56.9341 C   0  0  1  0  0  0  0  0  0  0  0  0
   67.6288   42.2653   59.0178 N   0  0  0  0  0  0  0  0  0  0  0  0
   68.8776   46.9349   57.3135 O   0  0  0  0  0  0  0  0  0  0  0  0
   68.2748   47.6429   56.3376 C   0  0  0  0  0  0  0  0  0  0  0  0
   68.4009   47.1863   54.9408 C   0  0  0  0  0  0  0  0  0  0  0  0
   67.9617   45.9971   54.4404 C   0  0  0  0  0  0  0  0  0  0  0  0
   68.1377   45.7061   53.1140 C   0  0  0  0  0  0  0  0  0  0  0  0
   68.7471   46.5681   52.2471 C   0  0  0  0  0  0  0  0  0  0  0  0
   69.1929   47.7685   52.7420 C   0  0  0  0  0  0  0  0  0  0  0  0
   69.0260   48.0741   54.0548 C   0  0  0  0  0  0  0  0  0  0  0  0
 11 12  2  0
 12 13  1  0
 12 19  1  0
 13 14  1  0
 14 15  2  0
 16 14  1  0
 16 17  1  6
 16 18  1  0
 16 19  1  0
 17 18  1  0
 18  1  1  1
  1  2  2  0
  1 10  1  0
  2  3  1  0
  3  4  2  0
  4  5  1  0
  4  9  1  0
  5  6  2  0
  6  7  1  0
  7  8  2  0
  8 20  1  0
  8  9  1  0
 20 21  1  0
 21 22  1  0
 22 23  2  0
 22 27  1  0
 23 24  1  0
 24 25  2  0
 25 26  1  0
 26 27  2  0
  9 10  2  0
M  END
>  <minimizedAffinity>  (728) 
-8.57030

$$$$
data/reference_output_2/data/smiles/104925.pdb
     RDKit          3D

 23 24  0  0  0  0  0  0  0  0999 V2000
   70.9498   50.8025   53.6208 O   0  0  0  0  0  0  0  0  0  0  0  0
   69.7391   50.3423   53.7018 C   0  0  0  0  0  0  0  0  0  0  0  0
   68.8278   51.2594   54.2822 N   0  0  0  0  0  0  0  0  0  0  0  0
   69.4483   49.0240   53.2250 C   0  0  0  0  0  0  0  0  0  0  0  0
   68.9669   48.1141   54.1656 C   0  0  0  0  0  0  0  0  0  0  0  0
   68.6676   46.8314   53.7769 C   0  0  0  0  0  0  0  0  0  0  0  0
   68.8683   46.4989   52.4293 C   0  0  0  0  0  0  0  0  0  0  0  0
   69.3262   47.3705   51.5453 N   0  0  0  0  0  0  0  0  0  0  0  0
   69.6280   48.6496   51.9137 C   0  0  0  0  0  0  0  0  0  0  0  0
   70.0536   49.4096   51.0254 O   0  0  0  0  0  0  0  0  0  0  0  0
   68.1862   45.8924   54.7000 N   0  0  0  0  0  0  0  0  0  0  0  0
   67.8272   44.7463   54.3546 O   0  0  0  0  0  0  0  0  0  0  0  0
   68.0934   46.2090   56.0296 O   0  0  0  0  0  0  0  0  0  0  0  0
   69.2041   52.5666   54.7248 C   0  0  0  0  0  0  0  0  0  0  0  0
   69.0652   52.9259   56.1579 C   0  0  0  0  0  0  0  0  0  0  0  0
   69.5343   51.8405   57.0552 C   0  0  0  0  0  0  0  0  0  0  0  0
   70.9252   51.7540   57.2578 C   0  0  0  0  0  0  0  0  0  0  0  0
   71.4981   50.7525   57.9963 C   0  0  0  0  0  0  0  0  0  0  0  0
   70.6591   49.8102   58.5473 C   0  0  0  0  0  0  0  0  0  0  0  0
   71.4131   48.5194   59.4900 Cl  0  0  0  0  0  0  0  0  0  0  0  0
   69.3112   49.8625   58.3740 C   0  0  0  0  0  0  0  0  0  0  0  0
   68.7547   50.8893   57.6223 C   0  0  0  0  0  0  0  0  0  0  0  0
   66.9918   50.9604   57.5117 Cl  0  0  0  0  0  0  0  0  0  0  0  0
  1  2  2  0
  2  3  1  0
  2  4  1  0
  3 14  1  0
 14 15  1  0
 15 16  1  0
 16 17  2  0
 16 22  1  0
 17 18  1  0
 18 19  2  0
 19 20  1  0
 19 21  1  0
 21 22  2  0
 22 23  1  0
  4  5  2  0
  4  9  1  0
  5  6  1  0
  6 11  1  0
  6  7  2  0
 11 12  2  0
 11 13  1  0
  7  8  1  0
  8  9  1  0
  9 10  2  0
M  CHG  2  11   1  13  -1
M  END
>  <minimizedAffinity>  (729) 
-8.56946

$$$$
data/200k_reference_output/data/smiles/77674.pdb
     RDKit          3D

 28 32  0  0  0  0  0  0  0  0999 V2000
   76.5169   34.5574   55.9518 C   0  0  0  0  0  0  0  0  0  0  0  0
   75.4037   34.8318   54.9909 C   0  0  0  0  0  0  0  0  0  0  0  0
   75.4513   35.5808   53.8693 N   0  0  0  0  0  0  0  0  0  0  0  0
   74.2385   35.5739   53.2873 C   0  0  0  0  0  0  0  0  0  0  0  0
   73.4368   34.8061   54.0714 C   0  0  0  0  0  0  0  0  0  0  0  0
   74.1626   34.3532   55.1169 N   0  0  0  0  0  0  0  0  0  0  0  0
   76.5853   36.2870   53.3425 C   0  0  0  0  0  0  0  0  0  0  0  0
   77.2521   35.5533   52.2302 C   0  0  0  0  0  0  0  0  0  0  0  0
   77.9690   34.4100   52.5117 C   0  0  0  0  0  0  0  0  0  0  0  0
   78.5971   33.7100   51.4993 C   0  0  0  0  0  0  0  0  0  0  0  0
   78.5238   34.1345   50.1864 C   0  0  0  0  0  0  0  0  0  0  0  0
   79.1452   33.4518   49.1469 C   0  0  0  0  0  0  0  0  0  0  0  0
   79.0549   33.9034   47.8258 C   0  0  0  0  0  0  0  0  0  0  0  0
   78.3276   35.0556   47.5736 C   0  0  0  0  0  0  0  0  0  0  0  0
   77.7266   35.7050   48.6281 C   0  0  0  0  0  0  0  0  0  0  0  0
   77.7962   35.2861   49.9373 C   0  0  0  0  0  0  0  0  0  0  0  0
   77.1909   35.9522   50.9473 N   0  0  0  0  0  0  0  0  0  0  0  0
   73.6432   33.5056   56.1595 C   0  0  0  0  0  0  0  0  0  0  0  0
   72.8645   34.2900   57.1819 C   0  0  0  0  0  0  0  0  0  0  0  0
   72.3279   33.6697   58.2909 C   0  0  0  0  0  0  0  0  0  0  0  0
   71.6189   34.4125   59.2113 C   0  0  0  0  0  0  0  0  0  0  0  0
   71.4380   35.7694   59.0393 C   0  0  0  0  0  0  0  0  0  0  0  0
   70.7237   36.5150   59.9683 C   0  0  0  0  0  0  0  0  0  0  0  0
   70.5344   37.8791   59.8069 C   0  0  0  0  0  0  0  0  0  0  0  0
   71.0840   38.4858   58.6819 C   0  0  0  0  0  0  0  0  0  0  0  0
   71.7858   37.7163   57.7814 C   0  0  0  0  0  0  0  0  0  0  0  0
   71.9861   36.3656   57.9201 C   0  0  0  0  0  0  0  0  0  0  0  0
   72.6707   35.6136   57.0426 N   0  0  0  0  0  0  0  0  0  0  0  0
  1  2  1  0
  2  3  1  0
  2  6  2  0
  3  7  1  0
  3  4  1  0
  7  8  1  0
  8  9  2  0
  8 17  1  0
  9 10  1  0
 10 11  2  0
 11 12  1  0
 11 16  1  0
 12 13  2  0
 13 14  1  0
 14 15  2  0
 15 16  1  0
 16 17  2  0
  4  5  2  0
  5  6  1  0
  6 18  1  0
 18 19  1  0
 19 20  2  0
 19 28  1  0
 20 21  1  0
 21 22  2  0
 22 23  1  0
 22 27  1  0
 23 24  2  0
 24 25  1  0
 25 26  2  0
 26 27  1  0
 27 28  2  0
M  CHG  1   6   1
M  END
>  <minimizedAffinity>  (730) 
-8.56873

$$$$
data/200k_reference_output/data/smiles/10450.pdb
     RDKit          3D

 25 27  0  0  0  0  0  0  0  0999 V2000
   68.9932   47.8897   56.7217 S   0  0  0  0  0  0  0  0  0  0  0  0
   69.2812   49.3525   56.9024 O   0  0  0  0  0  0  0  0  0  0  0  0
   67.7244   47.5758   57.4621 O   0  0  0  0  0  0  0  0  0  0  0  0
   68.8151   47.5811   55.0233 C   0  0  0  0  0  0  0  0  0  0  0  0
   69.6282   48.2875   54.1455 C   0  0  0  0  0  0  0  0  0  0  0  0
   69.4586   48.0171   52.8037 C   0  0  0  0  0  0  0  0  0  0  0  0
   68.5357   47.0978   52.3502 C   0  0  0  0  0  0  0  0  0  0  0  0
   68.1815   46.6624   51.1461 N   0  0  0  0  0  0  0  0  0  0  0  0
   67.2102   45.7468   51.2963 C   0  0  0  0  0  0  0  0  0  0  0  0
   66.6172   45.1052   50.3775 O   0  0  0  0  0  0  0  0  0  0  0  0
   66.9747   45.6235   52.5657 O   0  0  0  0  0  0  0  0  0  0  0  0
   67.7489   46.4207   53.2592 C   0  0  0  0  0  0  0  0  0  0  0  0
   67.8896   46.6650   54.6121 C   0  0  0  0  0  0  0  0  0  0  0  0
   71.2180   44.7742   58.0185 N   0  0  0  0  0  0  0  0  0  0  0  0
   70.1660   45.5156   57.4502 C   0  0  0  0  0  0  0  0  0  0  0  0
   69.1788   44.9058   56.9969 O   0  0  0  0  0  0  0  0  0  0  0  0
   70.2510   46.9231   57.4064 N   0  0  0  0  0  0  0  0  0  0  0  0
   68.9433   40.3749   58.4410 C   0  0  0  0  0  0  0  0  0  0  0  0
   70.1702   41.2090   58.3240 C   0  0  0  0  0  0  0  0  0  0  0  0
   71.3795   40.5463   58.3174 C   0  0  0  0  0  0  0  0  0  0  0  0
   72.5237   41.3082   58.2094 C   0  0  0  0  0  0  0  0  0  0  0  0
   72.4527   42.6912   58.1127 C   0  0  0  0  0  0  0  0  0  0  0  0
   73.6994   43.4750   57.9996 C   0  0  0  0  0  0  0  0  0  0  0  0
   71.2460   43.3592   58.1196 C   0  0  0  0  0  0  0  0  0  0  0  0
   70.1017   42.5848   58.2278 C   0  0  0  0  0  0  0  0  0  0  0  0
 18 19  1  0
 19 20  2  0
 19 25  1  0
 20 21  1  0
 21 22  2  0
 22 23  1  0
 22 24  1  0
 24 14  1  0
 24 25  2  0
 14 15  1  0
 15 16  2  0
 15 17  1  0
 17  1  1  0
  1  2  2  0
  1  3  2  0
  1  4  1  0
  4  5  2  0
  4 13  1  0
  5  6  1  0
  6  7  2  0
  7  8  1  0
  7 12  1  0
  8  9  1  0
  9 10  2  0
  9 11  1  0
 11 12  1  0
 12 13  2  0
M  END
>  <minimizedAffinity>  (731) 
-8.56869

$$$$
data/reference_output_2/data/smiles/108178.pdb
     RDKit          3D

 28 31  0  0  0  0  0  0  0  0999 V2000
   71.5556   47.3681   58.9111 C   0  0  0  0  0  0  0  0  0  0  0  0
   70.4901   47.9169   58.2175 C   0  0  0  0  0  0  0  0  0  0  0  0
   69.6985   47.1196   57.4314 C   0  0  0  0  0  0  0  0  0  0  0  0
   70.0118   45.7659   57.3651 C   0  0  0  0  0  0  0  0  0  0  0  0
   71.0586   45.2097   58.0422 C   0  0  0  0  0  0  0  0  0  0  0  0
   71.8282   46.0382   58.8188 C   0  0  0  0  0  0  0  0  0  0  0  0
   72.8838   45.4892   59.5044 F   0  0  0  0  0  0  0  0  0  0  0  0
   72.3164   48.0379   61.0131 O   0  0  0  0  0  0  0  0  0  0  0  0
   72.4478   48.1656   59.7637 C   0  0  0  0  0  0  0  0  0  0  0  0
   73.4208   49.0477   59.2669 N   0  0  0  0  0  0  0  0  0  0  0  0
   73.5658   49.1855   57.8205 C   0  0  0  0  0  0  0  0  0  0  0  0
   74.9148   48.6504   57.4401 C   0  0  0  0  0  0  0  0  0  0  0  0
   75.9730   49.2866   58.3142 C   0  0  0  0  0  0  0  0  0  0  0  0
   75.7628   50.6580   58.6064 N   0  0  0  0  0  0  0  0  0  0  0  0
   74.8572   50.9550   59.6589 C   0  0  0  0  0  0  0  0  0  0  0  0
   74.1906   49.7420   60.2578 C   0  0  0  0  0  0  0  0  0  0  0  0
   68.5204   47.6368   56.6547 C   0  0  0  0  0  0  0  0  0  0  0  0
   68.9321   48.1930   55.3475 C   0  0  0  0  0  0  0  0  0  0  0  0
   69.3581   49.4816   55.2389 N   0  0  0  0  0  0  0  0  0  0  0  0
   69.7814   50.0117   54.1086 N   0  0  0  0  0  0  0  0  0  0  0  0
   69.8087   49.2753   52.9845 C   0  0  0  0  0  0  0  0  0  0  0  0
   70.2100   49.7462   51.8709 O   0  0  0  0  0  0  0  0  0  0  0  0
   69.3910   47.9661   53.0202 C   0  0  0  0  0  0  0  0  0  0  0  0
   68.9451   47.4257   54.2315 C   0  0  0  0  0  0  0  0  0  0  0  0
   68.4643   46.0300   54.1849 C   0  0  0  0  0  0  0  0  0  0  0  0
   67.4381   46.0128   53.0302 C   0  0  0  0  0  0  0  0  0  0  0  0
   68.0478   46.3703   51.7201 C   0  0  0  0  0  0  0  0  0  0  0  0
   69.3874   47.0511   51.8564 C   0  0  0  0  0  0  0  0  0  0  0  0
  8  9  2  0
  9  1  1  0
  9 10  1  0
  1  2  2  0
  1  6  1  0
  2  3  1  0
  3 17  1  0
  3  4  2  0
 17 18  1  0
 18 19  2  0
 18 24  1  0
 19 20  1  0
 20 21  1  0
 21 22  2  0
 21 23  1  0
 23 24  2  0
 23 28  1  0
 24 25  1  0
 25 26  1  0
 26 27  1  0
 27 28  1  0
  4  5  1  0
  5  6  2  0
  6  7  1  0
 10 11  1  0
 10 16  1  0
 11 12  1  0
 12 13  1  0
 13 14  1  0
 14 15  1  0
 15 16  1  0
M  CHG  1  14   1
M  END
>  <minimizedAffinity>  (732) 
-8.56752

$$$$
data/reference_output_2/data/smiles/98741.pdb
     RDKit          3D

 27 29  0  0  0  0  0  0  0  0999 V2000
   70.6751   49.1226   57.6686 C   0  0  0  0  0  0  0  0  0  0  0  0
   70.1170   50.1032   58.2434 O   0  0  0  0  0  0  0  0  0  0  0  0
   70.7969   49.1829   56.2714 N   0  0  0  0  0  0  0  0  0  0  0  0
   73.2839   47.5689   61.5575 C   0  0  0  0  0  0  0  0  0  0  0  0
   72.4266   47.2360   60.3871 C   0  0  0  0  0  0  0  0  0  0  0  0
   71.9548   48.2581   59.5905 C   0  0  0  0  0  0  0  0  0  0  0  0
   71.1464   48.0129   58.4770 C   0  0  0  0  0  0  0  0  0  0  0  0
   70.8559   46.7002   58.2326 C   0  0  0  0  0  0  0  0  0  0  0  0
   71.2906   45.6291   58.9850 C   0  0  0  0  0  0  0  0  0  0  0  0
   72.0913   45.9322   60.0792 C   0  0  0  0  0  0  0  0  0  0  0  0
   70.9354   44.2545   58.6569 C   0  0  0  0  0  0  0  0  0  0  0  0
   71.8808   43.4737   58.1200 N   0  0  0  0  0  0  0  0  0  0  0  0
   71.6399   42.1798   57.7826 C   0  0  0  0  0  0  0  0  0  0  0  0
   70.3990   41.6674   57.9984 C   0  0  0  0  0  0  0  0  0  0  0  0
   69.4206   42.4476   58.5443 C   0  0  0  0  0  0  0  0  0  0  0  0
   69.7198   43.7399   58.8636 N   0  0  0  0  0  0  0  0  0  0  0  0
   70.3182   50.2932   55.5200 N   0  0  0  0  0  0  0  0  0  0  0  0
   70.4952   49.9411   53.8475 S   0  0  0  0  0  0  0  0  0  0  0  0
   71.9686   49.7581   53.5538 O   0  0  0  0  0  0  0  0  0  0  0  0
   70.0203   51.1128   53.0374 O   0  0  0  0  0  0  0  0  0  0  0  0
   69.6182   48.5065   53.3761 C   0  0  0  0  0  0  0  0  0  0  0  0
   68.7968   47.8672   54.3116 C   0  0  0  0  0  0  0  0  0  0  0  0
   68.1070   46.7351   53.9292 C   0  0  0  0  0  0  0  0  0  0  0  0
   68.2038   46.2147   52.6520 C   0  0  0  0  0  0  0  0  0  0  0  0
   69.0249   46.8777   51.7656 C   0  0  0  0  0  0  0  0  0  0  0  0
   69.7349   48.0174   52.1049 C   0  0  0  0  0  0  0  0  0  0  0  0
   70.5387   48.6565   51.2173 F   0  0  0  0  0  0  0  0  0  0  0  0
  4  5  1  0
  5  6  2  0
  5 10  1  0
  6  7  1  0
  7  1  1  0
  7  8  2  0
  1  2  2  0
  1  3  1  0
  3 17  1  0
 17 18  1  0
 18 19  2  0
 18 20  2  0
 18 21  1  0
 21 22  2  0
 21 26  1  0
 22 23  1  0
 23 24  2  0
 24 25  1  0
 25 26  2  0
 26 27  1  0
  8  9  1  0
  9 11  1  0
  9 10  2  0
 11 12  2  0
 11 16  1  0
 12 13  1  0
 13 14  2  0
 14 15  1  0
 15 16  2  0
M  END
>  <minimizedAffinity>  (733) 
-8.56738

$$$$
data/reference_output_2/data/smiles/117089.pdb
     RDKit          3D

 26 28  0  0  0  0  0  0  0  0999 V2000
   72.3473   46.8128   60.2235 C   0  0  0  0  0  0  0  0  0  0  0  0
   71.4061   46.4423   59.1408 C   0  0  0  0  0  0  0  0  0  0  0  0
   71.0815   45.1861   58.8462 N   0  0  0  0  0  0  0  0  0  0  0  0
   70.2081   44.8341   57.8426 C   0  0  0  0  0  0  0  0  0  0  0  0
   69.6707   45.8729   57.1375 C   0  0  0  0  0  0  0  0  0  0  0  0
   68.7844   45.6315   56.1118 O   0  0  0  0  0  0  0  0  0  0  0  0
   69.9678   47.2146   57.3934 C   0  0  0  0  0  0  0  0  0  0  0  0
   69.4240   48.2535   56.6797 C   0  0  0  0  0  0  0  0  0  0  0  0
   69.7448   49.5813   56.9649 C   0  0  0  0  0  0  0  0  0  0  0  0
   70.6287   49.8532   57.9867 C   0  0  0  0  0  0  0  0  0  0  0  0
   71.1807   48.7897   58.7114 C   0  0  0  0  0  0  0  0  0  0  0  0
   70.8495   47.4840   58.4123 C   0  0  0  0  0  0  0  0  0  0  0  0
   69.9495   43.4211   57.6376 C   0  0  0  0  0  0  0  0  0  0  0  0
   70.9080   42.5988   57.4963 O   0  0  0  0  0  0  0  0  0  0  0  0
   68.6620   42.8579   57.5797 N   0  0  0  0  0  0  0  0  0  0  0  0
   68.4791   41.4231   57.3689 C   0  0  0  0  0  0  0  0  0  0  0  0
   67.6198   41.1582   56.2117 C   0  0  0  0  0  0  0  0  0  0  0  0
   67.7569   40.0911   55.5757 O   0  0  0  0  0  0  0  0  0  0  0  0
   66.6570   42.0679   55.8095 O   0  0  0  0  0  0  0  0  0  0  0  0
   68.5382   47.9564   55.6587 O   0  0  0  0  0  0  0  0  0  0  0  0
   68.9091   47.8543   54.3278 C   0  0  0  0  0  0  0  0  0  0  0  0
   68.3279   46.9019   53.5170 C   0  0  0  0  0  0  0  0  0  0  0  0
   68.7001   46.8034   52.1921 C   0  0  0  0  0  0  0  0  0  0  0  0
   69.6459   47.6257   51.6170 C   0  0  0  0  0  0  0  0  0  0  0  0
   70.2172   48.5728   52.4420 C   0  0  0  0  0  0  0  0  0  0  0  0
   69.8558   48.6824   53.7641 C   0  0  0  0  0  0  0  0  0  0  0  0
  1  2  1  0
  2  3  2  0
  2 12  1  0
  3  4  1  0
  4 13  1  0
  4  5  2  0
 13 14  2  0
 13 15  1  0
 15 16  1  0
 16 17  1  0
 17 18  2  0
 17 19  1  0
  5  6  1  0
  5  7  1  0
  7  8  1  0
  7 12  2  0
  8 20  1  0
  8  9  2  0
 20 21  1  0
 21 22  2  0
 21 26  1  0
 22 23  1  0
 23 24  2  0
 24 25  1  0
 25 26  2  0
  9 10  1  0
 10 11  2  0
 11 12  1  0
M  END
>  <minimizedAffinity>  (734) 
-8.56465

$$$$
data/reference_output_2/data/smiles/153847.pdb
     RDKit          3D

 28 31  0  0  0  0  0  0  0  0999 V2000
   68.2510   45.7334   52.8931 C   0  0  0  0  0  0  0  0  0  0  0  0
   68.7093   47.1577   53.1016 C   0  0  0  0  0  0  0  0  0  0  0  0
   69.0425   47.9453   52.0281 C   0  0  0  0  0  0  0  0  0  0  0  0
   69.4626   49.2332   52.2230 C   0  0  0  0  0  0  0  0  0  0  0  0
   69.8052   50.0273   51.1657 F   0  0  0  0  0  0  0  0  0  0  0  0
   69.5675   49.7898   53.4995 C   0  0  0  0  0  0  0  0  0  0  0  0
   69.2287   48.9676   54.5439 C   0  0  0  0  0  0  0  0  0  0  0  0
   68.8051   47.6751   54.3804 C   0  0  0  0  0  0  0  0  0  0  0  0
   69.9941   51.2259   53.6645 C   0  0  2  0  0  0  0  0  0  0  0  0
   71.3568   51.2340   53.6537 O   0  0  0  0  0  0  0  0  0  0  0  0
   72.0434   51.7172   54.7014 C   0  0  1  0  0  0  0  0  0  0  0  0
   71.4634   51.4081   56.0586 C   0  0  1  0  0  0  0  0  0  0  0  0
   72.2122   52.1102   57.0024 O   0  0  0  0  0  0  0  0  0  0  0  0
   70.0552   51.9247   56.1131 C   0  0  2  0  0  0  0  0  0  0  0  0
   69.3894   51.2148   57.1445 O   0  0  0  0  0  0  0  0  0  0  0  0
   69.3169   51.8407   54.8448 C   0  0  1  0  0  0  0  0  0  0  0  0
   68.8124   53.0812   54.4998 O   0  0  0  0  0  0  0  0  0  0  0  0
   73.4388   51.0865   54.7128 C   0  0  0  0  0  0  0  0  0  0  0  0
   73.6917   50.3494   53.5795 O   0  0  0  0  0  0  0  0  0  0  0  0
   68.3972   46.8452   55.5121 C   0  0  0  0  0  0  0  0  0  0  0  0
   69.3251   46.8415   56.6587 C   0  0  0  0  0  0  0  0  0  0  0  0
   69.7653   45.5636   57.0444 C   0  0  0  0  0  0  0  0  0  0  0  0
   70.6811   45.4242   58.0505 C   0  0  0  0  0  0  0  0  0  0  0  0
   71.2054   46.5277   58.7191 C   0  0  0  0  0  0  0  0  0  0  0  0
   70.7574   47.7663   58.3218 C   0  0  0  0  0  0  0  0  0  0  0  0
   69.8231   47.9271   57.3014 C   0  0  0  0  0  0  0  0  0  0  0  0
   71.6397   48.4057   59.3099 C   0  0  0  0  0  0  0  0  0  0  0  0
   72.1150   47.0495   59.7822 C   0  0  0  0  0  0  0  0  0  0  0  0
  1  2  1  0
  2  3  2  0
  2  8  1  0
  3  4  1  0
  4  5  1  0
  4  6  2  0
  9  6  1  1
  6  7  1  0
  9 10  1  0
  9 16  1  0
 10 11  1  0
 11 18  1  1
 11 12  1  0
 18 19  1  0
 12 13  1  1
 12 14  1  0
 14 15  1  1
 14 16  1  0
 16 17  1  6
  7  8  2  0
  8 20  1  0
 20 21  1  0
 21 22  2  0
 21 26  1  0
 22 23  1  0
 23 24  2  0
 24 25  1  0
 24 28  1  0
 25 26  2  0
 25 27  1  0
 27 28  1  0
M  END
>  <minimizedAffinity>  (735) 
-8.56419

$$$$
data/200k_reference_output/data/smiles/35546.pdb
     RDKit          3D

 27 30  0  0  0  0  0  0  0  0999 V2000
   73.3195   35.6188   53.9971 C   0  0  0  0  0  0  0  0  0  0  0  0
   74.6302   35.3392   54.6285 C   0  0  0  0  0  0  0  0  0  0  0  0
   75.8281   35.2782   53.9935 C   0  0  0  0  0  0  0  0  0  0  0  0
   76.7224   34.9757   54.9969 N   0  0  0  0  0  0  0  0  0  0  0  0
   78.0760   34.8145   54.8100 O   0  0  0  0  0  0  0  0  0  0  0  0
   76.0730   34.8685   56.1607 C   0  0  0  0  0  0  0  0  0  0  0  0
   74.7729   35.0881   55.9679 N   0  0  0  0  0  0  0  0  0  0  0  0
   73.7201   35.0714   56.9470 C   0  0  0  0  0  0  0  0  0  0  0  0
   73.3188   33.8831   57.5297 C   0  0  0  0  0  0  0  0  0  0  0  0
   72.3117   33.8553   58.4679 C   0  0  0  0  0  0  0  0  0  0  0  0
   71.6627   35.0064   58.8649 C   0  0  0  0  0  0  0  0  0  0  0  0
   70.6960   34.9858   59.7641 O   0  0  0  0  0  0  0  0  0  0  0  0
   70.0678   36.0540   60.1566 C   0  0  0  0  0  0  0  0  0  0  0  0
   70.3980   37.2862   59.6313 C   0  0  0  0  0  0  0  0  0  0  0  0
   71.4034   37.3487   58.6890 C   0  0  0  0  0  0  0  0  0  0  0  0
   71.7010   38.4525   58.2163 O   0  0  0  0  0  0  0  0  0  0  0  0
   72.0596   36.2073   58.2835 C   0  0  0  0  0  0  0  0  0  0  0  0
   73.0690   36.2188   57.3461 C   0  0  0  0  0  0  0  0  0  0  0  0
   76.2442   35.4834   52.5991 C   0  0  0  0  0  0  0  0  0  0  0  0
   76.6479   36.6324   52.2417 O   0  0  0  0  0  0  0  0  0  0  0  0
   76.2434   34.5151   51.5834 N   0  0  0  0  0  0  0  0  0  0  0  0
   76.6283   34.6481   50.2514 C   0  0  0  0  0  0  0  0  0  0  0  0
   75.9051   33.9077   49.2969 C   0  0  0  0  0  0  0  0  0  0  0  0
   76.1869   33.9534   47.9507 C   0  0  0  0  0  0  0  0  0  0  0  0
   77.2095   34.7402   47.4704 C   0  0  0  0  0  0  0  0  0  0  0  0
   77.9297   35.4720   48.3804 C   0  0  0  0  0  0  0  0  0  0  0  0
   77.6296   35.4134   49.7429 C   0  0  0  0  0  0  0  0  0  0  0  0
  1  2  1  0
  2  3  2  0
  2  7  1  0
  3 19  1  0
  3  4  1  0
 19 20  2  0
 19 21  1  0
 21 22  1  0
 22 23  2  0
 22 27  1  0
 23 24  1  0
 24 25  2  0
 25 26  1  0
 26 27  2  0
  4  5  1  0
  4  6  2  0
  6  7  1  0
  7  8  1  0
  8  9  2  0
  8 18  1  0
  9 10  1  0
 10 11  2  0
 11 12  1  0
 11 17  1  0
 12 13  1  0
 13 14  2  0
 14 15  1  0
 15 16  2  0
 15 17  1  0
 17 18  2  0
M  CHG  2   4   1   5  -1
M  END
>  <minimizedAffinity>  (736) 
-8.56357

$$$$
data/reference_output_2/data/smiles/161140.pdb
     RDKit          3D

 24 25  0  0  0  0  0  0  0  0999 V2000
   68.9041   46.9854   56.5366 S   0  0  0  0  0  0  0  0  0  0  0  0
   68.6309   45.5053   56.4056 O   0  0  0  0  0  0  0  0  0  0  0  0
   67.5797   47.5689   57.0349 O   0  0  0  0  0  0  0  0  0  0  0  0
   70.1635   47.3133   57.7148 C   0  0  0  0  0  0  0  0  0  0  0  0
   70.7802   46.2556   58.3838 C   0  0  0  0  0  0  0  0  0  0  0  0
   71.7792   46.4500   59.3125 C   0  0  0  0  0  0  0  0  0  0  0  0
   72.2172   47.7187   59.6240 C   0  0  0  0  0  0  0  0  0  0  0  0
   71.6163   48.7702   58.9706 C   0  0  0  0  0  0  0  0  0  0  0  0
   70.6043   48.5757   58.0294 C   0  0  0  0  0  0  0  0  0  0  0  0
   73.3016   47.9469   60.6307 C   0  0  0  0  0  0  0  0  0  0  0  0
   74.4229   47.2285   60.3437 F   0  0  0  0  0  0  0  0  0  0  0  0
   73.5432   49.3080   60.7567 F   0  0  0  0  0  0  0  0  0  0  0  0
   72.8120   47.5036   61.8525 F   0  0  0  0  0  0  0  0  0  0  0  0
   69.2539   47.6310   54.9885 N   0  0  0  0  0  0  0  0  0  0  0  0
   68.9603   47.6459   52.5799 C   0  0  0  0  0  0  0  0  0  0  0  0
   68.4564   47.0695   51.4511 C   0  0  0  0  0  0  0  0  0  0  0  0
   67.7276   45.8938   51.4807 C   0  0  0  0  0  0  0  0  0  0  0  0
   67.5131   45.3009   52.7024 C   0  0  0  0  0  0  0  0  0  0  0  0
   68.0178   45.8770   53.8451 C   0  0  0  0  0  0  0  0  0  0  0  0
   68.7437   47.0464   53.8143 C   0  0  0  0  0  0  0  0  0  0  0  0
   69.7709   49.7972   50.9560 N   0  0  0  0  0  0  0  0  0  0  0  0
   69.8786   49.1403   52.5490 S   0  0  0  0  0  0  0  0  0  0  0  0
   71.2918   48.8761   52.9275 O   0  0  0  0  0  0  0  0  0  0  0  0
   69.2762   50.0826   53.5605 O   0  0  0  0  0  0  0  0  0  0  0  0
 21 22  1  0
 22 23  2  0
 22 24  2  0
 22 15  1  0
 15 16  2  0
 15 20  1  0
 16 17  1  0
 17 18  2  0
 18 19  1  0
 19 20  2  0
 20 14  1  0
 14  1  1  0
  1  2  2  0
  1  3  2  0
  1  4  1  0
  4  5  2  0
  4  9  1  0
  5  6  1  0
  6  7  2  0
  7 10  1  0
  7  8  1  0
 10 11  1  0
 10 12  1  0
 10 13  1  0
  8  9  2  0
M  END
>  <minimizedAffinity>  (737) 
-8.56349

$$$$
data/reference_output_2/data/smiles/165971.pdb
     RDKit          3D

 27 29  0  0  0  0  0  0  0  0999 V2000
   67.6142   43.4890   55.5641 N   0  0  0  0  0  0  0  0  0  0  0  0
   67.7666   42.3255   56.2106 C   0  0  0  0  0  0  0  0  0  0  0  0
   68.6378   42.4081   57.3505 C   0  0  0  0  0  0  0  0  0  0  0  0
   69.8820   42.8158   57.1379 N   0  0  0  0  0  0  0  0  0  0  0  0
   70.8584   42.9607   58.1443 C   0  0  0  0  0  0  0  0  0  0  0  0
   70.9066   44.4224   58.6148 C   0  0  0  0  0  0  0  0  0  0  0  0
   72.2612   42.7299   57.5406 C   0  0  0  0  0  0  0  0  0  0  0  0
   70.6683   42.0569   59.3107 C   0  0  0  0  0  0  0  0  0  0  0  0
   69.2476   42.0343   59.7247 C   0  0  0  0  0  0  0  0  0  0  0  0
   68.8820   41.9287   61.0586 C   0  0  0  0  0  0  0  0  0  0  0  0
   67.5648   41.8060   61.4437 C   0  0  0  0  0  0  0  0  0  0  0  0
   66.6111   41.7925   60.4515 C   0  0  0  0  0  0  0  0  0  0  0  0
   66.9918   41.9033   59.1143 C   0  0  0  0  0  0  0  0  0  0  0  0
   68.3107   42.0254   58.7126 C   0  0  0  0  0  0  0  0  0  0  0  0
   67.1584   41.2360   55.5073 C   0  0  0  0  0  0  0  0  0  0  0  0
   66.0250   41.1600   54.7135 N   0  0  0  0  0  0  0  0  0  0  0  0
   67.7583   40.0615   55.6052 O   0  0  0  0  0  0  0  0  0  0  0  0
   68.1180   44.6567   56.0640 N   0  0  0  0  0  0  0  0  0  0  0  0
   69.1177   47.8583   53.4612 C   0  0  0  0  0  0  0  0  0  0  0  0
   69.3251   47.9217   54.8230 C   0  0  0  0  0  0  0  0  0  0  0  0
   69.0118   46.9068   55.6738 C   0  0  0  0  0  0  0  0  0  0  0  0
   68.4516   45.7298   55.1883 C   0  0  0  0  0  0  0  0  0  0  0  0
   68.2391   45.6552   53.8258 C   0  0  0  0  0  0  0  0  0  0  0  0
   68.5623   46.6952   52.9703 C   0  0  0  0  0  0  0  0  0  0  0  0
   69.6503   50.3068   53.1636 C   0  0  0  0  0  0  0  0  0  0  0  0
   69.4670   48.9659   52.5932 C   0  0  0  0  0  0  0  0  0  0  0  0
   69.6081   48.7592   51.3703 O   0  0  0  0  0  0  0  0  0  0  0  0
 25 26  1  0
 26 27  2  0
 26 19  1  0
 19 20  2  0
 19 24  1  0
 20 21  1  0
 21 22  2  0
 22 18  1  0
 22 23  1  0
 18  1  1  0
  1  2  2  0
  2 15  1  0
  2  3  1  0
 15 16  1  0
 15 17  2  0
  3  4  2  0
  3 14  1  0
  4  5  1  0
  5  6  1  0
  5  7  1  0
  5  8  1  0
  8  9  1  0
  9 10  2  0
  9 14  1  0
 10 11  1  0
 11 12  2  0
 12 13  1  0
 13 14  2  0
 23 24  2  0
M  END
>  <minimizedAffinity>  (738) 
-8.56258

$$$$
data/reference_output_2/data/smiles/163306.pdb
     RDKit          3D

 27 30  0  0  0  0  0  0  0  0999 V2000
   70.3785   44.9774   57.6347 C   0  0  0  0  0  0  0  0  0  0  0  0
   70.9085   46.0520   58.3051 C   0  0  0  0  0  0  0  0  0  0  0  0
   70.4208   47.3466   58.0661 C   0  0  0  0  0  0  0  0  0  0  0  0
   70.9562   48.4004   58.7378 N   0  0  0  0  0  0  0  0  0  0  0  0
   70.4992   49.6464   58.5197 C   0  0  0  0  0  0  0  0  0  0  0  0
   69.4885   49.8931   57.6224 C   0  0  0  0  0  0  0  0  0  0  0  0
   68.9364   48.8238   56.9339 C   0  0  0  0  0  0  0  0  0  0  0  0
   69.4161   47.5521   57.1688 C   0  0  0  0  0  0  0  0  0  0  0  0
   68.8794   46.4313   56.4852 C   0  0  0  0  0  0  0  0  0  0  0  0
   69.3938   45.2258   56.7621 N   0  0  0  0  0  0  0  0  0  0  0  0
   70.3653   41.2378   58.0669 C   0  0  0  0  0  0  0  0  0  0  0  0
   69.9859   42.5416   57.8648 C   0  0  0  0  0  0  0  0  0  0  0  0
   70.8797   43.6031   57.8566 C   0  0  0  0  0  0  0  0  0  0  0  0
   72.1965   43.2988   58.0641 C   0  0  0  0  0  0  0  0  0  0  0  0
   72.6436   41.9968   58.2742 C   0  0  0  0  0  0  0  0  0  0  0  0
   71.7020   40.9970   58.2695 C   0  0  0  0  0  0  0  0  0  0  0  0
   72.0954   39.7213   58.4708 F   0  0  0  0  0  0  0  0  0  0  0  0
   68.1312   40.4603   57.5575 C   0  0  0  0  0  0  0  0  0  0  0  0
   69.4220   40.1914   58.0668 O   0  0  0  0  0  0  0  0  0  0  0  0
   67.8886   46.6494   55.5942 O   0  0  0  0  0  0  0  0  0  0  0  0
   67.7172   46.2967   54.3123 C   0  0  0  0  0  0  0  0  0  0  0  0
   68.6595   46.6658   53.2459 C   0  0  1  0  0  0  0  0  0  0  0  0
   68.3050   46.4912   51.8251 C   0  0  0  0  0  0  0  0  0  0  0  0
   69.5166   47.0967   51.1963 N   0  0  0  0  0  0  0  0  0  0  0  0
   69.9701   48.1392   52.0367 C   0  0  0  0  0  0  0  0  0  0  0  0
   70.9180   48.9463   51.8792 O   0  0  0  0  0  0  0  0  0  0  0  0
   69.0771   48.1470   53.2569 C   0  0  0  0  0  0  0  0  0  0  0  0
 18 19  1  0
 19 11  1  0
 11 12  2  0
 11 16  1  0
 12 13  1  0
 13  1  1  0
 13 14  2  0
  1  2  2  0
  1 10  1  0
  2  3  1  0
  3  4  2  0
  3  8  1  0
  4  5  1  0
  5  6  2  0
  6  7  1  0
  7  8  2  0
  8  9  1  0
  9 20  1  0
  9 10  2  0
 20 21  1  0
 22 21  1  1
 22 23  1  0
 22 27  1  0
 23 24  1  0
 24 25  1  0
 25 26  2  0
 25 27  1  0
 14 15  1  0
 15 16  2  0
 16 17  1  0
M  END
>  <minimizedAffinity>  (739) 
-8.56213

$$$$
data/200k_reference_output/data/smiles/12973.pdb
     RDKit          3D

 24 26  0  0  0  0  0  0  0  0999 V2000
   69.7109   50.2607   53.1000 C   0  0  0  0  0  0  0  0  0  0  0  0
   70.3422   50.5740   54.4260 C   0  0  1  0  0  0  0  0  0  0  0  0
   71.3388   49.6433   54.6727 O   0  0  0  0  0  0  0  0  0  0  0  0
   70.9640   51.9149   54.3559 C   0  0  0  0  0  0  0  0  0  0  0  0
   71.8419   52.2307   53.5149 O   0  0  0  0  0  0  0  0  0  0  0  0
   70.3723   52.6870   55.3858 N   0  0  0  0  0  0  0  0  0  0  0  0
   69.4375   51.8676   56.0911 C   0  0  0  0  0  0  0  0  0  0  0  0
   68.6527   52.2179   57.1679 C   0  0  0  0  0  0  0  0  0  0  0  0
   67.8056   51.2987   57.7454 C   0  0  0  0  0  0  0  0  0  0  0  0
   67.7829   50.0329   57.1980 C   0  0  0  0  0  0  0  0  0  0  0  0
   66.6158   48.7157   57.9690 Br  0  0  0  0  0  0  0  0  0  0  0  0
   68.5770   49.6712   56.1040 C   0  0  0  0  0  0  0  0  0  0  0  0
   69.4143   50.6020   55.5446 C   0  0  0  0  0  0  0  0  0  0  0  0
   71.1011   48.8016   51.9060 O   0  0  0  0  0  0  0  0  0  0  0  0
   70.0218   48.9405   52.5808 C   0  0  0  0  0  0  0  0  0  0  0  0
   69.2157   47.7376   52.7529 C   0  0  0  0  0  0  0  0  0  0  0  0
   68.5769   47.1762   51.6636 C   0  0  0  0  0  0  0  0  0  0  0  0
   67.8140   46.0431   51.7987 C   0  0  0  0  0  0  0  0  0  0  0  0
   67.6386   45.4035   53.0061 C   0  0  0  0  0  0  0  0  0  0  0  0
   68.2858   45.9803   54.0849 C   0  0  0  0  0  0  0  0  0  0  0  0
   69.0576   47.1183   53.9723 C   0  0  0  0  0  0  0  0  0  0  0  0
   68.1484   45.3713   55.3664 N   0  0  0  0  0  0  0  0  0  0  0  0
   68.3809   46.0340   56.4071 O   0  0  0  0  0  0  0  0  0  0  0  0
   67.7579   44.0478   55.4653 O   0  0  0  0  0  0  0  0  0  0  0  0
 14 15  2  0
 15  1  1  0
 15 16  1  0
  1  2  1  0
  2  3  1  1
  2  4  1  0
  2 13  1  0
  4  5  2  0
  4  6  1  0
  6  7  1  0
  7  8  1  0
  7 13  2  0
  8  9  2  0
  9 10  1  0
 10 11  1  0
 10 12  2  0
 12 13  1  0
 16 17  2  0
 16 21  1  0
 17 18  1  0
 18 19  2  0
 19 20  1  0
 20 22  1  0
 20 21  2  0
 22 23  2  0
 22 24  1  0
M  CHG  2  22   1  24  -1
M  END
>  <minimizedAffinity>  (740) 
-8.56209

$$$$
data/200k_reference_output/data/smiles/41821.pdb
     RDKit          3D

 26 29  0  0  0  0  0  0  0  0999 V2000
   72.4814   51.2530   54.8411 C   0  0  2  0  0  0  0  0  0  0  0  0
   70.4073   51.1363   53.0405 O   0  0  0  0  0  0  0  0  0  0  0  0
   70.7003   50.0360   53.5951 C   0  0  0  0  0  0  0  0  0  0  0  0
   71.7612   50.0495   54.5294 N   0  0  0  0  0  0  0  0  0  0  0  0
   69.9970   48.8074   53.3023 C   0  0  0  0  0  0  0  0  0  0  0  0
   69.9488   48.2391   52.0519 C   0  0  0  0  0  0  0  0  0  0  0  0
   69.2696   47.0843   51.7813 C   0  0  0  0  0  0  0  0  0  0  0  0
   68.5953   46.4362   52.7758 C   0  0  0  0  0  0  0  0  0  0  0  0
   68.6109   46.9649   54.0566 C   0  0  0  0  0  0  0  0  0  0  0  0
   69.2984   48.1269   54.3152 C   0  0  0  0  0  0  0  0  0  0  0  0
   67.8467   46.1042   54.8628 O   0  0  0  0  0  0  0  0  0  0  0  0
   67.5762   44.9200   54.1701 C   0  0  0  0  0  0  0  0  0  0  0  0
   67.8367   45.2882   52.8303 O   0  0  0  0  0  0  0  0  0  0  0  0
   73.9528   51.0508   54.8060 C   0  0  0  0  0  0  0  0  0  0  0  0
   74.3837   50.1129   54.0886 O   0  0  0  0  0  0  0  0  0  0  0  0
   74.8657   51.8155   55.5026 O   0  0  0  0  0  0  0  0  0  0  0  0
   72.1281   51.7198   56.2217 C   0  0  0  0  0  0  0  0  0  0  0  0
   70.7036   52.0091   56.4201 C   0  0  0  0  0  0  0  0  0  0  0  0
   70.0959   53.2270   56.1116 C   0  0  0  0  0  0  0  0  0  0  0  0
   68.8094   53.1225   56.3891 N   0  0  0  0  0  0  0  0  0  0  0  0
   68.5471   51.8997   56.8645 C   0  0  0  0  0  0  0  0  0  0  0  0
   67.3429   51.3730   57.2843 C   0  0  0  0  0  0  0  0  0  0  0  0
   67.3440   50.0708   57.7492 C   0  0  0  0  0  0  0  0  0  0  0  0
   68.5147   49.3451   57.7832 C   0  0  0  0  0  0  0  0  0  0  0  0
   69.7052   49.8784   57.3632 C   0  0  0  0  0  0  0  0  0  0  0  0
   69.7218   51.1731   56.8968 C   0  0  0  0  0  0  0  0  0  0  0  0
  2  3  2  0
  3  4  1  0
  3  5  1  0
  4  1  1  0
  1 17  1  1
  1 14  1  0
 17 18  1  0
 18 19  2  0
 18 26  1  0
 19 20  1  0
 20 21  1  0
 21 22  1  0
 21 26  2  0
 22 23  2  0
 23 24  1  0
 24 25  2  0
 25 26  1  0
 14 15  2  0
 14 16  1  0
  5  6  2  0
  5 10  1  0
  6  7  1  0
  7  8  2  0
  8  9  1  0
  8 13  1  0
  9 10  2  0
  9 11  1  0
 11 12  1  0
 12 13  1  0
M  END
>  <minimizedAffinity>  (741) 
-8.56206

$$$$
data/reference_output_2/data/smiles/109389.pdb
     RDKit          3D

 27 30  0  0  0  0  0  0  0  0999 V2000
   70.7786   45.0506   58.1038 C   0  0  0  0  0  0  0  0  0  0  0  0
   71.8491   45.5726   58.8109 C   0  0  0  0  0  0  0  0  0  0  0  0
   72.1244   46.9238   58.7880 C   0  0  0  0  0  0  0  0  0  0  0  0
   71.3170   47.7901   58.0450 C   0  0  0  0  0  0  0  0  0  0  0  0
   70.2525   47.2988   57.3383 C   0  0  0  0  0  0  0  0  0  0  0  0
   70.0108   45.9438   57.3855 C   0  0  0  0  0  0  0  0  0  0  0  0
   69.6520   43.0294   59.0789 C   0  0  0  0  0  0  0  0  0  0  0  0
   69.1586   43.7437   59.9863 O   0  0  0  0  0  0  0  0  0  0  0  0
   70.4756   43.6612   58.1122 N   0  0  0  0  0  0  0  0  0  0  0  0
   67.7662   38.9209   57.4964 O   0  0  0  0  0  0  0  0  0  0  0  0
   68.5882   39.7707   57.9105 C   0  0  0  0  0  0  0  0  0  0  0  0
   69.9693   39.4256   58.3725 C   0  0  0  0  0  0  0  0  0  0  0  0
   70.5754   40.7507   58.7878 C   0  0  0  0  0  0  0  0  0  0  0  0
   69.3482   41.5876   59.0739 C   0  0  2  0  0  0  0  0  0  0  0  0
   68.4414   41.1943   58.0438 N   0  0  0  0  0  0  0  0  0  0  0  0
   69.3938   48.1802   56.5573 C   0  0  0  0  0  0  0  0  0  0  0  0
   69.6893   48.2951   55.1220 C   0  0  0  0  0  0  0  0  0  0  0  0
   70.6346   49.2085   54.7169 N   0  0  0  0  0  0  0  0  0  0  0  0
   70.9373   49.3600   53.4483 N   0  0  0  0  0  0  0  0  0  0  0  0
   70.3636   48.6525   52.4684 C   0  0  0  0  0  0  0  0  0  0  0  0
   70.6456   48.7884   51.2480 O   0  0  0  0  0  0  0  0  0  0  0  0
   69.3931   47.7025   52.7904 C   0  0  0  0  0  0  0  0  0  0  0  0
   69.0850   47.5538   54.1335 C   0  0  0  0  0  0  0  0  0  0  0  0
   68.0644   46.5602   54.5869 C   0  0  0  0  0  0  0  0  0  0  0  0
   67.2176   46.1017   53.4099 C   0  0  0  0  0  0  0  0  0  0  0  0
   68.1483   45.6722   52.2702 C   0  0  0  0  0  0  0  0  0  0  0  0
   68.7345   46.9270   51.7154 C   0  0  0  0  0  0  0  0  0  0  0  0
 10 11  2  0
 11 12  1  0
 11 15  1  0
 12 13  1  0
 13 14  1  0
 14  7  1  6
 14 15  1  0
  7  8  2  0
  7  9  1  0
  9  1  1  0
  1  2  2  0
  1  6  1  0
  2  3  1  0
  3  4  2  0
  4  5  1  0
  5 16  1  0
  5  6  2  0
 16 17  1  0
 17 18  2  0
 17 23  1  0
 18 19  1  0
 19 20  1  0
 20 21  2  0
 20 22  1  0
 22 23  2  0
 22 27  1  0
 23 24  1  0
 24 25  1  0
 25 26  1  0
 26 27  1  0
M  END
>  <minimizedAffinity>  (742) 
-8.56160

$$$$
data/reference_output_2/data/smiles/117006.pdb
     RDKit          3D

 27 29  0  0  0  0  0  0  0  0999 V2000
   69.2972   46.2847   57.8148 O   0  0  0  0  0  0  0  0  0  0  0  0
   69.5344   48.8646   51.8357 C   0  0  0  0  0  0  0  0  0  0  0  0
   68.8864   47.6484   52.3868 C   0  0  0  0  0  0  0  0  0  0  0  0
   68.1659   46.8374   51.5365 C   0  0  0  0  0  0  0  0  0  0  0  0
   67.5835   45.7225   52.0914 C   0  0  0  0  0  0  0  0  0  0  0  0
   66.9179   44.9714   51.3099 O   0  0  0  0  0  0  0  0  0  0  0  0
   67.6930   45.4220   53.3689 O   0  0  0  0  0  0  0  0  0  0  0  0
   68.3685   46.1648   54.2182 C   0  0  0  0  0  0  0  0  0  0  0  0
   68.4634   45.8166   55.5628 C   0  0  0  0  0  0  0  0  0  0  0  0
   69.1668   46.5858   56.4585 C   0  0  0  0  0  0  0  0  0  0  0  0
   69.7817   47.7340   55.9457 C   0  0  0  0  0  0  0  0  0  0  0  0
   70.6833   48.7304   57.0616 Cl  0  0  0  0  0  0  0  0  0  0  0  0
   69.6795   48.0649   54.6136 C   0  0  0  0  0  0  0  0  0  0  0  0
   68.9742   47.2948   53.7159 C   0  0  0  0  0  0  0  0  0  0  0  0
   70.3859   45.5709   58.3325 C   0  0  0  0  0  0  0  0  0  0  0  0
   70.1005   44.1246   58.5519 C   0  0  0  0  0  0  0  0  0  0  0  0
   69.7061   43.7084   59.6701 O   0  0  0  0  0  0  0  0  0  0  0  0
   70.2593   43.1643   57.5184 N   0  0  0  0  0  0  0  0  0  0  0  0
   69.9685   41.8051   57.8026 C   0  0  0  0  0  0  0  0  0  0  0  0
   70.9498   41.0012   58.3464 C   0  0  0  0  0  0  0  0  0  0  0  0
   70.6681   39.6803   58.6233 C   0  0  0  0  0  0  0  0  0  0  0  0
   69.4416   39.1277   58.3764 C   0  0  0  0  0  0  0  0  0  0  0  0
   68.4663   39.9385   57.8329 C   0  0  0  0  0  0  0  0  0  0  0  0
   68.7206   41.2815   57.5409 C   0  0  0  0  0  0  0  0  0  0  0  0
   67.6450   42.0799   56.9676 C   0  0  0  0  0  0  0  0  0  0  0  0
   67.8174   42.7965   55.7603 N   0  0  0  0  0  0  0  0  0  0  0  0
   66.5521   42.1179   57.5739 O   0  0  0  0  0  0  0  0  0  0  0  0
  2  3  1  0
  3  4  2  0
  3 14  1  0
  4  5  1  0
  5  6  2  0
  5  7  1  0
  7  8  1  0
  8  9  1  0
  8 14  2  0
  9 10  2  0
 10  1  1  0
 10 11  1  0
  1 15  1  0
 15 16  1  0
 16 17  2  0
 16 18  1  0
 18 19  1  0
 19 20  2  0
 19 24  1  0
 20 21  1  0
 21 22  2  0
 22 23  1  0
 23 24  2  0
 24 25  1  0
 25 26  1  0
 25 27  2  0
 11 12  1  0
 11 13  2  0
 13 14  1  0
M  END
>  <minimizedAffinity>  (743) 
-8.56144

$$$$
data/reference_output_2/data/smiles/97727.pdb
     RDKit          3D

 26 29  0  0  0  0  0  0  0  0999 V2000
   71.5135   44.2197   58.8650 C   0  0  0  0  0  0  0  0  0  0  0  0
   70.3932   44.0437   57.9004 N   0  0  0  0  0  0  0  0  0  0  0  0
   69.8185   45.0435   57.3393 N   0  0  0  0  0  0  0  0  0  0  0  0
   68.9174   45.0924   56.5539 C   0  0  0  0  0  0  0  0  0  0  0  0
   68.6161   43.2274   56.4095 S   0  0  0  0  0  0  0  0  0  0  0  0
   69.9434   42.8450   57.5860 C   0  0  0  0  0  0  0  0  0  0  0  0
   70.2627   41.4725   57.9518 C   0  0  0  0  0  0  0  0  0  0  0  0
   69.2153   40.5430   58.0320 C   0  0  0  0  0  0  0  0  0  0  0  0
   69.4097   39.2229   58.3664 C   0  0  0  0  0  0  0  0  0  0  0  0
   70.6636   38.7317   58.6448 C   0  0  0  0  0  0  0  0  0  0  0  0
   71.7020   39.6223   58.5715 C   0  0  0  0  0  0  0  0  0  0  0  0
   71.4930   40.9672   58.2300 C   0  0  0  0  0  0  0  0  0  0  0  0
   70.8747   37.3294   59.0003 C   0  0  0  0  0  0  0  0  0  0  0  0
   71.7806   36.7001   58.4020 O   0  0  0  0  0  0  0  0  0  0  0  0
   70.1378   36.6609   59.9536 O   0  0  0  0  0  0  0  0  0  0  0  0
   68.0924   45.9528   55.7839 N   0  0  0  0  0  0  0  0  0  0  0  0
   68.2368   46.2472   54.4140 C   0  0  0  0  0  0  0  0  0  0  0  0
   67.6658   45.3811   53.4574 C   0  0  0  0  0  0  0  0  0  0  0  0
   67.7761   45.6306   52.1079 C   0  0  0  0  0  0  0  0  0  0  0  0
   68.4555   46.7477   51.6788 C   0  0  0  0  0  0  0  0  0  0  0  0
   69.0171   47.6029   52.5935 C   0  0  0  0  0  0  0  0  0  0  0  0
   69.6799   48.7205   52.1081 C   0  0  0  0  0  0  0  0  0  0  0  0
   70.2359   49.5935   53.0160 C   0  0  0  0  0  0  0  0  0  0  0  0
   70.1468   49.3837   54.3532 C   0  0  0  0  0  0  0  0  0  0  0  0
   69.4811   48.2593   54.8512 C   0  0  0  0  0  0  0  0  0  0  0  0
   68.9136   47.3633   53.9730 C   0  0  0  0  0  0  0  0  0  0  0  0
  1  2  1  0
  2  3  1  0
  2  6  2  0
  3  4  2  0
  4 16  1  0
  4  5  1  0
 16 17  1  0
 17 18  2  0
 17 26  1  0
 18 19  1  0
 19 20  2  0
 20 21  1  0
 21 22  1  0
 21 26  2  0
 22 23  2  0
 23 24  1  0
 24 25  2  0
 25 26  1  0
  5  6  1  0
  6  7  1  0
  7  8  2  0
  7 12  1  0
  8  9  1  0
  9 10  2  0
 10 13  1  0
 10 11  1  0
 13 14  2  0
 13 15  1  0
 11 12  2  0
M  CHG  1   2   1
M  END
>  <minimizedAffinity>  (744) 
-8.56110

$$$$
data/reference_output_2/data/smiles/199031.pdb
     RDKit          3D

 28 31  0  0  0  0  0  0  0  0999 V2000
   67.2184   43.0092   56.6540 O   0  0  0  0  0  0  0  0  0  0  0  0
   68.4967   42.9930   56.9075 C   0  0  0  0  0  0  0  0  0  0  0  0
   68.9843   41.7945   57.4132 N   0  0  0  0  0  0  0  0  0  0  0  0
   70.3574   41.6210   57.8078 C   0  0  0  0  0  0  0  0  0  0  0  0
   70.4291   40.5991   58.9761 C   0  0  0  0  0  0  0  0  0  0  0  0
   69.9232   39.3709   58.4749 N   0  0  0  0  0  0  0  0  0  0  0  0
   68.7625   39.3622   57.6093 C   0  0  0  0  0  0  0  0  0  0  0  0
   68.0337   40.6736   57.5382 C   0  0  0  0  0  0  0  0  0  0  0  0
   70.4898   38.1006   58.7790 C   0  0  0  0  0  0  0  0  0  0  0  0
   71.5390   37.5687   58.0616 C   0  0  0  0  0  0  0  0  0  0  0  0
   72.0844   36.3366   58.3535 C   0  0  0  0  0  0  0  0  0  0  0  0
   71.5748   35.5946   59.3987 C   0  0  0  0  0  0  0  0  0  0  0  0
   72.0793   34.3706   59.7288 F   0  0  0  0  0  0  0  0  0  0  0  0
   70.5350   36.1037   60.1219 C   0  0  0  0  0  0  0  0  0  0  0  0
   69.9944   37.3585   59.8089 C   0  0  0  0  0  0  0  0  0  0  0  0
   69.1614   44.2494   56.6069 C   0  0  0  0  0  0  0  0  0  0  0  0
   68.4337   45.3327   56.1852 O   0  0  0  0  0  0  0  0  0  0  0  0
   68.3464   45.8672   54.9383 C   0  0  0  0  0  0  0  0  0  0  0  0
   67.7231   45.1718   53.9275 C   0  0  0  0  0  0  0  0  0  0  0  0
   67.6196   45.6987   52.6375 C   0  0  0  0  0  0  0  0  0  0  0  0
   67.0553   45.0809   51.7056 O   0  0  0  0  0  0  0  0  0  0  0  0
   68.1234   46.8734   52.3926 O   0  0  0  0  0  0  0  0  0  0  0  0
   68.7146   47.5506   53.3196 C   0  0  0  0  0  0  0  0  0  0  0  0
   69.2341   48.7921   53.0103 C   0  0  0  0  0  0  0  0  0  0  0  0
   69.8773   49.5814   53.9274 C   0  0  0  0  0  0  0  0  0  0  0  0
   70.0060   49.1042   55.2179 C   0  0  0  0  0  0  0  0  0  0  0  0
   69.5094   47.8758   55.5851 C   0  0  0  0  0  0  0  0  0  0  0  0
   68.8655   47.1053   54.6324 C   0  0  0  0  0  0  0  0  0  0  0  0
  1  2  2  0
  2 16  1  0
  2  3  1  0
 16 17  1  0
 17 18  1  0
 18 19  2  0
 18 28  1  0
 19 20  1  0
 20 21  2  0
 20 22  1  0
 22 23  1  0
 23 24  1  0
 23 28  2  0
 24 25  2  0
 25 26  1  0
 26 27  2  0
 27 28  1  0
  3  4  1  0
  3  8  1  0
  4  5  1  0
  5  6  1  0
  6  9  1  0
  6  7  1  0
  9 10  2  0
  9 15  1  0
 10 11  1  0
 11 12  2  0
 12 13  1  0
 12 14  1  0
 14 15  2  0
  7  8  1  0
M  END
>  <minimizedAffinity>  (745) 
-8.56079

$$$$
data/reference_output_2/data/smiles/183099.pdb
     RDKit          3D

 29 33  0  0  0  0  0  0  0  0999 V2000
   69.1190   38.7566   59.3218 C   0  0  0  0  0  0  0  0  0  0  0  0
   69.6335   39.4583   58.2607 C   0  0  0  0  0  0  0  0  0  0  0  0
   70.6978   38.7189   57.8308 N   0  0  0  0  0  0  0  0  0  0  0  0
   70.8488   37.6317   58.5595 N   0  0  0  0  0  0  0  0  0  0  0  0
   71.6060   36.5137   58.7281 C   0  0  0  0  0  0  0  0  0  0  0  0
   71.1072   35.7890   59.7910 C   0  0  0  0  0  0  0  0  0  0  0  0
   70.0606   36.4910   60.2357 N   0  0  0  0  0  0  0  0  0  0  0  0
   69.8926   37.6065   59.5011 C   0  0  0  0  0  0  0  0  0  0  0  0
   71.8194   34.5260   60.1193 C   0  0  0  0  0  0  0  0  0  0  0  0
   72.0129   33.7924   58.8077 C   0  0  0  0  0  0  0  0  0  0  0  0
   72.7523   34.5389   57.8440 N   0  0  0  0  0  0  0  0  0  0  0  0
   72.7929   35.9525   58.0353 C   0  0  0  0  0  0  0  0  0  0  0  0
   69.1979   40.7265   57.6823 C   0  0  0  0  0  0  0  0  0  0  0  0
   69.9515   41.8646   57.8415 C   0  0  0  0  0  0  0  0  0  0  0  0
   69.5618   43.0692   57.2761 C   0  0  0  0  0  0  0  0  0  0  0  0
   68.4155   43.2212   56.5291 C   0  0  0  0  0  0  0  0  0  0  0  0
   67.6512   42.0341   56.3754 C   0  0  0  0  0  0  0  0  0  0  0  0
   68.0495   40.8517   56.9388 C   0  0  0  0  0  0  0  0  0  0  0  0
   67.9742   44.3580   55.9529 O   0  0  0  0  0  0  0  0  0  0  0  0
   68.5360   45.5567   55.6639 C   0  0  0  0  0  0  0  0  0  0  0  0
   68.4439   46.0331   54.2630 C   0  0  0  0  0  0  0  0  0  0  0  0
   67.7192   45.2554   53.3444 C   0  0  0  0  0  0  0  0  0  0  0  0
   67.6208   45.6090   52.0232 C   0  0  0  0  0  0  0  0  0  0  0  0
   68.2245   46.7415   51.5245 C   0  0  0  0  0  0  0  0  0  0  0  0
   68.9361   47.5070   52.4192 C   0  0  0  0  0  0  0  0  0  0  0  0
   69.0403   47.1561   53.7528 C   0  0  0  0  0  0  0  0  0  0  0  0
   66.6618   38.8085   59.7994 N   0  0  0  0  0  0  0  0  0  0  0  0
   68.0117   39.1149   60.1626 C   0  0  0  0  0  0  0  0  0  0  0  0
   68.2065   39.7105   61.2444 O   0  0  0  0  0  0  0  0  0  0  0  0
 27 28  1  0
 28 29  2  0
 28  1  1  0
  1  2  1  0
  1  8  2  0
  2 13  1  0
  2  3  2  0
 13 14  2  0
 13 18  1  0
 14 15  1  0
 15 16  2  0
 16 19  1  0
 16 17  1  0
 19 20  1  0
 20 21  1  0
 21 22  2  0
 21 26  1  0
 22 23  1  0
 23 24  2  0
 24 25  1  0
 25 26  2  0
 17 18  2  0
  3  4  1  0
  4  5  1  0
  4  8  1  0
  5  6  2  0
  5 12  1  0
  6  7  1  0
  6  9  1  0
  7  8  1  0
  9 10  1  0
 10 11  1  0
 11 12  1  0
M  CHG  1  11   1
M  END
>  <minimizedAffinity>  (746) 
-8.56021

$$$$
data/reference_output_2/data/smiles/110072.pdb
     RDKit          3D

 27 30  0  0  0  0  0  0  0  0999 V2000
   71.1765   47.5422   57.7230 O   0  0  0  0  0  0  0  0  0  0  0  0
   71.1685   46.4527   58.5180 C   0  0  0  0  0  0  0  0  0  0  0  0
   71.1413   46.7126   59.7860 O   0  0  0  0  0  0  0  0  0  0  0  0
   68.6452   42.4357   57.0198 C   0  0  0  0  0  0  0  0  0  0  0  0
   69.9463   43.0904   57.4027 C   0  0  0  0  0  0  0  0  0  0  0  0
   70.0140   44.3995   57.7738 C   0  0  0  0  0  0  0  0  0  0  0  0
   71.1878   45.0641   58.1395 C   0  0  0  0  0  0  0  0  0  0  0  0
   72.3356   44.3319   58.1165 C   0  0  0  0  0  0  0  0  0  0  0  0
   73.5660   44.8451   58.4498 C   0  0  0  0  0  0  0  0  0  0  0  0
   74.7158   44.0615   58.4124 C   0  0  0  0  0  0  0  0  0  0  0  0
   74.6642   42.7492   58.0428 C   0  0  0  0  0  0  0  0  0  0  0  0
   73.4257   42.2429   57.7109 C   0  0  0  0  0  0  0  0  0  0  0  0
   72.2700   42.9869   57.7356 C   0  0  0  0  0  0  0  0  0  0  0  0
   71.0956   42.3963   57.3903 N   0  0  0  0  0  0  0  0  0  0  0  0
   70.8338   48.8645   58.0315 C   0  0  0  0  0  0  0  0  0  0  0  0
   69.6104   49.3327   57.2916 C   0  0  0  0  0  0  0  0  0  0  0  0
   69.3558   48.6580   56.0567 N   0  0  0  0  0  0  0  0  0  0  0  0
   68.5292   47.4860   55.8764 C   0  0  0  0  0  0  0  0  0  0  0  0
   67.9401   46.9242   56.8476 O   0  0  0  0  0  0  0  0  0  0  0  0
   68.5206   47.1251   54.4751 C   0  0  0  0  0  0  0  0  0  0  0  0
   67.8969   46.1072   53.8004 C   0  0  0  0  0  0  0  0  0  0  0  0
   68.0578   45.9923   52.4541 C   0  0  0  0  0  0  0  0  0  0  0  0
   68.8328   46.8689   51.7280 C   0  0  0  0  0  0  0  0  0  0  0  0
   69.4571   47.8892   52.4031 C   0  0  0  0  0  0  0  0  0  0  0  0
   69.2993   48.0120   53.7629 C   0  0  0  0  0  0  0  0  0  0  0  0
   69.8242   48.9758   54.7595 C   0  0  0  0  0  0  0  0  0  0  0  0
   70.5844   49.9307   54.4184 O   0  0  0  0  0  0  0  0  0  0  0  0
  4  5  1  0
  5  6  2  0
  5 14  1  0
  6  7  1  0
  7  2  1  0
  7  8  2  0
  2  3  2  0
  2  1  1  0
  1 15  1  0
 15 16  1  0
 16 17  1  0
 17 18  1  0
 17 26  1  0
 18 19  2  0
 18 20  1  0
 20 21  1  0
 20 25  2  0
 21 22  2  0
 22 23  1  0
 23 24  2  0
 24 25  1  0
 25 26  1  0
 26 27  2  0
  8  9  1  0
  8 13  1  0
  9 10  2  0
 10 11  1  0
 11 12  2  0
 12 13  1  0
 13 14  2  0
M  END
>  <minimizedAffinity>  (747) 
-8.55851

$$$$
data/reference_output_2/data/smiles/100648.pdb
     RDKit          3D

 29 31  0  0  0  0  0  0  0  0999 V2000
   68.6458   47.0982   54.1314 C   0  0  0  0  0  0  0  0  0  0  0  0
   68.0218   46.1323   53.3715 C   0  0  0  0  0  0  0  0  0  0  0  0
   68.0810   46.1468   51.9709 C   0  0  0  0  0  0  0  0  0  0  0  0
   68.7954   47.1726   51.3973 C   0  0  0  0  0  0  0  0  0  0  0  0
   69.4205   48.1388   52.1378 C   0  0  0  0  0  0  0  0  0  0  0  0
   69.3659   48.1315   53.5033 C   0  0  0  0  0  0  0  0  0  0  0  0
   70.0074   49.1242   54.3055 N   0  0  0  0  0  0  0  0  0  0  0  0
   69.5970   50.4766   54.3145 C   0  0  0  0  0  0  0  0  0  0  0  0
   68.6064   50.7394   53.5474 O   0  0  0  0  0  0  0  0  0  0  0  0
   70.1976   51.5407   55.1009 C   0  0  0  0  0  0  0  0  0  0  0  0
   71.5445   51.5625   55.3707 C   0  0  0  0  0  0  0  0  0  0  0  0
   72.1247   52.5888   56.1303 C   0  0  0  0  0  0  0  0  0  0  0  0
   71.3435   53.6092   56.6262 C   0  0  0  0  0  0  0  0  0  0  0  0
   69.9925   53.6087   56.3689 C   0  0  0  0  0  0  0  0  0  0  0  0
   69.4606   52.5847   55.6202 C   0  0  0  0  0  0  0  0  0  0  0  0
   68.6110   47.1346   55.5830 C   0  0  0  0  0  0  0  0  0  0  0  0
   68.1326   48.1580   56.1916 O   0  0  0  0  0  0  0  0  0  0  0  0
   70.0211   46.0685   57.2278 O   0  0  0  0  0  0  0  0  0  0  0  0
   69.1062   46.0356   56.3844 C   0  0  0  0  0  0  0  0  0  0  0  0
   68.5164   44.7098   56.2421 N   0  0  0  0  0  0  0  0  0  0  0  0
   68.9604   43.6203   56.9926 N   0  0  0  0  0  0  0  0  0  0  0  0
   68.4428   42.3155   56.8369 C   0  0  0  0  0  0  0  0  0  0  0  0
   67.5396   42.1722   55.9701 O   0  0  0  0  0  0  0  0  0  0  0  0
   68.8868   41.1621   57.6057 C   0  0  0  0  0  0  0  0  0  0  0  0
   68.0951   40.0352   57.6803 C   0  0  0  0  0  0  0  0  0  0  0  0
   68.4509   38.9129   58.3856 C   0  0  0  0  0  0  0  0  0  0  0  0
   69.6237   38.8961   59.0396 N   0  0  0  0  0  0  0  0  0  0  0  0
   70.4213   39.9642   58.9944 C   0  0  0  0  0  0  0  0  0  0  0  0
   70.0827   41.1171   58.2850 C   0  0  0  0  0  0  0  0  0  0  0  0
 18 19  2  0
 19 20  1  0
 19 16  1  0
 20 21  1  0
 21 22  1  0
 22 23  2  0
 22 24  1  0
 24 25  2  0
 24 29  1  0
 25 26  1  0
 26 27  2  0
 27 28  1  0
 28 29  2  0
 16 17  2  0
 16  1  1  0
  1  2  2  0
  1  6  1  0
  2  3  1  0
  3  4  2  0
  4  5  1  0
  5  6  2  0
  6  7  1  0
  7  8  1  0
  8  9  2  0
  8 10  1  0
 10 11  2  0
 10 15  1  0
 11 12  1  0
 12 13  2  0
 13 14  1  0
 14 15  2  0
M  END
>  <minimizedAffinity>  (748) 
-8.55825

$$$$
data/200k_reference_output/data/smiles/37059.pdb
     RDKit          3D

 27 29  0  0  0  0  0  0  0  0999 V2000
   70.3704   46.2088   57.8742 C   0  0  0  0  0  0  0  0  0  0  0  0
   71.1506   47.4294   57.9230 N   0  0  0  0  0  0  0  0  0  0  0  0
   70.6789   48.5543   57.2079 C   0  0  0  0  0  0  0  0  0  0  0  0
   71.3567   49.6329   57.2400 O   0  0  0  0  0  0  0  0  0  0  0  0
   72.3785   47.4935   58.6853 C   0  0  0  0  0  0  0  0  0  0  0  0
   72.2780   46.7529   59.9675 C   0  0  0  0  0  0  0  0  0  0  0  0
   71.6322   47.1622   60.9724 O   0  0  0  0  0  0  0  0  0  0  0  0
   72.9438   45.5030   60.0956 N   0  0  0  0  0  0  0  0  0  0  0  0
   72.8550   44.7835   61.3209 C   0  0  0  0  0  0  0  0  0  0  0  0
   71.8602   43.8543   61.5801 C   0  0  0  0  0  0  0  0  0  0  0  0
   71.7991   43.1697   62.7749 C   0  0  0  0  0  0  0  0  0  0  0  0
   72.7272   43.3784   63.7701 C   0  0  0  0  0  0  0  0  0  0  0  0
   73.7239   44.2987   63.5279 C   0  0  0  0  0  0  0  0  0  0  0  0
   74.6348   44.4995   64.5118 F   0  0  0  0  0  0  0  0  0  0  0  0
   73.7781   44.9813   62.3266 C   0  0  0  0  0  0  0  0  0  0  0  0
   69.4354   48.5500   56.4213 C   0  0  0  0  0  0  0  0  0  0  0  0
   69.6899   48.6478   54.9675 C   0  0  0  0  0  0  0  0  0  0  0  0
   70.4678   49.6019   54.4325 N   0  0  0  0  0  0  0  0  0  0  0  0
   70.6979   49.6904   53.1282 N   0  0  0  0  0  0  0  0  0  0  0  0
   70.1367   48.7963   52.3047 C   0  0  0  0  0  0  0  0  0  0  0  0
   70.3517   48.8745   51.0595 O   0  0  0  0  0  0  0  0  0  0  0  0
   69.3241   47.7865   52.7803 C   0  0  0  0  0  0  0  0  0  0  0  0
   68.7417   46.8626   51.9398 C   0  0  0  0  0  0  0  0  0  0  0  0
   67.9228   45.8486   52.4410 C   0  0  0  0  0  0  0  0  0  0  0  0
   67.7201   45.8078   53.8009 C   0  0  0  0  0  0  0  0  0  0  0  0
   68.2915   46.7177   54.6591 C   0  0  0  0  0  0  0  0  0  0  0  0
   69.0978   47.7144   54.1525 C   0  0  0  0  0  0  0  0  0  0  0  0
  1  2  1  0
  2  5  1  0
  2  3  1  0
  5  6  1  0
  6  7  2  0
  6  8  1  0
  8  9  1  0
  9 10  2  0
  9 15  1  0
 10 11  1  0
 11 12  2  0
 12 13  1  0
 13 14  1  0
 13 15  2  0
  3  4  2  0
  3 16  1  0
 16 17  1  0
 17 18  2  0
 17 27  1  0
 18 19  1  0
 19 20  1  0
 20 21  2  0
 20 22  1  0
 22 23  1  0
 22 27  2  0
 23 24  2  0
 24 25  1  0
 25 26  2  0
 26 27  1  0
M  END
>  <minimizedAffinity>  (749) 
-8.55743

$$$$
data/200k_reference_output/data/smiles/28036.pdb
     RDKit          3D

 26 29  0  0  0  0  0  0  0  0999 V2000
   72.5571   51.3803   54.8738 C   0  0  0  0  0  0  0  0  0  0  0  0
   72.4472   52.6347   55.4322 C   0  0  0  0  0  0  0  0  0  0  0  0
   71.2214   53.1966   55.7121 C   0  0  0  0  0  0  0  0  0  0  0  0
   70.0730   52.4984   55.4320 C   0  0  0  0  0  0  0  0  0  0  0  0
   68.8580   53.0853   55.7239 O   0  0  0  0  0  0  0  0  0  0  0  0
   70.1694   51.2444   54.8743 C   0  0  0  0  0  0  0  0  0  0  0  0
   69.2710   50.3259   54.4889 N   0  0  0  0  0  0  0  0  0  0  0  0
   69.8663   49.2251   53.9841 C   0  0  0  0  0  0  0  0  0  0  0  0
   71.1839   49.4557   54.0534 N   0  0  0  0  0  0  0  0  0  0  0  0
   71.4101   50.6683   54.5865 C   0  0  0  0  0  0  0  0  0  0  0  0
   69.1674   48.0284   53.4667 C   0  0  0  0  0  0  0  0  0  0  0  0
   68.5377   47.1542   54.3189 C   0  0  0  0  0  0  0  0  0  0  0  0
   67.8631   46.0179   53.8887 C   0  0  0  0  0  0  0  0  0  0  0  0
   67.8358   45.7749   52.5281 C   0  0  0  0  0  0  0  0  0  0  0  0
   68.4650   46.6459   51.6594 C   0  0  0  0  0  0  0  0  0  0  0  0
   69.1404   47.7852   52.1181 C   0  0  0  0  0  0  0  0  0  0  0  0
   74.0638   50.2529   53.5117 O   0  0  0  0  0  0  0  0  0  0  0  0
   73.8962   50.8349   54.6122 C   0  0  0  0  0  0  0  0  0  0  0  0
   74.9600   50.9452   55.5320 N   0  0  0  0  0  0  0  0  0  0  0  0
   76.2914   50.4374   55.3722 C   0  0  0  0  0  0  0  0  0  0  0  0
   76.8144   49.7850   56.6295 C   0  0  1  0  0  0  0  0  0  0  0  0
   78.3031   49.7341   56.5155 C   0  0  0  0  0  0  0  0  0  0  0  0
   79.0192   50.5167   57.5903 C   0  0  0  0  0  0  0  0  0  0  0  0
   78.4373   50.2358   58.9577 C   0  0  0  0  0  0  0  0  0  0  0  0
   76.9589   50.3487   58.9994 C   0  0  0  0  0  0  0  0  0  0  0  0
   76.2689   50.4076   57.7683 N   0  0  0  0  0  0  0  0  0  0  0  0
 17 18  2  0
 18 19  1  0
 18  1  1  0
 19 20  1  0
 21 20  1  6
 21 22  1  0
 21 26  1  0
 22 23  1  0
 23 24  1  0
 24 25  1  0
 25 26  1  0
  1  2  2  0
  1 10  1  0
  2  3  1  0
  3  4  2  0
  4  5  1  0
  4  6  1  0
  6  7  1  0
  6 10  2  0
  7  8  1  0
  8 11  1  0
  8  9  2  0
 11 12  2  0
 11 16  1  0
 12 13  1  0
 13 14  2  0
 14 15  1  0
 15 16  2  0
  9 10  1  0
M  CHG  2   9   1  26   1
M  END
>  <minimizedAffinity>  (750) 
-8.55725

$$$$
data/200k_reference_output/data/smiles/47218.pdb
     RDKit          3D

 25 27  0  0  0  0  0  0  0  0999 V2000
   68.9585   47.9034   55.0341 N   0  0  0  0  0  0  0  0  0  0  0  0
   69.8184   48.9665   54.8967 C   0  0  0  0  0  0  0  0  0  0  0  0
   70.3247   49.3537   53.6961 C   0  0  0  0  0  0  0  0  0  0  0  0
   69.9797   48.6741   52.5719 C   0  0  0  0  0  0  0  0  0  0  0  0
   70.4313   49.0003   51.4217 O   0  0  0  0  0  0  0  0  0  0  0  0
   69.1192   47.6075   52.6982 C   0  0  0  0  0  0  0  0  0  0  0  0
   68.7551   46.9140   51.5458 C   0  0  0  0  0  0  0  0  0  0  0  0
   67.8913   45.8506   51.6233 C   0  0  0  0  0  0  0  0  0  0  0  0
   67.3946   45.4858   52.8542 C   0  0  0  0  0  0  0  0  0  0  0  0
   67.7345   46.1515   54.0169 C   0  0  0  0  0  0  0  0  0  0  0  0
   68.6007   47.2173   53.9503 C   0  0  0  0  0  0  0  0  0  0  0  0
   71.2396   50.5007   53.6256 C   0  0  0  0  0  0  0  0  0  0  0  0
   70.8540   51.6491   53.3456 O   0  0  0  0  0  0  0  0  0  0  0  0
   72.5778   50.2979   53.8787 O   0  0  0  0  0  0  0  0  0  0  0  0
   68.4981   47.5442   56.3456 C   0  0  0  0  0  0  0  0  0  0  0  0
   71.6527   47.1436   59.2956 C   0  0  0  0  0  0  0  0  0  0  0  0
   71.1025   46.0683   58.6336 C   0  0  0  0  0  0  0  0  0  0  0  0
   70.1038   46.1994   57.7029 C   0  0  0  0  0  0  0  0  0  0  0  0
   69.5782   47.4569   57.3694 C   0  0  0  0  0  0  0  0  0  0  0  0
   70.1200   48.5290   58.0229 C   0  0  0  0  0  0  0  0  0  0  0  0
   71.1325   48.3718   58.9623 C   0  0  0  0  0  0  0  0  0  0  0  0
   73.0801   45.2934   61.0059 C   0  0  0  0  0  0  0  0  0  0  0  0
   72.9256   46.9925   60.4832 S   0  0  0  0  0  0  0  0  0  0  0  0
   72.6731   47.8686   61.6760 O   0  0  0  0  0  0  0  0  0  0  0  0
   74.2369   47.4024   59.8971 O   0  0  0  0  0  0  0  0  0  0  0  0
 22 23  1  0
 23 24  2  0
 23 25  2  0
 23 16  1  0
 16 17  2  0
 16 21  1  0
 17 18  1  0
 18 19  2  0
 19 15  1  0
 19 20  1  0
 15  1  1  0
  1  2  1  0
  1 11  1  0
  2  3  2  0
  3 12  1  0
  3  4  1  0
 12 13  2  0
 12 14  1  0
  4  5  2  0
  4  6  1  0
  6  7  1  0
  6 11  2  0
  7  8  2  0
  8  9  1  0
  9 10  2  0
 10 11  1  0
 20 21  2  0
M  END
>  <minimizedAffinity>  (751) 
-8.55638

$$$$
data/reference_output_2/data/smiles/148674.pdb
     RDKit          3D

 28 30  0  0  0  0  0  0  0  0999 V2000
   68.7172   39.5612   58.5910 N   0  0  0  0  0  0  0  0  0  0  0  0
   68.3831   40.7040   57.9647 C   0  0  0  0  0  0  0  0  0  0  0  0
   67.1454   40.9408   57.7479 O   0  0  0  0  0  0  0  0  0  0  0  0
   69.3040   41.6506   57.5361 C   0  0  0  0  0  0  0  0  0  0  0  0
   70.6193   41.3530   57.7922 C   0  0  0  0  0  0  0  0  0  0  0  0
   71.6187   42.2058   57.4181 O   0  0  0  0  0  0  0  0  0  0  0  0
   70.9592   40.1593   58.4443 C   0  0  0  0  0  0  0  0  0  0  0  0
   72.2926   39.8636   58.7031 C   0  0  0  0  0  0  0  0  0  0  0  0
   72.6619   38.6906   59.3491 C   0  0  0  0  0  0  0  0  0  0  0  0
   71.6693   37.7934   59.7466 C   0  0  0  0  0  0  0  0  0  0  0  0
   70.3445   38.0784   59.4954 C   0  0  0  0  0  0  0  0  0  0  0  0
   70.0188   39.2571   58.8490 C   0  0  0  0  0  0  0  0  0  0  0  0
   68.8236   42.8436   56.8731 C   0  0  0  0  0  0  0  0  0  0  0  0
   67.9686   42.7192   55.9217 O   0  0  0  0  0  0  0  0  0  0  0  0
   69.1954   44.1768   57.1554 N   0  0  0  0  0  0  0  0  0  0  0  0
   68.6442   45.2668   56.4220 N   0  0  0  0  0  0  0  0  0  0  0  0
   69.1974   46.5744   56.5352 C   0  0  0  0  0  0  0  0  0  0  0  0
   70.1847   46.6746   57.3172 O   0  0  0  0  0  0  0  0  0  0  0  0
   68.6779   47.7425   55.8077 C   0  0  0  0  0  0  0  0  0  0  0  0
   68.7368   47.4529   54.3523 C   0  0  0  0  0  0  0  0  0  0  0  0
   69.5676   48.1637   53.5015 C   0  0  0  0  0  0  0  0  0  0  0  0
   69.6195   47.8908   52.1500 C   0  0  0  0  0  0  0  0  0  0  0  0
   68.8168   46.8802   51.6371 C   0  0  0  0  0  0  0  0  0  0  0  0
   67.9785   46.1543   52.4575 C   0  0  0  0  0  0  0  0  0  0  0  0
   67.9448   46.4452   53.8064 C   0  0  0  0  0  0  0  0  0  0  0  0
   67.6633   38.6672   58.9814 C   0  0  0  0  0  0  0  0  0  0  0  0
   65.7088   39.1891   60.4608 C   0  0  0  0  0  0  0  0  0  0  0  0
   67.2042   39.0067   60.3865 C   0  0  0  0  0  0  0  0  0  0  0  0
 27 28  1  0
 28 26  1  0
 26  1  1  0
  1  2  1  0
  1 12  1  0
  2  3  2  0
  2  4  1  0
  4 13  1  0
  4  5  2  0
 13 14  2  0
 13 15  1  0
 15 16  1  0
 16 17  1  0
 17 18  2  0
 17 19  1  0
 19 20  1  0
 20 21  2  0
 20 25  1  0
 21 22  1  0
 22 23  2  0
 23 24  1  0
 24 25  2  0
  5  6  1  0
  5  7  1  0
  7  8  1  0
  7 12  2  0
  8  9  2  0
  9 10  1  0
 10 11  2  0
 11 12  1  0
M  END
>  <minimizedAffinity>  (752) 
-8.55602

$$$$
data/reference_output_2/data/smiles/98122.pdb
     RDKit          3D

 26 28  0  0  0  0  0  0  0  0999 V2000
   68.3743   44.9770   55.9985 N   0  0  0  0  0  0  0  0  0  0  0  0
   68.8670   46.3344   55.9762 C   0  0  0  0  0  0  0  0  0  0  0  0
   69.9863   46.5326   56.5600 O   0  0  0  0  0  0  0  0  0  0  0  0
   68.7554   42.7774   56.8460 C   0  0  0  0  0  0  0  0  0  0  0  0
   69.1102   43.9850   56.6227 N   0  0  0  0  0  0  0  0  0  0  0  0
   69.9077   39.6650   58.6428 C   0  0  0  0  0  0  0  0  0  0  0  0
   71.2568   39.9619   58.8508 C   0  0  0  0  0  0  0  0  0  0  0  0
   71.7932   41.1373   58.4140 C   0  0  0  0  0  0  0  0  0  0  0  0
   70.9615   42.0410   57.7544 C   0  0  0  0  0  0  0  0  0  0  0  0
   69.6246   41.8006   57.5226 C   0  0  0  0  0  0  0  0  0  0  0  0
   69.1192   40.6092   57.9733 C   0  0  0  0  0  0  0  0  0  0  0  0
   70.2125   37.4634   59.6856 C   0  0  0  0  0  0  0  0  0  0  0  0
   69.4342   38.4765   59.1036 O   0  0  0  0  0  0  0  0  0  0  0  0
   68.1091   47.4342   55.3183 C   0  0  0  0  0  0  0  0  0  0  0  0
   68.8006   48.0534   54.1753 C   0  0  0  0  0  0  0  0  0  0  0  0
   69.1696   47.4132   53.0444 C   0  0  0  0  0  0  0  0  0  0  0  0
   69.8690   48.0865   52.0426 C   0  0  0  0  0  0  0  0  0  0  0  0
   70.2017   47.4515   50.9799 O   0  0  0  0  0  0  0  0  0  0  0  0
   70.1676   49.3487   52.2046 O   0  0  0  0  0  0  0  0  0  0  0  0
   69.8440   50.0250   53.2676 C   0  0  0  0  0  0  0  0  0  0  0  0
   70.1801   51.3682   53.4072 C   0  0  0  0  0  0  0  0  0  0  0  0
   69.8195   52.0565   54.5507 C   0  0  0  0  0  0  0  0  0  0  0  0
   69.1335   51.4703   55.5740 C   0  0  0  0  0  0  0  0  0  0  0  0
   68.7424   52.2195   56.8225 C   0  0  0  0  0  0  0  0  0  0  0  0
   68.7964   50.1127   55.4283 C   0  0  0  0  0  0  0  0  0  0  0  0
   69.1519   49.4150   54.2907 C   0  0  0  0  0  0  0  0  0  0  0  0
 12 13  1  0
 13  6  1  0
  6  7  2  0
  6 11  1  0
  7  8  1  0
  8  9  2  0
  9 10  1  0
 10  4  1  0
 10 11  2  0
  4  5  2  0
  5  1  1  0
  1  2  1  0
  2  3  2  0
  2 14  1  0
 14 15  1  0
 15 16  2  0
 15 26  1  0
 16 17  1  0
 17 18  2  0
 17 19  1  0
 19 20  1  0
 20 21  1  0
 20 26  2  0
 21 22  2  0
 22 23  1  0
 23 24  1  0
 23 25  2  0
 25 26  1  0
M  END
>  <minimizedAffinity>  (753) 
-8.55546

$$$$
data/reference_output_2/data/smiles/125076.pdb
     RDKit          3D

 28 31  0  0  0  0  0  0  0  0999 V2000
   67.9144   45.1380   55.1015 N   0  0  0  0  0  0  0  0  0  0  0  0
   68.2997   46.0748   54.1251 C   0  0  0  0  0  0  0  0  0  0  0  0
   68.1329   45.7967   52.7965 C   0  0  0  0  0  0  0  0  0  0  0  0
   68.5133   46.6987   51.8168 C   0  0  0  0  0  0  0  0  0  0  0  0
   69.0691   47.9006   52.1992 C   0  0  0  0  0  0  0  0  0  0  0  0
   69.2573   48.2258   53.5260 C   0  0  0  0  0  0  0  0  0  0  0  0
   68.8655   47.3013   54.4679 C   0  0  0  0  0  0  0  0  0  0  0  0
   69.9609   49.7455   53.9861 S   0  0  0  0  0  0  0  0  0  0  0  0
   71.3328   49.6011   54.5559 O   0  0  0  0  0  0  0  0  0  0  0  0
   70.1002   50.5953   52.7360 O   0  0  0  0  0  0  0  0  0  0  0  0
   68.9051   50.5923   55.0517 N   0  0  0  0  0  0  0  0  0  0  0  0
   68.6653   51.9415   54.6580 C   0  0  0  0  0  0  0  0  0  0  0  0
   69.2855   52.8565   55.6679 C   0  0  0  0  0  0  0  0  0  0  0  0
   69.8848   51.9566   56.7192 C   0  0  0  0  0  0  0  0  0  0  0  0
   69.3474   50.5770   56.4067 C   0  0  0  0  0  0  0  0  0  0  0  0
   68.8588   44.6938   56.0995 C   0  0  0  0  0  0  0  0  0  0  0  0
   70.1358   43.4809   59.3873 C   0  0  0  0  0  0  0  0  0  0  0  0
   70.5709   43.1291   57.9767 C   0  0  1  0  0  0  0  0  0  0  0  0
   71.5043   41.9338   57.9921 C   0  0  0  0  0  0  0  0  0  0  0  0
   70.5472   40.8081   58.1558 C   0  0  0  0  0  0  0  0  0  0  0  0
   70.6914   39.5276   58.6161 C   0  0  0  0  0  0  0  0  0  0  0  0
   69.6195   38.6620   58.6655 C   0  0  0  0  0  0  0  0  0  0  0  0
   68.3572   39.0693   58.2467 C   0  0  0  0  0  0  0  0  0  0  0  0
   68.2288   40.3620   57.7856 C   0  0  0  0  0  0  0  0  0  0  0  0
   69.3038   41.2199   57.7388 C   0  0  0  0  0  0  0  0  0  0  0  0
   69.4112   42.5776   57.3101 N   0  0  0  0  0  0  0  0  0  0  0  0
   68.5767   43.2785   56.4159 C   0  0  0  0  0  0  0  0  0  0  0  0
   67.6022   42.6753   55.9048 O   0  0  0  0  0  0  0  0  0  0  0  0
 18 17  1  1
 18 19  1  0
 18 26  1  0
 19 20  1  0
 20 21  2  0
 20 25  1  0
 21 22  1  0
 22 23  2  0
 23 24  1  0
 24 25  2  0
 25 26  1  0
 26 27  1  0
 27 28  2  0
 27 16  1  0
 16  1  1  0
  1  2  1  0
  2  3  2  0
  2  7  1  0
  3  4  1  0
  4  5  2  0
  5  6  1  0
  6  8  1  0
  6  7  2  0
  8  9  2  0
  8 10  2  0
  8 11  1  0
 11 12  1  0
 11 15  1  0
 12 13  1  0
 13 14  1  0
 14 15  1  0
M  END
>  <minimizedAffinity>  (754) 
-8.55433

$$$$
data/reference_output_2/data/smiles/87723.pdb
     RDKit          3D

 24 25  0  0  0  0  0  0  0  0999 V2000
   68.7841   47.6195   56.7500 S   0  0  0  0  0  0  0  0  0  0  0  0
   67.3652   47.6301   57.2876 O   0  0  0  0  0  0  0  0  0  0  0  0
   69.4353   46.3972   57.3913 O   0  0  0  0  0  0  0  0  0  0  0  0
   68.7895   47.4349   55.0302 C   0  0  0  0  0  0  0  0  0  0  0  0
   68.0809   46.3415   54.5157 C   0  0  0  0  0  0  0  0  0  0  0  0
   68.0179   46.1344   53.1654 C   0  0  0  0  0  0  0  0  0  0  0  0
   68.6476   46.9945   52.3118 C   0  0  0  0  0  0  0  0  0  0  0  0
   68.5722   46.7661   50.9276 O   0  0  0  0  0  0  0  0  0  0  0  0
   69.3509   48.0802   52.8161 C   0  0  0  0  0  0  0  0  0  0  0  0
   69.4169   48.2906   54.1671 C   0  0  0  0  0  0  0  0  0  0  0  0
   70.0084   48.9730   51.8551 C   0  0  0  0  0  0  0  0  0  0  0  0
   70.6510   48.5009   50.8675 O   0  0  0  0  0  0  0  0  0  0  0  0
   69.9339   50.3263   52.0169 O   0  0  0  0  0  0  0  0  0  0  0  0
   69.5581   49.0217   57.3322 N   0  0  0  0  0  0  0  0  0  0  0  0
   73.7320   49.7949   57.0940 C   0  0  0  0  0  0  0  0  0  0  0  0
   72.7960   50.5548   56.4259 C   0  0  0  0  0  0  0  0  0  0  0  0
   71.4489   50.2831   56.5258 C   0  0  0  0  0  0  0  0  0  0  0  0
   70.9570   49.2331   57.3000 C   0  0  0  0  0  0  0  0  0  0  0  0
   71.8950   48.4867   57.9596 C   0  0  0  0  0  0  0  0  0  0  0  0
   73.2520   48.7579   57.8612 C   0  0  0  0  0  0  0  0  0  0  0  0
   77.3176   50.2320   55.6848 C   0  0  0  0  0  0  0  0  0  0  0  0
   75.8668   49.9311   55.8014 C   0  0  0  0  0  0  0  0  0  0  0  0
   75.2665   49.5150   54.7793 O   0  0  0  0  0  0  0  0  0  0  0  0
   75.1197   50.0828   56.9855 N   0  0  0  0  0  0  0  0  0  0  0  0
 21 22  1  0
 22 23  2  0
 22 24  1  0
 24 15  1  0
 15 16  2  0
 15 20  1  0
 16 17  1  0
 17 18  2  0
 18 14  1  0
 18 19  1  0
 14  1  1  0
  1  2  2  0
  1  3  2  0
  1  4  1  0
  4  5  2  0
  4 10  1  0
  5  6  1  0
  6  7  2  0
  7  8  1  0
  7  9  1  0
  9 11  1  0
  9 10  2  0
 11 12  2  0
 11 13  1  0
 19 20  2  0
M  END
>  <minimizedAffinity>  (755) 
-8.55375

$$$$
data/200k_reference_output/data/smiles/55046.pdb
     RDKit          3D

 22 23  0  0  0  0  0  0  0  0999 V2000
   69.6997   49.7499   50.9754 N   0  0  0  0  0  0  0  0  0  0  0  0
   69.9618   49.1040   52.2422 C   0  0  0  0  0  0  0  0  0  0  0  0
   70.8463   49.6407   52.9947 N   0  0  0  0  0  0  0  0  0  0  0  0
   69.2152   47.9065   52.5532 C   0  0  0  0  0  0  0  0  0  0  0  0
   68.7035   47.0212   51.6381 C   0  0  0  0  0  0  0  0  0  0  0  0
   67.9997   45.8951   52.0678 C   0  0  0  0  0  0  0  0  0  0  0  0
   67.7903   45.6272   53.4031 C   0  0  0  0  0  0  0  0  0  0  0  0
   68.3034   46.5153   54.3159 C   0  0  0  0  0  0  0  0  0  0  0  0
   68.9969   47.6239   53.8980 C   0  0  0  0  0  0  0  0  0  0  0  0
   68.1119   46.2806   55.7159 N   0  0  0  0  0  0  0  0  0  0  0  0
   68.4961   45.2321   56.2337 O   0  0  0  0  0  0  0  0  0  0  0  0
   67.5002   47.2131   56.5056 O   0  0  0  0  0  0  0  0  0  0  0  0
   71.1478   49.0897   54.2033 O   0  0  0  0  0  0  0  0  0  0  0  0
   71.1683   49.8841   55.3504 C   0  0  0  0  0  0  0  0  0  0  0  0
   72.3359   50.1912   55.7761 O   0  0  0  0  0  0  0  0  0  0  0  0
   69.9739   50.3469   56.0366 C   0  0  0  0  0  0  0  0  0  0  0  0
   69.2616   51.4051   55.5408 C   0  0  0  0  0  0  0  0  0  0  0  0
   68.1240   51.8539   56.2030 C   0  0  0  0  0  0  0  0  0  0  0  0
   67.7294   51.2264   57.3506 C   0  0  0  0  0  0  0  0  0  0  0  0
   68.4206   50.1608   57.8777 C   0  0  0  0  0  0  0  0  0  0  0  0
   69.5605   49.7366   57.1838 C   0  0  0  0  0  0  0  0  0  0  0  0
   70.5349   48.2676   57.8660 Br  0  0  0  0  0  0  0  0  0  0  0  0
  1  2  1  0
  2  3  2  0
  2  4  1  0
  3 13  1  0
 13 14  1  0
 14 15  2  0
 14 16  1  0
 16 17  2  0
 16 21  1  0
 17 18  1  0
 18 19  2  0
 19 20  1  0
 20 21  2  0
 21 22  1  0
  4  5  2  0
  4  9  1  0
  5  6  1  0
  6  7  2  0
  7  8  1  0
  8 10  1  0
  8  9  2  0
 10 11  2  0
 10 12  1  0
M  CHG  3   3   1  10   1  12  -1
M  END
>  <minimizedAffinity>  (756) 
-8.55316

$$$$
data/reference_output_2/data/smiles/97442.pdb
     RDKit          3D

 28 31  0  0  0  0  0  0  0  0999 V2000
   76.3244   34.5681   54.9701 N   0  0  0  0  0  0  0  0  0  0  0  0
   77.0418   34.7851   56.0950 C   0  0  0  0  0  0  0  0  0  0  0  0
   76.2290   35.0296   57.1336 N   0  0  0  0  0  0  0  0  0  0  0  0
   76.5905   35.3128   58.5212 C   0  0  0  0  0  0  0  0  0  0  0  0
   74.9529   34.9793   56.7156 C   0  0  0  0  0  0  0  0  0  0  0  0
   75.0200   34.6900   55.3606 C   0  0  0  0  0  0  0  0  0  0  0  0
   73.7167   35.1770   57.4714 C   0  0  0  0  0  0  0  0  0  0  0  0
   73.1202   34.1166   58.1325 C   0  0  0  0  0  0  0  0  0  0  0  0
   71.9477   34.3015   58.8512 C   0  0  0  0  0  0  0  0  0  0  0  0
   71.3383   35.5367   58.9329 C   0  0  0  0  0  0  0  0  0  0  0  0
   71.9289   36.5991   58.2757 C   0  0  0  0  0  0  0  0  0  0  0  0
   73.0856   36.4023   57.5701 C   0  0  0  0  0  0  0  0  0  0  0  0
   73.8465   34.5493   54.5057 C   0  0  0  0  0  0  0  0  0  0  0  0
   73.2972   33.3065   54.2829 C   0  0  0  0  0  0  0  0  0  0  0  0
   72.1721   33.1480   53.4613 C   0  0  0  0  0  0  0  0  0  0  0  0
   71.5873   34.2365   52.8545 C   0  0  0  0  0  0  0  0  0  0  0  0
   72.1310   35.4771   53.0742 C   0  0  0  0  0  0  0  0  0  0  0  0
   73.2541   35.6302   53.8953 C   0  0  0  0  0  0  0  0  0  0  0  0
   76.7501   34.2385   53.6524 C   0  0  0  0  0  0  0  0  0  0  0  0
   76.7594   35.1702   52.5835 C   0  0  0  0  0  0  0  0  0  0  0  0
   76.6857   36.4201   52.9838 O   0  0  0  0  0  0  0  0  0  0  0  0
   77.2566   34.7213   46.8476 C   0  0  0  0  0  0  0  0  0  0  0  0
   77.0994   34.8125   48.3298 C   0  0  0  0  0  0  0  0  0  0  0  0
   76.1514   34.0771   48.9939 C   0  0  0  0  0  0  0  0  0  0  0  0
   76.0400   34.1949   50.3829 C   0  0  0  0  0  0  0  0  0  0  0  0
   76.8324   35.0154   51.1564 C   0  0  0  0  0  0  0  0  0  0  0  0
   77.7857   35.7433   50.4208 C   0  0  0  0  0  0  0  0  0  0  0  0
   77.8986   35.6334   49.0693 C   0  0  0  0  0  0  0  0  0  0  0  0
 22 23  1  0
 23 24  2  0
 23 28  1  0
 24 25  1  0
 25 26  2  0
 26 20  1  0
 26 27  1  0
 20 21  2  0
 20 19  1  0
 19  1  1  0
  1  2  2  0
  1  6  1  0
  2  3  1  0
  3  4  1  0
  3  5  1  0
  5  7  1  0
  5  6  2  0
  7  8  2  0
  7 12  1  0
  8  9  1  0
  9 10  2  0
 10 11  1  0
 11 12  2  0
  6 13  1  0
 13 14  2  0
 13 18  1  0
 14 15  1  0
 15 16  2  0
 16 17  1  0
 17 18  2  0
 27 28  2  0
M  CHG  1   1   1
M  END
>  <minimizedAffinity>  (757) 
-8.55178

$$$$
data/reference_output_2/data/smiles/149629.pdb
     RDKit          3D

 28 31  0  0  0  0  0  0  0  0999 V2000
   72.3065   45.6548   58.5314 C   0  0  0  0  0  0  0  0  0  0  0  0
   71.2327   44.9494   58.0500 C   0  0  0  0  0  0  0  0  0  0  0  0
   70.0923   45.5902   57.5420 C   0  0  0  0  0  0  0  0  0  0  0  0
   69.9901   46.9593   57.4989 C   0  0  0  0  0  0  0  0  0  0  0  0
   71.0692   47.6607   57.9832 C   0  0  0  0  0  0  0  0  0  0  0  0
   72.1892   47.0508   58.4822 C   0  0  0  0  0  0  0  0  0  0  0  0
   73.9085   43.5220   57.4338 O   0  0  0  0  0  0  0  0  0  0  0  0
   74.2585   44.0447   58.4911 C   0  0  0  0  0  0  0  0  0  0  0  0
   75.4518   43.5483   59.0926 N   0  0  0  0  0  0  0  0  0  0  0  0
   73.4984   45.0796   59.0487 N   0  0  0  0  0  0  0  0  0  0  0  0
   76.2107   42.4808   58.5046 C   0  0  0  0  0  0  0  0  0  0  0  0
   77.5846   42.8406   58.1098 C   0  0  0  0  0  0  0  0  0  0  0  0
   78.2321   43.9454   58.5707 C   0  0  0  0  0  0  0  0  0  0  0  0
   79.5323   44.2674   58.1797 C   0  0  0  0  0  0  0  0  0  0  0  0
   80.2217   43.4622   57.2940 C   0  0  0  0  0  0  0  0  0  0  0  0
   79.5708   42.3421   56.8240 C   0  0  0  0  0  0  0  0  0  0  0  0
   78.2878   42.0288   57.2129 C   0  0  0  0  0  0  0  0  0  0  0  0
   68.7946   47.6568   56.9506 C   0  0  0  0  0  0  0  0  0  0  0  0
   68.6018   47.3611   55.5508 N   0  0  0  0  0  0  0  0  0  0  0  0
   69.2510   47.8974   54.5077 C   0  0  0  0  0  0  0  0  0  0  0  0
   68.8062   47.3609   53.3236 C   0  0  0  0  0  0  0  0  0  0  0  0
   69.0735   47.4926   51.9784 C   0  0  0  0  0  0  0  0  0  0  0  0
   69.9547   48.3135   51.6208 O   0  0  0  0  0  0  0  0  0  0  0  0
   68.4413   46.7886   51.0254 N   0  0  0  0  0  0  0  0  0  0  0  0
   67.5020   45.9142   51.4269 C   0  0  0  0  0  0  0  0  0  0  0  0
   67.2115   45.7587   52.7461 N   0  0  0  0  0  0  0  0  0  0  0  0
   67.8254   46.4472   53.7187 C   0  0  0  0  0  0  0  0  0  0  0  0
   67.7377   46.4832   55.0656 N   0  0  0  0  0  0  0  0  0  0  0  0
  7  8  2  0
  8  9  1  0
  8 10  1  0
  9 11  1  0
 11 12  1  0
 12 13  2  0
 12 17  1  0
 13 14  1  0
 14 15  2  0
 15 16  1  0
 16 17  2  0
 10  1  1  0
  1  2  2  0
  1  6  1  0
  2  3  1  0
  3  4  2  0
  4 18  1  0
  4  5  1  0
 18 19  1  0
 19 20  1  0
 19 28  1  0
 20 21  2  0
 21 22  1  0
 21 27  1  0
 22 23  2  0
 22 24  1  0
 24 25  1  0
 25 26  2  0
 26 27  1  0
 27 28  2  0
  5  6  2  0
M  END
>  <minimizedAffinity>  (758) 
-8.55126

$$$$
data/reference_output_2/data/smiles/105004.pdb
     RDKit          3D

 26 28  0  0  0  0  0  0  0  0999 V2000
   68.3537   46.6751   53.1319 C   0  0  0  0  0  0  0  0  0  0  0  0
   68.2416   46.8389   54.5279 C   0  0  0  0  0  0  0  0  0  0  0  0
   68.9217   47.7704   55.2516 C   0  0  0  0  0  0  0  0  0  0  0  0
   69.7842   48.6270   54.6200 C   0  0  0  0  0  0  0  0  0  0  0  0
   69.9170   48.4924   53.2515 C   0  0  0  0  0  0  0  0  0  0  0  0
   69.2207   47.5405   52.5181 C   0  0  0  0  0  0  0  0  0  0  0  0
   69.4045   47.4801   51.1923 F   0  0  0  0  0  0  0  0  0  0  0  0
   70.5726   49.6714   55.2893 C   0  0  0  0  0  0  0  0  0  0  0  0
   70.3350   49.7279   56.7770 C   0  0  0  0  0  0  0  0  0  0  0  0
   70.1349   48.2943   57.2495 C   0  0  2  0  0  0  0  0  0  0  0  0
   68.7551   47.8858   56.7111 C   0  0  0  0  0  0  0  0  0  0  0  0
   67.3822   44.5639   53.0885 O   0  0  0  0  0  0  0  0  0  0  0  0
   67.5796   45.6405   52.4821 C   0  0  0  0  0  0  0  0  0  0  0  0
   67.0283   45.7617   51.2036 N   0  0  0  0  0  0  0  0  0  0  0  0
   66.2927   44.7170   50.6478 O   0  0  0  0  0  0  0  0  0  0  0  0
   70.2221   48.1552   58.6600 N   0  0  0  0  0  0  0  0  0  0  0  0
   71.6159   47.2548   59.1129 S   0  0  0  0  0  0  0  0  0  0  0  0
   72.8812   47.9328   58.6796 O   0  0  0  0  0  0  0  0  0  0  0  0
   71.6635   47.2097   60.6336 O   0  0  0  0  0  0  0  0  0  0  0  0
   71.5316   45.6129   58.5590 C   0  0  0  0  0  0  0  0  0  0  0  0
   70.3362   44.9662   58.3387 C   0  0  0  0  0  0  0  0  0  0  0  0
   70.2661   43.6621   57.8973 C   0  0  0  0  0  0  0  0  0  0  0  0
   71.4373   42.9743   57.6661 C   0  0  0  0  0  0  0  0  0  0  0  0
   72.6487   43.5892   57.8753 C   0  0  0  0  0  0  0  0  0  0  0  0
   74.1240   42.6739   57.5664 Cl  0  0  0  0  0  0  0  0  0  0  0  0
   72.6977   44.8900   58.3152 C   0  0  0  0  0  0  0  0  0  0  0  0
 12 13  2  0
 13 14  1  0
 13  1  1  0
 14 15  1  0
  1  2  2  0
  1  6  1  0
  2  3  1  0
  3  4  2  0
  3 11  1  0
  4  5  1  0
  4  8  1  0
  5  6  2  0
  6  7  1  0
  8  9  1  0
  9 10  1  0
 10 16  1  1
 10 11  1  0
 16 17  1  0
 17 18  2  0
 17 19  2  0
 17 20  1  0
 20 21  2  0
 20 26  1  0
 21 22  1  0
 22 23  2  0
 23 24  1  0
 24 25  1  0
 24 26  2  0
M  END
>  <minimizedAffinity>  (759) 
-8.55089

$$$$
data/200k_reference_output/data/smiles/60472.pdb
     RDKit          3D

 27 28  0  0  0  0  0  0  0  0999 V2000
   68.2093   42.7930   56.6014 C   0  0  0  0  0  0  0  0  0  0  0  0
   68.8475   43.1484   57.6185 O   0  0  0  0  0  0  0  0  0  0  0  0
   67.8910   43.8070   55.6612 N   0  0  0  0  0  0  0  0  0  0  0  0
   68.2486   45.1543   55.8150 N   0  0  0  0  0  0  0  0  0  0  0  0
   68.2852   46.0330   54.6986 C   0  0  0  0  0  0  0  0  0  0  0  0
   67.9739   45.4999   53.5870 O   0  0  0  0  0  0  0  0  0  0  0  0
   68.6459   47.4354   54.7856 C   0  0  0  0  0  0  0  0  0  0  0  0
   68.6764   48.0328   56.0268 C   0  0  0  0  0  0  0  0  0  0  0  0
   69.0141   49.3757   56.1791 C   0  0  0  0  0  0  0  0  0  0  0  0
   69.3327   50.1567   55.0902 C   0  0  0  0  0  0  0  0  0  0  0  0
   69.3039   49.5629   53.8472 C   0  0  0  0  0  0  0  0  0  0  0  0
   68.9643   48.2241   53.7103 C   0  0  0  0  0  0  0  0  0  0  0  0
   69.6974   51.5964   55.2257 C   0  0  0  0  0  0  0  0  0  0  0  0
   68.7169   52.4838   54.4955 C   0  0  0  0  0  0  0  0  0  0  0  0
   69.6878   51.9649   56.6741 C   0  0  0  0  0  0  0  0  0  0  0  0
   71.0675   51.8644   54.6489 C   0  0  0  0  0  0  0  0  0  0  0  0
   67.8365   41.3699   56.4484 C   0  0  0  0  0  0  0  0  0  0  0  0
   67.7281   40.7635   57.8001 C   0  0  0  0  0  0  0  0  0  0  0  0
   69.7520   39.4274   58.3580 N   0  0  0  0  0  0  0  0  0  0  0  0
   68.3912   39.4740   57.9648 C   0  0  0  0  0  0  0  0  0  0  0  0
   67.7575   38.4122   57.7577 O   0  0  0  0  0  0  0  0  0  0  0  0
   72.9961   35.6076   57.9336 C   0  0  0  0  0  0  0  0  0  0  0  0
   71.8759   36.4917   58.3844 C   0  0  0  0  0  0  0  0  0  0  0  0
   71.5425   37.7171   57.8456 C   0  0  0  0  0  0  0  0  0  0  0  0
   70.4606   38.2054   58.5365 C   0  0  0  0  0  0  0  0  0  0  0  0
   70.1731   37.2780   59.4622 N   0  0  0  0  0  0  0  0  0  0  0  0
   71.0188   36.2862   59.3486 O   0  0  0  0  0  0  0  0  0  0  0  0
 22 23  1  0
 23 24  2  0
 23 27  1  0
 24 25  1  0
 25 19  1  0
 25 26  2  0
 19 20  1  0
 20 21  2  0
 20 18  1  0
 18 17  1  0
 17  1  1  0
  1  2  2  0
  1  3  1  0
  3  4  1  0
  4  5  1  0
  5  6  2  0
  5  7  1  0
  7  8  2  0
  7 12  1  0
  8  9  1  0
  9 10  2  0
 10 13  1  0
 10 11  1  0
 13 14  1  0
 13 15  1  0
 13 16  1  0
 11 12  2  0
 26 27  1  0
M  END
>  <minimizedAffinity>  (760) 
-8.55085

$$$$
data/200k_reference_output/data/smiles/42349.pdb
     RDKit          3D

 22 23  0  0  0  0  0  0  0  0999 V2000
   69.4223   48.1207   55.1231 N   0  0  0  0  0  0  0  0  0  0  0  0
   69.0754   47.7096   52.7538 C   0  0  0  0  0  0  0  0  0  0  0  0
   68.5614   46.9652   51.7183 C   0  0  0  0  0  0  0  0  0  0  0  0
   67.8320   45.8246   51.9877 C   0  0  0  0  0  0  0  0  0  0  0  0
   67.6398   45.4620   53.2931 C   0  0  0  0  0  0  0  0  0  0  0  0
   68.1532   46.2047   54.3256 C   0  0  0  0  0  0  0  0  0  0  0  0
   68.8839   47.3483   54.0776 C   0  0  0  0  0  0  0  0  0  0  0  0
   69.2887   50.5166   53.1847 N   0  0  0  0  0  0  0  0  0  0  0  0
   69.9963   49.1522   52.3955 S   0  0  0  0  0  0  0  0  0  0  0  0
   71.4134   49.0458   52.8665 O   0  0  0  0  0  0  0  0  0  0  0  0
   70.0255   49.4470   50.9316 O   0  0  0  0  0  0  0  0  0  0  0  0
   68.9452   47.8661   56.7444 S   0  0  0  0  0  0  0  0  0  0  0  0
   68.8516   49.1466   57.5261 O   0  0  0  0  0  0  0  0  0  0  0  0
   67.5711   47.2312   56.8313 O   0  0  0  0  0  0  0  0  0  0  0  0
   70.0630   46.8245   57.6199 C   0  0  0  0  0  0  0  0  0  0  0  0
   70.9599   47.3107   58.5429 C   0  0  0  0  0  0  0  0  0  0  0  0
   71.8380   46.5026   59.2381 C   0  0  0  0  0  0  0  0  0  0  0  0
   71.8088   45.1471   58.9898 C   0  0  0  0  0  0  0  0  0  0  0  0
   70.9259   44.6305   58.0734 C   0  0  0  0  0  0  0  0  0  0  0  0
   70.9372   42.8870   57.8005 Cl  0  0  0  0  0  0  0  0  0  0  0  0
   70.0652   45.4580   57.3988 C   0  0  0  0  0  0  0  0  0  0  0  0
   69.1892   44.9621   56.4929 F   0  0  0  0  0  0  0  0  0  0  0  0
  8  9  1  0
  9 10  2  0
  9 11  2  0
  9  2  1  0
  2  3  2  0
  2  7  1  0
  3  4  1  0
  4  5  2  0
  5  6  1  0
  6  7  2  0
  7  1  1  0
  1 12  1  0
 12 13  2  0
 12 14  2  0
 12 15  1  0
 15 16  2  0
 15 21  1  0
 16 17  1  0
 17 18  2  0
 18 19  1  0
 19 20  1  0
 19 21  2  0
 21 22  1  0
M  END
>  <minimizedAffinity>  (761) 
-8.55072

$$$$
data/200k_reference_output/data/smiles/86703.pdb
     RDKit          3D

 26 28  0  0  0  0  0  0  0  0999 V2000
   68.5046   44.8289   55.6089 N   0  0  0  0  0  0  0  0  0  0  0  0
   67.9781   45.1416   54.2906 C   0  0  0  0  0  0  0  0  0  0  0  0
   67.0796   44.3614   53.9475 O   0  0  0  0  0  0  0  0  0  0  0  0
   68.5313   46.2706   53.5595 C   0  0  0  0  0  0  0  0  0  0  0  0
   68.7684   46.1383   52.2168 N   0  0  0  0  0  0  0  0  0  0  0  0
   69.2646   47.1020   51.4802 N   0  0  0  0  0  0  0  0  0  0  0  0
   69.5859   48.3081   51.9718 C   0  0  0  0  0  0  0  0  0  0  0  0
   70.0657   49.2373   51.2523 O   0  0  0  0  0  0  0  0  0  0  0  0
   69.3673   48.5004   53.3250 C   0  0  0  0  0  0  0  0  0  0  0  0
   69.6873   49.7236   53.8513 C   0  0  0  0  0  0  0  0  0  0  0  0
   69.4746   49.9318   55.2042 C   0  0  0  0  0  0  0  0  0  0  0  0
   68.9537   48.9297   55.9958 C   0  0  0  0  0  0  0  0  0  0  0  0
   68.6274   47.6883   55.4704 C   0  0  0  0  0  0  0  0  0  0  0  0
   68.8341   47.4715   54.1275 C   0  0  0  0  0  0  0  0  0  0  0  0
   68.7058   42.7944   57.0044 C   0  0  0  0  0  0  0  0  0  0  0  0
   69.9508   43.0121   57.0280 O   0  0  0  0  0  0  0  0  0  0  0  0
   67.9402   43.7404   56.2633 N   0  0  0  0  0  0  0  0  0  0  0  0
   67.1449   39.3112   58.9353 C   0  0  0  0  0  0  0  0  0  0  0  0
   66.6944   40.5655   59.2852 C   0  0  0  0  0  0  0  0  0  0  0  0
   67.1886   41.7158   58.6699 C   0  0  0  0  0  0  0  0  0  0  0  0
   68.1350   41.6443   57.6990 C   0  0  0  0  0  0  0  0  0  0  0  0
   68.5884   40.3896   57.3455 C   0  0  0  0  0  0  0  0  0  0  0  0
   68.1050   39.2327   57.9511 C   0  0  0  0  0  0  0  0  0  0  0  0
   67.6383   37.5023   60.5665 C   0  0  0  0  0  0  0  0  0  0  0  0
   66.6236   38.0620   59.5877 C   0  0  0  0  0  0  0  0  0  0  0  0
   65.3772   38.3952   60.3636 C   0  0  0  0  0  0  0  0  0  0  0  0
 24 25  1  0
 25 26  1  0
 25 18  1  0
 18 19  2  0
 18 23  1  0
 19 20  1  0
 20 21  2  0
 21 15  1  0
 21 22  1  0
 15 16  2  0
 15 17  1  0
 17  1  1  0
  1  2  1  0
  2  3  2  0
  2  4  1  0
  4  5  2  0
  4 14  1  0
  5  6  1  0
  6  7  1  0
  7  8  2  0
  7  9  1  0
  9 10  1  0
  9 14  2  0
 10 11  2  0
 11 12  1  0
 12 13  2  0
 13 14  1  0
 22 23  2  0
M  END
>  <minimizedAffinity>  (762) 
-8.54969

$$$$
data/200k_reference_output/data/smiles/6135.pdb
     RDKit          3D

 28 32  0  0  0  0  0  0  0  0999 V2000
   75.3712   35.1226   56.7753 O   0  0  0  0  0  0  0  0  0  0  0  0
   74.7999   35.2133   55.6395 C   0  0  0  0  0  0  0  0  0  0  0  0
   75.5243   35.0998   54.4868 C   0  0  0  0  0  0  0  0  0  0  0  0
   74.9016   35.1989   53.2207 C   0  0  0  0  0  0  0  0  0  0  0  0
   73.5464   35.4129   53.2778 C   0  0  0  0  0  0  0  0  0  0  0  0
   72.8581   35.5206   54.4718 C   0  0  0  0  0  0  0  0  0  0  0  0
   73.4743   35.4234   55.6563 N   0  0  0  0  0  0  0  0  0  0  0  0
   72.7549   35.5324   56.8910 C   0  0  0  0  0  0  0  0  0  0  0  0
   72.5170   34.4370   57.6914 C   0  0  0  0  0  0  0  0  0  0  0  0
   71.8304   34.5137   58.8800 C   0  0  0  0  0  0  0  0  0  0  0  0
   71.3389   35.7394   59.3204 C   0  0  0  0  0  0  0  0  0  0  0  0
   71.5729   36.8318   58.5261 C   0  0  0  0  0  0  0  0  0  0  0  0
   72.2677   36.7439   57.3298 C   0  0  0  0  0  0  0  0  0  0  0  0
   70.9475   37.9977   59.2279 C   0  0  0  0  0  0  0  0  0  0  0  0
   70.6893   37.5035   60.6323 C   0  0  0  0  0  0  0  0  0  0  0  0
   70.6097   36.0637   60.4954 N   0  0  0  0  0  0  0  0  0  0  0  0
   69.9233   35.1068   61.3762 C   0  0  0  0  0  0  0  0  0  0  0  0
   70.2131   35.2519   62.8305 C   0  0  0  0  0  0  0  0  0  0  0  0
   68.7946   34.9480   63.0784 N   0  0  0  0  0  0  0  0  0  0  0  0
   68.5435   35.5155   61.7428 C   0  0  0  0  0  0  0  0  0  0  0  0
   75.6435   35.0796   52.0993 O   0  0  0  0  0  0  0  0  0  0  0  0
   75.8429   34.1817   51.1107 C   0  0  0  0  0  0  0  0  0  0  0  0
   76.5480   34.5871   49.8881 C   0  0  0  0  0  0  0  0  0  0  0  0
   77.5725   35.4824   49.9097 C   0  0  0  0  0  0  0  0  0  0  0  0
   78.2636   35.8758   48.7721 C   0  0  0  0  0  0  0  0  0  0  0  0
   77.8767   35.3198   47.5703 C   0  0  0  0  0  0  0  0  0  0  0  0
   76.8462   34.4150   47.5210 C   0  0  0  0  0  0  0  0  0  0  0  0
   76.1835   34.0474   48.6669 C   0  0  0  0  0  0  0  0  0  0  0  0
  1  2  2  0
  2  3  1  0
  2  7  1  0
  3  4  2  0
  4 21  1  0
  4  5  1  0
 21 22  1  0
 22 23  1  0
 23 24  2  0
 23 28  1  0
 24 25  1  0
 25 26  2  0
 26 27  1  0
 27 28  2  0
  5  6  2  0
  6  7  1  0
  7  8  1  0
  8  9  2  0
  8 13  1  0
  9 10  1  0
 10 11  2  0
 11 12  1  0
 11 16  1  0
 12 13  2  0
 12 14  1  0
 14 15  1  0
 15 16  1  0
 16 17  1  0
 17 18  1  0
 17 20  1  0
 18 19  1  0
 19 20  1  0
M  CHG  1  19   1
M  END
>  <minimizedAffinity>  (763) 
-8.54878

$$$$
data/reference_output_2/data/smiles/127606.pdb
     RDKit          3D

 28 29  0  0  0  0  0  0  0  0999 V2000
   70.0367   37.8258   59.2812 C   0  0  0  0  0  0  0  0  0  0  0  0
   69.7721   38.9108   58.4416 C   0  0  0  0  0  0  0  0  0  0  0  0
   68.5061   39.4485   58.3518 C   0  0  0  0  0  0  0  0  0  0  0  0
   67.5210   38.8761   59.1197 C   0  0  0  0  0  0  0  0  0  0  0  0
   67.7146   37.8134   59.9623 C   0  0  0  0  0  0  0  0  0  0  0  0
   69.0122   37.2914   60.0289 C   0  0  0  0  0  0  0  0  0  0  0  0
   68.3158   40.5540   57.4712 N   0  0  0  0  0  0  0  0  0  0  0  0
   68.7890   41.8122   57.6119 C   0  0  0  0  0  0  0  0  0  0  0  0
   68.3975   42.6099   56.5573 C   0  0  0  0  0  0  0  0  0  0  0  0
   67.6687   41.7775   55.7751 N   0  0  0  0  0  0  0  0  0  0  0  0
   67.6356   40.5786   56.3314 N   0  0  0  0  0  0  0  0  0  0  0  0
   68.6867   44.0183   56.3166 C   0  0  0  0  0  0  0  0  0  0  0  0
   69.5280   44.6220   57.0163 O   0  0  0  0  0  0  0  0  0  0  0  0
   68.0250   44.7267   55.2925 N   0  0  0  0  0  0  0  0  0  0  0  0
   68.2702   46.1270   55.0052 C   0  0  0  0  0  0  0  0  0  0  0  0
   68.4326   46.2757   53.5087 C   0  0  0  0  0  0  0  0  0  0  0  0
   68.8019   47.6222   53.1345 N   0  0  0  0  0  0  0  0  0  0  0  0
   69.6066   47.9376   52.0290 C   0  0  0  0  0  0  0  0  0  0  0  0
   70.0012   47.0020   51.2452 N   0  0  0  0  0  0  0  0  0  0  0  0
   69.9950   49.2726   51.7564 N   0  0  0  0  0  0  0  0  0  0  0  0
   72.1487   37.4980   58.1034 C   0  0  0  0  0  0  0  0  0  0  0  0
   71.3890   37.2399   59.3881 C   0  0  0  0  0  0  0  0  0  0  0  0
   71.3451   35.7442   59.6228 C   0  0  0  0  0  0  0  0  0  0  0  0
   72.1409   37.8406   60.5504 C   0  0  0  0  0  0  0  0  0  0  0  0
   66.6205   37.2224   60.7776 C   0  0  0  0  0  0  0  0  0  0  0  0
   65.4593   36.9471   59.8460 C   0  0  0  0  0  0  0  0  0  0  0  0
   66.1830   38.1778   61.8642 C   0  0  0  0  0  0  0  0  0  0  0  0
   67.0660   35.8953   61.3500 C   0  0  0  0  0  0  0  0  0  0  0  0
 21 22  1  0
 22 23  1  0
 22 24  1  0
 22  1  1  0
  1  2  2  0
  1  6  1  0
  2  3  1  0
  3  7  1  0
  3  4  2  0
  7  8  1  0
  7 11  1  0
  8  9  2  0
  9 12  1  0
  9 10  1  0
 12 13  2  0
 12 14  1  0
 14 15  1  0
 15 16  1  0
 16 17  1  0
 17 18  1  0
 18 19  2  0
 18 20  1  0
 10 11  2  0
  4  5  1  0
  5 25  1  0
  5  6  2  0
 25 26  1  0
 25 27  1  0
 25 28  1  0
M  CHG  1  19   1
M  END
>  <minimizedAffinity>  (764) 
-8.54870

$$$$
data/200k_reference_output/data/smiles/11733.pdb
     RDKit          3D

 27 30  0  0  0  0  0  0  0  0999 V2000
   69.6981   44.6396   57.4875 C   0  0  2  0  0  0  0  0  0  0  0  0
   70.8230   45.3400   58.1151 C   0  0  0  0  0  0  0  0  0  0  0  0
   71.7379   44.5143   58.9661 C   0  0  0  0  0  0  0  0  0  0  0  0
   72.0272   43.1507   58.3824 C   0  0  0  0  0  0  0  0  0  0  0  0
   70.7950   42.4398   58.0404 C   0  0  0  0  0  0  0  0  0  0  0  0
   69.7225   43.1596   57.6258 C   0  0  0  0  0  0  0  0  0  0  0  0
   68.7054   42.2599   57.3707 C   0  0  0  0  0  0  0  0  0  0  0  0
   69.1919   41.0319   57.6374 N   0  0  0  0  0  0  0  0  0  0  0  0
   70.4664   41.1479   58.0443 N   0  0  0  0  0  0  0  0  0  0  0  0
   71.2814   40.0469   58.4056 C   0  0  0  0  0  0  0  0  0  0  0  0
   70.8706   38.7527   58.1724 C   0  0  0  0  0  0  0  0  0  0  0  0
   71.6517   37.6607   58.5177 C   0  0  0  0  0  0  0  0  0  0  0  0
   71.2462   36.3916   58.2867 F   0  0  0  0  0  0  0  0  0  0  0  0
   72.8786   37.8491   59.1127 C   0  0  0  0  0  0  0  0  0  0  0  0
   73.3098   39.1374   59.3553 C   0  0  0  0  0  0  0  0  0  0  0  0
   74.5215   39.2887   59.9420 F   0  0  0  0  0  0  0  0  0  0  0  0
   72.5109   40.2212   59.0013 C   0  0  0  0  0  0  0  0  0  0  0  0
   68.0626   46.6560   56.4089 O   0  0  0  0  0  0  0  0  0  0  0  0
   68.6475   45.9311   55.5692 C   0  0  0  0  0  0  0  0  0  0  0  0
   69.4712   44.9153   56.0876 N   0  0  0  0  0  0  0  0  0  0  0  0
   68.4418   46.1819   54.1484 C   0  0  0  0  0  0  0  0  0  0  0  0
   69.0714   47.2482   53.5376 C   0  0  0  0  0  0  0  0  0  0  0  0
   68.9017   47.5196   52.1863 C   0  0  0  0  0  0  0  0  0  0  0  0
   68.0898   46.7223   51.4083 C   0  0  0  0  0  0  0  0  0  0  0  0
   67.4833   45.6876   52.0153 N   0  0  0  0  0  0  0  0  0  0  0  0
   66.6661   44.8871   51.2216 O   0  0  0  0  0  0  0  0  0  0  0  0
   67.6403   45.4104   53.3363 C   0  0  0  0  0  0  0  0  0  0  0  0
 18 19  2  0
 19 20  1  0
 19 21  1  0
  1 20  1  6
  1  2  1  0
  1  6  1  0
  2  3  1  0
  3  4  1  0
  4  5  1  0
  5  6  2  0
  5  9  1  0
  6  7  1  0
  7  8  2  0
  8  9  1  0
  9 10  1  0
 10 11  2  0
 10 17  1  0
 11 12  1  0
 12 13  1  0
 12 14  2  0
 14 15  1  0
 15 16  1  0
 15 17  2  0
 21 22  2  0
 21 27  1  0
 22 23  1  0
 23 24  2  0
 24 25  1  0
 25 26  1  0
 25 27  2  0
M  CHG  2  25   1  26  -1
M  END
>  <minimizedAffinity>  (765) 
-8.54758

$$$$
data/200k_reference_output/data/smiles/41918.pdb
     RDKit          3D

 25 26  0  0  0  0  0  0  0  0999 V2000
   69.4934   40.0593   58.2505 N   0  0  0  0  0  0  0  0  0  0  0  0
   68.2890   39.8454   57.5219 C   0  0  0  0  0  0  0  0  0  0  0  0
   67.7572   38.6941   57.4886 O   0  0  0  0  0  0  0  0  0  0  0  0
   67.6293   40.8799   56.8098 N   0  0  0  0  0  0  0  0  0  0  0  0
   68.1436   42.2204   56.7810 C   0  0  0  0  0  0  0  0  0  0  0  0
   67.5519   43.1372   56.1453 O   0  0  0  0  0  0  0  0  0  0  0  0
   69.3747   42.4846   57.5136 C   0  0  0  0  0  0  0  0  0  0  0  0
   69.8583   43.7068   57.4945 C   0  0  0  0  0  0  0  0  0  0  0  0
   71.0990   44.0317   58.2171 C   0  0  0  0  0  0  0  0  0  0  0  0
   70.0146   41.3810   58.2314 C   0  0  0  0  0  0  0  0  0  0  0  0
   71.0767   41.6007   58.8656 O   0  0  0  0  0  0  0  0  0  0  0  0
   70.1002   38.9471   58.9502 C   0  0  0  0  0  0  0  0  0  0  0  0
   71.7258   37.1598   58.5386 C   0  0  0  0  0  0  0  0  0  0  0  0
   71.1723   38.3145   58.1749 C   0  0  0  0  0  0  0  0  0  0  0  0
   69.2025   44.7732   56.7701 N   0  0  0  0  0  0  0  0  0  0  0  0
   69.5682   46.0276   57.1120 N   0  0  0  0  0  0  0  0  0  0  0  0
   69.3039   47.1926   56.7908 C   0  0  0  0  0  0  0  0  0  0  0  0
   70.1886   48.5011   57.6775 S   0  0  0  0  0  0  0  0  0  0  0  0
   68.3617   47.5156   55.7926 N   0  0  0  0  0  0  0  0  0  0  0  0
   68.4986   47.2480   54.4224 C   0  0  0  0  0  0  0  0  0  0  0  0
   67.8214   46.2010   53.8483 C   0  0  0  0  0  0  0  0  0  0  0  0
   67.9234   45.9334   52.4799 C   0  0  0  0  0  0  0  0  0  0  0  0
   68.7046   46.7117   51.6853 C   0  0  0  0  0  0  0  0  0  0  0  0
   69.3939   47.7683   52.2396 C   0  0  0  0  0  0  0  0  0  0  0  0
   69.2826   48.0270   53.6139 C   0  0  0  0  0  0  0  0  0  0  0  0
 13 14  2  0
 14 12  1  0
 12  1  1  0
  1  2  1  0
  1 10  1  0
  2  3  2  0
  2  4  1  0
  4  5  1  0
  5  6  2  0
  5  7  1  0
  7  8  2  0
  7 10  1  0
  8  9  1  0
  8 15  1  0
 15 16  1  0
 16 17  2  0
 17 18  1  0
 17 19  1  0
 19 20  1  0
 20 21  2  0
 20 25  1  0
 21 22  1  0
 22 23  2  0
 23 24  1  0
 24 25  2  0
 10 11  2  0
M  CHG  1  16   1
M  END
>  <minimizedAffinity>  (766) 
-8.54744

$$$$
data/200k_reference_output/data/smiles/19309.pdb
     RDKit          3D

 28 30  0  0  0  0  0  0  0  0999 V2000
   69.0388   46.7269   56.2339 C   0  0  0  0  0  0  0  0  0  0  0  0
   69.2475   47.9906   55.6924 C   0  0  0  0  0  0  0  0  0  0  0  0
   69.0115   48.2647   54.3665 C   0  0  0  0  0  0  0  0  0  0  0  0
   68.5449   47.2707   53.4979 C   0  0  0  0  0  0  0  0  0  0  0  0
   68.3400   46.0228   54.0325 C   0  0  0  0  0  0  0  0  0  0  0  0
   68.5808   45.7544   55.3724 C   0  0  0  0  0  0  0  0  0  0  0  0
   68.3735   44.5210   55.8827 F   0  0  0  0  0  0  0  0  0  0  0  0
   70.9033   46.1708   59.5007 N   0  0  0  0  0  0  0  0  0  0  0  0
   70.5997   46.4135   58.1554 C   0  0  0  0  0  0  0  0  0  0  0  0
   71.5554   46.5956   57.3361 O   0  0  0  0  0  0  0  0  0  0  0  0
   69.2938   46.4772   57.6105 N   0  0  0  0  0  0  0  0  0  0  0  0
   72.6761   47.4691   60.5855 C   0  0  0  0  0  0  0  0  0  0  0  0
   72.2498   46.1131   60.0346 C   0  0  1  0  0  0  0  0  0  0  0  0
   72.4242   45.0306   61.0067 C   0  0  0  0  0  0  0  0  0  0  0  0
   73.5360   44.7924   61.5207 O   0  0  0  0  0  0  0  0  0  0  0  0
   71.3444   44.2440   61.3758 O   0  0  0  0  0  0  0  0  0  0  0  0
   69.2407   49.6211   53.7598 C   0  0  0  0  0  0  0  0  0  0  0  0
   70.4783   50.2449   54.1760 C   0  0  0  0  0  0  0  0  0  0  0  0
   71.6441   49.8174   53.6085 N   0  0  0  0  0  0  0  0  0  0  0  0
   72.8175   50.3018   53.9361 N   0  0  0  0  0  0  0  0  0  0  0  0
   72.9107   51.2793   54.8863 C   0  0  0  0  0  0  0  0  0  0  0  0
   74.0369   51.7391   55.1962 O   0  0  0  0  0  0  0  0  0  0  0  0
   71.7849   51.7609   55.5010 C   0  0  0  0  0  0  0  0  0  0  0  0
   70.5612   51.2224   55.1251 C   0  0  0  0  0  0  0  0  0  0  0  0
   69.3450   51.7347   55.7509 C   0  0  0  0  0  0  0  0  0  0  0  0
   69.3965   53.1641   56.2031 C   0  0  0  0  0  0  0  0  0  0  0  0
   70.7401   53.8018   56.1861 C   0  0  0  0  0  0  0  0  0  0  0  0
   71.8004   52.8118   56.5338 C   0  0  0  0  0  0  0  0  0  0  0  0
 13 12  1  1
 13  8  1  0
 13 14  1  0
  8  9  1  0
  9 10  2  0
  9 11  1  0
 11  1  1  0
  1  2  2  0
  1  6  1  0
  2  3  1  0
  3 17  1  0
  3  4  2  0
 17 18  1  0
 18 19  2  0
 18 24  1  0
 19 20  1  0
 20 21  1  0
 21 22  2  0
 21 23  1  0
 23 24  2  0
 23 28  1  0
 24 25  1  0
 25 26  1  0
 26 27  1  0
 27 28  1  0
  4  5  1  0
  5  6  2  0
  6  7  1  0
 14 15  2  0
 14 16  1  0
M  END
>  <minimizedAffinity>  (767) 
-8.54640

$$$$
data/reference_output_2/data/smiles/142803.pdb
     RDKit          3D

 28 31  0  0  0  0  0  0  0  0999 V2000
   70.6183   44.7294   58.5093 C   0  0  0  0  0  0  0  0  0  0  0  0
   71.7988   44.9102   59.2019 C   0  0  0  0  0  0  0  0  0  0  0  0
   72.3975   46.1559   59.3025 C   0  0  0  0  0  0  0  0  0  0  0  0
   71.7852   47.2515   58.6855 C   0  0  0  0  0  0  0  0  0  0  0  0
   70.6058   47.1089   57.9847 C   0  0  0  0  0  0  0  0  0  0  0  0
   70.0563   45.8415   57.9199 C   0  0  0  0  0  0  0  0  0  0  0  0
   68.6189   42.0072   57.3933 C   0  0  1  0  0  0  0  0  0  0  0  0
   68.8546   43.3519   57.6742 O   0  0  0  0  0  0  0  0  0  0  0  0
   70.0398   43.3778   58.4439 C   0  0  2  0  0  0  0  0  0  0  0  0
   69.7809   42.8078   59.8236 C   0  0  2  0  0  0  0  0  0  0  0  0
   70.8813   42.0388   60.2586 O   0  0  0  0  0  0  0  0  0  0  0  0
   68.5236   42.0085   59.9031 C   0  0  1  0  0  0  0  0  0  0  0  0
   67.4873   42.8105   60.4135 O   0  0  0  0  0  0  0  0  0  0  0  0
   68.1338   41.3329   58.6321 C   0  0  2  0  0  0  0  0  0  0  0  0
   68.6158   40.0236   58.6527 O   0  0  0  0  0  0  0  0  0  0  0  0
   67.6743   40.5127   55.8100 O   0  0  0  0  0  0  0  0  0  0  0  0
   67.6662   41.8397   56.2272 C   0  0  0  0  0  0  0  0  0  0  0  0
   69.9925   48.2920   57.3474 C   0  0  0  0  0  0  0  0  0  0  0  0
   69.4533   48.0401   56.0033 C   0  0  0  0  0  0  0  0  0  0  0  0
   68.4166   47.1345   55.9626 C   0  0  0  0  0  0  0  0  0  0  0  0
   67.8895   46.4241   54.9009 C   0  0  0  0  0  0  0  0  0  0  0  0
   68.1636   46.6384   53.5668 C   0  0  0  0  0  0  0  0  0  0  0  0
   67.6660   45.8658   52.5411 C   0  0  0  0  0  0  0  0  0  0  0  0
   68.1686   46.3991   51.3709 C   0  0  0  0  0  0  0  0  0  0  0  0
   68.9762   47.4975   51.6359 C   0  0  0  0  0  0  0  0  0  0  0  0
   69.0049   47.6861   52.9845 C   0  0  0  0  0  0  0  0  0  0  0  0
   69.7033   48.6864   53.6518 C   0  0  0  0  0  0  0  0  0  0  0  0
   70.0595   48.7443   54.9836 C   0  0  0  0  0  0  0  0  0  0  0  0
 16 17  1  0
  7 17  1  6
  7  8  1  0
  7 14  1  0
  8  9  1  0
  9  1  1  1
  9 10  1  0
  1  2  2  0
  1  6  1  0
  2  3  1  0
  3  4  2  0
  4  5  1  0
  5 18  1  0
  5  6  2  0
 18 19  1  0
 19 20  2  0
 19 28  1  0
 20 21  1  0
 21 22  2  0
 22 23  1  0
 22 26  1  0
 23 24  2  0
 24 25  1  0
 25 26  2  0
 26 27  1  0
 27 28  2  0
 10 11  1  6
 10 12  1  0
 12 13  1  6
 12 14  1  0
 14 15  1  1
M  END
>  <minimizedAffinity>  (768) 
-8.54640

$$$$
data/reference_output_2/data/smiles/195104.pdb
     RDKit          3D

 27 29  0  0  0  0  0  0  0  0999 V2000
   73.3527   35.5320   56.1364 C   0  0  0  0  0  0  0  0  0  0  0  0
   74.5234   35.1661   56.1125 O   0  0  0  0  0  0  0  0  0  0  0  0
   72.6370   35.5129   54.8649 N   0  0  0  0  0  0  0  0  0  0  0  0
   71.1789   39.2088   58.4779 C   0  0  0  0  0  0  0  0  0  0  0  0
   71.5137   37.7977   58.3844 N   0  0  0  0  0  0  0  0  0  0  0  0
   72.2228   37.2946   57.4038 N   0  0  0  0  0  0  0  0  0  0  0  0
   72.5610   35.9900   57.2617 C   0  0  0  0  0  0  0  0  0  0  0  0
   72.1136   35.1415   58.2406 C   0  0  0  0  0  0  0  0  0  0  0  0
   72.3965   33.7967   58.2064 C   0  0  0  0  0  0  0  0  0  0  0  0
   71.9339   32.9376   59.2150 C   0  0  0  0  0  0  0  0  0  0  0  0
   71.1986   33.4559   60.2331 C   0  0  0  0  0  0  0  0  0  0  0  0
   70.8795   34.7987   60.3268 C   0  0  0  0  0  0  0  0  0  0  0  0
   71.3498   35.6097   59.3205 C   0  0  0  0  0  0  0  0  0  0  0  0
   71.0724   36.9550   59.3522 C   0  0  0  0  0  0  0  0  0  0  0  0
   70.3879   37.4247   60.3048 O   0  0  0  0  0  0  0  0  0  0  0  0
   73.3614   35.0778   53.7525 N   0  0  0  0  0  0  0  0  0  0  0  0
   72.6844   35.0222   52.4592 C   0  0  0  0  0  0  0  0  0  0  0  0
   71.4819   35.3730   52.4192 O   0  0  0  0  0  0  0  0  0  0  0  0
   73.4697   34.5677   51.3437 C   0  0  0  0  0  0  0  0  0  0  0  0
   74.8243   34.0289   51.4729 C   0  0  0  0  0  0  0  0  0  0  0  0
   75.8515   34.4364   50.5155 C   0  0  0  0  0  0  0  0  0  0  0  0
   75.8343   33.9852   49.1948 C   0  0  0  0  0  0  0  0  0  0  0  0
   76.7514   34.4364   48.2813 C   0  0  0  0  0  0  0  0  0  0  0  0
   77.7142   35.3390   48.6205 C   0  0  0  0  0  0  0  0  0  0  0  0
   77.7657   35.8045   49.9059 C   0  0  0  0  0  0  0  0  0  0  0  0
   76.8253   35.3382   50.8386 C   0  0  0  0  0  0  0  0  0  0  0  0
   77.0666   35.9151   52.4929 Cl  0  0  0  0  0  0  0  0  0  0  0  0
  4  5  1  0
  5  6  1  0
  5 14  1  0
  6  7  2  0
  7  1  1  0
  7  8  1  0
  1  2  2  0
  1  3  1  0
  3 16  1  0
 16 17  1  0
 17 18  2  0
 17 19  1  0
 19 20  1  0
 20 21  1  0
 21 22  2  0
 21 26  1  0
 22 23  1  0
 23 24  2  0
 24 25  1  0
 25 26  2  0
 26 27  1  0
  8  9  1  0
  8 13  2  0
  9 10  2  0
 10 11  1  0
 11 12  2  0
 12 13  1  0
 13 14  1  0
 14 15  2  0
M  END
>  <minimizedAffinity>  (769) 
-8.54634

$$$$
data/200k_reference_output/data/smiles/59695.pdb
     RDKit          3D

 26 28  0  0  0  0  0  0  0  0999 V2000
   69.3012   49.3236   57.3501 C   0  0  0  0  0  0  0  0  0  0  0  0
   69.1436   47.9004   57.1414 N   0  0  0  0  0  0  0  0  0  0  0  0
   70.0327   46.9947   57.6947 C   0  0  0  0  0  0  0  0  0  0  0  0
   69.7993   45.7541   57.4592 O   0  0  0  0  0  0  0  0  0  0  0  0
   71.1548   47.2674   58.4812 N   0  0  0  0  0  0  0  0  0  0  0  0
   71.8184   48.3991   58.9806 C   0  0  0  0  0  0  0  0  0  0  0  0
   72.0525   49.5499   58.6002 O   0  0  0  0  0  0  0  0  0  0  0  0
   72.1269   47.5860   60.2027 C   0  0  0  0  0  0  0  0  0  0  0  0
   72.1970   46.4767   59.1638 C   0  0  2  0  0  0  0  0  0  0  0  0
   67.9992   47.5076   56.3212 C   0  0  0  0  0  0  0  0  0  0  0  0
   68.3358   47.2474   54.9218 C   0  0  0  0  0  0  0  0  0  0  0  0
   67.7599   46.2024   54.2498 C   0  0  0  0  0  0  0  0  0  0  0  0
   68.0691   45.9371   52.9099 C   0  0  0  0  0  0  0  0  0  0  0  0
   68.9855   46.7631   52.2556 C   0  0  0  0  0  0  0  0  0  0  0  0
   69.5681   47.8146   52.9235 C   0  0  0  0  0  0  0  0  0  0  0  0
   69.2324   48.0461   54.2619 C   0  0  0  0  0  0  0  0  0  0  0  0
   70.4953   48.6378   52.2334 N   0  0  0  0  0  0  0  0  0  0  0  0
   70.3935   48.9155   51.0432 O   0  0  0  0  0  0  0  0  0  0  0  0
   71.5853   49.1700   52.9145 O   0  0  0  0  0  0  0  0  0  0  0  0
   73.4880   46.4187   58.3799 C   0  0  0  0  0  0  0  0  0  0  0  0
   73.8361   44.9733   58.2410 C   0  0  0  0  0  0  0  0  0  0  0  0
   75.0778   44.4939   58.6018 C   0  0  0  0  0  0  0  0  0  0  0  0
   75.4126   43.1549   58.4780 C   0  0  0  0  0  0  0  0  0  0  0  0
   74.5077   42.2394   57.9852 C   0  0  0  0  0  0  0  0  0  0  0  0
   73.2643   42.7107   57.6227 C   0  0  0  0  0  0  0  0  0  0  0  0
   72.9262   44.0586   57.7473 C   0  0  0  0  0  0  0  0  0  0  0  0
  1  2  1  0
  2 10  1  0
  2  3  1  0
 10 11  1  0
 11 12  2  0
 11 16  1  0
 12 13  1  0
 13 14  2  0
 14 15  1  0
 15 17  1  0
 15 16  2  0
 17 18  2  0
 17 19  1  0
  3  4  2  0
  3  5  1  0
  5  6  1  0
  5  9  1  0
  6  7  2  0
  6  8  1  0
  8  9  1  0
  9 20  1  6
 20 21  1  0
 21 22  2  0
 21 26  1  0
 22 23  1  0
 23 24  2  0
 24 25  1  0
 25 26  2  0
M  CHG  2  17   1  19  -1
M  END
>  <minimizedAffinity>  (770) 
-8.54633

$$$$
data/reference_output_2/data/smiles/201250.pdb
     RDKit          3D

 24 25  0  0  0  0  0  0  0  0999 V2000
   67.8808   42.8025   56.1927 C   0  0  0  0  0  0  0  0  0  0  0  0
   66.6664   42.6162   55.4811 N   0  0  0  0  0  0  0  0  0  0  0  0
   68.4127   43.9639   56.0922 N   0  0  0  0  0  0  0  0  0  0  0  0
   69.6214   39.6180   58.5251 C   0  0  0  0  0  0  0  0  0  0  0  0
   70.2385   40.8575   58.4124 C   0  0  0  0  0  0  0  0  0  0  0  0
   69.6772   41.8732   57.6650 C   0  0  0  0  0  0  0  0  0  0  0  0
   68.4831   41.7188   56.9929 C   0  0  0  0  0  0  0  0  0  0  0  0
   67.8700   40.4903   57.1043 C   0  0  0  0  0  0  0  0  0  0  0  0
   68.4280   39.4629   57.8539 C   0  0  0  0  0  0  0  0  0  0  0  0
   70.2106   38.5842   59.2964 N   0  0  0  0  0  0  0  0  0  0  0  0
   73.0072   37.8897   59.6474 C   0  0  0  0  0  0  0  0  0  0  0  0
   71.4938   37.5841   58.7925 S   0  0  0  0  0  0  0  0  0  0  0  0
   71.1105   36.1386   59.0138 O   0  0  0  0  0  0  0  0  0  0  0  0
   71.7542   37.7295   57.3251 O   0  0  0  0  0  0  0  0  0  0  0  0
   67.8101   44.9396   55.3325 O   0  0  0  0  0  0  0  0  0  0  0  0
   68.2380   46.2425   55.3797 C   0  0  0  0  0  0  0  0  0  0  0  0
   68.1782   46.8295   56.4885 O   0  0  0  0  0  0  0  0  0  0  0  0
   68.7540   46.9873   54.2310 C   0  0  0  0  0  0  0  0  0  0  0  0
   69.5212   48.1198   54.4046 C   0  0  0  0  0  0  0  0  0  0  0  0
   70.0239   48.8438   53.3339 C   0  0  0  0  0  0  0  0  0  0  0  0
   69.7711   48.4541   52.0359 C   0  0  0  0  0  0  0  0  0  0  0  0
   68.9935   47.3047   51.8494 C   0  0  0  0  0  0  0  0  0  0  0  0
   68.5090   46.6080   52.9336 C   0  0  0  0  0  0  0  0  0  0  0  0
   67.5453   45.1829   52.6546 Cl  0  0  0  0  0  0  0  0  0  0  0  0
 11 12  1  0
 12 13  2  0
 12 14  2  0
 12 10  1  0
 10  4  1  0
  4  5  2  0
  4  9  1  0
  5  6  1  0
  6  7  2  0
  7  1  1  0
  7  8  1  0
  1  2  1  0
  1  3  2  0
  3 15  1  0
 15 16  1  0
 16 17  2  0
 16 18  1  0
 18 19  2  0
 18 23  1  0
 19 20  1  0
 20 21  2  0
 21 22  1  0
 22 23  2  0
 23 24  1  0
  8  9  2  0
M  CHG  1   3   1
M  END
>  <minimizedAffinity>  (771) 
-8.54589

$$$$
data/200k_reference_output/data/smiles/19863.pdb
     RDKit          3D

 28 31  0  0  0  0  0  0  0  0999 V2000
   69.8862   47.6650   51.7373 C   0  0  0  0  0  0  0  0  0  0  0  0
   69.0645   48.3296   52.8210 C   0  0  2  0  0  0  0  0  0  0  0  0
   69.6333   49.5852   53.2855 C   0  0  0  0  0  0  0  0  0  0  0  0
   69.9129   50.6318   52.6248 O   0  0  0  0  0  0  0  0  0  0  0  0
   69.8593   49.4887   54.6945 N   0  0  0  0  0  0  0  0  0  0  0  0
   70.3988   50.3795   55.6939 C   0  0  0  0  0  0  0  0  0  0  0  0
   69.8112   50.0721   57.0330 C   0  0  0  0  0  0  0  0  0  0  0  0
   70.0202   48.6171   57.4317 C   0  0  0  0  0  0  0  0  0  0  0  0
   69.4909   47.7174   56.3719 C   0  0  0  0  0  0  0  0  0  0  0  0
   69.0418   46.4398   56.5896 C   0  0  0  0  0  0  0  0  0  0  0  0
   68.5410   45.6330   55.5554 C   0  0  0  0  0  0  0  0  0  0  0  0
   68.5151   46.1785   54.2987 C   0  0  0  0  0  0  0  0  0  0  0  0
   68.9658   47.4856   54.0286 C   0  0  0  0  0  0  0  0  0  0  0  0
   69.4373   48.2059   55.0785 C   0  0  0  0  0  0  0  0  0  0  0  0
   68.1008   44.3397   55.8587 N   0  0  0  0  0  0  0  0  0  0  0  0
   68.7914   43.3394   56.5684 C   0  0  0  0  0  0  0  0  0  0  0  0
   69.9354   43.5783   57.0021 O   0  0  0  0  0  0  0  0  0  0  0  0
   68.1530   42.0181   56.7941 C   0  0  0  0  0  0  0  0  0  0  0  0
   67.0944   41.7384   56.2234 O   0  0  0  0  0  0  0  0  0  0  0  0
   68.7526   41.0676   57.6619 N   0  0  0  0  0  0  0  0  0  0  0  0
   68.2005   39.7809   57.9273 C   0  0  0  0  0  0  0  0  0  0  0  0
   68.5853   39.1969   59.2591 C   0  0  0  0  0  0  0  0  0  0  0  0
   69.7379   38.2766   59.1102 C   0  0  0  0  0  0  0  0  0  0  0  0
   70.7547   38.5325   58.2283 C   0  0  0  0  0  0  0  0  0  0  0  0
   71.8267   37.6524   58.0898 C   0  0  0  0  0  0  0  0  0  0  0  0
   71.8739   36.5032   58.8478 C   0  0  0  0  0  0  0  0  0  0  0  0
   70.8679   36.2292   59.7341 C   0  0  0  0  0  0  0  0  0  0  0  0
   69.8231   37.1053   59.8562 C   0  0  0  0  0  0  0  0  0  0  0  0
  2  1  1  6
  2  3  1  0
  2 13  1  0
  3  4  2  0
  3  5  1  0
  5  6  1  0
  5 14  1  0
  6  7  1  0
  7  8  1  0
  8  9  1  0
  9 10  1  0
  9 14  2  0
 10 11  2  0
 11 15  1  0
 11 12  1  0
 15 16  1  0
 16 17  2  0
 16 18  1  0
 18 19  2  0
 18 20  1  0
 20 21  1  0
 21 22  1  0
 22 23  1  0
 23 24  2  0
 23 28  1  0
 24 25  1  0
 25 26  2  0
 26 27  1  0
 27 28  2  0
 12 13  2  0
 13 14  1  0
M  END
>  <minimizedAffinity>  (772) 
-8.54533

$$$$
data/200k_reference_output/data/smiles/43924.pdb
     RDKit          3D

 26 28  0  0  0  0  0  0  0  0999 V2000
   70.7439   49.3819   57.5483 C   0  0  0  0  0  0  0  0  0  0  0  0
   70.0671   48.4428   56.6096 C   0  0  0  0  0  0  0  0  0  0  0  0
   69.8021   48.7880   55.2797 C   0  0  0  0  0  0  0  0  0  0  0  0
   69.1818   47.6664   54.7590 C   0  0  0  0  0  0  0  0  0  0  0  0
   68.6996   47.4357   53.4890 C   0  0  0  0  0  0  0  0  0  0  0  0
   68.1062   46.2155   53.1850 C   0  0  0  0  0  0  0  0  0  0  0  0
   68.0083   45.2550   54.1498 C   0  0  0  0  0  0  0  0  0  0  0  0
   68.5050   45.5063   55.4395 C   0  0  0  0  0  0  0  0  0  0  0  0
   69.0892   46.7067   55.7442 C   0  0  0  0  0  0  0  0  0  0  0  0
   69.6288   47.1857   56.8638 N   0  0  0  0  0  0  0  0  0  0  0  0
   67.5971   45.9875   51.8280 C   0  0  0  0  0  0  0  0  0  0  0  0
   68.0006   46.7325   50.9007 O   0  0  0  0  0  0  0  0  0  0  0  0
   66.6999   44.9884   51.5552 O   0  0  0  0  0  0  0  0  0  0  0  0
   70.1200   50.0704   54.5971 C   0  0  0  0  0  0  0  0  0  0  0  0
   71.4125   49.9062   53.8872 C   0  0  0  0  0  0  0  0  0  0  0  0
   71.4068   49.1756   52.8611 O   0  0  0  0  0  0  0  0  0  0  0  0
   72.6135   50.5071   54.2893 N   0  0  0  0  0  0  0  0  0  0  0  0
   73.8332   50.3472   53.6124 N   0  0  0  0  0  0  0  0  0  0  0  0
   69.7487   46.5133   58.1638 C   0  0  0  0  0  0  0  0  0  0  0  0
   70.8548   45.5152   58.1753 C   0  0  0  0  0  0  0  0  0  0  0  0
   72.1451   45.9532   58.3521 C   0  0  0  0  0  0  0  0  0  0  0  0
   73.1840   45.0402   58.3640 C   0  0  0  0  0  0  0  0  0  0  0  0
   72.9937   43.6851   58.2061 C   0  0  0  0  0  0  0  0  0  0  0  0
   71.6873   43.2774   58.0311 C   0  0  0  0  0  0  0  0  0  0  0  0
   71.3857   41.5612   57.8240 Cl  0  0  0  0  0  0  0  0  0  0  0  0
   70.6320   44.1650   58.0139 C   0  0  0  0  0  0  0  0  0  0  0  0
  1  2  1  0
  2  3  2  0
  2 10  1  0
  3 14  1  0
  3  4  1  0
 14 15  1  0
 15 16  2  0
 15 17  1  0
 17 18  1  0
  4  5  2  0
  4  9  1  0
  5  6  1  0
  6 11  1  0
  6  7  2  0
 11 12  2  0
 11 13  1  0
  7  8  1  0
  8  9  2  0
  9 10  1  0
 10 19  1  0
 19 20  1  0
 20 21  2  0
 20 26  1  0
 21 22  1  0
 22 23  2  0
 23 24  1  0
 24 25  1  0
 24 26  2  0
M  END
>  <minimizedAffinity>  (773) 
-8.54505

$$$$
data/reference_output_2/data/smiles/148732.pdb
     RDKit          3D

 27 30  0  0  0  0  0  0  0  0999 V2000
   68.8256   41.5900   57.5084 C   0  0  0  0  0  0  0  0  0  0  0  0
   67.4387   41.8588   56.3110 S   0  0  0  0  0  0  0  0  0  0  0  0
   68.1343   43.5768   55.8780 C   0  0  0  0  0  0  0  0  0  0  0  0
   69.0635   43.5975   56.5688 N   0  0  0  0  0  0  0  0  0  0  0  0
   69.5198   42.7218   57.4018 N   0  0  0  0  0  0  0  0  0  0  0  0
   70.7104   42.8791   58.2318 C   0  0  0  0  0  0  0  0  0  0  0  0
   71.9570   42.5668   57.7163 C   0  0  0  0  0  0  0  0  0  0  0  0
   73.1100   42.7066   58.4688 C   0  0  0  0  0  0  0  0  0  0  0  0
   72.9852   43.1666   59.7510 C   0  0  0  0  0  0  0  0  0  0  0  0
   71.7760   43.4909   60.3150 C   0  0  0  0  0  0  0  0  0  0  0  0
   70.6427   43.3357   59.5237 C   0  0  0  0  0  0  0  0  0  0  0  0
   69.9604   39.5170   58.0634 C   0  0  0  0  0  0  0  0  0  0  0  0
   68.9744   40.3649   58.2832 C   0  0  0  0  0  0  0  0  0  0  0  0
   70.8169   34.6149   60.9430 C   0  0  0  0  0  0  0  0  0  0  0  0
   70.6139   35.8742   60.1852 C   0  0  0  0  0  0  0  0  0  0  0  0
   71.4304   36.2424   59.1447 C   0  0  0  0  0  0  0  0  0  0  0  0
   71.2108   37.4189   58.4676 C   0  0  0  0  0  0  0  0  0  0  0  0
   70.1673   38.2846   58.7955 C   0  0  0  0  0  0  0  0  0  0  0  0
   69.3496   37.9262   59.8290 C   0  0  0  0  0  0  0  0  0  0  0  0
   69.5715   36.7260   60.5216 C   0  0  0  0  0  0  0  0  0  0  0  0
   67.3619   44.3264   54.8921 N   0  0  0  0  0  0  0  0  0  0  0  0
   67.9298   45.4683   54.2488 C   0  0  0  0  0  0  0  0  0  0  0  0
   68.4893   46.4979   54.9707 C   0  0  0  0  0  0  0  0  0  0  0  0
   69.0664   47.6072   54.3412 C   0  0  0  0  0  0  0  0  0  0  0  0
   69.0708   47.6619   52.9746 C   0  0  0  0  0  0  0  0  0  0  0  0
   68.5086   46.6253   52.2629 C   0  0  0  0  0  0  0  0  0  0  0  0
   67.9410   45.5338   52.8930 C   0  0  0  0  0  0  0  0  0  0  0  0
 14 15  1  0
 15 16  2  0
 15 20  1  0
 16 17  1  0
 17 18  2  0
 18 12  1  0
 18 19  1  0
 12 13  2  0
 13  1  1  0
  1  2  1  0
  1  5  2  0
  2  3  1  0
  3 21  1  0
  3  4  2  0
 21 22  1  0
 22 23  2  0
 22 27  1  0
 23 24  1  0
 24 25  2  0
 25 26  1  0
 26 27  2  0
  4  5  1  0
  5  6  1  0
  6  7  2  0
  6 11  1  0
  7  8  1  0
  8  9  2  0
  9 10  1  0
 10 11  2  0
 19 20  2  0
M  CHG  1   5   1
M  END
>  <minimizedAffinity>  (774) 
-8.54464

$$$$
data/reference_output_2/data/smiles/176793.pdb
     RDKit          3D

 24 27  0  0  0  0  0  0  0  0999 V2000
   66.5138   42.2413   56.2022 O   0  0  0  0  0  0  0  0  0  0  0  0
   67.5242   41.7278   56.7516 C   0  0  0  0  0  0  0  0  0  0  0  0
   67.7131   40.4165   57.2462 N   0  0  0  0  0  0  0  0  0  0  0  0
   69.0380   40.2930   57.7880 C   0  0  0  0  0  0  0  0  0  0  0  0
   69.6971   39.2243   58.3830 C   0  0  0  0  0  0  0  0  0  0  0  0
   70.9903   39.3398   58.8352 C   0  0  0  0  0  0  0  0  0  0  0  0
   71.6302   40.5517   58.6859 C   0  0  0  0  0  0  0  0  0  0  0  0
   73.4274   40.7379   59.3064 Br  0  0  0  0  0  0  0  0  0  0  0  0
   70.9707   41.6073   58.0949 C   0  0  0  0  0  0  0  0  0  0  0  0
   69.6622   41.5137   57.6299 C   0  0  0  0  0  0  0  0  0  0  0  0
   68.7546   42.4572   56.9811 C   0  0  0  0  0  0  0  0  0  0  0  0
   69.0195   43.6853   56.6848 N   0  0  0  0  0  0  0  0  0  0  0  0
   68.0774   44.5001   56.0646 N   0  0  0  0  0  0  0  0  0  0  0  0
   68.5047   45.6918   55.3988 C   0  0  0  0  0  0  0  0  0  0  0  0
   68.5701   45.7687   54.0589 N   0  0  0  0  0  0  0  0  0  0  0  0
   68.9745   46.8954   53.4309 C   0  0  0  0  0  0  0  0  0  0  0  0
   69.0405   46.9698   52.0557 C   0  0  0  0  0  0  0  0  0  0  0  0
   69.4534   48.1198   51.4138 C   0  0  0  0  0  0  0  0  0  0  0  0
   69.8205   49.2525   52.1159 C   0  0  0  0  0  0  0  0  0  0  0  0
   69.7534   49.1747   53.4919 C   0  0  0  0  0  0  0  0  0  0  0  0
   69.3390   48.0200   54.1387 C   0  0  0  0  0  0  0  0  0  0  0  0
   69.2742   47.9456   55.4806 N   0  0  0  0  0  0  0  0  0  0  0  0
   68.8714   46.8217   56.1002 C   0  0  0  0  0  0  0  0  0  0  0  0
   68.8108   46.7523   57.3624 O   0  0  0  0  0  0  0  0  0  0  0  0
  1  2  2  0
  2  3  1  0
  2 11  1  0
  3  4  1  0
  4  5  2  0
  4 10  1  0
  5  6  1  0
  6  7  2  0
  7  8  1  0
  7  9  1  0
  9 10  2  0
 10 11  1  0
 11 12  2  0
 12 13  1  0
 13 14  1  0
 14 15  2  0
 14 23  1  0
 15 16  1  0
 16 17  2  0
 16 21  1  0
 17 18  1  0
 18 19  2  0
 19 20  1  0
 20 21  2  0
 21 22  1  0
 22 23  1  0
 23 24  2  0
M  END
>  <minimizedAffinity>  (775) 
-8.54445

$$$$
data/reference_output_2/data/smiles/180710.pdb
     RDKit          3D

 26 28  0  0  0  0  0  0  0  0999 V2000
   69.2517   44.1128   56.7075 O   0  0  0  0  0  0  0  0  0  0  0  0
   68.2808   43.5621   56.0972 C   0  0  0  0  0  0  0  0  0  0  0  0
   67.7237   44.2872   55.0351 N   0  0  0  0  0  0  0  0  0  0  0  0
   68.2094   45.5791   54.6343 C   0  0  0  0  0  0  0  0  0  0  0  0
   68.4535   46.5510   55.5826 C   0  0  0  0  0  0  0  0  0  0  0  0
   68.9233   47.7820   55.1394 C   0  0  0  0  0  0  0  0  0  0  0  0
   69.1452   48.0539   53.8206 C   0  0  0  0  0  0  0  0  0  0  0  0
   69.5839   49.1244   53.1236 N   0  0  0  0  0  0  0  0  0  0  0  0
   69.6025   48.8134   51.8237 C   0  0  0  0  0  0  0  0  0  0  0  0
   69.9646   49.6054   50.9196 O   0  0  0  0  0  0  0  0  0  0  0  0
   69.1783   47.5401   51.6615 N   0  0  0  0  0  0  0  0  0  0  0  0
   68.8933   47.0666   52.8926 C   0  0  0  0  0  0  0  0  0  0  0  0
   68.4265   45.8306   53.2948 C   0  0  0  0  0  0  0  0  0  0  0  0
   67.8578   42.2326   56.5800 C   0  0  0  0  0  0  0  0  0  0  0  0
   66.9967   42.2744   57.6731 O   0  0  0  0  0  0  0  0  0  0  0  0
   67.1556   41.4159   58.7363 C   0  0  0  0  0  0  0  0  0  0  0  0
   66.2762   41.3431   59.6135 O   0  0  0  0  0  0  0  0  0  0  0  0
   68.3574   40.5996   58.8204 C   0  0  0  0  0  0  0  0  0  0  0  0
   68.3454   39.2887   58.8361 C   0  0  0  0  0  0  0  0  0  0  0  0
   69.5017   38.4162   58.9181 C   0  0  0  0  0  0  0  0  0  0  0  0
   70.6188   38.6184   58.1062 C   0  0  0  0  0  0  0  0  0  0  0  0
   71.7266   37.8032   58.1671 C   0  0  0  0  0  0  0  0  0  0  0  0
   71.7803   36.7408   59.0418 C   0  0  0  0  0  0  0  0  0  0  0  0
   70.6871   36.5255   59.8506 C   0  0  0  0  0  0  0  0  0  0  0  0
   70.7332   35.4764   60.7187 F   0  0  0  0  0  0  0  0  0  0  0  0
   69.5597   37.3556   59.7883 C   0  0  0  0  0  0  0  0  0  0  0  0
  1  2  2  0
  2 14  1  0
  2  3  1  0
 14 15  1  0
 15 16  1  0
 16 17  2  0
 16 18  1  0
 18 19  2  0
 19 20  1  0
 20 21  2  0
 20 26  1  0
 21 22  1  0
 22 23  2  0
 23 24  1  0
 24 25  1  0
 24 26  2  0
  3  4  1  0
  4  5  2  0
  4 13  1  0
  5  6  1  0
  6  7  2  0
  7  8  1  0
  7 12  1  0
  8  9  1  0
  9 10  2  0
  9 11  1  0
 11 12  1  0
 12 13  2  0
M  CHG  1   8   1
M  END
>  <minimizedAffinity>  (776) 
-8.54322

$$$$
data/reference_output_2/data/smiles/175854.pdb
     RDKit          3D

 26 28  0  0  0  0  0  0  0  0999 V2000
   74.3572   42.8987   58.5542 C   0  0  0  0  0  0  0  0  0  0  0  0
   73.0244   42.2258   58.3792 C   0  0  0  0  0  0  0  0  0  0  0  0
   72.8723   40.8785   58.6085 C   0  0  0  0  0  0  0  0  0  0  0  0
   71.6588   40.2360   58.4557 C   0  0  0  0  0  0  0  0  0  0  0  0
   70.6045   41.0207   58.0590 C   0  0  0  0  0  0  0  0  0  0  0  0
   70.6846   42.3829   57.8095 C   0  0  0  0  0  0  0  0  0  0  0  0
   71.9069   42.9729   57.9759 C   0  0  0  0  0  0  0  0  0  0  0  0
   72.1294   44.2877   57.7639 F   0  0  0  0  0  0  0  0  0  0  0  0
   71.5342   38.8417   58.7011 N   0  0  0  0  0  0  0  0  0  0  0  0
   71.0208   38.2685   59.8054 C   0  0  0  0  0  0  0  0  0  0  0  0
   71.0723   36.8890   59.6697 C   0  0  0  0  0  0  0  0  0  0  0  0
   71.6412   36.6723   58.4321 C   0  0  0  0  0  0  0  0  0  0  0  0
   71.9014   37.8856   57.8878 N   0  0  0  0  0  0  0  0  0  0  0  0
   69.4896   43.0968   57.4011 C   0  0  0  0  0  0  0  0  0  0  0  0
   68.3603   42.6591   57.7851 O   0  0  0  0  0  0  0  0  0  0  0  0
   69.4865   44.2479   56.6065 N   0  0  0  0  0  0  0  0  0  0  0  0
   68.2690   44.8559   56.2711 N   0  0  0  0  0  0  0  0  0  0  0  0
   68.5547   46.4877   55.8426 S   0  0  0  0  0  0  0  0  0  0  0  0
   69.8748   46.8952   56.4388 O   0  0  0  0  0  0  0  0  0  0  0  0
   67.4391   47.3503   56.4168 O   0  0  0  0  0  0  0  0  0  0  0  0
   68.5706   46.6797   54.1137 C   0  0  0  0  0  0  0  0  0  0  0  0
   67.8420   45.8413   53.3114 C   0  0  0  0  0  0  0  0  0  0  0  0
   67.8612   46.0082   51.9395 C   0  0  0  0  0  0  0  0  0  0  0  0
   68.6211   47.0288   51.3963 C   0  0  0  0  0  0  0  0  0  0  0  0
   69.3606   47.8819   52.1905 C   0  0  0  0  0  0  0  0  0  0  0  0
   69.3325   47.7040   53.5482 C   0  0  0  0  0  0  0  0  0  0  0  0
  1  2  1  0
  2  3  2  0
  2  7  1  0
  3  4  1  0
  4  9  1  0
  4  5  2  0
  9 10  1  0
  9 13  1  0
 10 11  2  0
 11 12  1  0
 12 13  2  0
  5  6  1  0
  6 14  1  0
  6  7  2  0
 14 15  2  0
 14 16  1  0
 16 17  1  0
 17 18  1  0
 18 19  2  0
 18 20  2  0
 18 21  1  0
 21 22  2  0
 21 26  1  0
 22 23  1  0
 23 24  2  0
 24 25  1  0
 25 26  2  0
  7  8  1  0
M  END
>  <minimizedAffinity>  (777) 
-8.54273

$$$$
data/reference_output_2/data/smiles/172414.pdb
     RDKit          3D

 27 29  0  0  0  0  0  0  0  0999 V2000
   68.1158   42.6019   56.2944 C   0  0  0  0  0  0  0  0  0  0  0  0
   69.2430   42.8538   56.7954 O   0  0  0  0  0  0  0  0  0  0  0  0
   67.5050   43.5721   55.5124 N   0  0  0  0  0  0  0  0  0  0  0  0
   68.0450   44.8385   55.2293 N   0  0  0  0  0  0  0  0  0  0  0  0
   67.9866   45.4473   53.9554 C   0  0  0  0  0  0  0  0  0  0  0  0
   67.4129   44.7926   53.0489 O   0  0  0  0  0  0  0  0  0  0  0  0
   68.5367   46.7585   53.6309 C   0  0  0  0  0  0  0  0  0  0  0  0
   69.0404   47.0861   52.3917 C   0  0  0  0  0  0  0  0  0  0  0  0
   69.5576   48.3398   52.1092 C   0  0  0  0  0  0  0  0  0  0  0  0
   69.5919   49.3339   53.0725 C   0  0  0  0  0  0  0  0  0  0  0  0
   70.1058   50.5859   52.7966 C   0  0  0  0  0  0  0  0  0  0  0  0
   70.1090   51.5295   53.8016 C   0  0  0  0  0  0  0  0  0  0  0  0
   69.6224   51.2675   55.0561 C   0  0  0  0  0  0  0  0  0  0  0  0
   69.1197   50.0031   55.2811 C   0  0  0  0  0  0  0  0  0  0  0  0
   69.0884   49.0131   54.3172 C   0  0  0  0  0  0  0  0  0  0  0  0
   68.5733   47.7579   54.5900 C   0  0  0  0  0  0  0  0  0  0  0  0
   67.4477   41.2839   56.5356 C   0  0  1  0  0  0  0  0  0  0  0  0
   67.7740   40.3613   55.5787 O   0  0  0  0  0  0  0  0  0  0  0  0
   68.1259   39.4719   57.9590 N   0  0  0  0  0  0  0  0  0  0  0  0
   67.6949   40.8565   57.9370 C   0  0  2  0  0  0  0  0  0  0  0  0
   66.8715   41.3258   59.0457 C   0  0  0  0  0  0  0  0  0  0  0  0
   67.5351   41.4896   60.3552 C   0  0  0  0  0  0  0  0  0  0  0  0
   66.6779   42.1144   61.3831 C   0  0  0  0  0  0  0  0  0  0  0  0
   67.5241   43.0030   62.2894 C   0  0  0  0  0  0  0  0  0  0  0  0
   68.8483   42.3904   62.6487 C   0  0  0  0  0  0  0  0  0  0  0  0
   69.6666   42.1044   61.3951 C   0  0  0  0  0  0  0  0  0  0  0  0
   68.8048   42.3397   60.1678 C   0  0  0  0  0  0  0  0  0  0  0  0
 20 19  1  6
 20 21  1  0
 20 17  1  0
 21 22  1  0
 22 23  1  0
 22 27  1  0
 23 24  1  0
 24 25  1  0
 25 26  1  0
 26 27  1  0
 17 18  1  6
 17  1  1  0
  1  2  2  0
  1  3  1  0
  3  4  1  0
  4  5  1  0
  5  6  2  0
  5  7  1  0
  7  8  2  0
  7 16  1  0
  8  9  1  0
  9 10  2  0
 10 11  1  0
 10 15  1  0
 11 12  2  0
 12 13  1  0
 13 14  2  0
 14 15  1  0
 15 16  2  0
M  CHG  1  19   1
M  END
>  <minimizedAffinity>  (778) 
-8.54254

$$$$
data/reference_output_2/data/smiles/183975.pdb
     RDKit          3D

 25 27  0  0  0  0  0  0  0  0999 V2000
   68.6984   45.0240   56.1307 C   0  0  0  0  0  0  0  0  0  0  0  0
   68.5899   43.6539   56.1839 N   0  0  0  0  0  0  0  0  0  0  0  0
   69.2785   42.9733   57.0848 C   0  0  0  0  0  0  0  0  0  0  0  0
   70.1149   43.5793   57.9904 C   0  0  0  0  0  0  0  0  0  0  0  0
   70.2352   44.9497   57.9509 C   0  0  0  0  0  0  0  0  0  0  0  0
   69.5135   45.6115   57.0131 N   0  0  0  0  0  0  0  0  0  0  0  0
   71.1138   45.6557   58.8846 C   0  0  0  0  0  0  0  0  0  0  0  0
   71.9320   45.0007   59.7748 C   0  0  0  0  0  0  0  0  0  0  0  0
   72.7654   45.7111   60.6555 C   0  0  0  0  0  0  0  0  0  0  0  0
   72.8076   47.0847   60.6729 C   0  0  0  0  0  0  0  0  0  0  0  0
   71.9918   47.7432   59.7842 C   0  0  0  0  0  0  0  0  0  0  0  0
   71.1647   47.0344   58.9106 C   0  0  0  0  0  0  0  0  0  0  0  0
   73.8430   47.9759   61.7657 S   0  0  0  0  0  0  0  0  0  0  0  0
   74.2678   49.5171   61.1117 N   0  0  0  0  0  0  0  0  0  0  0  0
   75.0880   47.2031   62.0819 O   0  0  0  0  0  0  0  0  0  0  0  0
   73.1523   48.2394   63.0845 O   0  0  0  0  0  0  0  0  0  0  0  0
   67.9339   45.6489   55.1344 N   0  0  0  0  0  0  0  0  0  0  0  0
   70.2846   49.7468   53.5561 C   0  0  0  0  0  0  0  0  0  0  0  0
   69.5718   48.4775   53.2647 C   0  0  0  0  0  0  0  0  0  0  0  0
   69.3670   48.0770   51.9643 C   0  0  0  0  0  0  0  0  0  0  0  0
   68.7010   46.8910   51.7413 C   0  0  0  0  0  0  0  0  0  0  0  0
   68.2533   46.1321   52.8015 C   0  0  0  0  0  0  0  0  0  0  0  0
   67.6058   44.9775   52.5376 F   0  0  0  0  0  0  0  0  0  0  0  0
   68.4445   46.5107   54.1416 C   0  0  0  0  0  0  0  0  0  0  0  0
   69.1061   47.6866   54.3181 C   0  0  0  0  0  0  0  0  0  0  0  0
 18 19  1  0
 19 20  2  0
 19 25  1  0
 20 21  1  0
 21 22  2  0
 22 23  1  0
 22 24  1  0
 24 17  1  0
 24 25  2  0
 17  1  1  0
  1  2  2  0
  1  6  1  0
  2  3  1  0
  3  4  2  0
  4  5  1  0
  5  7  1  0
  5  6  2  0
  7  8  2  0
  7 12  1  0
  8  9  1  0
  9 10  2  0
 10 13  1  0
 10 11  1  0
 13 14  1  0
 13 15  2  0
 13 16  2  0
 11 12  2  0
M  END
>  <minimizedAffinity>  (779) 
-8.54226

$$$$
data/reference_output_2/data/smiles/198737.pdb
     RDKit          3D

 25 27  0  0  0  0  0  0  0  0999 V2000
   70.6178   46.2127   59.2420 O   0  0  0  0  0  0  0  0  0  0  0  0
   70.5831   45.4446   58.2443 C   0  0  0  0  0  0  0  0  0  0  0  0
   69.6468   45.7686   57.2373 N   0  0  0  0  0  0  0  0  0  0  0  0
   71.4816   44.2798   58.1588 C   0  0  0  0  0  0  0  0  0  0  0  0
   72.8318   44.4899   57.9101 C   0  0  0  0  0  0  0  0  0  0  0  0
   73.7174   43.4368   57.8217 C   0  0  0  0  0  0  0  0  0  0  0  0
   73.2474   42.1502   57.9837 C   0  0  0  0  0  0  0  0  0  0  0  0
   71.8984   41.8863   58.2360 C   0  0  0  0  0  0  0  0  0  0  0  0
   71.0749   42.9939   58.3103 C   0  0  0  0  0  0  0  0  0  0  0  0
   71.4367   40.5366   58.4014 C   0  0  0  0  0  0  0  0  0  0  0  0
   72.3200   39.5123   58.6003 C   0  0  0  0  0  0  0  0  0  0  0  0
   71.8951   38.1936   58.7648 C   0  0  0  0  0  0  0  0  0  0  0  0
   70.5411   37.9203   58.7249 C   0  0  0  0  0  0  0  0  0  0  0  0
   69.6440   38.9299   58.5273 C   0  0  0  0  0  0  0  0  0  0  0  0
   70.0994   40.2417   58.3652 C   0  0  0  0  0  0  0  0  0  0  0  0
   68.7919   46.8681   57.3096 N   0  0  0  0  0  0  0  0  0  0  0  0
   69.1965   48.0510   56.1042 S   0  0  0  0  0  0  0  0  0  0  0  0
   70.5918   48.5394   56.2802 O   0  0  0  0  0  0  0  0  0  0  0  0
   68.2843   49.2400   56.3686 O   0  0  0  0  0  0  0  0  0  0  0  0
   68.9115   47.4766   54.4927 C   0  0  0  0  0  0  0  0  0  0  0  0
   69.5110   48.0871   53.4185 C   0  0  0  0  0  0  0  0  0  0  0  0
   69.3010   47.6502   52.1276 C   0  0  0  0  0  0  0  0  0  0  0  0
   68.4590   46.5628   51.9252 C   0  0  0  0  0  0  0  0  0  0  0  0
   67.8579   45.9497   53.0055 C   0  0  0  0  0  0  0  0  0  0  0  0
   68.0675   46.3856   54.2902 C   0  0  0  0  0  0  0  0  0  0  0  0
  1  2  2  0
  2  3  1  0
  2  4  1  0
  3 16  1  0
 16 17  1  0
 17 18  2  0
 17 19  2  0
 17 20  1  0
 20 21  2  0
 20 25  1  0
 21 22  1  0
 22 23  2  0
 23 24  1  0
 24 25  2  0
  4  5  2  0
  4  9  1  0
  5  6  1  0
  6  7  2  0
  7  8  1  0
  8 10  1  0
  8  9  2  0
 10 11  2  0
 10 15  1  0
 11 12  1  0
 12 13  2  0
 13 14  1  0
 14 15  2  0
M  END
>  <minimizedAffinity>  (780) 
-8.54189

$$$$
data/reference_output_2/data/smiles/116424.pdb
     RDKit          3D

 26 28  0  0  0  0  0  0  0  0999 V2000
   72.8218   51.9756   55.3296 C   0  0  0  0  0  0  0  0  0  0  0  0
   73.0395   53.1742   55.9701 C   0  0  0  0  0  0  0  0  0  0  0  0
   74.2308   53.5224   56.2191 O   0  0  0  0  0  0  0  0  0  0  0  0
   72.0713   53.9858   56.3382 O   0  0  0  0  0  0  0  0  0  0  0  0
   70.8202   53.7005   56.1128 C   0  0  0  0  0  0  0  0  0  0  0  0
   69.8528   54.6196   56.5372 O   0  0  0  0  0  0  0  0  0  0  0  0
   70.4451   52.5347   55.4800 C   0  0  0  0  0  0  0  0  0  0  0  0
   69.1152   52.2562   55.2629 C   0  0  0  0  0  0  0  0  0  0  0  0
   68.7995   51.0767   54.6354 C   0  0  0  0  0  0  0  0  0  0  0  0
   69.7593   50.1962   54.2334 C   0  0  0  0  0  0  0  0  0  0  0  0
   71.1088   50.5128   54.4718 C   0  0  0  0  0  0  0  0  0  0  0  0
   71.4747   51.6696   55.0885 C   0  0  0  0  0  0  0  0  0  0  0  0
   69.4701   48.9328   53.5649 C   0  0  0  0  0  0  0  0  0  0  0  0
   69.7246   48.7412   52.2054 C   0  0  0  0  0  0  0  0  0  0  0  0
   69.4466   47.5414   51.5916 C   0  0  0  0  0  0  0  0  0  0  0  0
   68.9096   46.5134   52.3312 C   0  0  0  0  0  0  0  0  0  0  0  0
   68.6439   46.6595   53.6730 C   0  0  0  0  0  0  0  0  0  0  0  0
   67.9612   45.2921   54.5245 Cl  0  0  0  0  0  0  0  0  0  0  0  0
   68.9269   47.8607   54.2641 C   0  0  0  0  0  0  0  0  0  0  0  0
   74.8573   50.6632   55.9467 N   0  0  0  0  0  0  0  0  0  0  0  0
   73.8919   51.0753   54.9640 C   0  0  0  0  0  0  0  0  0  0  0  0
   74.0859   50.5769   53.8226 O   0  0  0  0  0  0  0  0  0  0  0  0
   75.9294   49.7608   55.5559 C   0  0  0  0  0  0  0  0  0  0  0  0
   78.2048   49.5381   56.1937 O   0  0  0  0  0  0  0  0  0  0  0  0
   77.2588   50.3070   55.8943 C   0  0  0  0  0  0  0  0  0  0  0  0
   77.5148   51.6688   55.8972 O   0  0  0  0  0  0  0  0  0  0  0  0
 24 25  2  0
 25 26  1  0
 25 23  1  0
 23 20  1  0
 20 21  1  0
 21 22  2  0
 21  1  1  0
  1  2  1  0
  1 12  2  0
  2  3  2  0
  2  4  1  0
  4  5  1  0
  5  6  1  0
  5  7  2  0
  7  8  1  0
  7 12  1  0
  8  9  2  0
  9 10  1  0
 10 13  1  0
 10 11  2  0
 13 14  2  0
 13 19  1  0
 14 15  1  0
 15 16  2  0
 16 17  1  0
 17 18  1  0
 17 19  2  0
 11 12  1  0
M  END
>  <minimizedAffinity>  (781) 
-8.54170

$$$$
data/reference_output_2/data/smiles/193474.pdb
     RDKit          3D

 28 31  0  0  0  0  0  0  0  0999 V2000
   69.2094   48.1841   55.3610 C   0  0  0  0  0  0  0  0  0  0  0  0
   68.8659   49.5102   55.6574 C   0  0  0  0  0  0  0  0  0  0  0  0
   69.1830   50.0991   56.8198 N   0  0  0  0  0  0  0  0  0  0  0  0
   69.8620   49.4141   57.7700 C   0  0  0  0  0  0  0  0  0  0  0  0
   70.2438   48.1035   57.5721 C   0  0  0  0  0  0  0  0  0  0  0  0
   69.9037   47.5282   56.3680 C   0  0  0  0  0  0  0  0  0  0  0  0
   70.9753   47.4014   58.6225 C   0  0  0  0  0  0  0  0  0  0  0  0
   70.8221   46.0505   58.8573 C   0  0  0  0  0  0  0  0  0  0  0  0
   71.5078   45.4244   59.8323 N   0  0  0  0  0  0  0  0  0  0  0  0
   72.3872   46.0652   60.6442 C   0  0  0  0  0  0  0  0  0  0  0  0
   72.5784   47.4127   60.4530 C   0  0  0  0  0  0  0  0  0  0  0  0
   71.8669   48.0667   59.4399 C   0  0  0  0  0  0  0  0  0  0  0  0
   73.5140   48.2447   61.2695 C   0  0  0  0  0  0  0  0  0  0  0  0
   74.0031   47.5430   62.4860 C   0  0  0  0  0  0  0  0  0  0  0  0
   74.2461   46.0675   62.2719 C   0  0  0  0  0  0  0  0  0  0  0  0
   73.1046   45.4141   61.6640 N   0  0  0  0  0  0  0  0  0  0  0  0
   72.6902   44.1007   62.0898 C   0  0  0  0  0  0  0  0  0  0  0  0
   73.4403   43.4737   63.1209 N   0  0  0  0  0  0  0  0  0  0  0  0
   71.6975   43.5577   61.5466 O   0  0  0  0  0  0  0  0  0  0  0  0
   69.3492   47.9603   52.9261 C   0  0  0  0  0  0  0  0  0  0  0  0
   68.9942   47.2945   51.7360 C   0  0  0  0  0  0  0  0  0  0  0  0
   68.1205   46.2404   51.7686 C   0  0  0  0  0  0  0  0  0  0  0  0
   67.5903   45.8314   52.9623 C   0  0  0  0  0  0  0  0  0  0  0  0
   67.9437   46.4873   54.1242 C   0  0  0  0  0  0  0  0  0  0  0  0
   68.8259   47.5568   54.1231 C   0  0  0  0  0  0  0  0  0  0  0  0
   69.7442   50.3301   52.3110 N   0  0  0  0  0  0  0  0  0  0  0  0
   70.2475   49.0695   52.7901 C   0  0  0  0  0  0  0  0  0  0  0  0
   71.4715   49.0563   53.0546 O   0  0  0  0  0  0  0  0  0  0  0  0
 26 27  1  0
 27 28  2  0
 27 20  1  0
 20 21  2  0
 20 25  1  0
 21 22  1  0
 22 23  2  0
 23 24  1  0
 24 25  2  0
 25  1  1  0
  1  2  2  0
  1  6  1  0
  2  3  1  0
  3  4  2  0
  4  5  1  0
  5  7  1  0
  5  6  2  0
  7  8  2  0
  7 12  1  0
  8  9  1  0
  9 10  2  0
 10 11  1  0
 10 16  1  0
 11 12  2  0
 11 13  1  0
 13 14  1  0
 14 15  1  0
 15 16  1  0
 16 17  1  0
 17 18  1  0
 17 19  2  0
M  END
>  <minimizedAffinity>  (782) 
-8.54112

$$$$
data/reference_output_2/data/smiles/175877.pdb
     RDKit          3D

 25 28  0  0  0  0  0  0  0  0999 V2000
   68.2417   43.6531   56.1656 C   0  0  0  0  0  0  0  0  0  0  0  0
   67.2237   42.9387   56.0059 O   0  0  0  0  0  0  0  0  0  0  0  0
   69.1970   43.1850   57.1028 N   0  0  0  0  0  0  0  0  0  0  0  0
   69.1002   41.9921   57.8620 C   0  0  2  0  0  0  0  0  0  0  0  0
   70.4109   41.3823   58.2608 C   0  0  0  0  0  0  0  0  0  0  0  0
   70.1466   40.0920   58.9994 C   0  0  1  0  0  0  0  0  0  0  0  0
   69.4136   40.4130   60.2643 C   0  0  0  0  0  0  0  0  0  0  0  0
   68.0687   40.9864   59.9271 C   0  0  2  0  0  0  0  0  0  0  0  0
   67.2566   40.0220   59.1174 C   0  0  0  0  0  0  0  0  0  0  0  0
   68.0347   39.7229   57.8530 C   0  0  2  0  0  0  0  0  0  0  0  0
   69.3588   39.1053   58.1757 C   0  0  0  0  0  0  0  0  0  0  0  0
   68.2924   40.9696   57.0462 C   0  0  0  0  0  0  0  0  0  0  0  0
   68.2782   42.2382   59.1030 C   0  0  0  0  0  0  0  0  0  0  0  0
   68.5572   47.2103   53.7996 C   0  0  0  0  0  0  0  0  0  0  0  0
   69.0091   47.1952   55.1020 C   0  0  0  0  0  0  0  0  0  0  0  0
   68.9155   46.0467   55.8887 C   0  0  0  0  0  0  0  0  0  0  0  0
   68.3686   44.8852   55.3959 C   0  0  0  0  0  0  0  0  0  0  0  0
   67.9221   44.9223   54.0910 C   0  0  0  0  0  0  0  0  0  0  0  0
   68.0088   46.0463   53.3038 C   0  0  0  0  0  0  0  0  0  0  0  0
   67.4169   45.9992   51.6601 Cl  0  0  0  0  0  0  0  0  0  0  0  0
   68.6504   48.3636   53.0065 O   0  0  0  0  0  0  0  0  0  0  0  0
   69.6960   49.9823   50.9350 N   0  0  0  0  0  0  0  0  0  0  0  0
   69.9797   48.6313   51.9825 S   0  0  0  0  0  0  0  0  0  0  0  0
   71.2281   48.9238   52.7656 O   0  0  0  0  0  0  0  0  0  0  0  0
   70.2312   47.4357   51.1221 O   0  0  0  0  0  0  0  0  0  0  0  0
 22 23  1  0
 23 24  2  0
 23 25  2  0
 23 21  1  0
 21 14  1  0
 14 15  2  0
 14 19  1  0
 15 16  1  0
 16 17  2  0
 17  1  1  0
 17 18  1  0
  1  2  2  0
  1  3  1  0
  4  3  1  6
  4  5  1  0
  4 12  1  0
  4 13  1  0
  6  5  1  6
  6  7  1  0
  6 11  1  0
  8  7  1  6
  8  9  1  0
  8 13  1  0
 10  9  1  1
 10 11  1  0
 10 12  1  0
 18 19  2  0
 19 20  1  0
M  END
>  <minimizedAffinity>  (783) 
-8.53960

$$$$
data/reference_output_2/data/smiles/153727.pdb
     RDKit          3D

 26 27  0  0  0  0  0  0  0  0999 V2000
   69.0404   42.3473   59.3088 O   0  0  0  0  0  0  0  0  0  0  0  0
   69.6013   41.8550   58.2864 C   0  0  0  0  0  0  0  0  0  0  0  0
   69.6007   42.6496   57.1106 N   0  0  0  0  0  0  0  0  0  0  0  0
   70.2052   40.5348   58.3719 C   0  0  0  0  0  0  0  0  0  0  0  0
   71.5542   40.2869   58.4214 C   0  0  0  0  0  0  0  0  0  0  0  0
   72.0709   39.0027   58.5232 C   0  0  0  0  0  0  0  0  0  0  0  0
   71.2312   37.9080   58.5808 C   0  0  0  0  0  0  0  0  0  0  0  0
   69.8725   38.1407   58.5322 C   0  0  0  0  0  0  0  0  0  0  0  0
   69.3603   39.4269   58.4288 C   0  0  0  0  0  0  0  0  0  0  0  0
   71.7517   36.5259   58.6898 C   0  0  0  0  0  0  0  0  0  0  0  0
   72.0655   35.9898   57.4569 F   0  0  0  0  0  0  0  0  0  0  0  0
   70.8559   35.6675   59.2985 F   0  0  0  0  0  0  0  0  0  0  0  0
   72.9420   36.4589   59.4243 F   0  0  0  0  0  0  0  0  0  0  0  0
   69.0157   43.9435   57.0485 N   0  0  0  0  0  0  0  0  0  0  0  0
   68.4841   44.2085   55.8997 C   0  0  0  0  0  0  0  0  0  0  0  0
   67.8510   45.4389   55.6338 N   0  0  0  0  0  0  0  0  0  0  0  0
   68.3615   46.2961   54.6413 C   0  0  0  0  0  0  0  0  0  0  0  0
   69.0579   47.4324   55.0369 C   0  0  0  0  0  0  0  0  0  0  0  0
   69.5749   48.3175   54.1324 C   0  0  0  0  0  0  0  0  0  0  0  0
   69.4219   48.1132   52.7721 C   0  0  0  0  0  0  0  0  0  0  0  0
   68.7345   46.9911   52.3646 C   0  0  0  0  0  0  0  0  0  0  0  0
   68.5535   46.7431   51.0175 O   0  0  0  0  0  0  0  0  0  0  0  0
   68.2172   46.1047   53.2870 C   0  0  0  0  0  0  0  0  0  0  0  0
   69.9952   49.0711   51.8596 C   0  0  0  0  0  0  0  0  0  0  0  0
   69.8209   50.3143   52.0405 O   0  0  0  0  0  0  0  0  0  0  0  0
   70.7459   48.6386   50.7714 O   0  0  0  0  0  0  0  0  0  0  0  0
  1  2  2  0
  2  3  1  0
  2  4  1  0
  3 14  1  0
 14 15  2  0
 15 16  1  0
 16 17  1  0
 17 18  2  0
 17 23  1  0
 18 19  1  0
 19 20  2  0
 20 24  1  0
 20 21  1  0
 24 25  2  0
 24 26  1  0
 21 22  1  0
 21 23  2  0
  4  5  2  0
  4  9  1  0
  5  6  1  0
  6  7  2  0
  7 10  1  0
  7  8  1  0
 10 11  1  0
 10 12  1  0
 10 13  1  0
  8  9  2  0
M  END
>  <minimizedAffinity>  (784) 
-8.53935

$$$$
data/reference_output_2/data/smiles/180907.pdb
     RDKit          3D

 26 28  0  0  0  0  0  0  0  0999 V2000
   69.2568   45.1064   56.9257 N   0  0  0  0  0  0  0  0  0  0  0  0
   69.7989   46.3189   57.3597 C   0  0  0  0  0  0  0  0  0  0  0  0
   70.6587   46.3085   58.2831 O   0  0  0  0  0  0  0  0  0  0  0  0
   69.3526   47.6016   56.7265 C   0  0  1  0  0  0  0  0  0  0  0  0
   70.4653   48.4729   56.5937 N   0  0  0  0  0  0  0  0  0  0  0  0
   70.4476   49.4770   55.2294 S   0  0  0  0  0  0  0  0  0  0  0  0
   69.5331   50.6565   55.4422 O   0  0  0  0  0  0  0  0  0  0  0  0
   71.8581   49.9394   54.9170 O   0  0  0  0  0  0  0  0  0  0  0  0
   69.8751   48.5053   53.8707 C   0  0  0  0  0  0  0  0  0  0  0  0
   70.3126   48.6945   52.6039 C   0  0  0  0  0  0  0  0  0  0  0  0
   69.8070   47.8910   51.6105 C   0  0  0  0  0  0  0  0  0  0  0  0
   68.8679   46.9040   51.8879 C   0  0  0  0  0  0  0  0  0  0  0  0
   68.4167   46.7013   53.1684 C   0  0  0  0  0  0  0  0  0  0  0  0
   68.9449   47.5298   54.1624 C   0  0  0  0  0  0  0  0  0  0  0  0
   68.5265   47.3836   55.5486 C   0  0  0  0  0  0  0  0  0  0  0  0
   67.3067   47.0265   55.7252 O   0  0  0  0  0  0  0  0  0  0  0  0
   67.9342   42.8793   56.1354 C   0  0  0  0  0  0  0  0  0  0  0  0
   69.0291   42.7613   57.1302 C   0  0  0  0  0  0  0  0  0  0  0  0
   69.6241   43.8505   57.4700 N   0  0  0  0  0  0  0  0  0  0  0  0
   69.3792   41.4548   57.6688 C   0  0  0  0  0  0  0  0  0  0  0  0
   70.6284   41.1881   58.1769 C   0  0  0  0  0  0  0  0  0  0  0  0
   70.9279   39.9216   58.6853 C   0  0  0  0  0  0  0  0  0  0  0  0
   69.9943   38.9091   58.6961 C   0  0  0  0  0  0  0  0  0  0  0  0
   70.3879   37.3093   59.3435 Cl  0  0  0  0  0  0  0  0  0  0  0  0
   68.7439   39.1784   58.1873 C   0  0  0  0  0  0  0  0  0  0  0  0
   68.4506   40.4379   57.6832 C   0  0  0  0  0  0  0  0  0  0  0  0
 17 18  1  0
 18 19  2  0
 18 20  1  0
 19  1  1  0
  1  2  1  0
  2  3  2  0
  4  2  1  6
  4  5  1  0
  4 15  1  0
  5  6  1  0
  6  7  2  0
  6  8  2  0
  6  9  1  0
  9 10  2  0
  9 14  1  0
 10 11  1  0
 11 12  2  0
 12 13  1  0
 13 14  2  0
 14 15  1  0
 15 16  2  0
 20 21  2  0
 20 26  1  0
 21 22  1  0
 22 23  2  0
 23 24  1  0
 23 25  1  0
 25 26  2  0
M  END
>  <minimizedAffinity>  (785) 
-8.53851

$$$$
data/reference_output_2/data/smiles/122227.pdb
     RDKit          3D

 26 28  0  0  0  0  0  0  0  0999 V2000
   68.3375   45.7350   55.4147 C   0  0  0  0  0  0  0  0  0  0  0  0
   68.7270   46.0378   56.5719 O   0  0  0  0  0  0  0  0  0  0  0  0
   68.0655   44.3857   55.1283 N   0  0  0  0  0  0  0  0  0  0  0  0
   69.1286   48.7108   53.3465 N   0  0  0  0  0  0  0  0  0  0  0  0
   69.4457   48.0816   52.1049 C   0  0  0  0  0  0  0  0  0  0  0  0
   68.9379   46.6833   51.9646 C   0  0  0  0  0  0  0  0  0  0  0  0
   68.0135   46.2156   53.0182 C   0  0  0  0  0  0  0  0  0  0  0  0
   68.1697   46.8059   54.3614 C   0  0  2  0  0  0  0  0  0  0  0  0
   69.3784   47.7478   54.4051 C   0  0  0  0  0  0  0  0  0  0  0  0
   69.7057   50.8649   55.1367 C   0  0  0  0  0  0  0  0  0  0  0  0
   70.1571   50.0726   53.6051 S   0  0  0  0  0  0  0  0  0  0  0  0
   71.5892   49.6282   53.7202 O   0  0  0  0  0  0  0  0  0  0  0  0
   70.0133   51.0911   52.5223 O   0  0  0  0  0  0  0  0  0  0  0  0
   68.1997   43.3295   56.0630 C   0  0  0  0  0  0  0  0  0  0  0  0
   67.4898   42.1626   56.2154 C   0  0  0  0  0  0  0  0  0  0  0  0
   67.9967   41.4658   57.2610 N   0  0  0  0  0  0  0  0  0  0  0  0
   69.0158   42.1548   57.7853 N   0  0  0  0  0  0  0  0  0  0  0  0
   69.1533   43.2877   57.0716 C   0  0  0  0  0  0  0  0  0  0  0  0
   69.8250   41.7470   58.9240 C   0  0  0  0  0  0  0  0  0  0  0  0
   70.1613   40.2994   58.8734 C   0  0  0  0  0  0  0  0  0  0  0  0
   71.3466   39.8248   58.3664 C   0  0  0  0  0  0  0  0  0  0  0  0
   71.6727   38.4827   58.3121 C   0  0  0  0  0  0  0  0  0  0  0  0
   70.7616   37.5519   58.7934 C   0  0  0  0  0  0  0  0  0  0  0  0
   71.0452   36.2122   58.7587 F   0  0  0  0  0  0  0  0  0  0  0  0
   69.5636   37.9970   59.3082 C   0  0  0  0  0  0  0  0  0  0  0  0
   69.2511   39.3535   59.3544 C   0  0  0  0  0  0  0  0  0  0  0  0
 10 11  1  0
 11 12  2  0
 11 13  2  0
 11  4  1  0
  4  5  1  0
  4  9  1  0
  5  6  1  0
  6  7  1  0
  7  8  1  0
  8  1  1  1
  8  9  1  0
  1  2  2  0
  1  3  1  0
  3 14  1  0
 14 15  1  0
 14 18  2  0
 15 16  2  0
 16 17  1  0
 17 19  1  0
 17 18  1  0
 19 20  1  0
 20 21  2  0
 20 26  1  0
 21 22  1  0
 22 23  2  0
 23 24  1  0
 23 25  1  0
 25 26  2  0
M  END
>  <minimizedAffinity>  (786) 
-8.53737

$$$$
data/reference_output_2/data/smiles/100217.pdb
     RDKit          3D

 25 27  0  0  0  0  0  0  0  0999 V2000
   70.5467   44.1421   57.5720 N   0  0  0  0  0  0  0  0  0  0  0  0
   70.2995   42.8848   57.7319 C   0  0  0  0  0  0  0  0  0  0  0  0
   69.0448   42.2104   57.4140 C   0  0  0  0  0  0  0  0  0  0  0  0
   68.0274   42.7905   56.9322 O   0  0  0  0  0  0  0  0  0  0  0  0
   69.2240   40.8445   57.7503 N   0  0  0  0  0  0  0  0  0  0  0  0
   70.5353   40.6158   58.2680 C   0  0  0  0  0  0  0  0  0  0  0  0
   71.1719   39.4705   58.7245 C   0  0  0  0  0  0  0  0  0  0  0  0
   70.3665   37.9163   58.7432 Cl  0  0  0  0  0  0  0  0  0  0  0  0
   72.4710   39.5122   59.1842 C   0  0  0  0  0  0  0  0  0  0  0  0
   73.1065   40.7364   59.1704 C   0  0  0  0  0  0  0  0  0  0  0  0
   72.4809   41.8894   58.7155 C   0  0  0  0  0  0  0  0  0  0  0  0
   73.2909   43.4370   58.7013 Cl  0  0  0  0  0  0  0  0  0  0  0  0
   71.1766   41.8382   58.2563 C   0  0  0  0  0  0  0  0  0  0  0  0
   70.7743   46.8997   57.6953 O   0  0  0  0  0  0  0  0  0  0  0  0
   69.7454   46.4481   57.1322 C   0  0  0  0  0  0  0  0  0  0  0  0
   69.6024   45.0372   57.0542 N   0  0  0  0  0  0  0  0  0  0  0  0
   68.7164   47.3796   56.5674 C   0  0  0  0  0  0  0  0  0  0  0  0
   68.6924   47.2897   55.0885 C   0  0  0  0  0  0  0  0  0  0  0  0
   69.3474   48.1852   54.2620 C   0  0  0  0  0  0  0  0  0  0  0  0
   69.3086   48.0788   52.8867 C   0  0  0  0  0  0  0  0  0  0  0  0
   68.6060   47.0617   52.2890 C   0  0  0  0  0  0  0  0  0  0  0  0
   68.5745   46.9642   50.9005 O   0  0  0  0  0  0  0  0  0  0  0  0
   67.9482   46.1624   53.0847 C   0  0  0  0  0  0  0  0  0  0  0  0
   67.2495   45.1509   52.4849 F   0  0  0  0  0  0  0  0  0  0  0  0
   67.9910   46.2745   54.4761 C   0  0  0  0  0  0  0  0  0  0  0  0
 14 15  2  0
 15 17  1  0
 15 16  1  0
 17 18  1  0
 18 19  2  0
 18 25  1  0
 19 20  1  0
 20 21  2  0
 21 22  1  0
 21 23  1  0
 23 24  1  0
 23 25  2  0
 16  1  1  0
  1  2  2  0
  2  3  1  0
  2 13  1  0
  3  4  2  0
  3  5  1  0
  5  6  1  0
  6  7  1  0
  6 13  2  0
  7  8  1  0
  7  9  2  0
  9 10  1  0
 10 11  2  0
 11 12  1  0
 11 13  1  0
M  END
>  <minimizedAffinity>  (787) 
-8.53727

$$$$
data/reference_output_2/data/smiles/124101.pdb
     RDKit          3D

 28 31  0  0  0  0  0  0  0  0999 V2000
   68.6790   43.3868   56.7109 N   0  0  0  0  0  0  0  0  0  0  0  0
   68.0383   44.0691   55.6709 C   0  0  0  0  0  0  0  0  0  0  0  0
   67.0526   43.4705   55.1206 O   0  0  0  0  0  0  0  0  0  0  0  0
   68.3453   45.3811   55.1267 C   0  0  0  0  0  0  0  0  0  0  0  0
   68.8254   46.3940   55.9767 C   0  0  0  0  0  0  0  0  0  0  0  0
   69.1453   47.6420   55.5043 C   0  0  0  0  0  0  0  0  0  0  0  0
   69.0233   47.9960   54.1807 C   0  0  0  0  0  0  0  0  0  0  0  0
   68.5559   47.0169   53.3409 C   0  0  0  0  0  0  0  0  0  0  0  0
   68.2226   45.7323   53.8070 C   0  0  0  0  0  0  0  0  0  0  0  0
   67.7555   44.8293   52.9102 F   0  0  0  0  0  0  0  0  0  0  0  0
   69.3633   49.3003   53.7136 N   0  0  0  0  0  0  0  0  0  0  0  0
   69.7382   49.6568   52.4717 C   0  0  0  0  0  0  0  0  0  0  0  0
   69.9779   50.9846   52.4160 N   0  0  0  0  0  0  0  0  0  0  0  0
   69.7558   51.4725   53.6245 N   0  0  0  0  0  0  0  0  0  0  0  0
   69.3778   50.4410   54.4264 C   0  0  0  0  0  0  0  0  0  0  0  0
   68.3660   42.1128   57.2667 C   0  0  0  0  0  0  0  0  0  0  0  0
   69.0759   41.7457   58.4932 C   0  0  0  0  0  0  0  0  0  0  0  0
   72.8025   35.2860   58.2121 C   0  0  0  0  0  0  0  0  0  0  0  0
   71.8321   36.3464   58.5934 C   0  0  0  0  0  0  0  0  0  0  0  0
   71.7863   37.5731   57.9796 C   0  0  0  0  0  0  0  0  0  0  0  0
   70.8682   38.5624   58.3483 C   0  0  0  0  0  0  0  0  0  0  0  0
   70.6186   39.8049   57.9248 N   0  0  0  0  0  0  0  0  0  0  0  0
   69.6061   40.3791   58.6070 C   0  0  0  0  0  0  0  0  0  0  0  0
   69.2125   39.4195   59.5077 N   0  0  0  0  0  0  0  0  0  0  0  0
   69.9641   38.3266   59.3581 C   0  0  0  0  0  0  0  0  0  0  0  0
   70.0154   37.0820   59.9758 C   0  0  0  0  0  0  0  0  0  0  0  0
   70.9187   36.1088   59.6139 C   0  0  0  0  0  0  0  0  0  0  0  0
   70.9694   34.7743   60.2806 C   0  0  0  0  0  0  0  0  0  0  0  0
 18 19  1  0
 19 20  2  0
 19 27  1  0
 20 21  1  0
 21 22  1  0
 21 25  2  0
 22 23  2  0
 23 17  1  0
 23 24  1  0
 17 16  1  0
 16  1  1  0
  1  2  1  0
  2  3  2  0
  2  4  1  0
  4  5  2  0
  4  9  1  0
  5  6  1  0
  6  7  2  0
  7 11  1  0
  7  8  1  0
 11 12  1  0
 11 15  1  0
 12 13  2  0
 13 14  1  0
 14 15  2  0
  8  9  2  0
  9 10  1  0
 24 25  1  0
 25 26  1  0
 26 27  2  0
 27 28  1  0
M  CHG  1  22   1
M  END
>  <minimizedAffinity>  (788) 
-8.53723

$$$$
data/reference_output_2/data/smiles/106623.pdb
     RDKit          3D

 29 32  0  0  0  0  0  0  0  0999 V2000
   68.6710   46.9407   54.3865 C   0  0  0  0  0  0  0  0  0  0  0  0
   68.8023   47.9214   55.3359 C   0  0  0  0  0  0  0  0  0  0  0  0
   69.1285   49.2217   54.9760 C   0  0  0  0  0  0  0  0  0  0  0  0
   69.3313   49.5834   53.6740 C   0  0  0  0  0  0  0  0  0  0  0  0
   69.2020   48.6037   52.7014 C   0  0  0  0  0  0  0  0  0  0  0  0
   68.8791   47.3267   53.0804 C   0  0  0  0  0  0  0  0  0  0  0  0
   68.6590   44.9147   55.8967 N   0  0  0  0  0  0  0  0  0  0  0  0
   68.3377   45.5435   54.6740 C   0  0  0  0  0  0  0  0  0  0  0  0
   67.7412   44.8763   53.7950 O   0  0  0  0  0  0  0  0  0  0  0  0
   69.2171   42.9632   57.2190 C   0  0  0  0  0  0  0  0  0  0  0  0
   69.0403   41.6684   57.6458 C   0  0  0  0  0  0  0  0  0  0  0  0
   68.0219   40.8860   57.1582 C   0  0  0  0  0  0  0  0  0  0  0  0
   67.1944   41.4647   56.2282 C   0  0  0  0  0  0  0  0  0  0  0  0
   67.3758   42.7884   55.7945 C   0  0  0  0  0  0  0  0  0  0  0  0
   68.3891   43.5802   56.2720 C   0  0  0  0  0  0  0  0  0  0  0  0
   71.1689   44.4012   58.2001 N   0  0  0  0  0  0  0  0  0  0  0  0
   70.3035   43.7556   57.7574 C   0  0  0  0  0  0  0  0  0  0  0  0
   69.6693   50.9794   53.3169 C   0  0  0  0  0  0  0  0  0  0  0  0
   69.8581   51.8825   54.4570 C   0  0  0  0  0  0  0  0  0  0  0  0
   68.8142   52.5238   55.1362 C   0  0  0  0  0  0  0  0  0  0  0  0
   69.3269   53.2423   56.1281 N   0  0  0  0  0  0  0  0  0  0  0  0
   70.6535   53.1376   56.1763 C   0  0  0  0  0  0  0  0  0  0  0  0
   71.5980   53.6616   56.9682 N   0  0  0  0  0  0  0  0  0  0  0  0
   72.9161   53.3872   56.7845 C   0  0  0  0  0  0  0  0  0  0  0  0
   73.8971   53.9538   57.6354 N   0  0  0  0  0  0  0  0  0  0  0  0
   73.2443   52.5609   55.7676 N   0  0  0  0  0  0  0  0  0  0  0  0
   72.3271   52.0160   54.9527 C   0  0  0  0  0  0  0  0  0  0  0  0
   72.6899   51.2582   54.0243 O   0  0  0  0  0  0  0  0  0  0  0  0
   70.9868   52.2835   55.1254 C   0  0  0  0  0  0  0  0  0  0  0  0
 16 17  3  0
 17 10  1  0
 10 11  2  0
 10 15  1  0
 11 12  1  0
 12 13  2  0
 13 14  1  0
 14 15  2  0
 15  7  1  0
  7  8  1  0
  8  9  2  0
  8  1  1  0
  1  2  2  0
  1  6  1  0
  2  3  1  0
  3  4  2  0
  4 18  1  0
  4  5  1  0
 18 19  1  0
 19 20  2  0
 19 29  1  0
 20 21  1  0
 21 22  1  0
 22 23  1  0
 22 29  2  0
 23 24  2  0
 24 25  1  0
 24 26  1  0
 26 27  1  0
 27 28  2  0
 27 29  1  0
  5  6  2  0
M  END
>  <minimizedAffinity>  (789) 
-8.53661

$$$$
data/200k_reference_output/data/smiles/70837.pdb
     RDKit          3D

 29 32  0  0  0  0  0  0  0  0999 V2000
   73.3048   50.9776   55.9148 C   0  0  1  0  0  0  0  0  0  0  0  0
   74.0801   50.8395   54.6261 C   0  0  0  0  0  0  0  0  0  0  0  0
   74.8227   49.8834   54.3864 O   0  0  0  0  0  0  0  0  0  0  0  0
   73.8312   51.9458   53.7533 N   0  0  0  0  0  0  0  0  0  0  0  0
   73.0405   53.0620   54.1581 C   0  0  0  0  0  0  0  0  0  0  0  0
   72.1152   52.8477   55.3212 C   0  0  0  0  0  0  0  0  0  0  0  0
   72.0154   51.3668   55.6054 N   0  0  1  0  0  0  0  0  0  0  0  0
   73.6735   50.0712   56.9923 C   0  0  0  0  0  0  0  0  0  0  0  0
   74.6805   50.1870   60.7077 C   0  0  0  0  0  0  0  0  0  0  0  0
   74.2728   49.6534   59.4265 N   0  0  0  0  0  0  0  0  0  0  0  0
   74.0763   50.5267   58.3031 C   0  0  0  0  0  0  0  0  0  0  0  0
   74.2752   51.7338   58.5123 O   0  0  0  0  0  0  0  0  0  0  0  0
   74.0800   48.2201   59.3510 C   0  0  0  0  0  0  0  0  0  0  0  0
   72.6483   47.8818   59.0582 C   0  0  0  0  0  0  0  0  0  0  0  0
   72.0117   47.0351   60.1407 C   0  0  0  0  0  0  0  0  0  0  0  0
   72.3051   47.6854   61.3567 O   0  0  0  0  0  0  0  0  0  0  0  0
   73.6038   47.3761   61.6754 C   0  0  0  0  0  0  0  0  0  0  0  0
   74.5996   47.5918   60.6106 C   0  0  0  0  0  0  0  0  0  0  0  0
   71.2478   50.9609   54.5091 C   0  0  0  0  0  0  0  0  0  0  0  0
   70.4712   49.7484   54.4908 C   0  0  0  0  0  0  0  0  0  0  0  0
   69.9687   49.1426   55.6231 C   0  0  0  0  0  0  0  0  0  0  0  0
   69.1883   48.0049   55.5747 C   0  0  0  0  0  0  0  0  0  0  0  0
   68.8738   47.4176   54.3675 C   0  0  0  0  0  0  0  0  0  0  0  0
   68.0948   46.2816   54.2943 C   0  0  0  0  0  0  0  0  0  0  0  0
   67.7956   45.7144   53.0725 C   0  0  0  0  0  0  0  0  0  0  0  0
   68.3042   46.3291   51.9497 C   0  0  0  0  0  0  0  0  0  0  0  0
   69.0728   47.4491   51.9971 C   0  0  0  0  0  0  0  0  0  0  0  0
   69.3719   48.0172   53.2303 C   0  0  0  0  0  0  0  0  0  0  0  0
   70.1459   49.1464   53.2917 C   0  0  0  0  0  0  0  0  0  0  0  0
  9 10  1  0
 10 11  1  0
 10 13  1  0
 11 12  2  0
 11  8  1  0
  1  8  1  6
  1  2  1  0
  1  7  1  0
  2  3  2  0
  2  4  1  0
  4  5  1  0
  5  6  1  0
  6  7  1  0
  7 19  1  6
 19 20  1  0
 20 21  2  0
 20 29  1  0
 21 22  1  0
 22 23  2  0
 23 24  1  0
 23 28  1  0
 24 25  2  0
 25 26  1  0
 26 27  2  0
 27 28  1  0
 28 29  2  0
 13 14  1  0
 13 18  1  0
 14 15  1  0
 15 16  1  0
 16 17  1  0
 17 18  1  0
M  CHG  1   7   1
M  END
>  <minimizedAffinity>  (790) 
-8.53582

$$$$
data/reference_output_2/data/smiles/117407.pdb
     RDKit          3D

 27 30  0  0  0  0  0  0  0  0999 V2000
   70.8659   42.4889   57.9421 N   0  0  0  0  0  0  0  0  0  0  0  0
   71.4521   41.4705   58.6471 C   0  0  0  0  0  0  0  0  0  0  0  0
   72.5563   41.7086   59.1975 O   0  0  0  0  0  0  0  0  0  0  0  0
   70.8471   40.2399   58.7452 C   0  0  0  0  0  0  0  0  0  0  0  0
   71.2389   39.0709   59.3913 C   0  0  0  0  0  0  0  0  0  0  0  0
   70.2845   38.1262   59.1826 C   0  0  0  0  0  0  0  0  0  0  0  0
   69.2928   38.6866   58.4107 C   0  0  0  0  0  0  0  0  0  0  0  0
   69.6681   39.9590   58.1683 N   0  0  0  0  0  0  0  0  0  0  0  0
   69.0799   40.9500   57.4726 C   0  0  0  0  0  0  0  0  0  0  0  0
   67.8571   40.6654   56.9081 C   0  0  0  0  0  0  0  0  0  0  0  0
   67.2325   41.6826   56.2202 C   0  0  0  0  0  0  0  0  0  0  0  0
   67.8442   42.9264   56.1253 C   0  0  0  0  0  0  0  0  0  0  0  0
   69.0364   43.1552   56.6916 N   0  0  0  0  0  0  0  0  0  0  0  0
   69.6853   42.1985   57.3698 C   0  0  0  0  0  0  0  0  0  0  0  0
   71.5116   43.7821   57.9147 C   0  0  0  0  0  0  0  0  0  0  0  0
   70.9029   44.8687   58.6946 C   0  0  0  0  0  0  0  0  0  0  0  0
   71.2316   47.1869   58.1844 O   0  0  0  0  0  0  0  0  0  0  0  0
   70.5666   46.1435   58.0595 C   0  0  0  0  0  0  0  0  0  0  0  0
   69.3688   46.1524   57.2371 N   0  0  0  0  0  0  0  0  0  0  0  0
   68.9389   47.3364   56.5616 C   0  0  0  0  0  0  0  0  0  0  0  0
   68.7332   47.0981   55.1149 C   0  0  0  0  0  0  0  0  0  0  0  0
   69.2466   48.0273   54.2042 C   0  0  0  0  0  0  0  0  0  0  0  0
   69.1034   47.8623   52.8458 C   0  0  0  0  0  0  0  0  0  0  0  0
   68.4484   46.7751   52.3149 C   0  0  0  0  0  0  0  0  0  0  0  0
   68.3192   46.6343   50.9695 F   0  0  0  0  0  0  0  0  0  0  0  0
   67.9388   45.8541   53.2019 C   0  0  0  0  0  0  0  0  0  0  0  0
   68.0798   46.0138   54.5856 C   0  0  0  0  0  0  0  0  0  0  0  0
 17 18  2  0
 18 16  1  0
 18 19  1  0
 16 15  1  0
 15  1  1  0
  1  2  1  0
  1 14  1  0
  2  3  2  0
  2  4  1  0
  4  5  2  0
  4  8  1  0
  5  6  1  0
  6  7  2  0
  7  8  1  0
  8  9  1  0
  9 10  1  0
  9 14  2  0
 10 11  2  0
 11 12  1  0
 12 13  2  0
 13 14  1  0
 19 20  1  0
 20 21  1  0
 21 22  2  0
 21 27  1  0
 22 23  1  0
 23 24  2  0
 24 25  1  0
 24 26  1  0
 26 27  2  0
M  END
>  <minimizedAffinity>  (791) 
-8.53571

$$$$
data/reference_output_2/data/smiles/88939.pdb
     RDKit          3D

 27 29  0  0  0  0  0  0  0  0999 V2000
   70.7724   43.4256   59.2058 N   0  0  0  0  0  0  0  0  0  0  0  0
   70.8498   42.3190   58.3423 C   0  0  0  0  0  0  0  0  0  0  0  0
   70.2207   42.4475   57.2471 O   0  0  0  0  0  0  0  0  0  0  0  0
   71.5561   41.0716   58.5614 C   0  0  0  0  0  0  0  0  0  0  0  0
   70.8618   39.8535   58.5201 C   0  0  0  0  0  0  0  0  0  0  0  0
   71.5239   38.6679   58.7275 C   0  0  0  0  0  0  0  0  0  0  0  0
   70.8584   37.4571   58.6909 C   0  0  0  0  0  0  0  0  0  0  0  0
   71.4899   36.2492   58.8943 C   0  0  0  0  0  0  0  0  0  0  0  0
   72.8422   36.2634   59.1417 C   0  0  0  0  0  0  0  0  0  0  0  0
   73.5657   37.4362   59.1916 C   0  0  0  0  0  0  0  0  0  0  0  0
   72.8757   38.6201   58.9796 C   0  0  0  0  0  0  0  0  0  0  0  0
   73.4982   39.7657   59.0118 O   0  0  0  0  0  0  0  0  0  0  0  0
   72.8979   40.9425   58.8177 C   0  0  0  0  0  0  0  0  0  0  0  0
   73.6199   41.9782   58.8765 O   0  0  0  0  0  0  0  0  0  0  0  0
   70.6710   45.7009   58.2214 C   0  0  0  0  0  0  0  0  0  0  0  0
   71.8982   45.5674   57.9922 O   0  0  0  0  0  0  0  0  0  0  0  0
   70.0378   44.5945   58.8602 N   0  0  0  0  0  0  0  0  0  0  0  0
   69.9560   46.9340   57.8429 C   0  0  0  0  0  0  0  0  0  0  0  0
   68.8968   46.6135   56.9772 O   0  0  0  0  0  0  0  0  0  0  0  0
   69.9328   49.6417   53.3135 C   0  0  0  0  0  0  0  0  0  0  0  0
   69.3449   48.3842   53.8350 C   0  0  0  0  0  0  0  0  0  0  0  0
   68.7488   47.5349   52.9262 C   0  0  0  0  0  0  0  0  0  0  0  0
   68.1884   46.3549   53.3655 C   0  0  0  0  0  0  0  0  0  0  0  0
   67.5544   45.4645   52.3505 C   0  0  0  0  0  0  0  0  0  0  0  0
   68.2289   46.0369   54.7013 C   0  0  0  0  0  0  0  0  0  0  0  0
   68.8137   46.8576   55.6340 C   0  0  0  0  0  0  0  0  0  0  0  0
   69.3726   48.0436   55.1685 C   0  0  0  0  0  0  0  0  0  0  0  0
 20 21  1  0
 21 22  2  0
 21 27  1  0
 22 23  1  0
 23 24  1  0
 23 25  2  0
 25 26  1  0
 26 19  1  0
 26 27  2  0
 19 18  1  0
 18 15  1  0
 15 16  2  0
 15 17  1  0
 17  1  1  0
  1  2  1  0
  2  3  2  0
  2  4  1  0
  4  5  2  0
  4 13  1  0
  5  6  1  0
  6  7  2  0
  6 11  1  0
  7  8  1  0
  8  9  2  0
  9 10  1  0
 10 11  2  0
 11 12  1  0
 12 13  1  0
 13 14  2  0
M  END
>  <minimizedAffinity>  (792) 
-8.53567

$$$$
data/200k_reference_output/data/smiles/13728.pdb
     RDKit          3D

 28 30  0  0  0  0  0  0  0  0999 V2000
   70.4172   53.1461   55.8650 C   0  0  0  0  0  0  0  0  0  0  0  0
   70.6461   51.9539   55.0310 N   0  0  0  0  0  0  0  0  0  0  0  0
   69.5481   51.4260   54.3524 C   0  0  0  0  0  0  0  0  0  0  0  0
   68.4146   51.9801   54.4875 O   0  0  0  0  0  0  0  0  0  0  0  0
   69.5715   50.2701   53.4760 C   0  0  0  0  0  0  0  0  0  0  0  0
   69.9707   50.3795   52.1859 N   0  0  0  0  0  0  0  0  0  0  0  0
   69.9800   49.3287   51.3894 N   0  0  0  0  0  0  0  0  0  0  0  0
   69.6058   48.1061   51.7820 C   0  0  0  0  0  0  0  0  0  0  0  0
   69.6178   47.1079   51.0149 O   0  0  0  0  0  0  0  0  0  0  0  0
   69.1857   47.9056   53.0768 C   0  0  0  0  0  0  0  0  0  0  0  0
   68.7993   46.6457   53.4835 C   0  0  0  0  0  0  0  0  0  0  0  0
   68.3859   46.4960   54.7891 C   0  0  0  0  0  0  0  0  0  0  0  0
   68.3688   47.5915   55.6428 C   0  0  0  0  0  0  0  0  0  0  0  0
   68.7575   48.8339   55.2141 C   0  0  0  0  0  0  0  0  0  0  0  0
   69.1779   49.0216   53.9169 C   0  0  0  0  0  0  0  0  0  0  0  0
   71.9912   51.4568   55.0156 C   0  0  0  0  0  0  0  0  0  0  0  0
   72.1533   50.4032   56.0395 C   0  0  0  0  0  0  0  0  0  0  0  0
   73.1393   49.5914   56.0136 O   0  0  0  0  0  0  0  0  0  0  0  0
   71.2458   50.2065   57.1202 N   0  0  0  0  0  0  0  0  0  0  0  0
   71.4771   49.1554   58.0709 C   0  0  0  0  0  0  0  0  0  0  0  0
   70.8955   47.9271   57.8363 C   0  0  0  0  0  0  0  0  0  0  0  0
   71.1231   46.8688   58.7227 C   0  0  0  0  0  0  0  0  0  0  0  0
   71.9244   47.0312   59.8343 C   0  0  0  0  0  0  0  0  0  0  0  0
   72.1470   46.0124   60.6903 F   0  0  0  0  0  0  0  0  0  0  0  0
   72.5026   48.2529   60.0679 C   0  0  0  0  0  0  0  0  0  0  0  0
   73.3057   48.4430   61.1588 F   0  0  0  0  0  0  0  0  0  0  0  0
   72.2659   49.2933   59.1804 C   0  0  0  0  0  0  0  0  0  0  0  0
   72.8437   50.4768   59.4276 F   0  0  0  0  0  0  0  0  0  0  0  0
  1  2  1  0
  2 16  1  0
  2  3  1  0
 16 17  1  0
 17 18  2  0
 17 19  1  0
 19 20  1  0
 20 21  2  0
 20 27  1  0
 21 22  1  0
 22 23  2  0
 23 24  1  0
 23 25  1  0
 25 26  1  0
 25 27  2  0
 27 28  1  0
  3  4  2  0
  3  5  1  0
  5  6  2  0
  5 15  1  0
  6  7  1  0
  7  8  1  0
  8  9  2  0
  8 10  1  0
 10 11  1  0
 10 15  2  0
 11 12  2  0
 12 13  1  0
 13 14  2  0
 14 15  1  0
M  END
>  <minimizedAffinity>  (793) 
-8.53560

$$$$
data/reference_output_2/data/smiles/180717.pdb
     RDKit          3D

 26 27  0  0  0  0  0  0  0  0999 V2000
   70.5578   45.1055   59.0151 N   0  0  0  0  0  0  0  0  0  0  0  0
   70.3605   43.8207   58.4442 C   0  0  0  0  0  0  0  0  0  0  0  0
   69.3821   43.7673   57.6130 O   0  0  0  0  0  0  0  0  0  0  0  0
   69.7418   46.2001   58.6935 N   0  0  0  0  0  0  0  0  0  0  0  0
   70.0695   47.1520   57.7303 C   0  0  0  0  0  0  0  0  0  0  0  0
   70.5950   48.6260   58.1254 S   0  0  0  0  0  0  0  0  0  0  0  0
   68.6796   46.7851   55.7109 C   0  0  0  0  0  0  0  0  0  0  0  0
   67.6858   47.0669   56.4673 O   0  0  0  0  0  0  0  0  0  0  0  0
   69.9365   46.8180   56.3327 N   0  0  0  0  0  0  0  0  0  0  0  0
   69.4908   48.4211   53.0244 C   0  0  0  0  0  0  0  0  0  0  0  0
   68.7507   47.1530   53.1874 C   0  0  0  0  0  0  0  0  0  0  0  0
   68.2539   46.4206   52.1026 C   0  0  0  0  0  0  0  0  0  0  0  0
   67.6317   45.3192   52.6359 C   0  0  0  0  0  0  0  0  0  0  0  0
   67.7478   45.3906   53.9219 O   0  0  0  0  0  0  0  0  0  0  0  0
   68.4095   46.4670   54.3193 C   0  0  0  0  0  0  0  0  0  0  0  0
   71.1531   42.6254   58.7212 C   0  0  0  0  0  0  0  0  0  0  0  0
   70.5024   41.4172   58.7628 O   0  0  0  0  0  0  0  0  0  0  0  0
   71.0485   40.1428   58.7166 C   0  0  0  0  0  0  0  0  0  0  0  0
   72.3964   39.8642   58.7862 C   0  0  0  0  0  0  0  0  0  0  0  0
   72.8861   38.5748   58.7353 C   0  0  0  0  0  0  0  0  0  0  0  0
   72.0490   37.4822   58.6121 C   0  0  0  0  0  0  0  0  0  0  0  0
   70.6978   37.7481   58.5420 C   0  0  0  0  0  0  0  0  0  0  0  0
   70.2094   39.0361   58.5922 C   0  0  0  0  0  0  0  0  0  0  0  0
   72.5841   36.0956   58.5578 C   0  0  0  0  0  0  0  0  0  0  0  0
   71.5169   35.0940   59.0171 C   0  0  0  0  0  0  0  0  0  0  0  0
   72.8956   35.7342   57.1138 C   0  0  0  0  0  0  0  0  0  0  0  0
 10 11  1  0
 11 12  1  0
 11 15  2  0
 12 13  2  0
 13 14  1  0
 14 15  1  0
 15  7  1  0
  7  8  2  0
  7  9  1  0
  9  5  1  0
  5  6  2  0
  5  4  1  0
  4  1  1  0
  1  2  1  0
  2  3  2  0
  2 16  1  0
 16 17  1  0
 17 18  1  0
 18 19  2  0
 18 23  1  0
 19 20  1  0
 20 21  2  0
 21 24  1  0
 21 22  1  0
 24 25  1  0
 24 26  1  0
 22 23  2  0
M  END
>  <minimizedAffinity>  (794) 
-8.53545

$$$$
data/200k_reference_output/data/smiles/63890.pdb
     RDKit          3D

 23 23  0  0  0  0  0  0  0  0999 V2000
   70.5301   50.4772   54.0307 S   0  0  0  0  0  0  0  0  0  0  0  0
   70.1598   51.3687   52.8504 O   0  0  0  0  0  0  0  0  0  0  0  0
   69.9284   51.1558   55.2309 O   0  0  0  0  0  0  0  0  0  0  0  0
   69.7592   48.9420   53.7139 C   0  0  0  0  0  0  0  0  0  0  0  0
   69.5572   48.4477   52.4475 C   0  0  0  0  0  0  0  0  0  0  0  0
   70.0044   49.1547   51.3825 F   0  0  0  0  0  0  0  0  0  0  0  0
   68.9143   47.2178   52.2542 C   0  0  0  0  0  0  0  0  0  0  0  0
   68.7288   46.7569   50.9988 F   0  0  0  0  0  0  0  0  0  0  0  0
   68.4592   46.4517   53.3034 C   0  0  0  0  0  0  0  0  0  0  0  0
   67.8419   45.2695   53.1069 F   0  0  0  0  0  0  0  0  0  0  0  0
   68.6585   46.9396   54.5763 C   0  0  0  0  0  0  0  0  0  0  0  0
   68.2152   46.1935   55.6240 F   0  0  0  0  0  0  0  0  0  0  0  0
   69.2905   48.1478   54.7712 C   0  0  0  0  0  0  0  0  0  0  0  0
   69.4790   48.6142   56.0130 F   0  0  0  0  0  0  0  0  0  0  0  0
   72.2062   50.3077   54.1235 N   0  0  0  0  0  0  0  0  0  0  0  0
   72.8870   51.1649   55.0809 C   0  0  1  0  0  0  0  0  0  0  0  0
   74.2419   50.6891   55.3226 C   0  0  0  0  0  0  0  0  0  0  0  0
   74.8071   51.0861   56.4074 O   0  0  0  0  0  0  0  0  0  0  0  0
   75.0367   49.8478   54.5304 N   0  0  0  0  0  0  0  0  0  0  0  0
   76.2958   49.4687   54.8677 O   0  0  0  0  0  0  0  0  0  0  0  0
   72.4242   53.5520   55.7485 C   0  0  0  0  0  0  0  0  0  0  0  0
   72.7360   52.6017   54.6477 C   0  0  0  0  0  0  0  0  0  0  0  0
   73.8605   53.0717   53.7557 C   0  0  0  0  0  0  0  0  0  0  0  0
 21 22  1  0
 22 23  1  0
 22 16  1  0
 16 15  1  6
 16 17  1  0
 15  1  1  0
  1  2  2  0
  1  3  2  0
  1  4  1  0
  4  5  2  0
  4 13  1  0
  5  6  1  0
  5  7  1  0
  7  8  1  0
  7  9  2  0
  9 10  1  0
  9 11  1  0
 11 12  1  0
 11 13  2  0
 13 14  1  0
 17 18  2  0
 17 19  1  0
 19 20  1  0
M  END
>  <minimizedAffinity>  (795) 
-8.53519

$$$$
data/200k_reference_output/data/smiles/69050.pdb
     RDKit          3D

 29 32  0  0  0  0  0  0  0  0999 V2000
   71.4870   44.3225   58.8776 C   0  0  0  0  0  0  0  0  0  0  0  0
   69.3178   43.8549   59.7114 O   0  0  0  0  0  0  0  0  0  0  0  0
   70.3526   43.4760   59.1473 C   0  0  0  0  0  0  0  0  0  0  0  0
   70.4550   42.0926   58.7212 N   0  0  0  0  0  0  0  0  0  0  0  0
   69.3467   41.2266   58.9770 C   0  0  0  0  0  0  0  0  0  0  0  0
   69.5718   39.8297   58.4810 C   0  0  0  0  0  0  0  0  0  0  0  0
   70.9374   39.3697   58.6398 N   0  0  0  0  0  0  0  0  0  0  0  0
   72.0338   40.2985   58.7552 C   0  0  0  0  0  0  0  0  0  0  0  0
   71.6292   41.5854   58.0564 C   0  0  0  0  0  0  0  0  0  0  0  0
   71.2158   37.9665   58.6779 C   0  0  0  0  0  0  0  0  0  0  0  0
   72.0588   37.3759   57.7467 C   0  0  0  0  0  0  0  0  0  0  0  0
   72.3332   36.0183   57.7658 C   0  0  0  0  0  0  0  0  0  0  0  0
   71.7783   35.2011   58.7121 C   0  0  0  0  0  0  0  0  0  0  0  0
   70.9422   35.7644   59.6411 C   0  0  0  0  0  0  0  0  0  0  0  0
   70.6655   37.1298   59.6228 C   0  0  0  0  0  0  0  0  0  0  0  0
   71.5123   45.6946   59.4424 C   0  0  0  0  0  0  0  0  0  0  0  0
   70.9456   46.7424   58.6428 N   0  0  0  0  0  0  0  0  0  0  0  0
   70.3318   46.3796   57.5004 N   0  0  0  0  0  0  0  0  0  0  0  0
   69.7033   47.2314   56.6808 C   0  0  0  0  0  0  0  0  0  0  0  0
   69.6983   48.5551   57.0486 C   0  0  0  0  0  0  0  0  0  0  0  0
   70.3152   48.9720   58.2081 C   0  0  0  0  0  0  0  0  0  0  0  0
   70.9443   48.0156   58.9987 C   0  0  0  0  0  0  0  0  0  0  0  0
   71.5300   48.3893   60.0740 O   0  0  0  0  0  0  0  0  0  0  0  0
   69.0535   46.7808   55.4523 C   0  0  0  0  0  0  0  0  0  0  0  0
   69.0795   47.6229   54.3366 C   0  0  0  0  0  0  0  0  0  0  0  0
   68.4901   47.2729   53.1403 C   0  0  0  0  0  0  0  0  0  0  0  0
   67.8438   46.0634   52.9924 C   0  0  0  0  0  0  0  0  0  0  0  0
   67.8111   45.2239   54.0830 C   0  0  0  0  0  0  0  0  0  0  0  0
   68.4111   45.5818   55.2990 C   0  0  0  0  0  0  0  0  0  0  0  0
  2  3  2  0
  3  1  1  0
  3  4  1  0
  1 16  1  0
 16 17  1  0
 17 18  1  0
 17 22  1  0
 18 19  2  0
 19 24  1  0
 19 20  1  0
 24 25  2  0
 24 29  1  0
 25 26  1  0
 26 27  2  0
 27 28  1  0
 28 29  2  0
 20 21  2  0
 21 22  1  0
 22 23  2  0
  4  5  1  0
  4  9  1  0
  5  6  1  0
  6  7  1  0
  7 10  1  0
  7  8  1  0
 10 11  2  0
 10 15  1  0
 11 12  1  0
 12 13  2  0
 13 14  1  0
 14 15  2  0
  8  9  1  0
M  END
>  <minimizedAffinity>  (796) 
-8.53502

$$$$
data/reference_output_2/data/smiles/184884.pdb
     RDKit          3D

 25 28  0  0  0  0  0  0  0  0999 V2000
   68.0615   43.5422   55.9931 C   0  0  0  0  0  0  0  0  0  0  0  0
   66.9797   42.8864   55.8595 O   0  0  0  0  0  0  0  0  0  0  0  0
   69.0044   43.0171   56.8850 N   0  0  0  0  0  0  0  0  0  0  0  0
   68.8514   41.8075   57.6532 C   0  0  1  0  0  0  0  0  0  0  0  0
   68.0132   42.0602   58.8959 C   0  0  0  0  0  0  0  0  0  0  0  0
   68.0390   40.8890   59.8226 C   0  0  2  0  0  0  0  0  0  0  0  0
   69.4373   40.5110   60.2557 C   0  0  0  0  0  0  0  0  0  0  0  0
   70.2411   40.2347   59.0289 C   0  0  1  0  0  0  0  0  0  0  0  0
   69.6214   39.0867   58.2799 C   0  0  0  0  0  0  0  0  0  0  0  0
   68.2291   39.4682   57.8429 C   0  0  1  0  0  0  0  0  0  0  0  0
   67.3903   39.7286   59.0598 C   0  0  0  0  0  0  0  0  0  0  0  0
   68.2414   40.6738   56.9168 C   0  0  0  0  0  0  0  0  0  0  0  0
   70.2636   41.4352   58.1143 C   0  0  0  0  0  0  0  0  0  0  0  0
   68.5122   47.1374   53.7202 C   0  0  0  0  0  0  0  0  0  0  0  0
   68.9567   47.0495   55.0207 C   0  0  0  0  0  0  0  0  0  0  0  0
   68.8065   45.8680   55.7614 C   0  0  0  0  0  0  0  0  0  0  0  0
   68.2113   44.7570   55.2180 C   0  0  0  0  0  0  0  0  0  0  0  0
   67.7757   44.8691   53.9193 C   0  0  0  0  0  0  0  0  0  0  0  0
   67.9157   46.0212   53.1791 C   0  0  0  0  0  0  0  0  0  0  0  0
   67.4731   46.0935   51.9006 F   0  0  0  0  0  0  0  0  0  0  0  0
   68.6653   48.3130   52.9935 O   0  0  0  0  0  0  0  0  0  0  0  0
   71.4070   49.0333   52.8733 N   0  0  0  0  0  0  0  0  0  0  0  0
   69.9857   48.6453   52.0096 S   0  0  0  0  0  0  0  0  0  0  0  0
   69.6258   49.8590   51.1664 O   0  0  0  0  0  0  0  0  0  0  0  0
   70.2692   47.5010   51.0645 O   0  0  0  0  0  0  0  0  0  0  0  0
 22 23  1  0
 23 24  2  0
 23 25  2  0
 23 21  1  0
 21 14  1  0
 14 15  2  0
 14 19  1  0
 15 16  1  0
 16 17  2  0
 17  1  1  0
 17 18  1  0
  1  2  2  0
  1  3  1  0
  4  3  1  6
  4  5  1  0
  4 12  1  0
  4 13  1  0
  6  5  1  6
  6  7  1  0
  6 11  1  0
  8  7  1  1
  8  9  1  0
  8 13  1  0
 10  9  1  1
 10 11  1  0
 10 12  1  0
 18 19  2  0
 19 20  1  0
M  END
>  <minimizedAffinity>  (797) 
-8.53449

$$$$
data/reference_output_2/data/smiles/181427.pdb
     RDKit          3D

 25 27  0  0  0  0  0  0  0  0999 V2000
   69.4008   42.9279   57.4023 C   0  0  0  0  0  0  0  0  0  0  0  0
   68.2381   42.5644   57.7957 O   0  0  0  0  0  0  0  0  0  0  0  0
   69.4132   44.0883   56.5848 N   0  0  0  0  0  0  0  0  0  0  0  0
   74.2934   42.8011   58.1828 C   0  0  0  0  0  0  0  0  0  0  0  0
   72.9739   42.1206   58.1742 C   0  0  0  0  0  0  0  0  0  0  0  0
   71.8126   42.7877   57.8089 C   0  0  0  0  0  0  0  0  0  0  0  0
   70.5786   42.1764   57.7939 C   0  0  0  0  0  0  0  0  0  0  0  0
   70.5408   40.8533   58.1634 C   0  0  0  0  0  0  0  0  0  0  0  0
   71.6838   40.1595   58.5341 C   0  0  0  0  0  0  0  0  0  0  0  0
   72.9139   40.7730   58.5479 C   0  0  0  0  0  0  0  0  0  0  0  0
   71.6181   38.7572   58.9222 C   0  0  0  0  0  0  0  0  0  0  0  0
   71.6757   37.7151   58.0021 C   0  0  0  0  0  0  0  0  0  0  0  0
   71.5864   36.5534   58.7218 C   0  0  0  0  0  0  0  0  0  0  0  0
   71.4799   36.9197   60.0401 C   0  0  0  0  0  0  0  0  0  0  0  0
   71.5043   38.2234   60.0932 O   0  0  0  0  0  0  0  0  0  0  0  0
   68.2384   44.7734   56.2408 N   0  0  0  0  0  0  0  0  0  0  0  0
   68.5903   46.4576   55.9359 S   0  0  0  0  0  0  0  0  0  0  0  0
   67.5887   47.3404   56.5781 O   0  0  0  0  0  0  0  0  0  0  0  0
   69.9353   46.7415   56.5623 O   0  0  0  0  0  0  0  0  0  0  0  0
   68.6707   46.7642   54.2057 C   0  0  0  0  0  0  0  0  0  0  0  0
   68.0141   45.9569   53.2957 C   0  0  0  0  0  0  0  0  0  0  0  0
   68.0687   46.1847   51.9347 C   0  0  0  0  0  0  0  0  0  0  0  0
   68.7933   47.2452   51.4296 C   0  0  0  0  0  0  0  0  0  0  0  0
   69.4484   48.0496   52.3397 C   0  0  0  0  0  0  0  0  0  0  0  0
   69.3943   47.8225   53.6992 C   0  0  0  0  0  0  0  0  0  0  0  0
  4  5  1  0
  5  6  2  0
  5 10  1  0
  6  7  1  0
  7  1  1  0
  7  8  2  0
  1  2  2  0
  1  3  1  0
  3 16  1  0
 16 17  1  0
 17 18  2  0
 17 19  2  0
 17 20  1  0
 20 21  2  0
 20 25  1  0
 21 22  1  0
 22 23  2  0
 23 24  1  0
 24 25  2  0
  8  9  1  0
  9 11  1  0
  9 10  2  0
 11 12  2  0
 11 15  1  0
 12 13  1  0
 13 14  2  0
 14 15  1  0
M  END
>  <minimizedAffinity>  (798) 
-8.53431

$$$$
data/reference_output_2/data/smiles/168035.pdb
     RDKit          3D

 26 28  0  0  0  0  0  0  0  0999 V2000
   74.2931   49.8773   55.3628 N   0  0  0  0  0  0  0  0  0  0  0  0
   73.5663   51.1025   55.4731 C   0  0  0  0  0  0  0  0  0  0  0  0
   73.9964   51.8964   56.3355 O   0  0  0  0  0  0  0  0  0  0  0  0
   77.6687   48.9909   57.7255 C   0  0  0  0  0  0  0  0  0  0  0  0
   76.3903   48.6850   58.1446 C   0  0  0  0  0  0  0  0  0  0  0  0
   75.2743   48.9667   57.3846 C   0  0  0  0  0  0  0  0  0  0  0  0
   75.4013   49.5784   56.1539 C   0  0  0  0  0  0  0  0  0  0  0  0
   76.6844   49.8899   55.7255 C   0  0  0  0  0  0  0  0  0  0  0  0
   77.7944   49.6025   56.4953 C   0  0  0  0  0  0  0  0  0  0  0  0
   80.6305   49.3219   60.2146 C   0  0  0  0  0  0  0  0  0  0  0  0
   79.4590   49.6285   59.3555 C   0  0  0  0  0  0  0  0  0  0  0  0
   79.0348   50.8113   59.3505 O   0  0  0  0  0  0  0  0  0  0  0  0
   78.7910   48.6797   58.5444 N   0  0  0  0  0  0  0  0  0  0  0  0
   72.4055   51.4433   54.6606 C   0  0  0  0  0  0  0  0  0  0  0  0
   71.1103   50.9139   55.2081 C   0  0  0  0  0  0  0  0  0  0  0  0
   70.4944   49.8444   54.3951 C   0  0  0  0  0  0  0  0  0  0  0  0
   69.7284   48.8627   54.8903 N   0  0  0  0  0  0  0  0  0  0  0  0
   69.1660   47.8887   54.1561 C   0  0  0  0  0  0  0  0  0  0  0  0
   68.3810   46.8962   54.7148 C   0  0  0  0  0  0  0  0  0  0  0  0
   67.8560   45.9480   53.8614 C   0  0  0  0  0  0  0  0  0  0  0  0
   68.1022   45.9873   52.5097 C   0  0  0  0  0  0  0  0  0  0  0  0
   68.8785   46.9694   51.9574 C   0  0  0  0  0  0  0  0  0  0  0  0
   69.4175   47.9363   52.8039 C   0  0  0  0  0  0  0  0  0  0  0  0
   70.1993   48.9354   52.2903 C   0  0  0  0  0  0  0  0  0  0  0  0
   70.4085   48.9466   51.0446 O   0  0  0  0  0  0  0  0  0  0  0  0
   70.7302   49.8766   53.0723 N   0  0  0  0  0  0  0  0  0  0  0  0
 10 11  1  0
 11 12  2  0
 11 13  1  0
 13  4  1  0
  4  5  2  0
  4  9  1  0
  5  6  1  0
  6  7  2  0
  7  1  1  0
  7  8  1  0
  1  2  1  0
  2  3  2  0
  2 14  1  0
 14 15  1  0
 15 16  1  0
 16 17  2  0
 16 26  1  0
 17 18  1  0
 18 19  2  0
 18 23  1  0
 19 20  1  0
 20 21  2  0
 21 22  1  0
 22 23  2  0
 23 24  1  0
 24 25  2  0
 24 26  1  0
  8  9  2  0
M  END
>  <minimizedAffinity>  (799) 
-8.53374

$$$$
data/reference_output_2/data/smiles/167105.pdb
     RDKit          3D

 28 31  0  0  0  0  0  0  0  0999 V2000
   73.6648   39.1751   59.5593 O   0  0  0  0  0  0  0  0  0  0  0  0
   73.0821   40.2080   59.1591 C   0  0  0  0  0  0  0  0  0  0  0  0
   73.5909   41.5534   59.2448 N   0  0  0  0  0  0  0  0  0  0  0  0
   72.6505   42.4698   58.6895 C   0  0  0  0  0  0  0  0  0  0  0  0
   72.6994   43.8501   58.5522 C   0  0  0  0  0  0  0  0  0  0  0  0
   71.6466   44.5165   57.9724 C   0  0  0  0  0  0  0  0  0  0  0  0
   70.5106   43.8401   57.5094 C   0  0  0  0  0  0  0  0  0  0  0  0
   70.5235   42.4770   57.6751 C   0  0  0  0  0  0  0  0  0  0  0  0
   71.5541   41.7588   58.2493 C   0  0  0  0  0  0  0  0  0  0  0  0
   71.7817   40.3332   58.5240 C   0  0  0  0  0  0  0  0  0  0  0  0
   70.9902   39.3361   58.2451 C   0  0  0  0  0  0  0  0  0  0  0  0
   71.2412   37.9246   58.5001 C   0  0  0  0  0  0  0  0  0  0  0  0
   70.6247   37.3135   59.6023 C   0  0  0  0  0  0  0  0  0  0  0  0
   70.9839   35.9910   59.6077 C   0  0  0  0  0  0  0  0  0  0  0  0
   71.8060   35.8225   58.5164 C   0  0  0  0  0  0  0  0  0  0  0  0
   71.9496   37.0096   57.8564 N   0  0  0  0  0  0  0  0  0  0  0  0
   69.4098   44.5736   56.8986 C   0  0  0  0  0  0  0  0  0  0  0  0
   68.3578   43.9419   56.6062 O   0  0  0  0  0  0  0  0  0  0  0  0
   69.4565   45.9451   56.6189 N   0  0  0  0  0  0  0  0  0  0  0  0
   68.3469   46.6733   56.0047 C   0  0  2  0  0  0  0  0  0  0  0  0
   68.5668   46.8294   54.5424 C   0  0  0  0  0  0  0  0  0  0  0  0
   67.9990   45.9461   53.6265 C   0  0  0  0  0  0  0  0  0  0  0  0
   68.1910   46.0696   52.2703 C   0  0  0  0  0  0  0  0  0  0  0  0
   68.9676   47.0911   51.7661 C   0  0  0  0  0  0  0  0  0  0  0  0
   69.5403   47.9779   52.6485 C   0  0  0  0  0  0  0  0  0  0  0  0
   69.3370   47.8390   54.0046 C   0  0  0  0  0  0  0  0  0  0  0  0
   68.0908   47.9991   56.6341 C   0  0  0  0  0  0  0  0  0  0  0  0
   66.9643   47.9902   57.4596 O   0  0  0  0  0  0  0  0  0  0  0  0
  1  2  2  0
  2  3  1  0
  2 10  1  0
  3  4  1  0
  4  5  2  0
  4  9  1  0
  5  6  1  0
  6  7  2  0
  7 17  1  0
  7  8  1  0
 17 18  2  0
 17 19  1  0
 19 20  1  0
 20 27  1  1
 20 21  1  0
 27 28  1  0
 21 22  2  0
 21 26  1  0
 22 23  1  0
 23 24  2  0
 24 25  1  0
 25 26  2  0
  8  9  2  0
  9 10  1  0
 10 11  2  0
 11 12  1  0
 12 13  2  0
 12 16  1  0
 13 14  1  0
 14 15  2  0
 15 16  1  0
M  END
>  <minimizedAffinity>  (800) 
-8.53342

$$$$
data/200k_reference_output/data/smiles/18012.pdb
     RDKit          3D

 28 30  0  0  0  0  0  0  0  0999 V2000
   70.6099   49.1584   56.5767 N   0  0  0  0  0  0  0  0  0  0  0  0
   69.3563   49.1556   55.7850 C   0  0  1  0  0  0  0  0  0  0  0  0
   68.7810   50.5118   55.9787 C   0  0  0  0  0  0  0  0  0  0  0  0
   69.3889   51.5014   55.1281 N   0  0  0  0  0  0  0  0  0  0  0  0
   69.8237   51.1124   53.8309 C   0  0  0  0  0  0  0  0  0  0  0  0
   70.4463   51.8925   53.0812 O   0  0  0  0  0  0  0  0  0  0  0  0
   69.5280   49.7459   53.3582 C   0  0  0  0  0  0  0  0  0  0  0  0
   69.6821   48.6866   54.4483 C   0  0  2  0  0  0  0  0  0  0  0  0
   68.9708   47.5066   53.9380 C   0  0  0  0  0  0  0  0  0  0  0  0
   68.6808   47.4945   52.5863 C   0  0  0  0  0  0  0  0  0  0  0  0
   68.0129   46.4389   51.9970 C   0  0  0  0  0  0  0  0  0  0  0  0
   67.7422   46.4529   50.6713 F   0  0  0  0  0  0  0  0  0  0  0  0
   67.6406   45.3931   52.7913 C   0  0  0  0  0  0  0  0  0  0  0  0
   66.9869   44.3514   52.2360 F   0  0  0  0  0  0  0  0  0  0  0  0
   67.9285   45.3981   54.1535 C   0  0  0  0  0  0  0  0  0  0  0  0
   68.5908   46.4427   54.7409 C   0  0  0  0  0  0  0  0  0  0  0  0
   68.9077   46.5317   56.0470 F   0  0  0  0  0  0  0  0  0  0  0  0
   69.5603   52.8557   55.5629 C   0  0  0  0  0  0  0  0  0  0  0  0
   70.6867   52.9860   56.5774 C   0  0  0  0  0  0  0  0  0  0  0  0
   72.0146   52.9565   55.9190 C   0  0  0  0  0  0  0  0  0  0  0  0
   72.4812   54.0661   55.2262 C   0  0  0  0  0  0  0  0  0  0  0  0
   73.7070   54.0879   54.5975 C   0  0  0  0  0  0  0  0  0  0  0  0
   74.4826   52.9537   54.6739 C   0  0  0  0  0  0  0  0  0  0  0  0
   74.0786   51.8200   55.3447 C   0  0  0  0  0  0  0  0  0  0  0  0
   72.8444   51.8545   55.9532 C   0  0  0  0  0  0  0  0  0  0  0  0
   74.9384   50.6382   55.3973 C   0  0  0  0  0  0  0  0  0  0  0  0
   74.9064   49.8252   54.4491 O   0  0  0  0  0  0  0  0  0  0  0  0
   75.7877   50.3717   56.4445 O   0  0  0  0  0  0  0  0  0  0  0  0
  2  1  1  1
  2  3  1  0
  2  8  1  0
  3  4  1  0
  4 18  1  0
  4  5  1  0
 18 19  1  0
 19 20  1  0
 20 21  2  0
 20 25  1  0
 21 22  1  0
 22 23  2  0
 23 24  1  0
 24 26  1  0
 24 25  2  0
 26 27  2  0
 26 28  1  0
  5  6  2  0
  5  7  1  0
  7  8  1  0
  8  9  1  6
  9 10  2  0
  9 16  1  0
 10 11  1  0
 11 12  1  0
 11 13  2  0
 13 14  1  0
 13 15  1  0
 15 16  2  0
 16 17  1  0
M  CHG  1   1   1
M  END
>  <minimizedAffinity>  (801) 
-8.53324

$$$$
data/reference_output_2/data/smiles/112350.pdb
     RDKit          3D

 27 30  0  0  0  0  0  0  0  0999 V2000
   69.5641   43.1247   57.3354 C   0  0  0  0  0  0  0  0  0  0  0  0
   68.3396   42.6928   56.6229 C   0  0  0  0  0  0  0  0  0  0  0  0
   67.6819   41.4802   56.8103 C   0  0  0  0  0  0  0  0  0  0  0  0
   66.6140   41.5367   55.9363 C   0  0  0  0  0  0  0  0  0  0  0  0
   66.6774   42.7170   55.2987 N   0  0  0  0  0  0  0  0  0  0  0  0
   67.7154   43.4314   55.7015 N   0  0  0  0  0  0  0  0  0  0  0  0
   68.1072   44.7347   55.2510 C   0  0  0  0  0  0  0  0  0  0  0  0
   68.1069   45.0187   53.9341 N   0  0  0  0  0  0  0  0  0  0  0  0
   68.4707   46.2414   53.4543 C   0  0  0  0  0  0  0  0  0  0  0  0
   68.8533   47.2344   54.3240 C   0  0  0  0  0  0  0  0  0  0  0  0
   68.8522   46.9414   55.6689 C   0  0  0  0  0  0  0  0  0  0  0  0
   69.2002   47.8368   56.4978 O   0  0  0  0  0  0  0  0  0  0  0  0
   68.4820   45.7166   56.0705 N   0  0  0  0  0  0  0  0  0  0  0  0
   69.2111   48.4730   53.5576 C   0  0  0  0  0  0  0  0  0  0  0  0
   69.6598   47.8287   52.2323 C   0  0  0  0  0  0  0  0  0  0  0  0
   68.5524   46.8103   52.0932 C   0  0  0  0  0  0  0  0  0  0  0  0
   68.0724   40.4248   57.7329 C   0  0  0  0  0  0  0  0  0  0  0  0
   68.9866   39.6393   57.3935 O   0  0  0  0  0  0  0  0  0  0  0  0
   67.4615   40.2532   58.9976 N   0  0  0  0  0  0  0  0  0  0  0  0
   66.3943   41.1088   59.4842 C   0  0  0  0  0  0  0  0  0  0  0  0
   66.1737   40.7476   60.9280 C   0  0  0  0  0  0  0  0  0  0  0  0
   66.6854   39.3132   60.9922 C   0  0  2  0  0  0  0  0  0  0  0  0
   67.7814   39.2450   59.9684 C   0  0  0  0  0  0  0  0  0  0  0  0
   65.5517   38.3863   60.5888 C   0  0  0  0  0  0  0  0  0  0  0  0
   65.8475   37.7759   59.3998 F   0  0  0  0  0  0  0  0  0  0  0  0
   65.4588   37.4157   61.5762 F   0  0  0  0  0  0  0  0  0  0  0  0
   64.3841   39.1235   60.5220 F   0  0  0  0  0  0  0  0  0  0  0  0
  1  2  1  0
  2  3  2  0
  2  6  1  0
  3 17  1  0
  3  4  1  0
 17 18  2  0
 17 19  1  0
 19 20  1  0
 19 23  1  0
 20 21  1  0
 21 22  1  0
 22 24  1  6
 22 23  1  0
 24 25  1  0
 24 26  1  0
 24 27  1  0
  4  5  2  0
  5  6  1  0
  6  7  1  0
  7  8  2  0
  7 13  1  0
  8  9  1  0
  9 10  2  0
  9 16  1  0
 10 11  1  0
 10 14  1  0
 11 12  2  0
 11 13  1  0
 14 15  1  0
 15 16  1  0
M  END
>  <minimizedAffinity>  (802) 
-8.53312

$$$$
data/200k_reference_output/data/smiles/43506.pdb
     RDKit          3D

 27 30  0  0  0  0  0  0  0  0999 V2000
   71.6642   43.2604   57.9977 C   0  0  0  0  0  0  0  0  0  0  0  0
   72.8760   42.6681   58.3877 C   0  0  0  0  0  0  0  0  0  0  0  0
   72.9756   41.3340   58.7002 C   0  0  0  0  0  0  0  0  0  0  0  0
   71.8229   40.5856   58.6139 C   0  0  0  0  0  0  0  0  0  0  0  0
   71.8030   39.2395   58.9040 C   0  0  0  0  0  0  0  0  0  0  0  0
   70.6267   38.5107   58.8083 C   0  0  0  0  0  0  0  0  0  0  0  0
   69.4729   39.1524   58.4183 C   0  0  0  0  0  0  0  0  0  0  0  0
   68.4108   38.4784   58.3352 O   0  0  0  0  0  0  0  0  0  0  0  0
   69.5133   40.4446   58.1460 O   0  0  0  0  0  0  0  0  0  0  0  0
   70.6290   41.1598   58.2305 C   0  0  0  0  0  0  0  0  0  0  0  0
   70.5183   42.5038   57.9143 C   0  0  0  0  0  0  0  0  0  0  0  0
   70.7116   37.0628   59.1380 C   0  0  0  0  0  0  0  0  0  0  0  0
   71.8587   36.5158   58.3063 C   0  0  0  0  0  0  0  0  0  0  0  0
   73.1439   37.2400   58.4635 C   0  0  0  0  0  0  0  0  0  0  0  0
   72.9899   38.4738   59.3305 C   0  0  0  0  0  0  0  0  0  0  0  0
   71.6208   44.6030   57.6939 O   0  0  0  0  0  0  0  0  0  0  0  0
   71.1286   45.6452   58.4517 C   0  0  0  0  0  0  0  0  0  0  0  0
   70.2841   47.8150   57.9963 O   0  0  0  0  0  0  0  0  0  0  0  0
   70.2380   46.5925   57.7216 C   0  0  0  0  0  0  0  0  0  0  0  0
   69.3394   46.1682   56.7264 N   0  0  0  0  0  0  0  0  0  0  0  0
   68.4791   47.0798   56.0244 C   0  0  0  0  0  0  0  0  0  0  0  0
   68.5592   46.9965   54.5527 C   0  0  0  0  0  0  0  0  0  0  0  0
   67.8993   46.0201   53.8570 C   0  0  0  0  0  0  0  0  0  0  0  0
   67.9741   45.9182   52.4719 C   0  0  0  0  0  0  0  0  0  0  0  0
   68.7345   46.8253   51.7769 C   0  0  0  0  0  0  0  0  0  0  0  0
   69.3911   47.8021   52.4978 C   0  0  0  0  0  0  0  0  0  0  0  0
   69.2955   47.8695   53.8391 N   0  0  0  0  0  0  0  0  0  0  0  0
 18 19  2  0
 19 17  1  0
 19 20  1  0
 17 16  1  0
 16  1  1  0
  1  2  2  0
  1 11  1  0
  2  3  1  0
  3  4  2  0
  4  5  1  0
  4 10  1  0
  5  6  2  0
  5 15  1  0
  6  7  1  0
  6 12  1  0
  7  8  2  0
  7  9  1  0
  9 10  1  0
 10 11  2  0
 12 13  1  0
 13 14  1  0
 14 15  1  0
 20 21  1  0
 21 22  1  0
 22 23  2  0
 22 27  1  0
 23 24  1  0
 24 25  2  0
 25 26  1  0
 26 27  2  0
M  END
>  <minimizedAffinity>  (803) 
-8.53301

$$$$
data/reference_output_2/data/smiles/163656.pdb
     RDKit          3D

 26 29  0  0  0  0  0  0  0  0999 V2000
   67.2396   48.9633   57.7947 C   0  0  0  0  0  0  0  0  0  0  0  0
   68.6202   48.6873   57.2533 C   0  0  1  0  0  0  0  0  0  0  0  0
   69.4903   49.9174   57.2551 C   0  0  0  0  0  0  0  0  0  0  0  0
   70.8489   49.4500   57.8092 C   0  0  0  0  0  0  0  0  0  0  0  0
   70.7174   48.0661   57.9232 N   0  0  2  0  0  0  0  0  0  0  0  0
   69.3691   47.7218   58.1847 C   0  0  0  0  0  0  0  0  0  0  0  0
   68.5322   48.0849   55.9083 C   0  0  0  0  0  0  0  0  0  0  0  0
   69.1730   48.5018   54.8209 N   0  0  0  0  0  0  0  0  0  0  0  0
   68.8596   47.6719   53.8034 C   0  0  0  0  0  0  0  0  0  0  0  0
   69.2796   47.7025   52.4886 C   0  0  0  0  0  0  0  0  0  0  0  0
   68.8058   46.7268   51.6544 C   0  0  0  0  0  0  0  0  0  0  0  0
   67.9450   45.7614   52.1166 C   0  0  0  0  0  0  0  0  0  0  0  0
   67.5264   45.7293   53.4131 C   0  0  0  0  0  0  0  0  0  0  0  0
   67.9982   46.7090   54.2674 C   0  0  0  0  0  0  0  0  0  0  0  0
   67.8179   46.9948   55.5697 N   0  0  0  0  0  0  0  0  0  0  0  0
   70.1851   48.7497   52.0353 C   0  0  0  0  0  0  0  0  0  0  0  0
   71.3594   49.0595   52.7919 N   0  0  0  0  0  0  0  0  0  0  0  0
   69.9441   49.3852   50.9885 O   0  0  0  0  0  0  0  0  0  0  0  0
   71.7094   47.2671   58.4849 C   0  0  0  0  0  0  0  0  0  0  0  0
   71.2729   45.9261   58.9433 C   0  0  0  0  0  0  0  0  0  0  0  0
   71.9394   44.7622   58.3970 C   0  0  0  0  0  0  0  0  0  0  0  0
   73.3259   44.7740   58.1741 C   0  0  0  0  0  0  0  0  0  0  0  0
   73.9686   43.6698   57.6785 C   0  0  0  0  0  0  0  0  0  0  0  0
   73.2951   42.5224   57.3863 C   0  0  0  0  0  0  0  0  0  0  0  0
   71.9283   42.4903   57.5993 C   0  0  0  0  0  0  0  0  0  0  0  0
   71.2747   43.5904   58.0934 C   0  0  0  0  0  0  0  0  0  0  0  0
  2  1  1  1
  2  7  1  0
  2  3  1  0
  2  6  1  0
  7  8  2  0
  7 15  1  0
  8  9  1  0
  9 10  2  0
  9 14  1  0
 10 16  1  0
 10 11  1  0
 16 17  1  0
 16 18  2  0
 11 12  2  0
 12 13  1  0
 13 14  2  0
 14 15  1  0
  3  4  1  0
  4  5  1  0
  5 19  1  1
  5  6  1  0
 19 20  1  0
 20 21  1  0
 21 22  2  0
 21 26  1  0
 22 23  1  0
 23 24  2  0
 24 25  1  0
 25 26  2  0
M  CHG  2   5   1   8   1
M  END
>  <minimizedAffinity>  (804) 
-8.53300

$$$$
data/reference_output_2/data/smiles/166950.pdb
     RDKit          3D

 25 27  0  0  0  0  0  0  0  0999 V2000
   70.3517   45.6752   57.6852 C   0  0  0  0  0  0  0  0  0  0  0  0
   69.9205   46.7551   57.0149 N   0  0  0  0  0  0  0  0  0  0  0  0
   68.8772   46.3967   56.2165 C   0  0  0  0  0  0  0  0  0  0  0  0
   68.7125   45.0802   56.4409 N   0  0  0  0  0  0  0  0  0  0  0  0
   69.6119   44.6844   57.3236 O   0  0  0  0  0  0  0  0  0  0  0  0
   72.4455   44.9201   58.4765 O   0  0  0  0  0  0  0  0  0  0  0  0
   71.4390   45.6270   58.6336 C   0  0  0  0  0  0  0  0  0  0  0  0
   71.3928   46.4358   59.8517 N   0  0  0  0  0  0  0  0  0  0  0  0
   72.4464   46.3915   60.7734 C   0  0  0  0  0  0  0  0  0  0  0  0
   73.2261   47.5632   61.1019 C   0  0  0  0  0  0  0  0  0  0  0  0
   73.0016   48.0582   62.3212 O   0  0  0  0  0  0  0  0  0  0  0  0
   74.1810   48.3051   60.4083 N   0  0  0  0  0  0  0  0  0  0  0  0
   74.7976   48.3215   59.1199 C   0  0  0  0  0  0  0  0  0  0  0  0
   74.6897   49.8237   58.7403 C   0  0  0  0  0  0  0  0  0  0  0  0
   74.5718   50.5270   60.0520 C   0  0  0  0  0  0  0  0  0  0  0  0
   74.8916   49.4465   61.0867 C   0  0  0  0  0  0  0  0  0  0  0  0
   68.0654   47.2064   55.2955 C   0  0  0  0  0  0  0  0  0  0  0  0
   68.7589   47.5140   54.0362 C   0  0  0  0  0  0  0  0  0  0  0  0
   69.5528   48.6382   53.9580 C   0  0  0  0  0  0  0  0  0  0  0  0
   69.7439   49.7023   55.3462 Cl  0  0  0  0  0  0  0  0  0  0  0  0
   70.2217   48.9672   52.7987 C   0  0  0  0  0  0  0  0  0  0  0  0
   70.1008   48.1628   51.6891 C   0  0  0  0  0  0  0  0  0  0  0  0
   69.3168   47.0353   51.7363 C   0  0  0  0  0  0  0  0  0  0  0  0
   68.6559   46.7197   52.8988 C   0  0  0  0  0  0  0  0  0  0  0  0
   67.6590   45.2814   52.9490 Cl  0  0  0  0  0  0  0  0  0  0  0  0
  6  7  2  0
  7  8  1  0
  7  1  1  0
  8  9  1  0
  9 10  1  0
 10 11  2  0
 10 12  1  0
 12 13  1  0
 12 16  1  0
 13 14  1  0
 14 15  1  0
 15 16  1  0
  1  2  2  0
  1  5  1  0
  2  3  1  0
  3 17  1  0
  3  4  2  0
 17 18  1  0
 18 19  2  0
 18 24  1  0
 19 20  1  0
 19 21  1  0
 21 22  2  0
 22 23  1  0
 23 24  2  0
 24 25  1  0
  4  5  1  0
M  END
>  <minimizedAffinity>  (805) 
-8.53284

$$$$
data/reference_output_2/data/smiles/182165.pdb
     RDKit          3D

 27 30  0  0  0  0  0  0  0  0999 V2000
   73.6377   50.7221   56.7387 C   0  0  0  0  0  0  0  0  0  0  0  0
   73.8647   52.0340   56.5092 N   0  0  0  0  0  0  0  0  0  0  0  0
   73.4220   52.6840   55.4199 C   0  0  0  0  0  0  0  0  0  0  0  0
   72.7045   51.9319   54.5141 C   0  0  0  0  0  0  0  0  0  0  0  0
   72.4458   50.5766   54.7044 C   0  0  0  0  0  0  0  0  0  0  0  0
   72.9375   50.0381   55.8326 N   0  0  0  0  0  0  0  0  0  0  0  0
   72.4534   46.3944   60.6329 C   0  0  0  0  0  0  0  0  0  0  0  0
   73.1104   47.7015   60.9251 C   0  0  0  0  0  0  0  0  0  0  0  0
   73.0497   48.1084   62.1162 O   0  0  0  0  0  0  0  0  0  0  0  0
   73.7769   48.4613   59.9238 N   0  0  0  0  0  0  0  0  0  0  0  0
   73.8302   47.9365   58.5858 C   0  0  0  0  0  0  0  0  0  0  0  0
   74.8166   48.8123   57.7885 C   0  0  0  0  0  0  0  0  0  0  0  0
   74.2035   50.1574   57.9036 N   0  0  0  0  0  0  0  0  0  0  0  0
   74.2446   50.7599   59.1970 C   0  0  0  0  0  0  0  0  0  0  0  0
   74.3527   49.7299   60.3047 C   0  0  0  0  0  0  0  0  0  0  0  0
   71.7433   49.8491   53.7223 N   0  0  0  0  0  0  0  0  0  0  0  0
   70.2850   49.9991   53.6731 C   0  0  0  0  0  0  0  0  0  0  0  0
   69.6580   48.8494   54.3774 C   0  0  0  0  0  0  0  0  0  0  0  0
   69.6467   48.7985   55.7489 C   0  0  0  0  0  0  0  0  0  0  0  0
   69.0730   47.7600   56.4393 C   0  0  0  0  0  0  0  0  0  0  0  0
   68.4866   46.7260   55.7608 C   0  0  0  0  0  0  0  0  0  0  0  0
   68.4904   46.7604   54.3797 C   0  0  0  0  0  0  0  0  0  0  0  0
   67.9044   45.7256   53.6778 C   0  0  0  0  0  0  0  0  0  0  0  0
   67.8876   45.7175   52.3071 C   0  0  0  0  0  0  0  0  0  0  0  0
   68.4619   46.7592   51.6150 C   0  0  0  0  0  0  0  0  0  0  0  0
   69.0479   47.7968   52.3395 C   0  0  0  0  0  0  0  0  0  0  0  0
   69.0682   47.8083   53.7029 C   0  0  0  0  0  0  0  0  0  0  0  0
  7  8  1  0
  8  9  2  0
  8 10  1  0
 10 11  1  0
 10 15  1  0
 11 12  1  0
 12 13  1  0
 13  1  1  0
 13 14  1  0
  1  2  2  0
  1  6  1  0
  2  3  1  0
  3  4  2  0
  4  5  1  0
  5 16  1  0
  5  6  2  0
 16 17  1  0
 17 18  1  0
 18 19  2  0
 18 27  1  0
 19 20  1  0
 20 21  2  0
 21 22  1  0
 22 23  1  0
 22 27  2  0
 23 24  2  0
 24 25  1  0
 25 26  2  0
 26 27  1  0
 14 15  1  0
M  END
>  <minimizedAffinity>  (806) 
-8.53271

$$$$
data/200k_reference_output/data/smiles/86931.pdb
     RDKit          3D

 27 30  0  0  0  0  0  0  0  0999 V2000
   73.6780   34.9577   54.9937 C   0  0  0  0  0  0  0  0  0  0  0  0
   74.2643   33.5639   54.9502 C   0  0  0  0  0  0  0  0  0  0  0  0
   74.6883   33.2938   53.5119 C   0  0  0  0  0  0  0  0  0  0  0  0
   74.7913   34.4548   52.7470 N   0  0  0  0  0  0  0  0  0  0  0  0
   73.6677   35.2717   52.5815 C   0  0  0  0  0  0  0  0  0  0  0  0
   72.7602   35.1025   53.8079 C   0  0  0  0  0  0  0  0  0  0  0  0
   71.3729   37.1572   58.7926 C   0  0  0  0  0  0  0  0  0  0  0  0
   70.8919   36.6593   59.9847 C   0  0  0  0  0  0  0  0  0  0  0  0
   71.0114   35.3290   60.2976 C   0  0  0  0  0  0  0  0  0  0  0  0
   71.6091   34.4255   59.4531 C   0  0  0  0  0  0  0  0  0  0  0  0
   72.0985   34.9218   58.2437 C   0  0  0  0  0  0  0  0  0  0  0  0
   72.7190   34.3156   57.2267 N   0  0  0  0  0  0  0  0  0  0  0  0
   72.9942   35.2322   56.2783 C   0  0  0  0  0  0  0  0  0  0  0  0
   72.5409   36.4085   56.7149 N   0  0  0  0  0  0  0  0  0  0  0  0
   71.9750   36.2650   57.9322 C   0  0  0  0  0  0  0  0  0  0  0  0
   72.2881   39.5029   58.6286 N   0  0  0  0  0  0  0  0  0  0  0  0
   71.2369   38.5656   58.4790 C   0  0  0  0  0  0  0  0  0  0  0  0
   70.1399   39.0099   58.0505 O   0  0  0  0  0  0  0  0  0  0  0  0
   76.3010   35.0701   52.3849 S   0  0  0  0  0  0  0  0  0  0  0  0
   76.4259   36.5180   52.8369 O   0  0  0  0  0  0  0  0  0  0  0  0
   77.3590   34.2996   53.1244 O   0  0  0  0  0  0  0  0  0  0  0  0
   76.7128   35.0455   50.6891 C   0  0  0  0  0  0  0  0  0  0  0  0
   76.0745   34.2250   49.7860 C   0  0  0  0  0  0  0  0  0  0  0  0
   76.4128   34.2184   48.4505 C   0  0  0  0  0  0  0  0  0  0  0  0
   77.4096   35.0359   47.9570 C   0  0  0  0  0  0  0  0  0  0  0  0
   78.0574   35.8618   48.8463 C   0  0  0  0  0  0  0  0  0  0  0  0
   77.7119   35.8614   50.1815 C   0  0  0  0  0  0  0  0  0  0  0  0
 16 17  1  0
 17 18  2  0
 17  7  1  0
  7  8  2  0
  7 15  1  0
  8  9  1  0
  9 10  2  0
 10 11  1  0
 11 12  1  0
 11 15  2  0
 12 13  1  0
 13  1  1  0
 13 14  2  0
  1  2  1  0
  1  6  1  0
  2  3  1  0
  3  4  1  0
  4 19  1  0
  4  5  1  0
 19 20  2  0
 19 21  2  0
 19 22  1  0
 22 23  2  0
 22 27  1  0
 23 24  1  0
 24 25  2  0
 25 26  1  0
 26 27  2  0
  5  6  1  0
 14 15  1  0
M  CHG  1  14   1
M  END
>  <minimizedAffinity>  (807) 
-8.53166

$$$$
data/200k_reference_output/data/smiles/16618.pdb
     RDKit          3D

 28 30  0  0  0  0  0  0  0  0999 V2000
   68.2967   43.8800   55.9662 C   0  0  0  0  0  0  0  0  0  0  0  0
   69.3430   44.5572   56.5943 C   0  0  0  0  0  0  0  0  0  0  0  0
   70.0956   43.9875   57.5778 C   0  0  0  0  0  0  0  0  0  0  0  0
   69.8732   42.7122   58.0121 C   0  0  0  0  0  0  0  0  0  0  0  0
   68.8294   41.9930   57.4053 C   0  0  0  0  0  0  0  0  0  0  0  0
   68.0964   42.5921   56.4265 C   0  0  0  0  0  0  0  0  0  0  0  0
   67.5449   44.4796   54.9713 O   0  0  0  0  0  0  0  0  0  0  0  0
   69.5956   48.9979   54.7754 C   0  0  0  0  0  0  0  0  0  0  0  0
   69.0576   47.7531   54.1213 C   0  0  0  0  0  0  0  0  0  0  0  0
   68.5573   46.7122   54.8978 C   0  0  0  0  0  0  0  0  0  0  0  0
   68.0645   45.5626   54.2806 C   0  0  0  0  0  0  0  0  0  0  0  0
   68.1011   45.5187   52.9131 C   0  0  0  0  0  0  0  0  0  0  0  0
   68.5908   46.5345   52.1022 C   0  0  0  0  0  0  0  0  0  0  0  0
   69.0787   47.6756   52.7569 C   0  0  0  0  0  0  0  0  0  0  0  0
   69.5846   48.7391   51.9200 C   0  0  0  0  0  0  0  0  0  0  0  0
   69.9910   49.5969   51.2305 N   0  0  0  0  0  0  0  0  0  0  0  0
   70.6400   42.0942   59.1049 C   0  0  0  0  0  0  0  0  0  0  0  0
   70.3176   42.4114   60.4781 C   0  0  0  0  0  0  0  0  0  0  0  0
   70.3129   43.6915   60.7597 O   0  0  0  0  0  0  0  0  0  0  0  0
   70.0096   41.5971   61.5720 N   0  0  0  0  0  0  0  0  0  0  0  0
   70.0002   40.1802   61.5299 C   0  0  0  0  0  0  0  0  0  0  0  0
   69.9545   39.4773   62.8551 C   0  0  0  0  0  0  0  0  0  0  0  0
   69.8757   40.2451   63.9694 O   0  0  0  0  0  0  0  0  0  0  0  0
   70.4638   41.5031   63.8827 C   0  0  0  0  0  0  0  0  0  0  0  0
   69.6462   42.2393   62.8390 C   0  0  2  0  0  0  0  0  0  0  0  0
   68.2148   41.9611   63.1642 C   0  0  0  0  0  0  0  0  0  0  0  0
   67.8358   41.7814   64.3312 O   0  0  0  0  0  0  0  0  0  0  0  0
   67.3088   41.9072   62.1294 O   0  0  0  0  0  0  0  0  0  0  0  0
  8  9  1  0
  9 10  2  0
  9 14  1  0
 10 11  1  0
 11  7  1  0
 11 12  2  0
  7  1  1  0
  1  2  2  0
  1  6  1  0
  2  3  1  0
  3  4  2  0
  4 17  1  0
  4  5  1  0
 17 18  1  0
 18 19  2  0
 18 20  1  0
 20 21  1  0
 20 25  1  0
 21 22  1  0
 22 23  1  0
 23 24  1  0
 24 25  1  0
 25 26  1  1
 26 27  2  0
 26 28  1  0
  5  6  2  0
 12 13  1  0
 13 14  2  0
 14 15  1  0
 15 16  3  0
M  END
>  <minimizedAffinity>  (808) 
-8.53125

$$$$
data/reference_output_2/data/smiles/111755.pdb
     RDKit          3D

 25 27  0  0  0  0  0  0  0  0999 V2000
   68.3103   42.7100   57.8873 O   0  0  0  0  0  0  0  0  0  0  0  0
   69.4527   43.0606   57.4193 C   0  0  0  0  0  0  0  0  0  0  0  0
   69.4284   44.1461   56.5474 N   0  0  0  0  0  0  0  0  0  0  0  0
   70.6130   42.2972   57.8437 C   0  0  0  0  0  0  0  0  0  0  0  0
   70.4984   40.9287   58.1131 C   0  0  0  0  0  0  0  0  0  0  0  0
   71.5211   40.1139   58.5069 C   0  0  0  0  0  0  0  0  0  0  0  0
   72.7695   40.7014   58.6484 C   0  0  0  0  0  0  0  0  0  0  0  0
   72.9606   42.0393   58.4019 C   0  0  0  0  0  0  0  0  0  0  0  0
   71.8666   42.8277   57.9984 C   0  0  0  0  0  0  0  0  0  0  0  0
   72.1021   44.1492   57.7732 F   0  0  0  0  0  0  0  0  0  0  0  0
   71.3403   38.6867   58.7739 C   0  0  0  0  0  0  0  0  0  0  0  0
   71.8789   37.6154   58.1011 C   0  0  0  0  0  0  0  0  0  0  0  0
   71.4350   36.4440   58.7001 C   0  0  0  0  0  0  0  0  0  0  0  0
   70.6303   36.8676   59.7333 C   0  0  0  0  0  0  0  0  0  0  0  0
   70.6095   38.1809   59.7300 O   0  0  0  0  0  0  0  0  0  0  0  0
   68.2313   44.8321   56.1911 N   0  0  0  0  0  0  0  0  0  0  0  0
   68.6260   46.5232   56.0105 S   0  0  0  0  0  0  0  0  0  0  0  0
   67.5776   47.3906   56.5962 O   0  0  0  0  0  0  0  0  0  0  0  0
   69.9278   46.8141   56.7077 O   0  0  0  0  0  0  0  0  0  0  0  0
   68.7670   46.9063   54.3148 C   0  0  0  0  0  0  0  0  0  0  0  0
   68.1967   46.0654   53.3986 C   0  0  0  0  0  0  0  0  0  0  0  0
   68.2671   46.3061   52.0423 C   0  0  0  0  0  0  0  0  0  0  0  0
   68.9250   47.4226   51.5571 C   0  0  0  0  0  0  0  0  0  0  0  0
   69.5001   48.2696   52.4900 C   0  0  0  0  0  0  0  0  0  0  0  0
   69.4266   48.0233   53.8424 C   0  0  0  0  0  0  0  0  0  0  0  0
  1  2  2  0
  2  3  1  0
  2  4  1  0
  3 16  1  0
 16 17  1  0
 17 18  2  0
 17 19  2  0
 17 20  1  0
 20 21  2  0
 20 25  1  0
 21 22  1  0
 22 23  2  0
 23 24  1  0
 24 25  2  0
  4  5  2  0
  4  9  1  0
  5  6  1  0
  6 11  1  0
  6  7  2  0
 11 12  2  0
 11 15  1  0
 12 13  1  0
 13 14  2  0
 14 15  1  0
  7  8  1  0
  8  9  2  0
  9 10  1  0
M  END
>  <minimizedAffinity>  (809) 
-8.53077

$$$$
data/200k_reference_output/data/smiles/81780.pdb
     RDKit          3D

 26 28  0  0  0  0  0  0  0  0999 V2000
   68.8671   44.0610   56.6806 C   0  0  0  0  0  0  0  0  0  0  0  0
   69.5153   44.9143   57.3900 N   0  0  0  0  0  0  0  0  0  0  0  0
   70.3450   44.4307   58.4352 C   0  0  0  0  0  0  0  0  0  0  0  0
   70.8210   45.2439   59.3005 O   0  0  0  0  0  0  0  0  0  0  0  0
   70.6954   42.9915   58.5759 C   0  0  0  0  0  0  0  0  0  0  0  0
   69.4466   42.2174   58.2386 C   0  0  1  0  0  0  0  0  0  0  0  0
   68.9941   42.6916   56.9455 N   0  0  0  0  0  0  0  0  0  0  0  0
   69.6544   40.7536   58.2459 C   0  0  0  0  0  0  0  0  0  0  0  0
   68.8814   40.0071   57.6032 O   0  0  0  0  0  0  0  0  0  0  0  0
   70.7162   40.1470   58.9649 N   0  0  0  0  0  0  0  0  0  0  0  0
   70.9344   38.7279   58.9844 C   0  0  0  0  0  0  0  0  0  0  0  0
   70.3226   37.9386   59.9140 C   0  0  0  0  0  0  0  0  0  0  0  0
   70.5596   36.5823   59.8974 C   0  0  0  0  0  0  0  0  0  0  0  0
   71.3999   35.9983   58.9642 C   0  0  0  0  0  0  0  0  0  0  0  0
   71.6545   34.5208   58.9518 C   0  0  0  0  0  0  0  0  0  0  0  0
   72.0160   36.7965   58.0272 C   0  0  0  0  0  0  0  0  0  0  0  0
   72.9246   36.1737   57.0171 C   0  0  0  0  0  0  0  0  0  0  0  0
   71.7726   38.1532   58.0527 C   0  0  0  0  0  0  0  0  0  0  0  0
   68.0455   44.5933   55.6419 N   0  0  0  0  0  0  0  0  0  0  0  0
   69.3869   48.8172   52.0105 C   0  0  0  0  0  0  0  0  0  0  0  0
   69.0546   47.7490   52.9791 C   0  0  0  0  0  0  0  0  0  0  0  0
   68.5387   46.5485   52.5398 C   0  0  0  0  0  0  0  0  0  0  0  0
   68.2261   45.5466   53.4349 C   0  0  0  0  0  0  0  0  0  0  0  0
   68.4033   45.6732   54.8021 C   0  0  0  0  0  0  0  0  0  0  0  0
   68.9156   46.8676   55.2364 C   0  0  0  0  0  0  0  0  0  0  0  0
   69.2378   47.8931   54.3345 C   0  0  0  0  0  0  0  0  0  0  0  0
 20 21  1  0
 21 22  2  0
 21 26  1  0
 22 23  1  0
 23 24  2  0
 24 19  1  0
 24 25  1  0
 19  1  1  0
  1  2  2  0
  1  7  1  0
  2  3  1  0
  3  4  2  0
  3  5  1  0
  5  6  1  0
  6  8  1  6
  6  7  1  0
  8  9  2  0
  8 10  1  0
 10 11  1  0
 11 12  2  0
 11 18  1  0
 12 13  1  0
 13 14  2  0
 14 15  1  0
 14 16  1  0
 16 17  1  0
 16 18  2  0
 25 26  2  0
M  CHG  1   2   1
M  END
>  <minimizedAffinity>  (810) 
-8.53053

$$$$
data/reference_output_2/data/smiles/115031.pdb
     RDKit          3D

 27 30  0  0  0  0  0  0  0  0999 V2000
   71.1965   47.8899   58.6595 C   0  0  0  0  0  0  0  0  0  0  0  0
   71.0634   46.1856   58.5512 C   0  0  0  0  0  0  0  0  0  0  0  0
   70.2686   45.5857   57.7312 C   0  0  0  0  0  0  0  0  0  0  0  0
   69.4169   46.2151   56.8279 C   0  0  0  0  0  0  0  0  0  0  0  0
   69.4806   47.5901   56.8685 N   0  0  0  0  0  0  0  0  0  0  0  0
   70.3442   47.9983   57.7634 C   0  0  0  0  0  0  0  0  0  0  0  0
   70.2900   49.4373   57.6846 O   0  0  0  0  0  0  0  0  0  0  0  0
   73.5831   47.5119   61.6959 C   0  0  0  0  0  0  0  0  0  0  0  0
   72.2661   47.5826   61.0307 N   0  0  0  0  0  0  0  0  0  0  0  0
   72.1607   47.7635   59.6749 C   0  0  0  0  0  0  0  0  0  0  0  0
   73.4100   47.8783   59.1436 O   0  0  0  0  0  0  0  0  0  0  0  0
   70.1810   44.0825   57.6552 C   0  0  0  0  0  0  0  0  0  0  0  0
   71.1964   43.4336   57.9579 O   0  0  0  0  0  0  0  0  0  0  0  0
   69.0116   43.4175   57.2590 N   0  0  0  0  0  0  0  0  0  0  0  0
   68.8920   41.9819   57.1751 C   0  0  0  0  0  0  0  0  0  0  0  0
   67.7275   41.3833   56.4526 C   0  0  0  0  0  0  0  0  0  0  0  0
   67.9305   41.2118   57.9627 C   0  0  0  0  0  0  0  0  0  0  0  0
   68.6812   48.4120   56.0164 C   0  0  0  0  0  0  0  0  0  0  0  0
   69.1618   48.3784   54.6244 C   0  0  0  0  0  0  0  0  0  0  0  0
   70.1566   49.1985   54.1123 C   0  0  0  0  0  0  0  0  0  0  0  0
   70.5927   49.0565   52.8153 C   0  0  0  0  0  0  0  0  0  0  0  0
   70.0685   48.1026   51.9644 C   0  0  0  0  0  0  0  0  0  0  0  0
   69.0664   47.2632   52.4396 C   0  0  0  0  0  0  0  0  0  0  0  0
   68.3425   46.2413   51.8335 C   0  0  0  0  0  0  0  0  0  0  0  0
   67.4832   45.8031   52.7965 C   0  0  0  0  0  0  0  0  0  0  0  0
   67.6804   46.5295   53.9409 N   0  0  0  0  0  0  0  0  0  0  0  0
   68.6435   47.4200   53.7367 C   0  0  0  0  0  0  0  0  0  0  0  0
  8  9  1  0
  9 10  1  0
 10 11  2  0
 10  1  1  0
  1  2  2  0
  1  6  1  0
  2  3  1  0
  3 12  1  0
  3  4  2  0
 12 13  2  0
 12 14  1  0
 14 15  1  0
 15 16  1  0
 15 17  1  0
 16 17  1  0
  4  5  1  0
  5 18  1  0
  5  6  1  0
 18 19  1  0
 19 20  2  0
 19 27  1  0
 20 21  1  0
 21 22  2  0
 22 23  1  0
 23 24  1  0
 23 27  2  0
 24 25  2  0
 25 26  1  0
 26 27  1  0
  6  7  2  0
M  END
>  <minimizedAffinity>  (811) 
-8.53051

$$$$
data/200k_reference_output/data/smiles/36384.pdb
     RDKit          3D

 27 29  0  0  0  0  0  0  0  0999 V2000
   70.6342   51.3598   56.8600 C   0  0  0  0  0  0  0  0  0  0  0  0
   69.9927   52.5549   56.8944 C   0  0  0  0  0  0  0  0  0  0  0  0
   69.2561   52.9432   55.7746 C   0  0  0  0  0  0  0  0  0  0  0  0
   69.1548   52.1637   54.6414 C   0  0  0  0  0  0  0  0  0  0  0  0
   69.8021   50.9448   54.5917 C   0  0  0  0  0  0  0  0  0  0  0  0
   70.5212   50.5805   55.7011 C   0  0  0  0  0  0  0  0  0  0  0  0
   69.6899   50.1206   53.3970 C   0  0  0  0  0  0  0  0  0  0  0  0
   69.9229   50.4710   52.1091 N   0  0  0  0  0  0  0  0  0  0  0  0
   69.7184   49.4440   51.3022 N   0  0  0  0  0  0  0  0  0  0  0  0
   69.3402   48.3634   52.0062 C   0  0  0  0  0  0  0  0  0  0  0  0
   69.0118   47.0697   51.6732 C   0  0  0  0  0  0  0  0  0  0  0  0
   68.6573   46.1642   52.6536 C   0  0  0  0  0  0  0  0  0  0  0  0
   68.6270   46.5459   53.9783 C   0  0  0  0  0  0  0  0  0  0  0  0
   68.9580   47.8429   54.2948 C   0  0  0  0  0  0  0  0  0  0  0  0
   69.3226   48.7937   53.3388 C   0  0  0  0  0  0  0  0  0  0  0  0
   68.2525   45.5892   55.0073 C   0  0  0  0  0  0  0  0  0  0  0  0
   68.5857   45.8078   56.3706 N   0  0  0  0  0  0  0  0  0  0  0  0
   67.6214   44.5293   54.7512 O   0  0  0  0  0  0  0  0  0  0  0  0
   72.7725   51.0634   58.1515 C   0  0  0  0  0  0  0  0  0  0  0  0
   73.4139   51.8037   57.3830 O   0  0  0  0  0  0  0  0  0  0  0  0
   71.4168   50.8335   57.9159 N   0  0  0  0  0  0  0  0  0  0  0  0
   73.4304   50.4072   59.3384 C   0  0  2  0  0  0  0  0  0  0  0  0
   74.7821   50.9951   59.6042 C   0  0  0  0  0  0  0  0  0  0  0  0
   73.4389   49.0129   59.2061 O   0  0  0  0  0  0  0  0  0  0  0  0
   71.6496   47.2666   58.8156 C   0  0  0  0  0  0  0  0  0  0  0  0
   72.4654   48.1689   59.6687 C   0  0  0  0  0  0  0  0  0  0  0  0
   72.2339   48.1457   60.9036 O   0  0  0  0  0  0  0  0  0  0  0  0
 25 26  1  0
 26 27  2  0
 26 24  1  0
 24 22  1  0
 22 23  1  6
 22 19  1  0
 19 20  2  0
 19 21  1  0
 21  1  1  0
  1  2  2  0
  1  6  1  0
  2  3  1  0
  3  4  2  0
  4  5  1  0
  5  7  1  0
  5  6  2  0
  7  8  2  0
  7 15  1  0
  8  9  1  0
  9 10  1  0
 10 11  1  0
 10 15  2  0
 11 12  2  0
 12 13  1  0
 13 16  1  0
 13 14  2  0
 16 17  1  0
 16 18  2  0
 14 15  1  0
M  END
>  <minimizedAffinity>  (812) 
-8.52957

$$$$
data/reference_output_2/data/smiles/171576.pdb
     RDKit          3D

 27 30  0  0  0  0  0  0  0  0999 V2000
   69.1359   46.5047   55.9902 N   0  0  0  0  0  0  0  0  0  0  0  0
   70.1647   46.5122   56.8164 N   0  0  0  0  0  0  0  0  0  0  0  0
   70.5728   45.4035   57.4807 C   0  0  0  0  0  0  0  0  0  0  0  0
   71.5603   45.4209   58.2712 O   0  0  0  0  0  0  0  0  0  0  0  0
   69.9200   44.2011   57.3204 C   0  0  0  0  0  0  0  0  0  0  0  0
   70.3014   43.0604   57.9725 N   0  0  0  0  0  0  0  0  0  0  0  0
   69.6356   41.9088   57.7852 C   0  0  0  0  0  0  0  0  0  0  0  0
   70.0462   40.7819   58.4586 C   0  0  0  0  0  0  0  0  0  0  0  0
   69.3953   39.5631   58.3027 C   0  0  0  0  0  0  0  0  0  0  0  0
   69.9186   38.1447   59.1545 Cl  0  0  0  0  0  0  0  0  0  0  0  0
   68.3071   39.4830   57.4512 C   0  0  0  0  0  0  0  0  0  0  0  0
   67.9043   40.6110   56.7847 C   0  0  0  0  0  0  0  0  0  0  0  0
   68.5515   41.8262   56.9372 C   0  0  0  0  0  0  0  0  0  0  0  0
   68.1694   42.9781   56.2797 C   0  0  0  0  0  0  0  0  0  0  0  0
   67.1942   42.9396   55.5055 O   0  0  0  0  0  0  0  0  0  0  0  0
   68.8402   44.1785   56.4574 C   0  0  0  0  0  0  0  0  0  0  0  0
   68.4800   45.3418   55.8135 C   0  0  0  0  0  0  0  0  0  0  0  0
   67.4865   45.2745   55.0338 O   0  0  0  0  0  0  0  0  0  0  0  0
   68.6820   47.6771   55.2688 C   0  0  2  0  0  0  0  0  0  0  0  0
   69.1627   47.7011   53.8654 C   0  0  0  0  0  0  0  0  0  0  0  0
   68.6990   46.7555   52.9811 C   0  0  0  0  0  0  0  0  0  0  0  0
   69.1440   46.7766   51.6776 C   0  0  0  0  0  0  0  0  0  0  0  0
   70.0228   47.7076   51.2624 N   0  0  0  0  0  0  0  0  0  0  0  0
   70.4689   48.6269   52.1345 C   0  0  0  0  0  0  0  0  0  0  0  0
   70.0582   48.6528   53.4476 C   0  0  0  0  0  0  0  0  0  0  0  0
   68.1478   49.2305   57.1416 C   0  0  0  0  0  0  0  0  0  0  0  0
   69.0924   48.9213   56.0092 C   0  0  0  0  0  0  0  0  0  0  0  0
 26 27  1  0
 19 27  1  1
 19 20  1  0
 19  1  1  0
 20 21  2  0
 20 25  1  0
 21 22  1  0
 22 23  2  0
 23 24  1  0
 24 25  2  0
  1  2  1  0
  1 17  1  0
  2  3  1  0
  3  4  2  0
  3  5  1  0
  5  6  1  0
  5 16  2  0
  6  7  1  0
  7  8  2  0
  7 13  1  0
  8  9  1  0
  9 10  1  0
  9 11  2  0
 11 12  1  0
 12 13  2  0
 13 14  1  0
 14 15  2  0
 14 16  1  0
 16 17  1  0
 17 18  2  0
M  END
>  <minimizedAffinity>  (813) 
-8.52932

$$$$
data/200k_reference_output/data/smiles/47040.pdb
     RDKit          3D

 27 29  0  0  0  0  0  0  0  0999 V2000
   71.2072   47.2552   59.5798 N   0  0  0  0  0  0  0  0  0  0  0  0
   70.6306   48.1915   58.6882 C   0  0  0  0  0  0  0  0  0  0  0  0
   70.9225   49.4033   58.8482 O   0  0  0  0  0  0  0  0  0  0  0  0
   69.7279   47.7872   57.6163 C   0  0  0  0  0  0  0  0  0  0  0  0
   69.9766   47.6518   56.2697 C   0  0  0  0  0  0  0  0  0  0  0  0
   68.8314   47.2454   55.6191 C   0  0  0  0  0  0  0  0  0  0  0  0
   67.8982   47.1396   56.5853 N   0  0  0  0  0  0  0  0  0  0  0  0
   68.4332   47.4619   57.7695 N   0  0  0  0  0  0  0  0  0  0  0  0
   68.6279   46.9772   54.1981 C   0  0  0  0  0  0  0  0  0  0  0  0
   67.8262   45.9400   53.7764 C   0  0  0  0  0  0  0  0  0  0  0  0
   67.6278   45.6792   52.4165 C   0  0  0  0  0  0  0  0  0  0  0  0
   68.2415   46.4671   51.4607 C   0  0  0  0  0  0  0  0  0  0  0  0
   69.0439   47.5040   51.9035 C   0  0  0  0  0  0  0  0  0  0  0  0
   69.2419   47.7659   53.2512 C   0  0  0  0  0  0  0  0  0  0  0  0
   72.9107   46.5826   61.1435 C   0  0  0  0  0  0  0  0  0  0  0  0
   72.8311   45.4190   60.6547 O   0  0  0  0  0  0  0  0  0  0  0  0
   72.0753   47.6041   60.6175 N   0  0  0  0  0  0  0  0  0  0  0  0
   75.6586   47.2294   64.3261 C   0  0  0  0  0  0  0  0  0  0  0  0
   74.9594   46.0498   64.1804 C   0  0  0  0  0  0  0  0  0  0  0  0
   74.0706   45.8205   63.1639 C   0  0  0  0  0  0  0  0  0  0  0  0
   73.8575   46.8259   62.2257 C   0  0  0  0  0  0  0  0  0  0  0  0
   74.5336   48.0132   62.3371 C   0  0  0  0  0  0  0  0  0  0  0  0
   75.4279   48.2095   63.3821 C   0  0  0  0  0  0  0  0  0  0  0  0
   77.8864   48.7908   65.2953 C   0  0  0  0  0  0  0  0  0  0  0  0
   76.7761   47.4597   65.6419 S   0  0  0  0  0  0  0  0  0  0  0  0
   77.5170   46.1767   65.9595 O   0  0  0  0  0  0  0  0  0  0  0  0
   75.9594   47.8510   66.8559 O   0  0  0  0  0  0  0  0  0  0  0  0
 24 25  1  0
 25 26  2  0
 25 27  2  0
 25 18  1  0
 18 19  2  0
 18 23  1  0
 19 20  1  0
 20 21  2  0
 21 15  1  0
 21 22  1  0
 15 16  2  0
 15 17  1  0
 17  1  1  0
  1  2  1  0
  2  3  2  0
  2  4  1  0
  4  5  1  0
  4  8  2  0
  5  6  2  0
  6  9  1  0
  6  7  1  0
  9 10  2  0
  9 14  1  0
 10 11  1  0
 11 12  2  0
 12 13  1  0
 13 14  2  0
  7  8  1  0
 22 23  2  0
M  END
>  <minimizedAffinity>  (814) 
-8.52923

$$$$
data/reference_output_2/data/smiles/98865.pdb
     RDKit          3D

 26 28  0  0  0  0  0  0  0  0999 V2000
   71.0183   48.2533   57.5823 O   0  0  0  0  0  0  0  0  0  0  0  0
   69.8949   47.8195   57.2440 C   0  0  0  0  0  0  0  0  0  0  0  0
   69.5907   46.4656   57.6590 N   0  0  0  0  0  0  0  0  0  0  0  0
   68.9164   48.6259   56.4672 C   0  0  0  0  0  0  0  0  0  0  0  0
   69.2136   48.5099   55.0044 C   0  0  0  0  0  0  0  0  0  0  0  0
   70.0703   49.3825   54.3178 C   0  0  0  0  0  0  0  0  0  0  0  0
   70.1306   49.0040   53.0415 N   0  0  0  0  0  0  0  0  0  0  0  0
   69.3558   47.9249   52.8510 C   0  0  0  0  0  0  0  0  0  0  0  0
   69.0846   47.1491   51.7283 C   0  0  0  0  0  0  0  0  0  0  0  0
   68.2287   46.0620   51.8601 C   0  0  0  0  0  0  0  0  0  0  0  0
   67.6378   45.7240   53.0674 C   0  0  0  0  0  0  0  0  0  0  0  0
   67.9159   46.5065   54.1842 C   0  0  0  0  0  0  0  0  0  0  0  0
   68.7750   47.6052   54.0723 C   0  0  0  0  0  0  0  0  0  0  0  0
   70.6064   45.7906   58.3930 C   0  0  0  0  0  0  0  0  0  0  0  0
   70.3831   44.3566   58.5159 C   0  0  0  0  0  0  0  0  0  0  0  0
   69.7237   43.9059   59.5381 O   0  0  0  0  0  0  0  0  0  0  0  0
   70.8037   43.3415   57.6291 N   0  0  0  0  0  0  0  0  0  0  0  0
   70.5051   41.9634   57.8710 C   0  0  0  0  0  0  0  0  0  0  0  0
   71.4709   41.1599   58.4191 C   0  0  0  0  0  0  0  0  0  0  0  0
   71.1492   39.8297   58.6675 C   0  0  0  0  0  0  0  0  0  0  0  0
   69.9035   39.2925   58.3826 C   0  0  0  0  0  0  0  0  0  0  0  0
   69.6502   37.9623   58.6543 F   0  0  0  0  0  0  0  0  0  0  0  0
   68.9477   40.1151   57.8330 C   0  0  0  0  0  0  0  0  0  0  0  0
   67.7178   39.6384   57.5471 F   0  0  0  0  0  0  0  0  0  0  0  0
   69.2806   41.4692   57.5834 C   0  0  0  0  0  0  0  0  0  0  0  0
   68.2575   42.2088   57.0375 F   0  0  0  0  0  0  0  0  0  0  0  0
  1  2  2  0
  2  4  1  0
  2  3  1  0
  4  5  1  0
  5  6  2  0
  5 13  1  0
  6  7  1  0
  7  8  1  0
  8  9  1  0
  8 13  2  0
  9 10  2  0
 10 11  1  0
 11 12  2  0
 12 13  1  0
  3 14  1  0
 14 15  1  0
 15 16  2  0
 15 17  1  0
 17 18  1  0
 18 19  2  0
 18 25  1  0
 19 20  1  0
 20 21  2  0
 21 22  1  0
 21 23  1  0
 23 24  1  0
 23 25  2  0
 25 26  1  0
M  END
>  <minimizedAffinity>  (815) 
-8.52841

$$$$
data/200k_reference_output/data/smiles/66182.pdb
     RDKit          3D

 25 26  0  0  0  0  0  0  0  0999 V2000
   67.7330   41.8884   56.8632 C   0  0  0  0  0  0  0  0  0  0  0  0
   67.7218   41.1932   55.7889 O   0  0  0  0  0  0  0  0  0  0  0  0
   67.8285   43.2914   56.6897 N   0  0  0  0  0  0  0  0  0  0  0  0
   67.8959   43.8499   55.3823 N   0  0  0  0  0  0  0  0  0  0  0  0
   68.1891   45.2150   55.2249 C   0  0  0  0  0  0  0  0  0  0  0  0
   68.3778   45.8641   56.3058 O   0  0  0  0  0  0  0  0  0  0  0  0
   68.2875   45.9065   53.9556 C   0  0  0  0  0  0  0  0  0  0  0  0
   67.6280   45.3483   52.8605 C   0  0  0  0  0  0  0  0  0  0  0  0
   67.6584   45.9163   51.6304 C   0  0  0  0  0  0  0  0  0  0  0  0
   68.3498   47.0746   51.4324 C   0  0  0  0  0  0  0  0  0  0  0  0
   69.0113   47.6605   52.4716 C   0  0  0  0  0  0  0  0  0  0  0  0
   68.9670   47.0581   53.7293 C   0  0  0  0  0  0  0  0  0  0  0  0
   69.6329   47.6748   54.7070 F   0  0  0  0  0  0  0  0  0  0  0  0
   67.6545   41.2103   58.1623 C   0  0  0  0  0  0  0  0  0  0  0  0
   68.3709   40.0252   58.2503 O   0  0  0  0  0  0  0  0  0  0  0  0
   69.3714   39.7473   59.1547 C   0  0  0  0  0  0  0  0  0  0  0  0
   69.5729   40.5434   60.1091 O   0  0  0  0  0  0  0  0  0  0  0  0
   70.4187   35.1226   60.4226 N   0  0  0  0  0  0  0  0  0  0  0  0
   70.6813   36.2726   59.6350 C   0  0  0  0  0  0  0  0  0  0  0  0
   69.9230   37.4210   59.7693 C   0  0  0  0  0  0  0  0  0  0  0  0
   70.1899   38.5326   58.9974 C   0  0  0  0  0  0  0  0  0  0  0  0
   71.2090   38.5169   58.0835 C   0  0  0  0  0  0  0  0  0  0  0  0
   71.9583   37.3663   57.9568 C   0  0  0  0  0  0  0  0  0  0  0  0
   71.7145   36.2486   58.7129 C   0  0  0  0  0  0  0  0  0  0  0  0
   72.6649   34.7855   58.5550 Cl  0  0  0  0  0  0  0  0  0  0  0  0
 18 19  1  0
 19 20  2  0
 19 24  1  0
 20 21  1  0
 21 16  1  0
 21 22  2  0
 16 17  2  0
 16 15  1  0
 15 14  1  0
 14  1  1  0
  1  2  2  0
  1  3  1  0
  3  4  1  0
  4  5  1  0
  5  6  2  0
  5  7  1  0
  7  8  2  0
  7 12  1  0
  8  9  1  0
  9 10  2  0
 10 11  1  0
 11 12  2  0
 12 13  1  0
 22 23  1  0
 23 24  2  0
 24 25  1  0
M  END
>  <minimizedAffinity>  (816) 
-8.52840

$$$$
data/reference_output_2/data/smiles/179318.pdb
     RDKit          3D

 26 28  0  0  0  0  0  0  0  0999 V2000
   68.0926   42.5272   56.4493 C   0  0  0  0  0  0  0  0  0  0  0  0
   68.3227   42.0726   57.8260 C   0  0  0  0  0  0  0  0  0  0  0  0
   67.4042   42.1688   58.6672 O   0  0  0  0  0  0  0  0  0  0  0  0
   69.5660   41.4989   58.2227 N   0  0  0  0  0  0  0  0  0  0  0  0
   69.6257   40.1591   58.8390 C   0  0  0  0  0  0  0  0  0  0  0  0
   71.0604   39.9566   59.3710 C   0  0  0  0  0  0  0  0  0  0  0  0
   71.9749   40.2964   58.2473 O   0  0  0  0  0  0  0  0  0  0  0  0
   71.9700   41.7030   58.0612 C   0  0  0  0  0  0  0  0  0  0  0  0
   73.0693   42.4843   57.8855 C   0  0  0  0  0  0  0  0  0  0  0  0
   73.0144   43.9592   57.7207 C   0  0  0  0  0  0  0  0  0  0  0  0
   71.7726   44.3822   57.7936 C   0  0  0  0  0  0  0  0  0  0  0  0
   70.5850   43.7296   57.9057 C   0  0  0  0  0  0  0  0  0  0  0  0
   70.7346   42.2639   58.0342 C   0  0  0  0  0  0  0  0  0  0  0  0
   71.5410   46.1789   58.5687 S   0  0  0  0  0  0  0  0  0  0  0  0
   71.3322   45.5759   60.1297 O   0  0  0  0  0  0  0  0  0  0  0  0
   72.5653   46.8368   58.5826 O   0  0  0  0  0  0  0  0  0  0  0  0
   69.8436   46.2198   58.1610 N   0  0  0  0  0  0  0  0  0  0  0  0
   69.5901   47.4236   57.5981 C   0  0  0  0  0  0  0  0  0  0  0  0
   68.6818   47.2593   56.3827 C   0  0  0  0  0  0  0  0  0  0  0  0
   68.7535   47.0228   55.0577 C   0  0  0  0  0  0  0  0  0  0  0  0
   68.1200   45.9584   54.5246 C   0  0  0  0  0  0  0  0  0  0  0  0
   67.9196   45.6428   53.2578 C   0  0  0  0  0  0  0  0  0  0  0  0
   68.4941   46.5755   52.3452 C   0  0  0  0  0  0  0  0  0  0  0  0
   69.1983   47.6786   52.8057 C   0  0  0  0  0  0  0  0  0  0  0  0
   69.9739   48.4292   51.7822 C   0  0  0  0  0  0  0  0  0  0  0  0
   69.3662   47.9588   54.1507 C   0  0  0  0  0  0  0  0  0  0  0  0
  1  2  1  0
  2  3  2  0
  2  4  1  0
  4  5  1  0
  4 13  1  0
  5  6  1  0
  6  7  1  0
  7  8  1  0
  8  9  1  0
  8 13  2  0
  9 10  2  0
 10 11  1  0
 11 14  1  0
 11 12  2  0
 14 15  2  0
 14 16  2  0
 14 17  1  0
 17 18  1  0
 18 19  1  0
 19 20  1  0
 20 21  2  0
 20 26  1  0
 21 22  1  0
 22 23  2  0
 23 24  1  0
 24 25  1  0
 24 26  2  0
 12 13  1  0
M  END
>  <minimizedAffinity>  (817) 
-8.52839

$$$$
data/200k_reference_output/data/smiles/3306.pdb
     RDKit          3D

 29 32  0  0  0  0  0  0  0  0999 V2000
   68.4391   40.5997   57.3436 C   0  0  0  0  0  0  0  0  0  0  0  0
   67.9135   39.6924   56.6194 O   0  0  0  0  0  0  0  0  0  0  0  0
   68.9196   40.1973   58.5935 N   0  0  0  0  0  0  0  0  0  0  0  0
   68.6185   44.6628   55.9177 C   0  0  0  0  0  0  0  0  0  0  0  0
   69.5474   44.1584   56.7841 C   0  0  0  0  0  0  0  0  0  0  0  0
   69.5188   42.8387   57.2687 C   0  0  0  0  0  0  0  0  0  0  0  0
   68.5261   41.9794   56.8785 C   0  0  0  0  0  0  0  0  0  0  0  0
   67.5925   42.5064   55.9995 C   0  0  0  0  0  0  0  0  0  0  0  0
   67.6470   43.7654   55.5572 N   0  0  0  0  0  0  0  0  0  0  0  0
   67.8479   45.6784   53.0458 C   0  0  0  0  0  0  0  0  0  0  0  0
   68.2544   46.4609   54.1746 N   0  0  0  0  0  0  0  0  0  0  0  0
   68.3680   47.8100   54.1585 N   0  0  0  0  0  0  0  0  0  0  0  0
   68.7653   48.2620   55.3528 C   0  0  0  0  0  0  0  0  0  0  0  0
   68.8987   47.1352   56.1286 C   0  0  0  0  0  0  0  0  0  0  0  0
   68.5718   45.9891   55.3749 C   0  0  0  0  0  0  0  0  0  0  0  0
   68.8282   38.7972   59.0575 C   0  0  2  0  0  0  0  0  0  0  0  0
   67.4483   38.6646   59.6654 C   0  0  0  0  0  0  0  0  0  0  0  0
   67.4810   39.5051   60.8737 N   0  0  0  0  0  0  0  0  0  0  0  0
   68.2469   38.7577   61.8373 C   0  0  0  0  0  0  0  0  0  0  0  0
   69.6274   38.4211   61.4283 C   0  0  0  0  0  0  0  0  0  0  0  0
   69.9429   38.4476   59.9785 C   0  0  1  0  0  0  0  0  0  0  0  0
   70.6126   37.1758   59.5258 C   0  0  0  0  0  0  0  0  0  0  0  0
   70.4707   35.9784   60.1927 C   0  0  0  0  0  0  0  0  0  0  0  0
   71.0952   34.8266   59.7596 C   0  0  0  0  0  0  0  0  0  0  0  0
   71.8886   34.8354   58.6339 C   0  0  0  0  0  0  0  0  0  0  0  0
   72.5206   33.7368   58.1686 F   0  0  0  0  0  0  0  0  0  0  0  0
   72.0457   36.0220   57.9507 C   0  0  0  0  0  0  0  0  0  0  0  0
   72.8073   36.1170   56.8394 F   0  0  0  0  0  0  0  0  0  0  0  0
   71.4091   37.1773   58.4008 C   0  0  0  0  0  0  0  0  0  0  0  0
 10 11  1  0
 11 12  1  0
 11 15  1  0
 12 13  2  0
 13 14  1  0
 14 15  2  0
 15  4  1  0
  4  5  2  0
  4  9  1  0
  5  6  1  0
  6  7  2  0
  7  1  1  0
  7  8  1  0
  1  2  2  0
  1  3  1  0
 16  3  1  1
 16 17  1  0
 16 21  1  0
 17 18  1  0
 18 19  1  0
 19 20  1  0
 20 21  1  0
 21 22  1  6
 22 23  2  0
 22 29  1  0
 23 24  1  0
 24 25  2  0
 25 26  1  0
 25 27  1  0
 27 28  1  0
 27 29  2  0
  8  9  2  0
M  CHG  1  18   1
M  END
>  <minimizedAffinity>  (818) 
-8.52834

$$$$
data/reference_output_2/data/smiles/194551.pdb
     RDKit          3D

 25 26  0  0  0  0  0  0  0  0999 V2000
   68.9493   43.8179   57.0191 O   0  0  0  0  0  0  0  0  0  0  0  0
   69.7818   44.6904   57.4229 C   0  0  0  0  0  0  0  0  0  0  0  0
   69.5121   46.0275   57.0744 N   0  0  0  0  0  0  0  0  0  0  0  0
   70.9453   44.2517   58.2069 C   0  0  0  0  0  0  0  0  0  0  0  0
   70.7531   42.8423   58.5797 N   0  0  0  0  0  0  0  0  0  0  0  0
   71.6417   41.8434   58.0877 C   0  0  0  0  0  0  0  0  0  0  0  0
   72.5724   42.2543   57.3280 O   0  0  0  0  0  0  0  0  0  0  0  0
   71.5282   40.4362   58.4046 C   0  0  0  0  0  0  0  0  0  0  0  0
   70.2909   39.8250   58.3733 C   0  0  0  0  0  0  0  0  0  0  0  0
   70.1251   38.4746   58.6650 C   0  0  0  0  0  0  0  0  0  0  0  0
   71.2292   37.7235   58.9960 C   0  0  0  0  0  0  0  0  0  0  0  0
   71.0186   36.0194   59.3681 Cl  0  0  0  0  0  0  0  0  0  0  0  0
   72.4692   38.3068   59.0333 C   0  0  0  0  0  0  0  0  0  0  0  0
   72.6047   39.6412   58.7411 C   0  0  0  0  0  0  0  0  0  0  0  0
   68.3920   46.3298   56.3149 N   0  0  0  0  0  0  0  0  0  0  0  0
   68.4417   46.4871   54.9069 C   0  0  0  0  0  0  0  0  0  0  0  0
   69.0132   47.6096   54.3610 C   0  0  0  0  0  0  0  0  0  0  0  0
   69.5216   48.5270   55.2248 F   0  0  0  0  0  0  0  0  0  0  0  0
   69.0939   47.8503   52.9980 C   0  0  0  0  0  0  0  0  0  0  0  0
   69.6670   48.9684   52.4895 F   0  0  0  0  0  0  0  0  0  0  0  0
   68.5639   46.8978   52.1299 C   0  0  0  0  0  0  0  0  0  0  0  0
   67.9856   45.7641   52.6488 C   0  0  0  0  0  0  0  0  0  0  0  0
   67.4673   44.8368   51.8117 F   0  0  0  0  0  0  0  0  0  0  0  0
   67.9274   45.5662   54.0239 C   0  0  0  0  0  0  0  0  0  0  0  0
   67.3577   44.4484   54.5066 F   0  0  0  0  0  0  0  0  0  0  0  0
  1  2  2  0
  2  4  1  0
  2  3  1  0
  4  5  1  0
  5  6  1  0
  6  7  2  0
  6  8  1  0
  8  9  2  0
  8 14  1  0
  9 10  1  0
 10 11  2  0
 11 12  1  0
 11 13  1  0
 13 14  2  0
  3 15  1  0
 15 16  1  0
 16 17  2  0
 16 24  1  0
 17 18  1  0
 17 19  1  0
 19 20  1  0
 19 21  2  0
 21 22  1  0
 22 23  1  0
 22 24  2  0
 24 25  1  0
M  END
>  <minimizedAffinity>  (819) 
-8.52815

$$$$
data/reference_output_2/data/smiles/110336.pdb
     RDKit          3D

 26 29  0  0  0  0  0  0  0  0999 V2000
   70.2102   48.6078   57.2986 N   0  0  0  0  0  0  0  0  0  0  0  0
   70.5265   49.2867   56.1992 N   0  0  0  0  0  0  0  0  0  0  0  0
   70.1277   48.9173   54.9651 C   0  0  0  0  0  0  0  0  0  0  0  0
   69.3543   47.7927   54.7749 C   0  0  0  0  0  0  0  0  0  0  0  0
   69.0110   47.0697   55.9000 C   0  0  0  0  0  0  0  0  0  0  0  0
   68.2709   46.0410   55.4609 N   0  0  0  0  0  0  0  0  0  0  0  0
   68.1177   46.0578   54.1216 C   0  0  0  0  0  0  0  0  0  0  0  0
   67.4608   45.2430   53.2112 C   0  0  0  0  0  0  0  0  0  0  0  0
   67.4733   45.5121   51.8610 C   0  0  0  0  0  0  0  0  0  0  0  0
   68.1637   46.6297   51.4218 C   0  0  0  0  0  0  0  0  0  0  0  0
   68.8232   47.4523   52.3141 C   0  0  0  0  0  0  0  0  0  0  0  0
   68.8057   47.1730   53.6761 C   0  0  0  0  0  0  0  0  0  0  0  0
   69.4580   47.5105   57.1327 C   0  0  0  0  0  0  0  0  0  0  0  0
   69.1395   46.8403   58.1668 O   0  0  0  0  0  0  0  0  0  0  0  0
   70.6790   49.0556   58.6128 C   0  0  0  0  0  0  0  0  0  0  0  0
   71.6579   47.8896   60.4173 O   0  0  0  0  0  0  0  0  0  0  0  0
   71.6447   48.0877   59.1908 C   0  0  0  0  0  0  0  0  0  0  0  0
   72.5254   47.4127   58.3391 N   0  0  0  0  0  0  0  0  0  0  0  0
   73.4821   46.4618   58.8230 C   0  0  0  0  0  0  0  0  0  0  0  0
   73.0915   45.1119   58.3691 C   0  0  0  0  0  0  0  0  0  0  0  0
   74.0982   44.1553   58.1770 C   0  0  0  0  0  0  0  0  0  0  0  0
   73.8095   42.8718   57.7687 C   0  0  0  0  0  0  0  0  0  0  0  0
   72.5192   42.4678   57.5294 C   0  0  0  0  0  0  0  0  0  0  0  0
   71.5168   43.3916   57.7128 C   0  0  0  0  0  0  0  0  0  0  0  0
   69.8722   42.8752   57.4074 Cl  0  0  0  0  0  0  0  0  0  0  0  0
   71.8072   44.6958   58.1280 C   0  0  0  0  0  0  0  0  0  0  0  0
 16 17  2  0
 17 15  1  0
 17 18  1  0
 15  1  1  0
  1  2  1  0
  1 13  1  0
  2  3  2  0
  3  4  1  0
  4  5  2  0
  4 12  1  0
  5  6  1  0
  5 13  1  0
  6  7  1  0
  7  8  1  0
  7 12  2  0
  8  9  2  0
  9 10  1  0
 10 11  2  0
 11 12  1  0
 13 14  2  0
 18 19  1  0
 19 20  1  0
 20 21  2  0
 20 26  1  0
 21 22  1  0
 22 23  2  0
 23 24  1  0
 24 25  1  0
 24 26  2  0
M  END
>  <minimizedAffinity>  (820) 
-8.52732

$$$$
data/reference_output_2/data/smiles/130291.pdb
     RDKit          3D

 25 28  0  0  0  0  0  0  0  0999 V2000
   68.9017   42.2156   56.7609 C   0  0  0  0  0  0  0  0  0  0  0  0
   70.1064   42.3548   57.4012 C   0  0  0  0  0  0  0  0  0  0  0  0
   70.6290   43.6172   57.6559 C   0  0  0  0  0  0  0  0  0  0  0  0
   69.9126   44.7147   57.2539 C   0  0  0  0  0  0  0  0  0  0  0  0
   68.7225   44.5905   56.6188 N   0  0  0  0  0  0  0  0  0  0  0  0
   68.2354   43.3601   56.3817 C   0  0  0  0  0  0  0  0  0  0  0  0
   67.1088   43.2992   55.7792 O   0  0  0  0  0  0  0  0  0  0  0  0
   70.2814   46.0643   57.6307 C   0  0  0  0  0  0  0  0  0  0  0  0
   71.4087   46.1874   58.4645 C   0  0  0  0  0  0  0  0  0  0  0  0
   71.6201   47.5381   58.6011 C   0  0  0  0  0  0  0  0  0  0  0  0
   70.6586   48.1920   57.8789 C   0  0  0  0  0  0  0  0  0  0  0  0
   69.8176   47.2588   57.2667 N   0  0  0  0  0  0  0  0  0  0  0  0
   72.0875   45.0113   59.0660 C   0  0  0  0  0  0  0  0  0  0  0  0
   71.9397   43.7597   58.2739 C   0  0  0  0  0  0  0  0  0  0  0  0
   68.5937   47.7750   56.2295 S   0  0  0  0  0  0  0  0  0  0  0  0
   68.6009   49.3436   56.2288 O   0  0  0  0  0  0  0  0  0  0  0  0
   67.1812   47.5060   56.6300 O   0  0  0  0  0  0  0  0  0  0  0  0
   68.7627   47.4076   54.5462 C   0  0  0  0  0  0  0  0  0  0  0  0
   69.5305   48.1221   53.6988 C   0  0  0  0  0  0  0  0  0  0  0  0
   69.7157   47.9157   52.3450 C   0  0  0  0  0  0  0  0  0  0  0  0
   69.0205   46.8299   51.7904 C   0  0  0  0  0  0  0  0  0  0  0  0
   68.2266   46.0644   52.5945 C   0  0  0  0  0  0  0  0  0  0  0  0
   68.0853   46.3288   53.9426 C   0  0  0  0  0  0  0  0  0  0  0  0
   67.8381   39.8747   56.2691 N   0  0  0  0  0  0  0  0  0  0  0  0
   68.3138   40.9451   56.4985 C   0  0  0  0  0  0  0  0  0  0  0  0
 24 25  3  0
 25  1  1  0
  1  2  2  0
  1  6  1  0
  2  3  1  0
  3  4  2  0
  3 14  1  0
  4  5  1  0
  4  8  1  0
  5  6  1  0
  6  7  2  0
  8  9  2  0
  8 12  1  0
  9 10  1  0
  9 13  1  0
 10 11  2  0
 11 12  1  0
 12 15  1  0
 15 16  2  0
 15 17  2  0
 15 18  1  0
 18 19  2  0
 18 23  1  0
 19 20  1  0
 20 21  2  0
 21 22  1  0
 22 23  2  0
 13 14  1  0
M  END
>  <minimizedAffinity>  (821) 
-8.52716

$$$$
data/reference_output_2/data/smiles/123038.pdb
     RDKit          3D

 26 28  0  0  0  0  0  0  0  0999 V2000
   69.5891   46.8943   56.5373 C   0  0  0  0  0  0  0  0  0  0  0  0
   69.8521   48.2013   57.0101 C   0  0  0  0  0  0  0  0  0  0  0  0
   70.6300   48.4267   58.1076 C   0  0  0  0  0  0  0  0  0  0  0  0
   71.2109   47.4113   58.8276 C   0  0  0  0  0  0  0  0  0  0  0  0
   70.9684   46.1335   58.3851 C   0  0  0  0  0  0  0  0  0  0  0  0
   70.1839   45.8825   57.2796 C   0  0  0  0  0  0  0  0  0  0  0  0
   72.0395   47.6470   60.0025 C   0  0  0  0  0  0  0  0  0  0  0  0
   71.7740   47.0645   61.0592 O   0  0  0  0  0  0  0  0  0  0  0  0
   73.1480   48.5636   59.8764 N   0  0  0  0  0  0  0  0  0  0  0  0
   74.0218   48.8620   60.9912 C   0  0  0  0  0  0  0  0  0  0  0  0
   74.8052   50.1173   60.5886 C   0  0  0  0  0  0  0  0  0  0  0  0
   75.6520   49.8267   59.3740 C   0  0  0  0  0  0  0  0  0  0  0  0
   74.9268   49.0380   58.3153 C   0  0  1  0  0  0  0  0  0  0  0  0
   73.4315   49.2239   58.6167 C   0  0  0  0  0  0  0  0  0  0  0  0
   75.1569   49.5906   56.9588 C   0  0  0  0  0  0  0  0  0  0  0  0
   76.2879   50.4260   56.7733 N   0  0  0  0  0  0  0  0  0  0  0  0
   74.4218   49.3721   55.9667 O   0  0  0  0  0  0  0  0  0  0  0  0
   68.8248   46.7023   55.4681 O   0  0  0  0  0  0  0  0  0  0  0  0
   68.1149   47.1600   54.4586 C   0  0  0  0  0  0  0  0  0  0  0  0
   70.3964   49.3724   53.5235 C   0  0  0  0  0  0  0  0  0  0  0  0
   69.7389   48.3089   52.7664 C   0  0  0  0  0  0  0  0  0  0  0  0
   70.0068   48.0656   51.4535 N   0  0  0  0  0  0  0  0  0  0  0  0
   69.2978   47.0557   51.0566 O   0  0  0  0  0  0  0  0  0  0  0  0
   68.5659   46.6056   52.0384 C   0  0  0  0  0  0  0  0  0  0  0  0
   67.6017   45.4511   52.0093 C   0  0  0  0  0  0  0  0  0  0  0  0
   68.8191   47.3894   53.1646 C   0  0  0  0  0  0  0  0  0  0  0  0
 20 21  1  0
 21 22  2  0
 21 26  1  0
 22 23  1  0
 23 24  1  0
 24 25  1  0
 24 26  2  0
 26 19  1  0
 19 18  1  0
 18  1  1  0
  1  2  2  0
  1  6  1  0
  2  3  1  0
  3  4  2  0
  4  7  1  0
  4  5  1  0
  7  8  2  0
  7  9  1  0
  9 10  1  0
  9 14  1  0
 10 11  1  0
 11 12  1  0
 12 13  1  0
 13 15  1  6
 13 14  1  0
 15 16  1  0
 15 17  2  0
  5  6  2  0
M  END
>  <minimizedAffinity>  (822) 
-8.52685

$$$$
data/200k_reference_output/data/smiles/11912.pdb
     RDKit          3D

 29 31  0  0  0  0  0  0  0  0999 V2000
   70.3351   48.7627   57.2950 C   0  0  0  0  0  0  0  0  0  0  0  0
   69.5488   49.4210   58.0145 O   0  0  0  0  0  0  0  0  0  0  0  0
   69.9200   48.3918   55.9513 C   0  0  0  0  0  0  0  0  0  0  0  0
   70.2754   49.1644   54.8583 C   0  0  0  0  0  0  0  0  0  0  0  0
   71.0773   50.4030   55.0586 C   0  0  0  0  0  0  0  0  0  0  0  0
   69.9121   48.8265   53.6113 N   0  0  0  0  0  0  0  0  0  0  0  0
   70.2870   49.6283   52.5287 O   0  0  0  0  0  0  0  0  0  0  0  0
   69.1866   47.7174   53.3883 C   0  0  0  0  0  0  0  0  0  0  0  0
   68.8053   47.3559   52.1193 C   0  0  0  0  0  0  0  0  0  0  0  0
   68.0595   46.2013   51.9546 C   0  0  0  0  0  0  0  0  0  0  0  0
   67.6885   45.4092   53.0199 C   0  0  0  0  0  0  0  0  0  0  0  0
   68.0804   45.7870   54.2948 C   0  0  0  0  0  0  0  0  0  0  0  0
   68.8277   46.9417   54.4664 C   0  0  0  0  0  0  0  0  0  0  0  0
   69.1954   47.2825   55.7283 N   0  0  0  0  0  0  0  0  0  0  0  0
   68.8051   46.4361   56.7718 O   0  0  0  0  0  0  0  0  0  0  0  0
   71.6430   48.3917   57.8412 C   0  0  0  0  0  0  0  0  0  0  0  0
   71.5801   47.7467   59.1778 C   0  0  0  0  0  0  0  0  0  0  0  0
   71.5613   48.4023   60.2329 O   0  0  0  0  0  0  0  0  0  0  0  0
   71.5608   45.5238   58.0669 N   0  0  0  0  0  0  0  0  0  0  0  0
   71.5384   46.2961   59.2460 C   0  0  0  0  0  0  0  0  0  0  0  0
   71.4818   45.6903   60.3462 O   0  0  0  0  0  0  0  0  0  0  0  0
   71.0720   39.8334   58.2951 C   0  0  0  0  0  0  0  0  0  0  0  0
   71.2440   41.3052   58.2462 C   0  0  0  0  0  0  0  0  0  0  0  0
   72.4786   41.9184   58.4546 C   0  0  0  0  0  0  0  0  0  0  0  0
   72.5827   43.2932   58.3973 C   0  0  0  0  0  0  0  0  0  0  0  0
   71.5174   44.1126   58.1407 C   0  0  0  0  0  0  0  0  0  0  0  0
   70.2874   43.4904   57.9345 C   0  0  0  0  0  0  0  0  0  0  0  0
   70.1489   42.1094   57.9850 C   0  0  0  0  0  0  0  0  0  0  0  0
   68.8332   41.4566   57.7609 C   0  0  0  0  0  0  0  0  0  0  0  0
 22 23  1  0
 23 24  2  0
 23 28  1  0
 24 25  1  0
 25 26  2  0
 26 19  1  0
 26 27  1  0
 19 20  1  0
 20 21  2  0
 20 17  1  0
 17 18  2  0
 17 16  1  0
 16  1  1  0
  1  2  2  0
  1  3  1  0
  3  4  2  0
  3 14  1  0
  4  5  1  0
  4  6  1  0
  6  7  1  0
  6  8  2  0
  8  9  1  0
  8 13  1  0
  9 10  2  0
 10 11  1  0
 11 12  2  0
 12 13  1  0
 13 14  2  0
 14 15  1  0
 27 28  2  0
 28 29  1  0
M  CHG  4   6   1   7  -1  14   1  15  -1
M  END
>  <minimizedAffinity>  (823) 
-8.52665

$$$$
data/reference_output_2/data/smiles/190156.pdb
     RDKit          3D

 23 25  0  0  0  0  0  0  0  0999 V2000
   70.1982   51.2438   56.1300 C   0  0  0  0  0  0  0  0  0  0  0  0
   71.0366   50.4600   55.2394 N   0  0  0  0  0  0  0  0  0  0  0  0
   70.4271   49.5192   54.3534 C   0  0  0  0  0  0  0  0  0  0  0  0
   69.5812   48.5681   54.7908 N   0  0  0  0  0  0  0  0  0  0  0  0
   69.0034   47.6764   53.9570 C   0  0  0  0  0  0  0  0  0  0  0  0
   68.1346   46.6972   54.3886 C   0  0  0  0  0  0  0  0  0  0  0  0
   67.5531   45.7923   53.5192 C   0  0  0  0  0  0  0  0  0  0  0  0
   67.8329   45.8475   52.1595 C   0  0  0  0  0  0  0  0  0  0  0  0
   68.7037   46.8312   51.7292 C   0  0  0  0  0  0  0  0  0  0  0  0
   69.2796   47.7290   52.6061 C   0  0  0  0  0  0  0  0  0  0  0  0
   70.1544   48.7217   52.2000 C   0  0  0  0  0  0  0  0  0  0  0  0
   70.4095   48.7746   50.9690 O   0  0  0  0  0  0  0  0  0  0  0  0
   70.6813   49.5584   53.0680 O   0  0  0  0  0  0  0  0  0  0  0  0
   72.7318   50.7156   55.3072 S   0  0  0  0  0  0  0  0  0  0  0  0
   73.3706   49.8091   56.3112 O   0  0  0  0  0  0  0  0  0  0  0  0
   73.3396   50.3706   53.9567 O   0  0  0  0  0  0  0  0  0  0  0  0
   73.0775   52.4061   55.6370 C   0  0  0  0  0  0  0  0  0  0  0  0
   73.1622   53.2756   54.5633 C   0  0  0  0  0  0  0  0  0  0  0  0
   73.4339   54.6113   54.8105 C   0  0  0  0  0  0  0  0  0  0  0  0
   73.6187   55.0625   56.1176 C   0  0  0  0  0  0  0  0  0  0  0  0
   73.5340   54.1941   57.1729 C   0  0  0  0  0  0  0  0  0  0  0  0
   73.7686   54.7726   58.8236 Cl  0  0  0  0  0  0  0  0  0  0  0  0
   73.2594   52.8524   56.9190 C   0  0  0  0  0  0  0  0  0  0  0  0
  1  2  1  0
  2  3  1  0
  2 14  1  0
  3  4  2  0
  3 13  1  0
  4  5  1  0
  5  6  2  0
  5 10  1  0
  6  7  1  0
  7  8  2  0
  8  9  1  0
  9 10  2  0
 10 11  1  0
 11 12  2  0
 11 13  1  0
 14 15  2  0
 14 16  2  0
 14 17  1  0
 17 18  2  0
 17 23  1  0
 18 19  1  0
 19 20  2  0
 20 21  1  0
 21 22  1  0
 21 23  2  0
M  END
>  <minimizedAffinity>  (824) 
-8.52581

$$$$
data/reference_output_2/data/smiles/159893.pdb
     RDKit          3D

 27 30  0  0  0  0  0  0  0  0999 V2000
   70.5772   51.4353   53.1646 O   0  0  0  0  0  0  0  0  0  0  0  0
   70.8250   50.9608   54.2953 C   0  0  0  0  0  0  0  0  0  0  0  0
   71.8276   51.4884   55.1502 N   0  0  0  0  0  0  0  0  0  0  0  0
   72.5985   52.6129   54.7146 C   0  0  0  0  0  0  0  0  0  0  0  0
   74.0676   52.4496   54.9355 C   0  0  0  0  0  0  0  0  0  0  0  0
   74.4288   51.5855   56.0126 N   0  0  0  0  0  0  0  0  0  0  0  0
   73.4204   51.4292   57.0056 C   0  0  0  0  0  0  0  0  0  0  0  0
   72.1034   50.9323   56.4508 C   0  0  0  0  0  0  0  0  0  0  0  0
   70.0528   49.8037   54.7766 C   0  0  0  0  0  0  0  0  0  0  0  0
   69.6204   49.6965   56.0759 C   0  0  0  0  0  0  0  0  0  0  0  0
   68.8989   48.5858   56.4724 C   0  0  0  0  0  0  0  0  0  0  0  0
   68.5906   47.5652   55.5994 C   0  0  0  0  0  0  0  0  0  0  0  0
   69.0164   47.6553   54.2888 C   0  0  0  0  0  0  0  0  0  0  0  0
   68.7210   46.6512   53.4029 C   0  0  0  0  0  0  0  0  0  0  0  0
   69.1536   46.7609   52.1057 C   0  0  0  0  0  0  0  0  0  0  0  0
   69.8821   47.8723   51.6877 C   0  0  0  0  0  0  0  0  0  0  0  0
   70.1755   48.8789   52.5856 C   0  0  0  0  0  0  0  0  0  0  0  0
   69.7478   48.7853   53.8972 C   0  0  0  0  0  0  0  0  0  0  0  0
   75.1427   50.1132   55.5410 S   0  0  0  0  0  0  0  0  0  0  0  0
   74.7840   49.8459   54.1017 O   0  0  0  0  0  0  0  0  0  0  0  0
   74.5466   49.0052   56.3601 O   0  0  0  0  0  0  0  0  0  0  0  0
   76.8590   50.0858   55.7274 C   0  0  0  0  0  0  0  0  0  0  0  0
   77.5775   50.9870   56.4681 C   0  0  0  0  0  0  0  0  0  0  0  0
   78.9500   50.8751   56.5533 C   0  0  0  0  0  0  0  0  0  0  0  0
   79.6652   49.8865   55.9240 C   0  0  0  0  0  0  0  0  0  0  0  0
   78.9381   48.9706   55.1722 C   0  0  0  0  0  0  0  0  0  0  0  0
   77.5722   49.0766   55.0832 C   0  0  0  0  0  0  0  0  0  0  0  0
  1  2  2  0
  2  9  1  0
  2  3  1  0
  9 10  2  0
  9 18  1  0
 10 11  1  0
 11 12  2  0
 12 13  1  0
 13 14  1  0
 13 18  2  0
 14 15  2  0
 15 16  1  0
 16 17  2  0
 17 18  1  0
  3  4  1  0
  3  8  1  0
  4  5  1  0
  5  6  1  0
  6 19  1  0
  6  7  1  0
 19 20  2  0
 19 21  2  0
 19 22  1  0
 22 23  2  0
 22 27  1  0
 23 24  1  0
 24 25  2  0
 25 26  1  0
 26 27  2  0
  7  8  1  0
M  END
>  <minimizedAffinity>  (825) 
-8.52580

$$$$
data/200k_reference_output/data/smiles/63794.pdb
     RDKit          3D

 27 28  0  0  0  0  0  0  0  0999 V2000
   71.4912   51.8218   54.5780 C   0  0  1  0  0  0  0  0  0  0  0  0
   73.5502   50.3203   54.7787 N   0  0  0  0  0  0  0  0  0  0  0  0
   72.9557   51.5749   54.5050 C   0  0  0  0  0  0  0  0  0  0  0  0
   73.7325   52.5167   54.1862 O   0  0  0  0  0  0  0  0  0  0  0  0
   75.7888   50.3020   55.8204 C   0  0  0  0  0  0  0  0  0  0  0  0
   75.1917   50.7061   56.8755 O   0  0  0  0  0  0  0  0  0  0  0  0
   74.9396   50.0932   54.7080 N   0  0  0  0  0  0  0  0  0  0  0  0
   81.4573   49.4543   55.7931 C   0  0  0  0  0  0  0  0  0  0  0  0
   79.9701   49.6643   55.7911 C   0  0  0  0  0  0  0  0  0  0  0  0
   79.4654   50.7379   56.4935 C   0  0  0  0  0  0  0  0  0  0  0  0
   78.0961   50.9161   56.4806 C   0  0  0  0  0  0  0  0  0  0  0  0
   77.2298   50.0853   55.8118 C   0  0  0  0  0  0  0  0  0  0  0  0
   77.7648   49.0140   55.1142 C   0  0  0  0  0  0  0  0  0  0  0  0
   79.1242   48.8177   55.1130 C   0  0  0  0  0  0  0  0  0  0  0  0
   70.8093   50.5462   54.7589 N   0  0  0  0  0  0  0  0  0  0  0  0
   70.1031   49.8890   53.7504 C   0  0  0  0  0  0  0  0  0  0  0  0
   70.0645   50.4491   52.6255 O   0  0  0  0  0  0  0  0  0  0  0  0
   69.4527   48.6190   54.0188 C   0  0  0  0  0  0  0  0  0  0  0  0
   69.3635   48.2238   55.3549 C   0  0  0  0  0  0  0  0  0  0  0  0
   68.7679   47.0383   55.7286 C   0  0  0  0  0  0  0  0  0  0  0  0
   68.2297   46.1918   54.7516 C   0  0  0  0  0  0  0  0  0  0  0  0
   68.3125   46.5702   53.4373 C   0  0  0  0  0  0  0  0  0  0  0  0
   67.7508   45.6896   52.3974 C   0  0  0  0  0  0  0  0  0  0  0  0
   68.9209   47.7747   53.0936 C   0  0  0  0  0  0  0  0  0  0  0  0
   71.2208   52.5990   55.8713 C   0  0  0  0  0  0  0  0  0  0  0  0
   71.3582   51.6415   57.0370 C   0  0  0  0  0  0  0  0  0  0  0  0
   69.8636   53.2164   55.8797 C   0  0  0  0  0  0  0  0  0  0  0  0
  8  9  1  0
  9 10  2  0
  9 14  1  0
 10 11  1  0
 11 12  2  0
 12  5  1  0
 12 13  1  0
  5  6  2  0
  5  7  1  0
  7  2  1  0
  2  3  1  0
  3  4  2  0
  3  1  1  0
  1 15  1  1
  1 25  1  0
 15 16  1  0
 16 17  2  0
 16 18  1  0
 18 19  2  0
 18 24  1  0
 19 20  1  0
 20 21  2  0
 21 22  1  0
 22 23  1  0
 22 24  2  0
 25 26  1  0
 25 27  1  0
 13 14  2  0
M  END
>  <minimizedAffinity>  (826) 
-8.52578

$$$$
data/reference_output_2/data/smiles/181944.pdb
     RDKit          3D

 26 29  0  0  0  0  0  0  0  0999 V2000
   72.4490   53.1283   55.6164 C   0  0  0  0  0  0  0  0  0  0  0  0
   71.1086   53.3782   55.5137 N   0  0  0  0  0  0  0  0  0  0  0  0
   70.4837   52.3122   54.9883 C   0  0  0  0  0  0  0  0  0  0  0  0
   69.1582   52.0443   54.6782 C   0  0  0  0  0  0  0  0  0  0  0  0
   68.7646   50.8364   54.1300 C   0  0  0  0  0  0  0  0  0  0  0  0
   69.6845   49.8428   53.8668 C   0  0  0  0  0  0  0  0  0  0  0  0
   71.0008   50.1152   54.1767 C   0  0  0  0  0  0  0  0  0  0  0  0
   71.3987   51.3180   54.7244 C   0  0  0  0  0  0  0  0  0  0  0  0
   72.6176   51.8597   55.1277 C   0  0  0  0  0  0  0  0  0  0  0  0
   69.2470   48.5793   53.2880 C   0  0  0  0  0  0  0  0  0  0  0  0
   68.5800   47.6301   54.0301 C   0  0  0  0  0  0  0  0  0  0  0  0
   68.1634   46.4262   53.4741 C   0  0  0  0  0  0  0  0  0  0  0  0
   68.4250   46.1755   52.1444 C   0  0  0  0  0  0  0  0  0  0  0  0
   69.0828   47.1183   51.4251 N   0  0  0  0  0  0  0  0  0  0  0  0
   69.4897   48.2918   51.9648 C   0  0  0  0  0  0  0  0  0  0  0  0
   73.9136   54.0048   57.4679 N   0  0  0  0  0  0  0  0  0  0  0  0
   73.3864   54.1002   56.1580 C   0  0  0  0  0  0  0  0  0  0  0  0
   73.7484   55.0622   55.4518 O   0  0  0  0  0  0  0  0  0  0  0  0
   74.1244   51.0040   54.9908 S   0  0  0  0  0  0  0  0  0  0  0  0
   74.2130   50.3527   53.6207 O   0  0  0  0  0  0  0  0  0  0  0  0
   75.2659   51.9343   55.1242 O   0  0  0  0  0  0  0  0  0  0  0  0
   74.1195   49.7572   56.2134 N   0  0  0  0  0  0  0  0  0  0  0  0
   75.4871   49.4300   56.5400 C   0  0  0  0  0  0  0  0  0  0  0  0
   75.3291   48.7108   57.8678 C   0  0  0  0  0  0  0  0  0  0  0  0
   74.2892   49.5438   58.5609 C   0  0  0  0  0  0  0  0  0  0  0  0
   73.5373   50.2445   57.4334 C   0  0  0  0  0  0  0  0  0  0  0  0
 16 17  1  0
 17 18  2  0
 17  1  1  0
  1  2  1  0
  1  9  2  0
  2  3  1  0
  3  4  2  0
  3  8  1  0
  4  5  1  0
  5  6  2  0
  6 10  1  0
  6  7  1  0
 10 11  2  0
 10 15  1  0
 11 12  1  0
 12 13  2  0
 13 14  1  0
 14 15  2  0
  7  8  2  0
  8  9  1  0
  9 19  1  0
 19 20  2  0
 19 21  2  0
 19 22  1  0
 22 23  1  0
 22 26  1  0
 23 24  1  0
 24 25  1  0
 25 26  1  0
M  END
>  <minimizedAffinity>  (827) 
-8.52462

$$$$
data/reference_output_2/data/smiles/117544.pdb
     RDKit          3D

 24 25  0  0  0  0  0  0  0  0999 V2000
   69.2365   47.8062   55.0258 N   0  0  0  0  0  0  0  0  0  0  0  0
   68.9817   47.7200   52.6174 C   0  0  0  0  0  0  0  0  0  0  0  0
   68.4993   47.0872   51.4935 C   0  0  0  0  0  0  0  0  0  0  0  0
   67.7797   45.9046   51.5746 C   0  0  0  0  0  0  0  0  0  0  0  0
   67.5441   45.3486   52.8148 C   0  0  0  0  0  0  0  0  0  0  0  0
   66.8427   44.1976   52.8783 F   0  0  0  0  0  0  0  0  0  0  0  0
   68.0376   45.9978   53.9382 C   0  0  0  0  0  0  0  0  0  0  0  0
   68.7521   47.1744   53.8587 C   0  0  0  0  0  0  0  0  0  0  0  0
   69.8125   49.8773   50.9175 N   0  0  0  0  0  0  0  0  0  0  0  0
   69.8795   49.1980   52.5034 S   0  0  0  0  0  0  0  0  0  0  0  0
   71.3293   48.9666   52.8291 O   0  0  0  0  0  0  0  0  0  0  0  0
   69.2863   50.2388   53.4390 O   0  0  0  0  0  0  0  0  0  0  0  0
   69.0256   47.1839   56.6141 S   0  0  0  0  0  0  0  0  0  0  0  0
   69.1222   45.6847   56.6566 O   0  0  0  0  0  0  0  0  0  0  0  0
   67.6831   47.5430   57.1785 O   0  0  0  0  0  0  0  0  0  0  0  0
   70.2618   47.8016   57.7225 C   0  0  0  0  0  0  0  0  0  0  0  0
   70.9338   46.9754   58.5043 C   0  0  0  0  0  0  0  0  0  0  0  0
   71.9504   47.4456   59.4226 C   0  0  0  0  0  0  0  0  0  0  0  0
   72.6452   48.6177   59.1009 C   0  0  0  0  0  0  0  0  0  0  0  0
   73.6149   49.1010   59.9388 C   0  0  0  0  0  0  0  0  0  0  0  0
   73.9237   48.4476   61.1065 C   0  0  0  0  0  0  0  0  0  0  0  0
   75.1637   49.0719   62.1681 Cl  0  0  0  0  0  0  0  0  0  0  0  0
   73.2613   47.2878   61.4595 C   0  0  0  0  0  0  0  0  0  0  0  0
   72.2976   46.8305   60.6022 C   0  0  0  0  0  0  0  0  0  0  0  0
  9 10  1  0
 10 11  2  0
 10 12  2  0
 10  2  1  0
  2  3  2  0
  2  8  1  0
  3  4  1  0
  4  5  2  0
  5  6  1  0
  5  7  1  0
  7  8  2  0
  8  1  1  0
  1 13  1  0
 13 14  2  0
 13 15  2  0
 13 16  1  0
 16 17  2  0
 17 18  1  0
 18 19  2  0
 18 24  1  0
 19 20  1  0
 20 21  2  0
 21 22  1  0
 21 23  1  0
 23 24  2  0
M  END
>  <minimizedAffinity>  (828) 
-8.52423

$$$$
data/200k_reference_output/data/smiles/25962.pdb
     RDKit          3D

 26 28  0  0  0  0  0  0  0  0999 V2000
   72.3458   44.2613   58.1569 C   0  0  0  0  0  0  0  0  0  0  0  0
   70.9789   43.8752   58.5289 C   0  0  0  0  0  0  0  0  0  0  0  0
   70.1165   44.7909   58.8984 N   0  0  0  0  0  0  0  0  0  0  0  0
   70.4999   42.5029   58.5270 C   0  0  0  0  0  0  0  0  0  0  0  0
   71.0513   41.5291   59.3284 C   0  0  0  0  0  0  0  0  0  0  0  0
   72.1198   41.8898   60.1697 O   0  0  0  0  0  0  0  0  0  0  0  0
   70.5843   40.2254   59.3247 C   0  0  0  0  0  0  0  0  0  0  0  0
   69.5402   39.8414   58.5122 C   0  0  0  0  0  0  0  0  0  0  0  0
   68.9772   40.8053   57.7027 C   0  0  0  0  0  0  0  0  0  0  0  0
   67.9311   40.4236   56.8875 C   0  0  0  0  0  0  0  0  0  0  0  0
   67.3851   41.4050   56.0876 C   0  0  0  0  0  0  0  0  0  0  0  0
   67.9143   42.6777   56.1571 C   0  0  0  0  0  0  0  0  0  0  0  0
   67.3707   43.5500   55.3947 O   0  0  0  0  0  0  0  0  0  0  0  0
   68.9090   43.0164   56.9400 O   0  0  0  0  0  0  0  0  0  0  0  0
   69.4423   42.1082   57.7057 C   0  0  0  0  0  0  0  0  0  0  0  0
   70.4559   46.1331   58.9523 N   0  0  0  0  0  0  0  0  0  0  0  0
   70.1928   47.0212   57.8814 C   0  0  0  0  0  0  0  0  0  0  0  0
   70.6961   48.5865   58.1240 S   0  0  0  0  0  0  0  0  0  0  0  0
   69.5558   46.6613   56.6738 N   0  0  0  0  0  0  0  0  0  0  0  0
   68.4952   47.3627   56.0236 C   0  0  0  0  0  0  0  0  0  0  0  0
   68.6301   47.2460   54.5418 C   0  0  0  0  0  0  0  0  0  0  0  0
   67.9652   46.2146   53.9147 C   0  0  0  0  0  0  0  0  0  0  0  0
   68.0448   46.0450   52.5392 C   0  0  0  0  0  0  0  0  0  0  0  0
   68.7986   46.9160   51.7714 C   0  0  0  0  0  0  0  0  0  0  0  0
   69.4646   47.9499   52.4001 C   0  0  0  0  0  0  0  0  0  0  0  0
   69.3673   48.0941   53.7703 C   0  0  0  0  0  0  0  0  0  0  0  0
  1  2  1  0
  2  3  2  0
  2  4  1  0
  3 16  1  0
 16 17  1  0
 17 18  2  0
 17 19  1  0
 19 20  1  0
 20 21  1  0
 21 22  2  0
 21 26  1  0
 22 23  1  0
 23 24  2  0
 24 25  1  0
 25 26  2  0
  4  5  2  0
  4 15  1  0
  5  6  1  0
  5  7  1  0
  7  8  2  0
  8  9  1  0
  9 10  1  0
  9 15  2  0
 10 11  2  0
 11 12  1  0
 12 13  2  0
 12 14  1  0
 14 15  1  0
M  END
>  <minimizedAffinity>  (829) 
-8.52298

$$$$
data/reference_output_2/data/smiles/179850.pdb
     RDKit          3D

 27 30  0  0  0  0  0  0  0  0999 V2000
   70.7150   49.6584   56.8796 C   0  0  0  0  0  0  0  0  0  0  0  0
   70.4095   49.5322   55.4323 C   0  0  0  0  0  0  0  0  0  0  0  0
   70.8424   50.5247   54.5826 C   0  0  0  0  0  0  0  0  0  0  0  0
   70.5405   50.3763   53.2398 C   0  0  0  0  0  0  0  0  0  0  0  0
   69.8380   49.2806   52.7876 C   0  0  0  0  0  0  0  0  0  0  0  0
   69.4014   48.2817   53.6372 C   0  0  0  0  0  0  0  0  0  0  0  0
   68.6928   47.1834   53.1551 C   0  0  0  0  0  0  0  0  0  0  0  0
   68.2739   46.2088   54.0262 C   0  0  0  0  0  0  0  0  0  0  0  0
   68.6152   46.4255   55.3678 C   0  0  0  0  0  0  0  0  0  0  0  0
   68.2285   45.5249   56.1737 O   0  0  0  0  0  0  0  0  0  0  0  0
   69.2842   47.4763   55.7729 O   0  0  0  0  0  0  0  0  0  0  0  0
   69.7025   48.4297   54.9742 C   0  0  0  0  0  0  0  0  0  0  0  0
   67.5403   45.1212   53.3413 C   0  0  0  0  0  0  0  0  0  0  0  0
   67.5575   45.5144   51.8993 C   0  0  0  0  0  0  0  0  0  0  0  0
   68.2673   46.8350   51.7701 C   0  0  0  0  0  0  0  0  0  0  0  0
   71.5455   51.6119   55.0969 O   0  0  0  0  0  0  0  0  0  0  0  0
   72.7702   52.0466   54.6171 C   0  0  0  0  0  0  0  0  0  0  0  0
   73.8743   51.0594   54.6702 C   0  0  0  0  0  0  0  0  0  0  0  0
   73.9332   50.2754   53.6627 O   0  0  0  0  0  0  0  0  0  0  0  0
   74.8196   50.9251   55.6906 N   0  0  0  0  0  0  0  0  0  0  0  0
   75.8513   49.9206   55.6589 C   0  0  0  0  0  0  0  0  0  0  0  0
   76.9466   50.1388   56.6199 C   0  0  0  0  0  0  0  0  0  0  0  0
   78.0645   50.8589   56.2207 C   0  0  0  0  0  0  0  0  0  0  0  0
   79.1144   51.0793   57.1018 C   0  0  0  0  0  0  0  0  0  0  0  0
   79.0669   50.5874   58.3874 C   0  0  0  0  0  0  0  0  0  0  0  0
   77.9808   49.8928   58.7607 N   0  0  0  0  0  0  0  0  0  0  0  0
   76.9377   49.6660   57.9089 C   0  0  0  0  0  0  0  0  0  0  0  0
  1  2  1  0
  2  3  2  0
  2 12  1  0
  3 16  1  0
  3  4  1  0
 16 17  1  0
 17 18  1  0
 18 19  2  0
 18 20  1  0
 20 21  1  0
 21 22  1  0
 22 23  2  0
 22 27  1  0
 23 24  1  0
 24 25  2  0
 25 26  1  0
 26 27  2  0
  4  5  2  0
  5  6  1  0
  6  7  1  0
  6 12  2  0
  7  8  2  0
  7 15  1  0
  8  9  1  0
  8 13  1  0
  9 10  2  0
  9 11  1  0
 11 12  1  0
 13 14  1  0
 14 15  1  0
M  END
>  <minimizedAffinity>  (830) 
-8.52096

$$$$
data/reference_output_2/data/smiles/128156.pdb
     RDKit          3D

 27 30  0  0  0  0  0  0  0  0999 V2000
   68.9567   41.6061   57.6015 C   0  0  0  0  0  0  0  0  0  0  0  0
   67.5128   41.9166   56.5254 S   0  0  0  0  0  0  0  0  0  0  0  0
   68.2769   43.5628   55.9748 C   0  0  0  0  0  0  0  0  0  0  0  0
   69.2477   43.5368   56.5847 N   0  0  0  0  0  0  0  0  0  0  0  0
   69.7119   42.6586   57.4133 N   0  0  0  0  0  0  0  0  0  0  0  0
   70.9808   42.8285   58.0845 C   0  0  0  0  0  0  0  0  0  0  0  0
   71.0784   43.4407   59.3151 C   0  0  0  0  0  0  0  0  0  0  0  0
   72.2872   43.6057   59.9602 C   0  0  0  0  0  0  0  0  0  0  0  0
   73.4444   43.1466   59.3650 C   0  0  0  0  0  0  0  0  0  0  0  0
   73.3898   42.5280   58.1333 C   0  0  0  0  0  0  0  0  0  0  0  0
   72.1611   42.3845   57.5235 C   0  0  0  0  0  0  0  0  0  0  0  0
   69.9352   39.4222   58.0959 C   0  0  0  0  0  0  0  0  0  0  0  0
   69.1026   40.3850   58.4473 C   0  0  0  0  0  0  0  0  0  0  0  0
   70.8381   34.6419   61.0076 O   0  0  0  0  0  0  0  0  0  0  0  0
   70.6124   35.8311   60.2844 C   0  0  0  0  0  0  0  0  0  0  0  0
   71.4292   36.1991   59.2435 C   0  0  0  0  0  0  0  0  0  0  0  0
   71.1748   37.3694   58.5605 C   0  0  0  0  0  0  0  0  0  0  0  0
   70.1289   38.2093   58.8672 C   0  0  0  0  0  0  0  0  0  0  0  0
   69.3270   37.8150   59.9140 C   0  0  0  0  0  0  0  0  0  0  0  0
   69.5550   36.6495   60.6169 C   0  0  0  0  0  0  0  0  0  0  0  0
   67.5070   44.3683   55.0061 N   0  0  0  0  0  0  0  0  0  0  0  0
   68.0025   45.4853   54.3369 C   0  0  0  0  0  0  0  0  0  0  0  0
   67.9109   45.5286   52.9599 C   0  0  0  0  0  0  0  0  0  0  0  0
   68.3898   46.5728   52.2107 C   0  0  0  0  0  0  0  0  0  0  0  0
   68.9960   47.6413   52.8315 C   0  0  0  0  0  0  0  0  0  0  0  0
   69.1045   47.6289   54.2050 C   0  0  0  0  0  0  0  0  0  0  0  0
   68.6055   46.5483   54.9500 C   0  0  0  0  0  0  0  0  0  0  0  0
 14 15  1  0
 15 16  2  0
 15 20  1  0
 16 17  1  0
 17 18  2  0
 18 12  1  0
 18 19  1  0
 12 13  2  0
 13  1  1  0
  1  2  1  0
  1  5  2  0
  2  3  1  0
  3 21  1  0
  3  4  2  0
 21 22  1  0
 22 23  2  0
 22 27  1  0
 23 24  1  0
 24 25  2  0
 25 26  1  0
 26 27  2  0
  4  5  1  0
  5  6  1  0
  6  7  2  0
  6 11  1  0
  7  8  1  0
  8  9  2  0
  9 10  1  0
 10 11  2  0
 19 20  2  0
M  CHG  1   5   1
M  END
>  <minimizedAffinity>  (831) 
-8.52020

$$$$
data/reference_output_2/data/smiles/145782.pdb
     RDKit          3D

 27 29  0  0  0  0  0  0  0  0999 V2000
   68.2168   41.9763   56.6612 C   0  0  0  0  0  0  0  0  0  0  0  0
   67.8248   40.6915   56.9546 C   0  0  0  0  0  0  0  0  0  0  0  0
   68.5367   39.8828   57.8528 C   0  0  0  0  0  0  0  0  0  0  0  0
   69.6674   40.3617   58.4762 C   0  0  0  0  0  0  0  0  0  0  0  0
   70.0583   41.6489   58.1802 C   0  0  0  0  0  0  0  0  0  0  0  0
   69.3701   42.4561   57.3006 C   0  0  0  0  0  0  0  0  0  0  0  0
   67.4522   42.8129   55.7254 C   0  0  0  0  0  0  0  0  0  0  0  0
   67.7944   44.9071   54.3508 C   0  0  0  0  0  0  0  0  0  0  0  0
   67.0717   44.4510   53.4115 O   0  0  0  0  0  0  0  0  0  0  0  0
   68.0104   44.1302   55.5119 N   0  0  0  0  0  0  0  0  0  0  0  0
   69.9970   50.1418   53.6534 C   0  0  0  0  0  0  0  0  0  0  0  0
   69.4323   48.7991   53.8279 N   0  0  0  0  0  0  0  0  0  0  0  0
   69.2989   47.9713   52.7900 C   0  0  0  0  0  0  0  0  0  0  0  0
   68.7689   46.6900   52.9109 C   0  0  0  0  0  0  0  0  0  0  0  0
   68.3602   46.2395   54.1453 C   0  0  0  0  0  0  0  0  0  0  0  0
   68.4961   47.0879   55.2165 C   0  0  0  0  0  0  0  0  0  0  0  0
   68.0997   46.6993   56.5100 O   0  0  0  0  0  0  0  0  0  0  0  0
   69.0279   48.3404   55.0238 C   0  0  0  0  0  0  0  0  0  0  0  0
   69.1448   49.1108   56.0279 O   0  0  0  0  0  0  0  0  0  0  0  0
   70.3865   39.5799   59.3679 O   0  0  0  0  0  0  0  0  0  0  0  0
   70.8747   38.3326   59.0213 C   0  0  0  0  0  0  0  0  0  0  0  0
   71.7665   38.1809   57.9860 C   0  0  0  0  0  0  0  0  0  0  0  0
   72.2556   36.9492   57.6348 C   0  0  0  0  0  0  0  0  0  0  0  0
   71.8654   35.8046   58.3160 C   0  0  0  0  0  0  0  0  0  0  0  0
   72.3312   34.5802   57.9910 F   0  0  0  0  0  0  0  0  0  0  0  0
   70.9716   35.9555   59.3538 C   0  0  0  0  0  0  0  0  0  0  0  0
   70.4756   37.2127   59.7084 C   0  0  0  0  0  0  0  0  0  0  0  0
 11 12  1  0
 12 13  1  0
 12 18  1  0
 13 14  2  0
 14 15  1  0
 15  8  1  0
 15 16  2  0
  8  9  2  0
  8 10  1  0
 10  7  1  0
  7  1  1  0
  1  2  2  0
  1  6  1  0
  2  3  1  0
  3  4  2  0
  4 20  1  0
  4  5  1  0
 20 21  1  0
 21 22  2  0
 21 27  1  0
 22 23  1  0
 23 24  2  0
 24 25  1  0
 24 26  1  0
 26 27  2  0
  5  6  2  0
 16 17  1  0
 16 18  1  0
 18 19  2  0
M  END
>  <minimizedAffinity>  (832) 
-8.51974

$$$$
data/reference_output_2/data/smiles/93714.pdb
     RDKit          3D

 28 30  0  0  0  0  0  0  0  0999 V2000
   71.4222   41.3410   58.1637 C   0  0  0  0  0  0  0  0  0  0  0  0
   72.4860   42.3088   58.3559 C   0  0  0  0  0  0  0  0  0  0  0  0
   72.3479   43.6223   58.3407 C   0  0  0  0  0  0  0  0  0  0  0  0
   71.1154   44.2808   58.1298 C   0  0  0  0  0  0  0  0  0  0  0  0
   70.0816   43.4155   57.9331 C   0  0  0  0  0  0  0  0  0  0  0  0
   70.1951   42.0585   57.9425 C   0  0  0  0  0  0  0  0  0  0  0  0
   70.9934   46.0039   58.3489 S   0  0  0  0  0  0  0  0  0  0  0  0
   71.0400   46.2470   59.8551 O   0  0  0  0  0  0  0  0  0  0  0  0
   72.2319   46.5923   57.7097 O   0  0  0  0  0  0  0  0  0  0  0  0
   69.5823   46.7492   57.7813 N   0  0  0  0  0  0  0  0  0  0  0  0
   69.0655   46.7513   56.4641 C   0  0  0  0  0  0  0  0  0  0  0  0
   69.2647   47.8252   55.6455 C   0  0  0  0  0  0  0  0  0  0  0  0
   68.8749   47.7797   54.3353 C   0  0  0  0  0  0  0  0  0  0  0  0
   68.2742   46.6474   53.8223 C   0  0  0  0  0  0  0  0  0  0  0  0
   68.0839   45.5862   54.6751 C   0  0  0  0  0  0  0  0  0  0  0  0
   68.4825   45.6528   55.9859 N   0  0  0  0  0  0  0  0  0  0  0  0
   71.6815   38.8010   58.4348 C   0  0  0  0  0  0  0  0  0  0  0  0
   71.5401   40.1058   58.3027 C   0  0  0  0  0  0  0  0  0  0  0  0
   72.5651   35.2422   57.6950 C   0  0  0  0  0  0  0  0  0  0  0  0
   72.5463   36.6151   57.6298 C   0  0  0  0  0  0  0  0  0  0  0  0
   71.8306   37.3464   58.5565 C   0  0  0  0  0  0  0  0  0  0  0  0
   71.1665   36.6622   59.5258 C   0  0  0  0  0  0  0  0  0  0  0  0
   71.1567   35.2966   59.6311 C   0  0  0  0  0  0  0  0  0  0  0  0
   71.8724   34.5892   58.6902 C   0  0  0  0  0  0  0  0  0  0  0  0
   71.8877   33.1858   58.7578 O   0  0  0  0  0  0  0  0  0  0  0  0
   74.3506   33.8262   57.0494 O   0  0  0  0  0  0  0  0  0  0  0  0
   73.2968   34.4588   56.7211 C   0  0  0  0  0  0  0  0  0  0  0  0
   72.9160   34.3384   55.3840 O   0  0  0  0  0  0  0  0  0  0  0  0
 26 27  2  0
 27 28  1  0
 27 19  1  0
 19 20  2  0
 19 24  1  0
 20 21  1  0
 21 17  1  0
 21 22  2  0
 17 18  3  0
 18  1  1  0
  1  2  2  0
  1  6  1  0
  2  3  1  0
  3  4  2  0
  4  7  1  0
  4  5  1  0
  7  8  2  0
  7  9  2  0
  7 10  1  0
 10 11  1  0
 11 12  2  0
 11 16  1  0
 12 13  1  0
 13 14  2  0
 14 15  1  0
 15 16  2  0
  5  6  2  0
 22 23  1  0
 23 24  2  0
 24 25  1  0
M  END
>  <minimizedAffinity>  (833) 
-8.51958

$$$$
data/200k_reference_output/data/smiles/13138.pdb
     RDKit          3D

 26 28  0  0  0  0  0  0  0  0999 V2000
   68.3919   46.0305   54.0773 C   0  0  0  0  0  0  0  0  0  0  0  0
   67.8214   45.6290   52.8896 C   0  0  0  0  0  0  0  0  0  0  0  0
   67.9609   46.4065   51.7313 C   0  0  0  0  0  0  0  0  0  0  0  0
   68.6689   47.5882   51.7504 C   0  0  0  0  0  0  0  0  0  0  0  0
   69.2449   48.0008   52.9337 C   0  0  0  0  0  0  0  0  0  0  0  0
   69.0931   47.2177   54.0578 C   0  0  0  0  0  0  0  0  0  0  0  0
   67.8590   43.9137   55.3873 N   0  0  0  0  0  0  0  0  0  0  0  0
   68.2802   45.2636   55.3110 C   0  0  0  0  0  0  0  0  0  0  0  0
   68.5764   45.8265   56.3959 O   0  0  0  0  0  0  0  0  0  0  0  0
   67.0850   41.2176   55.4448 C   0  0  0  0  0  0  0  0  0  0  0  0
   67.4163   41.9832   56.6634 C   0  0  0  0  0  0  0  0  0  0  0  0
   67.7686   43.2159   56.6157 N   0  0  0  0  0  0  0  0  0  0  0  0
   67.3374   41.3063   57.9436 C   0  0  0  0  0  0  0  0  0  0  0  0
   66.4812   41.7429   58.9476 C   0  0  0  0  0  0  0  0  0  0  0  0
   66.3949   41.1120   60.1688 C   0  0  0  0  0  0  0  0  0  0  0  0
   67.1769   39.9959   60.4413 C   0  0  0  0  0  0  0  0  0  0  0  0
   68.0354   39.5437   59.4627 C   0  0  0  0  0  0  0  0  0  0  0  0
   68.0999   40.1957   58.2498 C   0  0  0  0  0  0  0  0  0  0  0  0
   70.1423   49.4888   52.9759 S   0  0  0  0  0  0  0  0  0  0  0  0
   69.7599   50.2799   51.7510 O   0  0  0  0  0  0  0  0  0  0  0  0
   71.6070   49.1361   52.9487 O   0  0  0  0  0  0  0  0  0  0  0  0
   69.8492   50.3864   54.4155 N   0  0  0  0  0  0  0  0  0  0  0  0
   68.5918   51.1288   54.3046 C   0  0  0  0  0  0  0  0  0  0  0  0
   68.7472   52.2659   55.3046 C   0  0  0  0  0  0  0  0  0  0  0  0
   70.2245   52.3170   55.6052 C   0  0  0  0  0  0  0  0  0  0  0  0
   70.8045   51.4800   54.4703 C   0  0  0  0  0  0  0  0  0  0  0  0
 10 11  1  0
 11 12  2  0
 11 13  1  0
 12  7  1  0
  7  8  1  0
  8  9  2  0
  8  1  1  0
  1  2  2  0
  1  6  1  0
  2  3  1  0
  3  4  2  0
  4  5  1  0
  5 19  1  0
  5  6  2  0
 19 20  2  0
 19 21  2  0
 19 22  1  0
 22 23  1  0
 22 26  1  0
 23 24  1  0
 24 25  1  0
 25 26  1  0
 13 14  2  0
 13 18  1  0
 14 15  1  0
 15 16  2  0
 16 17  1  0
 17 18  2  0
M  END
>  <minimizedAffinity>  (834) 
-8.51939

$$$$
data/200k_reference_output/data/smiles/22427.pdb
     RDKit          3D

 27 31  0  0  0  0  0  0  0  0999 V2000
   70.5635   50.0927   57.1023 C   0  0  0  0  0  0  0  0  0  0  0  0
   70.6025   48.6170   57.3441 C   0  0  0  0  0  0  0  0  0  0  0  0
   71.5522   47.9176   57.9526 N   0  0  0  0  0  0  0  0  0  0  0  0
   71.2447   46.6162   57.9813 N   0  0  0  0  0  0  0  0  0  0  0  0
   71.8594   45.5302   58.4694 C   0  0  0  0  0  0  0  0  0  0  0  0
   72.9687   45.6153   59.0462 O   0  0  0  0  0  0  0  0  0  0  0  0
   71.2500   44.2786   58.3308 C   0  0  0  0  0  0  0  0  0  0  0  0
   70.0363   44.1140   57.7097 C   0  0  0  0  0  0  0  0  0  0  0  0
   69.4631   45.2355   57.2395 N   0  0  0  0  0  0  0  0  0  0  0  0
   70.0598   46.4643   57.3741 C   0  0  0  0  0  0  0  0  0  0  0  0
   69.6414   47.7372   56.9639 C   0  0  0  0  0  0  0  0  0  0  0  0
   69.3841   42.7956   57.5594 C   0  0  0  0  0  0  0  0  0  0  0  0
   68.4004   42.5915   56.6169 C   0  0  0  0  0  0  0  0  0  0  0  0
   67.7916   41.3454   56.4831 C   0  0  0  0  0  0  0  0  0  0  0  0
   68.1572   40.2904   57.2867 C   0  0  0  0  0  0  0  0  0  0  0  0
   67.7959   38.9961   57.4289 N   0  0  0  0  0  0  0  0  0  0  0  0
   68.5072   38.4385   58.3932 N   0  0  0  0  0  0  0  0  0  0  0  0
   69.3375   39.3264   58.9014 N   0  0  0  0  0  0  0  0  0  0  0  0
   69.1412   40.4984   58.2276 C   0  0  0  0  0  0  0  0  0  0  0  0
   69.7281   41.7228   58.3466 C   0  0  0  0  0  0  0  0  0  0  0  0
   68.3477   47.9826   56.2429 C   0  0  0  0  0  0  0  0  0  0  0  0
   68.5490   47.5644   54.8313 C   0  0  0  0  0  0  0  0  0  0  0  0
   69.3251   48.2654   53.9337 C   0  0  0  0  0  0  0  0  0  0  0  0
   69.4973   47.8622   52.6169 C   0  0  0  0  0  0  0  0  0  0  0  0
   68.8867   46.7209   52.1447 C   0  0  0  0  0  0  0  0  0  0  0  0
   68.1074   46.0101   53.0323 C   0  0  0  0  0  0  0  0  0  0  0  0
   67.9345   46.4080   54.3403 C   0  0  0  0  0  0  0  0  0  0  0  0
  1  2  1  0
  2  3  2  0
  2 11  1  0
  3  4  1  0
  4  5  1  0
  4 10  1  0
  5  6  2  0
  5  7  1  0
  7  8  2  0
  8 12  1  0
  8  9  1  0
 12 13  2  0
 12 20  1  0
 13 14  1  0
 14 15  2  0
 15 16  1  0
 15 19  1  0
 16 17  1  0
 17 18  2  0
 18 19  1  0
 19 20  2  0
  9 10  1  0
 10 11  2  0
 11 21  1  0
 21 22  1  0
 22 23  2  0
 22 27  1  0
 23 24  1  0
 24 25  2  0
 25 26  1  0
 26 27  2  0
M  END
>  <minimizedAffinity>  (835) 
-8.51798

$$$$
data/reference_output_2/data/smiles/172888.pdb
     RDKit          3D

 29 32  0  0  0  0  0  0  0  0999 V2000
   69.9727   45.4946   57.9038 N   0  0  0  0  0  0  0  0  0  0  0  0
   69.8402   46.8755   57.6512 C   0  0  0  0  0  0  0  0  0  0  0  0
   70.6687   47.6374   58.1974 O   0  0  0  0  0  0  0  0  0  0  0  0
   70.6836   42.7711   58.3314 N   0  0  0  0  0  0  0  0  0  0  0  0
   70.4855   43.7255   59.4059 C   0  0  0  0  0  0  0  0  0  0  0  0
   71.0010   45.0107   58.7395 C   0  0  1  0  0  0  0  0  0  0  0  0
   72.2316   44.5175   58.0613 C   0  0  0  0  0  0  0  0  0  0  0  0
   71.8567   43.1589   57.6267 C   0  0  0  0  0  0  0  0  0  0  0  0
   72.4430   42.4238   56.7775 O   0  0  0  0  0  0  0  0  0  0  0  0
   69.3008   39.2992   58.3140 C   0  0  0  0  0  0  0  0  0  0  0  0
   68.1896   39.5063   57.4920 C   0  0  0  0  0  0  0  0  0  0  0  0
   67.9143   40.7519   56.9659 C   0  0  0  0  0  0  0  0  0  0  0  0
   68.7337   41.8331   57.2395 C   0  0  0  0  0  0  0  0  0  0  0  0
   69.8401   41.6537   58.0515 C   0  0  0  0  0  0  0  0  0  0  0  0
   70.0877   40.4048   58.5588 C   0  0  0  0  0  0  0  0  0  0  0  0
   70.4463   37.9901   59.9560 C   0  0  0  0  0  0  0  0  0  0  0  0
   69.5765   38.0400   58.8435 O   0  0  0  0  0  0  0  0  0  0  0  0
   68.8098   47.4510   56.8046 C   0  0  0  0  0  0  0  0  0  0  0  0
   67.6732   47.6421   57.3102 O   0  0  0  0  0  0  0  0  0  0  0  0
   69.1026   47.7883   55.4148 C   0  0  0  0  0  0  0  0  0  0  0  0
   69.8465   48.8611   54.9774 C   0  0  0  0  0  0  0  0  0  0  0  0
   70.4992   49.8901   55.8448 C   0  0  0  0  0  0  0  0  0  0  0  0
   69.8982   48.8452   53.6363 N   0  0  0  0  0  0  0  0  0  0  0  0
   69.2130   47.7951   53.1546 C   0  0  0  0  0  0  0  0  0  0  0  0
   68.9236   47.2789   51.9105 C   0  0  0  0  0  0  0  0  0  0  0  0
   68.1683   46.1432   51.7081 C   0  0  0  0  0  0  0  0  0  0  0  0
   67.6774   45.4928   52.8168 C   0  0  0  0  0  0  0  0  0  0  0  0
   67.9536   45.9892   54.0717 C   0  0  0  0  0  0  0  0  0  0  0  0
   68.7099   47.1259   54.2714 C   0  0  0  0  0  0  0  0  0  0  0  0
 16 17  1  0
 17 10  1  0
 10 11  2  0
 10 15  1  0
 11 12  1  0
 12 13  2  0
 13 14  1  0
 14  4  1  0
 14 15  2  0
  4  5  1  0
  4  8  1  0
  5  6  1  0
  6  1  1  6
  6  7  1  0
  1  2  1  0
  2  3  2  0
  2 18  1  0
 18 19  2  0
 18 20  1  0
 20 21  2  0
 20 29  1  0
 21 22  1  0
 21 23  1  0
 23 24  1  0
 24 25  1  0
 24 29  2  0
 25 26  2  0
 26 27  1  0
 27 28  2  0
 28 29  1  0
  7  8  1  0
  8  9  2  0
M  END
>  <minimizedAffinity>  (836) 
-8.51666

$$$$
data/reference_output_2/data/smiles/163998.pdb
     RDKit          3D

 27 30  0  0  0  0  0  0  0  0999 V2000
   75.2504   35.0742   55.5705 N   0  0  0  0  0  0  0  0  0  0  0  0
   73.8815   34.7405   55.6294 C   0  0  0  0  0  0  0  0  0  0  0  0
   73.3310   34.0730   54.6916 O   0  0  0  0  0  0  0  0  0  0  0  0
   73.0650   35.1562   56.7739 C   0  0  0  0  0  0  0  0  0  0  0  0
   72.6338   34.1773   57.6895 C   0  0  0  0  0  0  0  0  0  0  0  0
   71.8677   34.5010   58.7801 C   0  0  0  0  0  0  0  0  0  0  0  0
   71.5069   35.8146   58.9903 C   0  0  0  0  0  0  0  0  0  0  0  0
   71.9021   36.8249   58.1226 C   0  0  0  0  0  0  0  0  0  0  0  0
   72.6758   36.4359   57.0384 C   0  0  0  0  0  0  0  0  0  0  0  0
   71.5206   38.1544   58.3606 N   0  0  0  0  0  0  0  0  0  0  0  0
   72.3189   39.1451   58.7675 C   0  0  0  0  0  0  0  0  0  0  0  0
   71.5765   40.2885   58.8843 N   0  0  0  0  0  0  0  0  0  0  0  0
   70.3426   39.9894   58.5529 N   0  0  0  0  0  0  0  0  0  0  0  0
   70.2969   38.6679   58.2261 C   0  0  0  0  0  0  0  0  0  0  0  0
   76.1017   34.7268   54.4846 C   0  0  0  0  0  0  0  0  0  0  0  0
   76.4012   35.7354   53.4545 C   0  0  0  0  0  0  0  0  0  0  0  0
   77.8747   34.7871   46.2228 C   0  0  0  0  0  0  0  0  0  0  0  0
   77.2599   34.6585   47.5762 C   0  0  0  0  0  0  0  0  0  0  0  0
   77.7135   35.3710   48.6644 C   0  0  0  0  0  0  0  0  0  0  0  0
   77.1331   35.2480   49.9318 C   0  0  0  0  0  0  0  0  0  0  0  0
   77.3736   35.8062   51.1219 N   0  0  0  0  0  0  0  0  0  0  0  0
   76.5228   35.3512   52.0537 C   0  0  0  0  0  0  0  0  0  0  0  0
   75.7159   34.4637   51.3997 N   0  0  0  0  0  0  0  0  0  0  0  0
   76.0791   34.3963   50.1179 C   0  0  0  0  0  0  0  0  0  0  0  0
   75.6192   33.6738   49.0111 C   0  0  0  0  0  0  0  0  0  0  0  0
   76.1968   33.8017   47.7647 C   0  0  0  0  0  0  0  0  0  0  0  0
   75.6762   33.0145   46.6180 C   0  0  0  0  0  0  0  0  0  0  0  0
 17 18  1  0
 18 19  2  0
 18 26  1  0
 19 20  1  0
 20 21  1  0
 20 24  2  0
 21 22  2  0
 22 16  1  0
 22 23  1  0
 16 15  1  0
 15  1  1  0
  1  2  1  0
  2  3  2  0
  2  4  1  0
  4  5  2  0
  4  9  1  0
  5  6  1  0
  6  7  2  0
  7  8  1  0
  8 10  1  0
  8  9  2  0
 10 11  1  0
 10 14  1  0
 11 12  2  0
 12 13  1  0
 13 14  2  0
 23 24  1  0
 24 25  1  0
 25 26  2  0
 26 27  1  0
M  CHG  1  21   1
M  END
>  <minimizedAffinity>  (837) 
-8.51620

$$$$
data/200k_reference_output/data/smiles/50278.pdb
     RDKit          3D

 29 32  0  0  0  0  0  0  0  0999 V2000
   70.9237   42.0435   58.5589 C   0  0  0  0  0  0  0  0  0  0  0  0
   71.0613   43.3371   58.5061 C   0  0  0  0  0  0  0  0  0  0  0  0
   70.2784   44.2533   57.6839 C   0  0  0  0  0  0  0  0  0  0  0  0
   70.4214   45.6182   57.8178 C   0  0  0  0  0  0  0  0  0  0  0  0
   69.6761   46.4864   57.0391 C   0  0  0  0  0  0  0  0  0  0  0  0
   68.7957   46.0745   56.1347 N   0  0  0  0  0  0  0  0  0  0  0  0
   68.6520   44.7236   55.9986 C   0  0  0  0  0  0  0  0  0  0  0  0
   69.3709   43.8149   56.7513 C   0  0  0  0  0  0  0  0  0  0  0  0
   67.9731   46.9109   55.2915 C   0  0  0  0  0  0  0  0  0  0  0  0
   68.6644   47.2573   54.0316 C   0  0  0  0  0  0  0  0  0  0  0  0
   69.5447   48.3496   53.9843 C   0  0  0  0  0  0  0  0  0  0  0  0
   70.2216   48.7038   52.8360 C   0  0  0  0  0  0  0  0  0  0  0  0
   70.0555   47.9841   51.6701 C   0  0  0  0  0  0  0  0  0  0  0  0
   69.1954   46.9116   51.7036 C   0  0  0  0  0  0  0  0  0  0  0  0
   68.5061   46.5502   52.8713 C   0  0  0  0  0  0  0  0  0  0  0  0
   67.6625   45.4936   52.8472 F   0  0  0  0  0  0  0  0  0  0  0  0
   72.5938   41.7132   60.1812 O   0  0  0  0  0  0  0  0  0  0  0  0
   71.7372   41.1780   59.4015 C   0  0  0  0  0  0  0  0  0  0  0  0
   71.6136   39.7270   59.3929 C   0  0  0  0  0  0  0  0  0  0  0  0
   72.2363   38.9081   58.4765 C   0  0  0  0  0  0  0  0  0  0  0  0
   72.0773   37.5308   58.5214 C   0  0  0  0  0  0  0  0  0  0  0  0
   72.6864   36.6882   57.6200 C   0  0  0  0  0  0  0  0  0  0  0  0
   72.5130   35.3075   57.6813 C   0  0  0  0  0  0  0  0  0  0  0  0
   71.7217   34.7340   58.6538 C   0  0  0  0  0  0  0  0  0  0  0  0
   71.1130   35.5823   59.5548 C   0  0  0  0  0  0  0  0  0  0  0  0
   71.2844   36.9662   59.4962 C   0  0  0  0  0  0  0  0  0  0  0  0
   70.7064   37.7704   60.3507 O   0  0  0  0  0  0  0  0  0  0  0  0
   70.8357   39.0799   60.3372 C   0  0  0  0  0  0  0  0  0  0  0  0
   70.2510   39.8176   61.1939 O   0  0  0  0  0  0  0  0  0  0  0  0
 17 18  2  0
 18  1  1  0
 18 19  1  0
  1  2  2  0
  2  3  1  0
  3  4  2  0
  3  8  1  0
  4  5  1  0
  5  6  2  0
  6  9  1  0
  6  7  1  0
  9 10  1  0
 10 11  2  0
 10 15  1  0
 11 12  1  0
 12 13  2  0
 13 14  1  0
 14 15  2  0
 15 16  1  0
  7  8  2  0
 19 20  2  0
 19 28  1  0
 20 21  1  0
 21 22  2  0
 21 26  1  0
 22 23  1  0
 23 24  2  0
 24 25  1  0
 25 26  2  0
 26 27  1  0
 27 28  1  0
 28 29  2  0
M  CHG  1   6   1
M  END
>  <minimizedAffinity>  (838) 
-8.51597

$$$$
data/200k_reference_output/data/smiles/63571.pdb
     RDKit          3D

 27 29  0  0  0  0  0  0  0  0999 V2000
   69.1902   49.2542   56.5782 C   0  0  0  0  0  0  0  0  0  0  0  0
   68.5846   50.4995   56.6476 C   0  0  0  0  0  0  0  0  0  0  0  0
   68.7991   51.2935   57.7500 C   0  0  0  0  0  0  0  0  0  0  0  0
   69.5807   50.9102   58.7775 N   0  0  0  0  0  0  0  0  0  0  0  0
   70.1823   49.7097   58.7430 C   0  0  0  0  0  0  0  0  0  0  0  0
   69.9831   48.8923   57.6449 C   0  0  0  0  0  0  0  0  0  0  0  0
   70.7681   47.6268   57.8729 C   0  0  0  0  0  0  0  0  0  0  0  0
   71.7497   48.0486   58.9473 C   0  0  1  0  0  0  0  0  0  0  0  0
   71.0385   49.0541   59.6525 O   0  0  0  0  0  0  0  0  0  0  0  0
   69.2287   47.7378   53.0986 C   0  0  0  0  0  0  0  0  0  0  0  0
   68.5296   46.5747   53.3280 C   0  0  0  0  0  0  0  0  0  0  0  0
   68.0588   46.3024   54.5914 C   0  0  0  0  0  0  0  0  0  0  0  0
   68.2861   47.1968   55.6406 C   0  0  0  0  0  0  0  0  0  0  0  0
   68.9913   48.3778   55.4281 C   0  0  0  0  0  0  0  0  0  0  0  0
   69.4498   48.6264   54.1590 C   0  0  0  0  0  0  0  0  0  0  0  0
   70.0153   49.4038   51.3956 N   0  0  0  0  0  0  0  0  0  0  0  0
   69.7437   48.0615   51.7723 C   0  0  0  0  0  0  0  0  0  0  0  0
   69.9510   47.1362   50.9483 O   0  0  0  0  0  0  0  0  0  0  0  0
   72.0096   46.8675   59.8273 C   0  0  0  0  0  0  0  0  0  0  0  0
   71.8546   46.9338   61.0743 O   0  0  0  0  0  0  0  0  0  0  0  0
   72.4383   45.6610   59.2258 N   0  0  0  0  0  0  0  0  0  0  0  0
   72.7115   44.4759   59.9932 C   0  0  0  0  0  0  0  0  0  0  0  0
   72.0013   43.2643   59.4869 C   0  0  0  0  0  0  0  0  0  0  0  0
   71.9355   43.2097   57.9774 C   0  0  0  0  0  0  0  0  0  0  0  0
   73.1343   43.5692   57.4000 F   0  0  0  0  0  0  0  0  0  0  0  0
   70.8915   43.9947   57.5277 F   0  0  0  0  0  0  0  0  0  0  0  0
   71.6863   41.9032   57.5933 F   0  0  0  0  0  0  0  0  0  0  0  0
 16 17  1  0
 17 18  2  0
 17 10  1  0
 10 11  2  0
 10 15  1  0
 11 12  1  0
 12 13  2  0
 13 14  1  0
 14  1  1  0
 14 15  2  0
  1  2  2  0
  1  6  1  0
  2  3  1  0
  3  4  2  0
  4  5  1  0
  5  6  2  0
  5  9  1  0
  6  7  1  0
  7  8  1  0
  8 19  1  1
  8  9  1  0
 19 20  2  0
 19 21  1  0
 21 22  1  0
 22 23  1  0
 23 24  1  0
 24 25  1  0
 24 26  1  0
 24 27  1  0
M  END
>  <minimizedAffinity>  (839) 
-8.51561

$$$$
data/reference_output_2/data/smiles/128135.pdb
     RDKit          3D

 27 29  0  0  0  0  0  0  0  0999 V2000
   68.3586   45.8606   54.1583 C   0  0  0  0  0  0  0  0  0  0  0  0
   67.7232   45.3886   53.0157 C   0  0  0  0  0  0  0  0  0  0  0  0
   67.7649   46.0326   51.8078 C   0  0  0  0  0  0  0  0  0  0  0  0
   68.4620   47.1976   51.7137 C   0  0  0  0  0  0  0  0  0  0  0  0
   69.1179   47.7265   52.8040 C   0  0  0  0  0  0  0  0  0  0  0  0
   69.0529   47.0433   54.0170 C   0  0  0  0  0  0  0  0  0  0  0  0
   67.8384   43.7963   55.5090 N   0  0  0  0  0  0  0  0  0  0  0  0
   68.2782   45.1286   55.4185 C   0  0  0  0  0  0  0  0  0  0  0  0
   68.6194   45.7187   56.4750 O   0  0  0  0  0  0  0  0  0  0  0  0
   67.0533   41.2137   55.4050 C   0  0  0  0  0  0  0  0  0  0  0  0
   67.3888   41.8558   56.6923 C   0  0  0  0  0  0  0  0  0  0  0  0
   67.7703   43.1083   56.7474 N   0  0  0  0  0  0  0  0  0  0  0  0
   67.2889   41.0681   57.9137 C   0  0  0  0  0  0  0  0  0  0  0  0
   66.5845   41.5665   58.9809 C   0  0  0  0  0  0  0  0  0  0  0  0
   66.4629   40.8676   60.1462 C   0  0  0  0  0  0  0  0  0  0  0  0
   67.0546   39.6291   60.2708 C   0  0  0  0  0  0  0  0  0  0  0  0
   67.7557   39.1401   59.1986 C   0  0  0  0  0  0  0  0  0  0  0  0
   67.8821   39.8319   58.0337 C   0  0  0  0  0  0  0  0  0  0  0  0
   70.0099   49.2255   52.6620 S   0  0  0  0  0  0  0  0  0  0  0  0
   69.6397   49.8660   51.3640 O   0  0  0  0  0  0  0  0  0  0  0  0
   71.4811   48.9391   52.6847 O   0  0  0  0  0  0  0  0  0  0  0  0
   69.5876   50.2802   53.9529 N   0  0  0  0  0  0  0  0  0  0  0  0
   70.4434   50.0625   55.1044 C   0  0  0  0  0  0  0  0  0  0  0  0
   70.3228   51.1538   56.1281 C   0  0  0  0  0  0  0  0  0  0  0  0
   69.2957   52.0254   55.9351 O   0  0  0  0  0  0  0  0  0  0  0  0
   69.0817   52.4722   54.6737 C   0  0  0  0  0  0  0  0  0  0  0  0
   69.7631   51.6731   53.5838 C   0  0  0  0  0  0  0  0  0  0  0  0
 10 11  1  0
 11 12  2  0
 11 13  1  0
 12  7  1  0
  7  8  1  0
  8  9  2  0
  8  1  1  0
  1  2  2  0
  1  6  1  0
  2  3  1  0
  3  4  2  0
  4  5  1  0
  5 19  1  0
  5  6  2  0
 19 20  2  0
 19 21  2  0
 19 22  1  0
 22 23  1  0
 22 27  1  0
 23 24  1  0
 24 25  1  0
 25 26  1  0
 26 27  1  0
 13 14  2  0
 13 18  1  0
 14 15  1  0
 15 16  2  0
 16 17  1  0
 17 18  2  0
M  END
>  <minimizedAffinity>  (840) 
-8.51488

$$$$
data/200k_reference_output/data/smiles/47172.pdb
     RDKit          3D

 26 28  0  0  0  0  0  0  0  0999 V2000
   71.0040   50.4287   54.5289 C   0  0  2  0  0  0  0  0  0  0  0  0
   70.8426   49.7720   53.3148 O   0  0  0  0  0  0  0  0  0  0  0  0
   70.0125   48.6807   53.1605 C   0  0  0  0  0  0  0  0  0  0  0  0
   69.8295   48.1831   51.8682 C   0  0  0  0  0  0  0  0  0  0  0  0
   69.0086   47.0996   51.6780 C   0  0  0  0  0  0  0  0  0  0  0  0
   68.3523   46.4785   52.7229 C   0  0  0  0  0  0  0  0  0  0  0  0
   67.4736   45.3081   52.4202 C   0  0  0  0  0  0  0  0  0  0  0  0
   68.5346   46.9663   53.9779 C   0  0  0  0  0  0  0  0  0  0  0  0
   69.3487   48.0508   54.2194 C   0  0  0  0  0  0  0  0  0  0  0  0
   69.5493   48.5788   55.5255 N   0  0  0  0  0  0  0  0  0  0  0  0
   70.4031   49.7106   55.6760 C   0  0  0  0  0  0  0  0  0  0  0  0
   70.6996   50.1731   56.8301 O   0  0  0  0  0  0  0  0  0  0  0  0
   69.0036   51.9365   54.6124 C   0  0  0  0  0  0  0  0  0  0  0  0
   70.4671   51.8333   54.3556 C   0  0  0  0  0  0  0  0  0  0  0  0
   68.9097   47.9717   56.6278 C   0  0  0  0  0  0  0  0  0  0  0  0
   69.6399   46.8941   57.3253 C   0  0  0  0  0  0  0  0  0  0  0  0
   70.3851   47.2907   58.2588 O   0  0  0  0  0  0  0  0  0  0  0  0
   69.5692   45.5386   57.0410 N   0  0  0  0  0  0  0  0  0  0  0  0
   70.2918   44.4985   57.7254 C   0  0  0  0  0  0  0  0  0  0  0  0
   69.5968   43.1935   57.5117 C   0  0  0  0  0  0  0  0  0  0  0  0
   70.0571   42.1049   58.2676 C   0  0  0  0  0  0  0  0  0  0  0  0
   69.4982   40.8563   58.1406 C   0  0  0  0  0  0  0  0  0  0  0  0
   68.4576   40.7019   57.2379 C   0  0  0  0  0  0  0  0  0  0  0  0
   67.9130   39.4611   57.1213 F   0  0  0  0  0  0  0  0  0  0  0  0
   68.0100   41.7736   56.4975 C   0  0  0  0  0  0  0  0  0  0  0  0
   68.5638   43.0357   56.6150 C   0  0  0  0  0  0  0  0  0  0  0  0
 13 14  1  0
  1 14  1  6
  1  2  1  0
  1 11  1  0
  2  3  1  0
  3  4  1  0
  3  9  2  0
  4  5  2  0
  5  6  1  0
  6  7  1  0
  6  8  2  0
  8  9  1  0
  9 10  1  0
 10 15  1  0
 10 11  1  0
 15 16  1  0
 16 17  2  0
 16 18  1  0
 18 19  1  0
 19 20  1  0
 20 21  2  0
 20 26  1  0
 21 22  1  0
 22 23  2  0
 23 24  1  0
 23 25  1  0
 25 26  2  0
 11 12  2  0
M  END
>  <minimizedAffinity>  (841) 
-8.51379

$$$$
data/reference_output_2/data/smiles/196885.pdb
     RDKit          3D

 26 29  0  0  0  0  0  0  0  0999 V2000
   68.9879   42.7474   57.1267 C   0  0  0  0  0  0  0  0  0  0  0  0
   68.3328   42.5849   58.3997 N   0  0  0  0  0  0  0  0  0  0  0  0
   67.4364   41.4855   58.4753 C   0  0  0  0  0  0  0  0  0  0  0  0
   68.1052   40.1470   58.2383 C   0  0  0  0  0  0  0  0  0  0  0  0
   69.3656   40.0933   58.9333 N   0  0  0  0  0  0  0  0  0  0  0  0
   69.9390   41.1820   59.6562 C   0  0  0  0  0  0  0  0  0  0  0  0
   69.3207   42.5129   59.4272 C   0  0  0  0  0  0  0  0  0  0  0  0
   70.1001   38.8561   58.8937 C   0  0  0  0  0  0  0  0  0  0  0  0
   71.1509   38.6504   58.0242 C   0  0  0  0  0  0  0  0  0  0  0  0
   71.8542   37.4414   57.9902 C   0  0  0  0  0  0  0  0  0  0  0  0
   71.5063   36.4116   58.8408 C   0  0  0  0  0  0  0  0  0  0  0  0
   72.3773   34.8846   58.8138 Cl  0  0  0  0  0  0  0  0  0  0  0  0
   70.4593   36.6001   59.7163 C   0  0  0  0  0  0  0  0  0  0  0  0
   69.7844   37.8027   59.7262 C   0  0  0  0  0  0  0  0  0  0  0  0
   68.0871   43.1828   56.0325 C   0  0  0  0  0  0  0  0  0  0  0  0
   68.0163   44.5586   55.9096 O   0  0  0  0  0  0  0  0  0  0  0  0
   70.0810   49.8719   51.6649 O   0  0  0  0  0  0  0  0  0  0  0  0
   69.6266   48.8468   52.2532 C   0  0  0  0  0  0  0  0  0  0  0  0
   68.9183   47.8751   51.6455 N   0  0  0  0  0  0  0  0  0  0  0  0
   68.6061   46.9534   52.5736 C   0  0  0  0  0  0  0  0  0  0  0  0
   67.9038   45.7677   52.5096 C   0  0  0  0  0  0  0  0  0  0  0  0
   67.7384   45.0193   53.6344 C   0  0  0  0  0  0  0  0  0  0  0  0
   68.2596   45.4060   54.8822 C   0  0  0  0  0  0  0  0  0  0  0  0
   68.9501   46.5826   54.9165 C   0  0  0  0  0  0  0  0  0  0  0  0
   69.1304   47.3654   53.7693 C   0  0  0  0  0  0  0  0  0  0  0  0
   69.7528   48.5302   53.5489 N   0  0  0  0  0  0  0  0  0  0  0  0
 17 18  2  0
 18 19  1  0
 18 26  1  0
 19 20  1  0
 20 21  2  0
 20 25  1  0
 21 22  1  0
 22 23  2  0
 23 16  1  0
 23 24  1  0
 16 15  1  0
 15  1  1  0
  1  2  1  0
  2  3  1  0
  2  7  1  0
  3  4  1  0
  4  5  1  0
  5  8  1  0
  5  6  1  0
  8  9  2  0
  8 14  1  0
  9 10  1  0
 10 11  2  0
 11 12  1  0
 11 13  1  0
 13 14  2  0
  6  7  1  0
 24 25  2  0
 25 26  1  0
M  CHG  2   2   1  19   1
M  END
>  <minimizedAffinity>  (842) 
-8.51244

$$$$
data/200k_reference_output/data/smiles/21502.pdb
     RDKit          3D

 28 32  0  0  0  0  0  0  0  0999 V2000
   77.5989   36.2520   53.6985 N   0  0  0  0  0  0  0  0  0  0  0  0
   77.0550   35.6137   52.5252 C   0  0  0  0  0  0  0  0  0  0  0  0
   75.9748   34.8996   52.7107 C   0  0  0  0  0  0  0  0  0  0  0  0
   75.3797   34.7894   54.0849 C   0  0  0  0  0  0  0  0  0  0  0  0
   76.0823   34.9859   55.0883 O   0  0  0  0  0  0  0  0  0  0  0  0
   73.9888   34.4558   54.1898 N   0  0  0  0  0  0  0  0  0  0  0  0
   73.2640   34.2500   52.9900 C   0  0  0  0  0  0  0  0  0  0  0  0
   72.0514   33.9482   53.0863 O   0  0  0  0  0  0  0  0  0  0  0  0
   73.8297   34.3657   51.6303 C   0  0  0  0  0  0  0  0  0  0  0  0
   75.3256   34.1889   51.6090 C   0  0  1  0  0  0  0  0  0  0  0  0
   75.9595   34.3691   50.3295 C   0  0  0  0  0  0  0  0  0  0  0  0
   75.4554   33.7671   49.1694 C   0  0  0  0  0  0  0  0  0  0  0  0
   76.0680   33.9321   47.9573 C   0  0  0  0  0  0  0  0  0  0  0  0
   77.2049   34.6917   47.7981 C   0  0  0  0  0  0  0  0  0  0  0  0
   77.7011   35.2831   48.9331 C   0  0  0  0  0  0  0  0  0  0  0  0
   77.0899   35.1286   50.1926 C   0  0  0  0  0  0  0  0  0  0  0  0
   77.6655   35.7697   51.2929 O   0  0  0  0  0  0  0  0  0  0  0  0
   73.3230   34.3046   55.4491 C   0  0  0  0  0  0  0  0  0  0  0  0
   73.1977   35.5707   56.2469 C   0  0  0  0  0  0  0  0  0  0  0  0
   72.4696   35.4587   57.5066 C   0  0  0  0  0  0  0  0  0  0  0  0
   72.3414   34.2768   58.2455 C   0  0  0  0  0  0  0  0  0  0  0  0
   71.5947   34.5286   59.3247 N   0  0  0  0  0  0  0  0  0  0  0  0
   71.2327   35.8282   59.3176 C   0  0  0  0  0  0  0  0  0  0  0  0
   70.4822   36.5906   60.1896 C   0  0  0  0  0  0  0  0  0  0  0  0
   70.2328   37.9423   59.9977 C   0  0  0  0  0  0  0  0  0  0  0  0
   70.7792   38.5108   58.8686 C   0  0  0  0  0  0  0  0  0  0  0  0
   71.5340   37.7794   57.9769 C   0  0  0  0  0  0  0  0  0  0  0  0
   71.7674   36.4204   58.1959 C   0  0  0  0  0  0  0  0  0  0  0  0
  1  2  1  0
  2  3  2  0
  2 17  1  0
  3  4  1  0
  3 10  1  0
  4  5  2  0
  4  6  1  0
  6 18  1  0
  6  7  1  0
 18 19  1  0
 19 20  1  0
 20 21  2  0
 20 28  1  0
 21 22  1  0
 22 23  1  0
 23 24  1  0
 23 28  2  0
 24 25  2  0
 25 26  1  0
 26 27  2  0
 27 28  1  0
  7  8  2  0
  7  9  1  0
 10  9  1  6
 10 11  1  0
 11 12  1  0
 11 16  2  0
 12 13  2  0
 13 14  1  0
 14 15  2  0
 15 16  1  0
 16 17  1  0
M  END
>  <minimizedAffinity>  (843) 
-8.51216

$$$$
data/reference_output_2/data/smiles/189559.pdb
     RDKit          3D

 25 27  0  0  0  0  0  0  0  0999 V2000
   71.2596   47.2032   58.9375 S   0  0  0  0  0  0  0  0  0  0  0  0
   71.4092   47.3744   60.4341 O   0  0  0  0  0  0  0  0  0  0  0  0
   72.4551   46.3999   58.4560 O   0  0  0  0  0  0  0  0  0  0  0  0
   71.2349   48.7698   58.1932 C   0  0  0  0  0  0  0  0  0  0  0  0
   72.3894   49.3216   57.6786 C   0  0  0  0  0  0  0  0  0  0  0  0
   72.3697   50.5696   57.0905 C   0  0  0  0  0  0  0  0  0  0  0  0
   71.1924   51.2538   57.0224 C   0  0  0  0  0  0  0  0  0  0  0  0
   71.1539   52.5186   56.4297 C   0  0  0  0  0  0  0  0  0  0  0  0
   69.9923   53.2555   56.3335 C   0  0  0  0  0  0  0  0  0  0  0  0
   68.8337   52.7024   56.8491 C   0  0  0  0  0  0  0  0  0  0  0  0
   68.8315   51.4577   57.4405 C   0  0  0  0  0  0  0  0  0  0  0  0
   70.0009   50.7362   57.5274 C   0  0  0  0  0  0  0  0  0  0  0  0
   70.0653   49.4789   58.1113 C   0  0  0  0  0  0  0  0  0  0  0  0
   69.7870   46.3895   58.5571 N   0  0  0  0  0  0  0  0  0  0  0  0
   68.6500   46.8004   56.3973 C   0  0  0  0  0  0  0  0  0  0  0  0
   67.7370   47.3914   57.0254 O   0  0  0  0  0  0  0  0  0  0  0  0
   69.7216   46.2725   57.1524 N   0  0  0  0  0  0  0  0  0  0  0  0
   69.1006   47.5310   52.7498 C   0  0  0  0  0  0  0  0  0  0  0  0
   68.4324   46.4942   52.1456 C   0  0  0  0  0  0  0  0  0  0  0  0
   67.8212   45.5349   52.9236 C   0  0  0  0  0  0  0  0  0  0  0  0
   67.9051   45.6552   54.3041 C   0  0  0  0  0  0  0  0  0  0  0  0
   68.5676   46.6837   54.9317 C   0  0  0  0  0  0  0  0  0  0  0  0
   69.1740   47.6353   54.1243 C   0  0  0  0  0  0  0  0  0  0  0  0
   70.2182   49.3130   51.2173 N   0  0  0  0  0  0  0  0  0  0  0  0
   69.7256   48.5124   51.9120 C   0  0  0  0  0  0  0  0  0  0  0  0
 24 25  3  0
 25 18  1  0
 18 19  2  0
 18 23  1  0
 19 20  1  0
 20 21  2  0
 21 22  1  0
 22 15  1  0
 22 23  2  0
 15 16  2  0
 15 17  1  0
 17 14  1  0
 14  1  1  0
  1  2  2  0
  1  3  2  0
  1  4  1  0
  4  5  2  0
  4 13  1  0
  5  6  1  0
  6  7  2  0
  7  8  1  0
  7 12  1  0
  8  9  2  0
  9 10  1  0
 10 11  2  0
 11 12  1  0
 12 13  2  0
M  END
>  <minimizedAffinity>  (844) 
-8.51153

$$$$
data/200k_reference_output/data/smiles/46336.pdb
     RDKit          3D

 28 30  0  0  0  0  0  0  0  0999 V2000
   68.8812   45.3281   56.0379 C   0  0  0  0  0  0  0  0  0  0  0  0
   69.8320   45.5997   57.0000 C   0  0  0  0  0  0  0  0  0  0  0  0
   70.2340   44.6362   57.9016 C   0  0  0  0  0  0  0  0  0  0  0  0
   69.6950   43.3653   57.8701 C   0  0  0  0  0  0  0  0  0  0  0  0
   70.0773   42.3757   58.7607 C   0  0  0  0  0  0  0  0  0  0  0  0
   69.5344   41.1079   58.7237 C   0  0  0  0  0  0  0  0  0  0  0  0
   68.5843   40.8589   57.7530 C   0  0  0  0  0  0  0  0  0  0  0  0
   68.2059   41.8491   56.8661 C   0  0  0  0  0  0  0  0  0  0  0  0
   68.7461   43.1190   56.8983 C   0  0  0  0  0  0  0  0  0  0  0  0
   68.3742   44.0826   56.0310 N   0  0  0  0  0  0  0  0  0  0  0  0
   69.2930   46.8238   54.0404 N   0  0  0  0  0  0  0  0  0  0  0  0
   68.4496   46.3493   55.0769 C   0  0  0  0  0  0  0  0  0  0  0  0
   67.3047   46.8243   55.1641 O   0  0  0  0  0  0  0  0  0  0  0  0
   68.9169   47.8174   53.0814 C   0  0  0  0  0  0  0  0  0  0  0  0
   71.1274   48.9986   52.6084 N   0  0  0  0  0  0  0  0  0  0  0  0
   70.0735   48.1228   52.2019 C   0  0  0  0  0  0  0  0  0  0  0  0
   70.1661   47.6133   51.0550 O   0  0  0  0  0  0  0  0  0  0  0  0
   69.9271   40.1258   59.6224 O   0  0  0  0  0  0  0  0  0  0  0  0
   70.5622   38.9559   59.2169 C   0  0  0  0  0  0  0  0  0  0  0  0
   71.6019   38.9367   58.3130 C   0  0  0  0  0  0  0  0  0  0  0  0
   72.2116   37.7577   57.9314 C   0  0  0  0  0  0  0  0  0  0  0  0
   71.7504   36.5920   58.4805 C   0  0  0  0  0  0  0  0  0  0  0  0
   70.7138   36.6276   59.3785 C   0  0  0  0  0  0  0  0  0  0  0  0
   70.1409   37.7884   59.7314 N   0  0  0  0  0  0  0  0  0  0  0  0
   72.3923   35.3073   58.0828 C   0  0  0  0  0  0  0  0  0  0  0  0
   72.5157   35.2065   56.7187 F   0  0  0  0  0  0  0  0  0  0  0  0
   73.6072   35.1936   58.7262 F   0  0  0  0  0  0  0  0  0  0  0  0
   71.5568   34.2891   58.5016 F   0  0  0  0  0  0  0  0  0  0  0  0
 15 16  1  0
 16 17  2  0
 16 14  1  0
 14 11  1  0
 11 12  1  0
 12 13  2  0
 12  1  1  0
  1  2  2  0
  1 10  1  0
  2  3  1  0
  3  4  2  0
  4  5  1  0
  4  9  1  0
  5  6  2  0
  6 18  1  0
  6  7  1  0
 18 19  1  0
 19 20  2  0
 19 24  1  0
 20 21  1  0
 21 22  2  0
 22 25  1  0
 22 23  1  0
 25 26  1  0
 25 27  1  0
 25 28  1  0
 23 24  2  0
  7  8  2  0
  8  9  1  0
  9 10  2  0
M  END
>  <minimizedAffinity>  (845) 
-8.51112

$$$$
data/reference_output_2/data/smiles/110444.pdb
     RDKit          3D

 25 28  0  0  0  0  0  0  0  0999 V2000
   68.5436   47.0955   56.0101 C   0  0  2  0  0  0  0  0  0  0  0  0
   68.4047   45.7320   55.9227 O   0  0  0  0  0  0  0  0  0  0  0  0
   66.7735   45.1549   50.6686 O   0  0  0  0  0  0  0  0  0  0  0  0
   67.4452   45.8904   51.4469 C   0  0  0  0  0  0  0  0  0  0  0  0
   68.3386   46.8653   51.2549 N   0  0  0  0  0  0  0  0  0  0  0  0
   68.8795   47.4573   52.2924 C   0  0  0  0  0  0  0  0  0  0  0  0
   69.8372   48.5006   52.2324 C   0  0  0  0  0  0  0  0  0  0  0  0
   70.3087   49.0131   51.0327 O   0  0  0  0  0  0  0  0  0  0  0  0
   70.3390   49.0463   53.3837 C   0  0  0  0  0  0  0  0  0  0  0  0
   69.9712   48.6465   54.6507 C   0  0  0  0  0  0  0  0  0  0  0  0
   69.0458   47.6386   54.7250 C   0  0  0  0  0  0  0  0  0  0  0  0
   68.5320   47.0789   53.5259 C   0  0  0  0  0  0  0  0  0  0  0  0
   67.3729   45.8132   53.2774 S   0  0  0  0  0  0  0  0  0  0  0  0
   69.4484   47.5026   57.1705 C   0  0  0  0  0  0  0  0  0  0  0  0
   69.5098   46.4787   58.1592 N   0  0  0  0  0  0  0  0  0  0  0  0
   70.8105   46.1729   58.6604 C   0  0  2  0  0  0  0  0  0  0  0  0
   71.8183   47.0760   57.9493 C   0  0  0  0  0  0  0  0  0  0  0  0
   73.1822   46.9568   58.5963 C   0  0  0  0  0  0  0  0  0  0  0  0
   73.3175   45.6928   59.4244 C   0  0  0  0  0  0  0  0  0  0  0  0
   72.5919   44.5550   58.7492 C   0  0  0  0  0  0  0  0  0  0  0  0
   73.1453   43.3394   58.5141 C   0  0  0  0  0  0  0  0  0  0  0  0
   72.4207   42.3609   57.8648 C   0  0  0  0  0  0  0  0  0  0  0  0
   71.1267   42.6159   57.4499 C   0  0  0  0  0  0  0  0  0  0  0  0
   70.5328   43.8664   57.6819 C   0  0  0  0  0  0  0  0  0  0  0  0
   71.2790   44.7980   58.3232 C   0  0  0  0  0  0  0  0  0  0  0  0
  3  4  2  0
  4  5  1  0
  4 13  1  0
  5  6  1  0
  6  7  2  0
  6 12  1  0
  7  8  1  0
  7  9  1  0
  9 10  2  0
 10 11  1  0
 11  1  1  0
 11 12  2  0
  1  2  1  6
  1 14  1  0
 14 15  1  0
 16 15  1  6
 16 17  1  0
 16 25  1  0
 17 18  1  0
 18 19  1  0
 19 20  1  0
 20 21  2  0
 20 25  1  0
 21 22  1  0
 22 23  2  0
 23 24  1  0
 24 25  2  0
 12 13  1  0
M  CHG  1  15   1
M  END
>  <minimizedAffinity>  (846) 
-8.51037

$$$$
data/200k_reference_output/data/smiles/71393.pdb
     RDKit          3D

 28 31  0  0  0  0  0  0  0  0999 V2000
   70.2922   49.3595   53.7236 C   0  0  0  0  0  0  0  0  0  0  0  0
   69.8212   48.9241   54.9408 C   0  0  0  0  0  0  0  0  0  0  0  0
   68.9838   47.8507   55.0676 N   0  0  0  0  0  0  0  0  0  0  0  0
   68.6167   47.2063   53.9553 C   0  0  0  0  0  0  0  0  0  0  0  0
   67.7842   46.1123   54.0402 C   0  0  0  0  0  0  0  0  0  0  0  0
   67.4388   45.4721   52.8641 C   0  0  0  0  0  0  0  0  0  0  0  0
   67.8852   45.8747   51.6299 C   0  0  0  0  0  0  0  0  0  0  0  0
   68.7201   46.9682   51.5347 C   0  0  0  0  0  0  0  0  0  0  0  0
   69.0731   47.6152   52.6957 C   0  0  0  0  0  0  0  0  0  0  0  0
   69.9161   48.6978   52.5669 C   0  0  0  0  0  0  0  0  0  0  0  0
   70.3400   49.0841   51.4344 O   0  0  0  0  0  0  0  0  0  0  0  0
   70.7678   51.6318   53.2530 O   0  0  0  0  0  0  0  0  0  0  0  0
   71.1858   50.5060   53.5958 C   0  0  0  0  0  0  0  0  0  0  0  0
   72.5452   50.3715   53.8578 O   0  0  0  0  0  0  0  0  0  0  0  0
   68.5358   47.5143   56.3815 C   0  0  0  0  0  0  0  0  0  0  0  0
   69.5830   46.8691   57.2214 C   0  0  0  0  0  0  0  0  0  0  0  0
   70.3756   47.5571   58.0895 C   0  0  0  0  0  0  0  0  0  0  0  0
   71.3647   46.9263   58.8703 C   0  0  0  0  0  0  0  0  0  0  0  0
   71.5808   45.5702   58.7936 C   0  0  0  0  0  0  0  0  0  0  0  0
   70.7769   44.8800   57.9156 C   0  0  0  0  0  0  0  0  0  0  0  0
   69.7970   45.5008   57.1416 C   0  0  0  0  0  0  0  0  0  0  0  0
   72.5882   44.9340   59.5919 N   0  0  0  0  0  0  0  0  0  0  0  0
   73.9569   44.7096   59.2899 C   0  0  0  0  0  0  0  0  0  0  0  0
   74.5587   45.0418   58.2275 O   0  0  0  0  0  0  0  0  0  0  0  0
   74.6183   44.0162   60.4074 C   0  0  0  0  0  0  0  0  0  0  0  0
   73.7123   43.8278   61.3330 C   0  0  0  0  0  0  0  0  0  0  0  0
   72.4141   44.3810   60.8841 C   0  0  0  0  0  0  0  0  0  0  0  0
   71.3661   44.3406   61.5724 O   0  0  0  0  0  0  0  0  0  0  0  0
 12 13  2  0
 13 14  1  0
 13  1  1  0
  1  2  2  0
  1 10  1  0
  2  3  1  0
  3 15  1  0
  3  4  1  0
 15 16  1  0
 16 17  2  0
 16 21  1  0
 17 18  1  0
 18 19  2  0
 19 22  1  0
 19 20  1  0
 22 23  1  0
 22 27  1  0
 23 24  2  0
 23 25  1  0
 25 26  2  0
 26 27  1  0
 27 28  2  0
 20 21  2  0
  4  5  1  0
  4  9  2  0
  5  6  2  0
  6  7  1  0
  7  8  2  0
  8  9  1  0
  9 10  1  0
 10 11  2  0
M  END
>  <minimizedAffinity>  (847) 
-8.51013

$$$$
data/reference_output_2/data/smiles/93090.pdb
     RDKit          3D

 27 29  0  0  0  0  0  0  0  0999 V2000
   67.2383   39.5099   59.4697 C   0  0  0  0  0  0  0  0  0  0  0  0
   67.8281   39.0751   58.3006 C   0  0  0  0  0  0  0  0  0  0  0  0
   68.1834   39.9569   57.2830 C   0  0  0  0  0  0  0  0  0  0  0  0
   67.9536   41.3092   57.4150 C   0  0  0  0  0  0  0  0  0  0  0  0
   67.3654   41.7533   58.5773 C   0  0  0  0  0  0  0  0  0  0  0  0
   67.0127   40.8553   59.5933 C   0  0  0  0  0  0  0  0  0  0  0  0
   65.8895   38.6260   61.3276 C   0  0  0  0  0  0  0  0  0  0  0  0
   66.8881   38.5149   60.5071 C   0  0  0  0  0  0  0  0  0  0  0  0
   66.5380   39.0468   64.2391 C   0  0  0  0  0  0  0  0  0  0  0  0
   65.7876   37.9339   63.6824 N   0  0  0  0  0  0  0  0  0  0  0  0
   65.2994   36.9552   64.4538 C   0  0  0  0  0  0  0  0  0  0  0  0
   64.6600   36.0929   63.5993 C   0  0  0  0  0  0  0  0  0  0  0  0
   64.7790   36.5697   62.3433 N   0  0  0  0  0  0  0  0  0  0  0  0
   64.2273   35.9131   61.2036 C   0  0  0  0  0  0  0  0  0  0  0  0
   65.4727   37.7065   62.3698 C   0  0  0  0  0  0  0  0  0  0  0  0
   68.3104   42.2680   56.3726 C   0  0  0  0  0  0  0  0  0  0  0  0
   67.5348   43.2609   56.1052 N   0  0  0  0  0  0  0  0  0  0  0  0
   67.8217   44.2153   55.1161 N   0  0  0  0  0  0  0  0  0  0  0  0
   68.4056   45.4612   55.3772 C   0  0  0  0  0  0  0  0  0  0  0  0
   68.6849   45.7252   56.5781 O   0  0  0  0  0  0  0  0  0  0  0  0
   68.7120   46.4683   54.3660 C   0  0  0  0  0  0  0  0  0  0  0  0
   68.5368   46.2427   53.0171 C   0  0  0  0  0  0  0  0  0  0  0  0
   68.8386   47.2259   52.0789 C   0  0  0  0  0  0  0  0  0  0  0  0
   69.3238   48.4637   52.4477 C   0  0  0  0  0  0  0  0  0  0  0  0
   69.6284   49.4602   51.4779 N   0  0  0  0  0  0  0  0  0  0  0  0
   69.4981   48.6889   53.8002 C   0  0  0  0  0  0  0  0  0  0  0  0
   69.1993   47.7150   54.7297 C   0  0  0  0  0  0  0  0  0  0  0  0
  9 10  1  0
 10 11  1  0
 10 15  1  0
 11 12  2  0
 12 13  1  0
 13 14  1  0
 13 15  2  0
 15  7  1  0
  7  8  2  0
  8  1  1  0
  1  2  2  0
  1  6  1  0
  2  3  1  0
  3  4  2  0
  4 16  1  0
  4  5  1  0
 16 17  2  0
 17 18  1  0
 18 19  1  0
 19 20  2  0
 19 21  1  0
 21 22  2  0
 21 27  1  0
 22 23  1  0
 23 24  2  0
 24 25  1  0
 24 26  1  0
 26 27  2  0
  5  6  2  0
M  CHG  1  13   1
M  END
>  <minimizedAffinity>  (848) 
-8.50986

$$$$
data/reference_output_2/data/smiles/158845.pdb
     RDKit          3D

 27 30  0  0  0  0  0  0  0  0999 V2000
   71.9605   47.2192   58.8525 C   0  0  0  0  0  0  0  0  0  0  0  0
   70.9774   46.4746   58.0951 N   0  0  0  0  0  0  0  0  0  0  0  0
   70.0715   47.1252   57.3226 C   0  0  0  0  0  0  0  0  0  0  0  0
   70.0882   48.3904   57.2661 O   0  0  0  0  0  0  0  0  0  0  0  0
   69.1384   46.4655   56.6016 N   0  0  0  0  0  0  0  0  0  0  0  0
   69.1644   45.1224   56.6977 C   0  0  0  0  0  0  0  0  0  0  0  0
   68.3168   44.4575   56.0459 O   0  0  0  0  0  0  0  0  0  0  0  0
   70.0691   44.4254   57.4716 C   0  0  0  0  0  0  0  0  0  0  0  0
   70.0850   43.0460   57.5603 C   0  0  0  0  0  0  0  0  0  0  0  0
   70.9949   42.3509   58.3381 C   0  0  0  0  0  0  0  0  0  0  0  0
   71.9076   43.1263   59.0361 C   0  0  0  0  0  0  0  0  0  0  0  0
   71.9062   44.4698   58.9609 N   0  0  0  0  0  0  0  0  0  0  0  0
   71.0057   45.1355   58.1923 C   0  0  0  0  0  0  0  0  0  0  0  0
   70.9966   40.8959   58.4204 C   0  0  0  0  0  0  0  0  0  0  0  0
   69.8075   40.2096   58.3331 C   0  0  0  0  0  0  0  0  0  0  0  0
   69.7416   38.8268   58.4037 C   0  0  0  0  0  0  0  0  0  0  0  0
   70.8918   38.0948   58.5666 C   0  0  0  0  0  0  0  0  0  0  0  0
   70.8835   36.7417   58.6425 F   0  0  0  0  0  0  0  0  0  0  0  0
   72.0992   38.7590   58.6578 C   0  0  0  0  0  0  0  0  0  0  0  0
   72.1301   40.1343   58.5837 C   0  0  0  0  0  0  0  0  0  0  0  0
   68.1715   47.1743   55.7763 C   0  0  0  0  0  0  0  0  0  0  0  0
   68.5447   47.1857   54.3373 C   0  0  0  0  0  0  0  0  0  0  0  0
   67.9933   46.2810   53.4351 C   0  0  0  0  0  0  0  0  0  0  0  0
   68.3321   46.2817   52.0970 C   0  0  0  0  0  0  0  0  0  0  0  0
   69.2406   47.1957   51.6073 C   0  0  0  0  0  0  0  0  0  0  0  0
   69.8073   48.1054   52.4632 C   0  0  0  0  0  0  0  0  0  0  0  0
   69.4496   48.0837   53.8106 C   0  0  0  0  0  0  0  0  0  0  0  0
  1  2  1  0
  2  3  1  0
  2 13  1  0
  3  4  2  0
  3  5  1  0
  5 21  1  0
  5  6  1  0
 21 22  1  0
 22 23  2  0
 22 27  1  0
 23 24  1  0
 24 25  2  0
 25 26  1  0
 26 27  2  0
  6  7  2  0
  6  8  1  0
  8  9  1  0
  8 13  2  0
  9 10  2  0
 10 14  1  0
 10 11  1  0
 14 15  2  0
 14 20  1  0
 15 16  1  0
 16 17  2  0
 17 18  1  0
 17 19  1  0
 19 20  2  0
 11 12  2  0
 12 13  1  0
M  END
>  <minimizedAffinity>  (849) 
-8.50949

$$$$
data/reference_output_2/data/smiles/112298.pdb
     RDKit          3D

 23 24  0  0  0  0  0  0  0  0999 V2000
   67.3994   42.0669   56.4811 C   0  0  0  0  0  0  0  0  0  0  0  0
   67.1762   41.4679   55.3930 O   0  0  0  0  0  0  0  0  0  0  0  0
   67.7922   43.4347   56.4876 N   0  0  0  0  0  0  0  0  0  0  0  0
   67.9115   44.0556   55.2334 N   0  0  0  0  0  0  0  0  0  0  0  0
   68.1683   45.4260   55.0585 C   0  0  0  0  0  0  0  0  0  0  0  0
   68.2987   46.1286   56.0939 O   0  0  0  0  0  0  0  0  0  0  0  0
   68.2935   46.0738   53.7540 C   0  0  0  0  0  0  0  0  0  0  0  0
   67.6549   45.6033   52.6272 C   0  0  0  0  0  0  0  0  0  0  0  0
   67.8233   46.2777   51.4200 C   0  0  0  0  0  0  0  0  0  0  0  0
   68.5900   47.3735   51.3199 N   0  0  0  0  0  0  0  0  0  0  0  0
   69.2341   47.8678   52.4034 C   0  0  0  0  0  0  0  0  0  0  0  0
   69.0689   47.2036   53.5967 C   0  0  0  0  0  0  0  0  0  0  0  0
   68.3027   40.2140   57.7300 C   0  0  0  0  0  0  0  0  0  0  0  0
   67.2339   41.2831   57.7564 C   0  0  1  0  0  0  0  0  0  0  0  0
   67.3634   42.1730   58.8091 O   0  0  0  0  0  0  0  0  0  0  0  0
   67.0934   41.9537   60.1309 C   0  0  0  0  0  0  0  0  0  0  0  0
   65.8901   41.4844   60.6238 C   0  0  0  0  0  0  0  0  0  0  0  0
   65.6826   41.2828   61.9828 C   0  0  0  0  0  0  0  0  0  0  0  0
   66.6855   41.5472   62.8915 C   0  0  0  0  0  0  0  0  0  0  0  0
   66.4055   41.2856   64.6086 Cl  0  0  0  0  0  0  0  0  0  0  0  0
   67.8931   42.0156   62.4203 C   0  0  0  0  0  0  0  0  0  0  0  0
   68.0857   42.2129   61.0556 C   0  0  0  0  0  0  0  0  0  0  0  0
   69.6418   42.8119   60.4909 Cl  0  0  0  0  0  0  0  0  0  0  0  0
 14 13  1  1
 14 15  1  0
 14  1  1  0
 15 16  1  0
 16 17  2  0
 16 22  1  0
 17 18  1  0
 18 19  2  0
 19 20  1  0
 19 21  1  0
 21 22  2  0
 22 23  1  0
  1  2  2  0
  1  3  1  0
  3  4  1  0
  4  5  1  0
  5  6  2  0
  5  7  1  0
  7  8  2  0
  7 12  1  0
  8  9  1  0
  9 10  2  0
 10 11  1  0
 11 12  2  0
M  END
>  <minimizedAffinity>  (850) 
-8.50941

$$$$
data/200k_reference_output/data/smiles/49273.pdb
     RDKit          3D

 26 28  0  0  0  0  0  0  0  0999 V2000
   68.2303   38.6263   58.8280 C   0  0  0  0  0  0  0  0  0  0  0  0
   68.9117   39.8439   58.3284 C   0  0  0  0  0  0  0  0  0  0  0  0
   68.2163   40.7608   57.5710 C   0  0  0  0  0  0  0  0  0  0  0  0
   68.8411   41.9196   57.0878 C   0  0  0  0  0  0  0  0  0  0  0  0
   70.1602   42.0778   57.4136 C   0  0  0  0  0  0  0  0  0  0  0  0
   70.8944   41.1771   58.1743 C   0  0  0  0  0  0  0  0  0  0  0  0
   70.2431   40.0500   58.6293 C   0  0  0  0  0  0  0  0  0  0  0  0
   72.2639   41.4254   58.4628 N   0  0  0  0  0  0  0  0  0  0  0  0
   73.0241   42.3029   57.7881 C   0  0  0  0  0  0  0  0  0  0  0  0
   74.2948   42.2922   58.3271 C   0  0  0  0  0  0  0  0  0  0  0  0
   75.3089   43.0608   57.8818 F   0  0  0  0  0  0  0  0  0  0  0  0
   74.2592   41.3690   59.3529 C   0  0  0  0  0  0  0  0  0  0  0  0
   73.0014   40.8787   59.3842 N   0  0  0  0  0  0  0  0  0  0  0  0
   68.0880   42.8564   56.3007 C   0  0  0  0  0  0  0  0  0  0  0  0
   66.9919   42.5093   55.7945 O   0  0  0  0  0  0  0  0  0  0  0  0
   68.5323   44.1656   56.0667 N   0  0  0  0  0  0  0  0  0  0  0  0
   67.8023   45.0930   55.2958 N   0  0  0  0  0  0  0  0  0  0  0  0
   68.4656   46.6536   55.5893 S   0  0  0  0  0  0  0  0  0  0  0  0
   69.5928   46.5180   56.5790 O   0  0  0  0  0  0  0  0  0  0  0  0
   67.3623   47.4825   56.2243 O   0  0  0  0  0  0  0  0  0  0  0  0
   68.9881   47.4593   54.1305 C   0  0  0  0  0  0  0  0  0  0  0  0
   68.9230   46.8097   52.9142 C   0  0  0  0  0  0  0  0  0  0  0  0
   69.3289   47.4348   51.7550 C   0  0  0  0  0  0  0  0  0  0  0  0
   69.8160   48.7256   51.7514 C   0  0  0  0  0  0  0  0  0  0  0  0
   69.8697   49.3490   52.9798 C   0  0  0  0  0  0  0  0  0  0  0  0
   69.4716   48.7486   54.1484 C   0  0  0  0  0  0  0  0  0  0  0  0
  1  2  1  0
  2  3  2  0
  2  7  1  0
  3  4  1  0
  4 14  1  0
  4  5  2  0
 14 15  2  0
 14 16  1  0
 16 17  1  0
 17 18  1  0
 18 19  2  0
 18 20  2  0
 18 21  1  0
 21 22  2  0
 21 26  1  0
 22 23  1  0
 23 24  2  0
 24 25  1  0
 25 26  2  0
  5  6  1  0
  6  8  1  0
  6  7  2  0
  8  9  1  0
  8 13  1  0
  9 10  2  0
 10 11  1  0
 10 12  1  0
 12 13  2  0
M  END
>  <minimizedAffinity>  (851) 
-8.50920

$$$$
data/200k_reference_output/data/smiles/54117.pdb
     RDKit          3D

 26 28  0  0  0  0  0  0  0  0999 V2000
   75.7340   34.3127   52.5284 N   0  0  0  0  0  0  0  0  0  0  0  0
   75.1624   34.7564   53.7699 C   0  0  0  0  0  0  0  0  0  0  0  0
   75.7132   35.7130   54.3143 O   0  0  0  0  0  0  0  0  0  0  0  0
   74.0408   34.1498   54.3474 N   0  0  0  0  0  0  0  0  0  0  0  0
   73.4222   34.5228   55.5556 C   0  0  0  0  0  0  0  0  0  0  0  0
   73.2126   33.5186   56.5123 C   0  0  0  0  0  0  0  0  0  0  0  0
   72.6167   33.7634   57.7296 C   0  0  0  0  0  0  0  0  0  0  0  0
   72.2055   35.0451   58.0316 C   0  0  0  0  0  0  0  0  0  0  0  0
   71.5960   35.3516   59.2513 C   0  0  0  0  0  0  0  0  0  0  0  0
   71.3948   34.2723   60.2262 C   0  0  0  0  0  0  0  0  0  0  0  0
   71.2092   36.6527   59.4889 C   0  0  0  0  0  0  0  0  0  0  0  0
   71.4214   37.6298   58.5391 C   0  0  0  0  0  0  0  0  0  0  0  0
   71.0542   38.8239   58.7856 O   0  0  0  0  0  0  0  0  0  0  0  0
   71.9932   37.2916   57.4215 O   0  0  0  0  0  0  0  0  0  0  0  0
   72.3835   36.0726   57.1340 C   0  0  0  0  0  0  0  0  0  0  0  0
   72.9901   35.7639   55.9240 C   0  0  0  0  0  0  0  0  0  0  0  0
   77.1133   35.0831   51.8494 S   0  0  0  0  0  0  0  0  0  0  0  0
   77.0808   36.5452   52.1920 O   0  0  0  0  0  0  0  0  0  0  0  0
   78.3790   34.4298   52.3473 O   0  0  0  0  0  0  0  0  0  0  0  0
   77.1448   34.4834   45.8244 C   0  0  0  0  0  0  0  0  0  0  0  0
   77.1079   34.6044   47.3115 C   0  0  0  0  0  0  0  0  0  0  0  0
   77.9901   35.4711   47.9280 C   0  0  0  0  0  0  0  0  0  0  0  0
   77.9710   35.5986   49.3091 C   0  0  0  0  0  0  0  0  0  0  0  0
   77.1016   34.8895   50.1002 C   0  0  0  0  0  0  0  0  0  0  0  0
   76.2237   34.0257   49.4730 C   0  0  0  0  0  0  0  0  0  0  0  0
   76.2302   33.8883   48.0885 C   0  0  0  0  0  0  0  0  0  0  0  0
 20 21  1  0
 21 22  2  0
 21 26  1  0
 22 23  1  0
 23 24  2  0
 24 17  1  0
 24 25  1  0
 17 18  2  0
 17 19  2  0
 17  1  1  0
  1  2  1  0
  2  3  2  0
  2  4  1  0
  4  5  1  0
  5  6  2  0
  5 16  1  0
  6  7  1  0
  7  8  2  0
  8  9  1  0
  8 15  1  0
  9 10  1  0
  9 11  2  0
 11 12  1  0
 12 13  2  0
 12 14  1  0
 14 15  1  0
 15 16  2  0
 25 26  2  0
M  END
>  <minimizedAffinity>  (852) 
-8.50877

$$$$
data/200k_reference_output/data/smiles/8832.pdb
     RDKit          3D

 26 28  0  0  0  0  0  0  0  0999 V2000
   68.7833   42.2592   57.0933 C   0  0  0  0  0  0  0  0  0  0  0  0
   68.9486   43.5312   56.6781 N   0  0  0  0  0  0  0  0  0  0  0  0
   68.2179   44.1559   55.7402 C   0  0  0  0  0  0  0  0  0  0  0  0
   67.2387   43.4314   55.1759 N   0  0  0  0  0  0  0  0  0  0  0  0
   67.0038   42.1560   55.5283 C   0  0  0  0  0  0  0  0  0  0  0  0
   66.0670   41.4934   54.9747 O   0  0  0  0  0  0  0  0  0  0  0  0
   67.7794   41.5263   56.5100 C   0  0  0  0  0  0  0  0  0  0  0  0
   67.4795   40.2163   56.8186 O   0  0  0  0  0  0  0  0  0  0  0  0
   68.4859   45.5387   55.3687 C   0  0  0  0  0  0  0  0  0  0  0  0
   68.9822   46.4449   56.2538 C   0  0  0  0  0  0  0  0  0  0  0  0
   69.2211   47.7648   55.8414 C   0  0  0  0  0  0  0  0  0  0  0  0
   68.9703   48.1879   54.5553 C   0  0  0  0  0  0  0  0  0  0  0  0
   69.2065   49.4747   54.1658 F   0  0  0  0  0  0  0  0  0  0  0  0
   68.4653   47.2549   53.6667 C   0  0  0  0  0  0  0  0  0  0  0  0
   68.2293   45.9505   54.0750 C   0  0  0  0  0  0  0  0  0  0  0  0
   69.4763   42.1804   59.2969 O   0  0  0  0  0  0  0  0  0  0  0  0
   69.6498   41.7119   58.1198 C   0  0  0  0  0  0  0  0  0  0  0  0
   70.6422   40.7486   57.9987 N   0  0  0  0  0  0  0  0  0  0  0  0
   71.4878   40.2280   59.0714 C   0  0  0  0  0  0  0  0  0  0  0  0
   71.4753   38.7544   58.9770 C   0  0  0  0  0  0  0  0  0  0  0  0
   70.7168   38.1031   59.9584 C   0  0  0  0  0  0  0  0  0  0  0  0
   70.6454   36.7342   59.9315 C   0  0  0  0  0  0  0  0  0  0  0  0
   71.2982   35.9660   58.9675 C   0  0  0  0  0  0  0  0  0  0  0  0
   72.0375   36.6248   58.0137 C   0  0  0  0  0  0  0  0  0  0  0  0
   72.8557   35.6650   56.8033 Cl  0  0  0  0  0  0  0  0  0  0  0  0
   72.1154   38.0054   58.0306 C   0  0  0  0  0  0  0  0  0  0  0  0
 16 17  2  0
 17 18  1  0
 17  1  1  0
 18 19  1  0
 19 20  1  0
 20 21  2  0
 20 26  1  0
 21 22  1  0
 22 23  2  0
 23 24  1  0
 24 25  1  0
 24 26  2  0
  1  2  1  0
  1  7  2  0
  2  3  2  0
  3  9  1  0
  3  4  1  0
  9 10  2  0
  9 15  1  0
 10 11  1  0
 11 12  2  0
 12 13  1  0
 12 14  1  0
 14 15  2  0
  4  5  1  0
  5  6  2  0
  5  7  1  0
  7  8  1  0
M  END
>  <minimizedAffinity>  (853) 
-8.50869

$$$$
data/reference_output_2/data/smiles/177586.pdb
     RDKit          3D

 26 28  0  0  0  0  0  0  0  0999 V2000
   68.5099   45.3741   55.7362 C   0  0  0  0  0  0  0  0  0  0  0  0
   69.5457   45.5823   56.6627 C   0  0  0  0  0  0  0  0  0  0  0  0
   69.9988   44.5566   57.4540 C   0  0  0  0  0  0  0  0  0  0  0  0
   69.4800   43.2761   57.3962 C   0  0  0  0  0  0  0  0  0  0  0  0
   68.4658   43.1084   56.4769 C   0  0  0  0  0  0  0  0  0  0  0  0
   68.0318   44.1244   55.7061 N   0  0  0  0  0  0  0  0  0  0  0  0
   68.0663   46.4105   54.9509 O   0  0  0  0  0  0  0  0  0  0  0  0
   70.7699   50.3174   53.9502 C   0  0  0  0  0  0  0  0  0  0  0  0
   70.0115   49.1136   53.4952 C   0  0  0  0  0  0  0  0  0  0  0  0
   69.9227   48.7836   52.1585 C   0  0  0  0  0  0  0  0  0  0  0  0
   69.1977   47.6423   51.7874 C   0  0  0  0  0  0  0  0  0  0  0  0
   68.5815   46.8570   52.7286 C   0  0  0  0  0  0  0  0  0  0  0  0
   67.8124   45.6477   52.3354 C   0  0  0  0  0  0  0  0  0  0  0  0
   68.6960   47.2282   54.0884 C   0  0  0  0  0  0  0  0  0  0  0  0
   69.3934   48.3284   54.4620 C   0  0  0  0  0  0  0  0  0  0  0  0
   70.0173   42.2068   58.2777 C   0  0  0  0  0  0  0  0  0  0  0  0
   68.9902   41.6154   59.1137 N   0  0  0  0  0  0  0  0  0  0  0  0
   68.3356   42.2425   60.1805 C   0  0  0  0  0  0  0  0  0  0  0  0
   68.6485   43.4359   60.4612 O   0  0  0  0  0  0  0  0  0  0  0  0
   67.3030   41.4857   60.9404 C   0  0  1  0  0  0  0  0  0  0  0  0
   67.5736   40.0518   61.1287 C   0  0  0  0  0  0  0  0  0  0  0  0
   68.2155   39.7488   62.4242 C   0  0  0  0  0  0  0  0  0  0  0  0
   67.6815   41.0747   63.4717 S   0  0  0  0  0  0  0  0  0  0  0  0
   68.8158   41.7351   64.1897 O   0  0  0  0  0  0  0  0  0  0  0  0
   66.6956   40.6218   64.5005 O   0  0  0  0  0  0  0  0  0  0  0  0
   66.9555   42.1383   62.2507 C   0  0  0  0  0  0  0  0  0  0  0  0
  8  9  1  0
  9 10  2  0
  9 15  1  0
 10 11  1  0
 11 12  2  0
 12 13  1  0
 12 14  1  0
 14  7  1  0
 14 15  2  0
  7  1  1  0
  1  2  2  0
  1  6  1  0
  2  3  1  0
  3  4  2  0
  4 16  1  0
  4  5  1  0
 16 17  1  0
 17 18  1  0
 18 19  2  0
 20 18  1  1
 20 21  1  0
 20 26  1  0
 21 22  1  0
 22 23  1  0
 23 24  2  0
 23 25  2  0
 23 26  1  0
  5  6  2  0
M  END
>  <minimizedAffinity>  (854) 
-8.50788

$$$$
data/reference_output_2/data/smiles/136596.pdb
     RDKit          3D

 27 30  0  0  0  0  0  0  0  0999 V2000
   67.7984   43.4626   55.7894 N   0  0  0  0  0  0  0  0  0  0  0  0
   66.7560   42.7851   55.3756 N   0  0  0  0  0  0  0  0  0  0  0  0
   66.6894   41.5818   55.9597 C   0  0  0  0  0  0  0  0  0  0  0  0
   67.7695   41.4868   56.8074 C   0  0  0  0  0  0  0  0  0  0  0  0
   68.4492   42.6806   56.6811 C   0  0  0  0  0  0  0  0  0  0  0  0
   69.6945   43.1061   57.3766 C   0  0  0  0  0  0  0  0  0  0  0  0
   68.1612   40.3789   57.6795 C   0  0  0  0  0  0  0  0  0  0  0  0
   68.9166   39.5136   57.2064 O   0  0  0  0  0  0  0  0  0  0  0  0
   67.7069   40.2779   59.0193 N   0  0  0  0  0  0  0  0  0  0  0  0
   66.8305   41.2296   59.6579 C   0  0  0  0  0  0  0  0  0  0  0  0
   65.6233   40.5612   60.2538 C   0  0  0  0  0  0  0  0  0  0  0  0
   65.7363   39.0877   60.3468 C   0  0  0  0  0  0  0  0  0  0  0  0
   64.5623   38.3791   60.6554 C   0  0  0  0  0  0  0  0  0  0  0  0
   64.5657   37.0069   60.7659 C   0  0  0  0  0  0  0  0  0  0  0  0
   65.7435   36.3192   60.5689 C   0  0  0  0  0  0  0  0  0  0  0  0
   66.9101   37.0208   60.2623 C   0  0  0  0  0  0  0  0  0  0  0  0
   66.9059   38.3891   60.1526 C   0  0  0  0  0  0  0  0  0  0  0  0
   68.1345   39.1537   59.8244 C   0  0  0  0  0  0  0  0  0  0  0  0
   68.4644   46.6793   52.1787 C   0  0  0  0  0  0  0  0  0  0  0  0
   68.4921   46.3198   53.6286 C   0  0  0  0  0  0  0  0  0  0  0  0
   68.1455   45.0916   54.0661 N   0  0  0  0  0  0  0  0  0  0  0  0
   68.1744   44.7785   55.3745 C   0  0  0  0  0  0  0  0  0  0  0  0
   68.5612   45.7345   56.2344 N   0  0  0  0  0  0  0  0  0  0  0  0
   68.9156   46.9718   55.8484 C   0  0  0  0  0  0  0  0  0  0  0  0
   69.2774   47.8610   56.6767 O   0  0  0  0  0  0  0  0  0  0  0  0
   68.8908   47.3069   54.5065 C   0  0  0  0  0  0  0  0  0  0  0  0
   69.2705   48.6597   54.0192 C   0  0  0  0  0  0  0  0  0  0  0  0
 19 20  1  0
 20 21  1  0
 20 26  2  0
 21 22  2  0
 22  1  1  0
 22 23  1  0
  1  2  1  0
  1  5  1  0
  2  3  2  0
  3  4  1  0
  4  7  1  0
  4  5  2  0
  7  8  2  0
  7  9  1  0
  9 10  1  0
  9 18  1  0
 10 11  1  0
 11 12  1  0
 12 13  2  0
 12 17  1  0
 13 14  1  0
 14 15  2  0
 15 16  1  0
 16 17  2  0
 17 18  1  0
  5  6  1  0
 23 24  1  0
 24 25  2  0
 24 26  1  0
 26 27  1  0
M  END
>  <minimizedAffinity>  (855) 
-8.50735

$$$$
data/reference_output_2/data/smiles/161833.pdb
     RDKit          3D

 29 32  0  0  0  0  0  0  0  0999 V2000
   68.9159   42.2649   56.5462 O   0  0  0  0  0  0  0  0  0  0  0  0
   69.5892   43.0359   57.2688 C   0  0  0  0  0  0  0  0  0  0  0  0
   70.4832   42.4729   58.2097 N   0  0  0  0  0  0  0  0  0  0  0  0
   70.6776   41.0521   58.4001 C   0  0  1  0  0  0  0  0  0  0  0  0
   72.1257   40.6951   58.6071 C   0  0  0  0  0  0  0  0  0  0  0  0
   72.3374   39.2895   58.3154 N   0  0  0  0  0  0  0  0  0  0  0  0
   71.6918   38.1261   58.8534 C   0  0  0  0  0  0  0  0  0  0  0  0
   72.2986   36.9454   58.5505 C   0  0  0  0  0  0  0  0  0  0  0  0
   71.7657   35.7454   59.0156 C   0  0  0  0  0  0  0  0  0  0  0  0
   70.6253   35.6907   59.7881 C   0  0  0  0  0  0  0  0  0  0  0  0
   70.0094   36.8942   60.0946 C   0  0  0  0  0  0  0  0  0  0  0  0
   68.8813   36.9038   60.8530 F   0  0  0  0  0  0  0  0  0  0  0  0
   70.5398   38.0866   59.6324 C   0  0  0  0  0  0  0  0  0  0  0  0
   69.7793   39.2348   60.0423 N   0  0  0  0  0  0  0  0  0  0  0  0
   69.8312   40.5327   59.5044 C   0  0  0  0  0  0  0  0  0  0  0  0
   69.0341   41.3328   60.0649 O   0  0  0  0  0  0  0  0  0  0  0  0
   69.4093   44.4692   57.0929 C   0  0  0  0  0  0  0  0  0  0  0  0
   69.9688   45.4651   57.7984 N   0  0  0  0  0  0  0  0  0  0  0  0
   69.5528   46.6392   57.3288 N   0  0  0  0  0  0  0  0  0  0  0  0
   68.7035   46.4155   56.2952 C   0  0  0  0  0  0  0  0  0  0  0  0
   68.6361   45.0800   56.1760 N   0  0  0  0  0  0  0  0  0  0  0  0
   68.0083   47.4680   55.4832 C   0  0  0  0  0  0  0  0  0  0  0  0
   68.6847   47.5508   54.1701 C   0  0  0  0  0  0  0  0  0  0  0  0
   69.6529   48.5157   53.9633 C   0  0  0  0  0  0  0  0  0  0  0  0
   70.3148   48.6428   52.7669 C   0  0  0  0  0  0  0  0  0  0  0  0
   69.9997   47.7817   51.7467 C   0  0  0  0  0  0  0  0  0  0  0  0
   69.0484   46.8041   51.8905 C   0  0  0  0  0  0  0  0  0  0  0  0
   68.3999   46.7081   53.1184 C   0  0  0  0  0  0  0  0  0  0  0  0
   67.4717   45.7516   53.2555 F   0  0  0  0  0  0  0  0  0  0  0  0
  1  2  2  0
  2  3  1  0
  2 17  1  0
  4  3  1  1
  4  5  1  0
  4 15  1  0
  5  6  1  0
  6  7  1  0
  7  8  1  0
  7 13  2  0
  8  9  2  0
  9 10  1  0
 10 11  2  0
 11 12  1  0
 11 13  1  0
 13 14  1  0
 14 15  1  0
 15 16  2  0
 17 18  2  0
 17 21  1  0
 18 19  1  0
 19 20  2  0
 20 22  1  0
 20 21  1  0
 22 23  1  0
 23 24  2  0
 23 28  1  0
 24 25  1  0
 25 26  2  0
 26 27  1  0
 27 28  2  0
 28 29  1  0
M  END
>  <minimizedAffinity>  (856) 
-8.50702

$$$$
data/200k_reference_output/data/smiles/82064.pdb
     RDKit          3D

 28 30  0  0  0  0  0  0  0  0999 V2000
   67.5484   43.2175   56.2813 N   0  0  0  0  0  0  0  0  0  0  0  0
   68.3390   42.2019   56.8816 C   0  0  0  0  0  0  0  0  0  0  0  0
   69.5766   42.3943   56.9556 O   0  0  0  0  0  0  0  0  0  0  0  0
   67.7496   40.9385   57.4160 C   0  0  1  0  0  0  0  0  0  0  0  0
   68.8132   39.9655   57.8586 C   0  0  0  0  0  0  0  0  0  0  0  0
   68.7144   39.8564   59.3136 C   0  0  0  0  0  0  0  0  0  0  0  0
   69.4616   39.1586   60.0385 O   0  0  0  0  0  0  0  0  0  0  0  0
   67.6539   40.6568   59.7567 N   0  0  0  0  0  0  0  0  0  0  0  0
   66.9124   41.2088   58.6343 C   0  0  0  0  0  0  0  0  0  0  0  0
   67.3462   40.8978   61.1033 C   0  0  0  0  0  0  0  0  0  0  0  0
   67.7602   42.0377   61.7429 C   0  0  0  0  0  0  0  0  0  0  0  0
   67.4606   42.2827   63.0723 C   0  0  0  0  0  0  0  0  0  0  0  0
   66.7267   41.3560   63.7691 C   0  0  0  0  0  0  0  0  0  0  0  0
   66.4023   41.5460   65.0805 F   0  0  0  0  0  0  0  0  0  0  0  0
   66.2924   40.1983   63.1591 C   0  0  0  0  0  0  0  0  0  0  0  0
   66.6130   39.9809   61.8164 C   0  0  0  0  0  0  0  0  0  0  0  0
   67.8149   44.8325   54.5859 C   0  0  0  0  0  0  0  0  0  0  0  0
   68.0846   44.4095   55.7745 N   0  0  0  0  0  0  0  0  0  0  0  0
   69.3864   48.3917   52.8930 C   0  0  0  0  0  0  0  0  0  0  0  0
   69.2844   48.2703   54.2659 C   0  0  0  0  0  0  0  0  0  0  0  0
   68.7684   47.1014   54.8359 C   0  0  0  0  0  0  0  0  0  0  0  0
   68.3569   46.0635   54.0350 C   0  0  0  0  0  0  0  0  0  0  0  0
   68.4675   46.2057   52.6702 C   0  0  0  0  0  0  0  0  0  0  0  0
   68.9796   47.3618   52.0902 C   0  0  0  0  0  0  0  0  0  0  0  0
   69.9264   49.6164   52.3261 C   0  0  0  0  0  0  0  0  0  0  0  0
   69.7552   49.8431   51.1107 O   0  0  0  0  0  0  0  0  0  0  0  0
   69.9879   51.6586   53.6962 C   0  0  0  0  0  0  0  0  0  0  0  0
   70.6216   50.5332   53.0894 O   0  0  0  0  0  0  0  0  0  0  0  0
 27 28  1  0
 28 25  1  0
 25 26  2  0
 25 19  1  0
 19 20  2  0
 19 24  1  0
 20 21  1  0
 21 22  2  0
 22 17  1  0
 22 23  1  0
 17 18  2  0
 18  1  1  0
  1  2  1  0
  2  3  2  0
  4  2  1  1
  4  5  1  0
  4  9  1  0
  5  6  1  0
  6  7  2  0
  6  8  1  0
  8 10  1  0
  8  9  1  0
 10 11  2  0
 10 16  1  0
 11 12  1  0
 12 13  2  0
 13 14  1  0
 13 15  1  0
 15 16  2  0
 23 24  2  0
M  END
>  <minimizedAffinity>  (857) 
-8.50690

$$$$
data/reference_output_2/data/smiles/113764.pdb
     RDKit          3D

 27 29  0  0  0  0  0  0  0  0999 V2000
   69.4513   46.8705   56.4190 C   0  0  0  0  0  0  0  0  0  0  0  0
   70.0716   45.9072   57.1794 C   0  0  0  0  0  0  0  0  0  0  0  0
   70.8997   46.2076   58.2550 C   0  0  0  0  0  0  0  0  0  0  0  0
   71.1481   47.5056   58.6223 C   0  0  0  0  0  0  0  0  0  0  0  0
   70.5326   48.4789   57.8705 C   0  0  0  0  0  0  0  0  0  0  0  0
   69.7134   48.2026   56.8067 C   0  0  0  0  0  0  0  0  0  0  0  0
   72.0080   47.8741   59.7342 C   0  0  0  0  0  0  0  0  0  0  0  0
   72.8432   48.7991   59.5751 O   0  0  0  0  0  0  0  0  0  0  0  0
   71.9836   47.2621   61.0119 N   0  0  0  0  0  0  0  0  0  0  0  0
   72.8243   47.6360   62.0740 N   0  0  0  0  0  0  0  0  0  0  0  0
   74.0921   47.0268   62.2812 C   0  0  0  0  0  0  0  0  0  0  0  0
   74.4086   46.1298   61.4446 O   0  0  0  0  0  0  0  0  0  0  0  0
   74.9920   47.3818   63.3659 C   0  0  0  0  0  0  0  0  0  0  0  0
   74.5311   47.3282   64.6644 C   0  0  0  0  0  0  0  0  0  0  0  0
   75.3361   47.6551   65.7411 C   0  0  0  0  0  0  0  0  0  0  0  0
   76.6432   48.0509   65.5498 C   0  0  0  0  0  0  0  0  0  0  0  0
   77.1168   48.1084   64.2514 C   0  0  0  0  0  0  0  0  0  0  0  0
   76.2922   47.7774   63.1986 C   0  0  0  0  0  0  0  0  0  0  0  0
   68.6349   46.6510   55.3608 O   0  0  0  0  0  0  0  0  0  0  0  0
   68.0512   47.4316   54.3972 C   0  0  0  0  0  0  0  0  0  0  0  0
   70.3418   49.2806   53.4795 C   0  0  0  0  0  0  0  0  0  0  0  0
   69.7324   48.1932   52.6603 C   0  0  0  0  0  0  0  0  0  0  0  0
   70.0626   47.8476   51.3935 N   0  0  0  0  0  0  0  0  0  0  0  0
   69.3151   46.8629   51.0267 O   0  0  0  0  0  0  0  0  0  0  0  0
   68.4888   46.5284   51.9990 C   0  0  0  0  0  0  0  0  0  0  0  0
   67.5002   45.4352   51.8854 C   0  0  0  0  0  0  0  0  0  0  0  0
   68.7172   47.3545   53.0764 C   0  0  0  0  0  0  0  0  0  0  0  0
 21 22  1  0
 22 23  2  0
 22 27  1  0
 23 24  1  0
 24 25  1  0
 25 26  1  0
 25 27  2  0
 27 20  1  0
 20 19  1  0
 19  1  1  0
  1  2  2  0
  1  6  1  0
  2  3  1  0
  3  4  2  0
  4  7  1  0
  4  5  1  0
  7  8  2  0
  7  9  1  0
  9 10  1  0
 10 11  1  0
 11 12  2  0
 11 13  1  0
 13 14  2  0
 13 18  1  0
 14 15  1  0
 15 16  2  0
 16 17  1  0
 17 18  2  0
  5  6  2  0
M  END
>  <minimizedAffinity>  (858) 
-8.50619

$$$$
data/reference_output_2/data/smiles/173581.pdb
     RDKit          3D

 29 32  0  0  0  0  0  0  0  0999 V2000
   70.7585   39.3186   58.4818 C   0  0  0  0  0  0  0  0  0  0  0  0
   71.5758   40.4216   58.5724 C   0  0  0  0  0  0  0  0  0  0  0  0
   73.0107   40.4984   58.9565 C   0  0  0  0  0  0  0  0  0  0  0  0
   70.8437   41.5001   58.2827 N   0  0  0  0  0  0  0  0  0  0  0  0
   69.5687   41.1797   58.0018 N   0  0  0  0  0  0  0  0  0  0  0  0
   69.5218   39.8198   58.1259 C   0  0  0  0  0  0  0  0  0  0  0  0
   68.3042   39.0220   57.8194 C   0  0  0  0  0  0  0  0  0  0  0  0
   73.1228   35.2055   56.8923 C   0  0  0  0  0  0  0  0  0  0  0  0
   72.2155   35.8946   57.8891 C   0  0  0  0  0  0  0  0  0  0  0  0
   71.9389   37.2239   57.7670 C   0  0  0  0  0  0  0  0  0  0  0  0
   71.1318   37.9000   58.6308 C   0  0  0  0  0  0  0  0  0  0  0  0
   70.6002   37.1694   59.6481 N   0  0  0  0  0  0  0  0  0  0  0  0
   70.8785   35.8516   59.7634 C   0  0  0  0  0  0  0  0  0  0  0  0
   70.3846   35.1695   60.7077 O   0  0  0  0  0  0  0  0  0  0  0  0
   71.6749   35.2055   58.9021 N   0  0  0  0  0  0  0  0  0  0  0  0
   68.5395   42.1175   57.6993 C   0  0  0  0  0  0  0  0  0  0  0  0
   68.7723   43.1448   56.6828 C   0  0  0  0  0  0  0  0  0  0  0  0
   69.2946   44.4544   57.0391 C   0  0  0  0  0  0  0  0  0  0  0  0
   69.9771   44.7297   58.0499 O   0  0  0  0  0  0  0  0  0  0  0  0
   69.0343   45.5972   56.1769 N   0  0  0  0  0  0  0  0  0  0  0  0
   69.5670   46.8758   56.5597 C   0  0  0  0  0  0  0  0  0  0  0  0
   68.7711   48.0206   55.9205 C   0  0  0  0  0  0  0  0  0  0  0  0
   68.8866   47.7907   54.4571 C   0  0  0  0  0  0  0  0  0  0  0  0
   69.2282   48.7852   53.5854 C   0  0  0  0  0  0  0  0  0  0  0  0
   69.3200   48.5169   52.2364 C   0  0  0  0  0  0  0  0  0  0  0  0
   69.0683   47.2447   51.7593 C   0  0  0  0  0  0  0  0  0  0  0  0
   68.7219   46.2444   52.6587 C   0  0  0  0  0  0  0  0  0  0  0  0
   68.6333   46.5251   54.0022 C   0  0  0  0  0  0  0  0  0  0  0  0
   68.2541   45.4202   54.9698 C   0  0  0  0  0  0  0  0  0  0  0  0
  8  9  1  0
  9 10  1  0
  9 15  2  0
 10 11  2  0
 11  1  1  0
 11 12  1  0
  1  2  1  0
  1  6  2  0
  2  3  1  0
  2  4  2  0
  4  5  1  0
  5 16  1  0
  5  6  1  0
 16 17  1  0
 17 18  1  0
 18 19  2  0
 18 20  1  0
 20 21  1  0
 20 29  1  0
 21 22  1  0
 22 23  1  0
 23 24  2  0
 23 28  1  0
 24 25  1  0
 25 26  2  0
 26 27  1  0
 27 28  2  0
 28 29  1  0
  6  7  1  0
 12 13  1  0
 13 14  2  0
 13 15  1  0
M  END
>  <minimizedAffinity>  (859) 
-8.50562

$$$$
data/200k_reference_output/data/smiles/50104.pdb
     RDKit          3D

 23 25  0  0  0  0  0  0  0  0999 V2000
   66.7806   42.8597   55.9971 O   0  0  0  0  0  0  0  0  0  0  0  0
   67.6682   42.2059   56.5710 C   0  0  0  0  0  0  0  0  0  0  0  0
   67.4681   40.8564   56.9800 N   0  0  0  0  0  0  0  0  0  0  0  0
   68.4935   40.1243   57.6345 C   0  0  0  0  0  0  0  0  0  0  0  0
   68.2795   38.9190   57.9866 O   0  0  0  0  0  0  0  0  0  0  0  0
   69.7965   40.7089   57.9214 C   0  0  0  0  0  0  0  0  0  0  0  0
   70.7575   39.9545   58.5595 C   0  0  0  0  0  0  0  0  0  0  0  0
   71.9845   40.5169   58.8246 C   0  0  0  0  0  0  0  0  0  0  0  0
   72.2143   41.8127   58.4463 C   0  0  0  0  0  0  0  0  0  0  0  0
   73.8891   42.6355   58.7886 Br  0  0  0  0  0  0  0  0  0  0  0  0
   71.2358   42.5782   57.7970 C   0  0  0  0  0  0  0  0  0  0  0  0
   70.0039   42.0354   57.5229 C   0  0  0  0  0  0  0  0  0  0  0  0
   68.9689   42.8031   56.8516 C   0  0  0  0  0  0  0  0  0  0  0  0
   69.1629   44.0427   56.4795 C   0  0  0  0  0  0  0  0  0  0  0  0
   68.1335   44.8135   55.8099 N   0  0  0  0  0  0  0  0  0  0  0  0
   68.5298   46.1547   55.4255 C   0  0  0  0  0  0  0  0  0  0  0  0
   68.4530   46.3920   53.9646 C   0  0  0  0  0  0  0  0  0  0  0  0
   69.2472   47.3414   53.3617 C   0  0  0  0  0  0  0  0  0  0  0  0
   69.1901   47.5803   51.9902 C   0  0  0  0  0  0  0  0  0  0  0  0
   68.3297   46.8634   51.2163 N   0  0  0  0  0  0  0  0  0  0  0  0
   67.5446   45.9291   51.7974 C   0  0  0  0  0  0  0  0  0  0  0  0
   66.7583   45.2857   51.0306 O   0  0  0  0  0  0  0  0  0  0  0  0
   67.5918   45.6814   53.1560 C   0  0  0  0  0  0  0  0  0  0  0  0
  1  2  2  0
  2  3  1  0
  2 13  1  0
  3  4  1  0
  4  5  2  0
  4  6  1  0
  6  7  1  0
  6 12  2  0
  7  8  2  0
  8  9  1  0
  9 10  1  0
  9 11  2  0
 11 12  1  0
 12 13  1  0
 13 14  2  0
 14 15  1  0
 15 16  1  0
 16 17  1  0
 17 18  1  0
 17 23  2  0
 18 19  2  0
 19 20  1  0
 20 21  1  0
 21 22  2  0
 21 23  1  0
M  END
>  <minimizedAffinity>  (860) 
-8.50491

$$$$
data/reference_output_2/data/smiles/136827.pdb
     RDKit          3D

 26 27  0  0  0  0  0  0  0  0999 V2000
   69.0828   47.8404   56.9129 S   0  0  0  0  0  0  0  0  0  0  0  0
   69.2736   49.2531   57.5343 O   0  0  0  0  0  0  0  0  0  0  0  0
   67.6341   47.5374   57.1986 O   0  0  0  0  0  0  0  0  0  0  0  0
   71.7595   46.1506   59.2373 C   0  0  0  0  0  0  0  0  0  0  0  0
   71.9098   44.8887   59.3351 C   0  0  0  0  0  0  0  0  0  0  0  0
   70.7347   44.4457   58.1822 C   0  0  0  0  0  0  0  0  0  0  0  0
   70.0731   45.3759   57.5887 C   0  0  0  0  0  0  0  0  0  0  0  0
   70.1362   46.7534   57.7084 C   0  0  0  0  0  0  0  0  0  0  0  0
   71.1189   47.1065   58.6628 C   0  0  0  0  0  0  0  0  0  0  0  0
   73.6753   47.0914   60.9797 C   0  0  0  0  0  0  0  0  0  0  0  0
   72.8857   46.6946   60.2648 C   0  0  0  0  0  0  0  0  0  0  0  0
   74.9234   49.0731   61.7003 C   0  0  0  0  0  0  0  0  0  0  0  0
   74.6832   47.5717   61.8967 C   0  0  0  0  0  0  0  0  0  0  0  0
   74.2152   47.3777   63.3358 C   0  0  0  0  0  0  0  0  0  0  0  0
   75.9677   46.8183   61.6413 C   0  0  0  0  0  0  0  0  0  0  0  0
   69.3401   48.0613   55.2522 N   0  0  0  0  0  0  0  0  0  0  0  0
   68.8185   47.3079   54.1853 C   0  0  0  0  0  0  0  0  0  0  0  0
   68.1749   46.1264   54.3694 C   0  0  0  0  0  0  0  0  0  0  0  0
   67.7285   45.3931   53.2620 C   0  0  0  0  0  0  0  0  0  0  0  0
   67.9385   45.8506   51.9869 C   0  0  0  0  0  0  0  0  0  0  0  0
   68.5842   47.0345   51.8140 C   0  0  0  0  0  0  0  0  0  0  0  0
   69.0289   47.7731   52.9072 C   0  0  0  0  0  0  0  0  0  0  0  0
   69.8498   49.3012   52.6338 S   0  0  0  0  0  0  0  0  0  0  0  0
   69.8264   49.7222   50.9588 N   0  0  0  0  0  0  0  0  0  0  0  0
   71.3131   49.0936   52.9809 O   0  0  0  0  0  0  0  0  0  0  0  0
   69.2104   50.3698   53.5049 O   0  0  0  0  0  0  0  0  0  0  0  0
 12 13  1  0
 13 14  1  0
 13 15  1  0
 13 10  1  0
 10 11  3  0
 11  4  1  0
  4  5  2  0
  4  9  1  0
  5  6  1  0
  6  7  2  0
  7  8  1  0
  8  1  1  0
  8  9  2  0
  1  2  2  0
  1  3  2  0
  1 16  1  0
 16 17  1  0
 17 18  2  0
 17 22  1  0
 18 19  1  0
 19 20  2  0
 20 21  1  0
 21 22  2  0
 22 23  1  0
 23 24  1  0
 23 25  2  0
 23 26  2  0
M  END
>  <minimizedAffinity>  (861) 
-8.50469

$$$$
data/reference_output_2/data/smiles/161539.pdb
     RDKit          3D

 29 32  0  0  0  0  0  0  0  0999 V2000
   67.3668   43.8861   55.0495 N   0  0  0  0  0  0  0  0  0  0  0  0
   67.9533   43.1818   56.1135 C   0  0  0  0  0  0  0  0  0  0  0  0
   68.9976   43.6512   56.6360 O   0  0  0  0  0  0  0  0  0  0  0  0
   67.4400   41.9652   56.6440 N   0  0  0  0  0  0  0  0  0  0  0  0
   69.3719   48.6380   52.8201 C   0  0  0  0  0  0  0  0  0  0  0  0
   69.3577   48.1968   51.5134 N   0  0  0  0  0  0  0  0  0  0  0  0
   68.9133   46.9707   51.4451 N   0  0  0  0  0  0  0  0  0  0  0  0
   68.6028   46.5038   52.6647 C   0  0  0  0  0  0  0  0  0  0  0  0
   68.0999   45.2975   53.1660 C   0  0  0  0  0  0  0  0  0  0  0  0
   67.8749   45.1026   54.5128 C   0  0  0  0  0  0  0  0  0  0  0  0
   68.1582   46.1250   55.3409 N   0  0  0  0  0  0  0  0  0  0  0  0
   68.6480   47.3087   54.8756 C   0  0  0  0  0  0  0  0  0  0  0  0
   68.8805   47.5243   53.5336 C   0  0  0  0  0  0  0  0  0  0  0  0
   70.0780   50.9053   53.8044 C   0  0  0  0  0  0  0  0  0  0  0  0
   69.7317   49.7618   53.3147 O   0  0  0  0  0  0  0  0  0  0  0  0
   68.0378   41.2467   57.7343 C   0  0  2  0  0  0  0  0  0  0  0  0
   68.3804   39.8020   57.3786 C   0  0  0  0  0  0  0  0  0  0  0  0
   69.3558   39.3379   58.4602 C   0  0  0  0  0  0  0  0  0  0  0  0
   69.1217   40.0364   59.7790 C   0  0  0  0  0  0  0  0  0  0  0  0
   67.8166   40.5102   59.9881 N   0  0  1  0  0  0  0  0  0  0  0  0
   67.1391   41.1735   58.9467 C   0  0  0  0  0  0  0  0  0  0  0  0
   67.0841   40.0630   61.1051 C   0  0  0  0  0  0  0  0  0  0  0  0
   66.2740   38.8785   60.7287 C   0  0  0  0  0  0  0  0  0  0  0  0
   64.9724   39.0147   60.3588 C   0  0  0  0  0  0  0  0  0  0  0  0
   64.2635   37.8681   60.0153 C   0  0  0  0  0  0  0  0  0  0  0  0
   64.8360   36.6100   60.0393 C   0  0  0  0  0  0  0  0  0  0  0  0
   66.1659   36.4926   60.4196 C   0  0  0  0  0  0  0  0  0  0  0  0
   66.8501   37.6329   60.7544 C   0  0  0  0  0  0  0  0  0  0  0  0
   68.1637   37.4961   61.1276 F   0  0  0  0  0  0  0  0  0  0  0  0
 14 15  1  0
 15  5  1  0
  5  6  2  0
  5 13  1  0
  6  7  1  0
  7  8  1  0
  8  9  1  0
  8 13  2  0
  9 10  2  0
 10  1  1  0
 10 11  1  0
  1  2  1  0
  2  3  2  0
  2  4  1  0
 16  4  1  6
 16 17  1  0
 16 21  1  0
 17 18  1  0
 18 19  1  0
 19 20  1  0
 20 22  1  6
 20 21  1  0
 22 23  1  0
 23 24  2  0
 23 28  1  0
 24 25  1  0
 25 26  2  0
 26 27  1  0
 27 28  2  0
 28 29  1  0
 11 12  2  0
 12 13  1  0
M  CHG  1  20   1
M  END
>  <minimizedAffinity>  (862) 
-8.50462

$$$$
data/200k_reference_output/data/smiles/52359.pdb
     RDKit          3D

 25 27  0  0  0  0  0  0  0  0999 V2000
   70.7194   43.8873   58.0797 O   0  0  0  0  0  0  0  0  0  0  0  0
   69.6762   43.8303   57.3768 C   0  0  0  0  0  0  0  0  0  0  0  0
   69.1492   45.0416   56.8694 N   0  0  0  0  0  0  0  0  0  0  0  0
   69.0595   42.5504   57.1141 C   0  0  0  0  0  0  0  0  0  0  0  0
   68.0634   42.3577   56.1962 C   0  0  0  0  0  0  0  0  0  0  0  0
   67.5306   41.0786   56.0151 C   0  0  0  0  0  0  0  0  0  0  0  0
   66.5466   40.9090   55.1024 F   0  0  0  0  0  0  0  0  0  0  0  0
   67.9907   40.0057   56.7458 C   0  0  0  0  0  0  0  0  0  0  0  0
   69.0044   40.1852   57.6856 C   0  0  0  0  0  0  0  0  0  0  0  0
   69.4989   41.4593   57.8304 C   0  0  0  0  0  0  0  0  0  0  0  0
   69.5073   39.0633   58.4711 C   0  0  0  0  0  0  0  0  0  0  0  0
   68.9758   38.6871   59.6964 C   0  0  0  0  0  0  0  0  0  0  0  0
   69.6771   37.5967   60.1690 C   0  0  0  0  0  0  0  0  0  0  0  0
   70.6221   37.3449   59.2008 C   0  0  0  0  0  0  0  0  0  0  0  0
   70.4686   38.2372   58.2377 O   0  0  0  0  0  0  0  0  0  0  0  0
   69.7696   46.2902   57.1380 N   0  0  0  0  0  0  0  0  0  0  0  0
   68.9223   47.5374   56.3113 S   0  0  0  0  0  0  0  0  0  0  0  0
   69.5715   48.8560   56.6195 O   0  0  0  0  0  0  0  0  0  0  0  0
   67.5185   47.6093   56.8566 O   0  0  0  0  0  0  0  0  0  0  0  0
   68.8172   47.2644   54.6058 C   0  0  0  0  0  0  0  0  0  0  0  0
   68.0651   46.2029   54.1475 C   0  0  0  0  0  0  0  0  0  0  0  0
   67.9552   45.9507   52.7911 C   0  0  0  0  0  0  0  0  0  0  0  0
   68.6075   46.7714   51.8723 C   0  0  0  0  0  0  0  0  0  0  0  0
   69.3571   47.8327   52.3536 C   0  0  0  0  0  0  0  0  0  0  0  0
   69.4705   48.0884   53.6973 C   0  0  0  0  0  0  0  0  0  0  0  0
  1  2  2  0
  2  3  1  0
  2  4  1  0
  3 16  1  0
 16 17  1  0
 17 18  2  0
 17 19  2  0
 17 20  1  0
 20 21  2  0
 20 25  1  0
 21 22  1  0
 22 23  2  0
 23 24  1  0
 24 25  2  0
  4  5  2  0
  4 10  1  0
  5  6  1  0
  6  7  1  0
  6  8  2  0
  8  9  1  0
  9 11  1  0
  9 10  2  0
 11 12  2  0
 11 15  1  0
 12 13  1  0
 13 14  2  0
 14 15  1  0
M  END
>  <minimizedAffinity>  (863) 
-8.50392

$$$$
data/200k_reference_output/data/smiles/33598.pdb
     RDKit          3D

 28 31  0  0  0  0  0  0  0  0999 V2000
   69.8306   49.7820   55.9236 N   0  0  0  0  0  0  0  0  0  0  0  0
   68.8073   50.7642   56.0001 C   0  0  0  0  0  0  0  0  0  0  0  0
   67.7359   50.5609   56.6665 O   0  0  0  0  0  0  0  0  0  0  0  0
   69.0639   52.0020   55.2728 C   0  0  0  0  0  0  0  0  0  0  0  0
   70.4050   51.5129   54.1307 S   0  0  0  0  0  0  0  0  0  0  0  0
   70.4660   49.7358   54.6786 C   0  0  2  0  0  0  0  0  0  0  0  0
   69.9107   48.9679   53.5868 C   0  0  0  0  0  0  0  0  0  0  0  0
   70.0967   49.3793   52.2562 C   0  0  0  0  0  0  0  0  0  0  0  0
   69.5047   48.5141   51.4235 N   0  0  0  0  0  0  0  0  0  0  0  0
   68.9369   47.5510   52.1467 C   0  0  0  0  0  0  0  0  0  0  0  0
   68.2142   46.4412   51.7802 C   0  0  0  0  0  0  0  0  0  0  0  0
   67.7444   45.6151   52.7807 C   0  0  0  0  0  0  0  0  0  0  0  0
   67.9755   45.8660   54.1054 C   0  0  0  0  0  0  0  0  0  0  0  0
   68.7038   46.9822   54.4792 C   0  0  0  0  0  0  0  0  0  0  0  0
   69.1746   47.8101   53.4874 C   0  0  0  0  0  0  0  0  0  0  0  0
   71.8102   50.3497   57.8946 O   0  0  0  0  0  0  0  0  0  0  0  0
   71.1392   49.2934   57.9954 C   0  0  0  0  0  0  0  0  0  0  0  0
   70.1534   48.9705   57.0355 N   0  0  0  0  0  0  0  0  0  0  0  0
   71.4520   48.4355   59.1602 C   0  0  0  0  0  0  0  0  0  0  0  0
   71.9576   47.1295   58.8270 N   0  0  0  0  0  0  0  0  0  0  0  0
   71.1297   46.0027   58.5992 C   0  0  0  0  0  0  0  0  0  0  0  0
   69.8752   46.1764   58.7114 O   0  0  0  0  0  0  0  0  0  0  0  0
   71.6452   44.6839   58.2491 C   0  0  0  0  0  0  0  0  0  0  0  0
   73.0197   44.4983   58.0620 C   0  0  0  0  0  0  0  0  0  0  0  0
   73.5560   43.2725   57.7304 C   0  0  0  0  0  0  0  0  0  0  0  0
   72.7484   42.1667   57.5683 C   0  0  0  0  0  0  0  0  0  0  0  0
   71.3960   42.3478   57.7522 C   0  0  0  0  0  0  0  0  0  0  0  0
   70.8415   43.5906   58.0889 C   0  0  0  0  0  0  0  0  0  0  0  0
 16 17  2  0
 17 19  1  0
 17 18  1  0
 19 20  1  0
 20 21  1  0
 21 22  2  0
 21 23  1  0
 23 24  2  0
 23 28  1  0
 24 25  1  0
 25 26  2  0
 26 27  1  0
 27 28  2  0
 18  1  1  0
  1  2  1  0
  1  6  1  0
  2  3  2  0
  2  4  1  0
  4  5  1  0
  5  6  1  0
  6  7  1  6
  7  8  2  0
  7 15  1  0
  8  9  1  0
  9 10  1  0
 10 11  1  0
 10 15  2  0
 11 12  2  0
 12 13  1  0
 13 14  2  0
 14 15  1  0
M  END
>  <minimizedAffinity>  (864) 
-8.50352

$$$$
data/200k_reference_output/data/smiles/69199.pdb
     RDKit          3D

 29 32  0  0  0  0  0  0  0  0999 V2000
   71.1323   41.8479   58.2169 C   0  0  0  0  0  0  0  0  0  0  0  0
   71.0961   43.1620   58.4574 C   0  0  0  0  0  0  0  0  0  0  0  0
   70.3285   44.1219   57.6939 C   0  0  0  0  0  0  0  0  0  0  0  0
   70.4589   45.4780   57.8390 C   0  0  0  0  0  0  0  0  0  0  0  0
   69.6812   46.3402   57.0636 C   0  0  0  0  0  0  0  0  0  0  0  0
   68.7898   45.8728   56.1608 N   0  0  0  0  0  0  0  0  0  0  0  0
   68.6468   44.5429   56.0038 C   0  0  0  0  0  0  0  0  0  0  0  0
   69.4115   43.6777   56.7662 C   0  0  0  0  0  0  0  0  0  0  0  0
   68.0293   46.8386   55.4047 C   0  0  0  0  0  0  0  0  0  0  0  0
   68.7239   47.2890   54.1783 C   0  0  0  0  0  0  0  0  0  0  0  0
   69.4399   48.4611   54.1971 C   0  0  0  0  0  0  0  0  0  0  0  0
   70.1014   48.9197   53.0833 C   0  0  0  0  0  0  0  0  0  0  0  0
   70.0358   48.1735   51.9286 C   0  0  0  0  0  0  0  0  0  0  0  0
   70.6599   48.5551   50.7866 F   0  0  0  0  0  0  0  0  0  0  0  0
   69.3227   46.9961   51.8943 C   0  0  0  0  0  0  0  0  0  0  0  0
   68.6719   46.5649   53.0225 C   0  0  0  0  0  0  0  0  0  0  0  0
   72.8906   41.4428   59.6772 O   0  0  0  0  0  0  0  0  0  0  0  0
   71.9090   40.9394   59.0033 C   0  0  0  0  0  0  0  0  0  0  0  0
   71.7091   39.5354   59.1159 C   0  0  0  0  0  0  0  0  0  0  0  0
   72.3475   38.6303   58.2417 C   0  0  0  0  0  0  0  0  0  0  0  0
   72.1692   37.2700   58.3331 C   0  0  0  0  0  0  0  0  0  0  0  0
   72.7902   36.3811   57.4807 C   0  0  0  0  0  0  0  0  0  0  0  0
   72.5906   35.0232   57.5986 C   0  0  0  0  0  0  0  0  0  0  0  0
   71.7647   34.5648   58.5769 C   0  0  0  0  0  0  0  0  0  0  0  0
   71.1504   35.4397   59.4187 C   0  0  0  0  0  0  0  0  0  0  0  0
   71.3306   36.8177   59.3274 C   0  0  0  0  0  0  0  0  0  0  0  0
   70.7335   37.6278   60.1422 O   0  0  0  0  0  0  0  0  0  0  0  0
   70.9097   38.9515   60.0487 C   0  0  0  0  0  0  0  0  0  0  0  0
   70.2631   39.6369   60.9136 O   0  0  0  0  0  0  0  0  0  0  0  0
 17 18  2  0
 18  1  1  0
 18 19  1  0
  1  2  2  0
  2  3  1  0
  3  4  2  0
  3  8  1  0
  4  5  1  0
  5  6  2  0
  6  9  1  0
  6  7  1  0
  9 10  1  0
 10 11  2  0
 10 16  1  0
 11 12  1  0
 12 13  2  0
 13 14  1  0
 13 15  1  0
 15 16  2  0
  7  8  2  0
 19 20  2  0
 19 28  1  0
 20 21  1  0
 21 22  2  0
 21 26  1  0
 22 23  1  0
 23 24  2  0
 24 25  1  0
 25 26  2  0
 26 27  1  0
 27 28  1  0
 28 29  2  0
M  CHG  1   6   1
M  END
>  <minimizedAffinity>  (865) 
-8.50349

$$$$
data/200k_reference_output/data/smiles/15277.pdb
     RDKit          3D

 28 31  0  0  0  0  0  0  0  0999 V2000
   68.0794   40.1614   57.7830 C   0  0  0  0  0  0  0  0  0  0  0  0
   69.3546   40.2178   58.5897 C   0  0  1  0  0  0  0  0  0  0  0  0
   70.0822   38.9247   58.4001 C   0  0  0  0  0  0  0  0  0  0  0  0
   71.3661   38.8907   59.2223 C   0  0  0  0  0  0  0  0  0  0  0  0
   72.0989   40.1791   59.0183 C   0  0  0  0  0  0  0  0  0  0  0  0
   73.4525   40.1481   59.2449 C   0  0  0  0  0  0  0  0  0  0  0  0
   74.2167   41.3054   59.0586 C   0  0  0  0  0  0  0  0  0  0  0  0
   75.5543   41.2793   59.2818 F   0  0  0  0  0  0  0  0  0  0  0  0
   73.6305   42.4758   58.6498 C   0  0  0  0  0  0  0  0  0  0  0  0
   72.2587   42.4901   58.4251 C   0  0  0  0  0  0  0  0  0  0  0  0
   71.6719   43.6592   58.0176 C   0  0  0  0  0  0  0  0  0  0  0  0
   72.3986   44.8269   57.8215 O   0  0  0  0  0  0  0  0  0  0  0  0
   70.2913   43.7133   57.7823 C   0  0  0  0  0  0  0  0  0  0  0  0
   69.6123   42.5524   57.9850 C   0  0  0  0  0  0  0  0  0  0  0  0
   68.3833   42.5132   57.7999 O   0  0  0  0  0  0  0  0  0  0  0  0
   70.1597   41.3669   58.3901 N   0  0  0  0  0  0  0  0  0  0  0  0
   71.4798   41.3382   58.6075 C   0  0  0  0  0  0  0  0  0  0  0  0
   69.7045   44.9799   57.3494 C   0  0  0  0  0  0  0  0  0  0  0  0
   69.7205   45.9856   58.1480 O   0  0  0  0  0  0  0  0  0  0  0  0
   69.0967   45.2434   56.1036 N   0  0  0  0  0  0  0  0  0  0  0  0
   68.5427   46.5386   55.7674 C   0  0  0  0  0  0  0  0  0  0  0  0
   67.9937   46.5251   54.3682 C   0  0  0  0  0  0  0  0  0  0  0  0
   68.7884   47.2967   53.3928 C   0  0  0  0  0  0  0  0  0  0  0  0
   69.2893   48.5619   53.6046 C   0  0  0  0  0  0  0  0  0  0  0  0
   70.0129   49.2162   52.6234 C   0  0  0  0  0  0  0  0  0  0  0  0
   70.2220   48.5707   51.4262 C   0  0  0  0  0  0  0  0  0  0  0  0
   69.7392   47.3450   51.2165 N   0  0  0  0  0  0  0  0  0  0  0  0
   69.0374   46.6994   52.1564 C   0  0  0  0  0  0  0  0  0  0  0  0
  2  1  1  6
  2  3  1  0
  2 16  1  0
  3  4  1  0
  4  5  1  0
  5  6  1  0
  5 17  2  0
  6  7  2  0
  7  8  1  0
  7  9  1  0
  9 10  2  0
 10 11  1  0
 10 17  1  0
 11 12  1  0
 11 13  2  0
 13 18  1  0
 13 14  1  0
 18 19  2  0
 18 20  1  0
 20 21  1  0
 21 22  1  0
 22 23  1  0
 23 24  2  0
 23 28  1  0
 24 25  1  0
 25 26  2  0
 26 27  1  0
 27 28  2  0
 14 15  2  0
 14 16  1  0
 16 17  1  0
M  END
>  <minimizedAffinity>  (866) 
-8.50333

$$$$
data/200k_reference_output/data/smiles/16631.pdb
     RDKit          3D

 27 29  0  0  0  0  0  0  0  0999 V2000
   72.7342   35.2796   54.9719 C   0  0  0  0  0  0  0  0  0  0  0  0
   73.8402   35.2259   54.2495 C   0  0  0  0  0  0  0  0  0  0  0  0
   75.0002   35.1401   54.9054 N   0  0  0  0  0  0  0  0  0  0  0  0
   76.1433   35.0840   54.1941 C   0  0  0  0  0  0  0  0  0  0  0  0
   77.2509   35.0027   54.7518 O   0  0  0  0  0  0  0  0  0  0  0  0
   76.1375   35.1139   52.7977 C   0  0  0  0  0  0  0  0  0  0  0  0
   77.2469   35.0610   52.0888 C   0  0  0  0  0  0  0  0  0  0  0  0
   74.9776   35.2010   52.1369 N   0  0  0  0  0  0  0  0  0  0  0  0
   73.8470   35.2556   52.8687 C   0  0  0  0  0  0  0  0  0  0  0  0
   72.7245   35.3381   52.2762 O   0  0  0  0  0  0  0  0  0  0  0  0
   72.5713   36.5088   58.5107 C   0  0  0  0  0  0  0  0  0  0  0  0
   72.8515   35.3485   59.2072 C   0  0  0  0  0  0  0  0  0  0  0  0
   73.0972   34.1504   58.5376 C   0  0  0  0  0  0  0  0  0  0  0  0
   73.0623   34.1134   57.1546 C   0  0  0  0  0  0  0  0  0  0  0  0
   73.3024   32.9383   56.4522 O   0  0  0  0  0  0  0  0  0  0  0  0
   72.7883   35.2441   56.4509 C   0  0  0  0  0  0  0  0  0  0  0  0
   72.5471   36.4224   57.1338 C   0  0  0  0  0  0  0  0  0  0  0  0
   73.5046   38.6308   59.4087 C   0  0  0  0  0  0  0  0  0  0  0  0
   72.3028   37.8004   59.1396 C   0  0  0  0  0  0  0  0  0  0  0  0
   71.5749   37.5426   60.4504 C   0  0  0  0  0  0  0  0  0  0  0  0
   71.2997   38.5384   58.2436 C   0  0  0  0  0  0  0  0  0  0  0  0
   77.2713   35.0903   50.6290 C   0  0  0  0  0  0  0  0  0  0  0  0
   78.0103   35.9573   49.8903 C   0  0  0  0  0  0  0  0  0  0  0  0
   77.9694   35.9106   48.5132 C   0  0  0  0  0  0  0  0  0  0  0  0
   77.1957   35.0017   47.8233 C   0  0  0  0  0  0  0  0  0  0  0  0
   76.4495   34.1257   48.5839 C   0  0  0  0  0  0  0  0  0  0  0  0
   76.4842   34.1660   49.9718 C   0  0  0  0  0  0  0  0  0  0  0  0
 18 19  1  0
 19 20  1  0
 19 21  1  0
 19 11  1  0
 11 12  2  0
 11 17  1  0
 12 13  1  0
 13 14  2  0
 14 15  1  0
 14 16  1  0
 16  1  1  0
 16 17  2  0
  1  2  2  0
  2  3  1  0
  2  9  1  0
  3  4  1  0
  4  5  2  0
  4  6  1  0
  6  7  2  0
  6  8  1  0
  7 22  1  0
 22 23  2  0
 22 27  1  0
 23 24  1  0
 24 25  2  0
 25 26  1  0
 26 27  2  0
  8  9  1  0
  9 10  2  0
M  END
>  <minimizedAffinity>  (867) 
-8.50329

$$$$
data/reference_output_2/data/smiles/89951.pdb
     RDKit          3D

 27 30  0  0  0  0  0  0  0  0999 V2000
   70.7708   47.1862   57.6896 O   0  0  0  0  0  0  0  0  0  0  0  0
   70.0567   46.1785   57.5067 C   0  0  0  0  0  0  0  0  0  0  0  0
   68.9788   46.2644   56.5924 N   0  0  0  0  0  0  0  0  0  0  0  0
   70.3129   44.9256   58.2127 C   0  0  0  0  0  0  0  0  0  0  0  0
   70.2107   43.6367   57.6885 C   0  0  0  0  0  0  0  0  0  0  0  0
   70.5372   42.7216   58.6665 C   0  0  0  0  0  0  0  0  0  0  0  0
   70.8277   43.4593   59.7517 N   0  0  0  0  0  0  0  0  0  0  0  0
   70.6977   44.7436   59.4880 N   0  0  0  0  0  0  0  0  0  0  0  0
   70.5632   41.2680   58.5607 C   0  0  0  0  0  0  0  0  0  0  0  0
   69.4163   40.5069   58.4670 C   0  0  0  0  0  0  0  0  0  0  0  0
   69.4493   39.1296   58.3706 C   0  0  0  0  0  0  0  0  0  0  0  0
   70.6633   38.4463   58.3644 C   0  0  0  0  0  0  0  0  0  0  0  0
   71.8099   39.2010   58.4577 C   0  0  0  0  0  0  0  0  0  0  0  0
   71.7610   40.5881   58.5543 C   0  0  0  0  0  0  0  0  0  0  0  0
   72.9530   41.2927   58.6446 O   0  0  0  0  0  0  0  0  0  0  0  0
   68.6341   47.4463   55.8350 C   0  0  0  0  0  0  0  0  0  0  0  0
   68.5652   47.1332   54.3763 C   0  0  0  0  0  0  0  0  0  0  0  0
   67.9093   45.9951   53.9144 C   0  0  0  0  0  0  0  0  0  0  0  0
   67.8181   45.6943   52.5695 C   0  0  0  0  0  0  0  0  0  0  0  0
   68.3813   46.5252   51.6361 C   0  0  0  0  0  0  0  0  0  0  0  0
   69.0302   47.6495   52.0898 C   0  0  0  0  0  0  0  0  0  0  0  0
   69.1225   47.9507   53.4234 C   0  0  0  0  0  0  0  0  0  0  0  0
   69.8389   49.1433   53.7853 N   0  0  0  0  0  0  0  0  0  0  0  0
   69.3004   50.3827   53.6122 C   0  0  0  0  0  0  0  0  0  0  0  0
   70.2157   51.3134   54.0425 C   0  0  0  0  0  0  0  0  0  0  0  0
   71.3101   50.6035   54.4760 C   0  0  0  0  0  0  0  0  0  0  0  0
   71.0294   49.3005   54.2977 N   0  0  0  0  0  0  0  0  0  0  0  0
  1  2  2  0
  2  3  1  0
  2  4  1  0
  3 16  1  0
 16 17  1  0
 17 18  2  0
 17 22  1  0
 18 19  1  0
 19 20  2  0
 20 21  1  0
 21 22  2  0
 22 23  1  0
 23 24  1  0
 23 27  1  0
 24 25  2  0
 25 26  1  0
 26 27  2  0
  4  5  2  0
  4  8  1  0
  5  6  1  0
  6  9  1  0
  6  7  2  0
  9 10  2  0
  9 14  1  0
 10 11  1  0
 11 12  2  0
 12 13  1  0
 13 14  2  0
 14 15  1  0
  7  8  1  0
M  END
>  <minimizedAffinity>  (868) 
-8.50163

$$$$
data/200k_reference_output/data/smiles/15268.pdb
     RDKit          3D

 29 32  0  0  0  0  0  0  0  0999 V2000
   70.1378   49.5707   55.7806 C   0  0  1  0  0  0  0  0  0  0  0  0
   68.8706   49.8907   56.4683 C   0  0  0  0  0  0  0  0  0  0  0  0
   68.4416   48.8251   57.2162 C   0  0  0  0  0  0  0  0  0  0  0  0
   67.2723   48.8568   57.9674 C   0  0  0  0  0  0  0  0  0  0  0  0
   66.5108   50.0059   57.9629 C   0  0  0  0  0  0  0  0  0  0  0  0
   66.9394   51.0858   57.2095 C   0  0  0  0  0  0  0  0  0  0  0  0
   68.0992   51.0428   56.4691 C   0  0  0  0  0  0  0  0  0  0  0  0
   68.4089   52.1794   55.7672 O   0  0  0  0  0  0  0  0  0  0  0  0
   68.8687   52.3644   54.4547 C   0  0  0  0  0  0  0  0  0  0  0  0
   69.8785   51.4205   53.9887 C   0  0  0  0  0  0  0  0  0  0  0  0
   70.5398   51.8322   52.9898 O   0  0  0  0  0  0  0  0  0  0  0  0
   70.2351   50.1309   54.4696 N   0  0  0  0  0  0  0  0  0  0  0  0
   72.4152   49.3898   56.4978 O   0  0  0  0  0  0  0  0  0  0  0  0
   71.3399   50.0259   56.5785 C   0  0  0  0  0  0  0  0  0  0  0  0
   71.2652   51.1611   57.4124 N   0  0  0  0  0  0  0  0  0  0  0  0
   72.3545   51.6707   58.2033 C   0  0  0  0  0  0  0  0  0  0  0  0
   72.9175   52.8729   57.5495 C   0  0  0  0  0  0  0  0  0  0  0  0
   73.4852   53.9360   58.2068 C   0  0  0  0  0  0  0  0  0  0  0  0
   74.0125   55.0422   57.5582 C   0  0  0  0  0  0  0  0  0  0  0  0
   73.9567   55.0623   56.1819 C   0  0  0  0  0  0  0  0  0  0  0  0
   73.3980   54.0253   55.4630 C   0  0  0  0  0  0  0  0  0  0  0  0
   72.8870   52.9474   56.1532 C   0  0  0  0  0  0  0  0  0  0  0  0
   70.7889   49.2460   53.4727 C   0  0  0  0  0  0  0  0  0  0  0  0
   69.7375   48.2386   53.0975 C   0  0  0  0  0  0  0  0  0  0  0  0
   69.0107   47.5365   54.0338 C   0  0  0  0  0  0  0  0  0  0  0  0
   68.0543   46.6260   53.6227 C   0  0  0  0  0  0  0  0  0  0  0  0
   67.7923   46.3855   52.2910 C   0  0  0  0  0  0  0  0  0  0  0  0
   68.5166   47.0856   51.4054 N   0  0  0  0  0  0  0  0  0  0  0  0
   69.4503   47.9759   51.7687 C   0  0  0  0  0  0  0  0  0  0  0  0
 13 14  2  0
 14 15  1  0
  1 14  1  1
 15 16  1  0
 16 17  1  0
 17 18  2  0
 17 22  1  0
 18 19  1  0
 19 20  2  0
 20 21  1  0
 21 22  2  0
  1  2  1  0
  1 12  1  0
  2  3  2  0
  2  7  1  0
  3  4  1  0
  4  5  2  0
  5  6  1  0
  6  7  2  0
  7  8  1  0
  8  9  1  0
  9 10  1  0
 10 11  2  0
 10 12  1  0
 12 23  1  0
 23 24  1  0
 24 25  2  0
 24 29  1  0
 25 26  1  0
 26 27  2  0
 27 28  1  0
 28 29  2  0
M  END
>  <minimizedAffinity>  (869) 
-8.50085

$$$$
data/200k_reference_output/data/smiles/14182.pdb
     RDKit          3D

 26 29  0  0  0  0  0  0  0  0999 V2000
   72.2158   45.5140   59.6632 C   0  0  0  0  0  0  0  0  0  0  0  0
   72.6900   46.6786   60.2565 C   0  0  0  0  0  0  0  0  0  0  0  0
   72.1554   47.9051   59.9134 C   0  0  0  0  0  0  0  0  0  0  0  0
   71.1431   48.0261   58.9797 C   0  0  0  0  0  0  0  0  0  0  0  0
   70.6679   46.8853   58.3891 C   0  0  0  0  0  0  0  0  0  0  0  0
   69.6715   46.7010   57.4322 C   0  0  0  0  0  0  0  0  0  0  0  0
   69.6380   45.3712   57.2305 N   0  0  0  0  0  0  0  0  0  0  0  0
   70.5310   44.7564   57.9888 N   0  0  0  0  0  0  0  0  0  0  0  0
   71.2059   45.6696   58.7374 C   0  0  0  0  0  0  0  0  0  0  0  0
   68.6920   47.9285   56.6716 S   0  0  0  0  0  0  0  0  0  0  0  0
   68.8314   49.1818   57.4951 O   0  0  0  0  0  0  0  0  0  0  0  0
   67.2750   47.4473   56.6469 O   0  0  0  0  0  0  0  0  0  0  0  0
   69.2599   48.3107   55.0587 C   0  0  0  0  0  0  0  0  0  0  0  0
   70.1083   49.3716   54.8386 C   0  0  0  0  0  0  0  0  0  0  0  0
   70.5222   49.6269   53.5575 C   0  0  0  0  0  0  0  0  0  0  0  0
   70.0820   48.8230   52.5353 C   0  0  0  0  0  0  0  0  0  0  0  0
   69.2260   47.7487   52.7470 C   0  0  0  0  0  0  0  0  0  0  0  0
   68.7988   46.9561   51.7040 C   0  0  0  0  0  0  0  0  0  0  0  0
   67.9498   45.8909   51.9137 C   0  0  0  0  0  0  0  0  0  0  0  0
   67.5349   45.6378   53.2067 C   0  0  0  0  0  0  0  0  0  0  0  0
   67.9662   46.4354   54.2449 C   0  0  0  0  0  0  0  0  0  0  0  0
   68.8218   47.5108   54.0443 C   0  0  0  0  0  0  0  0  0  0  0  0
   72.7447   44.2489   59.9972 N   0  0  0  0  0  0  0  0  0  0  0  0
   72.4283   43.6229   61.2515 C   0  0  0  0  0  0  0  0  0  0  0  0
   70.2808   43.5268   62.4278 N   0  0  0  0  0  0  0  0  0  0  0  0
   71.0405   43.0566   61.2902 C   0  0  0  0  0  0  0  0  0  0  0  0
 25 26  1  0
 26 24  1  0
 24 23  1  0
 23  1  1  0
  1  2  2  0
  1  9  1  0
  2  3  1  0
  3  4  2  0
  4  5  1  0
  5  6  1  0
  5  9  2  0
  6 10  1  0
  6  7  2  0
 10 11  2  0
 10 12  2  0
 10 13  1  0
 13 14  2  0
 13 22  1  0
 14 15  1  0
 15 16  2  0
 16 17  1  0
 17 18  1  0
 17 22  2  0
 18 19  2  0
 19 20  1  0
 20 21  2  0
 21 22  1  0
  7  8  1  0
  8  9  1  0
M  CHG  1  25   1
M  END
>  <minimizedAffinity>  (870) 
-8.50060

$$$$
