data/reference_output_2/data/smiles/102560.pdb
     RDKit          3D

 26 28  0  0  0  0  0  0  0  0999 V2000
   68.9832   45.0555   56.2445 N   0  0  0  0  0  0  0  0  0  0  0  0
   69.3302   46.3419   56.7048 C   0  0  0  0  0  0  0  0  0  0  0  0
   69.7110   46.3706   57.9312 O   0  0  0  0  0  0  0  0  0  0  0  0
   67.5368   42.8336   55.7524 O   0  0  0  0  0  0  0  0  0  0  0  0
   68.2850   42.7465   56.7850 C   0  0  0  0  0  0  0  0  0  0  0  0
   69.0381   43.9033   57.0422 N   0  0  0  0  0  0  0  0  0  0  0  0
   68.2655   41.5108   57.5394 C   0  0  0  0  0  0  0  0  0  0  0  0
   68.4750   41.5637   58.9226 C   0  0  0  0  0  0  0  0  0  0  0  0
   68.4736   40.4459   59.7223 C   0  0  0  0  0  0  0  0  0  0  0  0
   68.2626   39.1898   59.2007 C   0  0  0  0  0  0  0  0  0  0  0  0
   68.0537   39.1078   57.8470 C   0  0  0  0  0  0  0  0  0  0  0  0
   68.0564   40.2542   57.0351 C   0  0  0  0  0  0  0  0  0  0  0  0
   67.8385   40.1076   55.6698 O   0  0  0  0  0  0  0  0  0  0  0  0
   69.3124   47.6028   55.9750 C   0  0  0  0  0  0  0  0  0  0  0  0
   68.9837   47.3526   54.5646 C   0  0  0  0  0  0  0  0  0  0  0  0
   68.0400   46.4125   54.2359 C   0  0  0  0  0  0  0  0  0  0  0  0
   67.6976   46.1210   52.9294 C   0  0  0  0  0  0  0  0  0  0  0  0
   68.3102   46.7854   51.8908 C   0  0  0  0  0  0  0  0  0  0  0  0
   69.2598   47.7319   52.1972 C   0  0  0  0  0  0  0  0  0  0  0  0
   69.5851   48.0055   53.5133 C   0  0  0  0  0  0  0  0  0  0  0  0
   68.4919   48.6879   56.5554 C   0  0  0  0  0  0  0  0  0  0  0  0
   67.4123   48.3420   57.3329 C   0  0  0  0  0  0  0  0  0  0  0  0
   66.6227   49.3090   57.8852 C   0  0  0  0  0  0  0  0  0  0  0  0
   66.8938   50.6421   57.6726 C   0  0  0  0  0  0  0  0  0  0  0  0
   67.9797   50.9735   56.8900 C   0  0  0  0  0  0  0  0  0  0  0  0
   68.7812   50.0033   56.3287 C   0  0  0  0  0  0  0  0  0  0  0  0
  4  5  2  0
  5  6  1  0
  5  7  1  0
  6  1  1  0
  1  2  1  0
  2  3  2  0
  2 14  1  0
 14 15  1  0
 14 21  1  0
 15 16  2  0
 15 20  1  0
 16 17  1  0
 17 18  2  0
 18 19  1  0
 19 20  2  0
 21 22  2  0
 21 26  1  0
 22 23  1  0
 23 24  2  0
 24 25  1  0
 25 26  2  0
  7  8  2  0
  7 12  1  0
  8  9  1  0
  9 10  2  0
 10 11  1  0
 11 12  2  0
 12 13  1  0
M  END
>  <minimizedAffinity>  (1) 
-10.00948

$$$$
data/reference_output_2/data/smiles/179656.pdb
     RDKit          3D

 24 27  0  0  0  0  0  0  0  0999 V2000
   69.8891   47.2392   51.0058 O   0  0  0  0  0  0  0  0  0  0  0  0
   69.7833   48.3185   51.6089 C   0  0  0  0  0  0  0  0  0  0  0  0
   70.0238   49.5625   51.0784 N   0  0  0  0  0  0  0  0  0  0  0  0
   69.8118   50.4862   52.0316 N   0  0  0  0  0  0  0  0  0  0  0  0
   69.4473   49.8583   53.1395 C   0  0  0  0  0  0  0  0  0  0  0  0
   69.4296   48.5210   52.8680 N   0  0  0  0  0  0  0  0  0  0  0  0
   69.0628   47.4930   53.7911 C   0  0  0  0  0  0  0  0  0  0  0  0
   68.5523   46.4066   53.1196 C   0  0  0  0  0  0  0  0  0  0  0  0
   68.1575   45.3146   53.8932 C   0  0  0  0  0  0  0  0  0  0  0  0
   68.2434   45.2555   55.2526 C   0  0  0  0  0  0  0  0  0  0  0  0
   68.7693   46.3918   55.8806 C   0  0  0  0  0  0  0  0  0  0  0  0
   69.1803   47.5093   55.1800 C   0  0  0  0  0  0  0  0  0  0  0  0
   69.6565   48.5582   56.1198 C   0  0  0  0  0  0  0  0  0  0  0  0
   70.1451   49.7689   55.4637 C   0  0  0  0  0  0  0  0  0  0  0  0
   69.1645   50.4434   54.5015 C   0  0  0  0  0  0  0  0  0  0  0  0
   67.8773   44.2289   56.0587 O   0  0  0  0  0  0  0  0  0  0  0  0
   67.6710   42.9010   55.8708 C   0  0  0  0  0  0  0  0  0  0  0  0
   68.3769   41.9451   56.7548 C   0  0  0  0  0  0  0  0  0  0  0  0
   69.5662   42.1910   57.3882 C   0  0  0  0  0  0  0  0  0  0  0  0
   70.2168   41.2862   58.1991 C   0  0  0  0  0  0  0  0  0  0  0  0
   69.6338   40.0506   58.3858 C   0  0  0  0  0  0  0  0  0  0  0  0
   68.4358   39.7609   57.7675 C   0  0  0  0  0  0  0  0  0  0  0  0
   67.8981   38.5280   57.9828 F   0  0  0  0  0  0  0  0  0  0  0  0
   67.8060   40.6830   56.9618 C   0  0  0  0  0  0  0  0  0  0  0  0
  1  2  2  0
  2  3  1  0
  2  6  1  0
  3  4  1  0
  4  5  2  0
  5  6  1  0
  5 15  1  0
  6  7  1  0
  7  8  2  0
  7 12  1  0
  8  9  1  0
  9 10  2  0
 10 16  1  0
 10 11  1  0
 16 17  1  0
 17 18  1  0
 18 19  2  0
 18 24  1  0
 19 20  1  0
 20 21  2  0
 21 22  1  0
 22 23  1  0
 22 24  2  0
 11 12  2  0
 12 13  1  0
 13 14  1  0
 14 15  1  0
M  END
>  <minimizedAffinity>  (2) 
-9.83943

$$$$
data/200k_reference_output/data/smiles/57675.pdb
     RDKit          3D

 24 27  0  0  0  0  0  0  0  0999 V2000
   68.2907   45.3275   55.4207 C   0  0  0  0  0  0  0  0  0  0  0  0
   68.1750   45.3317   54.0189 C   0  0  0  0  0  0  0  0  0  0  0  0
   68.5486   46.3927   53.2332 C   0  0  0  0  0  0  0  0  0  0  0  0
   69.0622   47.5073   53.8491 C   0  0  0  0  0  0  0  0  0  0  0  0
   69.1999   47.5691   55.2229 C   0  0  0  0  0  0  0  0  0  0  0  0
   68.8061   46.4608   55.9930 C   0  0  0  0  0  0  0  0  0  0  0  0
   69.6739   48.6255   56.1194 C   0  0  0  0  0  0  0  0  0  0  0  0
   70.1730   49.8564   55.4681 C   0  0  0  0  0  0  0  0  0  0  0  0
   69.2312   50.4743   54.4511 C   0  0  0  0  0  0  0  0  0  0  0  0
   69.4757   49.8069   53.1203 C   0  0  0  0  0  0  0  0  0  0  0  0
   69.8329   50.4051   52.0012 N   0  0  0  0  0  0  0  0  0  0  0  0
   70.0015   49.4476   51.0606 N   0  0  0  0  0  0  0  0  0  0  0  0
   69.7473   48.2423   51.5932 C   0  0  0  0  0  0  0  0  0  0  0  0
   69.8181   47.1591   50.9910 O   0  0  0  0  0  0  0  0  0  0  0  0
   69.4218   48.4773   52.8647 N   0  0  0  0  0  0  0  0  0  0  0  0
   67.8934   44.2220   56.1049 O   0  0  0  0  0  0  0  0  0  0  0  0
   67.6343   42.9208   55.8164 C   0  0  0  0  0  0  0  0  0  0  0  0
   70.1147   38.9163   59.1674 C   0  0  0  0  0  0  0  0  0  0  0  0
   69.5022   39.9605   58.3046 C   0  0  0  0  0  0  0  0  0  0  0  0
   70.0369   41.2206   58.1675 C   0  0  0  0  0  0  0  0  0  0  0  0
   69.4400   42.1638   57.3566 C   0  0  0  0  0  0  0  0  0  0  0  0
   68.2700   41.8755   56.6442 C   0  0  0  0  0  0  0  0  0  0  0  0
   67.7685   40.6174   56.8038 C   0  0  0  0  0  0  0  0  0  0  0  0
   68.3609   39.6643   57.6153 C   0  0  0  0  0  0  0  0  0  0  0  0
 18 19  1  0
 19 20  2  0
 19 24  1  0
 20 21  1  0
 21 22  2  0
 22 17  1  0
 22 23  1  0
 17 16  1  0
 16  1  1  0
  1  2  2  0
  1  6  1  0
  2  3  1  0
  3  4  2  0
  4  5  1  0
  4 15  1  0
  5  6  2  0
  5  7  1  0
  7  8  1  0
  8  9  1  0
  9 10  1  0
 10 11  2  0
 10 15  1  0
 11 12  1  0
 12 13  1  0
 13 14  2  0
 13 15  1  0
 23 24  2  0
M  END
>  <minimizedAffinity>  (3) 
-9.63868

$$$$
data/200k_reference_output/data/smiles/40584.pdb
     RDKit          3D

 26 28  0  0  0  0  0  0  0  0999 V2000
   70.7395   45.0745   58.0292 C   0  0  0  0  0  0  0  0  0  0  0  0
   71.3673   46.1986   58.4857 C   0  0  0  0  0  0  0  0  0  0  0  0
   70.9204   47.4774   58.1906 C   0  0  0  0  0  0  0  0  0  0  0  0
   69.8170   47.5727   57.4168 N   0  0  0  0  0  0  0  0  0  0  0  0
   69.1724   46.4777   56.9500 C   0  0  0  0  0  0  0  0  0  0  0  0
   69.6425   45.2555   57.2630 N   0  0  0  0  0  0  0  0  0  0  0  0
   72.0067   41.0270   58.7326 C   0  0  0  0  0  0  0  0  0  0  0  0
   70.9208   41.5597   59.3868 C   0  0  0  0  0  0  0  0  0  0  0  0
   70.5320   42.8741   59.1526 C   0  0  0  0  0  0  0  0  0  0  0  0
   71.1939   43.7020   58.2717 C   0  0  0  0  0  0  0  0  0  0  0  0
   72.2814   43.1695   57.6181 C   0  0  0  0  0  0  0  0  0  0  0  0
   72.6782   41.8470   57.8514 C   0  0  0  0  0  0  0  0  0  0  0  0
   72.0347   37.1526   58.6933 C   0  0  0  0  0  0  0  0  0  0  0  0
   71.6490   38.5711   58.5081 C   0  0  0  0  0  0  0  0  0  0  0  0
   70.5608   38.8245   57.9284 O   0  0  0  0  0  0  0  0  0  0  0  0
   72.4199   39.6656   58.9355 N   0  0  0  0  0  0  0  0  0  0  0  0
   68.0503   46.6853   56.1070 N   0  0  0  0  0  0  0  0  0  0  0  0
   68.2734   46.7503   54.7014 C   0  0  0  0  0  0  0  0  0  0  0  0
   67.7202   45.8041   53.8442 C   0  0  0  0  0  0  0  0  0  0  0  0
   67.9660   45.8375   52.4871 C   0  0  0  0  0  0  0  0  0  0  0  0
   68.7680   46.8066   51.9262 C   0  0  0  0  0  0  0  0  0  0  0  0
   69.3292   47.7548   52.7461 C   0  0  0  0  0  0  0  0  0  0  0  0
   69.0731   47.7113   54.1194 C   0  0  0  0  0  0  0  0  0  0  0  0
   70.2038   48.8100   52.2288 C   0  0  0  0  0  0  0  0  0  0  0  0
   69.8281   49.5716   51.1055 N   0  0  0  0  0  0  0  0  0  0  0  0
   71.3155   49.0346   52.8068 O   0  0  0  0  0  0  0  0  0  0  0  0
 13 14  1  0
 14 15  2  0
 14 16  1  0
 16  7  1  0
  7  8  2  0
  7 12  1  0
  8  9  1  0
  9 10  2  0
 10  1  1  0
 10 11  1  0
  1  2  2  0
  1  6  1  0
  2  3  1  0
  3  4  2  0
  4  5  1  0
  5 17  1  0
  5  6  2  0
 17 18  1  0
 18 19  2  0
 18 23  1  0
 19 20  1  0
 20 21  2  0
 21 22  1  0
 22 24  1  0
 22 23  2  0
 24 25  1  0
 24 26  2  0
 11 12  2  0
M  END
>  <minimizedAffinity>  (4) 
-9.52137

$$$$
data/200k_reference_output/data/smiles/38006.pdb
     RDKit          3D

 26 29  0  0  0  0  0  0  0  0999 V2000
   69.3204   47.6319   56.0891 N   0  0  0  0  0  0  0  0  0  0  0  0
   69.7510   48.6484   55.2948 C   0  0  0  0  0  0  0  0  0  0  0  0
   69.5028   48.5402   53.9321 C   0  0  0  0  0  0  0  0  0  0  0  0
   68.8529   47.4732   53.3427 C   0  0  0  0  0  0  0  0  0  0  0  0
   68.6153   47.3817   51.9891 C   0  0  0  0  0  0  0  0  0  0  0  0
   67.9649   46.3055   51.4221 C   0  0  0  0  0  0  0  0  0  0  0  0
   67.5420   45.2872   52.2576 C   0  0  0  0  0  0  0  0  0  0  0  0
   67.7829   45.3828   53.6228 C   0  0  0  0  0  0  0  0  0  0  0  0
   68.4382   46.4679   54.1866 C   0  0  0  0  0  0  0  0  0  0  0  0
   68.6741   46.5571   55.5373 C   0  0  0  0  0  0  0  0  0  0  0  0
   68.2685   45.6048   56.2524 O   0  0  0  0  0  0  0  0  0  0  0  0
   70.0691   49.7458   53.3257 C   0  0  0  0  0  0  0  0  0  0  0  0
   70.0608   50.0491   52.1046 O   0  0  0  0  0  0  0  0  0  0  0  0
   70.6562   50.5572   54.3689 C   0  0  0  0  0  0  0  0  0  0  0  0
   71.3220   51.7666   54.3865 C   0  0  0  0  0  0  0  0  0  0  0  0
   71.8131   52.3613   55.5138 C   0  0  0  0  0  0  0  0  0  0  0  0
   71.6131   51.6751   56.7186 C   0  0  0  0  0  0  0  0  0  0  0  0
   70.9509   50.4586   56.7524 C   0  0  0  0  0  0  0  0  0  0  0  0
   70.4729   49.9033   55.5836 C   0  0  0  0  0  0  0  0  0  0  0  0
   69.4809   47.6685   57.5045 C   0  0  0  0  0  0  0  0  0  0  0  0
   70.4966   46.7223   58.0687 C   0  0  2  0  0  0  0  0  0  0  0  0
   69.9315   45.7499   58.8882 O   0  0  0  0  0  0  0  0  0  0  0  0
   71.4133   47.5525   58.9727 C   0  0  0  0  0  0  0  0  0  0  0  0
   73.0334   48.0628   61.8801 N   0  0  0  0  0  0  0  0  0  0  0  0
   72.2544   47.4329   61.1392 N   0  0  0  0  0  0  0  0  0  0  0  0
   71.4429   46.9886   60.3145 N   0  0  0  0  0  0  0  0  0  0  0  0
 24 25  2  0
 25 26  2  0
 26 23  1  0
 23 21  1  0
 21 22  1  1
 21 20  1  0
 20  1  1  0
  1  2  1  0
  1 10  1  0
  2  3  2  0
  2 19  1  0
  3  4  1  0
  3 12  1  0
  4  5  1  0
  4  9  2  0
  5  6  2  0
  6  7  1  0
  7  8  2  0
  8  9  1  0
  9 10  1  0
 10 11  2  0
 12 13  2  0
 12 14  1  0
 14 15  1  0
 14 19  2  0
 15 16  2  0
 16 17  1  0
 17 18  2  0
 18 19  1  0
M  CHG  2  24  -1  25   1
M  END
>  <minimizedAffinity>  (5) 
-9.41378

$$$$
data/200k_reference_output/data/smiles/424.pdb
     RDKit          3D

 22 24  0  0  0  0  0  0  0  0999 V2000
   69.9704   49.2916   52.8724 S   0  0  0  0  0  0  0  0  0  0  0  0
   69.8312   50.0219   51.5461 O   0  0  0  0  0  0  0  0  0  0  0  0
   71.4555   48.9530   52.9503 O   0  0  0  0  0  0  0  0  0  0  0  0
   71.1384   52.0360   54.8960 C   0  0  0  0  0  0  0  0  0  0  0  0
   69.8960   51.8098   54.0861 C   0  0  2  0  0  0  0  0  0  0  0  0
   68.6677   52.3849   54.7487 C   0  0  0  0  0  0  0  0  0  0  0  0
   68.3832   51.3761   55.8016 C   0  0  0  0  0  0  0  0  0  0  0  0
   67.6978   51.4599   57.0053 C   0  0  0  0  0  0  0  0  0  0  0  0
   67.6119   50.3108   57.7553 C   0  0  0  0  0  0  0  0  0  0  0  0
   68.1752   49.1162   57.3475 C   0  0  0  0  0  0  0  0  0  0  0  0
   68.8522   49.0480   56.1507 C   0  0  0  0  0  0  0  0  0  0  0  0
   68.9535   50.1898   55.3763 C   0  0  0  0  0  0  0  0  0  0  0  0
   69.5918   50.3809   54.1200 N   0  0  0  0  0  0  0  0  0  0  0  0
   69.1146   47.8054   52.8807 C   0  0  0  0  0  0  0  0  0  0  0  0
   68.5576   47.3062   51.7331 C   0  0  0  0  0  0  0  0  0  0  0  0
   67.8634   46.1055   51.7285 C   0  0  0  0  0  0  0  0  0  0  0  0
   67.7518   45.4320   52.9139 C   0  0  0  0  0  0  0  0  0  0  0  0
   68.2954   45.8952   54.0922 C   0  0  0  0  0  0  0  0  0  0  0  0
   68.9723   47.0880   54.0443 C   0  0  0  0  0  0  0  0  0  0  0  0
   68.1381   45.1385   55.2838 N   0  0  0  0  0  0  0  0  0  0  0  0
   68.4994   45.6121   56.3778 O   0  0  0  0  0  0  0  0  0  0  0  0
   67.5957   43.8837   55.2848 O   0  0  0  0  0  0  0  0  0  0  0  0
  5  4  1  1
  5  6  1  0
  5 13  1  0
  6  7  1  0
  7  8  2  0
  7 12  1  0
  8  9  1  0
  9 10  2  0
 10 11  1  0
 11 12  2  0
 12 13  1  0
 13  1  1  0
  1  2  2  0
  1  3  2  0
  1 14  1  0
 14 15  2  0
 14 19  1  0
 15 16  1  0
 16 17  2  0
 17 18  1  0
 18 20  1  0
 18 19  2  0
 20 21  2  0
 20 22  1  0
M  CHG  2  20   1  22  -1
M  END
>  <minimizedAffinity>  (6) 
-9.41344

$$$$
data/reference_output_2/data/smiles/192927.pdb
     RDKit          3D

 23 25  0  0  0  0  0  0  0  0999 V2000
   69.1242   45.2175   56.6834 C   0  0  0  0  0  0  0  0  0  0  0  0
   70.2219   45.8387   57.2446 N   0  0  0  0  0  0  0  0  0  0  0  0
   71.0825   45.1232   57.9596 C   0  0  0  0  0  0  0  0  0  0  0  0
   70.9320   43.7573   58.1746 C   0  0  0  0  0  0  0  0  0  0  0  0
   69.8436   43.1430   57.6182 C   0  0  0  0  0  0  0  0  0  0  0  0
   68.9986   43.9040   56.9026 N   0  0  0  0  0  0  0  0  0  0  0  0
   69.5867   41.7111   57.7953 C   0  0  0  0  0  0  0  0  0  0  0  0
   70.5622   40.9048   58.3827 C   0  0  0  0  0  0  0  0  0  0  0  0
   70.3840   39.5634   58.5788 C   0  0  0  0  0  0  0  0  0  0  0  0
   69.2171   38.9748   58.1928 C   0  0  0  0  0  0  0  0  0  0  0  0
   68.2433   39.7287   57.6160 C   0  0  0  0  0  0  0  0  0  0  0  0
   68.4345   41.1031   57.4195 C   0  0  0  0  0  0  0  0  0  0  0  0
   68.1952   45.9861   55.9497 N   0  0  0  0  0  0  0  0  0  0  0  0
   69.1313   47.7749   52.8262 C   0  0  0  0  0  0  0  0  0  0  0  0
   68.5981   46.9673   51.8482 C   0  0  0  0  0  0  0  0  0  0  0  0
   67.9333   45.8237   52.2132 C   0  0  0  0  0  0  0  0  0  0  0  0
   67.7924   45.4750   53.5629 C   0  0  0  0  0  0  0  0  0  0  0  0
   68.3108   46.2565   54.5667 C   0  0  0  0  0  0  0  0  0  0  0  0
   68.9823   47.4156   54.1412 C   0  0  0  0  0  0  0  0  0  0  0  0
   69.2687   50.5544   53.2696 N   0  0  0  0  0  0  0  0  0  0  0  0
   69.9996   49.2610   52.4116 S   0  0  0  0  0  0  0  0  0  0  0  0
   69.9312   49.5139   50.9338 O   0  0  0  0  0  0  0  0  0  0  0  0
   71.4353   49.0516   52.7941 O   0  0  0  0  0  0  0  0  0  0  0  0
 20 21  1  0
 21 22  2  0
 21 23  2  0
 21 14  1  0
 14 15  2  0
 14 19  1  0
 15 16  1  0
 16 17  2  0
 17 18  1  0
 18 13  1  0
 18 19  2  0
 13  1  1  0
  1  2  2  0
  1  6  1  0
  2  3  1  0
  3  4  2  0
  4  5  1  0
  5  7  1  0
  5  6  2  0
  7  8  2  0
  7 12  1  0
  8  9  1  0
  9 10  2  0
 10 11  1  0
 11 12  2  0
M  END
>  <minimizedAffinity>  (7) 
-9.39881

$$$$
data/reference_output_2/data/smiles/149976.pdb
     RDKit          3D

 24 25  0  0  0  0  0  0  0  0999 V2000
   68.8297   41.1506   58.4985 C   0  0  0  0  0  0  0  0  0  0  0  0
   70.4329   39.2560   58.7438 N   0  0  0  0  0  0  0  0  0  0  0  0
   69.1531   39.6848   58.3544 C   0  0  0  0  0  0  0  0  0  0  0  0
   68.3272   38.8762   57.9093 O   0  0  0  0  0  0  0  0  0  0  0  0
   72.2925   33.8558   58.8055 C   0  0  0  0  0  0  0  0  0  0  0  0
   71.8209   35.2813   58.7623 C   0  0  0  0  0  0  0  0  0  0  0  0
   70.9561   35.7448   59.7181 C   0  0  0  0  0  0  0  0  0  0  0  0
   70.5210   37.0523   59.6818 C   0  0  0  0  0  0  0  0  0  0  0  0
   70.9340   37.9434   58.6918 C   0  0  0  0  0  0  0  0  0  0  0  0
   71.7902   37.4465   57.7653 C   0  0  0  0  0  0  0  0  0  0  0  0
   72.2387   36.1252   57.7879 C   0  0  0  0  0  0  0  0  0  0  0  0
   73.1716   35.6535   56.7444 C   0  0  0  0  0  0  0  0  0  0  0  0
   67.4275   41.4241   58.0019 C   0  0  0  0  0  0  0  0  0  0  0  0
   67.4664   41.9924   56.6500 C   0  0  0  0  0  0  0  0  0  0  0  0
   67.2597   41.2709   55.6406 O   0  0  0  0  0  0  0  0  0  0  0  0
   67.7345   43.3688   56.3832 N   0  0  0  0  0  0  0  0  0  0  0  0
   67.7753   43.9235   55.1224 N   0  0  0  0  0  0  0  0  0  0  0  0
   67.9912   45.3031   54.8596 C   0  0  0  0  0  0  0  0  0  0  0  0
   68.1541   46.0482   55.8592 O   0  0  0  0  0  0  0  0  0  0  0  0
   68.0266   45.8469   53.5069 C   0  0  0  0  0  0  0  0  0  0  0  0
   68.9187   46.7990   53.0681 C   0  0  0  0  0  0  0  0  0  0  0  0
   68.6365   47.0600   51.7224 C   0  0  0  0  0  0  0  0  0  0  0  0
   67.5652   46.2252   51.4375 C   0  0  0  0  0  0  0  0  0  0  0  0
   67.2406   45.5293   52.5171 O   0  0  0  0  0  0  0  0  0  0  0  0
  5  6  1  0
  6  7  2  0
  6 11  1  0
  7  8  1  0
  8  9  2  0
  9  2  1  0
  9 10  1  0
  2  3  1  0
  3  4  2  0
  3  1  1  0
  1 13  1  0
 13 14  1  0
 14 15  2  0
 14 16  1  0
 16 17  1  0
 17 18  1  0
 18 19  2  0
 18 20  1  0
 20 21  2  0
 20 24  1  0
 21 22  1  0
 22 23  2  0
 23 24  1  0
 10 11  2  0
 11 12  1  0
M  END
>  <minimizedAffinity>  (8) 
-9.36468

$$$$
data/200k_reference_output/data/smiles/959.pdb
     RDKit          3D

 25 27  0  0  0  0  0  0  0  0999 V2000
   69.0577   48.0474   56.3512 C   0  0  0  0  0  0  0  0  0  0  0  0
   69.4298   48.1940   54.9878 N   0  0  0  0  0  0  0  0  0  0  0  0
   70.2985   49.2062   54.6682 C   0  0  0  0  0  0  0  0  0  0  0  0
   70.7385   49.8825   55.6265 O   0  0  0  0  0  0  0  0  0  0  0  0
   70.6335   49.4283   53.4042 N   0  0  0  0  0  0  0  0  0  0  0  0
   70.1584   48.7021   52.3949 C   0  0  0  0  0  0  0  0  0  0  0  0
   70.4685   48.9018   51.1877 O   0  0  0  0  0  0  0  0  0  0  0  0
   69.2812   47.6740   52.6567 C   0  0  0  0  0  0  0  0  0  0  0  0
   68.7542   46.9271   51.6104 C   0  0  0  0  0  0  0  0  0  0  0  0
   67.8602   45.9354   51.9275 C   0  0  0  0  0  0  0  0  0  0  0  0
   67.4921   45.6810   53.2256 C   0  0  0  0  0  0  0  0  0  0  0  0
   68.0185   46.4224   54.2354 C   0  0  0  0  0  0  0  0  0  0  0  0
   68.9246   47.4364   53.9948 C   0  0  0  0  0  0  0  0  0  0  0  0
   70.0545   47.3231   57.1873 C   0  0  0  0  0  0  0  0  0  0  0  0
   69.6498   44.9443   56.5963 N   0  0  0  0  0  0  0  0  0  0  0  0
   69.8335   45.9614   57.6105 C   0  0  0  0  0  0  0  0  0  0  0  0
   69.7784   45.5353   58.7723 O   0  0  0  0  0  0  0  0  0  0  0  0
   68.9143   39.5379   58.2678 C   0  0  0  0  0  0  0  0  0  0  0  0
   69.0856   40.9444   57.8207 C   0  0  0  0  0  0  0  0  0  0  0  0
   70.1668   41.6973   58.2100 C   0  0  0  0  0  0  0  0  0  0  0  0
   70.3462   42.9965   57.8095 C   0  0  0  0  0  0  0  0  0  0  0  0
   69.4328   43.6137   56.9846 C   0  0  0  0  0  0  0  0  0  0  0  0
   68.3389   42.8763   56.5814 C   0  0  0  0  0  0  0  0  0  0  0  0
   67.3963   43.4723   55.7461 O   0  0  0  0  0  0  0  0  0  0  0  0
   68.1658   41.5704   56.9877 C   0  0  0  0  0  0  0  0  0  0  0  0
 18 19  1  0
 19 20  2  0
 19 25  1  0
 20 21  1  0
 21 22  2  0
 22 15  1  0
 22 23  1  0
 15 16  1  0
 16 17  2  0
 16 14  1  0
 14  1  1  0
  1  2  1  0
  2  3  1  0
  2 13  1  0
  3  4  2  0
  3  5  1  0
  5  6  1  0
  6  7  2  0
  6  8  1  0
  8  9  1  0
  8 13  2  0
  9 10  2  0
 10 11  1  0
 11 12  2  0
 12 13  1  0
 23 24  1  0
 23 25  2  0
M  END
>  <minimizedAffinity>  (9) 
-9.35261

$$$$
data/reference_output_2/data/smiles/155793.pdb
     RDKit          3D

 24 26  0  0  0  0  0  0  0  0999 V2000
   70.4712   44.5378   57.7292 C   0  0  0  0  0  0  0  0  0  0  0  0
   71.1013   45.6020   58.3496 C   0  0  0  0  0  0  0  0  0  0  0  0
   70.6777   46.9091   58.1176 C   0  0  0  0  0  0  0  0  0  0  0  0
   69.6558   47.1044   57.2853 N   0  0  0  0  0  0  0  0  0  0  0  0
   69.0176   46.0728   56.6596 C   0  0  0  0  0  0  0  0  0  0  0  0
   69.4544   44.8570   56.9110 N   0  0  0  0  0  0  0  0  0  0  0  0
   71.6409   40.4445   58.4088 C   0  0  0  0  0  0  0  0  0  0  0  0
   70.2911   40.8674   58.3232 C   0  0  0  0  0  0  0  0  0  0  0  0
   69.9811   42.1618   58.1158 C   0  0  0  0  0  0  0  0  0  0  0  0
   70.8998   43.1810   57.9708 C   0  0  0  0  0  0  0  0  0  0  0  0
   72.2151   42.7849   58.0550 C   0  0  0  0  0  0  0  0  0  0  0  0
   72.5690   41.4806   58.2634 C   0  0  0  0  0  0  0  0  0  0  0  0
   71.7621   37.9237   58.2966 C   0  0  0  0  0  0  0  0  0  0  0  0
   72.0181   39.2000   58.6070 O   0  0  0  0  0  0  0  0  0  0  0  0
   67.9585   46.4390   55.8074 N   0  0  0  0  0  0  0  0  0  0  0  0
   68.2138   46.6290   54.4323 C   0  0  0  0  0  0  0  0  0  0  0  0
   67.6219   45.7922   53.4744 C   0  0  0  0  0  0  0  0  0  0  0  0
   67.8341   45.9059   52.1267 C   0  0  0  0  0  0  0  0  0  0  0  0
   68.6777   46.8999   51.6947 C   0  0  0  0  0  0  0  0  0  0  0  0
   69.2892   47.7534   52.5904 C   0  0  0  0  0  0  0  0  0  0  0  0
   69.0533   47.6120   53.9436 C   0  0  0  0  0  0  0  0  0  0  0  0
   70.1951   48.8016   52.1082 C   0  0  0  0  0  0  0  0  0  0  0  0
   71.2886   49.1818   52.9578 N   0  0  0  0  0  0  0  0  0  0  0  0
   69.9792   49.3146   50.9925 O   0  0  0  0  0  0  0  0  0  0  0  0
 13 14  1  0
 14  7  1  0
  7  8  2  0
  7 12  1  0
  8  9  1  0
  9 10  2  0
 10  1  1  0
 10 11  1  0
  1  2  2  0
  1  6  1  0
  2  3  1  0
  3  4  2  0
  4  5  1  0
  5 15  1  0
  5  6  2  0
 15 16  1  0
 16 17  2  0
 16 21  1  0
 17 18  1  0
 18 19  2  0
 19 20  1  0
 20 22  1  0
 20 21  2  0
 22 23  1  0
 22 24  2  0
 11 12  2  0
M  END
>  <minimizedAffinity>  (10) 
-9.35099

$$$$
data/200k_reference_output/data/smiles/31962.pdb
     RDKit          3D

 24 28  0  0  0  0  0  0  0  0999 V2000
   70.5500   48.1104   50.8764 O   0  0  0  0  0  0  0  0  0  0  0  0
   70.2274   48.3686   52.0671 C   0  0  0  0  0  0  0  0  0  0  0  0
   70.7866   49.3959   52.7114 N   0  0  0  0  0  0  0  0  0  0  0  0
   70.4031   49.6296   53.9930 C   0  0  0  0  0  0  0  0  0  0  0  0
   70.8588   50.6313   54.8218 C   0  0  0  0  0  0  0  0  0  0  0  0
   70.1799   50.4518   56.0033 C   0  0  0  0  0  0  0  0  0  0  0  0
   70.2469   51.1740   57.1811 C   0  0  0  0  0  0  0  0  0  0  0  0
   69.4843   50.8396   58.2624 C   0  0  0  0  0  0  0  0  0  0  0  0
   68.6465   49.7561   58.1351 C   0  0  0  0  0  0  0  0  0  0  0  0
   68.5568   49.0042   56.9528 C   0  0  0  0  0  0  0  0  0  0  0  0
   69.3228   49.3478   55.8801 C   0  0  0  0  0  0  0  0  0  0  0  0
   69.4813   48.8540   54.6210 N   0  0  0  0  0  0  0  0  0  0  0  0
   68.9029   47.8127   53.9941 C   0  0  0  0  0  0  0  0  0  0  0  0
   67.9648   46.9918   54.5703 C   0  0  0  0  0  0  0  0  0  0  0  0
   67.3800   45.9132   53.8890 C   0  0  0  0  0  0  0  0  0  0  0  0
   67.7661   45.6743   52.5919 C   0  0  0  0  0  0  0  0  0  0  0  0
   68.7079   46.5011   52.0154 C   0  0  0  0  0  0  0  0  0  0  0  0
   69.2847   47.5630   52.6859 C   0  0  0  0  0  0  0  0  0  0  0  0
   71.8744   51.6926   54.5163 C   0  0  0  0  0  0  0  0  0  0  0  0
   73.2524   51.2234   54.7577 C   0  0  0  0  0  0  0  0  0  0  0  0
   74.1202   51.5653   55.7458 N   0  0  0  0  0  0  0  0  0  0  0  0
   75.2321   50.8870   55.5486 N   0  0  0  0  0  0  0  0  0  0  0  0
   75.1165   50.1214   54.4714 N   0  0  0  0  0  0  0  0  0  0  0  0
   73.9073   50.3268   53.9899 N   0  0  0  0  0  0  0  0  0  0  0  0
  1  2  2  0
  2  3  1  0
  2 18  1  0
  3  4  1  0
  4  5  2  0
  4 12  1  0
  5 19  1  0
  5  6  1  0
 19 20  1  0
 20 21  2  0
 20 24  1  0
 21 22  1  0
 22 23  2  0
 23 24  1  0
  6  7  2  0
  6 11  1  0
  7  8  1  0
  8  9  2  0
  9 10  1  0
 10 11  2  0
 11 12  1  0
 12 13  1  0
 13 14  1  0
 13 18  2  0
 14 15  2  0
 15 16  1  0
 16 17  2  0
 17 18  1  0
M  END
>  <minimizedAffinity>  (11) 
-9.34018

$$$$
data/reference_output_2/data/smiles/90295.pdb
     RDKit          3D

 25 27  0  0  0  0  0  0  0  0999 V2000
   69.7500   43.1088   57.4672 C   0  0  0  0  0  0  0  0  0  0  0  0
   68.7300   43.2374   56.5461 C   0  0  0  0  0  0  0  0  0  0  0  0
   68.3768   44.4391   56.0365 N   0  0  0  0  0  0  0  0  0  0  0  0
   68.9662   45.5806   56.3691 N   0  0  0  0  0  0  0  0  0  0  0  0
   69.9660   45.4979   57.2641 C   0  0  0  0  0  0  0  0  0  0  0  0
   70.5597   46.5728   57.6113 O   0  0  0  0  0  0  0  0  0  0  0  0
   70.3709   44.2821   57.8216 C   0  0  0  0  0  0  0  0  0  0  0  0
   71.3157   41.3424   58.1612 C   0  0  0  0  0  0  0  0  0  0  0  0
   70.0950   41.7939   57.9873 C   0  0  0  0  0  0  0  0  0  0  0  0
   72.5284   39.8188   59.4895 O   0  0  0  0  0  0  0  0  0  0  0  0
   71.5899   39.9968   58.6942 C   0  0  0  0  0  0  0  0  0  0  0  0
   70.8461   38.8919   58.3533 O   0  0  0  0  0  0  0  0  0  0  0  0
   71.3003   37.5886   58.4005 C   0  0  0  0  0  0  0  0  0  0  0  0
   70.8261   36.7907   59.4182 C   0  0  0  0  0  0  0  0  0  0  0  0
   71.2382   35.4564   59.5367 C   0  0  0  0  0  0  0  0  0  0  0  0
   72.1251   34.9277   58.6310 C   0  0  0  0  0  0  0  0  0  0  0  0
   72.5896   35.7402   57.6193 C   0  0  0  0  0  0  0  0  0  0  0  0
   72.1860   37.0458   57.5043 C   0  0  0  0  0  0  0  0  0  0  0  0
   68.5541   46.8524   55.7931 C   0  0  0  0  0  0  0  0  0  0  0  0
   68.5851   46.8786   54.3266 C   0  0  0  0  0  0  0  0  0  0  0  0
   67.8499   45.9762   53.6030 C   0  0  0  0  0  0  0  0  0  0  0  0
   67.8675   45.9890   52.2027 C   0  0  0  0  0  0  0  0  0  0  0  0
   68.6362   46.9248   51.5450 C   0  0  0  0  0  0  0  0  0  0  0  0
   69.3907   47.8506   52.2715 C   0  0  0  0  0  0  0  0  0  0  0  0
   69.3490   47.8083   53.6719 C   0  0  0  0  0  0  0  0  0  0  0  0
 10 11  2  0
 11  8  1  0
 11 12  1  0
  8  9  2  0
  9  1  1  0
  1  2  1  0
  1  7  2  0
  2  3  2  0
  3  4  1  0
  4 19  1  0
  4  5  1  0
 19 20  1  0
 20 21  2  0
 20 25  1  0
 21 22  1  0
 22 23  2  0
 23 24  1  0
 24 25  2  0
  5  6  2  0
  5  7  1  0
 12 13  1  0
 13 14  2  0
 13 18  1  0
 14 15  1  0
 15 16  2  0
 16 17  1  0
 17 18  2  0
M  END
>  <minimizedAffinity>  (12) 
-9.33731

$$$$
data/reference_output_2/data/smiles/132901.pdb
     RDKit          3D

 23 24  0  0  0  0  0  0  0  0999 V2000
   69.5614   47.8318   54.8085 C   0  0  0  0  0  0  0  0  0  0  0  0
   69.1441   47.6282   52.3042 C   0  0  0  0  0  0  0  0  0  0  0  0
   68.3980   47.0539   51.3073 N   0  0  0  0  0  0  0  0  0  0  0  0
   67.4737   46.1213   51.5362 C   0  0  0  0  0  0  0  0  0  0  0  0
   66.7904   45.6004   50.5963 O   0  0  0  0  0  0  0  0  0  0  0  0
   67.2860   45.7462   52.8106 N   0  0  0  0  0  0  0  0  0  0  0  0
   67.9712   46.2598   53.8284 C   0  0  0  0  0  0  0  0  0  0  0  0
   67.7599   45.8732   55.0215 O   0  0  0  0  0  0  0  0  0  0  0  0
   68.9408   47.2414   53.5926 C   0  0  0  0  0  0  0  0  0  0  0  0
   69.8802   49.4224   51.0051 O   0  0  0  0  0  0  0  0  0  0  0  0
   70.1628   48.5819   51.9299 C   0  0  0  0  0  0  0  0  0  0  0  0
   71.4202   48.7032   52.4407 O   0  0  0  0  0  0  0  0  0  0  0  0
   69.2933   49.3065   54.9622 C   0  0  0  0  0  0  0  0  0  0  0  0
   68.4504   49.7063   56.0631 C   0  0  0  0  0  0  0  0  0  0  0  0
   67.8628   48.6640   56.8046 C   0  0  0  0  0  0  0  0  0  0  0  0
   67.0033   48.9401   57.8350 C   0  0  0  0  0  0  0  0  0  0  0  0
   66.7163   50.2387   58.1421 C   0  0  0  0  0  0  0  0  0  0  0  0
   67.2853   51.2462   57.4254 C   0  0  0  0  0  0  0  0  0  0  0  0
   68.1725   51.0170   56.3607 C   0  0  0  0  0  0  0  0  0  0  0  0
   68.8146   52.1093   55.6449 C   0  0  0  0  0  0  0  0  0  0  0  0
   68.6572   53.2608   56.4471 F   0  0  0  0  0  0  0  0  0  0  0  0
   68.3237   52.4584   54.4350 F   0  0  0  0  0  0  0  0  0  0  0  0
   70.2104   51.9532   55.6032 F   0  0  0  0  0  0  0  0  0  0  0  0
 10 11  2  0
 11 12  1  0
 11  2  1  0
  2  3  1  0
  2  9  2  0
  3  4  1  0
  4  5  2  0
  4  6  1  0
  6  7  1  0
  7  8  2  0
  7  9  1  0
  9  1  1  0
  1 13  1  0
 13 14  1  0
 14 15  2  0
 14 19  1  0
 15 16  1  0
 16 17  2  0
 17 18  1  0
 18 19  2  0
 19 20  1  0
 20 21  1  0
 20 22  1  0
 20 23  1  0
M  END
>  <minimizedAffinity>  (13) 
-9.33331

$$$$
data/200k_reference_output/data/smiles/86908.pdb
     RDKit          3D

 24 25  0  0  0  0  0  0  0  0999 V2000
   73.8625   50.6581   53.6679 O   0  0  0  0  0  0  0  0  0  0  0  0
   73.1066   50.6132   54.6458 C   0  0  0  0  0  0  0  0  0  0  0  0
   73.9536   50.3782   56.0961 N   0  0  0  0  0  0  0  0  0  0  0  0
   75.1837   50.0129   55.4682 C   0  0  0  0  0  0  0  0  0  0  0  0
   75.4138   49.3706   54.5436 O   0  0  0  0  0  0  0  0  0  0  0  0
   76.2944   50.6687   56.2813 N   0  0  0  0  0  0  0  0  0  0  0  0
   71.7358   50.7568   54.4004 C   0  0  0  0  0  0  0  0  0  0  0  0
   71.7391   49.4961   53.3336 O   0  0  0  0  0  0  0  0  0  0  0  0
   70.4662   49.2550   52.9896 C   0  0  0  0  0  0  0  0  0  0  0  0
   69.9008   50.2427   52.2304 O   0  0  0  0  0  0  0  0  0  0  0  0
   69.5311   48.1832   53.2274 C   0  0  0  0  0  0  0  0  0  0  0  0
   68.8649   47.9444   54.3527 C   0  0  0  0  0  0  0  0  0  0  0  0
   67.9722   46.8320   54.5811 C   0  0  0  0  0  0  0  0  0  0  0  0
   67.8976   46.0364   53.4871 C   0  0  0  0  0  0  0  0  0  0  0  0
   68.5280   46.1719   52.3143 C   0  0  0  0  0  0  0  0  0  0  0  0
   69.3344   47.2033   52.1525 C   0  0  0  0  0  0  0  0  0  0  0  0
   70.1030   47.4816   51.0018 O   0  0  0  0  0  0  0  0  0  0  0  0
   77.5851   50.8501   55.9208 C   0  0  0  0  0  0  0  0  0  0  0  0
   78.6019   50.2720   56.8725 C   0  0  0  0  0  0  0  0  0  0  0  0
   79.4593   49.3392   56.4007 C   0  0  0  0  0  0  0  0  0  0  0  0
   80.3165   48.6563   57.2875 C   0  0  0  0  0  0  0  0  0  0  0  0
   80.2968   48.9207   58.5924 C   0  0  0  0  0  0  0  0  0  0  0  0
   79.3875   49.9256   59.1762 C   0  0  0  0  0  0  0  0  0  0  0  0
   78.6348   50.4922   58.2053 C   0  0  0  0  0  0  0  0  0  0  0  0
  1  2  2  0
  2  7  1  0
  2  3  1  0
  7  8  1  0
  8  9  1  0
  9 10  2  0
  9 11  1  0
 11 12  2  0
 11 16  1  0
 12 13  1  0
 13 14  2  0
 14 15  1  0
 15 16  2  0
 16 17  1  0
  3  4  1  0
  4  5  2  0
  4  6  1  0
  6 18  1  0
 18 19  1  0
 19 20  2  0
 19 24  1  0
 20 21  1  0
 21 22  2  0
 22 23  1  0
 23 24  2  0
M  END
>  <minimizedAffinity>  (14) 
-9.31822

$$$$
data/reference_output_2/data/smiles/157200.pdb
     RDKit          3D

 27 31  0  0  0  0  0  0  0  0999 V2000
   73.0683   33.9298   52.5371 N   0  0  0  0  0  0  0  0  0  0  0  0
   72.3011   35.0028   52.7091 C   0  0  0  0  0  0  0  0  0  0  0  0
   72.6427   35.5850   53.9267 C   0  0  0  0  0  0  0  0  0  0  0  0
   73.6293   34.8338   54.4771 N   0  0  0  0  0  0  0  0  0  0  0  0
   73.8665   33.8328   53.6060 C   0  0  0  0  0  0  0  0  0  0  0  0
   73.0691   33.0093   51.4154 C   0  0  0  0  0  0  0  0  0  0  0  0
   78.0849   35.1795   47.8692 C   0  0  0  0  0  0  0  0  0  0  0  0
   78.1908   35.6169   49.1736 C   0  0  0  0  0  0  0  0  0  0  0  0
   77.2313   35.2720   50.1035 C   0  0  0  0  0  0  0  0  0  0  0  0
   76.1267   34.4794   49.7741 C   0  0  0  0  0  0  0  0  0  0  0  0
   75.1783   34.1477   50.7189 C   0  0  0  0  0  0  0  0  0  0  0  0
   74.0882   33.3647   50.3954 C   0  0  0  0  0  0  0  0  0  0  0  0
   74.0024   32.9388   49.0836 C   0  0  0  0  0  0  0  0  0  0  0  0
   74.9429   33.2642   48.1284 C   0  0  0  0  0  0  0  0  0  0  0  0
   76.0293   34.0485   48.4688 C   0  0  0  0  0  0  0  0  0  0  0  0
   76.9983   34.3978   47.5359 C   0  0  0  0  0  0  0  0  0  0  0  0
   74.3075   35.0459   55.7439 C   0  0  0  0  0  0  0  0  0  0  0  0
   73.3342   35.1848   56.8618 C   0  0  0  0  0  0  0  0  0  0  0  0
   72.9886   34.0952   57.6342 C   0  0  0  0  0  0  0  0  0  0  0  0
   72.0738   34.2611   58.6743 C   0  0  0  0  0  0  0  0  0  0  0  0
   71.5042   35.4868   58.9492 C   0  0  0  0  0  0  0  0  0  0  0  0
   70.5966   35.6845   59.9697 C   0  0  0  0  0  0  0  0  0  0  0  0
   70.0270   36.9072   60.2467 C   0  0  0  0  0  0  0  0  0  0  0  0
   70.3774   37.9957   59.4681 C   0  0  0  0  0  0  0  0  0  0  0  0
   71.2793   37.8082   58.4516 C   0  0  0  0  0  0  0  0  0  0  0  0
   71.8519   36.5854   58.1716 C   0  0  0  0  0  0  0  0  0  0  0  0
   72.7625   36.3986   57.1438 C   0  0  0  0  0  0  0  0  0  0  0  0
  7  8  2  0
  7 16  1  0
  8  9  1  0
  9 10  2  0
 10 11  1  0
 10 15  1  0
 11 12  2  0
 12  6  1  0
 12 13  1  0
  6  1  1  0
  1  2  1  0
  1  5  1  0
  2  3  2  0
  3  4  1  0
  4 17  1  0
  4  5  2  0
 17 18  1  0
 18 19  2  0
 18 27  1  0
 19 20  1  0
 20 21  2  0
 21 22  1  0
 21 26  1  0
 22 23  2  0
 23 24  1  0
 24 25  2  0
 25 26  1  0
 26 27  2  0
 13 14  2  0
 14 15  1  0
 15 16  2  0
M  CHG  1   4   1
M  END
>  <minimizedAffinity>  (15) 
-9.31776

$$$$
data/reference_output_2/data/smiles/138614.pdb
     RDKit          3D

 24 26  0  0  0  0  0  0  0  0999 V2000
   67.4454   42.1971   55.6963 O   0  0  0  0  0  0  0  0  0  0  0  0
   68.1744   42.8396   56.4603 C   0  0  0  0  0  0  0  0  0  0  0  0
   68.3449   44.2297   56.0981 N   0  0  0  0  0  0  0  0  0  0  0  0
   68.8102   42.3056   57.6085 C   0  0  0  0  0  0  0  0  0  0  0  0
   69.1975   43.2378   58.4624 O   0  0  0  0  0  0  0  0  0  0  0  0
   69.0810   40.9548   57.9841 C   0  0  0  0  0  0  0  0  0  0  0  0
   68.0334   39.9817   57.9762 C   0  0  0  0  0  0  0  0  0  0  0  0
   68.5521   38.7797   58.2382 N   0  0  0  0  0  0  0  0  0  0  0  0
   69.8603   38.8617   58.4239 C   0  0  0  0  0  0  0  0  0  0  0  0
   70.8142   37.9510   58.7251 C   0  0  0  0  0  0  0  0  0  0  0  0
   72.1478   38.3424   58.8907 C   0  0  0  0  0  0  0  0  0  0  0  0
   72.4842   39.6592   58.7471 C   0  0  0  0  0  0  0  0  0  0  0  0
   71.5072   40.5987   58.4376 C   0  0  0  0  0  0  0  0  0  0  0  0
   70.1883   40.2128   58.2686 C   0  0  0  0  0  0  0  0  0  0  0  0
   67.7013   44.7149   54.9764 N   0  0  0  0  0  0  0  0  0  0  0  0
   68.2469   45.7904   54.1804 C   0  0  0  0  0  0  0  0  0  0  0  0
   68.7965   46.8908   54.8081 C   0  0  0  0  0  0  0  0  0  0  0  0
   69.3335   47.9709   54.0933 C   0  0  0  0  0  0  0  0  0  0  0  0
   69.3251   47.9601   52.7169 C   0  0  0  0  0  0  0  0  0  0  0  0
   68.7790   46.8667   52.0895 C   0  0  0  0  0  0  0  0  0  0  0  0
   68.2440   45.7893   52.8070 C   0  0  0  0  0  0  0  0  0  0  0  0
   69.8679   49.0467   51.9593 N   0  0  0  0  0  0  0  0  0  0  0  0
   70.4976   48.7738   50.9240 O   0  0  0  0  0  0  0  0  0  0  0  0
   69.7342   50.3632   52.3045 O   0  0  0  0  0  0  0  0  0  0  0  0
  1  2  2  0
  2  3  1  0
  2  4  1  0
  3 15  1  0
 15 16  1  0
 16 17  2  0
 16 21  1  0
 17 18  1  0
 18 19  2  0
 19 22  1  0
 19 20  1  0
 22 23  2  0
 22 24  1  0
 20 21  2  0
  4  5  2  0
  4  6  1  0
  6  7  2  0
  6 14  1  0
  7  8  1  0
  8  9  1  0
  9 10  1  0
  9 14  2  0
 10 11  2  0
 11 12  1  0
 12 13  2  0
 13 14  1  0
M  CHG  2  22   1  24  -1
M  END
>  <minimizedAffinity>  (16) 
-9.30997

$$$$
data/reference_output_2/data/smiles/94286.pdb
     RDKit          3D

 25 28  0  0  0  0  0  0  0  0999 V2000
   70.6124   44.4115   57.5959 O   0  0  0  0  0  0  0  0  0  0  0  0
   69.5728   44.0313   57.0059 C   0  0  0  0  0  0  0  0  0  0  0  0
   68.7773   44.7826   56.2311 N   0  0  0  0  0  0  0  0  0  0  0  0
   67.8127   43.9767   55.8233 N   0  0  0  0  0  0  0  0  0  0  0  0
   67.9980   42.7456   56.3316 C   0  0  0  0  0  0  0  0  0  0  0  0
   67.3093   41.5551   56.2317 C   0  0  0  0  0  0  0  0  0  0  0  0
   67.7479   40.3979   56.8891 C   0  0  0  0  0  0  0  0  0  0  0  0
   68.8927   40.4743   57.6451 C   0  0  0  0  0  0  0  0  0  0  0  0
   69.5220   41.6644   57.7050 N   0  0  0  0  0  0  0  0  0  0  0  0
   69.1113   42.7587   57.0860 N   0  0  0  0  0  0  0  0  0  0  0  0
   69.4207   39.3049   58.3677 C   0  0  0  0  0  0  0  0  0  0  0  0
   70.7163   38.8765   58.1455 C   0  0  0  0  0  0  0  0  0  0  0  0
   71.2611   37.7872   58.7957 C   0  0  0  0  0  0  0  0  0  0  0  0
   70.5101   37.0739   59.7086 C   0  0  0  0  0  0  0  0  0  0  0  0
   69.2184   37.4937   59.9363 C   0  0  0  0  0  0  0  0  0  0  0  0
   68.6682   38.6024   59.2731 C   0  0  0  0  0  0  0  0  0  0  0  0
   68.9277   46.2025   55.8937 C   0  0  0  0  0  0  0  0  0  0  0  0
   68.7054   46.3628   54.4475 C   0  0  0  0  0  0  0  0  0  0  0  0
   67.8940   45.4494   53.7666 C   0  0  0  0  0  0  0  0  0  0  0  0
   67.6825   45.5893   52.4248 C   0  0  0  0  0  0  0  0  0  0  0  0
   66.8950   44.7009   51.7686 F   0  0  0  0  0  0  0  0  0  0  0  0
   68.2763   46.6389   51.7482 C   0  0  0  0  0  0  0  0  0  0  0  0
   69.0821   47.5477   52.4186 C   0  0  0  0  0  0  0  0  0  0  0  0
   69.6794   48.5868   51.7880 F   0  0  0  0  0  0  0  0  0  0  0  0
   69.2966   47.4050   53.7801 C   0  0  0  0  0  0  0  0  0  0  0  0
  1  2  2  0
  2  3  1  0
  2 10  1  0
  3 17  1  0
  3  4  1  0
 17 18  1  0
 18 19  2  0
 18 25  1  0
 19 20  1  0
 20 21  1  0
 20 22  2  0
 22 23  1  0
 23 24  1  0
 23 25  2  0
  4  5  2  0
  5  6  1  0
  5 10  1  0
  6  7  2  0
  7  8  1  0
  8 11  1  0
  8  9  2  0
 11 12  2  0
 11 16  1  0
 12 13  1  0
 13 14  2  0
 14 15  1  0
 15 16  2  0
  9 10  1  0
M  END
>  <minimizedAffinity>  (17) 
-9.30256

$$$$
data/reference_output_2/data/smiles/162004.pdb
     RDKit          3D

 24 26  0  0  0  0  0  0  0  0999 V2000
   72.2553   51.0525   54.8790 C   0  0  2  0  0  0  0  0  0  0  0  0
   70.2863   50.8186   53.0089 O   0  0  0  0  0  0  0  0  0  0  0  0
   70.5392   49.7051   53.5961 C   0  0  0  0  0  0  0  0  0  0  0  0
   71.5468   49.7917   54.5635 N   0  0  0  0  0  0  0  0  0  0  0  0
   69.7835   48.5372   53.2046 C   0  0  0  0  0  0  0  0  0  0  0  0
   68.9659   47.9439   54.1481 C   0  0  0  0  0  0  0  0  0  0  0  0
   68.2084   46.8295   53.8759 C   0  0  0  0  0  0  0  0  0  0  0  0
   68.2255   46.2379   52.6318 C   0  0  0  0  0  0  0  0  0  0  0  0
   69.0350   46.8167   51.6779 C   0  0  0  0  0  0  0  0  0  0  0  0
   69.8019   47.9520   51.9702 C   0  0  0  0  0  0  0  0  0  0  0  0
   70.5947   48.4787   50.9558 O   0  0  0  0  0  0  0  0  0  0  0  0
   73.6859   50.9319   54.6003 C   0  0  0  0  0  0  0  0  0  0  0  0
   74.1063   50.2282   53.6153 O   0  0  0  0  0  0  0  0  0  0  0  0
   74.6933   51.5379   55.3294 O   0  0  0  0  0  0  0  0  0  0  0  0
   71.8693   51.3365   56.3003 C   0  0  0  0  0  0  0  0  0  0  0  0
   70.4786   51.7055   56.5351 C   0  0  0  0  0  0  0  0  0  0  0  0
   69.9575   52.9874   56.3884 C   0  0  0  0  0  0  0  0  0  0  0  0
   68.6567   52.9752   56.7141 N   0  0  0  0  0  0  0  0  0  0  0  0
   68.2945   51.7103   57.0743 C   0  0  0  0  0  0  0  0  0  0  0  0
   67.0825   51.1919   57.4718 C   0  0  0  0  0  0  0  0  0  0  0  0
   66.9595   49.8592   57.7719 C   0  0  0  0  0  0  0  0  0  0  0  0
   68.0987   49.0884   57.6536 C   0  0  0  0  0  0  0  0  0  0  0  0
   69.3080   49.6011   57.2591 C   0  0  0  0  0  0  0  0  0  0  0  0
   69.4460   50.9314   56.9561 C   0  0  0  0  0  0  0  0  0  0  0  0
  2  3  2  0
  3  4  1  0
  3  5  1  0
  4  1  1  0
  1 15  1  1
  1 12  1  0
 15 16  1  0
 16 17  2  0
 16 24  1  0
 17 18  1  0
 18 19  1  0
 19 20  1  0
 19 24  2  0
 20 21  2  0
 21 22  1  0
 22 23  2  0
 23 24  1  0
 12 13  2  0
 12 14  1  0
  5  6  2  0
  5 10  1  0
  6  7  1  0
  7  8  2  0
  8  9  1  0
  9 10  2  0
 10 11  1  0
M  END
>  <minimizedAffinity>  (18) 
-9.28267

$$$$
data/reference_output_2/data/smiles/127738.pdb
     RDKit          3D

 25 27  0  0  0  0  0  0  0  0999 V2000
   68.6934   47.7069   56.6442 C   0  0  0  0  0  0  0  0  0  0  0  0
   67.4307   47.5507   56.7972 O   0  0  0  0  0  0  0  0  0  0  0  0
   69.1307   48.0394   55.3097 C   0  0  0  0  0  0  0  0  0  0  0  0
   69.9841   49.1334   55.1029 C   0  0  0  0  0  0  0  0  0  0  0  0
   70.4467   49.5191   53.8765 C   0  0  0  0  0  0  0  0  0  0  0  0
   71.2106   50.5057   53.7280 O   0  0  0  0  0  0  0  0  0  0  0  0
   70.0875   48.8396   52.7788 N   0  0  0  0  0  0  0  0  0  0  0  0
   69.2745   47.7847   52.9124 C   0  0  0  0  0  0  0  0  0  0  0  0
   68.9258   47.1091   51.7668 C   0  0  0  0  0  0  0  0  0  0  0  0
   68.0904   46.0142   51.8430 C   0  0  0  0  0  0  0  0  0  0  0  0
   67.6160   45.6139   53.0776 C   0  0  0  0  0  0  0  0  0  0  0  0
   67.9660   46.2922   54.2256 C   0  0  0  0  0  0  0  0  0  0  0  0
   68.7865   47.3691   54.1617 C   0  0  0  0  0  0  0  0  0  0  0  0
   69.4229   47.5326   57.7790 O   0  0  0  0  0  0  0  0  0  0  0  0
   70.4813   46.6071   57.8026 C   0  0  0  0  0  0  0  0  0  0  0  0
   69.7696   44.7346   59.1645 O   0  0  0  0  0  0  0  0  0  0  0  0
   69.9764   45.2118   58.0186 C   0  0  0  0  0  0  0  0  0  0  0  0
   69.6988   44.3348   56.9328 N   0  0  0  0  0  0  0  0  0  0  0  0
   69.2223   43.0144   57.1180 C   0  0  0  0  0  0  0  0  0  0  0  0
   69.7831   42.0909   57.9449 C   0  0  0  0  0  0  0  0  0  0  0  0
   69.2603   40.8175   58.0751 C   0  0  0  0  0  0  0  0  0  0  0  0
   68.1304   40.4387   57.3535 C   0  0  0  0  0  0  0  0  0  0  0  0
   67.5657   41.3689   56.5213 C   0  0  0  0  0  0  0  0  0  0  0  0
   68.0974   42.6217   56.4072 C   0  0  0  0  0  0  0  0  0  0  0  0
   67.4914   43.5089   55.5598 F   0  0  0  0  0  0  0  0  0  0  0  0
 16 17  2  0
 17 15  1  0
 17 18  1  0
 15 14  1  0
 14  1  1  0
  1  2  2  0
  1  3  1  0
  3  4  2  0
  3 13  1  0
  4  5  1  0
  5  6  2  0
  5  7  1  0
  7  8  1  0
  8  9  1  0
  8 13  2  0
  9 10  2  0
 10 11  1  0
 11 12  2  0
 12 13  1  0
 18 19  1  0
 19 20  2  0
 19 24  1  0
 20 21  1  0
 21 22  2  0
 22 23  1  0
 23 24  2  0
 24 25  1  0
M  END
>  <minimizedAffinity>  (19) 
-9.27482

$$$$
data/200k_reference_output/data/smiles/9350.pdb
     RDKit          3D

 24 26  0  0  0  0  0  0  0  0999 V2000
   68.0718   43.5895   55.8739 C   0  0  0  0  0  0  0  0  0  0  0  0
   67.9333   42.2610   56.2115 C   0  0  0  0  0  0  0  0  0  0  0  0
   68.7278   41.9574   57.2896 C   0  0  0  0  0  0  0  0  0  0  0  0
   69.3485   43.1091   57.6035 N   0  0  0  0  0  0  0  0  0  0  0  0
   68.9724   44.0697   56.7834 N   0  0  0  0  0  0  0  0  0  0  0  0
   68.9308   40.6915   57.9792 C   0  0  0  0  0  0  0  0  0  0  0  0
   70.1679   40.2850   58.4413 C   0  0  0  0  0  0  0  0  0  0  0  0
   70.2989   39.0696   59.1230 C   0  0  0  0  0  0  0  0  0  0  0  0
   69.2367   38.2322   59.3658 C   0  0  0  0  0  0  0  0  0  0  0  0
   69.3521   37.0223   60.0419 O   0  0  0  0  0  0  0  0  0  0  0  0
   67.9947   38.6447   58.8993 C   0  0  0  0  0  0  0  0  0  0  0  0
   66.9257   37.8356   59.1186 F   0  0  0  0  0  0  0  0  0  0  0  0
   67.8607   39.8415   58.2274 C   0  0  0  0  0  0  0  0  0  0  0  0
   67.4713   44.3396   54.8401 N   0  0  0  0  0  0  0  0  0  0  0  0
   69.2109   47.9040   53.3193 C   0  0  0  0  0  0  0  0  0  0  0  0
   68.7191   46.9441   52.4712 C   0  0  0  0  0  0  0  0  0  0  0  0
   68.1408   45.7657   52.9434 C   0  0  0  0  0  0  0  0  0  0  0  0
   68.0398   45.5177   54.2900 C   0  0  0  0  0  0  0  0  0  0  0  0
   68.5394   46.4925   55.1389 C   0  0  0  0  0  0  0  0  0  0  0  0
   69.1153   47.6649   54.6736 C   0  0  0  0  0  0  0  0  0  0  0  0
   69.8138   49.5794   51.0439 N   0  0  0  0  0  0  0  0  0  0  0  0
   69.9412   49.3919   52.7511 S   0  0  0  0  0  0  0  0  0  0  0  0
   69.2417   50.5685   53.3963 O   0  0  0  0  0  0  0  0  0  0  0  0
   71.3922   49.4521   53.1374 O   0  0  0  0  0  0  0  0  0  0  0  0
 21 22  1  0
 22 23  2  0
 22 24  2  0
 22 15  1  0
 15 16  2  0
 15 20  1  0
 16 17  1  0
 17 18  2  0
 18 14  1  0
 18 19  1  0
 14  1  1  0
  1  2  2  0
  1  5  1  0
  2  3  1  0
  3  6  1  0
  3  4  2  0
  6  7  2  0
  6 13  1  0
  7  8  1  0
  8  9  2  0
  9 10  1  0
  9 11  1  0
 11 12  1  0
 11 13  2  0
  4  5  1  0
 19 20  2  0
M  END
>  <minimizedAffinity>  (20) 
-9.27031

$$$$
data/reference_output_2/data/smiles/168102.pdb
     RDKit          3D

 24 26  0  0  0  0  0  0  0  0999 V2000
   69.9916   39.5278   58.8538 C   0  0  0  0  0  0  0  0  0  0  0  0
   70.5536   40.7875   58.8470 C   0  0  0  0  0  0  0  0  0  0  0  0
   70.0232   41.8122   58.0752 C   0  0  0  0  0  0  0  0  0  0  0  0
   68.9115   41.6170   57.2808 C   0  0  0  0  0  0  0  0  0  0  0  0
   68.3464   40.3593   57.2849 C   0  0  0  0  0  0  0  0  0  0  0  0
   68.8794   39.3366   58.0586 C   0  0  0  0  0  0  0  0  0  0  0  0
   67.2330   40.4205   56.4003 N   0  0  0  0  0  0  0  0  0  0  0  0
   67.0983   41.7143   55.8403 C   0  0  0  0  0  0  0  0  0  0  0  0
   66.2504   42.1584   55.0280 O   0  0  0  0  0  0  0  0  0  0  0  0
   68.1770   42.5189   56.3946 C   0  0  0  0  0  0  0  0  0  0  0  0
   68.4051   43.7685   56.1329 N   0  0  0  0  0  0  0  0  0  0  0  0
   71.3694   37.4631   58.8498 C   0  0  0  0  0  0  0  0  0  0  0  0
   70.5634   38.4227   59.6878 C   0  0  0  0  0  0  0  0  0  0  0  0
   67.6096   44.5035   55.2572 N   0  0  0  0  0  0  0  0  0  0  0  0
   68.1539   45.6508   54.6342 C   0  0  0  0  0  0  0  0  0  0  0  0
   68.7333   46.6451   55.3933 C   0  0  0  0  0  0  0  0  0  0  0  0
   69.2787   47.7833   54.8431 C   0  0  0  0  0  0  0  0  0  0  0  0
   69.2556   47.9585   53.4770 C   0  0  0  0  0  0  0  0  0  0  0  0
   68.6861   46.9898   52.6925 C   0  0  0  0  0  0  0  0  0  0  0  0
   68.1412   45.8484   53.2697 C   0  0  0  0  0  0  0  0  0  0  0  0
   69.9612   49.4208   52.8306 S   0  0  0  0  0  0  0  0  0  0  0  0
   69.8615   49.4768   51.1057 N   0  0  0  0  0  0  0  0  0  0  0  0
   71.4251   49.5132   53.1917 O   0  0  0  0  0  0  0  0  0  0  0  0
   69.3073   50.6401   53.4412 O   0  0  0  0  0  0  0  0  0  0  0  0
 12 13  1  0
 13  1  1  0
  1  2  2  0
  1  6  1  0
  2  3  1  0
  3  4  2  0
  4  5  1  0
  4 10  1  0
  5  6  2  0
  5  7  1  0
  7  8  1  0
  8  9  2  0
  8 10  1  0
 10 11  2  0
 11 14  1  0
 14 15  1  0
 15 16  2  0
 15 20  1  0
 16 17  1  0
 17 18  2  0
 18 21  1  0
 18 19  1  0
 21 22  1  0
 21 23  2  0
 21 24  2  0
 19 20  2  0
M  END
>  <minimizedAffinity>  (21) 
-9.26663

$$$$
data/200k_reference_output/data/smiles/52994.pdb
     RDKit          3D

 22 23  0  0  0  0  0  0  0  0999 V2000
   68.5100   46.1536   56.3005 N   0  0  0  0  0  0  0  0  0  0  0  0
   68.2400   45.4346   55.1236 C   0  0  0  0  0  0  0  0  0  0  0  0
   67.8718   44.2133   55.1880 N   0  0  0  0  0  0  0  0  0  0  0  0
   68.3719   46.0537   53.8185 C   0  0  0  0  0  0  0  0  0  0  0  0
   67.6210   45.5618   52.7751 C   0  0  0  0  0  0  0  0  0  0  0  0
   67.6908   46.0970   51.5084 C   0  0  0  0  0  0  0  0  0  0  0  0
   68.5407   47.1566   51.2838 C   0  0  0  0  0  0  0  0  0  0  0  0
   69.3161   47.6843   52.3035 C   0  0  0  0  0  0  0  0  0  0  0  0
   69.2115   47.1128   53.5638 C   0  0  0  0  0  0  0  0  0  0  0  0
   70.1785   48.7700   52.0476 N   0  0  0  0  0  0  0  0  0  0  0  0
   69.9802   49.4943   51.0679 O   0  0  0  0  0  0  0  0  0  0  0  0
   71.2284   49.0245   52.8753 O   0  0  0  0  0  0  0  0  0  0  0  0
   67.7411   43.6081   56.4068 O   0  0  0  0  0  0  0  0  0  0  0  0
   67.6828   42.2499   56.6100 C   0  0  0  0  0  0  0  0  0  0  0  0
   66.6679   41.6438   56.1817 O   0  0  0  0  0  0  0  0  0  0  0  0
   68.7285   41.4916   57.2890 C   0  0  0  0  0  0  0  0  0  0  0  0
   69.9552   42.0640   57.5468 C   0  0  0  0  0  0  0  0  0  0  0  0
   70.9687   41.3587   58.1930 C   0  0  0  0  0  0  0  0  0  0  0  0
   70.7548   40.0555   58.5921 C   0  0  0  0  0  0  0  0  0  0  0  0
   69.5441   39.4710   58.3446 C   0  0  0  0  0  0  0  0  0  0  0  0
   69.2854   38.1855   58.7187 F   0  0  0  0  0  0  0  0  0  0  0  0
   68.5392   40.1890   57.6960 C   0  0  0  0  0  0  0  0  0  0  0  0
  1  2  1  0
  2  3  2  0
  2  4  1  0
  3 13  1  0
 13 14  1  0
 14 15  2  0
 14 16  1  0
 16 17  2  0
 16 22  1  0
 17 18  1  0
 18 19  2  0
 19 20  1  0
 20 21  1  0
 20 22  2  0
  4  5  2  0
  4  9  1  0
  5  6  1  0
  6  7  2  0
  7  8  1  0
  8 10  1  0
  8  9  2  0
 10 11  2  0
 10 12  1  0
M  CHG  3   3   1  10   1  12  -1
M  END
>  <minimizedAffinity>  (22) 
-9.25515

$$$$
data/reference_output_2/data/smiles/145384.pdb
     RDKit          3D

 24 26  0  0  0  0  0  0  0  0999 V2000
   70.7247   46.5680   59.3211 O   0  0  0  0  0  0  0  0  0  0  0  0
   70.8318   45.8188   58.3130 C   0  0  0  0  0  0  0  0  0  0  0  0
   69.8339   46.0318   57.2999 N   0  0  0  0  0  0  0  0  0  0  0  0
   71.8842   44.8213   58.1946 C   0  0  0  0  0  0  0  0  0  0  0  0
   71.6787   43.5257   57.7942 C   0  0  0  0  0  0  0  0  0  0  0  0
   72.7384   42.6130   57.7006 C   0  0  0  0  0  0  0  0  0  0  0  0
   74.0302   42.9770   58.0070 C   0  0  0  0  0  0  0  0  0  0  0  0
   75.0494   42.0950   57.9167 N   0  0  0  0  0  0  0  0  0  0  0  0
   76.3206   42.4271   58.2100 C   0  0  0  0  0  0  0  0  0  0  0  0
   76.5726   43.7376   58.6218 C   0  0  0  0  0  0  0  0  0  0  0  0
   75.5441   44.6426   58.7179 C   0  0  0  0  0  0  0  0  0  0  0  0
   74.2497   44.2821   58.4116 C   0  0  0  0  0  0  0  0  0  0  0  0
   73.1988   45.1720   58.5006 C   0  0  0  0  0  0  0  0  0  0  0  0
   68.8464   46.9629   57.4037 N   0  0  0  0  0  0  0  0  0  0  0  0
   68.2378   47.4566   56.4181 C   0  0  0  0  0  0  0  0  0  0  0  0
   68.4167   47.1828   55.0002 C   0  0  0  0  0  0  0  0  0  0  0  0
   67.8230   46.1920   54.2910 C   0  0  0  0  0  0  0  0  0  0  0  0
   68.0647   46.0158   52.9243 C   0  0  0  0  0  0  0  0  0  0  0  0
   68.9111   46.8362   52.2414 C   0  0  0  0  0  0  0  0  0  0  0  0
   69.5304   47.8600   52.9484 C   0  0  0  0  0  0  0  0  0  0  0  0
   69.2798   48.0117   54.2807 C   0  0  0  0  0  0  0  0  0  0  0  0
   70.4158   48.7230   52.2474 N   0  0  0  0  0  0  0  0  0  0  0  0
   71.5239   49.0023   52.7360 O   0  0  0  0  0  0  0  0  0  0  0  0
   70.0750   49.2536   51.0435 O   0  0  0  0  0  0  0  0  0  0  0  0
  1  2  2  0
  2  3  1  0
  2  4  1  0
  3 14  1  0
 14 15  2  0
 15 16  1  0
 16 17  2  0
 16 21  1  0
 17 18  1  0
 18 19  2  0
 19 20  1  0
 20 22  1  0
 20 21  2  0
 22 23  2  0
 22 24  1  0
  4  5  2  0
  4 13  1  0
  5  6  1  0
  6  7  2  0
  7  8  1  0
  7 12  1  0
  8  9  2  0
  9 10  1  0
 10 11  2  0
 11 12  1  0
 12 13  2  0
M  CHG  2  22   1  24  -1
M  END
>  <minimizedAffinity>  (23) 
-9.25479

$$$$
data/reference_output_2/data/smiles/196918.pdb
     RDKit          3D

 24 27  0  0  0  0  0  0  0  0999 V2000
   69.3972   48.3936   53.0544 C   0  0  0  0  0  0  0  0  0  0  0  0
   69.6985   48.0697   51.7282 C   0  0  0  0  0  0  0  0  0  0  0  0
   70.0356   49.2314   51.1428 N   0  0  0  0  0  0  0  0  0  0  0  0
   69.9579   50.2062   52.0094 N   0  0  0  0  0  0  0  0  0  0  0  0
   69.5616   49.7185   53.2114 C   0  0  0  0  0  0  0  0  0  0  0  0
   69.1982   46.9426   57.6734 N   0  0  0  0  0  0  0  0  0  0  0  0
   68.9090   46.7030   56.2915 C   0  0  0  0  0  0  0  0  0  0  0  0
   69.2765   47.6212   55.3323 C   0  0  0  0  0  0  0  0  0  0  0  0
   68.9982   47.3911   54.0047 C   0  0  0  0  0  0  0  0  0  0  0  0
   68.3513   46.2373   53.6528 C   0  0  0  0  0  0  0  0  0  0  0  0
   67.9926   45.3328   54.6229 C   0  0  0  0  0  0  0  0  0  0  0  0
   68.2746   45.5795   55.9136 N   0  0  0  0  0  0  0  0  0  0  0  0
   69.3619   50.5327   54.3983 C   0  0  2  0  0  0  0  0  0  0  0  0
   68.3319   51.6238   54.2130 C   0  0  0  0  0  0  0  0  0  0  0  0
   68.6219   52.4788   55.4295 C   0  0  0  0  0  0  0  0  0  0  0  0
   70.0899   52.4917   55.5074 N   0  0  0  0  0  0  0  0  0  0  0  0
   70.8612   53.4298   56.2420 C   0  0  0  0  0  0  0  0  0  0  0  0
   70.1843   54.3262   56.8699 O   0  0  0  0  0  0  0  0  0  0  0  0
   70.5966   51.3990   54.7075 C   0  0  0  0  0  0  0  0  0  0  0  0
   72.3269   53.4532   56.3370 C   0  0  0  0  0  0  0  0  0  0  0  0
   72.8884   53.4400   57.7131 C   0  0  0  0  0  0  0  0  0  0  0  0
   73.7084   54.6724   57.8397 C   0  0  0  0  0  0  0  0  0  0  0  0
   74.2227   54.8963   56.4361 C   0  0  0  0  0  0  0  0  0  0  0  0
   72.9986   54.5651   55.5872 C   0  0  0  0  0  0  0  0  0  0  0  0
  6  7  1  0
  7  8  2  0
  7 12  1  0
  8  9  1  0
  9  1  1  0
  9 10  2  0
  1  2  2  0
  1  5  1  0
  2  3  1  0
  3  4  1  0
  4  5  2  0
 13  5  1  6
 13 14  1  0
 13 19  1  0
 14 15  1  0
 15 16  1  0
 16 17  1  0
 16 19  1  0
 17 18  2  0
 17 20  1  0
 20 21  1  0
 20 24  1  0
 21 22  1  0
 22 23  1  0
 23 24  1  0
 10 11  1  0
 11 12  2  0
M  END
>  <minimizedAffinity>  (24) 
-9.24863

$$$$
data/reference_output_2/data/smiles/99116.pdb
     RDKit          3D

 24 26  0  0  0  0  0  0  0  0999 V2000
   67.7621   43.2159   56.7407 N   0  0  0  0  0  0  0  0  0  0  0  0
   67.7356   41.7601   56.8418 C   0  0  0  0  0  0  0  0  0  0  0  0
   67.7511   41.2021   55.7273 O   0  0  0  0  0  0  0  0  0  0  0  0
   68.1525   45.1249   55.2077 C   0  0  0  0  0  0  0  0  0  0  0  0
   68.4409   45.8309   56.2066 O   0  0  0  0  0  0  0  0  0  0  0  0
   67.8003   43.7746   55.4662 N   0  0  0  0  0  0  0  0  0  0  0  0
   69.8977   48.6782   52.2294 C   0  0  0  0  0  0  0  0  0  0  0  0
   69.0552   47.4695   52.4282 C   0  0  0  0  0  0  0  0  0  0  0  0
   68.3517   46.9645   51.3546 C   0  0  0  0  0  0  0  0  0  0  0  0
   67.5748   45.8445   51.5499 C   0  0  0  0  0  0  0  0  0  0  0  0
   67.5017   45.2364   52.8004 C   0  0  0  0  0  0  0  0  0  0  0  0
   68.1987   45.7282   53.8814 C   0  0  0  0  0  0  0  0  0  0  0  0
   68.9687   46.8500   53.6583 C   0  0  0  0  0  0  0  0  0  0  0  0
   67.6959   41.1157   58.1472 C   0  0  0  0  0  0  0  0  0  0  0  0
   68.9756   41.1326   58.9004 C   0  0  0  0  0  0  0  0  0  0  0  0
   69.6868   42.3762   58.9748 N   0  0  0  0  0  0  0  0  0  0  0  0
   69.1869   43.4855   59.5452 N   0  0  0  0  0  0  0  0  0  0  0  0
   70.0272   44.4848   59.4301 N   0  0  0  0  0  0  0  0  0  0  0  0
   71.1301   44.0838   58.7758 C   0  0  0  0  0  0  0  0  0  0  0  0
   72.3098   44.7102   58.4077 C   0  0  0  0  0  0  0  0  0  0  0  0
   73.2956   44.0264   57.7521 C   0  0  0  0  0  0  0  0  0  0  0  0
   73.0750   42.6939   57.4699 C   0  0  0  0  0  0  0  0  0  0  0  0
   71.9046   42.0804   57.8364 C   0  0  0  0  0  0  0  0  0  0  0  0
   70.8814   42.7387   58.5000 C   0  0  0  0  0  0  0  0  0  0  0  0
  7  8  1  0
  8  9  2  0
  8 13  1  0
  9 10  1  0
 10 11  2  0
 11 12  1  0
 12  4  1  0
 12 13  2  0
  4  5  2  0
  4  6  1  0
  6  1  1  0
  1  2  1  0
  2  3  2  0
  2 14  1  0
 14 15  1  0
 15 16  1  0
 16 17  1  0
 16 24  1  0
 17 18  2  0
 18 19  1  0
 19 20  1  0
 19 24  2  0
 20 21  2  0
 21 22  1  0
 22 23  2  0
 23 24  1  0
M  END
>  <minimizedAffinity>  (25) 
-9.24741

$$$$
data/200k_reference_output/data/smiles/58174.pdb
     RDKit          3D

 25 27  0  0  0  0  0  0  0  0999 V2000
   68.8924   47.5936   54.4197 C   0  0  0  0  0  0  0  0  0  0  0  0
   69.7142   48.7177   54.5493 C   0  0  0  0  0  0  0  0  0  0  0  0
   70.2797   49.3327   53.4925 C   0  0  0  0  0  0  0  0  0  0  0  0
   70.0303   48.8170   52.2226 C   0  0  0  0  0  0  0  0  0  0  0  0
   69.2291   47.7162   52.0655 C   0  0  0  0  0  0  0  0  0  0  0  0
   68.6546   47.0966   53.1826 C   0  0  0  0  0  0  0  0  0  0  0  0
   67.9005   45.8931   52.9361 C   0  0  0  0  0  0  0  0  0  0  0  0
   67.1363   45.7081   51.7379 N   0  0  0  0  0  0  0  0  0  0  0  0
   67.8598   44.9377   53.7381 O   0  0  0  0  0  0  0  0  0  0  0  0
   68.3589   47.0286   55.6493 N   0  0  0  0  0  0  0  0  0  0  0  0
   69.7518   42.7628   57.4235 C   0  0  0  0  0  0  0  0  0  0  0  0
   69.8158   44.2667   57.4218 C   0  0  0  0  0  0  0  0  0  0  0  0
   70.6191   44.8388   58.3777 C   0  0  0  0  0  0  0  0  0  0  0  0
   70.6927   46.2174   58.4293 C   0  0  0  0  0  0  0  0  0  0  0  0
   69.9577   46.9718   57.5231 C   0  0  0  0  0  0  0  0  0  0  0  0
   69.1791   46.3592   56.5989 C   0  0  0  0  0  0  0  0  0  0  0  0
   69.1238   44.9979   56.5661 N   0  0  0  0  0  0  0  0  0  0  0  0
   71.0666   50.5045   53.5704 N   0  0  0  0  0  0  0  0  0  0  0  0
   71.7853   51.0282   54.7063 C   0  0  2  0  0  0  0  0  0  0  0  0
   71.1365   52.0847   55.4896 C   0  0  0  0  0  0  0  0  0  0  0  0
   71.8864   53.2920   55.8784 C   0  0  0  0  0  0  0  0  0  0  0  0
   73.0812   53.6622   55.1117 C   0  0  0  0  0  0  0  0  0  0  0  0
   73.6268   52.6438   54.1683 C   0  0  0  0  0  0  0  0  0  0  0  0
   73.2384   51.2572   54.5188 C   0  0  2  0  0  0  0  0  0  0  0  0
   73.8833   50.2870   53.6507 N   0  0  0  0  0  0  0  0  0  0  0  0
 11 12  1  0
 12 13  2  0
 12 17  1  0
 13 14  1  0
 14 15  2  0
 15 16  1  0
 16 10  1  0
 16 17  2  0
 10  1  1  0
  1  2  2  0
  1  6  1  0
  2  3  1  0
  3 18  1  0
  3  4  2  0
 19 18  1  6
 19 20  1  0
 19 24  1  0
 20 21  1  0
 21 22  1  0
 22 23  1  0
 23 24  1  0
 24 25  1  6
  4  5  1  0
  5  6  2  0
  6  7  1  0
  7  8  1  0
  7  9  2  0
M  CHG  1  25   1
M  END
>  <minimizedAffinity>  (26) 
-9.24678

$$$$
data/reference_output_2/data/smiles/92633.pdb
     RDKit          3D

 25 27  0  0  0  0  0  0  0  0999 V2000
   68.0793   45.2013   54.9146 C   0  0  0  0  0  0  0  0  0  0  0  0
   67.6384   44.8926   53.6420 C   0  0  0  0  0  0  0  0  0  0  0  0
   67.6725   45.6234   52.4730 C   0  0  0  0  0  0  0  0  0  0  0  0
   66.9995   45.1257   51.3660 O   0  0  0  0  0  0  0  0  0  0  0  0
   68.3355   46.8414   52.2981 C   0  0  0  0  0  0  0  0  0  0  0  0
   68.4293   47.1842   51.0903 O   0  0  0  0  0  0  0  0  0  0  0  0
   68.8841   47.6898   53.2370 C   0  0  0  0  0  0  0  0  0  0  0  0
   69.4569   48.8087   52.6696 C   0  0  0  0  0  0  0  0  0  0  0  0
   69.4408   48.9836   51.2875 O   0  0  0  0  0  0  0  0  0  0  0  0
   70.0608   49.7798   53.4608 C   0  0  0  0  0  0  0  0  0  0  0  0
   70.6401   50.9084   52.8967 O   0  0  0  0  0  0  0  0  0  0  0  0
   70.0863   49.6211   54.8341 C   0  0  0  0  0  0  0  0  0  0  0  0
   70.6698   50.5572   55.6262 F   0  0  0  0  0  0  0  0  0  0  0  0
   69.5022   48.4855   55.3990 C   0  0  0  0  0  0  0  0  0  0  0  0
   68.9081   47.5295   54.6121 C   0  0  0  0  0  0  0  0  0  0  0  0
   68.3862   46.4793   55.3532 C   0  0  0  0  0  0  0  0  0  0  0  0
   69.1360   44.2069   56.7022 O   0  0  0  0  0  0  0  0  0  0  0  0
   68.2256   44.0958   55.8529 C   0  0  0  0  0  0  0  0  0  0  0  0
   67.4383   42.9365   55.8760 N   0  0  0  0  0  0  0  0  0  0  0  0
   67.5062   41.8326   56.7313 C   0  0  0  0  0  0  0  0  0  0  0  0
   68.1782   40.6670   56.4914 C   0  0  0  0  0  0  0  0  0  0  0  0
   68.1784   39.6184   57.4239 C   0  0  0  0  0  0  0  0  0  0  0  0
   67.5099   39.7042   58.6192 C   0  0  0  0  0  0  0  0  0  0  0  0
   66.8321   40.8692   58.8693 C   0  0  0  0  0  0  0  0  0  0  0  0
   66.8326   41.8870   57.9625 C   0  0  0  0  0  0  0  0  0  0  0  0
 17 18  2  0
 18 19  1  0
 18  1  1  0
 19 20  1  0
 20 21  2  0
 20 25  1  0
 21 22  1  0
 22 23  2  0
 23 24  1  0
 24 25  2  0
  1  2  1  0
  1 16  2  0
  2  3  2  0
  3  4  1  0
  3  5  1  0
  5  6  2  0
  5  7  1  0
  7  8  1  0
  7 15  2  0
  8  9  1  0
  8 10  2  0
 10 11  1  0
 10 12  1  0
 12 13  1  0
 12 14  2  0
 14 15  1  0
 15 16  1  0
M  END
>  <minimizedAffinity>  (27) 
-9.24558

$$$$
data/200k_reference_output/data/smiles/74863.pdb
     RDKit          3D

 22 23  0  0  0  0  0  0  0  0999 V2000
   69.2780   47.9015   52.6607 C   0  0  0  0  0  0  0  0  0  0  0  0
   69.3575   48.0857   54.0349 C   0  0  0  0  0  0  0  0  0  0  0  0
   68.6739   47.2399   54.8163 N   0  0  0  0  0  0  0  0  0  0  0  0
   67.9426   46.2550   54.3008 C   0  0  0  0  0  0  0  0  0  0  0  0
   67.8409   46.0419   52.9210 C   0  0  0  0  0  0  0  0  0  0  0  0
   67.0794   45.0169   52.3767 O   0  0  0  0  0  0  0  0  0  0  0  0
   68.5288   46.8911   52.0834 C   0  0  0  0  0  0  0  0  0  0  0  0
   68.4835   46.7591   50.8313 O   0  0  0  0  0  0  0  0  0  0  0  0
   70.7123   48.3657   50.8311 O   0  0  0  0  0  0  0  0  0  0  0  0
   70.0044   48.7968   51.7732 C   0  0  0  0  0  0  0  0  0  0  0  0
   69.9202   50.1616   51.9609 O   0  0  0  0  0  0  0  0  0  0  0  0
   68.7427   47.4124   56.2469 C   0  0  0  0  0  0  0  0  0  0  0  0
   68.2423   48.7282   56.6957 C   0  0  0  0  0  0  0  0  0  0  0  0
   67.2158   48.7965   57.6022 C   0  0  0  0  0  0  0  0  0  0  0  0
   66.7106   50.0199   58.0562 C   0  0  0  0  0  0  0  0  0  0  0  0
   67.2943   51.1566   57.5497 C   0  0  0  0  0  0  0  0  0  0  0  0
   68.3218   51.1165   56.6428 C   0  0  0  0  0  0  0  0  0  0  0  0
   68.7880   49.8947   56.2238 C   0  0  0  0  0  0  0  0  0  0  0  0
   68.9493   52.3524   56.0978 C   0  0  0  0  0  0  0  0  0  0  0  0
   68.4047   52.6390   54.8789 F   0  0  0  0  0  0  0  0  0  0  0  0
   68.7716   53.3917   56.9944 F   0  0  0  0  0  0  0  0  0  0  0  0
   70.3007   52.1364   55.9499 F   0  0  0  0  0  0  0  0  0  0  0  0
  9 10  2  0
 10 11  1  0
 10  1  1  0
  1  2  2  0
  1  7  1  0
  2  3  1  0
  3 12  1  0
  3  4  1  0
 12 13  1  0
 13 14  2  0
 13 18  1  0
 14 15  1  0
 15 16  2  0
 16 17  1  0
 17 19  1  0
 17 18  2  0
 19 20  1  0
 19 21  1  0
 19 22  1  0
  4  5  2  0
  5  6  1  0
  5  7  1  0
  7  8  2  0
M  END
>  <minimizedAffinity>  (28) 
-9.24307

$$$$
data/reference_output_2/data/smiles/185183.pdb
     RDKit          3D

 23 25  0  0  0  0  0  0  0  0999 V2000
   71.8466   49.8140   54.3947 O   0  0  0  0  0  0  0  0  0  0  0  0
   70.8160   49.9926   53.4968 C   0  0  0  0  0  0  0  0  0  0  0  0
   70.3438   51.1438   53.3515 O   0  0  0  0  0  0  0  0  0  0  0  0
   70.2710   48.8853   52.7213 C   0  0  0  0  0  0  0  0  0  0  0  0
   70.5175   48.6057   51.4204 N   0  0  0  0  0  0  0  0  0  0  0  0
   69.8553   47.5291   51.0477 N   0  0  0  0  0  0  0  0  0  0  0  0
   69.1355   47.0375   52.0829 C   0  0  0  0  0  0  0  0  0  0  0  0
   68.2914   45.9518   52.2162 C   0  0  0  0  0  0  0  0  0  0  0  0
   67.6862   45.7024   53.4292 C   0  0  0  0  0  0  0  0  0  0  0  0
   67.9420   46.5527   54.4926 C   0  0  0  0  0  0  0  0  0  0  0  0
   68.7898   47.6301   54.3317 C   0  0  0  0  0  0  0  0  0  0  0  0
   69.4010   47.8961   53.1319 C   0  0  0  0  0  0  0  0  0  0  0  0
   71.7752   50.4708   55.6417 C   0  0  0  0  0  0  0  0  0  0  0  0
   71.4727   48.7032   57.1927 O   0  0  0  0  0  0  0  0  0  0  0  0
   70.9657   49.6951   56.6130 C   0  0  0  0  0  0  0  0  0  0  0  0
   69.5962   50.0668   56.9026 C   0  0  0  0  0  0  0  0  0  0  0  0
   69.1419   51.3589   56.7385 C   0  0  0  0  0  0  0  0  0  0  0  0
   67.8381   51.7240   57.0116 C   0  0  0  0  0  0  0  0  0  0  0  0
   66.9522   50.7684   57.4643 C   0  0  0  0  0  0  0  0  0  0  0  0
   65.6765   51.1480   57.7264 F   0  0  0  0  0  0  0  0  0  0  0  0
   67.3774   49.4565   57.6402 C   0  0  0  0  0  0  0  0  0  0  0  0
   66.4682   48.5575   58.0868 F   0  0  0  0  0  0  0  0  0  0  0  0
   68.6868   49.1382   57.3556 C   0  0  0  0  0  0  0  0  0  0  0  0
 14 15  2  0
 15 13  1  0
 15 16  1  0
 13  1  1  0
  1  2  1  0
  2  3  2  0
  2  4  1  0
  4  5  1  0
  4 12  2  0
  5  6  1  0
  6  7  2  0
  7  8  1  0
  7 12  1  0
  8  9  2  0
  9 10  1  0
 10 11  2  0
 11 12  1  0
 16 17  2  0
 16 23  1  0
 17 18  1  0
 18 19  2  0
 19 20  1  0
 19 21  1  0
 21 22  1  0
 21 23  2  0
M  END
>  <minimizedAffinity>  (29) 
-9.24275

$$$$
data/200k_reference_output/data/smiles/5390.pdb
     RDKit          3D

 25 28  0  0  0  0  0  0  0  0999 V2000
   68.7942   40.6481   57.5236 C   0  0  0  0  0  0  0  0  0  0  0  0
   67.7412   40.5599   56.6421 C   0  0  0  0  0  0  0  0  0  0  0  0
   67.3297   41.6839   55.9306 C   0  0  0  0  0  0  0  0  0  0  0  0
   66.3690   41.5709   55.1369 O   0  0  0  0  0  0  0  0  0  0  0  0
   67.9194   42.8796   56.0608 N   0  0  0  0  0  0  0  0  0  0  0  0
   67.7183   44.0811   55.5055 N   0  0  0  0  0  0  0  0  0  0  0  0
   68.6150   44.9423   56.0075 C   0  0  0  0  0  0  0  0  0  0  0  0
   69.3564   44.2329   56.8729 N   0  0  0  0  0  0  0  0  0  0  0  0
   68.9427   42.9524   56.9214 C   0  0  0  0  0  0  0  0  0  0  0  0
   69.3642   41.8631   57.6301 N   0  0  0  0  0  0  0  0  0  0  0  0
   70.2238   37.2975   59.8054 C   0  0  0  0  0  0  0  0  0  0  0  0
   68.9277   37.7350   59.9348 C   0  0  0  0  0  0  0  0  0  0  0  0
   68.4701   38.8267   59.1886 C   0  0  0  0  0  0  0  0  0  0  0  0
   69.2786   39.5051   58.3037 C   0  0  0  0  0  0  0  0  0  0  0  0
   70.5697   39.0589   58.1831 C   0  0  0  0  0  0  0  0  0  0  0  0
   71.0400   37.9657   58.9262 C   0  0  0  0  0  0  0  0  0  0  0  0
   71.3226   35.1304   59.8430 C   0  0  0  0  0  0  0  0  0  0  0  0
   70.6984   36.2027   60.5492 O   0  0  0  0  0  0  0  0  0  0  0  0
   68.7584   46.4051   55.6675 C   0  0  0  0  0  0  0  0  0  0  0  0
   68.6413   46.5716   54.2069 C   0  0  0  0  0  0  0  0  0  0  0  0
   69.3308   47.5504   53.5339 C   0  0  0  0  0  0  0  0  0  0  0  0
   69.2121   47.6998   52.1492 C   0  0  0  0  0  0  0  0  0  0  0  0
   68.3878   46.8491   51.4317 C   0  0  0  0  0  0  0  0  0  0  0  0
   67.6962   45.8679   52.1023 C   0  0  0  0  0  0  0  0  0  0  0  0
   67.8308   45.7452   53.4639 C   0  0  0  0  0  0  0  0  0  0  0  0
 17 18  1  0
 18 11  1  0
 11 12  2  0
 11 16  1  0
 12 13  1  0
 13 14  2  0
 14  1  1  0
 14 15  1  0
  1  2  2  0
  1 10  1  0
  2  3  1  0
  3  4  2  0
  3  5  1  0
  5  6  1  0
  5  9  1  0
  6  7  2  0
  7 19  1  0
  7  8  1  0
 19 20  1  0
 20 21  2  0
 20 25  1  0
 21 22  1  0
 22 23  2  0
 23 24  1  0
 24 25  2  0
  8  9  2  0
  9 10  1  0
 15 16  2  0
M  END
>  <minimizedAffinity>  (30) 
-9.24267

$$$$
data/200k_reference_output/data/smiles/48740.pdb
     RDKit          3D

 23 24  0  0  0  0  0  0  0  0999 V2000
   69.9087   49.1845   52.4756 S   0  0  0  0  0  0  0  0  0  0  0  0
   70.0192   49.4894   51.0034 O   0  0  0  0  0  0  0  0  0  0  0  0
   69.0807   50.3078   53.0733 O   0  0  0  0  0  0  0  0  0  0  0  0
   69.0770   47.7033   52.7791 C   0  0  0  0  0  0  0  0  0  0  0  0
   68.4866   47.0396   51.7264 C   0  0  0  0  0  0  0  0  0  0  0  0
   67.8305   45.8589   52.0029 C   0  0  0  0  0  0  0  0  0  0  0  0
   67.7546   45.3395   53.2904 C   0  0  0  0  0  0  0  0  0  0  0  0
   68.3462   46.0025   54.3551 C   0  0  0  0  0  0  0  0  0  0  0  0
   69.0003   47.1804   54.0721 C   0  0  0  0  0  0  0  0  0  0  0  0
   68.2810   45.4876   55.6776 N   0  0  0  0  0  0  0  0  0  0  0  0
   68.0402   44.2981   55.9326 O   0  0  0  0  0  0  0  0  0  0  0  0
   68.4895   46.3285   56.7339 O   0  0  0  0  0  0  0  0  0  0  0  0
   71.4641   49.2819   53.1551 N   0  0  0  0  0  0  0  0  0  0  0  0
   72.9290   50.8875   54.3558 C   0  0  0  0  0  0  0  0  0  0  0  0
   73.9435   50.3695   53.8198 O   0  0  0  0  0  0  0  0  0  0  0  0
   71.6592   50.3371   54.0217 N   0  0  0  0  0  0  0  0  0  0  0  0
   73.7108   53.3649   53.3473 C   0  0  0  0  0  0  0  0  0  0  0  0
   73.4884   53.2336   54.7977 C   0  0  0  0  0  0  0  0  0  0  0  0
   73.6675   54.3256   55.6283 C   0  0  0  0  0  0  0  0  0  0  0  0
   73.4485   54.1602   56.9797 C   0  0  0  0  0  0  0  0  0  0  0  0
   73.0573   52.9310   57.4927 C   0  0  0  0  0  0  0  0  0  0  0  0
   72.8864   51.8550   56.6290 C   0  0  0  0  0  0  0  0  0  0  0  0
   73.1015   52.0027   55.2749 C   0  0  0  0  0  0  0  0  0  0  0  0
 17 18  1  0
 18 19  2  0
 18 23  1  0
 19 20  1  0
 20 21  2  0
 21 22  1  0
 22 23  2  0
 23 14  1  0
 14 15  2  0
 14 16  1  0
 16 13  1  0
 13  1  1  0
  1  2  2  0
  1  3  2  0
  1  4  1  0
  4  5  2  0
  4  9  1  0
  5  6  1  0
  6  7  2  0
  7  8  1  0
  8 10  1  0
  8  9  2  0
 10 11  2  0
 10 12  1  0
M  CHG  2  10   1  12  -1
M  END
>  <minimizedAffinity>  (31) 
-9.23468

$$$$
data/reference_output_2/data/smiles/97728.pdb
     RDKit          3D

 25 27  0  0  0  0  0  0  0  0999 V2000
   66.9791   41.6919   55.3923 O   0  0  0  0  0  0  0  0  0  0  0  0
   67.2492   42.2026   56.4981 C   0  0  0  0  0  0  0  0  0  0  0  0
   67.8014   43.5320   56.4703 N   0  0  0  0  0  0  0  0  0  0  0  0
   68.0503   44.2278   55.2882 N   0  0  0  0  0  0  0  0  0  0  0  0
   68.2812   45.6214   55.2023 C   0  0  0  0  0  0  0  0  0  0  0  0
   68.2405   46.2632   56.2866 O   0  0  0  0  0  0  0  0  0  0  0  0
   68.5536   46.3109   53.9353 C   0  0  0  0  0  0  0  0  0  0  0  0
   67.9451   45.9515   52.7448 C   0  0  0  0  0  0  0  0  0  0  0  0
   68.4365   46.8216   51.7526 C   0  0  0  0  0  0  0  0  0  0  0  0
   69.3057   47.6459   52.4061 C   0  0  0  0  0  0  0  0  0  0  0  0
   69.3354   47.3005   53.6932 O   0  0  0  0  0  0  0  0  0  0  0  0
   70.0546   48.6996   51.8087 N   0  0  0  0  0  0  0  0  0  0  0  0
   70.7324   48.5604   50.7870 O   0  0  0  0  0  0  0  0  0  0  0  0
   70.0231   49.9314   52.4141 O   0  0  0  0  0  0  0  0  0  0  0  0
   67.0043   41.4770   57.7683 C   0  0  0  0  0  0  0  0  0  0  0  0
   68.1379   40.6045   58.1315 C   0  0  0  0  0  0  0  0  0  0  0  0
   67.8180   39.2569   58.3601 C   0  0  0  0  0  0  0  0  0  0  0  0
   68.7951   38.3407   58.6466 C   0  0  0  0  0  0  0  0  0  0  0  0
   70.1276   38.6936   58.7238 C   0  0  0  0  0  0  0  0  0  0  0  0
   71.0976   37.7221   58.9918 C   0  0  0  0  0  0  0  0  0  0  0  0
   72.4182   38.0631   59.0414 C   0  0  0  0  0  0  0  0  0  0  0  0
   72.7514   39.3835   58.8200 C   0  0  0  0  0  0  0  0  0  0  0  0
   71.7865   40.3383   58.5561 C   0  0  0  0  0  0  0  0  0  0  0  0
   70.4496   40.0143   58.5008 C   0  0  0  0  0  0  0  0  0  0  0  0
   69.4497   40.9497   58.2102 C   0  0  0  0  0  0  0  0  0  0  0  0
  1  2  2  0
  2 15  1  0
  2  3  1  0
 15 16  1  0
 16 17  2  0
 16 25  1  0
 17 18  1  0
 18 19  2  0
 19 20  1  0
 19 24  1  0
 20 21  2  0
 21 22  1  0
 22 23  2  0
 23 24  1  0
 24 25  2  0
  3  4  1  0
  4  5  1  0
  5  6  2  0
  5  7  1  0
  7  8  2  0
  7 11  1  0
  8  9  1  0
  9 10  2  0
 10 12  1  0
 10 11  1  0
 12 13  2  0
 12 14  1  0
M  CHG  2  12   1  14  -1
M  END
>  <minimizedAffinity>  (32) 
-9.22613

$$$$
data/reference_output_2/data/smiles/155284.pdb
     RDKit          3D

 25 26  0  0  0  0  0  0  0  0999 V2000
   67.3082   41.5908   56.6070 C   0  0  0  0  0  0  0  0  0  0  0  0
   67.9941   42.8563   56.2308 C   0  0  0  0  0  0  0  0  0  0  0  0
   69.1244   43.1706   56.7286 O   0  0  0  0  0  0  0  0  0  0  0  0
   67.4382   43.7816   55.3054 N   0  0  0  0  0  0  0  0  0  0  0  0
   68.1366   44.9716   54.9851 N   0  0  0  0  0  0  0  0  0  0  0  0
   67.9677   45.6221   53.7343 C   0  0  0  0  0  0  0  0  0  0  0  0
   67.1571   45.0734   52.9314 O   0  0  0  0  0  0  0  0  0  0  0  0
   68.6498   46.8390   53.3451 C   0  0  0  0  0  0  0  0  0  0  0  0
   68.7856   47.9109   54.1911 C   0  0  0  0  0  0  0  0  0  0  0  0
   69.4490   49.0756   53.7940 C   0  0  0  0  0  0  0  0  0  0  0  0
   69.9773   49.1431   52.5205 C   0  0  0  0  0  0  0  0  0  0  0  0
   69.8543   48.0890   51.6602 C   0  0  0  0  0  0  0  0  0  0  0  0
   69.1908   46.9481   52.0863 C   0  0  0  0  0  0  0  0  0  0  0  0
   67.7058   41.1446   57.9724 C   0  0  0  0  0  0  0  0  0  0  0  0
   69.5765   39.6460   58.8396 N   0  0  0  0  0  0  0  0  0  0  0  0
   68.4709   39.8754   57.9765 C   0  0  0  0  0  0  0  0  0  0  0  0
   68.1586   38.9298   57.1937 O   0  0  0  0  0  0  0  0  0  0  0  0
   72.3585   34.6250   58.9129 C   0  0  0  0  0  0  0  0  0  0  0  0
   71.6554   35.9377   58.8689 C   0  0  0  0  0  0  0  0  0  0  0  0
   71.9880   36.9351   57.9751 C   0  0  0  0  0  0  0  0  0  0  0  0
   71.3232   38.1568   57.9457 C   0  0  0  0  0  0  0  0  0  0  0  0
   70.2951   38.4130   58.8228 C   0  0  0  0  0  0  0  0  0  0  0  0
   69.9624   37.4145   59.7167 C   0  0  0  0  0  0  0  0  0  0  0  0
   68.8581   37.6615   60.6742 C   0  0  0  0  0  0  0  0  0  0  0  0
   70.6234   36.2010   59.7455 C   0  0  0  0  0  0  0  0  0  0  0  0
 18 19  1  0
 19 20  2  0
 19 25  1  0
 20 21  1  0
 21 22  2  0
 22 15  1  0
 22 23  1  0
 15 16  1  0
 16 17  2  0
 16 14  1  0
 14  1  1  0
  1  2  1  0
  2  3  2  0
  2  4  1  0
  4  5  1  0
  5  6  1  0
  6  7  2  0
  6  8  1  0
  8  9  2  0
  8 13  1  0
  9 10  1  0
 10 11  2  0
 11 12  1  0
 12 13  2  0
 23 24  1  0
 23 25  2  0
M  END
>  <minimizedAffinity>  (33) 
-9.21958

$$$$
data/reference_output_2/data/smiles/134293.pdb
     RDKit          3D

 26 29  0  0  0  0  0  0  0  0999 V2000
   71.0623   45.7142   59.7592 O   0  0  0  0  0  0  0  0  0  0  0  0
   70.8933   46.0047   58.5564 C   0  0  0  0  0  0  0  0  0  0  0  0
   70.6927   44.9254   57.6099 N   0  0  0  0  0  0  0  0  0  0  0  0
   70.6820   43.5653   58.0081 C   0  0  2  0  0  0  0  0  0  0  0  0
   71.9602   42.8266   57.6963 C   0  0  0  0  0  0  0  0  0  0  0  0
   71.9434   41.5072   58.4152 C   0  0  0  0  0  0  0  0  0  0  0  0
   70.5828   40.9950   58.7426 C   0  0  0  0  0  0  0  0  0  0  0  0
   69.5274   41.4392   57.7990 C   0  0  0  0  0  0  0  0  0  0  0  0
   68.5473   40.5951   57.3184 C   0  0  0  0  0  0  0  0  0  0  0  0
   67.6213   41.1209   56.4484 C   0  0  0  0  0  0  0  0  0  0  0  0
   67.6599   42.4357   56.0636 C   0  0  0  0  0  0  0  0  0  0  0  0
   68.6450   43.2666   56.5516 C   0  0  0  0  0  0  0  0  0  0  0  0
   69.5707   42.7740   57.4120 C   0  0  0  0  0  0  0  0  0  0  0  0
   70.8852   47.3471   58.0474 C   0  0  0  0  0  0  0  0  0  0  0  0
   69.7159   47.9818   57.4607 C   0  0  0  0  0  0  0  0  0  0  0  0
   69.5172   47.9158   56.0336 N   0  0  0  0  0  0  0  0  0  0  0  0
   70.1287   48.7683   55.2024 C   0  0  0  0  0  0  0  0  0  0  0  0
   69.9757   48.6694   53.8951 N   0  0  0  0  0  0  0  0  0  0  0  0
   69.2099   47.7245   53.3246 C   0  0  0  0  0  0  0  0  0  0  0  0
   69.0446   47.6121   51.9675 C   0  0  0  0  0  0  0  0  0  0  0  0
   68.2434   46.6162   51.4477 C   0  0  0  0  0  0  0  0  0  0  0  0
   67.5944   45.7157   52.2862 C   0  0  0  0  0  0  0  0  0  0  0  0
   67.7554   45.8234   53.6430 C   0  0  0  0  0  0  0  0  0  0  0  0
   68.5644   46.8292   54.1477 C   0  0  0  0  0  0  0  0  0  0  0  0
   68.7406   46.9554   55.5194 C   0  0  0  0  0  0  0  0  0  0  0  0
   68.1144   46.1040   56.2517 O   0  0  0  0  0  0  0  0  0  0  0  0
  1  2  2  0
  2 14  1  0
  2  3  1  0
 14 15  1  0
 15 16  1  0
 16 17  1  0
 16 25  1  0
 17 18  2  0
 18 19  1  0
 19 20  2  0
 19 24  1  0
 20 21  1  0
 21 22  2  0
 22 23  1  0
 23 24  2  0
 24 25  1  0
 25 26  2  0
  4  3  1  6
  4  5  1  0
  4 13  1  0
  5  6  1  0
  6  7  1  0
  7  8  1  0
  8  9  2  0
  8 13  1  0
  9 10  1  0
 10 11  2  0
 11 12  1  0
 12 13  2  0
M  END
>  <minimizedAffinity>  (34) 
-9.20262

$$$$
data/200k_reference_output/data/smiles/61419.pdb
     RDKit          3D

 24 26  0  0  0  0  0  0  0  0999 V2000
   68.8553   43.3876   56.6152 C   0  0  0  0  0  0  0  0  0  0  0  0
   69.9945   43.9635   57.0400 N   0  0  0  0  0  0  0  0  0  0  0  0
   70.9702   43.2466   57.6599 C   0  0  0  0  0  0  0  0  0  0  0  0
   72.1410   43.8359   58.0973 C   0  0  0  0  0  0  0  0  0  0  0  0
   73.1353   43.1113   58.7283 C   0  0  0  0  0  0  0  0  0  0  0  0
   72.9350   41.7580   58.9182 C   0  0  0  0  0  0  0  0  0  0  0  0
   71.7517   41.1627   58.4758 C   0  0  0  0  0  0  0  0  0  0  0  0
   70.7622   41.8956   57.8462 C   0  0  0  0  0  0  0  0  0  0  0  0
   69.6093   41.3226   57.4133 N   0  0  0  0  0  0  0  0  0  0  0  0
   68.6522   42.0477   56.8015 C   0  0  0  0  0  0  0  0  0  0  0  0
   67.4177   41.4328   56.3385 C   0  0  0  0  0  0  0  0  0  0  0  0
   66.2947   41.8164   56.7701 O   0  0  0  0  0  0  0  0  0  0  0  0
   67.4804   40.4100   55.4059 O   0  0  0  0  0  0  0  0  0  0  0  0
   67.8716   44.1541   55.9811 O   0  0  0  0  0  0  0  0  0  0  0  0
   68.8267   47.6196   53.7825 C   0  0  0  0  0  0  0  0  0  0  0  0
   69.0669   47.5433   55.1396 C   0  0  0  0  0  0  0  0  0  0  0  0
   68.7585   46.4121   55.8706 C   0  0  0  0  0  0  0  0  0  0  0  0
   68.1925   45.3029   55.2764 C   0  0  0  0  0  0  0  0  0  0  0  0
   67.9532   45.3810   53.9202 C   0  0  0  0  0  0  0  0  0  0  0  0
   68.2608   46.5099   53.1893 C   0  0  0  0  0  0  0  0  0  0  0  0
   69.1555   48.8344   52.9837 C   0  0  0  0  0  0  0  0  0  0  0  0
   71.4859   49.0285   52.7502 O   0  0  0  0  0  0  0  0  0  0  0  0
   70.4152   48.6509   52.2486 C   0  0  0  0  0  0  0  0  0  0  0  0
   70.4071   48.0635   51.0096 O   0  0  0  0  0  0  0  0  0  0  0  0
 22 23  2  0
 23 24  1  0
 23 21  1  0
 21 15  1  0
 15 16  2  0
 15 20  1  0
 16 17  1  0
 17 18  2  0
 18 14  1  0
 18 19  1  0
 14  1  1  0
  1  2  2  0
  1 10  1  0
  2  3  1  0
  3  4  2  0
  3  8  1  0
  4  5  1  0
  5  6  2  0
  6  7  1  0
  7  8  2  0
  8  9  1  0
  9 10  2  0
 10 11  1  0
 11 12  2  0
 11 13  1  0
 19 20  2  0
M  END
>  <minimizedAffinity>  (35) 
-9.19590

$$$$
data/reference_output_2/data/smiles/109483.pdb
     RDKit          3D

 22 23  0  0  0  0  0  0  0  0999 V2000
   70.1535   49.2987   55.8056 N   0  0  0  0  0  0  0  0  0  0  0  0
   68.3029   48.6133   57.2606 C   0  0  0  0  0  0  0  0  0  0  0  0
   67.1834   49.0155   57.9292 C   0  0  0  0  0  0  0  0  0  0  0  0
   66.6679   50.2980   57.9267 C   0  0  0  0  0  0  0  0  0  0  0  0
   67.3085   51.2491   57.2120 C   0  0  0  0  0  0  0  0  0  0  0  0
   68.4676   50.8954   56.5043 C   0  0  0  0  0  0  0  0  0  0  0  0
   68.9690   49.6194   56.5137 C   0  0  0  0  0  0  0  0  0  0  0  0
   70.4750   45.4730   57.8017 C   0  0  0  0  0  0  0  0  0  0  0  0
   70.0200   46.9189   57.9216 C   0  0  0  0  0  0  0  0  0  0  0  0
   70.6907   47.7150   58.6133 O   0  0  0  0  0  0  0  0  0  0  0  0
   68.8469   47.3199   57.2445 N   0  0  0  0  0  0  0  0  0  0  0  0
   70.2325   49.5419   54.1031 S   0  0  0  0  0  0  0  0  0  0  0  0
   71.6798   49.5688   53.6403 O   0  0  0  0  0  0  0  0  0  0  0  0
   69.5376   50.8016   53.7433 O   0  0  0  0  0  0  0  0  0  0  0  0
   69.3925   48.1969   53.3442 C   0  0  0  0  0  0  0  0  0  0  0  0
   68.6134   47.3407   54.1077 C   0  0  0  0  0  0  0  0  0  0  0  0
   67.9399   46.2678   53.5395 C   0  0  0  0  0  0  0  0  0  0  0  0
   68.0197   46.0137   52.1891 C   0  0  0  0  0  0  0  0  0  0  0  0
   68.7908   46.8587   51.4192 C   0  0  0  0  0  0  0  0  0  0  0  0
   69.4643   47.9323   51.9931 C   0  0  0  0  0  0  0  0  0  0  0  0
   70.2570   48.8028   51.1918 N   0  0  0  0  0  0  0  0  0  0  0  0
   69.6879   49.9612   50.7271 O   0  0  0  0  0  0  0  0  0  0  0  0
  8  9  1  0
  9 10  2  0
  9 11  1  0
 11  2  1  0
  2  3  2  0
  2  7  1  0
  3  4  1  0
  4  5  2  0
  5  6  1  0
  6  7  2  0
  7  1  1  0
  1 12  1  0
 12 13  2  0
 12 14  2  0
 12 15  1  0
 15 16  2  0
 15 20  1  0
 16 17  1  0
 17 18  2  0
 18 19  1  0
 19 20  2  0
 20 21  1  0
 21 22  1  0
M  END
>  <minimizedAffinity>  (36) 
-9.18917

$$$$
data/reference_output_2/data/smiles/159783.pdb
     RDKit          3D

 23 24  0  0  0  0  0  0  0  0999 V2000
   69.3039   47.8681   53.3384 C   0  0  0  0  0  0  0  0  0  0  0  0
   69.2696   47.6202   54.6999 C   0  0  0  0  0  0  0  0  0  0  0  0
   69.8988   48.5203   55.5200 F   0  0  0  0  0  0  0  0  0  0  0  0
   68.6237   46.5051   55.2073 C   0  0  0  0  0  0  0  0  0  0  0  0
   68.6341   46.3289   56.5684 F   0  0  0  0  0  0  0  0  0  0  0  0
   67.9885   45.5945   54.3922 C   0  0  0  0  0  0  0  0  0  0  0  0
   68.0294   45.8532   53.0200 C   0  0  0  0  0  0  0  0  0  0  0  0
   67.4049   44.9567   52.2214 F   0  0  0  0  0  0  0  0  0  0  0  0
   68.6714   46.9622   52.5172 C   0  0  0  0  0  0  0  0  0  0  0  0
   68.7033   47.2018   51.1875 F   0  0  0  0  0  0  0  0  0  0  0  0
   69.3567   50.7211   53.3289 N   0  0  0  0  0  0  0  0  0  0  0  0
   70.1246   49.2807   52.7082 S   0  0  0  0  0  0  0  0  0  0  0  0
   71.5693   49.3094   53.1004 O   0  0  0  0  0  0  0  0  0  0  0  0
   70.0503   49.3579   51.2186 O   0  0  0  0  0  0  0  0  0  0  0  0
   67.3321   44.4559   54.9369 N   0  0  0  0  0  0  0  0  0  0  0  0
   68.1340   43.6137   55.7457 N   0  0  0  0  0  0  0  0  0  0  0  0
   67.6927   42.4887   56.1829 C   0  0  0  0  0  0  0  0  0  0  0  0
   68.4605   41.5831   57.0118 C   0  0  0  0  0  0  0  0  0  0  0  0
   67.9804   40.3225   57.2963 C   0  0  0  0  0  0  0  0  0  0  0  0
   68.6887   39.4273   58.0873 C   0  0  0  0  0  0  0  0  0  0  0  0
   69.9063   39.7987   58.6082 C   0  0  0  0  0  0  0  0  0  0  0  0
   70.4143   41.0530   58.3426 C   0  0  0  0  0  0  0  0  0  0  0  0
   69.6861   41.9101   57.5563 C   0  0  0  0  0  0  0  0  0  0  0  0
 11 12  1  0
 12 13  2  0
 12 14  2  0
 12  1  1  0
  1  2  2  0
  1  9  1  0
  2  3  1  0
  2  4  1  0
  4  5  1  0
  4  6  2  0
  6 15  1  0
  6  7  1  0
 15 16  1  0
 16 17  2  0
 17 18  1  0
 18 19  2  0
 18 23  1  0
 19 20  1  0
 20 21  2  0
 21 22  1  0
 22 23  2  0
  7  8  1  0
  7  9  2  0
  9 10  1  0
M  END
>  <minimizedAffinity>  (37) 
-9.18803

$$$$
data/reference_output_2/data/smiles/194536.pdb
     RDKit          3D

 24 26  0  0  0  0  0  0  0  0999 V2000
   72.1926   50.8171   54.7176 S   0  0  0  0  0  0  0  0  0  0  0  0
   73.1881   50.0719   55.5609 O   0  0  0  0  0  0  0  0  0  0  0  0
   72.6918   52.1909   54.4199 O   0  0  0  0  0  0  0  0  0  0  0  0
   70.6363   50.8914   55.5274 C   0  0  0  0  0  0  0  0  0  0  0  0
   69.9712   52.0920   55.6534 C   0  0  0  0  0  0  0  0  0  0  0  0
   68.7466   52.1567   56.2886 C   0  0  0  0  0  0  0  0  0  0  0  0
   68.1359   51.0397   56.8213 C   0  0  0  0  0  0  0  0  0  0  0  0
   66.9087   51.1019   57.4585 C   0  0  0  0  0  0  0  0  0  0  0  0
   66.2980   49.9848   57.9912 C   0  0  0  0  0  0  0  0  0  0  0  0
   66.9581   48.7707   57.8703 C   0  0  0  0  0  0  0  0  0  0  0  0
   68.1841   48.7140   57.2326 C   0  0  0  0  0  0  0  0  0  0  0  0
   68.7979   49.8358   56.6976 C   0  0  0  0  0  0  0  0  0  0  0  0
   70.0268   49.7730   56.0592 C   0  0  0  0  0  0  0  0  0  0  0  0
   72.0383   49.9819   53.1931 N   0  0  0  0  0  0  0  0  0  0  0  0
   70.1437   48.5963   52.4174 C   0  0  0  0  0  0  0  0  0  0  0  0
   70.1457   49.2446   51.3532 O   0  0  0  0  0  0  0  0  0  0  0  0
   71.1083   48.9481   53.3950 N   0  0  0  0  0  0  0  0  0  0  0  0
   66.8479   45.2536   50.8679 N   0  0  0  0  0  0  0  0  0  0  0  0
   67.5609   45.8777   51.9089 C   0  0  0  0  0  0  0  0  0  0  0  0
   67.3411   45.4567   53.2010 C   0  0  0  0  0  0  0  0  0  0  0  0
   68.0502   46.0822   54.2001 C   0  0  0  0  0  0  0  0  0  0  0  0
   68.9450   47.0879   53.9298 C   0  0  0  0  0  0  0  0  0  0  0  0
   69.1818   47.5277   52.6253 C   0  0  0  0  0  0  0  0  0  0  0  0
   68.4692   46.8957   51.6452 C   0  0  0  0  0  0  0  0  0  0  0  0
 18 19  1  0
 19 20  2  0
 19 24  1  0
 20 21  1  0
 21 22  2  0
 22 23  1  0
 23 15  1  0
 23 24  2  0
 15 16  2  0
 15 17  1  0
 17 14  1  0
 14  1  1  0
  1  2  2  0
  1  3  2  0
  1  4  1  0
  4  5  2  0
  4 13  1  0
  5  6  1  0
  6  7  2  0
  7  8  1  0
  7 12  1  0
  8  9  2  0
  9 10  1  0
 10 11  2  0
 11 12  1  0
 12 13  2  0
M  END
>  <minimizedAffinity>  (38) 
-9.17946

$$$$
data/reference_output_2/data/smiles/88507.pdb
     RDKit          3D

 25 27  0  0  0  0  0  0  0  0999 V2000
   68.5980   47.7676   56.6561 C   0  0  0  0  0  0  0  0  0  0  0  0
   67.3508   47.6355   56.9560 O   0  0  0  0  0  0  0  0  0  0  0  0
   68.9770   48.0128   55.2991 C   0  0  0  0  0  0  0  0  0  0  0  0
   69.7707   49.1454   55.0467 C   0  0  0  0  0  0  0  0  0  0  0  0
   70.1890   49.4711   53.7772 C   0  0  0  0  0  0  0  0  0  0  0  0
   70.8986   50.4821   53.5382 O   0  0  0  0  0  0  0  0  0  0  0  0
   69.8463   48.7062   52.7307 N   0  0  0  0  0  0  0  0  0  0  0  0
   69.0812   47.5997   52.9139 C   0  0  0  0  0  0  0  0  0  0  0  0
   68.7593   46.8492   51.8050 C   0  0  0  0  0  0  0  0  0  0  0  0
   67.9854   45.7212   51.9508 C   0  0  0  0  0  0  0  0  0  0  0  0
   67.5654   45.3915   53.2128 C   0  0  0  0  0  0  0  0  0  0  0  0
   67.8942   46.1496   54.3122 C   0  0  0  0  0  0  0  0  0  0  0  0
   68.6600   47.2760   54.2060 C   0  0  0  0  0  0  0  0  0  0  0  0
   69.3746   47.6330   57.8029 O   0  0  0  0  0  0  0  0  0  0  0  0
   70.4933   46.7465   57.7893 C   0  0  0  0  0  0  0  0  0  0  0  0
   69.9877   44.9933   59.1991 O   0  0  0  0  0  0  0  0  0  0  0  0
   70.0510   45.3802   58.0145 C   0  0  0  0  0  0  0  0  0  0  0  0
   69.7070   44.5188   56.9708 N   0  0  0  0  0  0  0  0  0  0  0  0
   69.2670   43.1746   57.1035 C   0  0  0  0  0  0  0  0  0  0  0  0
   69.8615   42.2168   57.8738 C   0  0  0  0  0  0  0  0  0  0  0  0
   69.3471   40.9225   57.9331 C   0  0  0  0  0  0  0  0  0  0  0  0
   68.2371   40.5571   57.2328 C   0  0  0  0  0  0  0  0  0  0  0  0
   67.7809   39.2775   57.3310 F   0  0  0  0  0  0  0  0  0  0  0  0
   67.6189   41.5005   56.4508 C   0  0  0  0  0  0  0  0  0  0  0  0
   68.1304   42.7757   56.3948 C   0  0  0  0  0  0  0  0  0  0  0  0
 16 17  2  0
 17 15  1  0
 17 18  1  0
 15 14  1  0
 14  1  1  0
  1  2  2  0
  1  3  1  0
  3  4  2  0
  3 13  1  0
  4  5  1  0
  5  6  2  0
  5  7  1  0
  7  8  1  0
  8  9  1  0
  8 13  2  0
  9 10  2  0
 10 11  1  0
 11 12  2  0
 12 13  1  0
 18 19  1  0
 19 20  2  0
 19 25  1  0
 20 21  1  0
 21 22  2  0
 22 23  1  0
 22 24  1  0
 24 25  2  0
M  END
>  <minimizedAffinity>  (39) 
-9.17440

$$$$
data/reference_output_2/data/smiles/114897.pdb
     RDKit          3D

 25 27  0  0  0  0  0  0  0  0999 V2000
   68.7632   42.0979   57.7714 C   0  0  1  0  0  0  0  0  0  0  0  0
   67.9589   41.0926   56.9741 C   0  0  0  0  0  0  0  0  0  0  0  0
   68.3182   39.8268   57.6624 C   0  0  0  0  0  0  0  0  0  0  0  0
   67.7452   38.7245   57.4908 O   0  0  0  0  0  0  0  0  0  0  0  0
   69.4085   40.0403   58.5493 N   0  0  0  0  0  0  0  0  0  0  0  0
   70.0095   41.3011   58.0847 C   0  0  0  0  0  0  0  0  0  0  0  0
   68.0703   43.9862   56.2058 N   0  0  0  0  0  0  0  0  0  0  0  0
   69.0521   43.3176   56.9829 C   0  0  0  0  0  0  0  0  0  0  0  0
   70.2183   43.7864   56.9983 O   0  0  0  0  0  0  0  0  0  0  0  0
   68.1874   46.2300   53.2676 C   0  0  0  0  0  0  0  0  0  0  0  0
   68.7767   47.3511   53.8021 C   0  0  0  0  0  0  0  0  0  0  0  0
   69.1375   47.3728   55.1314 C   0  0  0  0  0  0  0  0  0  0  0  0
   68.9257   46.2946   55.9554 C   0  0  0  0  0  0  0  0  0  0  0  0
   68.3359   45.1578   55.4447 C   0  0  0  0  0  0  0  0  0  0  0  0
   67.9802   45.1504   54.1129 C   0  0  0  0  0  0  0  0  0  0  0  0
   66.9119   45.3747   51.4989 O   0  0  0  0  0  0  0  0  0  0  0  0
   67.7925   46.1743   51.8607 C   0  0  0  0  0  0  0  0  0  0  0  0
   68.3815   46.9944   50.9217 O   0  0  0  0  0  0  0  0  0  0  0  0
   69.8390   39.2152   59.6575 C   0  0  0  0  0  0  0  0  0  0  0  0
   70.6353   38.0688   59.1493 C   0  0  0  0  0  0  0  0  0  0  0  0
   70.4520   36.8109   59.7199 C   0  0  0  0  0  0  0  0  0  0  0  0
   71.1712   35.7094   59.2805 C   0  0  0  0  0  0  0  0  0  0  0  0
   72.0690   35.9220   58.2582 C   0  0  0  0  0  0  0  0  0  0  0  0
   72.2558   37.1662   57.6884 C   0  0  0  0  0  0  0  0  0  0  0  0
   71.5422   38.2541   58.1260 C   0  0  0  0  0  0  0  0  0  0  0  0
 16 17  2  0
 17 18  1  0
 17 10  1  0
 10 11  2  0
 10 15  1  0
 11 12  1  0
 12 13  2  0
 13 14  1  0
 14  7  1  0
 14 15  2  0
  7  8  1  0
  8  9  2  0
  1  8  1  6
  1  2  1  0
  1  6  1  0
  2  3  1  0
  3  4  2  0
  3  5  1  0
  5 19  1  0
  5  6  1  0
 19 20  1  0
 20 21  2  0
 20 25  1  0
 21 22  1  0
 22 23  2  0
 23 24  1  0
 24 25  2  0
M  END
>  <minimizedAffinity>  (40) 
-9.17062

$$$$
data/reference_output_2/data/smiles/128907.pdb
     RDKit          3D

 25 27  0  0  0  0  0  0  0  0999 V2000
   69.3230   47.3624   55.7961 C   0  0  0  0  0  0  0  0  0  0  0  0
   68.9049   47.1136   54.4145 C   0  0  0  0  0  0  0  0  0  0  0  0
   67.9490   46.2231   54.0757 C   0  0  0  0  0  0  0  0  0  0  0  0
   67.6211   46.0599   52.7287 C   0  0  0  0  0  0  0  0  0  0  0  0
   68.2207   46.7587   51.7205 C   0  0  0  0  0  0  0  0  0  0  0  0
   69.1975   47.6663   52.0738 C   0  0  0  0  0  0  0  0  0  0  0  0
   69.5345   47.8405   53.4097 C   0  0  0  0  0  0  0  0  0  0  0  0
   68.5161   48.4461   56.4430 C   0  0  0  0  0  0  0  0  0  0  0  0
   68.9121   49.7492   56.2339 C   0  0  0  0  0  0  0  0  0  0  0  0
   68.2431   50.8409   56.7980 C   0  0  0  0  0  0  0  0  0  0  0  0
   67.1590   50.5857   57.5819 C   0  0  0  0  0  0  0  0  0  0  0  0
   66.7645   49.2830   57.7891 C   0  0  0  0  0  0  0  0  0  0  0  0
   67.4326   48.2187   57.2275 C   0  0  0  0  0  0  0  0  0  0  0  0
   68.7148   44.8823   56.1223 N   0  0  0  0  0  0  0  0  0  0  0  0
   69.2323   46.1123   56.5974 C   0  0  0  0  0  0  0  0  0  0  0  0
   69.6343   46.0887   57.8144 O   0  0  0  0  0  0  0  0  0  0  0  0
   67.0613   42.7879   55.6394 O   0  0  0  0  0  0  0  0  0  0  0  0
   67.7947   42.6719   56.6588 C   0  0  0  0  0  0  0  0  0  0  0  0
   68.6724   43.7360   56.9524 N   0  0  0  0  0  0  0  0  0  0  0  0
   67.6921   41.4629   57.4600 C   0  0  0  0  0  0  0  0  0  0  0  0
   66.9854   41.3873   58.6239 C   0  0  0  0  0  0  0  0  0  0  0  0
   66.9172   40.2060   59.3562 C   0  0  0  0  0  0  0  0  0  0  0  0
   67.5787   39.0906   58.8945 C   0  0  0  0  0  0  0  0  0  0  0  0
   68.2846   39.1944   57.7167 C   0  0  0  0  0  0  0  0  0  0  0  0
   68.3265   40.3571   57.0369 N   0  0  0  0  0  0  0  0  0  0  0  0
 17 18  2  0
 18 19  1  0
 18 20  1  0
 19 14  1  0
 14 15  1  0
 15 16  2  0
 15  1  1  0
  1  2  1  0
  1  8  1  0
  2  3  2  0
  2  7  1  0
  3  4  1  0
  4  5  2  0
  5  6  1  0
  6  7  2  0
  8  9  2  0
  8 13  1  0
  9 10  1  0
 10 11  2  0
 11 12  1  0
 12 13  2  0
 20 21  2  0
 20 25  1  0
 21 22  1  0
 22 23  2  0
 23 24  1  0
 24 25  2  0
M  END
>  <minimizedAffinity>  (41) 
-9.17021

$$$$
data/200k_reference_output/data/smiles/35541.pdb
     RDKit          3D

 21 23  0  0  0  0  0  0  0  0999 V2000
   70.2072   49.0671   51.0247 O   0  0  0  0  0  0  0  0  0  0  0  0
   70.1010   49.2021   52.5377 S   0  0  0  0  0  0  0  0  0  0  0  0
   71.5274   49.1852   53.0262 O   0  0  0  0  0  0  0  0  0  0  0  0
   69.2398   47.8481   53.2142 C   0  0  0  0  0  0  0  0  0  0  0  0
   69.3030   47.6022   54.5687 C   0  0  0  0  0  0  0  0  0  0  0  0
   68.6186   46.5230   55.1412 C   0  0  0  0  0  0  0  0  0  0  0  0
   67.8734   45.6924   54.3660 C   0  0  0  0  0  0  0  0  0  0  0  0
   67.7947   45.9175   53.0136 C   0  0  0  0  0  0  0  0  0  0  0  0
   67.1721   45.3172   51.9822 N   0  0  0  0  0  0  0  0  0  0  0  0
   67.4351   45.9465   50.8961 O   0  0  0  0  0  0  0  0  0  0  0  0
   68.2153   46.9568   51.1356 N   0  0  0  0  0  0  0  0  0  0  0  0
   68.4785   46.9939   52.4505 C   0  0  0  0  0  0  0  0  0  0  0  0
   69.4051   50.7069   52.8889 N   0  0  0  0  0  0  0  0  0  0  0  0
   69.3520   51.3094   54.1673 C   0  0  0  0  0  0  0  0  0  0  0  0
   68.2411   51.1639   54.9702 C   0  0  0  0  0  0  0  0  0  0  0  0
   68.1345   51.7263   56.2159 C   0  0  0  0  0  0  0  0  0  0  0  0
   67.0222   51.5435   56.9437 F   0  0  0  0  0  0  0  0  0  0  0  0
   69.1546   52.4764   56.7299 C   0  0  0  0  0  0  0  0  0  0  0  0
   70.2889   52.6453   55.9504 C   0  0  0  0  0  0  0  0  0  0  0  0
   70.3769   52.0653   54.6879 C   0  0  0  0  0  0  0  0  0  0  0  0
   71.4886   52.2441   53.9525 F   0  0  0  0  0  0  0  0  0  0  0  0
  1  2  2  0
  2  3  2  0
  2 13  1  0
  2  4  1  0
 13 14  1  0
 14 15  2  0
 14 20  1  0
 15 16  1  0
 16 17  1  0
 16 18  2  0
 18 19  1  0
 19 20  2  0
 20 21  1  0
  4  5  2  0
  4 12  1  0
  5  6  1  0
  6  7  2  0
  7  8  1  0
  8  9  2  0
  8 12  1  0
  9 10  1  0
 10 11  1  0
 11 12  2  0
M  END
>  <minimizedAffinity>  (42) 
-9.15944

$$$$
data/reference_output_2/data/smiles/141615.pdb
     RDKit          3D

 24 25  0  0  0  0  0  0  0  0999 V2000
   68.3856   46.0934   56.1969 O   0  0  0  0  0  0  0  0  0  0  0  0
   68.2234   45.3969   55.1417 C   0  0  0  0  0  0  0  0  0  0  0  0
   67.9256   44.0277   55.3693 N   0  0  0  0  0  0  0  0  0  0  0  0
   68.3421   45.9977   53.8224 C   0  0  0  0  0  0  0  0  0  0  0  0
   67.5868   45.4907   52.7903 C   0  0  0  0  0  0  0  0  0  0  0  0
   67.6762   46.0335   51.5390 C   0  0  0  0  0  0  0  0  0  0  0  0
   68.5227   47.0961   51.2937 C   0  0  0  0  0  0  0  0  0  0  0  0
   69.2901   47.6290   52.2926 C   0  0  0  0  0  0  0  0  0  0  0  0
   69.1803   47.0560   53.5592 C   0  0  0  0  0  0  0  0  0  0  0  0
   70.1674   48.7152   52.0787 N   0  0  0  0  0  0  0  0  0  0  0  0
   69.9955   49.4394   51.0871 O   0  0  0  0  0  0  0  0  0  0  0  0
   71.1966   48.9729   52.9490 O   0  0  0  0  0  0  0  0  0  0  0  0
   67.8157   43.4725   56.6383 N   0  0  0  0  0  0  0  0  0  0  0  0
   68.8447   42.6812   57.1727 C   0  0  0  0  0  0  0  0  0  0  0  0
   68.5079   41.2021   57.7277 S   0  0  0  0  0  0  0  0  0  0  0  0
   70.1657   43.2109   57.2097 N   0  0  0  0  0  0  0  0  0  0  0  0
   70.5789   44.1481   58.1917 C   0  0  0  0  0  0  0  0  0  0  0  0
   69.6955   44.4844   59.0336 O   0  0  0  0  0  0  0  0  0  0  0  0
   71.9358   44.7155   58.2588 C   0  0  0  0  0  0  0  0  0  0  0  0
   72.1128   46.0634   58.5499 C   0  0  0  0  0  0  0  0  0  0  0  0
   73.3686   46.6230   58.6201 C   0  0  0  0  0  0  0  0  0  0  0  0
   74.5013   45.8478   58.4006 C   0  0  0  0  0  0  0  0  0  0  0  0
   74.3350   44.5088   58.1102 C   0  0  0  0  0  0  0  0  0  0  0  0
   73.0724   43.9802   58.0475 C   0  0  0  0  0  0  0  0  0  0  0  0
  1  2  2  0
  2  3  1  0
  2  4  1  0
  3 13  1  0
 13 14  1  0
 14 15  2  0
 14 16  1  0
 16 17  1  0
 17 18  2  0
 17 19  1  0
 19 20  2  0
 19 24  1  0
 20 21  1  0
 21 22  2  0
 22 23  1  0
 23 24  2  0
  4  5  2  0
  4  9  1  0
  5  6  1  0
  6  7  2  0
  7  8  1  0
  8 10  1  0
  8  9  2  0
 10 11  2  0
 10 12  1  0
M  CHG  2  10   1  12  -1
M  END
>  <minimizedAffinity>  (43) 
-9.15648

$$$$
data/reference_output_2/data/smiles/132268.pdb
     RDKit          3D

 22 23  0  0  0  0  0  0  0  0999 V2000
   69.5651   45.9144   56.6325 N   0  0  0  0  0  0  0  0  0  0  0  0
   68.7014   46.6495   56.0585 C   0  0  0  0  0  0  0  0  0  0  0  0
   67.7957   47.4006   56.8169 N   0  0  0  0  0  0  0  0  0  0  0  0
   68.6528   46.7116   54.6164 C   0  0  0  0  0  0  0  0  0  0  0  0
   67.9159   45.7890   53.8611 C   0  0  0  0  0  0  0  0  0  0  0  0
   67.8788   45.8609   52.4841 C   0  0  0  0  0  0  0  0  0  0  0  0
   68.5622   46.8385   51.7941 C   0  0  0  0  0  0  0  0  0  0  0  0
   69.3080   47.7766   52.5186 C   0  0  0  0  0  0  0  0  0  0  0  0
   69.3241   47.6762   53.8936 C   0  0  0  0  0  0  0  0  0  0  0  0
   70.0156   48.7891   51.8184 N   0  0  0  0  0  0  0  0  0  0  0  0
   70.7014   48.5253   50.8227 O   0  0  0  0  0  0  0  0  0  0  0  0
   69.9496   50.0857   52.2418 O   0  0  0  0  0  0  0  0  0  0  0  0
   69.6472   45.8251   58.0009 O   0  0  0  0  0  0  0  0  0  0  0  0
   70.1632   44.7317   58.6719 C   0  0  0  0  0  0  0  0  0  0  0  0
   69.4986   44.2395   59.6036 O   0  0  0  0  0  0  0  0  0  0  0  0
   70.3040   42.0966   57.6742 C   0  0  0  0  0  0  0  0  0  0  0  0
   71.5282   42.9191   57.7823 C   0  0  0  0  0  0  0  0  0  0  0  0
   72.7507   42.3881   57.3903 C   0  0  0  0  0  0  0  0  0  0  0  0
   73.8885   43.1540   57.4912 C   0  0  0  0  0  0  0  0  0  0  0  0
   73.8209   44.4418   57.9778 C   0  0  0  0  0  0  0  0  0  0  0  0
   72.6154   44.9715   58.3665 C   0  0  0  0  0  0  0  0  0  0  0  0
   71.4488   44.2021   58.2691 C   0  0  0  0  0  0  0  0  0  0  0  0
 16 17  1  0
 17 18  2  0
 17 22  1  0
 18 19  1  0
 19 20  2  0
 20 21  1  0
 21 22  2  0
 22 14  1  0
 14 15  2  0
 14 13  1  0
 13  1  1  0
  1  2  2  0
  2  3  1  0
  2  4  1  0
  4  5  2  0
  4  9  1  0
  5  6  1  0
  6  7  2  0
  7  8  1  0
  8 10  1  0
  8  9  2  0
 10 11  2  0
 10 12  1  0
M  CHG  3   1   1  10   1  12  -1
M  END
>  <minimizedAffinity>  (44) 
-9.15339

$$$$
data/reference_output_2/data/smiles/180227.pdb
     RDKit          3D

 24 26  0  0  0  0  0  0  0  0999 V2000
   69.5848   45.7713   57.1285 N   0  0  0  0  0  0  0  0  0  0  0  0
   68.9876   46.5776   56.3920 C   0  0  0  0  0  0  0  0  0  0  0  0
   68.7417   46.5723   54.9715 C   0  0  0  0  0  0  0  0  0  0  0  0
   68.0747   45.5027   54.3728 C   0  0  0  0  0  0  0  0  0  0  0  0
   67.6617   44.4659   55.2072 O   0  0  0  0  0  0  0  0  0  0  0  0
   67.8274   45.4545   53.0280 C   0  0  0  0  0  0  0  0  0  0  0  0
   68.2114   46.4413   52.1776 C   0  0  0  0  0  0  0  0  0  0  0  0
   68.8778   47.5232   52.7323 C   0  0  0  0  0  0  0  0  0  0  0  0
   69.2978   48.5616   51.9048 C   0  0  0  0  0  0  0  0  0  0  0  0
   69.9645   49.6409   52.4359 C   0  0  0  0  0  0  0  0  0  0  0  0
   70.2252   49.7132   53.7824 C   0  0  0  0  0  0  0  0  0  0  0  0
   69.8101   48.6775   54.6324 C   0  0  0  0  0  0  0  0  0  0  0  0
   69.1432   47.5969   54.1055 C   0  0  0  0  0  0  0  0  0  0  0  0
   69.8084   45.7895   58.4747 N   0  0  0  0  0  0  0  0  0  0  0  0
   69.1409   43.8092   59.9951 O   0  0  0  0  0  0  0  0  0  0  0  0
   70.3578   44.3765   59.2717 S   0  0  0  0  0  0  0  0  0  0  0  0
   71.4486   44.6865   60.2588 O   0  0  0  0  0  0  0  0  0  0  0  0
   70.9001   43.2058   58.0598 C   0  0  0  0  0  0  0  0  0  0  0  0
   69.9740   42.1031   57.8303 C   0  0  0  0  0  0  0  0  0  0  0  0
   68.8908   42.2606   57.0039 C   0  0  0  0  0  0  0  0  0  0  0  0
   68.0141   41.2216   56.8077 C   0  0  0  0  0  0  0  0  0  0  0  0
   68.2199   40.0043   57.4458 C   0  0  0  0  0  0  0  0  0  0  0  0
   69.2958   39.8494   58.2661 C   0  0  0  0  0  0  0  0  0  0  0  0
   70.1651   40.8989   58.4526 C   0  0  0  0  0  0  0  0  0  0  0  0
 15 16  2  0
 16 17  2  0
 16 18  1  0
 16 14  1  0
 18 19  1  0
 19 20  2  0
 19 24  1  0
 20 21  1  0
 21 22  2  0
 22 23  1  0
 23 24  2  0
 14  1  1  0
  1  2  2  0
  2  3  1  0
  3  4  2  0
  3 13  1  0
  4  5  1  0
  4  6  1  0
  6  7  2  0
  7  8  1  0
  8  9  1  0
  8 13  2  0
  9 10  2  0
 10 11  1  0
 11 12  2  0
 12 13  1  0
M  END
>  <minimizedAffinity>  (45) 
-9.13834

$$$$
data/200k_reference_output/data/smiles/5033.pdb
     RDKit          3D

 23 26  0  0  0  0  0  0  0  0999 V2000
   66.3687   41.5363   55.1452 O   0  0  0  0  0  0  0  0  0  0  0  0
   67.3297   41.6370   55.9468 C   0  0  0  0  0  0  0  0  0  0  0  0
   67.7483   40.5364   56.6695 C   0  0  0  0  0  0  0  0  0  0  0  0
   68.8103   40.6404   57.5567 C   0  0  0  0  0  0  0  0  0  0  0  0
   69.3609   41.8640   57.6344 N   0  0  0  0  0  0  0  0  0  0  0  0
   68.9368   42.9368   56.9156 C   0  0  0  0  0  0  0  0  0  0  0  0
   69.3490   44.2238   56.8516 N   0  0  0  0  0  0  0  0  0  0  0  0
   68.5974   44.9090   55.9753 C   0  0  0  0  0  0  0  0  0  0  0  0
   67.7042   44.0315   55.4881 N   0  0  0  0  0  0  0  0  0  0  0  0
   67.9140   42.8359   56.0612 N   0  0  0  0  0  0  0  0  0  0  0  0
   69.2855   39.5117   58.3388 C   0  0  0  0  0  0  0  0  0  0  0  0
   70.5885   39.0836   58.2521 C   0  0  0  0  0  0  0  0  0  0  0  0
   71.0451   37.9912   59.0093 C   0  0  0  0  0  0  0  0  0  0  0  0
   70.2045   37.3284   59.8504 C   0  0  0  0  0  0  0  0  0  0  0  0
   68.9115   37.7371   59.9497 C   0  0  0  0  0  0  0  0  0  0  0  0
   68.4698   38.8205   59.1950 C   0  0  0  0  0  0  0  0  0  0  0  0
   68.7221   46.3617   55.6091 C   0  0  0  0  0  0  0  0  0  0  0  0
   68.6205   46.5442   54.1613 C   0  0  0  0  0  0  0  0  0  0  0  0
   69.3268   47.5385   53.5375 C   0  0  0  0  0  0  0  0  0  0  0  0
   69.2352   47.7188   52.1465 C   0  0  0  0  0  0  0  0  0  0  0  0
   68.4350   46.8999   51.4029 C   0  0  0  0  0  0  0  0  0  0  0  0
   67.7236   45.9011   52.0189 C   0  0  0  0  0  0  0  0  0  0  0  0
   67.8203   45.7256   53.4087 C   0  0  0  0  0  0  0  0  0  0  0  0
  1  2  2  0
  2  3  1  0
  2 10  1  0
  3  4  2  0
  4 11  1  0
  4  5  1  0
 11 12  2  0
 11 16  1  0
 12 13  1  0
 13 14  2  0
 14 15  1  0
 15 16  2  0
  5  6  1  0
  6  7  2  0
  6 10  1  0
  7  8  1  0
  8 17  1  0
  8  9  2  0
 17 18  1  0
 18 19  2  0
 18 23  1  0
 19 20  1  0
 20 21  2  0
 21 22  1  0
 22 23  2  0
  9 10  1  0
M  END
>  <minimizedAffinity>  (46) 
-9.13431

$$$$
data/reference_output_2/data/smiles/169698.pdb
     RDKit          3D

 22 23  0  0  0  0  0  0  0  0999 V2000
   69.1076   46.3390   56.3675 C   0  0  0  0  0  0  0  0  0  0  0  0
   69.7373   46.2769   57.4463 O   0  0  0  0  0  0  0  0  0  0  0  0
   68.4292   45.1528   55.8735 N   0  0  0  0  0  0  0  0  0  0  0  0
   68.5412   44.0143   56.6669 N   0  0  0  0  0  0  0  0  0  0  0  0
   68.2052   42.8378   56.2980 C   0  0  0  0  0  0  0  0  0  0  0  0
   68.3299   41.6554   57.1444 C   0  0  0  0  0  0  0  0  0  0  0  0
   68.7749   41.7669   58.4428 C   0  0  0  0  0  0  0  0  0  0  0  0
   68.9000   40.6446   59.2637 C   0  0  0  0  0  0  0  0  0  0  0  0
   68.5838   39.3867   58.8069 C   0  0  0  0  0  0  0  0  0  0  0  0
   68.7017   38.2590   59.6071 O   0  0  0  0  0  0  0  0  0  0  0  0
   68.1319   39.2612   57.4916 C   0  0  0  0  0  0  0  0  0  0  0  0
   68.0197   40.3884   56.7090 C   0  0  0  0  0  0  0  0  0  0  0  0
   67.5696   40.2330   55.4099 O   0  0  0  0  0  0  0  0  0  0  0  0
   69.0607   47.5972   55.6186 C   0  0  0  0  0  0  0  0  0  0  0  0
   68.1675   47.5239   54.4425 C   0  0  0  0  0  0  0  0  0  0  0  0
   67.6010   45.4116   52.2394 C   0  0  0  0  0  0  0  0  0  0  0  0
   68.5830   46.5403   52.1328 C   0  0  0  0  0  0  0  0  0  0  0  0
   69.3885   46.8427   51.1219 N   0  0  0  0  0  0  0  0  0  0  0  0
   70.1335   47.8980   51.3383 N   0  0  0  0  0  0  0  0  0  0  0  0
   69.7953   48.3206   52.5774 C   0  0  0  0  0  0  0  0  0  0  0  0
   70.4558   49.5015   53.2151 C   0  0  0  0  0  0  0  0  0  0  0  0
   68.8260   47.5042   53.1210 C   0  0  0  0  0  0  0  0  0  0  0  0
 16 17  1  0
 17 18  2  0
 17 22  1  0
 18 19  1  0
 19 20  1  0
 20 21  1  0
 20 22  2  0
 22 15  1  0
 15 14  1  0
 14  1  1  0
  1  2  2  0
  1  3  1  0
  3  4  1  0
  4  5  2  0
  5  6  1  0
  6  7  2  0
  6 12  1  0
  7  8  1  0
  8  9  2  0
  9 10  1  0
  9 11  1  0
 11 12  2  0
 12 13  1  0
M  END
>  <minimizedAffinity>  (47) 
-9.12952

$$$$
data/200k_reference_output/data/smiles/80388.pdb
     RDKit          3D

 24 26  0  0  0  0  0  0  0  0999 V2000
   68.4530   46.8467   53.9702 C   0  0  0  0  0  0  0  0  0  0  0  0
   67.6402   45.9631   53.2252 C   0  0  0  0  0  0  0  0  0  0  0  0
   67.6548   46.0285   51.8585 C   0  0  0  0  0  0  0  0  0  0  0  0
   66.9308   45.2414   51.1710 O   0  0  0  0  0  0  0  0  0  0  0  0
   68.4323   46.9238   51.2233 N   0  0  0  0  0  0  0  0  0  0  0  0
   69.2050   47.7698   51.9020 C   0  0  0  0  0  0  0  0  0  0  0  0
   69.9471   48.6236   51.3066 O   0  0  0  0  0  0  0  0  0  0  0  0
   69.1890   47.7045   53.2678 N   0  0  0  0  0  0  0  0  0  0  0  0
   68.3254   46.7067   55.3889 C   0  0  0  0  0  0  0  0  0  0  0  0
   67.2491   47.2689   55.8881 O   0  0  0  0  0  0  0  0  0  0  0  0
   71.5415   47.0909   59.1529 C   0  0  0  0  0  0  0  0  0  0  0  0
   70.7257   46.2499   58.2105 C   0  0  0  0  0  0  0  0  0  0  0  0
   70.7531   44.8760   58.2708 C   0  0  0  0  0  0  0  0  0  0  0  0
   70.0150   44.0787   57.4219 C   0  0  0  0  0  0  0  0  0  0  0  0
   70.0821   42.5759   57.5312 C   0  0  0  0  0  0  0  0  0  0  0  0
   69.2250   44.6949   56.4824 C   0  0  0  0  0  0  0  0  0  0  0  0
   69.1483   46.0608   56.3653 C   0  0  0  0  0  0  0  0  0  0  0  0
   69.9215   46.8174   57.2565 C   0  0  0  0  0  0  0  0  0  0  0  0
   69.9836   48.7009   53.9293 C   0  0  0  0  0  0  0  0  0  0  0  0
   69.2654   49.9451   54.2848 C   0  0  0  0  0  0  0  0  0  0  0  0
   69.1194   50.2603   55.7445 C   0  0  0  0  0  0  0  0  0  0  0  0
   68.5679   51.6708   55.6618 C   0  0  0  0  0  0  0  0  0  0  0  0
   68.9420   52.2267   54.4993 C   0  0  0  0  0  0  0  0  0  0  0  0
   69.7725   51.2245   53.7201 C   0  0  0  0  0  0  0  0  0  0  0  0
 11 12  1  0
 12 13  2  0
 12 18  1  0
 13 14  1  0
 14 15  1  0
 14 16  2  0
 16 17  1  0
 17  9  1  0
 17 18  2  0
  9 10  2  0
  9  1  1  0
  1  2  2  0
  1  8  1  0
  2  3  1  0
  3  4  2  0
  3  5  1  0
  5  6  1  0
  6  7  2  0
  6  8  1  0
  8 19  1  0
 19 20  1  0
 20 21  1  0
 20 24  1  0
 21 22  1  0
 22 23  2  0
 23 24  1  0
M  END
>  <minimizedAffinity>  (48) 
-9.12779

$$$$
data/200k_reference_output/data/smiles/31821.pdb
     RDKit          3D

 22 24  0  0  0  0  0  0  0  0999 V2000
   69.0230   47.9303   56.8530 S   0  0  0  0  0  0  0  0  0  0  0  0
   67.6670   47.2429   56.9449 O   0  0  0  0  0  0  0  0  0  0  0  0
   68.9085   49.1809   57.6659 O   0  0  0  0  0  0  0  0  0  0  0  0
   69.3545   48.2553   55.1740 C   0  0  0  0  0  0  0  0  0  0  0  0
   70.1209   49.3366   54.7943 C   0  0  0  0  0  0  0  0  0  0  0  0
   70.4077   49.6311   53.4834 C   0  0  0  0  0  0  0  0  0  0  0  0
   69.9132   48.8134   52.4736 C   0  0  0  0  0  0  0  0  0  0  0  0
   70.2034   49.1082   51.1103 N   0  0  0  0  0  0  0  0  0  0  0  0
   69.1394   47.7175   52.8282 C   0  0  0  0  0  0  0  0  0  0  0  0
   68.6530   46.9128   51.8189 C   0  0  0  0  0  0  0  0  0  0  0  0
   67.8771   45.8089   52.1181 C   0  0  0  0  0  0  0  0  0  0  0  0
   67.6211   45.5616   53.4497 C   0  0  0  0  0  0  0  0  0  0  0  0
   68.0965   46.3528   54.4749 C   0  0  0  0  0  0  0  0  0  0  0  0
   68.8644   47.4439   54.1728 C   0  0  0  0  0  0  0  0  0  0  0  0
   70.1758   46.8363   57.4759 N   0  0  0  0  0  0  0  0  0  0  0  0
   70.7268   41.9014   58.0632 C   0  0  0  0  0  0  0  0  0  0  0  0
   70.2207   43.2536   57.6795 C   0  0  0  0  0  0  0  0  0  0  0  0
   69.1014   43.5083   56.9653 N   0  0  0  0  0  0  0  0  0  0  0  0
   68.9718   44.7914   56.8214 O   0  0  0  0  0  0  0  0  0  0  0  0
   69.9381   45.4379   57.3952 C   0  0  0  0  0  0  0  0  0  0  0  0
   70.7656   44.4805   57.9607 C   0  0  0  0  0  0  0  0  0  0  0  0
   72.0107   44.6869   58.7306 C   0  0  0  0  0  0  0  0  0  0  0  0
 16 17  1  0
 17 18  2  0
 17 21  1  0
 18 19  1  0
 19 20  1  0
 20 15  1  0
 20 21  2  0
 15  1  1  0
  1  2  2  0
  1  3  2  0
  1  4  1  0
  4  5  2  0
  4 14  1  0
  5  6  1  0
  6  7  2  0
  7  8  1  0
  7  9  1  0
  9 10  1  0
  9 14  2  0
 10 11  2  0
 11 12  1  0
 12 13  2  0
 13 14  1  0
 21 22  1  0
M  END
>  <minimizedAffinity>  (49) 
-9.11699

$$$$
data/200k_reference_output/data/smiles/51459.pdb
     RDKit          3D

 24 26  0  0  0  0  0  0  0  0999 V2000
   68.6803   42.5090   57.2304 C   0  0  0  0  0  0  0  0  0  0  0  0
   69.8947   42.8230   57.3328 O   0  0  0  0  0  0  0  0  0  0  0  0
   67.8541   43.3883   56.4894 N   0  0  0  0  0  0  0  0  0  0  0  0
   67.1871   38.9929   59.1772 C   0  0  0  0  0  0  0  0  0  0  0  0
   66.8532   40.2540   59.6202 C   0  0  0  0  0  0  0  0  0  0  0  0
   67.3518   41.3586   58.9697 C   0  0  0  0  0  0  0  0  0  0  0  0
   68.1894   41.2775   57.8693 C   0  0  0  0  0  0  0  0  0  0  0  0
   68.5231   40.0205   57.4274 C   0  0  0  0  0  0  0  0  0  0  0  0
   68.0202   38.8994   58.0836 C   0  0  0  0  0  0  0  0  0  0  0  0
   66.6663   37.7602   59.8566 C   0  0  0  0  0  0  0  0  0  0  0  0
   64.5716   36.7662   60.7648 C   0  0  0  0  0  0  0  0  0  0  0  0
   65.1545   37.9380   60.0182 C   0  0  0  0  0  0  0  0  0  0  0  0
   68.3608   44.5587   55.8931 N   0  0  0  0  0  0  0  0  0  0  0  0
   67.9112   45.0526   54.8043 C   0  0  0  0  0  0  0  0  0  0  0  0
   68.4342   46.2654   54.1832 C   0  0  0  0  0  0  0  0  0  0  0  0
   68.4756   47.4602   54.8688 C   0  0  0  0  0  0  0  0  0  0  0  0
   68.9722   48.6218   54.2871 C   0  0  0  0  0  0  0  0  0  0  0  0
   69.4444   48.5987   52.9804 C   0  0  0  0  0  0  0  0  0  0  0  0
   69.4056   47.4057   52.2884 C   0  0  0  0  0  0  0  0  0  0  0  0
   68.9034   46.2469   52.8865 C   0  0  0  0  0  0  0  0  0  0  0  0
   69.9166   47.6819   51.0751 N   0  0  0  0  0  0  0  0  0  0  0  0
   70.2405   48.9393   51.0319 O   0  0  0  0  0  0  0  0  0  0  0  0
   69.9746   49.5300   52.1517 N   0  0  0  0  0  0  0  0  0  0  0  0
   70.1603   50.8452   52.5225 O   0  0  0  0  0  0  0  0  0  0  0  0
 11 12  1  0
 12 10  1  0
 10  4  1  0
  4  5  2  0
  4  9  1  0
  5  6  1  0
  6  7  2  0
  7  1  1  0
  7  8  1  0
  1  2  2  0
  1  3  1  0
  3 13  1  0
 13 14  2  0
 14 15  1  0
 15 16  1  0
 15 20  2  0
 16 17  2  0
 17 18  1  0
 18 19  1  0
 18 23  2  0
 19 20  1  0
 19 21  2  0
 21 22  1  0
 22 23  1  0
 23 24  1  0
  8  9  2  0
M  CHG  2  23   1  24  -1
M  END
>  <minimizedAffinity>  (50) 
-9.11568

$$$$
data/reference_output_2/data/smiles/104363.pdb
     RDKit          3D

 22 24  0  0  0  0  0  0  0  0999 V2000
   70.2194   49.0417   51.0066 O   0  0  0  0  0  0  0  0  0  0  0  0
   70.1330   49.2399   52.5312 S   0  0  0  0  0  0  0  0  0  0  0  0
   71.5985   49.1469   52.9467 O   0  0  0  0  0  0  0  0  0  0  0  0
   69.3039   47.9090   53.2612 C   0  0  0  0  0  0  0  0  0  0  0  0
   68.7393   46.9035   52.4678 C   0  0  0  0  0  0  0  0  0  0  0  0
   68.1277   45.7870   52.9866 C   0  0  0  0  0  0  0  0  0  0  0  0
   68.0555   45.6284   54.3339 C   0  0  0  0  0  0  0  0  0  0  0  0
   67.4356   44.4941   54.8390 O   0  0  0  0  0  0  0  0  0  0  0  0
   68.5998   46.6021   55.1654 C   0  0  0  0  0  0  0  0  0  0  0  0
   68.4821   46.4028   56.4945 N   0  0  0  0  0  0  0  0  0  0  0  0
   68.9618   47.3020   57.3714 C   0  0  0  0  0  0  0  0  0  0  0  0
   69.5779   48.4364   56.8511 C   0  0  0  0  0  0  0  0  0  0  0  0
   69.7083   48.6576   55.5077 C   0  0  0  0  0  0  0  0  0  0  0  0
   69.2107   47.7195   54.6240 C   0  0  0  0  0  0  0  0  0  0  0  0
   69.5655   50.7810   52.9091 N   0  0  0  0  0  0  0  0  0  0  0  0
   69.8127   51.6251   53.9946 C   0  0  0  0  0  0  0  0  0  0  0  0
   71.0907   51.9287   54.3877 C   0  0  0  0  0  0  0  0  0  0  0  0
   71.2919   52.7301   55.4906 C   0  0  0  0  0  0  0  0  0  0  0  0
   70.2220   53.2292   56.2011 C   0  0  0  0  0  0  0  0  0  0  0  0
   68.9388   52.9465   55.8359 C   0  0  0  0  0  0  0  0  0  0  0  0
   68.7514   52.1448   54.7331 C   0  0  0  0  0  0  0  0  0  0  0  0
   67.4584   51.8796   54.3923 F   0  0  0  0  0  0  0  0  0  0  0  0
  1  2  2  0
  2  3  2  0
  2 15  1  0
  2  4  1  0
 15 16  1  0
 16 17  2  0
 16 21  1  0
 17 18  1  0
 18 19  2  0
 19 20  1  0
 20 21  2  0
 21 22  1  0
  4  5  2  0
  4 14  1  0
  5  6  1  0
  6  7  2  0
  7  8  1  0
  7  9  1  0
  9 10  1  0
  9 14  2  0
 10 11  2  0
 11 12  1  0
 12 13  2  0
 13 14  1  0
M  END
>  <minimizedAffinity>  (51) 
-9.10441

$$$$
data/200k_reference_output/data/smiles/37460.pdb
     RDKit          3D

 22 24  0  0  0  0  0  0  0  0999 V2000
   69.5170   46.2144   56.5831 N   0  0  0  0  0  0  0  0  0  0  0  0
   68.4077   42.1350   56.6384 C   0  0  0  0  0  0  0  0  0  0  0  0
   67.7371   43.0682   55.8730 C   0  0  0  0  0  0  0  0  0  0  0  0
   68.1293   44.3535   55.8827 N   0  0  0  0  0  0  0  0  0  0  0  0
   69.1614   44.8214   56.6061 C   0  0  0  0  0  0  0  0  0  0  0  0
   69.8204   43.9199   57.3542 N   0  0  0  0  0  0  0  0  0  0  0  0
   69.4665   42.6108   57.3811 C   0  0  0  0  0  0  0  0  0  0  0  0
   67.6494   40.1804   55.5631 O   0  0  0  0  0  0  0  0  0  0  0  0
   67.9943   40.7370   56.6375 C   0  0  0  0  0  0  0  0  0  0  0  0
   67.9538   39.9368   57.8096 N   0  0  0  0  0  0  0  0  0  0  0  0
   67.5578   38.6266   57.7636 O   0  0  0  0  0  0  0  0  0  0  0  0
   68.7733   47.1911   55.8036 C   0  0  0  0  0  0  0  0  0  0  0  0
   67.7807   47.9964   56.5588 C   0  0  0  0  0  0  0  0  0  0  0  0
   69.0857   48.6402   56.3172 C   0  0  0  0  0  0  0  0  0  0  0  0
   68.7886   47.1293   54.3279 C   0  0  0  0  0  0  0  0  0  0  0  0
   69.5972   47.9201   53.5942 C   0  0  0  0  0  0  0  0  0  0  0  0
   69.6006   47.8692   52.2067 C   0  0  0  0  0  0  0  0  0  0  0  0
   70.4220   48.6738   51.4806 F   0  0  0  0  0  0  0  0  0  0  0  0
   68.7552   46.9877   51.5461 C   0  0  0  0  0  0  0  0  0  0  0  0
   67.9326   46.1825   52.3033 C   0  0  0  0  0  0  0  0  0  0  0  0
   67.1144   45.3276   51.6500 F   0  0  0  0  0  0  0  0  0  0  0  0
   67.9453   46.2496   53.6988 C   0  0  0  0  0  0  0  0  0  0  0  0
  8  9  2  0
  9 10  1  0
  9  2  1  0
 10 11  1  0
  2  3  2  0
  2  7  1  0
  3  4  1  0
  4  5  2  0
  5  1  1  0
  5  6  1  0
  1 12  1  0
 12 15  1  0
 12 13  1  0
 12 14  1  0
 15 16  2  0
 15 22  1  0
 16 17  1  0
 17 18  1  0
 17 19  2  0
 19 20  1  0
 20 21  1  0
 20 22  2  0
 13 14  1  0
  6  7  2  0
M  END
>  <minimizedAffinity>  (52) 
-9.10413

$$$$
data/reference_output_2/data/smiles/111889.pdb
     RDKit          3D

 25 27  0  0  0  0  0  0  0  0999 V2000
   67.6066   41.9299   56.3443 O   0  0  0  0  0  0  0  0  0  0  0  0
   68.4275   42.5360   57.1125 C   0  0  0  0  0  0  0  0  0  0  0  0
   68.8357   43.8181   56.7044 N   0  0  0  0  0  0  0  0  0  0  0  0
   68.1211   44.5742   55.9730 N   0  0  0  0  0  0  0  0  0  0  0  0
   68.5915   45.8619   55.5938 C   0  0  0  0  0  0  0  0  0  0  0  0
   69.0821   46.8745   56.3936 C   0  0  0  0  0  0  0  0  0  0  0  0
   69.1925   46.7677   57.7729 O   0  0  0  0  0  0  0  0  0  0  0  0
   69.4175   47.9289   55.6296 N   0  0  0  0  0  0  0  0  0  0  0  0
   69.1633   47.6528   54.3292 C   0  0  0  0  0  0  0  0  0  0  0  0
   69.3150   48.3617   53.1521 C   0  0  0  0  0  0  0  0  0  0  0  0
   68.9664   47.8262   51.9249 C   0  0  0  0  0  0  0  0  0  0  0  0
   68.4519   46.5460   51.8770 C   0  0  0  0  0  0  0  0  0  0  0  0
   68.3074   45.8528   53.0604 C   0  0  0  0  0  0  0  0  0  0  0  0
   68.6491   46.3675   54.2982 C   0  0  0  0  0  0  0  0  0  0  0  0
   68.8572   41.8443   58.3301 C   0  0  0  0  0  0  0  0  0  0  0  0
   69.2567   40.4804   58.0370 N   0  0  0  0  0  0  0  0  0  0  0  0
   70.2668   39.8030   58.7707 C   0  0  0  0  0  0  0  0  0  0  0  0
   70.8333   40.4032   59.7062 O   0  0  0  0  0  0  0  0  0  0  0  0
   70.6255   38.4198   58.4227 C   0  0  0  0  0  0  0  0  0  0  0  0
   71.8614   38.0268   58.2497 C   0  0  0  0  0  0  0  0  0  0  0  0
   72.2004   36.6358   57.9008 C   0  0  0  0  0  0  0  0  0  0  0  0
   72.1127   35.5449   58.7399 C   0  0  0  0  0  0  0  0  0  0  0  0
   72.5206   34.4415   58.0273 C   0  0  0  0  0  0  0  0  0  0  0  0
   72.8453   34.8958   56.7706 C   0  0  0  0  0  0  0  0  0  0  0  0
   72.6396   36.1852   56.7533 O   0  0  0  0  0  0  0  0  0  0  0  0
  1  2  2  0
  2 15  1  0
  2  3  1  0
 15 16  1  0
 16 17  1  0
 17 18  2  0
 17 19  1  0
 19 20  2  0
 20 21  1  0
 21 22  2  0
 21 25  1  0
 22 23  1  0
 23 24  2  0
 24 25  1  0
  3  4  2  0
  4  5  1  0
  5  6  2  0
  5 14  1  0
  6  7  1  0
  6  8  1  0
  8  9  1  0
  9 10  1  0
  9 14  2  0
 10 11  2  0
 11 12  1  0
 12 13  2  0
 13 14  1  0
M  END
>  <minimizedAffinity>  (53) 
-9.10044

$$$$
data/200k_reference_output/data/smiles/16405.pdb
     RDKit          3D

 24 26  0  0  0  0  0  0  0  0999 V2000
   69.9937   41.6249   58.1552 C   0  0  0  0  0  0  0  0  0  0  0  0
   70.4274   40.5404   58.8908 C   0  0  0  0  0  0  0  0  0  0  0  0
   69.7749   39.3194   58.8351 C   0  0  0  0  0  0  0  0  0  0  0  0
   68.6682   39.2081   58.0203 C   0  0  0  0  0  0  0  0  0  0  0  0
   68.2288   40.2831   57.2841 C   0  0  0  0  0  0  0  0  0  0  0  0
   68.8986   41.4952   57.3565 C   0  0  0  0  0  0  0  0  0  0  0  0
   68.2283   42.4564   56.4893 C   0  0  0  0  0  0  0  0  0  0  0  0
   68.5026   43.7033   56.2492 N   0  0  0  0  0  0  0  0  0  0  0  0
   67.0988   41.7469   55.8791 C   0  0  0  0  0  0  0  0  0  0  0  0
   66.2834   42.2267   55.0754 O   0  0  0  0  0  0  0  0  0  0  0  0
   67.1188   40.4021   56.3857 N   0  0  0  0  0  0  0  0  0  0  0  0
   72.1620   42.6587   57.7970 C   0  0  0  0  0  0  0  0  0  0  0  0
   70.7465   42.8956   58.2566 C   0  0  0  0  0  0  0  0  0  0  0  0
   67.6928   44.4439   55.3538 N   0  0  0  0  0  0  0  0  0  0  0  0
   68.2286   45.6138   54.7362 C   0  0  0  0  0  0  0  0  0  0  0  0
   68.1904   45.7966   53.3700 C   0  0  0  0  0  0  0  0  0  0  0  0
   68.7090   46.9379   52.7611 C   0  0  0  0  0  0  0  0  0  0  0  0
   69.2879   47.9392   53.5171 C   0  0  0  0  0  0  0  0  0  0  0  0
   69.3201   47.7460   54.8816 C   0  0  0  0  0  0  0  0  0  0  0  0
   68.8068   46.6172   55.4824 C   0  0  0  0  0  0  0  0  0  0  0  0
   69.9477   49.3876   52.7784 S   0  0  0  0  0  0  0  0  0  0  0  0
   71.5241   49.6583   53.4646 N   0  0  0  0  0  0  0  0  0  0  0  0
   69.1269   50.5975   53.0629 O   0  0  0  0  0  0  0  0  0  0  0  0
   70.0444   49.2316   51.2873 O   0  0  0  0  0  0  0  0  0  0  0  0
 12 13  1  0
 13  1  1  0
  1  2  2  0
  1  6  1  0
  2  3  1  0
  3  4  2  0
  4  5  1  0
  5  6  2  0
  5 11  1  0
  6  7  1  0
  7  8  2  0
  7  9  1  0
  8 14  1  0
 14 15  1  0
 15 16  2  0
 15 20  1  0
 16 17  1  0
 17 18  2  0
 18 21  1  0
 18 19  1  0
 21 22  1  0
 21 23  2  0
 21 24  2  0
 19 20  2  0
  9 10  2  0
  9 11  1  0
M  END
>  <minimizedAffinity>  (54) 
-9.09859

$$$$
data/200k_reference_output/data/smiles/53089.pdb
     RDKit          3D

 22 23  0  0  0  0  0  0  0  0999 V2000
   67.7953   47.4308   56.8314 N   0  0  0  0  0  0  0  0  0  0  0  0
   68.6955   46.6576   56.0544 C   0  0  0  0  0  0  0  0  0  0  0  0
   69.5598   45.8976   56.6187 N   0  0  0  0  0  0  0  0  0  0  0  0
   68.6511   46.7182   54.5980 C   0  0  0  0  0  0  0  0  0  0  0  0
   67.9227   45.7904   53.8603 C   0  0  0  0  0  0  0  0  0  0  0  0
   67.8829   45.8487   52.4845 C   0  0  0  0  0  0  0  0  0  0  0  0
   68.5749   46.8414   51.8243 C   0  0  0  0  0  0  0  0  0  0  0  0
   69.3081   47.7813   52.5086 C   0  0  0  0  0  0  0  0  0  0  0  0
   69.3245   47.6893   53.8817 C   0  0  0  0  0  0  0  0  0  0  0  0
   70.0229   48.8061   51.8276 N   0  0  0  0  0  0  0  0  0  0  0  0
   70.6985   48.5251   50.8262 O   0  0  0  0  0  0  0  0  0  0  0  0
   69.9719   50.0979   52.2640 O   0  0  0  0  0  0  0  0  0  0  0  0
   69.5974   45.8445   57.9857 O   0  0  0  0  0  0  0  0  0  0  0  0
   70.7574   45.7819   58.7043 C   0  0  0  0  0  0  0  0  0  0  0  0
   70.9149   46.5189   59.6883 O   0  0  0  0  0  0  0  0  0  0  0  0
   71.8001   44.8620   58.3239 C   0  0  0  0  0  0  0  0  0  0  0  0
   71.4536   43.5431   58.0294 C   0  0  0  0  0  0  0  0  0  0  0  0
   72.4097   42.6311   57.6624 C   0  0  0  0  0  0  0  0  0  0  0  0
   73.7258   42.9782   57.5744 C   0  0  0  0  0  0  0  0  0  0  0  0
   74.7028   42.0910   57.2113 F   0  0  0  0  0  0  0  0  0  0  0  0
   74.0531   44.2805   57.8674 C   0  0  0  0  0  0  0  0  0  0  0  0
   73.1321   45.2270   58.2386 C   0  0  0  0  0  0  0  0  0  0  0  0
  1  2  1  0
  2  3  2  0
  2  4  1  0
  3 13  1  0
 13 14  1  0
 14 15  2  0
 14 16  1  0
 16 17  2  0
 16 22  1  0
 17 18  1  0
 18 19  2  0
 19 20  1  0
 19 21  1  0
 21 22  2  0
  4  5  2  0
  4  9  1  0
  5  6  1  0
  6  7  2  0
  7  8  1  0
  8 10  1  0
  8  9  2  0
 10 11  2  0
 10 12  1  0
M  CHG  3   3   1  10   1  12  -1
M  END
>  <minimizedAffinity>  (55) 
-9.09663

$$$$
data/200k_reference_output/data/smiles/18875.pdb
     RDKit          3D

 24 27  0  0  0  0  0  0  0  0999 V2000
   68.1299   45.6113   54.6691 C   0  0  0  0  0  0  0  0  0  0  0  0
   68.2327   46.5360   55.6867 C   0  0  0  0  0  0  0  0  0  0  0  0
   68.6967   47.8247   55.4782 C   0  0  0  0  0  0  0  0  0  0  0  0
   69.0601   48.1496   54.1826 C   0  0  0  0  0  0  0  0  0  0  0  0
   69.5284   49.4147   53.9311 C   0  0  0  0  0  0  0  0  0  0  0  0
   69.8977   49.7705   52.6677 N   0  0  0  0  0  0  0  0  0  0  0  0
   69.8122   48.9079   51.6613 N   0  0  0  0  0  0  0  0  0  0  0  0
   69.3570   47.6388   51.8469 C   0  0  0  0  0  0  0  0  0  0  0  0
   69.2842   46.8310   50.8737 O   0  0  0  0  0  0  0  0  0  0  0  0
   68.9793   47.2643   53.1213 C   0  0  0  0  0  0  0  0  0  0  0  0
   68.5050   45.9813   53.3867 C   0  0  0  0  0  0  0  0  0  0  0  0
   69.6303   50.3913   55.0405 C   0  0  0  0  0  0  0  0  0  0  0  0
   69.2756   50.0673   56.2846 C   0  0  0  0  0  0  0  0  0  0  0  0
   69.3130   50.9324   57.5198 C   0  0  0  0  0  0  0  0  0  0  0  0
   70.2207   52.0985   57.1931 C   0  0  0  0  0  0  0  0  0  0  0  0
   69.3598   53.0821   56.4453 C   0  0  0  0  0  0  0  0  0  0  0  0
   69.4891   52.8967   54.9831 C   0  0  0  0  0  0  0  0  0  0  0  0
   70.1616   51.6482   54.5158 C   0  0  0  0  0  0  0  0  0  0  0  0
   68.7991   48.7737   56.5365 N   0  0  0  0  0  0  0  0  0  0  0  0
   67.6679   44.2800   54.8519 N   0  0  0  0  0  0  0  0  0  0  0  0
   67.7436   41.5865   57.5858 C   0  0  0  0  0  0  0  0  0  0  0  0
   67.4726   42.2969   56.2966 C   0  0  0  0  0  0  0  0  0  0  0  0
   66.8306   41.7037   55.4169 O   0  0  0  0  0  0  0  0  0  0  0  0
   67.9167   43.6113   56.0490 N   0  0  0  0  0  0  0  0  0  0  0  0
 21 22  1  0
 22 23  2  0
 22 24  1  0
 24 20  1  0
 20  1  1  0
  1  2  2  0
  1 11  1  0
  2  3  1  0
  3  4  2  0
  3 19  1  0
  4  5  1  0
  4 10  1  0
  5  6  2  0
  5 12  1  0
  6  7  1  0
  7  8  1  0
  8  9  2  0
  8 10  1  0
 10 11  2  0
 12 13  2  0
 12 18  1  0
 13 14  1  0
 13 19  1  0
 14 15  1  0
 15 16  1  0
 16 17  1  0
 17 18  1  0
M  END
>  <minimizedAffinity>  (56) 
-9.09619

$$$$
data/200k_reference_output/data/smiles/34321.pdb
     RDKit          3D

 21 22  0  0  0  0  0  0  0  0999 V2000
   68.0465   45.4889   54.5462 C   0  0  0  0  0  0  0  0  0  0  0  0
   68.6429   46.4929   55.3756 C   0  0  0  0  0  0  0  0  0  0  0  0
   69.2236   47.6188   54.8765 C   0  0  0  0  0  0  0  0  0  0  0  0
   69.2735   47.8655   53.5250 C   0  0  0  0  0  0  0  0  0  0  0  0
   68.7115   46.9281   52.7003 C   0  0  0  0  0  0  0  0  0  0  0  0
   68.1109   45.7609   53.2285 C   0  0  0  0  0  0  0  0  0  0  0  0
   67.5741   44.9521   52.2945 F   0  0  0  0  0  0  0  0  0  0  0  0
   70.0157   49.3043   52.8616 S   0  0  0  0  0  0  0  0  0  0  0  0
   69.9192   49.3070   51.1442 N   0  0  0  0  0  0  0  0  0  0  0  0
   69.3213   50.5155   53.3865 O   0  0  0  0  0  0  0  0  0  0  0  0
   71.4593   49.4013   53.2653 O   0  0  0  0  0  0  0  0  0  0  0  0
   67.5338   44.4730   55.1897 O   0  0  0  0  0  0  0  0  0  0  0  0
   68.7889   41.1437   57.4007 C   0  0  0  0  0  0  0  0  0  0  0  0
   69.4394   42.3543   57.4311 C   0  0  0  0  0  0  0  0  0  0  0  0
   69.0122   43.4146   56.7047 C   0  0  0  0  0  0  0  0  0  0  0  0
   67.8547   43.3666   55.8505 C   0  0  0  0  0  0  0  0  0  0  0  0
   67.2410   42.1561   55.8499 C   0  0  0  0  0  0  0  0  0  0  0  0
   66.0991   41.9703   55.0690 O   0  0  0  0  0  0  0  0  0  0  0  0
   67.6834   41.0457   56.6048 C   0  0  0  0  0  0  0  0  0  0  0  0
   68.1208   39.0327   58.4705 C   0  0  0  0  0  0  0  0  0  0  0  0
   69.2612   39.9838   58.1950 C   0  0  0  0  0  0  0  0  0  0  0  0
 20 21  1  0
 21 13  1  0
 13 14  2  0
 13 19  1  0
 14 15  1  0
 15 16  2  0
 16 12  1  0
 16 17  1  0
 12  1  1  0
  1  2  2  0
  1  6  1  0
  2  3  1  0
  3  4  2  0
  4  8  1  0
  4  5  1  0
  8  9  1  0
  8 10  2  0
  8 11  2  0
  5  6  2  0
  6  7  1  0
 17 18  1  0
 17 19  2  0
M  END
>  <minimizedAffinity>  (57) 
-9.08854

$$$$
data/reference_output_2/data/smiles/187589.pdb
     RDKit          3D

 23 25  0  0  0  0  0  0  0  0999 V2000
   69.1474   47.4110   56.4495 S   0  0  0  0  0  0  0  0  0  0  0  0
   70.3079   47.1768   57.4221 O   0  0  0  0  0  0  0  0  0  0  0  0
   68.3384   46.1486   56.5105 O   0  0  0  0  0  0  0  0  0  0  0  0
   68.2736   48.8307   56.9012 C   0  0  0  0  0  0  0  0  0  0  0  0
   67.1443   48.8047   57.6609 C   0  0  0  0  0  0  0  0  0  0  0  0
   66.4896   50.0005   57.9757 C   0  0  0  0  0  0  0  0  0  0  0  0
   66.9473   51.2254   57.5425 C   0  0  0  0  0  0  0  0  0  0  0  0
   68.0956   51.2276   56.7727 C   0  0  0  0  0  0  0  0  0  0  0  0
   68.5976   52.4465   56.3094 C   0  0  0  0  0  0  0  0  0  0  0  0
   69.7433   52.4199   55.5443 C   0  0  0  0  0  0  0  0  0  0  0  0
   70.3851   51.2410   55.2366 C   0  0  0  0  0  0  0  0  0  0  0  0
   69.8779   50.0855   55.6966 N   0  0  0  0  0  0  0  0  0  0  0  0
   68.7586   50.0619   56.4483 C   0  0  0  0  0  0  0  0  0  0  0  0
   69.7717   47.5554   54.8380 N   0  0  0  0  0  0  0  0  0  0  0  0
   69.2694   47.5215   52.4737 C   0  0  0  0  0  0  0  0  0  0  0  0
   68.5175   46.9461   51.4272 C   0  0  0  0  0  0  0  0  0  0  0  0
   67.6000   45.9533   51.6454 C   0  0  0  0  0  0  0  0  0  0  0  0
   67.4018   45.4997   52.9280 C   0  0  0  0  0  0  0  0  0  0  0  0
   68.0968   46.0167   53.9732 C   0  0  0  0  0  0  0  0  0  0  0  0
   69.0428   47.0418   53.7359 C   0  0  0  0  0  0  0  0  0  0  0  0
   69.9779   49.2585   51.1017 O   0  0  0  0  0  0  0  0  0  0  0  0
   70.2088   48.5779   52.1679 C   0  0  0  0  0  0  0  0  0  0  0  0
   71.3253   48.9725   52.8488 O   0  0  0  0  0  0  0  0  0  0  0  0
 21 22  2  0
 22 23  1  0
 22 15  1  0
 15 16  2  0
 15 20  1  0
 16 17  1  0
 17 18  2  0
 18 19  1  0
 19 20  2  0
 20 14  1  0
 14  1  1  0
  1  2  2  0
  1  3  2  0
  1  4  1  0
  4  5  2  0
  4 13  1  0
  5  6  1  0
  6  7  2  0
  7  8  1  0
  8  9  1  0
  8 13  2  0
  9 10  2  0
 10 11  1  0
 11 12  2  0
 12 13  1  0
M  END
>  <minimizedAffinity>  (58) 
-9.07623

$$$$
data/200k_reference_output/data/smiles/35003.pdb
     RDKit          3D

 23 26  0  0  0  0  0  0  0  0999 V2000
   68.8485   45.4503   56.0800 C   0  0  0  0  0  0  0  0  0  0  0  0
   68.0640   44.4424   55.7527 N   0  0  0  0  0  0  0  0  0  0  0  0
   68.2162   43.2494   56.3289 C   0  0  0  0  0  0  0  0  0  0  0  0
   67.3191   41.6815   56.1080 S   0  0  0  0  0  0  0  0  0  0  0  0
   68.2535   40.7677   57.2777 C   0  0  0  0  0  0  0  0  0  0  0  0
   69.1533   41.6488   57.7547 C   0  0  0  0  0  0  0  0  0  0  0  0
   69.1322   42.9201   57.2660 C   0  0  0  0  0  0  0  0  0  0  0  0
   69.9739   44.0163   57.6127 C   0  0  0  0  0  0  0  0  0  0  0  0
   70.8876   43.9072   58.4673 O   0  0  0  0  0  0  0  0  0  0  0  0
   69.7931   45.1861   57.0191 N   0  0  0  0  0  0  0  0  0  0  0  0
   69.9606   40.8530   58.7905 C   0  0  0  0  0  0  0  0  0  0  0  0
   69.8611   39.4672   58.2539 C   0  0  0  0  0  0  0  0  0  0  0  0
   68.3822   39.4004   57.8866 C   0  0  0  0  0  0  0  0  0  0  0  0
   68.7774   46.8058   55.5177 C   0  0  0  0  0  0  0  0  0  0  0  0
   69.1055   47.6490   53.1792 C   0  0  0  0  0  0  0  0  0  0  0  0
   68.8281   47.5128   51.8108 C   0  0  0  0  0  0  0  0  0  0  0  0
   68.0846   46.4696   51.3554 C   0  0  0  0  0  0  0  0  0  0  0  0
   67.5733   45.5085   52.1973 C   0  0  0  0  0  0  0  0  0  0  0  0
   67.8448   45.6457   53.5297 C   0  0  0  0  0  0  0  0  0  0  0  0
   68.6107   46.7145   54.0417 C   0  0  0  0  0  0  0  0  0  0  0  0
   69.6467   49.5613   54.4380 O   0  0  0  0  0  0  0  0  0  0  0  0
   69.9604   48.7362   53.5826 C   0  0  0  0  0  0  0  0  0  0  0  0
   71.2203   48.8842   52.9840 O   0  0  0  0  0  0  0  0  0  0  0  0
 21 22  2  0
 22 23  1  0
 22 15  1  0
 15 16  2  0
 15 20  1  0
 16 17  1  0
 17 18  2  0
 18 19  1  0
 19 20  2  0
 20 14  1  0
 14  1  1  0
  1  2  2  0
  1 10  1  0
  2  3  1  0
  3  4  1  0
  3  7  2  0
  4  5  1  0
  5  6  2  0
  5 13  1  0
  6  7  1  0
  6 11  1  0
  7  8  1  0
  8  9  2  0
  8 10  1  0
 11 12  1  0
 12 13  1  0
M  END
>  <minimizedAffinity>  (59) 
-9.07302

$$$$
data/200k_reference_output/data/smiles/37312.pdb
     RDKit          3D

 26 29  0  0  0  0  0  0  0  0999 V2000
   69.8708   45.7164   58.7802 O   0  0  0  0  0  0  0  0  0  0  0  0
   69.8603   44.7939   57.9071 C   0  0  0  0  0  0  0  0  0  0  0  0
   69.1594   45.1407   56.7015 N   0  0  0  0  0  0  0  0  0  0  0  0
   70.4853   43.5011   58.0628 C   0  0  0  0  0  0  0  0  0  0  0  0
   69.7047   42.3717   58.1348 C   0  0  0  0  0  0  0  0  0  0  0  0
   68.3301   42.4892   58.1019 O   0  0  0  0  0  0  0  0  0  0  0  0
   70.2929   41.1324   58.2422 C   0  0  0  0  0  0  0  0  0  0  0  0
   69.4994   39.9950   58.3134 O   0  0  0  0  0  0  0  0  0  0  0  0
   71.6451   40.9800   58.2818 C   0  0  0  0  0  0  0  0  0  0  0  0
   72.4396   42.1032   58.2112 C   0  0  0  0  0  0  0  0  0  0  0  0
   73.8264   41.9850   58.2403 C   0  0  0  0  0  0  0  0  0  0  0  0
   74.6354   43.0959   58.1604 C   0  0  0  0  0  0  0  0  0  0  0  0
   74.1017   44.3564   58.0499 C   0  0  0  0  0  0  0  0  0  0  0  0
   72.7046   44.4778   58.0201 C   0  0  0  0  0  0  0  0  0  0  0  0
   71.8812   43.3859   58.0998 C   0  0  0  0  0  0  0  0  0  0  0  0
   68.5415   46.4090   56.5571 N   0  0  0  0  0  0  0  0  0  0  0  0
   69.0193   47.2975   55.5603 C   0  0  0  0  0  0  0  0  0  0  0  0
   69.7427   48.4189   55.8470 N   0  0  0  0  0  0  0  0  0  0  0  0
   70.1791   49.2379   54.8985 C   0  0  0  0  0  0  0  0  0  0  0  0
   69.9077   48.9655   53.6153 N   0  0  0  0  0  0  0  0  0  0  0  0
   69.1991   47.8770   53.2629 C   0  0  0  0  0  0  0  0  0  0  0  0
   68.9504   47.6497   51.9263 C   0  0  0  0  0  0  0  0  0  0  0  0
   68.2198   46.5296   51.5439 C   0  0  0  0  0  0  0  0  0  0  0  0
   67.7517   45.6625   52.4830 C   0  0  0  0  0  0  0  0  0  0  0  0
   68.0100   45.9045   53.8361 C   0  0  0  0  0  0  0  0  0  0  0  0
   68.7403   47.0206   54.2382 C   0  0  0  0  0  0  0  0  0  0  0  0
  1  2  2  0
  2  3  1  0
  2  4  1  0
  3 16  1  0
 16 17  1  0
 17 18  2  0
 17 26  1  0
 18 19  1  0
 19 20  2  0
 20 21  1  0
 21 22  1  0
 21 26  2  0
 22 23  2  0
 23 24  1  0
 24 25  2  0
 25 26  1  0
  4  5  2  0
  4 15  1  0
  5  6  1  0
  5  7  1  0
  7  8  1  0
  7  9  2  0
  9 10  1  0
 10 11  1  0
 10 15  2  0
 11 12  2  0
 12 13  1  0
 13 14  2  0
 14 15  1  0
M  END
>  <minimizedAffinity>  (60) 
-9.07241

$$$$
data/reference_output_2/data/smiles/132678.pdb
     RDKit          3D

 24 26  0  0  0  0  0  0  0  0999 V2000
   68.6188   42.5326   57.2803 C   0  0  0  0  0  0  0  0  0  0  0  0
   69.8099   42.9331   57.5044 O   0  0  0  0  0  0  0  0  0  0  0  0
   67.8569   43.3733   56.4263 N   0  0  0  0  0  0  0  0  0  0  0  0
   67.0754   38.9809   59.0884 C   0  0  0  0  0  0  0  0  0  0  0  0
   66.6502   40.2420   59.4450 C   0  0  0  0  0  0  0  0  0  0  0  0
   67.1562   41.3897   58.8518 C   0  0  0  0  0  0  0  0  0  0  0  0
   68.1148   41.3019   57.8749 C   0  0  0  0  0  0  0  0  0  0  0  0
   68.5477   40.0494   57.5103 C   0  0  0  0  0  0  0  0  0  0  0  0
   68.0387   38.8881   58.1067 C   0  0  0  0  0  0  0  0  0  0  0  0
   67.4087   37.3635   60.8997 C   0  0  0  0  0  0  0  0  0  0  0  0
   66.5115   37.7593   59.7455 C   0  0  0  0  0  0  0  0  0  0  0  0
   65.1642   38.1216   60.3454 C   0  0  0  0  0  0  0  0  0  0  0  0
   68.4013   44.5536   55.8809 N   0  0  0  0  0  0  0  0  0  0  0  0
   67.9178   45.0079   54.7762 C   0  0  0  0  0  0  0  0  0  0  0  0
   68.4402   46.2369   54.1502 C   0  0  0  0  0  0  0  0  0  0  0  0
   68.4730   47.4160   54.8573 C   0  0  0  0  0  0  0  0  0  0  0  0
   68.9645   48.5925   54.2785 C   0  0  0  0  0  0  0  0  0  0  0  0
   69.4271   48.5840   52.9808 C   0  0  0  0  0  0  0  0  0  0  0  0
   69.3993   47.4080   52.2619 C   0  0  0  0  0  0  0  0  0  0  0  0
   68.9062   46.2492   52.8568 C   0  0  0  0  0  0  0  0  0  0  0  0
   69.9053   47.7027   51.0488 N   0  0  0  0  0  0  0  0  0  0  0  0
   70.2175   48.9761   51.0387 O   0  0  0  0  0  0  0  0  0  0  0  0
   69.9460   49.5290   52.1695 N   0  0  0  0  0  0  0  0  0  0  0  0
   70.1484   50.8659   52.5080 O   0  0  0  0  0  0  0  0  0  0  0  0
 10 11  1  0
 11 12  1  0
 11  4  1  0
  4  5  2  0
  4  9  1  0
  5  6  1  0
  6  7  2  0
  7  1  1  0
  7  8  1  0
  1  2  2  0
  1  3  1  0
  3 13  1  0
 13 14  2  0
 14 15  1  0
 15 16  1  0
 15 20  2  0
 16 17  2  0
 17 18  1  0
 18 19  1  0
 18 23  2  0
 19 20  1  0
 19 21  2  0
 21 22  1  0
 22 23  1  0
 23 24  1  0
  8  9  2  0
M  CHG  2  23   1  24  -1
M  END
>  <minimizedAffinity>  (61) 
-9.07188

$$$$
data/200k_reference_output/data/smiles/7645.pdb
     RDKit          3D

 25 28  0  0  0  0  0  0  0  0999 V2000
   71.0475   45.9521   58.2495 C   0  0  0  0  0  0  0  0  0  0  0  0
   71.8607   46.8650   58.8699 C   0  0  0  0  0  0  0  0  0  0  0  0
   71.7194   48.2498   58.6863 C   0  0  0  0  0  0  0  0  0  0  0  0
   70.7194   48.6943   57.8464 C   0  0  0  0  0  0  0  0  0  0  0  0
   69.8789   47.8146   57.2011 C   0  0  0  0  0  0  0  0  0  0  0  0
   70.0690   46.4713   57.4232 C   0  0  0  0  0  0  0  0  0  0  0  0
   69.2827   43.9702   59.8228 O   0  0  0  0  0  0  0  0  0  0  0  0
   70.2798   43.6786   59.0979 C   0  0  0  0  0  0  0  0  0  0  0  0
   70.6774   42.2782   58.8040 C   0  0  0  0  0  0  0  0  0  0  0  0
   71.6568   42.4138   57.6725 C   0  0  0  0  0  0  0  0  0  0  0  0
   72.2969   43.7435   58.0027 C   0  0  0  0  0  0  0  0  0  0  0  0
   73.4684   44.1106   57.9390 O   0  0  0  0  0  0  0  0  0  0  0  0
   71.1951   44.5557   58.4385 N   0  0  0  0  0  0  0  0  0  0  0  0
   68.8522   48.3765   56.2967 C   0  0  0  0  0  0  0  0  0  0  0  0
   69.2680   48.4810   54.8934 C   0  0  0  0  0  0  0  0  0  0  0  0
   70.1308   49.4422   54.5262 N   0  0  0  0  0  0  0  0  0  0  0  0
   70.5836   49.5771   53.2890 N   0  0  0  0  0  0  0  0  0  0  0  0
   70.1553   48.7063   52.3568 C   0  0  0  0  0  0  0  0  0  0  0  0
   70.5592   48.7890   51.1524 O   0  0  0  0  0  0  0  0  0  0  0  0
   69.2649   47.6902   52.6668 C   0  0  0  0  0  0  0  0  0  0  0  0
   68.8287   46.8096   51.6823 C   0  0  0  0  0  0  0  0  0  0  0  0
   67.9350   45.8067   51.9817 C   0  0  0  0  0  0  0  0  0  0  0  0
   67.4827   45.6950   53.2756 C   0  0  0  0  0  0  0  0  0  0  0  0
   67.9087   46.5618   54.2610 C   0  0  0  0  0  0  0  0  0  0  0  0
   68.8154   47.5809   53.9639 C   0  0  0  0  0  0  0  0  0  0  0  0
  7  8  2  0
  8  9  1  0
  8 13  1  0
  9 10  1  0
 10 11  1  0
 11 12  2  0
 11 13  1  0
 13  1  1  0
  1  2  2  0
  1  6  1  0
  2  3  1  0
  3  4  2  0
  4  5  1  0
  5 14  1  0
  5  6  2  0
 14 15  1  0
 15 16  2  0
 15 25  1  0
 16 17  1  0
 17 18  1  0
 18 19  2  0
 18 20  1  0
 20 21  1  0
 20 25  2  0
 21 22  2  0
 22 23  1  0
 23 24  2  0
 24 25  1  0
M  END
>  <minimizedAffinity>  (62) 
-9.06820

$$$$
data/200k_reference_output/data/smiles/45395.pdb
     RDKit          3D

 24 28  0  0  0  0  0  0  0  0999 V2000
   68.8346   47.5485   57.1140 C   0  0  0  0  0  0  0  0  0  0  0  0
   69.1519   48.9482   57.3631 C   0  0  0  0  0  0  0  0  0  0  0  0
   68.4508   50.1103   57.1348 C   0  0  0  0  0  0  0  0  0  0  0  0
   69.0332   51.3269   57.4897 C   0  0  0  0  0  0  0  0  0  0  0  0
   70.2800   51.3958   58.0575 C   0  0  0  0  0  0  0  0  0  0  0  0
   70.9835   50.2305   58.2863 C   0  0  0  0  0  0  0  0  0  0  0  0
   70.4011   49.0192   57.9324 C   0  0  0  0  0  0  0  0  0  0  0  0
   70.9264   47.6672   58.0663 C   0  0  0  0  0  0  0  0  0  0  0  0
   72.1124   47.1667   58.5636 C   0  0  0  0  0  0  0  0  0  0  0  0
   72.3915   45.8046   58.5865 C   0  0  0  0  0  0  0  0  0  0  0  0
   71.4721   44.8991   58.1027 C   0  0  0  0  0  0  0  0  0  0  0  0
   70.2932   45.4132   57.6100 C   0  0  0  0  0  0  0  0  0  0  0  0
   70.0038   46.7650   57.5815 C   0  0  0  0  0  0  0  0  0  0  0  0
   66.6513   45.2259   50.4837 N   0  0  0  0  0  0  0  0  0  0  0  0
   67.3693   45.9238   51.4990 C   0  0  0  0  0  0  0  0  0  0  0  0
   68.3591   46.7900   51.1965 N   0  0  0  0  0  0  0  0  0  0  0  0
   69.0620   47.4682   52.1193 C   0  0  0  0  0  0  0  0  0  0  0  0
   70.0831   48.3582   51.7575 N   0  0  0  0  0  0  0  0  0  0  0  0
   68.7823   47.2946   53.4551 C   0  0  0  0  0  0  0  0  0  0  0  0
   69.2797   47.8030   54.6064 N   0  0  0  0  0  0  0  0  0  0  0  0
   68.6187   47.2732   55.6488 C   0  0  0  0  0  0  0  0  0  0  0  0
   67.7076   46.4317   55.1310 N   0  0  0  0  0  0  0  0  0  0  0  0
   67.7757   46.4162   53.7896 C   0  0  0  0  0  0  0  0  0  0  0  0
   67.1051   45.7628   52.8073 N   0  0  0  0  0  0  0  0  0  0  0  0
 14 15  1  0
 15 16  2  0
 15 24  1  0
 16 17  1  0
 17 18  1  0
 17 19  2  0
 19 20  1  0
 19 23  1  0
 20 21  2  0
 21  1  1  0
 21 22  1  0
  1  2  1  0
  1 13  1  0
  2  3  2  0
  2  7  1  0
  3  4  1  0
  4  5  2  0
  5  6  1  0
  6  7  2  0
  7  8  1  0
  8  9  2  0
  8 13  1  0
  9 10  1  0
 10 11  2  0
 11 12  1  0
 12 13  2  0
 22 23  1  0
 23 24  2  0
M  CHG  1  20   1
M  END
>  <minimizedAffinity>  (63) 
-9.06002

$$$$
data/reference_output_2/data/smiles/104677.pdb
     RDKit          3D

 25 28  0  0  0  0  0  0  0  0999 V2000
   70.3535   47.8310   57.3897 O   0  0  0  0  0  0  0  0  0  0  0  0
   70.0985   46.5952   57.3685 C   0  0  0  0  0  0  0  0  0  0  0  0
   70.9346   45.7391   58.0225 C   0  0  0  0  0  0  0  0  0  0  0  0
   70.6179   44.3584   57.9785 C   0  0  0  0  0  0  0  0  0  0  0  0
   69.5031   43.9841   57.2904 C   0  0  0  0  0  0  0  0  0  0  0  0
   68.7300   44.9265   56.6678 N   0  0  0  0  0  0  0  0  0  0  0  0
   69.0038   46.2163   56.6929 N   0  0  0  0  0  0  0  0  0  0  0  0
   69.0553   42.5906   57.2202 C   0  0  0  0  0  0  0  0  0  0  0  0
   67.9608   42.1642   56.5068 C   0  0  0  0  0  0  0  0  0  0  0  0
   67.6024   40.8264   56.4446 C   0  0  0  0  0  0  0  0  0  0  0  0
   68.3751   39.9012   57.1239 C   0  0  0  0  0  0  0  0  0  0  0  0
   69.4702   40.3370   57.8369 C   0  0  0  0  0  0  0  0  0  0  0  0
   69.8252   41.6868   57.8951 C   0  0  0  0  0  0  0  0  0  0  0  0
   70.9867   42.0341   58.7150 C   0  0  0  0  0  0  0  0  0  0  0  0
   71.5080   43.4103   58.6250 C   0  0  0  0  0  0  0  0  0  0  0  0
   68.1676   47.2005   56.0168 C   0  0  0  0  0  0  0  0  0  0  0  0
   68.4000   47.0708   54.5698 C   0  0  0  0  0  0  0  0  0  0  0  0
   67.7690   46.1348   53.7894 C   0  0  0  0  0  0  0  0  0  0  0  0
   68.0217   46.0555   52.4143 C   0  0  0  0  0  0  0  0  0  0  0  0
   68.9077   46.9128   51.8109 C   0  0  0  0  0  0  0  0  0  0  0  0
   69.5427   47.8517   52.5884 C   0  0  0  0  0  0  0  0  0  0  0  0
   69.2813   47.9139   53.9339 C   0  0  0  0  0  0  0  0  0  0  0  0
   70.4608   48.7430   51.9754 N   0  0  0  0  0  0  0  0  0  0  0  0
   70.1787   49.3197   50.9168 O   0  0  0  0  0  0  0  0  0  0  0  0
   71.6951   49.0053   52.5244 O   0  0  0  0  0  0  0  0  0  0  0  0
  1  2  2  0
  2  3  1  0
  2  7  1  0
  3  4  2  0
  4  5  1  0
  4 15  1  0
  5  6  2  0
  5  8  1  0
  6  7  1  0
  7 16  1  0
 16 17  1  0
 17 18  2  0
 17 22  1  0
 18 19  1  0
 19 20  2  0
 20 21  1  0
 21 23  1  0
 21 22  2  0
 23 24  2  0
 23 25  1  0
  8  9  2  0
  8 13  1  0
  9 10  1  0
 10 11  2  0
 11 12  1  0
 12 13  2  0
 13 14  1  0
 14 15  1  0
M  CHG  2  23   1  25  -1
M  END
>  <minimizedAffinity>  (64) 
-9.05694

$$$$
data/reference_output_2/data/smiles/115315.pdb
     RDKit          3D

 25 27  0  0  0  0  0  0  0  0999 V2000
   68.2506   42.0511   57.0540 C   0  0  0  0  0  0  0  0  0  0  0  0
   67.1441   41.9157   56.3019 N   0  0  0  0  0  0  0  0  0  0  0  0
   67.0266   42.9866   55.5092 N   0  0  0  0  0  0  0  0  0  0  0  0
   68.0262   43.8294   55.7147 N   0  0  0  0  0  0  0  0  0  0  0  0
   68.7882   43.2613   56.6677 C   0  0  0  0  0  0  0  0  0  0  0  0
   69.9741   43.8193   57.2026 N   0  0  0  0  0  0  0  0  0  0  0  0
   68.2534   45.0780   55.0674 C   0  0  0  0  0  0  0  0  0  0  0  0
   68.6232   46.1885   55.8155 C   0  0  0  0  0  0  0  0  0  0  0  0
   68.8491   47.4086   55.2115 C   0  0  0  0  0  0  0  0  0  0  0  0
   68.7110   47.5486   53.8463 C   0  0  0  0  0  0  0  0  0  0  0  0
   68.3451   46.4641   53.0771 C   0  0  0  0  0  0  0  0  0  0  0  0
   68.2044   46.6460   51.6073 C   0  0  0  0  0  0  0  0  0  0  0  0
   68.1294   45.2683   53.7119 C   0  0  0  0  0  0  0  0  0  0  0  0
   68.9160   39.7583   57.8197 N   0  0  0  0  0  0  0  0  0  0  0  0
   68.7891   41.1426   58.0600 C   0  0  0  0  0  0  0  0  0  0  0  0
   69.1506   41.5957   59.1705 O   0  0  0  0  0  0  0  0  0  0  0  0
   69.4320   38.7861   58.7363 C   0  0  0  0  0  0  0  0  0  0  0  0
   70.9257   38.6923   58.5699 C   0  0  0  0  0  0  0  0  0  0  0  0
   72.8596   33.2569   58.0477 C   0  0  0  0  0  0  0  0  0  0  0  0
   72.3364   34.6447   58.2199 C   0  0  0  0  0  0  0  0  0  0  0  0
   71.5019   34.9949   59.2606 C   0  0  0  0  0  0  0  0  0  0  0  0
   71.0364   36.2974   59.3852 C   0  0  0  0  0  0  0  0  0  0  0  0
   71.3800   37.2822   58.4931 C   0  0  0  0  0  0  0  0  0  0  0  0
   72.2263   36.9240   57.4395 C   0  0  0  0  0  0  0  0  0  0  0  0
   72.6858   35.6285   57.3211 C   0  0  0  0  0  0  0  0  0  0  0  0
 19 20  1  0
 20 21  2  0
 20 25  1  0
 21 22  1  0
 22 23  2  0
 23 18  1  0
 23 24  1  0
 18 17  1  0
 17 14  1  0
 14 15  1  0
 15 16  2  0
 15  1  1  0
  1  2  1  0
  1  5  2  0
  2  3  2  0
  3  4  1  0
  4  7  1  0
  4  5  1  0
  7  8  2  0
  7 13  1  0
  8  9  1  0
  9 10  2  0
 10 11  1  0
 11 12  1  0
 11 13  2  0
  5  6  1  0
 24 25  2  0
M  END
>  <minimizedAffinity>  (65) 
-9.05611

$$$$
data/200k_reference_output/data/smiles/79747.pdb
     RDKit          3D

 24 25  0  0  0  0  0  0  0  0999 V2000
   66.9021   41.3955   55.5969 C   0  0  0  0  0  0  0  0  0  0  0  0
   67.4017   42.0367   56.8408 C   0  0  0  0  0  0  0  0  0  0  0  0
   67.8931   43.2106   56.7453 N   0  0  0  0  0  0  0  0  0  0  0  0
   67.9284   43.8197   55.4657 N   0  0  0  0  0  0  0  0  0  0  0  0
   68.2819   45.1792   55.3001 C   0  0  0  0  0  0  0  0  0  0  0  0
   68.5603   45.8005   56.3599 O   0  0  0  0  0  0  0  0  0  0  0  0
   68.3314   45.8459   54.0071 C   0  0  0  0  0  0  0  0  0  0  0  0
   67.5983   45.3343   52.9439 C   0  0  0  0  0  0  0  0  0  0  0  0
   67.6303   45.9550   51.7006 C   0  0  0  0  0  0  0  0  0  0  0  0
   68.3858   47.0911   51.4797 C   0  0  0  0  0  0  0  0  0  0  0  0
   69.1102   47.5958   52.5314 C   0  0  0  0  0  0  0  0  0  0  0  0
   69.9311   48.8129   52.3318 C   0  0  0  0  0  0  0  0  0  0  0  0
   69.0671   46.9645   53.7672 C   0  0  0  0  0  0  0  0  0  0  0  0
   67.2974   41.2732   58.1107 C   0  0  0  0  0  0  0  0  0  0  0  0
   68.1384   40.0499   58.0816 C   0  0  0  0  0  0  0  0  0  0  0  0
   67.7165   39.0384   57.4661 O   0  0  0  0  0  0  0  0  0  0  0  0
   69.3982   39.9663   58.7175 N   0  0  0  0  0  0  0  0  0  0  0  0
   70.2157   38.8019   58.6988 C   0  0  0  0  0  0  0  0  0  0  0  0
   69.9782   37.7737   59.5934 C   0  0  0  0  0  0  0  0  0  0  0  0
   70.7316   36.6308   59.6222 C   0  0  0  0  0  0  0  0  0  0  0  0
   70.4581   35.5399   60.5918 C   0  0  0  0  0  0  0  0  0  0  0  0
   71.7637   36.5294   58.7095 C   0  0  0  0  0  0  0  0  0  0  0  0
   72.0174   37.5443   57.8085 C   0  0  0  0  0  0  0  0  0  0  0  0
   71.2358   38.6384   57.8380 N   0  0  0  0  0  0  0  0  0  0  0  0
  1  2  1  0
  2 14  1  0
  2  3  2  0
 14 15  1  0
 15 16  2  0
 15 17  1  0
 17 18  1  0
 18 19  2  0
 18 24  1  0
 19 20  1  0
 20 21  1  0
 20 22  2  0
 22 23  1  0
 23 24  2  0
  3  4  1  0
  4  5  1  0
  5  6  2  0
  5  7  1  0
  7  8  2  0
  7 13  1  0
  8  9  1  0
  9 10  2  0
 10 11  1  0
 11 12  1  0
 11 13  2  0
M  END
>  <minimizedAffinity>  (66) 
-9.05547

$$$$
data/reference_output_2/data/smiles/91397.pdb
     RDKit          3D

 24 27  0  0  0  0  0  0  0  0999 V2000
   69.0891   45.8979   55.9567 C   0  0  0  0  0  0  0  0  0  0  0  0
   69.6966   46.6583   56.7524 O   0  0  0  0  0  0  0  0  0  0  0  0
   68.6197   46.4064   54.7408 N   0  0  0  0  0  0  0  0  0  0  0  0
   67.9369   45.6048   53.7850 C   0  0  0  0  0  0  0  0  0  0  0  0
   68.0305   46.0646   52.3519 C   0  0  0  0  0  0  0  0  0  0  0  0
   69.0675   47.0871   52.1130 C   0  0  0  0  0  0  0  0  0  0  0  0
   69.8093   47.4018   51.0544 N   0  0  0  0  0  0  0  0  0  0  0  0
   70.6397   48.3922   51.3564 N   0  0  0  0  0  0  0  0  0  0  0  0
   70.4728   48.7655   52.6215 C   0  0  0  0  0  0  0  0  0  0  0  0
   69.4722   47.9425   53.1200 C   0  0  0  0  0  0  0  0  0  0  0  0
   68.8105   47.8347   54.4038 C   0  0  0  0  0  0  0  0  0  0  0  0
   67.2648   41.3050   56.5198 C   0  0  0  0  0  0  0  0  0  0  0  0
   68.0993   42.4946   56.5999 N   0  0  0  0  0  0  0  0  0  0  0  0
   69.2438   42.4965   57.3292 C   0  0  0  0  0  0  0  0  0  0  0  0
   69.7481   43.7795   57.1600 C   0  0  0  0  0  0  0  0  0  0  0  0
   68.8995   44.5275   56.3364 C   0  0  0  0  0  0  0  0  0  0  0  0
   67.9036   43.6638   56.0308 N   0  0  0  0  0  0  0  0  0  0  0  0
   71.1838   49.7513   53.3660 N   0  0  0  0  0  0  0  0  0  0  0  0
   70.4897   50.6899   54.1619 C   0  0  0  0  0  0  0  0  0  0  0  0
   70.7498   50.7461   55.5242 C   0  0  0  0  0  0  0  0  0  0  0  0
   70.0709   51.6319   56.3607 C   0  0  0  0  0  0  0  0  0  0  0  0
   69.1198   52.4750   55.8331 C   0  0  0  0  0  0  0  0  0  0  0  0
   68.8663   52.4191   54.4961 C   0  0  0  0  0  0  0  0  0  0  0  0
   69.5312   51.5457   53.6524 C   0  0  0  0  0  0  0  0  0  0  0  0
 12 13  1  0
 13 14  1  0
 13 17  1  0
 14 15  2  0
 15 16  1  0
 16  1  1  0
 16 17  2  0
  1  2  2  0
  1  3  1  0
  3  4  1  0
  3 11  1  0
  4  5  1  0
  5  6  1  0
  6  7  1  0
  6 10  2  0
  7  8  1  0
  8  9  2  0
  9 18  1  0
  9 10  1  0
 18 19  1  0
 19 20  2  0
 19 24  1  0
 20 21  1  0
 21 22  2  0
 22 23  1  0
 23 24  2  0
 10 11  1  0
M  END
>  <minimizedAffinity>  (67) 
-9.05348

$$$$
data/reference_output_2/data/smiles/149378.pdb
     RDKit          3D

 25 28  0  0  0  0  0  0  0  0999 V2000
   69.3971   42.5726   57.5065 O   0  0  0  0  0  0  0  0  0  0  0  0
   68.5111   41.9319   56.9142 C   0  0  0  0  0  0  0  0  0  0  0  0
   67.7179   42.8109   56.0409 N   0  0  0  0  0  0  0  0  0  0  0  0
   68.0571   44.1613   56.0049 N   0  0  0  0  0  0  0  0  0  0  0  0
   68.0614   44.8853   54.9553 C   0  0  0  0  0  0  0  0  0  0  0  0
   68.4211   46.3011   54.9398 C   0  0  0  0  0  0  0  0  0  0  0  0
   68.4016   47.2121   55.9800 C   0  0  0  0  0  0  0  0  0  0  0  0
   68.8111   48.4143   55.5336 N   0  0  0  0  0  0  0  0  0  0  0  0
   69.1130   48.3511   54.2053 C   0  0  0  0  0  0  0  0  0  0  0  0
   69.5648   49.2803   53.2954 C   0  0  0  0  0  0  0  0  0  0  0  0
   69.7838   48.9088   51.9923 C   0  0  0  0  0  0  0  0  0  0  0  0
   69.5413   47.5963   51.6247 C   0  0  0  0  0  0  0  0  0  0  0  0
   69.0899   46.6635   52.5310 C   0  0  0  0  0  0  0  0  0  0  0  0
   68.8650   47.0309   53.8559 C   0  0  0  0  0  0  0  0  0  0  0  0
   68.2127   40.5384   56.9945 C   0  0  0  0  0  0  0  0  0  0  0  0
   67.7530   40.0451   55.8763 O   0  0  0  0  0  0  0  0  0  0  0  0
   68.3099   39.5673   58.0366 C   0  0  0  0  0  0  0  0  0  0  0  0
   67.2280   39.2141   58.8578 C   0  0  0  0  0  0  0  0  0  0  0  0
   67.6135   38.2924   59.7320 N   0  0  0  0  0  0  0  0  0  0  0  0
   68.9017   38.0142   59.5326 C   0  0  0  0  0  0  0  0  0  0  0  0
   69.7377   37.1394   60.1746 C   0  0  0  0  0  0  0  0  0  0  0  0
   71.0599   37.0134   59.7921 C   0  0  0  0  0  0  0  0  0  0  0  0
   71.5384   37.7672   58.7637 C   0  0  0  0  0  0  0  0  0  0  0  0
   70.6798   38.6463   58.1245 C   0  0  0  0  0  0  0  0  0  0  0  0
   69.3626   38.7970   58.4772 C   0  0  0  0  0  0  0  0  0  0  0  0
  1  2  2  0
  2  3  1  0
  2 15  1  0
  3  4  1  0
  4  5  2  0
  5  6  1  0
  6  7  2  0
  6 14  1  0
  7  8  1  0
  8  9  1  0
  9 10  1  0
  9 14  2  0
 10 11  2  0
 11 12  1  0
 12 13  2  0
 13 14  1  0
 15 16  2  0
 15 17  1  0
 17 18  2  0
 17 25  1  0
 18 19  1  0
 19 20  1  0
 20 21  1  0
 20 25  2  0
 21 22  2  0
 22 23  1  0
 23 24  2  0
 24 25  1  0
M  END
>  <minimizedAffinity>  (68) 
-9.05325

$$$$
data/200k_reference_output/data/smiles/26341.pdb
     RDKit          3D

 23 25  0  0  0  0  0  0  0  0999 V2000
   69.0832   48.8491   57.5781 O   0  0  0  0  0  0  0  0  0  0  0  0
   68.9084   47.7030   56.6259 S   0  0  0  0  0  0  0  0  0  0  0  0
   67.4375   47.3091   56.6520 O   0  0  0  0  0  0  0  0  0  0  0  0
   69.3029   48.1600   54.9869 C   0  0  0  0  0  0  0  0  0  0  0  0
   70.0677   49.2632   54.7040 C   0  0  0  0  0  0  0  0  0  0  0  0
   70.3699   49.6237   53.3976 C   0  0  0  0  0  0  0  0  0  0  0  0
   69.8921   48.8618   52.3607 C   0  0  0  0  0  0  0  0  0  0  0  0
   69.1285   47.7616   52.6322 C   0  0  0  0  0  0  0  0  0  0  0  0
   68.6376   46.9772   51.6027 C   0  0  0  0  0  0  0  0  0  0  0  0
   67.8675   45.8592   51.8341 C   0  0  0  0  0  0  0  0  0  0  0  0
   67.5966   45.5425   53.1296 C   0  0  0  0  0  0  0  0  0  0  0  0
   68.0554   46.2823   54.1850 C   0  0  0  0  0  0  0  0  0  0  0  0
   68.8251   47.3981   53.9458 C   0  0  0  0  0  0  0  0  0  0  0  0
   69.8881   46.3593   57.0543 N   0  0  0  0  0  0  0  0  0  0  0  0
   69.3337   45.0837   57.0176 N   0  0  0  0  0  0  0  0  0  0  0  0
   69.9334   44.0151   57.3900 C   0  0  0  0  0  0  0  0  0  0  0  0
   69.2975   42.6918   57.3288 C   0  0  0  0  0  0  0  0  0  0  0  0
   69.7700   41.6229   58.0609 C   0  0  0  0  0  0  0  0  0  0  0  0
   69.1688   40.3817   58.0002 C   0  0  0  0  0  0  0  0  0  0  0  0
   68.0675   40.1732   57.1955 C   0  0  0  0  0  0  0  0  0  0  0  0
   67.6208   41.2640   56.4756 C   0  0  0  0  0  0  0  0  0  0  0  0
   68.2239   42.4654   56.5519 N   0  0  0  0  0  0  0  0  0  0  0  0
   67.7577   43.5406   55.8211 O   0  0  0  0  0  0  0  0  0  0  0  0
  1  2  2  0
  2  3  2  0
  2 14  1  0
  2  4  1  0
 14 15  1  0
 15 16  2  0
 16 17  1  0
 17 18  2  0
 17 22  1  0
 18 19  1  0
 19 20  2  0
 20 21  1  0
 21 22  2  0
 22 23  1  0
  4  5  2  0
  4 13  1  0
  5  6  1  0
  6  7  2  0
  7  8  1  0
  8  9  1  0
  8 13  2  0
  9 10  2  0
 10 11  1  0
 11 12  2  0
 12 13  1  0
M  CHG  2  22   1  23  -1
M  END
>  <minimizedAffinity>  (69) 
-9.04904

$$$$
data/200k_reference_output/data/smiles/48976.pdb
     RDKit          3D

 22 23  0  0  0  0  0  0  0  0999 V2000
   69.8034   47.3510   57.4930 N   0  0  0  0  0  0  0  0  0  0  0  0
   68.7033   47.5901   56.9486 C   0  0  0  0  0  0  0  0  0  0  0  0
   67.8809   49.1373   57.3859 S   0  0  0  0  0  0  0  0  0  0  0  0
   70.5791   45.1113   58.1953 C   0  0  0  0  0  0  0  0  0  0  0  0
   69.7780   45.1522   59.1615 O   0  0  0  0  0  0  0  0  0  0  0  0
   70.6076   46.2469   57.3173 N   0  0  0  0  0  0  0  0  0  0  0  0
   69.6262   42.2598   57.5222 C   0  0  0  0  0  0  0  0  0  0  0  0
   71.0413   42.7021   57.6383 C   0  0  0  0  0  0  0  0  0  0  0  0
   72.0937   41.9114   57.4617 O   0  0  0  0  0  0  0  0  0  0  0  0
   73.1866   42.6446   57.6431 C   0  0  0  0  0  0  0  0  0  0  0  0
   72.8389   43.9425   57.9428 C   0  0  0  0  0  0  0  0  0  0  0  0
   71.4608   43.9813   57.9412 C   0  0  0  0  0  0  0  0  0  0  0  0
   68.0917   46.7264   56.0315 N   0  0  0  0  0  0  0  0  0  0  0  0
   68.3348   46.7532   54.6504 C   0  0  0  0  0  0  0  0  0  0  0  0
   67.7260   45.8735   53.7818 C   0  0  0  0  0  0  0  0  0  0  0  0
   67.9634   45.9258   52.4103 C   0  0  0  0  0  0  0  0  0  0  0  0
   68.8283   46.8781   51.8976 C   0  0  0  0  0  0  0  0  0  0  0  0
   69.4429   47.7638   52.7575 C   0  0  0  0  0  0  0  0  0  0  0  0
   69.1896   47.6928   54.1258 C   0  0  0  0  0  0  0  0  0  0  0  0
   70.3292   48.7405   52.2406 N   0  0  0  0  0  0  0  0  0  0  0  0
   71.3521   49.1162   52.8253 O   0  0  0  0  0  0  0  0  0  0  0  0
   70.0465   49.3204   51.0042 O   0  0  0  0  0  0  0  0  0  0  0  0
  7  8  1  0
  8  9  1  0
  8 12  2  0
  9 10  1  0
 10 11  2  0
 11 12  1  0
 12  4  1  0
  4  5  2  0
  4  6  1  0
  6  1  1  0
  1  2  2  0
  2  3  1  0
  2 13  1  0
 13 14  1  0
 14 15  2  0
 14 19  1  0
 15 16  1  0
 16 17  2  0
 17 18  1  0
 18 20  1  0
 18 19  2  0
 20 21  2  0
 20 22  1  0
M  CHG  3   1   1  20   1  22  -1
M  END
>  <minimizedAffinity>  (70) 
-9.04658

$$$$
data/reference_output_2/data/smiles/106305.pdb
     RDKit          3D

 26 30  0  0  0  0  0  0  0  0999 V2000
   78.3170   35.4800   54.9575 O   0  0  0  0  0  0  0  0  0  0  0  0
   77.3591   35.3623   54.1635 C   0  0  0  0  0  0  0  0  0  0  0  0
   77.6377   35.2996   52.7908 C   0  0  0  0  0  0  0  0  0  0  0  0
   76.6182   35.1686   51.8719 C   0  0  0  0  0  0  0  0  0  0  0  0
   75.3806   35.1092   52.3837 N   0  0  0  0  0  0  0  0  0  0  0  0
   75.1217   35.1718   53.7266 C   0  0  0  0  0  0  0  0  0  0  0  0
   73.9786   35.1311   54.4388 N   0  0  0  0  0  0  0  0  0  0  0  0
   74.2302   35.2288   55.7518 C   0  0  0  0  0  0  0  0  0  0  0  0
   75.5662   35.3332   55.8557 N   0  0  0  0  0  0  0  0  0  0  0  0
   76.1040   35.2982   54.6285 N   0  0  0  0  0  0  0  0  0  0  0  0
   76.8882   35.1023   50.4365 C   0  0  0  0  0  0  0  0  0  0  0  0
   77.8776   35.8719   49.8652 C   0  0  0  0  0  0  0  0  0  0  0  0
   78.1637   35.8343   48.4908 C   0  0  0  0  0  0  0  0  0  0  0  0
   77.4507   35.0129   47.6563 C   0  0  0  0  0  0  0  0  0  0  0  0
   77.4785   34.7518   46.3210 N   0  0  0  0  0  0  0  0  0  0  0  0
   76.5574   33.8597   46.0346 N   0  0  0  0  0  0  0  0  0  0  0  0
   75.9113   33.5199   47.1584 C   0  0  0  0  0  0  0  0  0  0  0  0
   76.4587   34.2366   48.2020 C   0  0  0  0  0  0  0  0  0  0  0  0
   76.1942   34.2930   49.5735 C   0  0  0  0  0  0  0  0  0  0  0  0
   73.2760   35.2271   56.8671 C   0  0  0  0  0  0  0  0  0  0  0  0
   72.6718   36.4081   57.2812 C   0  0  0  0  0  0  0  0  0  0  0  0
   71.7725   36.4524   58.3208 C   0  0  0  0  0  0  0  0  0  0  0  0
   71.4354   35.2985   59.0003 C   0  0  0  0  0  0  0  0  0  0  0  0
   70.5483   35.3161   60.0329 F   0  0  0  0  0  0  0  0  0  0  0  0
   72.0373   34.1285   58.5868 C   0  0  0  0  0  0  0  0  0  0  0  0
   72.9391   34.0851   57.5442 C   0  0  0  0  0  0  0  0  0  0  0  0
  1  2  2  0
  2  3  1  0
  2 10  1  0
  3  4  2  0
  4 11  1  0
  4  5  1  0
 11 12  2  0
 11 19  1  0
 12 13  1  0
 13 14  2  0
 14 15  1  0
 14 18  1  0
 15 16  1  0
 16 17  2  0
 17 18  1  0
 18 19  2  0
  5  6  1  0
  6  7  2  0
  6 10  1  0
  7  8  1  0
  8 20  1  0
  8  9  2  0
 20 21  2  0
 20 26  1  0
 21 22  1  0
 22 23  2  0
 23 24  1  0
 23 25  1  0
 25 26  2  0
  9 10  1  0
M  END
>  <minimizedAffinity>  (71) 
-9.04212

$$$$
data/reference_output_2/data/smiles/190870.pdb
     RDKit          3D

 23 25  0  0  0  0  0  0  0  0999 V2000
   70.5015   49.8376   53.2955 C   0  0  0  0  0  0  0  0  0  0  0  0
   71.7735   49.7941   53.7139 N   0  0  0  0  0  0  0  0  0  0  0  0
   72.2393   50.6682   54.6456 C   0  0  0  0  0  0  0  0  0  0  0  0
   73.4424   50.5928   55.0099 O   0  0  0  0  0  0  0  0  0  0  0  0
   71.4733   51.6479   55.2260 C   0  0  0  0  0  0  0  0  0  0  0  0
   71.9745   52.5292   56.1739 C   0  0  0  0  0  0  0  0  0  0  0  0
   71.1787   53.5075   56.7425 C   0  0  0  0  0  0  0  0  0  0  0  0
   69.8609   53.5840   56.3387 C   0  0  0  0  0  0  0  0  0  0  0  0
   69.3750   52.7017   55.3947 C   0  0  0  0  0  0  0  0  0  0  0  0
   70.1589   51.7233   54.8222 C   0  0  0  0  0  0  0  0  0  0  0  0
   69.7080   50.8360   53.8835 C   0  0  0  0  0  0  0  0  0  0  0  0
   68.3853   50.8894   53.4577 O   0  0  0  0  0  0  0  0  0  0  0  0
   70.0880   49.1439   51.1158 O   0  0  0  0  0  0  0  0  0  0  0  0
   69.9210   48.9219   52.3362 C   0  0  0  0  0  0  0  0  0  0  0  0
   69.1476   47.7512   52.6945 C   0  0  0  0  0  0  0  0  0  0  0  0
   68.5221   46.9785   51.7230 C   0  0  0  0  0  0  0  0  0  0  0  0
   67.8394   45.8496   52.0707 C   0  0  0  0  0  0  0  0  0  0  0  0
   67.7256   45.4082   53.3684 C   0  0  0  0  0  0  0  0  0  0  0  0
   68.3591   46.1973   54.3211 C   0  0  0  0  0  0  0  0  0  0  0  0
   69.0539   47.3391   53.9965 C   0  0  0  0  0  0  0  0  0  0  0  0
   68.2600   45.7671   55.6966 N   0  0  0  0  0  0  0  0  0  0  0  0
   68.2406   46.6311   56.5957 O   0  0  0  0  0  0  0  0  0  0  0  0
   68.1905   44.4416   55.9786 O   0  0  0  0  0  0  0  0  0  0  0  0
 13 14  2  0
 14 15  1  0
 14  1  1  0
 15 16  2  0
 15 20  1  0
 16 17  1  0
 17 18  2  0
 18 19  1  0
 19 21  1  0
 19 20  2  0
 21 22  2  0
 21 23  1  0
  1  2  1  0
  1 11  2  0
  2  3  1  0
  3  4  2  0
  3  5  1  0
  5  6  2  0
  5 10  1  0
  6  7  1  0
  7  8  2  0
  8  9  1  0
  9 10  2  0
 10 11  1  0
 11 12  1  0
M  CHG  2  21   1  23  -1
M  END
>  <minimizedAffinity>  (72) 
-9.03989

$$$$
data/reference_output_2/data/smiles/159019.pdb
     RDKit          3D

 25 28  0  0  0  0  0  0  0  0999 V2000
   69.4196   51.2955   55.8591 C   0  0  0  0  0  0  0  0  0  0  0  0
   69.0477   50.2485   55.0134 C   0  0  0  0  0  0  0  0  0  0  0  0
   69.3616   48.9369   55.2868 C   0  0  0  0  0  0  0  0  0  0  0  0
   70.0638   48.6752   56.4381 C   0  0  0  0  0  0  0  0  0  0  0  0
   70.4344   49.6933   57.2769 C   0  0  0  0  0  0  0  0  0  0  0  0
   71.1409   49.6600   58.4808 C   0  0  0  0  0  0  0  0  0  0  0  0
   71.2298   50.9229   58.8870 N   0  0  0  0  0  0  0  0  0  0  0  0
   70.6329   51.7407   58.0281 N   0  0  0  0  0  0  0  0  0  0  0  0
   70.1220   51.0224   57.0096 C   0  0  0  0  0  0  0  0  0  0  0  0
   68.9750   47.8633   54.3941 C   0  0  0  0  0  0  0  0  0  0  0  0
   68.1380   46.8611   54.8288 C   0  0  0  0  0  0  0  0  0  0  0  0
   67.7307   45.8210   54.0191 C   0  0  0  0  0  0  0  0  0  0  0  0
   68.2001   45.8131   52.7223 C   0  0  0  0  0  0  0  0  0  0  0  0
   69.0420   46.8154   52.2748 C   0  0  0  0  0  0  0  0  0  0  0  0
   69.6448   47.0585   51.0845 N   0  0  0  0  0  0  0  0  0  0  0  0
   70.3683   48.1616   51.1548 N   0  0  0  0  0  0  0  0  0  0  0  0
   70.2831   48.7017   52.3825 C   0  0  0  0  0  0  0  0  0  0  0  0
   69.4484   47.8623   53.1007 C   0  0  0  0  0  0  0  0  0  0  0  0
   69.3315   53.7501   56.4362 N   0  0  0  0  0  0  0  0  0  0  0  0
   69.0764   52.6687   55.5481 C   0  0  0  0  0  0  0  0  0  0  0  0
   68.5313   52.9408   54.4594 O   0  0  0  0  0  0  0  0  0  0  0  0
   71.6521   48.4632   59.1160 C   0  0  0  0  0  0  0  0  0  0  0  0
   72.0967   47.4684   59.6356 C   0  0  0  0  0  0  0  0  0  0  0  0
   72.6636   46.2569   60.2599 C   0  0  0  0  0  0  0  0  0  0  0  0
   71.6219   45.4686   60.7428 O   0  0  0  0  0  0  0  0  0  0  0  0
 19 20  1  0
 20 21  2  0
 20  1  1  0
  1  2  2  0
  1  9  1  0
  2  3  1  0
  3 10  1  0
  3  4  2  0
 10 11  2  0
 10 18  1  0
 11 12  1  0
 12 13  2  0
 13 14  1  0
 14 15  1  0
 14 18  2  0
 15 16  1  0
 16 17  2  0
 17 18  1  0
  4  5  1  0
  5  6  1  0
  5  9  2  0
  6 22  1  0
  6  7  2  0
 22 23  3  0
 23 24  1  0
 24 25  1  0
  7  8  1  0
  8  9  1  0
M  END
>  <minimizedAffinity>  (73) 
-9.03341

$$$$
data/200k_reference_output/data/smiles/69049.pdb
     RDKit          3D

 26 30  0  0  0  0  0  0  0  0999 V2000
   75.1177   34.4462   54.7005 C   0  0  0  0  0  0  0  0  0  0  0  0
   75.6959   34.6695   53.3939 N   0  0  0  0  0  0  0  0  0  0  0  0
   76.6933   35.5397   53.1840 C   0  0  0  0  0  0  0  0  0  0  0  0
   77.2142   35.7160   51.9036 C   0  0  0  0  0  0  0  0  0  0  0  0
   76.7073   34.9974   50.8403 C   0  0  0  0  0  0  0  0  0  0  0  0
   75.6917   34.1124   51.0585 C   0  0  0  0  0  0  0  0  0  0  0  0
   75.2105   33.9754   52.3539 C   0  0  0  0  0  0  0  0  0  0  0  0
   75.3904   33.5549   49.8757 N   0  0  0  0  0  0  0  0  0  0  0  0
   76.1660   34.0378   48.8944 C   0  0  0  0  0  0  0  0  0  0  0  0
   76.2699   33.8098   47.5280 C   0  0  0  0  0  0  0  0  0  0  0  0
   77.1848   34.4636   46.7313 C   0  0  0  0  0  0  0  0  0  0  0  0
   78.0199   35.3779   47.3388 C   0  0  0  0  0  0  0  0  0  0  0  0
   77.9309   35.6179   48.7002 C   0  0  0  0  0  0  0  0  0  0  0  0
   77.0080   34.9550   49.4946 C   0  0  0  0  0  0  0  0  0  0  0  0
   73.4359   35.9614   54.0287 O   0  0  0  0  0  0  0  0  0  0  0  0
   73.8899   35.2261   54.9205 C   0  0  0  0  0  0  0  0  0  0  0  0
   73.2036   35.1372   56.1893 C   0  0  0  0  0  0  0  0  0  0  0  0
   73.1318   33.9312   56.8709 C   0  0  0  0  0  0  0  0  0  0  0  0
   72.4768   33.8501   58.0826 C   0  0  0  0  0  0  0  0  0  0  0  0
   71.8705   34.9537   58.6622 C   0  0  0  0  0  0  0  0  0  0  0  0
   71.2208   34.8499   59.8732 C   0  0  0  0  0  0  0  0  0  0  0  0
   70.6072   35.9613   60.4619 C   0  0  0  0  0  0  0  0  0  0  0  0
   70.6650   37.1730   59.8040 C   0  0  0  0  0  0  0  0  0  0  0  0
   71.3219   37.2553   58.5900 C   0  0  0  0  0  0  0  0  0  0  0  0
   71.9290   36.1650   58.0011 C   0  0  0  0  0  0  0  0  0  0  0  0
   72.5894   36.2236   56.7924 C   0  0  0  0  0  0  0  0  0  0  0  0
 15 16  2  0
 16  1  1  0
 16 17  1  0
  1  2  1  0
  2  3  2  0
  2  7  1  0
  3  4  1  0
  4  5  2  0
  5  6  1  0
  5 14  1  0
  6  7  2  0
  6  8  1  0
  8  9  1  0
  9 10  1  0
  9 14  2  0
 10 11  2  0
 11 12  1  0
 12 13  2  0
 13 14  1  0
 17 18  2  0
 17 26  1  0
 18 19  1  0
 19 20  2  0
 20 21  1  0
 20 25  1  0
 21 22  2  0
 22 23  1  0
 23 24  2  0
 24 25  1  0
 25 26  2  0
M  CHG  1   2   1
M  END
>  <minimizedAffinity>  (74) 
-9.03066

$$$$
data/reference_output_2/data/smiles/175208.pdb
     RDKit          3D

 26 28  0  0  0  0  0  0  0  0999 V2000
   69.3957   47.6811   56.1904 C   0  0  0  0  0  0  0  0  0  0  0  0
   70.6874   48.2533   56.2061 O   0  0  0  0  0  0  0  0  0  0  0  0
   68.4708   48.6757   56.7091 C   0  0  0  0  0  0  0  0  0  0  0  0
   68.7076   50.0142   56.5072 C   0  0  0  0  0  0  0  0  0  0  0  0
   67.8458   50.9874   56.9947 C   0  0  0  0  0  0  0  0  0  0  0  0
   66.7244   50.6099   57.6964 C   0  0  0  0  0  0  0  0  0  0  0  0
   66.4713   49.2741   57.9090 C   0  0  0  0  0  0  0  0  0  0  0  0
   67.3512   48.3122   57.4109 C   0  0  0  0  0  0  0  0  0  0  0  0
   69.0529   47.4451   54.7626 C   0  0  0  0  0  0  0  0  0  0  0  0
   69.6824   48.1763   53.7497 C   0  0  0  0  0  0  0  0  0  0  0  0
   69.3799   47.9738   52.4317 C   0  0  0  0  0  0  0  0  0  0  0  0
   68.4416   47.0368   52.0802 C   0  0  0  0  0  0  0  0  0  0  0  0
   67.8218   46.3176   53.0744 C   0  0  0  0  0  0  0  0  0  0  0  0
   68.1097   46.5030   54.4107 C   0  0  0  0  0  0  0  0  0  0  0  0
   69.7325   46.4445   58.1513 O   0  0  0  0  0  0  0  0  0  0  0  0
   69.3891   46.3981   56.9449 C   0  0  0  0  0  0  0  0  0  0  0  0
   69.0311   45.1431   56.4207 N   0  0  0  0  0  0  0  0  0  0  0  0
   69.0222   43.9482   57.1148 N   0  0  0  0  0  0  0  0  0  0  0  0
   68.6044   42.8134   56.6957 C   0  0  0  0  0  0  0  0  0  0  0  0
   68.6226   41.5957   57.4764 C   0  0  0  0  0  0  0  0  0  0  0  0
   69.0772   41.5639   58.7601 C   0  0  0  0  0  0  0  0  0  0  0  0
   69.0763   40.3610   59.4820 C   0  0  0  0  0  0  0  0  0  0  0  0
   68.6190   39.1984   58.9102 C   0  0  0  0  0  0  0  0  0  0  0  0
   68.1591   39.2301   57.6127 C   0  0  0  0  0  0  0  0  0  0  0  0
   68.1644   40.4352   56.9048 C   0  0  0  0  0  0  0  0  0  0  0  0
   67.7008   40.4404   55.6139 O   0  0  0  0  0  0  0  0  0  0  0  0
 15 16  2  0
 16 17  1  0
 16  1  1  0
 17 18  1  0
 18 19  2  0
 19 20  1  0
 20 21  2  0
 20 25  1  0
 21 22  1  0
 22 23  2  0
 23 24  1  0
 24 25  2  0
 25 26  1  0
  1  2  1  0
  1  3  1  0
  1  9  1  0
  3  4  2  0
  3  8  1  0
  4  5  1  0
  5  6  2  0
  6  7  1  0
  7  8  2  0
  9 10  2  0
  9 14  1  0
 10 11  1  0
 11 12  2  0
 12 13  1  0
 13 14  2  0
M  END
>  <minimizedAffinity>  (75) 
-9.02985

$$$$
data/reference_output_2/data/smiles/138118.pdb
     RDKit          3D

 23 25  0  0  0  0  0  0  0  0999 V2000
   70.2206   44.4151   57.7116 C   0  0  0  0  0  0  0  0  0  0  0  0
   71.0264   45.3318   58.3446 C   0  0  0  0  0  0  0  0  0  0  0  0
   70.6078   46.5813   57.9563 C   0  0  0  0  0  0  0  0  0  0  0  0
   69.5488   46.4303   57.0873 C   0  0  0  0  0  0  0  0  0  0  0  0
   69.3527   45.1241   56.9704 N   0  0  0  0  0  0  0  0  0  0  0  0
   70.2975   42.9379   57.7879 C   0  0  0  0  0  0  0  0  0  0  0  0
   71.2825   42.3428   57.3028 O   0  0  0  0  0  0  0  0  0  0  0  0
   69.1802   42.2235   58.4416 C   0  0  0  0  0  0  0  0  0  0  0  0
   69.2126   39.8952   57.9959 O   0  0  0  0  0  0  0  0  0  0  0  0
   68.7792   41.0240   57.6943 C   0  0  0  0  0  0  0  0  0  0  0  0
   67.8563   41.1476   56.5756 C   0  0  0  0  0  0  0  0  0  0  0  0
   67.0011   42.1791   56.3080 N   0  0  0  0  0  0  0  0  0  0  0  0
   66.3108   41.9089   55.1793 C   0  0  0  0  0  0  0  0  0  0  0  0
   66.7301   40.7155   54.7422 N   0  0  0  0  0  0  0  0  0  0  0  0
   67.6453   40.2759   55.5791 N   0  0  0  0  0  0  0  0  0  0  0  0
   68.8015   47.5563   56.4110 C   0  0  0  0  0  0  0  0  0  0  0  0
   68.6503   47.2384   54.9774 C   0  0  0  0  0  0  0  0  0  0  0  0
   67.9491   46.1534   54.5420 C   0  0  0  0  0  0  0  0  0  0  0  0
   67.8160   45.8724   53.1723 C   0  0  0  0  0  0  0  0  0  0  0  0
   68.3997   46.7007   52.2384 C   0  0  0  0  0  0  0  0  0  0  0  0
   68.2799   46.4421   50.8917 F   0  0  0  0  0  0  0  0  0  0  0  0
   69.1026   47.7884   52.6727 C   0  0  0  0  0  0  0  0  0  0  0  0
   69.2368   48.0706   54.0250 C   0  0  0  0  0  0  0  0  0  0  0  0
  9 10  2  0
 10  8  1  0
 10 11  1  0
  8  6  1  0
  6  7  2  0
  6  1  1  0
  1  2  2  0
  1  5  1  0
  2  3  1  0
  3  4  2  0
  4 16  1  0
  4  5  1  0
 16 17  1  0
 17 18  2  0
 17 23  1  0
 18 19  1  0
 19 20  2  0
 20 21  1  0
 20 22  1  0
 22 23  2  0
 11 12  1  0
 11 15  2  0
 12 13  2  0
 13 14  1  0
 14 15  1  0
M  END
>  <minimizedAffinity>  (76) 
-9.02983

$$$$
data/reference_output_2/data/smiles/108283.pdb
     RDKit          3D

 25 26  0  0  0  0  0  0  0  0999 V2000
   67.7372   41.3520   55.7731 O   0  0  0  0  0  0  0  0  0  0  0  0
   67.6474   42.0689   56.8297 C   0  0  0  0  0  0  0  0  0  0  0  0
   67.7512   43.4538   56.6275 N   0  0  0  0  0  0  0  0  0  0  0  0
   67.9453   44.0621   55.3810 N   0  0  0  0  0  0  0  0  0  0  0  0
   68.1892   45.4185   55.1886 C   0  0  0  0  0  0  0  0  0  0  0  0
   68.2305   46.1215   56.2613 O   0  0  0  0  0  0  0  0  0  0  0  0
   68.4004   46.1190   53.9342 C   0  0  0  0  0  0  0  0  0  0  0  0
   69.2081   47.2665   53.9076 C   0  0  0  0  0  0  0  0  0  0  0  0
   69.4487   47.9759   52.7570 C   0  0  0  0  0  0  0  0  0  0  0  0
   68.9066   47.6000   51.5487 C   0  0  0  0  0  0  0  0  0  0  0  0
   68.1112   46.4808   51.5456 C   0  0  0  0  0  0  0  0  0  0  0  0
   67.8658   45.7546   52.7240 C   0  0  0  0  0  0  0  0  0  0  0  0
   67.0693   44.6528   52.6578 F   0  0  0  0  0  0  0  0  0  0  0  0
   67.4498   41.3570   58.0888 C   0  0  0  0  0  0  0  0  0  0  0  0
   67.8799   40.0331   58.1263 O   0  0  0  0  0  0  0  0  0  0  0  0
   69.1074   39.7015   58.6767 C   0  0  0  0  0  0  0  0  0  0  0  0
   69.6421   40.4044   59.5840 O   0  0  0  0  0  0  0  0  0  0  0  0
   69.8431   38.5191   58.2320 C   0  0  0  0  0  0  0  0  0  0  0  0
   70.7549   37.9300   58.9516 C   0  0  0  0  0  0  0  0  0  0  0  0
   71.5106   36.7492   58.5440 C   0  0  0  0  0  0  0  0  0  0  0  0
   72.4046   36.7471   57.4968 C   0  0  0  0  0  0  0  0  0  0  0  0
   73.1126   35.6232   57.1219 C   0  0  0  0  0  0  0  0  0  0  0  0
   72.9489   34.4341   57.7951 C   0  0  0  0  0  0  0  0  0  0  0  0
   72.0594   34.4117   58.8477 C   0  0  0  0  0  0  0  0  0  0  0  0
   71.3567   35.5383   59.2142 C   0  0  0  0  0  0  0  0  0  0  0  0
  1  2  2  0
  2 14  1  0
  2  3  1  0
 14 15  1  0
 15 16  1  0
 16 17  2  0
 16 18  1  0
 18 19  2  0
 19 20  1  0
 20 21  2  0
 20 25  1  0
 21 22  1  0
 22 23  2  0
 23 24  1  0
 24 25  2  0
  3  4  1  0
  4  5  1  0
  5  6  2  0
  5  7  1  0
  7  8  2  0
  7 12  1  0
  8  9  1  0
  9 10  2  0
 10 11  1  0
 11 12  2  0
 12 13  1  0
M  END
>  <minimizedAffinity>  (77) 
-9.02567

$$$$
data/200k_reference_output/data/smiles/38475.pdb
     RDKit          3D

 26 28  0  0  0  0  0  0  0  0999 V2000
   70.3248   49.5838   54.1344 C   0  0  0  0  0  0  0  0  0  0  0  0
   69.9006   49.0200   55.2981 C   0  0  0  0  0  0  0  0  0  0  0  0
   69.1432   47.8823   55.3836 N   0  0  0  0  0  0  0  0  0  0  0  0
   68.8001   47.2902   54.2326 C   0  0  0  0  0  0  0  0  0  0  0  0
   68.0345   46.1433   54.2125 C   0  0  0  0  0  0  0  0  0  0  0  0
   67.6776   45.5309   53.0267 C   0  0  0  0  0  0  0  0  0  0  0  0
   68.0782   46.0525   51.8127 C   0  0  0  0  0  0  0  0  0  0  0  0
   68.8499   47.2111   51.8285 C   0  0  0  0  0  0  0  0  0  0  0  0
   69.2131   47.8301   53.0045 C   0  0  0  0  0  0  0  0  0  0  0  0
   69.9755   48.9755   52.9468 C   0  0  0  0  0  0  0  0  0  0  0  0
   70.3723   49.5007   51.8704 O   0  0  0  0  0  0  0  0  0  0  0  0
   71.1185   50.8277   54.1379 C   0  0  0  0  0  0  0  0  0  0  0  0
   70.8286   51.7232   53.3144 O   0  0  0  0  0  0  0  0  0  0  0  0
   72.2319   51.0403   55.0820 C   0  0  0  0  0  0  0  0  0  0  0  0
   73.4719   51.2864   54.3171 C   0  0  0  0  0  0  0  0  0  0  0  0
   73.9482   50.3563   53.6222 O   0  0  0  0  0  0  0  0  0  0  0  0
   73.7946   53.5079   53.5894 O   0  0  0  0  0  0  0  0  0  0  0  0
   74.1767   52.5677   54.3299 C   0  0  0  0  0  0  0  0  0  0  0  0
   75.2744   52.7719   55.1535 O   0  0  0  0  0  0  0  0  0  0  0  0
   68.7415   47.3632   56.6730 C   0  0  0  0  0  0  0  0  0  0  0  0
   69.8011   46.7125   57.4395 C   0  0  0  0  0  0  0  0  0  0  0  0
   70.6080   47.4284   58.3021 C   0  0  0  0  0  0  0  0  0  0  0  0
   71.6037   46.8124   59.0538 C   0  0  0  0  0  0  0  0  0  0  0  0
   71.7876   45.4560   58.9331 C   0  0  0  0  0  0  0  0  0  0  0  0
   70.9945   44.7315   58.0806 C   0  0  0  0  0  0  0  0  0  0  0  0
   70.0057   45.3606   57.3384 C   0  0  0  0  0  0  0  0  0  0  0  0
 17 18  2  0
 18 19  1  0
 18 15  1  0
 15 16  2  0
 15 14  1  0
 14 12  1  0
 12 13  2  0
 12  1  1  0
  1  2  2  0
  1 10  1  0
  2  3  1  0
  3 20  1  0
  3  4  1  0
 20 21  1  0
 21 22  2  0
 21 26  1  0
 22 23  1  0
 23 24  2  0
 24 25  1  0
 25 26  2  0
  4  5  1  0
  4  9  2  0
  5  6  2  0
  6  7  1  0
  7  8  2  0
  8  9  1  0
  9 10  1  0
 10 11  2  0
M  END
>  <minimizedAffinity>  (78) 
-9.02442

$$$$
data/200k_reference_output/data/smiles/59652.pdb
     RDKit          3D

 26 28  0  0  0  0  0  0  0  0999 V2000
   68.2652   42.1833   57.0129 C   0  0  0  0  0  0  0  0  0  0  0  0
   67.2398   42.0024   56.1388 N   0  0  0  0  0  0  0  0  0  0  0  0
   67.1439   43.0668   55.3604 N   0  0  0  0  0  0  0  0  0  0  0  0
   68.0590   43.9717   55.6611 N   0  0  0  0  0  0  0  0  0  0  0  0
   68.7628   43.4284   56.6898 C   0  0  0  0  0  0  0  0  0  0  0  0
   69.8461   44.0640   57.3268 N   0  0  0  0  0  0  0  0  0  0  0  0
   68.2775   45.2379   55.0553 C   0  0  0  0  0  0  0  0  0  0  0  0
   68.6365   46.3805   55.7355 C   0  0  0  0  0  0  0  0  0  0  0  0
   68.8422   47.5918   55.1228 C   0  0  0  0  0  0  0  0  0  0  0  0
   69.2295   48.8145   55.8754 C   0  0  0  0  0  0  0  0  0  0  0  0
   68.6848   47.6897   53.7451 C   0  0  0  0  0  0  0  0  0  0  0  0
   68.3284   46.5680   53.0408 C   0  0  0  0  0  0  0  0  0  0  0  0
   68.1632   46.6825   51.5772 C   0  0  0  0  0  0  0  0  0  0  0  0
   68.1289   45.3675   53.6809 C   0  0  0  0  0  0  0  0  0  0  0  0
   69.7160   40.2887   57.7923 N   0  0  0  0  0  0  0  0  0  0  0  0
   68.7327   41.2729   58.0507 C   0  0  0  0  0  0  0  0  0  0  0  0
   68.2502   41.3688   59.1933 O   0  0  0  0  0  0  0  0  0  0  0  0
   70.2744   39.3565   58.7153 C   0  0  0  0  0  0  0  0  0  0  0  0
   71.4804   38.5902   58.3214 C   0  0  0  0  0  0  0  0  0  0  0  0
   71.8136   32.9377   59.4139 C   0  0  0  0  0  0  0  0  0  0  0  0
   71.7193   34.3957   59.1404 C   0  0  0  0  0  0  0  0  0  0  0  0
   70.9640   35.2386   59.9239 C   0  0  0  0  0  0  0  0  0  0  0  0
   70.8693   36.5879   59.6804 C   0  0  0  0  0  0  0  0  0  0  0  0
   71.5564   37.1640   58.5995 C   0  0  0  0  0  0  0  0  0  0  0  0
   72.3183   36.2979   57.8144 C   0  0  0  0  0  0  0  0  0  0  0  0
   72.3968   34.9513   58.0788 C   0  0  0  0  0  0  0  0  0  0  0  0
 20 21  1  0
 21 22  2  0
 21 26  1  0
 22 23  1  0
 23 24  2  0
 24 19  1  0
 24 25  1  0
 19 18  1  0
 18 15  1  0
 15 16  1  0
 16 17  2  0
 16  1  1  0
  1  2  1  0
  1  5  2  0
  2  3  2  0
  3  4  1  0
  4  7  1  0
  4  5  1  0
  7  8  2  0
  7 14  1  0
  8  9  1  0
  9 10  1  0
  9 11  2  0
 11 12  1  0
 12 13  1  0
 12 14  2  0
  5  6  1  0
 25 26  2  0
M  END
>  <minimizedAffinity>  (79) 
-9.02414

$$$$
data/reference_output_2/data/smiles/190274.pdb
     RDKit          3D

 23 25  0  0  0  0  0  0  0  0999 V2000
   68.4183   44.1046   56.4265 N   0  0  0  0  0  0  0  0  0  0  0  0
   67.9315   42.9595   56.1029 C   0  0  0  0  0  0  0  0  0  0  0  0
   68.2200   41.7388   56.8556 C   0  0  0  0  0  0  0  0  0  0  0  0
   68.8296   41.7564   58.0944 C   0  0  0  0  0  0  0  0  0  0  0  0
   69.0974   40.5931   58.7961 C   0  0  0  0  0  0  0  0  0  0  0  0
   69.7062   40.5966   60.0336 C   0  0  0  0  0  0  0  0  0  0  0  0
   69.9712   39.4340   60.7300 C   0  0  0  0  0  0  0  0  0  0  0  0
   69.6330   38.2032   60.2061 C   0  0  0  0  0  0  0  0  0  0  0  0
   69.0246   38.1996   58.9673 C   0  0  0  0  0  0  0  0  0  0  0  0
   68.7590   39.3614   58.2700 C   0  0  0  0  0  0  0  0  0  0  0  0
   68.1652   39.3572   57.0621 N   0  0  0  0  0  0  0  0  0  0  0  0
   67.9009   40.4879   56.3725 C   0  0  0  0  0  0  0  0  0  0  0  0
   67.3386   40.4665   55.2312 O   0  0  0  0  0  0  0  0  0  0  0  0
   69.7442   46.4888   56.9552 O   0  0  0  0  0  0  0  0  0  0  0  0
   68.8741   46.4742   56.0455 C   0  0  0  0  0  0  0  0  0  0  0  0
   68.1591   45.2868   55.7259 N   0  0  0  0  0  0  0  0  0  0  0  0
   68.6014   47.7117   55.3100 C   0  0  0  0  0  0  0  0  0  0  0  0
   68.9728   47.5890   53.8828 C   0  0  0  0  0  0  0  0  0  0  0  0
   69.9101   48.4598   53.3719 C   0  0  0  0  0  0  0  0  0  0  0  0
   70.3009   48.3936   52.0321 C   0  0  0  0  0  0  0  0  0  0  0  0
   69.7590   47.4693   51.2215 N   0  0  0  0  0  0  0  0  0  0  0  0
   68.8289   46.5918   51.6909 C   0  0  0  0  0  0  0  0  0  0  0  0
   68.4369   46.6561   53.0299 C   0  0  0  0  0  0  0  0  0  0  0  0
 14 15  2  0
 15 17  1  0
 15 16  1  0
 17 18  1  0
 18 19  2  0
 18 23  1  0
 19 20  1  0
 20 21  2  0
 21 22  1  0
 22 23  2  0
 16  1  1  0
  1  2  2  0
  2  3  1  0
  3  4  2  0
  3 12  1  0
  4  5  1  0
  5  6  2  0
  5 10  1  0
  6  7  1  0
  7  8  2  0
  8  9  1  0
  9 10  2  0
 10 11  1  0
 11 12  1  0
 12 13  2  0
M  END
>  <minimizedAffinity>  (80) 
-9.02157

$$$$
data/reference_output_2/data/smiles/189418.pdb
     RDKit          3D

 23 25  0  0  0  0  0  0  0  0999 V2000
   68.8179   45.0370   56.4851 N   0  0  0  0  0  0  0  0  0  0  0  0
   67.0571   43.2909   55.3911 O   0  0  0  0  0  0  0  0  0  0  0  0
   67.6412   42.4601   56.1404 C   0  0  0  0  0  0  0  0  0  0  0  0
   67.3448   41.0722   56.3041 N   0  0  0  0  0  0  0  0  0  0  0  0
   68.2376   40.4753   57.2439 C   0  0  0  0  0  0  0  0  0  0  0  0
   68.3461   39.1762   57.7319 C   0  0  0  0  0  0  0  0  0  0  0  0
   69.3107   38.8502   58.6567 C   0  0  0  0  0  0  0  0  0  0  0  0
   70.1577   39.8540   59.0781 C   0  0  0  0  0  0  0  0  0  0  0  0
   70.0450   41.1457   58.5882 C   0  0  0  0  0  0  0  0  0  0  0  0
   69.0774   41.4854   57.6581 C   0  0  0  0  0  0  0  0  0  0  0  0
   68.7579   42.7462   57.0086 C   0  0  0  0  0  0  0  0  0  0  0  0
   69.2983   43.9311   57.1639 N   0  0  0  0  0  0  0  0  0  0  0  0
   69.1694   46.3727   56.5912 C   0  0  0  0  0  0  0  0  0  0  0  0
   70.2349   46.8385   57.7554 S   0  0  0  0  0  0  0  0  0  0  0  0
   68.6701   47.3828   55.7488 N   0  0  0  0  0  0  0  0  0  0  0  0
   68.6464   47.1750   54.3516 C   0  0  0  0  0  0  0  0  0  0  0  0
   67.8879   46.2184   53.7541 C   0  0  0  0  0  0  0  0  0  0  0  0
   67.9150   46.0342   52.3911 C   0  0  0  0  0  0  0  0  0  0  0  0
   67.1470   45.0782   51.8052 F   0  0  0  0  0  0  0  0  0  0  0  0
   68.7219   46.8323   51.6147 C   0  0  0  0  0  0  0  0  0  0  0  0
   69.4927   47.8000   52.1946 C   0  0  0  0  0  0  0  0  0  0  0  0
   70.2889   48.5746   51.4081 F   0  0  0  0  0  0  0  0  0  0  0  0
   69.4731   47.9929   53.5736 C   0  0  0  0  0  0  0  0  0  0  0  0
  2  3  2  0
  3  4  1  0
  3 11  1  0
  4  5  1  0
  5  6  2  0
  5 10  1  0
  6  7  1  0
  7  8  2  0
  8  9  1  0
  9 10  2  0
 10 11  1  0
 11 12  2  0
 12  1  1  0
  1 13  1  0
 13 14  2  0
 13 15  1  0
 15 16  1  0
 16 17  2  0
 16 23  1  0
 17 18  1  0
 18 19  1  0
 18 20  2  0
 20 21  1  0
 21 22  1  0
 21 23  2  0
M  END
>  <minimizedAffinity>  (81) 
-9.01193

$$$$
data/reference_output_2/data/smiles/172552.pdb
     RDKit          3D

 26 29  0  0  0  0  0  0  0  0999 V2000
   70.4661   45.8690   58.0557 C   0  0  0  0  0  0  0  0  0  0  0  0
   70.3565   44.4784   58.3028 C   0  0  0  0  0  0  0  0  0  0  0  0
   69.4637   43.8886   57.4663 C   0  0  0  0  0  0  0  0  0  0  0  0
   69.0206   44.9200   56.7010 N   0  0  0  0  0  0  0  0  0  0  0  0
   69.6166   46.0726   57.0569 N   0  0  0  0  0  0  0  0  0  0  0  0
   68.9851   42.5201   57.3031 C   0  0  0  0  0  0  0  0  0  0  0  0
   67.9697   42.1417   56.3999 C   0  0  0  0  0  0  0  0  0  0  0  0
   67.7628   40.8258   56.4870 N   0  0  0  0  0  0  0  0  0  0  0  0
   68.5869   40.2893   57.4026 C   0  0  0  0  0  0  0  0  0  0  0  0
   68.7686   39.0003   57.8591 C   0  0  0  0  0  0  0  0  0  0  0  0
   69.7153   38.7585   58.8287 C   0  0  0  0  0  0  0  0  0  0  0  0
   70.4736   39.7826   59.3405 C   0  0  0  0  0  0  0  0  0  0  0  0
   70.2956   41.0842   58.8864 C   0  0  0  0  0  0  0  0  0  0  0  0
   69.3559   41.3544   57.9172 C   0  0  0  0  0  0  0  0  0  0  0  0
   72.2998   47.9632   60.6510 N   0  0  0  0  0  0  0  0  0  0  0  0
   71.2945   47.0823   60.1301 N   0  0  0  0  0  0  0  0  0  0  0  0
   71.3724   46.7383   58.7859 C   0  0  0  0  0  0  0  0  0  0  0  0
   72.3603   47.2396   58.1036 O   0  0  0  0  0  0  0  0  0  0  0  0
   69.3079   47.3190   56.3520 C   0  0  0  0  0  0  0  0  0  0  0  0
   68.9566   47.0931   54.9361 C   0  0  0  0  0  0  0  0  0  0  0  0
   68.1625   46.0546   54.5368 C   0  0  0  0  0  0  0  0  0  0  0  0
   67.8328   45.8623   53.1836 C   0  0  0  0  0  0  0  0  0  0  0  0
   68.3115   46.7213   52.2473 C   0  0  0  0  0  0  0  0  0  0  0  0
   68.0414   46.6051   50.9256 F   0  0  0  0  0  0  0  0  0  0  0  0
   69.1130   47.7671   52.6585 C   0  0  0  0  0  0  0  0  0  0  0  0
   69.4386   47.9613   53.9793 C   0  0  0  0  0  0  0  0  0  0  0  0
 15 16  1  0
 16 17  1  0
 17 18  2  0
 17  1  1  0
  1  2  2  0
  1  5  1  0
  2  3  1  0
  3  6  1  0
  3  4  2  0
  6  7  2  0
  6 14  1  0
  7  8  1  0
  8  9  1  0
  9 10  1  0
  9 14  2  0
 10 11  2  0
 11 12  1  0
 12 13  2  0
 13 14  1  0
  4  5  1  0
  5 19  1  0
 19 20  1  0
 20 21  2  0
 20 26  1  0
 21 22  1  0
 22 23  2  0
 23 24  1  0
 23 25  1  0
 25 26  2  0
M  END
>  <minimizedAffinity>  (82) 
-9.01161

$$$$
data/reference_output_2/data/smiles/174853.pdb
     RDKit          3D

 25 27  0  0  0  0  0  0  0  0999 V2000
   68.9014   48.0001   56.5836 C   0  0  0  0  0  0  0  0  0  0  0  0
   68.0817   48.7368   57.1896 O   0  0  0  0  0  0  0  0  0  0  0  0
   69.5446   48.4227   55.3513 C   0  0  0  0  0  0  0  0  0  0  0  0
   70.5303   49.3521   55.1158 C   0  0  0  0  0  0  0  0  0  0  0  0
   70.8218   49.4118   53.7815 N   0  0  0  0  0  0  0  0  0  0  0  0
   70.0429   48.5350   53.1288 C   0  0  0  0  0  0  0  0  0  0  0  0
   69.9417   48.2062   51.7744 C   0  0  0  0  0  0  0  0  0  0  0  0
   69.0445   47.2529   51.3492 C   0  0  0  0  0  0  0  0  0  0  0  0
   68.2721   46.6556   52.3092 C   0  0  0  0  0  0  0  0  0  0  0  0
   68.3597   46.9693   53.6498 C   0  0  0  0  0  0  0  0  0  0  0  0
   69.2521   47.9169   54.0672 C   0  0  0  0  0  0  0  0  0  0  0  0
   67.3288   45.6611   51.9146 N   0  0  0  0  0  0  0  0  0  0  0  0
   67.0049   44.7314   52.6572 O   0  0  0  0  0  0  0  0  0  0  0  0
   66.7325   45.7024   50.6684 O   0  0  0  0  0  0  0  0  0  0  0  0
   68.9065   45.6326   56.5372 O   0  0  0  0  0  0  0  0  0  0  0  0
   69.2082   46.6927   57.1372 C   0  0  0  0  0  0  0  0  0  0  0  0
   69.8658   46.5319   58.3884 N   0  0  0  0  0  0  0  0  0  0  0  0
   70.1325   45.2579   58.8669 N   0  0  0  0  0  0  0  0  0  0  0  0
   71.2499   44.4957   58.4284 C   0  0  0  0  0  0  0  0  0  0  0  0
   72.5155   45.0394   58.3408 C   0  0  0  0  0  0  0  0  0  0  0  0
   73.6074   44.2981   57.9137 C   0  0  0  0  0  0  0  0  0  0  0  0
   73.4536   42.9745   57.5593 C   0  0  0  0  0  0  0  0  0  0  0  0
   74.5097   42.2422   57.1421 F   0  0  0  0  0  0  0  0  0  0  0  0
   72.1912   42.4061   57.6401 C   0  0  0  0  0  0  0  0  0  0  0  0
   71.1155   43.1739   58.0716 C   0  0  0  0  0  0  0  0  0  0  0  0
 15 16  2  0
 16 17  1  0
 16  1  1  0
 17 18  1  0
 18 19  1  0
 19 20  2  0
 19 25  1  0
 20 21  1  0
 21 22  2  0
 22 23  1  0
 22 24  1  0
 24 25  2  0
  1  2  2  0
  1  3  1  0
  3  4  2  0
  3 11  1  0
  4  5  1  0
  5  6  1  0
  6  7  1  0
  6 11  2  0
  7  8  2  0
  8  9  1  0
  9 12  1  0
  9 10  2  0
 12 13  2  0
 12 14  1  0
 10 11  1  0
M  CHG  2  12   1  14  -1
M  END
>  <minimizedAffinity>  (83) 
-9.00165

$$$$
data/reference_output_2/data/smiles/170243.pdb
     RDKit          3D

 23 25  0  0  0  0  0  0  0  0999 V2000
   70.2137   44.3583   57.7074 C   0  0  0  0  0  0  0  0  0  0  0  0
   71.0451   45.2777   58.3026 C   0  0  0  0  0  0  0  0  0  0  0  0
   70.6414   46.5304   57.8988 C   0  0  0  0  0  0  0  0  0  0  0  0
   69.5574   46.3297   57.0547 C   0  0  0  0  0  0  0  0  0  0  0  0
   69.3651   45.0382   56.9892 O   0  0  0  0  0  0  0  0  0  0  0  0
   70.2535   42.9260   57.8397 C   0  0  0  0  0  0  0  0  0  0  0  0
   71.2287   42.2988   57.3528 O   0  0  0  0  0  0  0  0  0  0  0  0
   69.2016   42.1282   58.5199 C   0  0  0  0  0  0  0  0  0  0  0  0
   69.2670   39.7807   57.9687 O   0  0  0  0  0  0  0  0  0  0  0  0
   68.8446   40.9244   57.7433 C   0  0  0  0  0  0  0  0  0  0  0  0
   67.9062   41.0898   56.6064 C   0  0  0  0  0  0  0  0  0  0  0  0
   67.0994   42.1584   56.4116 N   0  0  0  0  0  0  0  0  0  0  0  0
   66.4006   41.9417   55.2896 C   0  0  0  0  0  0  0  0  0  0  0  0
   66.7754   40.7514   54.8013 N   0  0  0  0  0  0  0  0  0  0  0  0
   67.6840   40.2477   55.6046 N   0  0  0  0  0  0  0  0  0  0  0  0
   68.7705   47.3556   56.3652 C   0  0  0  0  0  0  0  0  0  0  0  0
   68.6900   47.1720   54.9074 C   0  0  0  0  0  0  0  0  0  0  0  0
   67.9409   46.1055   54.4104 C   0  0  0  0  0  0  0  0  0  0  0  0
   67.7645   45.8345   53.0894 C   0  0  0  0  0  0  0  0  0  0  0  0
   68.3762   46.6848   52.1703 C   0  0  0  0  0  0  0  0  0  0  0  0
   68.2242   46.4497   50.8359 F   0  0  0  0  0  0  0  0  0  0  0  0
   69.1242   47.7483   52.6274 C   0  0  0  0  0  0  0  0  0  0  0  0
   69.2780   47.9869   53.9778 C   0  0  0  0  0  0  0  0  0  0  0  0
  9 10  2  0
 10  8  1  0
 10 11  1  0
  8  6  1  0
  6  7  2  0
  6  1  1  0
  1  2  2  0
  1  5  1  0
  2  3  1  0
  3  4  2  0
  4 16  1  0
  4  5  1  0
 16 17  1  0
 17 18  2  0
 17 23  1  0
 18 19  1  0
 19 20  2  0
 20 21  1  0
 20 22  1  0
 22 23  2  0
 11 12  1  0
 11 15  2  0
 12 13  2  0
 13 14  1  0
 14 15  1  0
M  END
>  <minimizedAffinity>  (84) 
-8.99674

$$$$
data/200k_reference_output/data/smiles/79026.pdb
     RDKit          3D

 25 27  0  0  0  0  0  0  0  0999 V2000
   68.2106   41.9010   57.9880 C   0  0  0  0  0  0  0  0  0  0  0  0
   68.7429   42.8430   57.0426 C   0  0  0  0  0  0  0  0  0  0  0  0
   69.9207   43.0814   56.8441 O   0  0  0  0  0  0  0  0  0  0  0  0
   67.8738   43.6415   56.1922 N   0  0  0  0  0  0  0  0  0  0  0  0
   68.2795   44.5479   55.2795 N   0  0  0  0  0  0  0  0  0  0  0  0
   68.2074   45.8058   55.2810 C   0  0  0  0  0  0  0  0  0  0  0  0
   68.7034   46.6662   54.1971 C   0  0  0  0  0  0  0  0  0  0  0  0
   68.6078   46.2978   52.8731 C   0  0  0  0  0  0  0  0  0  0  0  0
   69.0769   47.1113   51.8417 C   0  0  0  0  0  0  0  0  0  0  0  0
   69.6592   48.3274   52.1296 C   0  0  0  0  0  0  0  0  0  0  0  0
   70.1200   49.1236   51.0922 O   0  0  0  0  0  0  0  0  0  0  0  0
   69.7621   48.7130   53.4501 C   0  0  0  0  0  0  0  0  0  0  0  0
   69.2866   47.8846   54.4707 C   0  0  0  0  0  0  0  0  0  0  0  0
   67.9619   40.5235   57.4999 C   0  0  0  0  0  0  0  0  0  0  0  0
   66.6976   39.0008   59.7726 C   0  0  0  0  0  0  0  0  0  0  0  0
   68.0277   38.7170   59.2146 C   0  0  0  0  0  0  0  0  0  0  0  0
   68.6967   37.6834   59.7986 N   0  0  0  0  0  0  0  0  0  0  0  0
   69.9538   37.3735   59.4573 C   0  0  0  0  0  0  0  0  0  0  0  0
   70.6574   36.3359   60.0291 C   0  0  0  0  0  0  0  0  0  0  0  0
   71.9410   36.0901   59.6193 C   0  0  0  0  0  0  0  0  0  0  0  0
   72.5531   36.8481   58.6507 C   0  0  0  0  0  0  0  0  0  0  0  0
   71.8695   37.8752   58.0788 C   0  0  0  0  0  0  0  0  0  0  0  0
   70.5660   38.1315   58.4887 C   0  0  0  0  0  0  0  0  0  0  0  0
   69.8945   39.1400   57.9259 N   0  0  0  0  0  0  0  0  0  0  0  0
   68.6027   39.4757   58.2600 C   0  0  0  0  0  0  0  0  0  0  0  0
 15 16  1  0
 16 17  2  0
 16 25  1  0
 17 18  1  0
 18 19  2  0
 18 23  1  0
 19 20  1  0
 20 21  2  0
 21 22  1  0
 22 23  2  0
 23 24  1  0
 24 25  2  0
 25 14  1  0
 14  1  1  0
  1  2  1  0
  2  3  2  0
  2  4  1  0
  4  5  1  0
  5  6  2  0
  6  7  1  0
  7  8  2  0
  7 13  1  0
  8  9  1  0
  9 10  2  0
 10 11  1  0
 10 12  1  0
 12 13  2  0
M  END
>  <minimizedAffinity>  (85) 
-8.99605

$$$$
data/reference_output_2/data/smiles/95350.pdb
     RDKit          3D

 25 27  0  0  0  0  0  0  0  0999 V2000
   71.2173   50.2714   56.7020 C   0  0  0  0  0  0  0  0  0  0  0  0
   73.2270   50.3899   58.0283 O   0  0  0  0  0  0  0  0  0  0  0  0
   72.6854   50.1424   56.9007 C   0  0  0  0  0  0  0  0  0  0  0  0
   73.5725   49.7402   55.8656 N   0  0  0  0  0  0  0  0  0  0  0  0
   74.9478   49.6387   56.1213 N   0  0  0  0  0  0  0  0  0  0  0  0
   75.8520   50.1696   55.4023 C   0  0  0  0  0  0  0  0  0  0  0  0
   77.2896   50.0603   55.6751 C   0  0  0  0  0  0  0  0  0  0  0  0
   78.0403   49.0667   55.0835 C   0  0  0  0  0  0  0  0  0  0  0  0
   79.3958   48.9213   55.3076 C   0  0  0  0  0  0  0  0  0  0  0  0
   80.0544   49.7887   56.1525 C   0  0  0  0  0  0  0  0  0  0  0  0
   81.4125   49.6854   56.4106 O   0  0  0  0  0  0  0  0  0  0  0  0
   79.3041   50.7863   56.7479 C   0  0  0  0  0  0  0  0  0  0  0  0
   77.9441   50.9275   56.5187 C   0  0  0  0  0  0  0  0  0  0  0  0
   70.8429   50.8234   55.3829 C   0  0  0  0  0  0  0  0  0  0  0  0
   70.3437   49.8409   54.3910 C   0  0  0  0  0  0  0  0  0  0  0  0
   69.5815   48.8469   54.8888 N   0  0  0  0  0  0  0  0  0  0  0  0
   69.0872   47.9010   54.1055 C   0  0  0  0  0  0  0  0  0  0  0  0
   68.3076   46.8881   54.6269 C   0  0  0  0  0  0  0  0  0  0  0  0
   67.8104   45.9266   53.7976 C   0  0  0  0  0  0  0  0  0  0  0  0
   68.0719   45.9446   52.4388 C   0  0  0  0  0  0  0  0  0  0  0  0
   68.8449   46.9397   51.8860 C   0  0  0  0  0  0  0  0  0  0  0  0
   69.3406   47.9090   52.7522 C   0  0  0  0  0  0  0  0  0  0  0  0
   70.1189   48.9326   52.2758 C   0  0  0  0  0  0  0  0  0  0  0  0
   70.3593   48.9495   51.0254 O   0  0  0  0  0  0  0  0  0  0  0  0
   70.6016   49.8714   53.1000 N   0  0  0  0  0  0  0  0  0  0  0  0
  2  3  2  0
  3  1  1  0
  3  4  1  0
  1 14  1  0
 14 15  1  0
 15 16  2  0
 15 25  1  0
 16 17  1  0
 17 18  2  0
 17 22  1  0
 18 19  1  0
 19 20  2  0
 20 21  1  0
 21 22  2  0
 22 23  1  0
 23 24  2  0
 23 25  1  0
  4  5  1  0
  5  6  2  0
  6  7  1  0
  7  8  2  0
  7 13  1  0
  8  9  1  0
  9 10  2  0
 10 11  1  0
 10 12  1  0
 12 13  2  0
M  END
>  <minimizedAffinity>  (86) 
-8.99365

$$$$
data/200k_reference_output/data/smiles/15943.pdb
     RDKit          3D

 26 29  0  0  0  0  0  0  0  0999 V2000
   71.5304   47.3432   58.8963 C   0  0  0  0  0  0  0  0  0  0  0  0
   71.5723   45.9505   58.7978 C   0  0  0  0  0  0  0  0  0  0  0  0
   70.7358   45.3078   57.9105 C   0  0  0  0  0  0  0  0  0  0  0  0
   69.8402   46.0091   57.1006 C   0  0  0  0  0  0  0  0  0  0  0  0
   69.7980   47.3744   57.1957 C   0  0  0  0  0  0  0  0  0  0  0  0
   70.6489   48.0310   58.0984 C   0  0  0  0  0  0  0  0  0  0  0  0
   72.1423   47.8430   61.0676 O   0  0  0  0  0  0  0  0  0  0  0  0
   72.4202   48.0068   59.8397 C   0  0  0  0  0  0  0  0  0  0  0  0
   73.5260   48.7861   59.4220 N   0  0  0  0  0  0  0  0  0  0  0  0
   73.8028   48.9431   58.0279 C   0  0  0  0  0  0  0  0  0  0  0  0
   75.2528   49.1477   57.7066 C   0  0  0  0  0  0  0  0  0  0  0  0
   75.9760   49.7564   58.7093 O   0  0  0  0  0  0  0  0  0  0  0  0
   75.1776   50.4700   59.5980 C   0  0  0  0  0  0  0  0  0  0  0  0
   74.3897   49.4307   60.3809 C   0  0  0  0  0  0  0  0  0  0  0  0
   68.8915   48.2059   56.3692 C   0  0  0  0  0  0  0  0  0  0  0  0
   69.2976   48.2980   54.9591 C   0  0  0  0  0  0  0  0  0  0  0  0
   70.2547   49.2155   54.6147 N   0  0  0  0  0  0  0  0  0  0  0  0
   70.7169   49.3505   53.4052 N   0  0  0  0  0  0  0  0  0  0  0  0
   70.2862   48.5912   52.3918 C   0  0  0  0  0  0  0  0  0  0  0  0
   70.7144   48.6993   51.2209 O   0  0  0  0  0  0  0  0  0  0  0  0
   69.3199   47.6353   52.6366 C   0  0  0  0  0  0  0  0  0  0  0  0
   68.8620   46.8578   51.5952 C   0  0  0  0  0  0  0  0  0  0  0  0
   67.8885   45.9246   51.8675 C   0  0  0  0  0  0  0  0  0  0  0  0
   67.3922   45.7766   53.1356 C   0  0  0  0  0  0  0  0  0  0  0  0
   67.8808   46.5792   54.1612 C   0  0  0  0  0  0  0  0  0  0  0  0
   68.8451   47.5147   53.9353 C   0  0  0  0  0  0  0  0  0  0  0  0
  7  8  2  0
  8  1  1  0
  8  9  1  0
  1  2  2  0
  1  6  1  0
  2  3  1  0
  3  4  2  0
  4  5  1  0
  5 15  1  0
  5  6  2  0
 15 16  1  0
 16 17  2  0
 16 26  1  0
 17 18  1  0
 18 19  1  0
 19 20  2  0
 19 21  1  0
 21 22  1  0
 21 26  2  0
 22 23  2  0
 23 24  1  0
 24 25  2  0
 25 26  1  0
  9 10  1  0
  9 14  1  0
 10 11  1  0
 11 12  1  0
 12 13  1  0
 13 14  1  0
M  END
>  <minimizedAffinity>  (87) 
-8.99172

$$$$
data/200k_reference_output/data/smiles/64282.pdb
     RDKit          3D

 25 28  0  0  0  0  0  0  0  0999 V2000
   71.0869   45.8506   58.2950 C   0  0  0  0  0  0  0  0  0  0  0  0
   71.8919   46.7313   58.9842 C   0  0  0  0  0  0  0  0  0  0  0  0
   71.7476   48.1015   58.8394 C   0  0  0  0  0  0  0  0  0  0  0  0
   70.7845   48.5856   57.9928 C   0  0  0  0  0  0  0  0  0  0  0  0
   69.9338   47.7407   57.2634 C   0  0  0  0  0  0  0  0  0  0  0  0
   70.1345   46.4015   57.4581 C   0  0  0  0  0  0  0  0  0  0  0  0
   73.3162   44.0598   57.3269 O   0  0  0  0  0  0  0  0  0  0  0  0
   72.3239   43.6323   57.9753 C   0  0  0  0  0  0  0  0  0  0  0  0
   72.0940   42.2377   58.3552 C   0  0  0  0  0  0  0  0  0  0  0  0
   70.9485   42.1783   59.0260 C   0  0  0  0  0  0  0  0  0  0  0  0
   70.3753   43.5345   59.1149 C   0  0  0  0  0  0  0  0  0  0  0  0
   69.2876   43.8770   59.6818 O   0  0  0  0  0  0  0  0  0  0  0  0
   71.2459   44.4440   58.4520 N   0  0  0  0  0  0  0  0  0  0  0  0
   68.8949   48.3461   56.3784 C   0  0  0  0  0  0  0  0  0  0  0  0
   69.2862   48.4558   54.9692 C   0  0  0  0  0  0  0  0  0  0  0  0
   70.1699   49.4212   54.5649 N   0  0  0  0  0  0  0  0  0  0  0  0
   70.5952   49.5330   53.3238 N   0  0  0  0  0  0  0  0  0  0  0  0
   70.1953   48.7052   52.3466 C   0  0  0  0  0  0  0  0  0  0  0  0
   70.5710   48.7700   51.1566 O   0  0  0  0  0  0  0  0  0  0  0  0
   69.2916   47.6964   52.6893 C   0  0  0  0  0  0  0  0  0  0  0  0
   68.8284   46.8227   51.7305 C   0  0  0  0  0  0  0  0  0  0  0  0
   67.9206   45.8214   52.0258 C   0  0  0  0  0  0  0  0  0  0  0  0
   67.4768   45.7112   53.3237 C   0  0  0  0  0  0  0  0  0  0  0  0
   67.9438   46.5861   54.2755 C   0  0  0  0  0  0  0  0  0  0  0  0
   68.8532   47.5906   53.9947 C   0  0  0  0  0  0  0  0  0  0  0  0
  7  8  2  0
  8  9  1  0
  8 13  1  0
  9 10  2  0
 10 11  1  0
 11 12  2  0
 11 13  1  0
 13  1  1  0
  1  2  2  0
  1  6  1  0
  2  3  1  0
  3  4  2  0
  4  5  1  0
  5 14  1  0
  5  6  2  0
 14 15  1  0
 15 16  2  0
 15 25  1  0
 16 17  1  0
 17 18  1  0
 18 19  2  0
 18 20  1  0
 20 21  1  0
 20 25  2  0
 21 22  2  0
 22 23  1  0
 23 24  2  0
 24 25  1  0
M  END
>  <minimizedAffinity>  (88) 
-8.99159

$$$$
data/200k_reference_output/data/smiles/74847.pdb
     RDKit          3D

 24 26  0  0  0  0  0  0  0  0999 V2000
   69.0644   46.3705   56.8407 N   0  0  0  0  0  0  0  0  0  0  0  0
   68.6009   47.2451   56.0855 C   0  0  0  0  0  0  0  0  0  0  0  0
   68.4880   47.0419   54.6553 C   0  0  0  0  0  0  0  0  0  0  0  0
   67.7557   45.9629   54.1438 C   0  0  0  0  0  0  0  0  0  0  0  0
   67.7857   45.7019   52.7975 C   0  0  0  0  0  0  0  0  0  0  0  0
   68.4991   46.4411   51.8902 C   0  0  0  0  0  0  0  0  0  0  0  0
   69.2218   47.4991   52.3638 C   0  0  0  0  0  0  0  0  0  0  0  0
   69.2066   47.7811   53.7395 C   0  0  0  0  0  0  0  0  0  0  0  0
   68.1372   48.4962   56.7521 C   0  0  0  0  0  0  0  0  0  0  0  0
   67.0833   48.6395   57.5721 C   0  0  0  0  0  0  0  0  0  0  0  0
   66.6632   49.8774   58.0538 C   0  0  0  0  0  0  0  0  0  0  0  0
   67.3286   51.0263   57.7024 C   0  0  0  0  0  0  0  0  0  0  0  0
   68.4102   50.9108   56.8697 C   0  0  0  0  0  0  0  0  0  0  0  0
   68.8074   49.6832   56.4054 C   0  0  0  0  0  0  0  0  0  0  0  0
   69.7821   44.9980   59.0444 O   0  0  0  0  0  0  0  0  0  0  0  0
   69.9263   44.4085   57.9373 C   0  0  0  0  0  0  0  0  0  0  0  0
   69.5610   45.1429   56.7748 N   0  0  0  0  0  0  0  0  0  0  0  0
   70.4367   43.0472   57.8842 C   0  0  0  0  0  0  0  0  0  0  0  0
   69.5845   42.0514   57.3758 N   0  0  0  0  0  0  0  0  0  0  0  0
   68.5129   42.4020   56.5409 C   0  0  0  0  0  0  0  0  0  0  0  0
   67.3026   41.5100   56.6529 C   0  0  0  0  0  0  0  0  0  0  0  0
   67.7554   40.1987   56.6194 O   0  0  0  0  0  0  0  0  0  0  0  0
   68.4789   39.8676   57.7589 C   0  0  0  0  0  0  0  0  0  0  0  0
   69.4769   40.8835   58.1772 C   0  0  0  0  0  0  0  0  0  0  0  0
 15 16  2  0
 16 18  1  0
 16 17  1  0
 18 19  1  0
 19 20  1  0
 19 24  1  0
 20 21  1  0
 21 22  1  0
 22 23  1  0
 23 24  1  0
 17  1  1  0
  1  2  2  0
  2  3  1  0
  2  9  1  0
  3  4  2  0
  3  8  1  0
  4  5  1  0
  5  6  2  0
  6  7  1  0
  7  8  2  0
  9 10  2  0
  9 14  1  0
 10 11  1  0
 11 12  2  0
 12 13  1  0
 13 14  2  0
M  CHG  1  19   1
M  END
>  <minimizedAffinity>  (89) 
-8.99036

$$$$
data/200k_reference_output/data/smiles/80719.pdb
     RDKit          3D

 23 25  0  0  0  0  0  0  0  0999 V2000
   68.3328   44.5388   55.8517 N   0  0  0  0  0  0  0  0  0  0  0  0
   67.9195   45.0370   54.7675 C   0  0  0  0  0  0  0  0  0  0  0  0
   68.4465   46.2497   54.1358 C   0  0  0  0  0  0  0  0  0  0  0  0
   68.4830   47.4550   54.8066 C   0  0  0  0  0  0  0  0  0  0  0  0
   68.9702   48.6131   54.2458 C   0  0  0  0  0  0  0  0  0  0  0  0
   69.4556   48.6165   52.9510 C   0  0  0  0  0  0  0  0  0  0  0  0
   69.4283   47.4265   52.2621 C   0  0  0  0  0  0  0  0  0  0  0  0
   68.9313   46.2568   52.8445 C   0  0  0  0  0  0  0  0  0  0  0  0
   69.9484   47.7115   51.0556 N   0  0  0  0  0  0  0  0  0  0  0  0
   70.2651   48.9661   51.0109 O   0  0  0  0  0  0  0  0  0  0  0  0
   69.9821   49.5398   52.1351 N   0  0  0  0  0  0  0  0  0  0  0  0
   70.1562   50.8557   52.5103 O   0  0  0  0  0  0  0  0  0  0  0  0
   68.6154   42.4735   57.1882 C   0  0  0  0  0  0  0  0  0  0  0  0
   69.8475   42.7288   57.2804 O   0  0  0  0  0  0  0  0  0  0  0  0
   67.8403   43.3864   56.4646 N   0  0  0  0  0  0  0  0  0  0  0  0
   67.0814   38.9556   59.0995 C   0  0  0  0  0  0  0  0  0  0  0  0
   68.0881   38.8688   58.1586 C   0  0  0  0  0  0  0  0  0  0  0  0
   68.5809   40.0062   57.5444 C   0  0  0  0  0  0  0  0  0  0  0  0
   68.1027   41.2663   57.8315 C   0  0  0  0  0  0  0  0  0  0  0  0
   67.0968   41.3461   58.7721 C   0  0  0  0  0  0  0  0  0  0  0  0
   66.5996   40.2159   59.3901 C   0  0  0  0  0  0  0  0  0  0  0  0
   65.1914   37.9621   60.3783 C   0  0  0  0  0  0  0  0  0  0  0  0
   66.5417   37.7350   59.7702 C   0  0  0  0  0  0  0  0  0  0  0  0
 22 23  1  0
 23 16  1  0
 16 17  2  0
 16 21  1  0
 17 18  1  0
 18 19  2  0
 19 13  1  0
 19 20  1  0
 13 14  2  0
 13 15  1  0
 15  1  1  0
  1  2  2  0
  2  3  1  0
  3  4  1  0
  3  8  2  0
  4  5  2  0
  5  6  1  0
  6  7  1  0
  6 11  2  0
  7  8  1  0
  7  9  2  0
  9 10  1  0
 10 11  1  0
 11 12  1  0
 20 21  2  0
M  CHG  2  11   1  12  -1
M  END
>  <minimizedAffinity>  (90) 
-8.98629

$$$$
data/reference_output_2/data/smiles/191118.pdb
     RDKit          3D

 25 28  0  0  0  0  0  0  0  0999 V2000
   71.0707   46.4806   58.4637 C   0  0  0  0  0  0  0  0  0  0  0  0
   71.5779   45.0957   58.1828 C   0  0  0  0  0  0  0  0  0  0  0  0
   72.9034   44.7957   57.9855 C   0  0  0  0  0  0  0  0  0  0  0  0
   73.3037   43.5082   57.7222 C   0  0  0  0  0  0  0  0  0  0  0  0
   72.3797   42.4669   57.6462 C   0  0  0  0  0  0  0  0  0  0  0  0
   71.0580   42.7947   57.8468 C   0  0  0  0  0  0  0  0  0  0  0  0
   70.6448   44.0826   58.1130 C   0  0  0  0  0  0  0  0  0  0  0  0
   70.0386   41.7273   57.7622 C   0  0  0  0  0  0  0  0  0  0  0  0
   68.8594   41.8901   57.0808 C   0  0  0  0  0  0  0  0  0  0  0  0
   67.9055   40.9081   56.9851 C   0  0  0  0  0  0  0  0  0  0  0  0
   68.1376   39.7036   57.5953 C   0  0  0  0  0  0  0  0  0  0  0  0
   69.3260   39.4980   58.2986 C   0  0  0  0  0  0  0  0  0  0  0  0
   70.2642   40.5015   58.3793 C   0  0  0  0  0  0  0  0  0  0  0  0
   69.6796   46.5942   58.0824 N   0  0  0  0  0  0  0  0  0  0  0  0
   67.5410   44.1271   54.8269 O   0  0  0  0  0  0  0  0  0  0  0  0
   68.1581   45.1947   55.1414 C   0  0  0  0  0  0  0  0  0  0  0  0
   68.6119   45.3829   56.3843 N   0  0  0  0  0  0  0  0  0  0  0  0
   69.2644   46.5041   56.7249 C   0  0  0  0  0  0  0  0  0  0  0  0
   69.4697   47.4570   55.8018 N   0  0  0  0  0  0  0  0  0  0  0  0
   69.0505   47.3529   54.5357 C   0  0  0  0  0  0  0  0  0  0  0  0
   68.3787   46.1953   54.1930 C   0  0  0  0  0  0  0  0  0  0  0  0
   67.9050   46.0551   52.8053 C   0  0  0  0  0  0  0  0  0  0  0  0
   68.7325   46.7857   51.8009 C   0  0  0  0  0  0  0  0  0  0  0  0
   69.7496   47.6522   52.3375 N   0  0  0  0  0  0  0  0  0  0  0  0
   69.2419   48.3741   53.4855 C   0  0  0  0  0  0  0  0  0  0  0  0
 15 16  2  0
 16 17  1  0
 16 21  1  0
 17 18  1  0
 18 14  1  0
 18 19  2  0
 14  1  1  0
  1  2  1  0
  2  3  2  0
  2  7  1  0
  3  4  1  0
  4  5  2  0
  5  6  1  0
  6  8  1  0
  6  7  2  0
  8  9  2  0
  8 13  1  0
  9 10  1  0
 10 11  2  0
 11 12  1  0
 12 13  2  0
 19 20  1  0
 20 21  2  0
 20 25  1  0
 21 22  1  0
 22 23  1  0
 23 24  1  0
 24 25  1  0
M  CHG  1  24   1
M  END
>  <minimizedAffinity>  (91) 
-8.98416

$$$$
data/reference_output_2/data/smiles/138071.pdb
     RDKit          3D

 25 28  0  0  0  0  0  0  0  0999 V2000
   68.2463   43.6436   56.0845 C   0  0  0  0  0  0  0  0  0  0  0  0
   69.1359   43.0838   56.9658 C   0  0  0  0  0  0  0  0  0  0  0  0
   68.7323   41.8789   57.4072 N   0  0  0  0  0  0  0  0  0  0  0  0
   67.5299   41.6757   56.7719 C   0  0  0  0  0  0  0  0  0  0  0  0
   67.2513   42.7240   55.9921 N   0  0  0  0  0  0  0  0  0  0  0  0
   68.0404   46.1926   53.3335 C   0  0  0  0  0  0  0  0  0  0  0  0
   68.3063   47.3556   54.0171 C   0  0  0  0  0  0  0  0  0  0  0  0
   68.5475   47.2696   55.3655 C   0  0  0  0  0  0  0  0  0  0  0  0
   68.5254   46.0818   56.0104 N   0  0  0  0  0  0  0  0  0  0  0  0
   68.2663   44.9098   55.3724 C   0  0  0  0  0  0  0  0  0  0  0  0
   68.0262   44.9998   54.0206 C   0  0  0  0  0  0  0  0  0  0  0  0
   66.8501   45.6357   51.3554 O   0  0  0  0  0  0  0  0  0  0  0  0
   67.7833   46.2769   51.9036 C   0  0  0  0  0  0  0  0  0  0  0  0
   68.5666   47.0722   51.0921 O   0  0  0  0  0  0  0  0  0  0  0  0
   69.3440   40.9845   58.3600 C   0  0  0  0  0  0  0  0  0  0  0  0
   68.5564   39.7863   58.7643 C   0  0  0  0  0  0  0  0  0  0  0  0
   69.2936   38.5597   58.5276 N   0  0  0  0  0  0  0  0  0  0  0  0
   69.5578   37.9043   59.8570 C   0  0  0  0  0  0  0  0  0  0  0  0
   70.6064   36.9407   59.3843 C   0  0  0  0  0  0  0  0  0  0  0  0
   70.9586   35.6533   59.7171 C   0  0  0  0  0  0  0  0  0  0  0  0
   72.0192   35.0304   59.0445 C   0  0  0  0  0  0  0  0  0  0  0  0
   72.7326   35.6670   58.0480 C   0  0  0  0  0  0  0  0  0  0  0  0
   72.3776   36.9695   57.7120 C   0  0  0  0  0  0  0  0  0  0  0  0
   71.3343   37.5608   58.3843 C   0  0  0  0  0  0  0  0  0  0  0  0
   70.7230   38.9050   58.2756 C   0  0  0  0  0  0  0  0  0  0  0  0
 12 13  2  0
 13 14  1  0
 13  6  1  0
  6  7  2  0
  6 11  1  0
  7  8  1  0
  8  9  2  0
  9 10  1  0
 10  1  1  0
 10 11  2  0
  1  2  2  0
  1  5  1  0
  2  3  1  0
  3 15  1  0
  3  4  1  0
 15 16  1  0
 16 17  1  0
 17 18  1  0
 17 25  1  0
 18 19  1  0
 19 20  1  0
 19 24  2  0
 20 21  2  0
 21 22  1  0
 22 23  2  0
 23 24  1  0
 24 25  1  0
  4  5  2  0
M  CHG  1  17   1
M  END
>  <minimizedAffinity>  (92) 
-8.98343

$$$$
data/200k_reference_output/data/smiles/35251.pdb
     RDKit          3D

 23 25  0  0  0  0  0  0  0  0999 V2000
   69.8773   47.5727   57.5120 C   0  0  0  0  0  0  0  0  0  0  0  0
   69.3055   47.1009   56.1958 C   0  0  0  0  0  0  0  0  0  0  0  0
   68.8480   45.8005   56.0904 C   0  0  0  0  0  0  0  0  0  0  0  0
   68.3368   45.4359   54.8622 C   0  0  0  0  0  0  0  0  0  0  0  0
   68.2836   46.3130   53.7980 C   0  0  0  0  0  0  0  0  0  0  0  0
   68.7390   47.5704   53.9349 C   0  0  0  0  0  0  0  0  0  0  0  0
   69.2642   47.9878   55.1587 C   0  0  0  0  0  0  0  0  0  0  0  0
   67.6517   45.8382   52.5736 C   0  0  0  0  0  0  0  0  0  0  0  0
   66.9982   44.6348   52.4654 N   0  0  0  0  0  0  0  0  0  0  0  0
   66.5069   44.4902   51.2766 N   0  0  0  0  0  0  0  0  0  0  0  0
   66.8204   45.5637   50.6028 N   0  0  0  0  0  0  0  0  0  0  0  0
   67.5207   46.4049   51.3756 N   0  0  0  0  0  0  0  0  0  0  0  0
   68.7906   48.5197   52.8654 N   0  0  0  0  0  0  0  0  0  0  0  0
   69.9709   49.7160   52.6744 S   0  0  0  0  0  0  0  0  0  0  0  0
   69.8722   50.3416   51.3222 O   0  0  0  0  0  0  0  0  0  0  0  0
   71.3356   49.0604   52.7676 O   0  0  0  0  0  0  0  0  0  0  0  0
   69.8779   50.9854   53.8605 C   0  0  0  0  0  0  0  0  0  0  0  0
   70.9486   51.5798   54.4481 C   0  0  0  0  0  0  0  0  0  0  0  0
   70.8064   52.5798   55.3797 C   0  0  0  0  0  0  0  0  0  0  0  0
   69.5614   53.0209   55.7569 C   0  0  0  0  0  0  0  0  0  0  0  0
   69.3771   54.0079   56.6752 F   0  0  0  0  0  0  0  0  0  0  0  0
   68.4601   52.4181   55.1611 C   0  0  0  0  0  0  0  0  0  0  0  0
   68.6164   51.4119   54.2243 C   0  0  0  0  0  0  0  0  0  0  0  0
  1  2  1  0
  2  3  2  0
  2  7  1  0
  3  4  1  0
  4  5  2  0
  5  8  1  0
  5  6  1  0
  8  9  2  0
  8 12  1  0
  9 10  1  0
 10 11  2  0
 11 12  1  0
  6 13  1  0
  6  7  2  0
 13 14  1  0
 14 15  2  0
 14 16  2  0
 14 17  1  0
 17 18  2  0
 17 23  1  0
 18 19  1  0
 19 20  2  0
 20 21  1  0
 20 22  1  0
 22 23  2  0
M  END
>  <minimizedAffinity>  (93) 
-8.98193

$$$$
data/200k_reference_output/data/smiles/59154.pdb
     RDKit          3D

 21 23  0  0  0  0  0  0  0  0999 V2000
   68.1782   46.0560   56.0980 N   0  0  0  0  0  0  0  0  0  0  0  0
   68.9626   45.0091   56.6419 C   0  0  0  0  0  0  0  0  0  0  0  0
   68.6797   43.7622   56.5073 N   0  0  0  0  0  0  0  0  0  0  0  0
   69.4362   42.7270   57.0046 C   0  0  0  0  0  0  0  0  0  0  0  0
   70.5522   43.1452   57.6736 C   0  0  0  0  0  0  0  0  0  0  0  0
   70.9045   44.4937   57.8504 C   0  0  0  0  0  0  0  0  0  0  0  0
   70.0962   45.4312   57.3252 N   0  0  0  0  0  0  0  0  0  0  0  0
   72.1332   44.7643   58.6402 C   0  0  0  0  0  0  0  0  0  0  0  0
   73.2706   43.9989   57.9628 C   0  0  0  0  0  0  0  0  0  0  0  0
   72.8727   42.5920   57.6022 C   0  0  0  0  0  0  0  0  0  0  0  0
   71.5306   42.1845   58.2433 C   0  0  0  0  0  0  0  0  0  0  0  0
   69.1372   47.7966   52.9591 C   0  0  0  0  0  0  0  0  0  0  0  0
   68.6522   46.9333   52.0094 C   0  0  0  0  0  0  0  0  0  0  0  0
   68.0025   45.7968   52.3999 C   0  0  0  0  0  0  0  0  0  0  0  0
   67.8392   45.5199   53.7614 C   0  0  0  0  0  0  0  0  0  0  0  0
   68.3211   46.3731   54.7319 C   0  0  0  0  0  0  0  0  0  0  0  0
   68.9633   47.5026   54.2996 C   0  0  0  0  0  0  0  0  0  0  0  0
   69.3387   50.6185   53.2081 N   0  0  0  0  0  0  0  0  0  0  0  0
   70.0038   49.2317   52.4576 S   0  0  0  0  0  0  0  0  0  0  0  0
   71.4547   49.1070   52.9201 O   0  0  0  0  0  0  0  0  0  0  0  0
   70.0142   49.3885   50.9763 O   0  0  0  0  0  0  0  0  0  0  0  0
 18 19  1  0
 19 20  2  0
 19 21  2  0
 19 12  1  0
 12 13  2  0
 12 17  1  0
 13 14  1  0
 14 15  2  0
 15 16  1  0
 16  1  1  0
 16 17  2  0
  1  2  1  0
  2  3  2  0
  2  7  1  0
  3  4  1  0
  4  5  2  0
  5  6  1  0
  5 11  1  0
  6  7  2  0
  6  8  1  0
  8  9  1  0
  9 10  1  0
 10 11  1  0
M  END
>  <minimizedAffinity>  (94) 
-8.98071

$$$$
data/reference_output_2/data/smiles/184681.pdb
     RDKit          3D

 26 29  0  0  0  0  0  0  0  0999 V2000
   73.2053   53.9708   57.8947 C   0  0  0  0  0  0  0  0  0  0  0  0
   72.3605   53.2438   56.9656 N   0  0  0  0  0  0  0  0  0  0  0  0
   71.0498   53.3020   56.7865 C   0  0  0  0  0  0  0  0  0  0  0  0
   70.6516   52.4482   55.8084 N   0  0  0  0  0  0  0  0  0  0  0  0
   71.7507   51.8429   55.3665 C   0  0  0  0  0  0  0  0  0  0  0  0
   71.9259   50.9031   54.3710 C   0  0  0  0  0  0  0  0  0  0  0  0
   73.2242   50.4953   54.1479 N   0  0  0  0  0  0  0  0  0  0  0  0
   74.2463   50.9772   54.8499 C   0  0  0  0  0  0  0  0  0  0  0  0
   74.0706   51.8895   55.8138 N   0  0  0  0  0  0  0  0  0  0  0  0
   72.8567   52.3297   56.0854 C   0  0  0  0  0  0  0  0  0  0  0  0
   69.2924   52.2900   55.4558 C   0  0  0  0  0  0  0  0  0  0  0  0
   68.5893   51.2887   56.2952 C   0  0  0  0  0  0  0  0  0  0  0  0
   67.3334   51.5510   56.8621 C   0  0  0  0  0  0  0  0  0  0  0  0
   66.6984   50.6245   57.6662 C   0  0  0  0  0  0  0  0  0  0  0  0
   67.2987   49.4037   57.9302 C   0  0  0  0  0  0  0  0  0  0  0  0
   68.5132   49.1310   57.3928 C   0  0  0  0  0  0  0  0  0  0  0  0
   69.1305   50.0789   56.5889 C   0  0  0  0  0  0  0  0  0  0  0  0
   70.9002   50.3307   53.5918 N   0  0  0  0  0  0  0  0  0  0  0  0
   71.2079   49.2236   52.8839 O   0  0  0  0  0  0  0  0  0  0  0  0
   70.2522   48.7330   52.0572 C   0  0  0  0  0  0  0  0  0  0  0  0
   69.3449   47.7149   52.6186 C   0  0  0  0  0  0  0  0  0  0  0  0
   68.7050   46.8300   51.7820 C   0  0  0  0  0  0  0  0  0  0  0  0
   67.8781   45.8888   52.3463 C   0  0  0  0  0  0  0  0  0  0  0  0
   67.6577   45.7875   53.7013 C   0  0  0  0  0  0  0  0  0  0  0  0
   68.3266   46.7023   54.4931 C   0  0  0  0  0  0  0  0  0  0  0  0
   69.1637   47.6610   53.9758 C   0  0  0  0  0  0  0  0  0  0  0  0
  1  2  1  0
  2  3  1  0
  2 10  1  0
  3  4  2  0
  4 11  1  0
  4  5  1  0
 11 12  1  0
 12 13  2  0
 12 17  1  0
 13 14  1  0
 14 15  2  0
 15 16  1  0
 16 17  2  0
  5  6  1  0
  5 10  2  0
  6 18  1  0
  6  7  2  0
 18 19  1  0
 19 20  1  0
 20 21  1  0
 21 22  2  0
 21 26  1  0
 22 23  1  0
 23 24  2  0
 24 25  1  0
 25 26  2  0
  7  8  1  0
  8  9  2  0
  9 10  1  0
M  CHG  1   4   1
M  END
>  <minimizedAffinity>  (95) 
-8.97998

$$$$
data/reference_output_2/data/smiles/138829.pdb
     RDKit          3D

 23 24  0  0  0  0  0  0  0  0999 V2000
   70.9927   46.4245   58.4932 C   0  0  0  0  0  0  0  0  0  0  0  0
   69.9718   46.8900   57.6617 C   0  0  0  0  0  0  0  0  0  0  0  0
   69.2100   46.0259   56.9085 C   0  0  0  0  0  0  0  0  0  0  0  0
   69.4387   44.7020   56.9622 N   0  0  0  0  0  0  0  0  0  0  0  0
   70.4217   44.1818   57.7548 C   0  0  0  0  0  0  0  0  0  0  0  0
   71.1842   45.0600   58.5100 C   0  0  0  0  0  0  0  0  0  0  0  0
   70.6232   42.7147   57.7699 C   0  0  0  0  0  0  0  0  0  0  0  0
   70.5045   42.2673   59.0860 F   0  0  0  0  0  0  0  0  0  0  0  0
   71.8454   42.3258   57.3053 F   0  0  0  0  0  0  0  0  0  0  0  0
   69.5946   42.1526   57.0384 F   0  0  0  0  0  0  0  0  0  0  0  0
   71.6901   47.0003   60.7115 N   0  0  0  0  0  0  0  0  0  0  0  0
   71.8323   47.3269   59.3169 C   0  0  0  0  0  0  0  0  0  0  0  0
   68.2023   46.5246   56.0927 O   0  0  0  0  0  0  0  0  0  0  0  0
   68.3833   46.7282   54.7323 C   0  0  0  0  0  0  0  0  0  0  0  0
   67.9852   45.7440   53.8543 C   0  0  0  0  0  0  0  0  0  0  0  0
   68.1417   45.8930   52.4759 C   0  0  0  0  0  0  0  0  0  0  0  0
   68.7150   47.0640   51.9675 C   0  0  0  0  0  0  0  0  0  0  0  0
   69.1167   48.0551   52.8353 C   0  0  0  0  0  0  0  0  0  0  0  0
   68.9437   47.8709   54.2105 C   0  0  0  0  0  0  0  0  0  0  0  0
   69.7163   49.2845   52.3338 C   0  0  0  0  0  0  0  0  0  0  0  0
   70.1229   49.3415   51.1450 O   0  0  0  0  0  0  0  0  0  0  0  0
   69.8661   50.4423   53.1379 N   0  0  0  0  0  0  0  0  0  0  0  0
   70.4341   51.5861   52.6394 O   0  0  0  0  0  0  0  0  0  0  0  0
 11 12  1  0
 12  1  1  0
  1  2  2  0
  1  6  1  0
  2  3  1  0
  3 13  1  0
  3  4  2  0
 13 14  1  0
 14 15  2  0
 14 19  1  0
 15 16  1  0
 16 17  2  0
 17 18  1  0
 18 20  1  0
 18 19  2  0
 20 21  2  0
 20 22  1  0
 22 23  1  0
  4  5  1  0
  5  7  1  0
  5  6  2  0
  7  8  1  0
  7  9  1  0
  7 10  1  0
M  CHG  1  11   1
M  END
>  <minimizedAffinity>  (96) 
-8.97892

$$$$
data/reference_output_2/data/smiles/185647.pdb
     RDKit          3D

 24 26  0  0  0  0  0  0  0  0999 V2000
   69.8275   44.6268   57.3186 O   0  0  0  0  0  0  0  0  0  0  0  0
   70.0059   45.8559   57.5680 C   0  0  0  0  0  0  0  0  0  0  0  0
   71.0051   46.3551   58.4440 N   0  0  0  0  0  0  0  0  0  0  0  0
   70.8433   47.7779   58.4237 C   0  0  0  0  0  0  0  0  0  0  0  0
   71.5458   48.6003   59.0776 O   0  0  0  0  0  0  0  0  0  0  0  0
   69.7414   48.1052   57.5281 C   0  0  0  0  0  0  0  0  0  0  0  0
   69.2460   46.9690   57.0220 C   0  0  0  0  0  0  0  0  0  0  0  0
   69.2229   49.4351   57.1771 C   0  0  0  0  0  0  0  0  0  0  0  0
   67.9900   49.8287   57.6591 C   0  0  0  0  0  0  0  0  0  0  0  0
   67.4429   51.0793   57.3764 C   0  0  0  0  0  0  0  0  0  0  0  0
   68.1636   51.9556   56.5843 C   0  0  0  0  0  0  0  0  0  0  0  0
   69.3994   51.5929   56.0868 C   0  0  0  0  0  0  0  0  0  0  0  0
   69.9080   50.3368   56.3923 C   0  0  0  0  0  0  0  0  0  0  0  0
   71.4624   49.9206   55.7587 Cl  0  0  0  0  0  0  0  0  0  0  0  0
   68.1494   46.8112   56.1037 N   0  0  0  0  0  0  0  0  0  0  0  0
   68.3056   46.7823   54.6999 C   0  0  0  0  0  0  0  0  0  0  0  0
   67.6970   45.8587   53.8944 C   0  0  0  0  0  0  0  0  0  0  0  0
   67.8709   45.8480   52.5149 C   0  0  0  0  0  0  0  0  0  0  0  0
   68.6878   46.8007   51.9341 C   0  0  0  0  0  0  0  0  0  0  0  0
   69.3061   47.7346   52.7304 C   0  0  0  0  0  0  0  0  0  0  0  0
   69.1145   47.7218   54.1016 C   0  0  0  0  0  0  0  0  0  0  0  0
   70.1668   48.7395   52.1428 C   0  0  0  0  0  0  0  0  0  0  0  0
   71.3175   48.9562   52.6455 O   0  0  0  0  0  0  0  0  0  0  0  0
   69.8386   49.5129   51.0427 O   0  0  0  0  0  0  0  0  0  0  0  0
  1  2  2  0
  2  3  1  0
  2  7  1  0
  3  4  1  0
  4  5  2  0
  4  6  1  0
  6  8  1  0
  6  7  2  0
  8  9  2  0
  8 13  1  0
  9 10  1  0
 10 11  2  0
 11 12  1  0
 12 13  2  0
 13 14  1  0
  7 15  1  0
 15 16  1  0
 16 17  2  0
 16 21  1  0
 17 18  1  0
 18 19  2  0
 19 20  1  0
 20 22  1  0
 20 21  2  0
 22 23  2  0
 22 24  1  0
M  END
>  <minimizedAffinity>  (97) 
-8.97808

$$$$
data/200k_reference_output/data/smiles/58653.pdb
     RDKit          3D

 26 29  0  0  0  0  0  0  0  0999 V2000
   70.1316   40.0876   58.2189 C   0  0  0  0  0  0  0  0  0  0  0  0
   68.9027   40.5232   57.8094 C   0  0  0  0  0  0  0  0  0  0  0  0
   68.7261   41.8563   57.4242 C   0  0  0  0  0  0  0  0  0  0  0  0
   69.7548   42.7722   57.4389 C   0  0  0  0  0  0  0  0  0  0  0  0
   70.9868   42.3064   57.8562 C   0  0  0  0  0  0  0  0  0  0  0  0
   71.1727   40.9927   58.2381 C   0  0  0  0  0  0  0  0  0  0  0  0
   72.6939   33.1845   58.9085 C   0  0  0  0  0  0  0  0  0  0  0  0
   71.9195   34.4315   59.1709 C   0  0  0  0  0  0  0  0  0  0  0  0
   71.0696   34.5319   60.2568 C   0  0  0  0  0  0  0  0  0  0  0  0
   70.3675   35.7181   60.4798 C   0  0  0  0  0  0  0  0  0  0  0  0
   70.4892   36.8181   59.6468 C   0  0  0  0  0  0  0  0  0  0  0  0
   71.3285   36.6893   58.5945 N   0  0  0  0  0  0  0  0  0  0  0  0
   72.0194   35.5380   58.3623 C   0  0  0  0  0  0  0  0  0  0  0  0
   71.2883   37.8609   57.9500 C   0  0  0  0  0  0  0  0  0  0  0  0
   70.4075   38.7145   58.6320 C   0  0  0  0  0  0  0  0  0  0  0  0
   69.9422   38.0294   59.6643 N   0  0  0  0  0  0  0  0  0  0  0  0
   68.9800   38.5334   60.6525 C   0  0  0  0  0  0  0  0  0  0  0  0
   69.5660   44.1783   57.0405 C   0  0  0  0  0  0  0  0  0  0  0  0
   68.5555   44.5607   56.3664 N   0  0  0  0  0  0  0  0  0  0  0  0
   68.2821   45.8632   55.9395 N   0  0  0  0  0  0  0  0  0  0  0  0
   68.2830   46.0359   54.5115 C   0  0  0  0  0  0  0  0  0  0  0  0
   68.9284   47.0355   53.7978 C   0  0  0  0  0  0  0  0  0  0  0  0
   68.7083   46.8786   52.4521 C   0  0  0  0  0  0  0  0  0  0  0  0
   69.1630   47.6790   51.3727 N   0  0  0  0  0  0  0  0  0  0  0  0
   67.9349   45.7886   52.3549 N   0  0  0  0  0  0  0  0  0  0  0  0
   67.6789   45.2846   53.5715 N   0  0  0  0  0  0  0  0  0  0  0  0
  7  8  1  0
  8  9  1  0
  8 13  2  0
  9 10  2  0
 10 11  1  0
 11 12  1  0
 11 16  2  0
 12 13  1  0
 12 14  1  0
 14 15  2  0
 15  1  1  0
 15 16  1  0
  1  2  2  0
  1  6  1  0
  2  3  1  0
  3  4  2  0
  4 18  1  0
  4  5  1  0
 18 19  2  0
 19 20  1  0
 20 21  1  0
 21 22  1  0
 21 26  2  0
 22 23  2  0
 23 24  1  0
 23 25  1  0
 25 26  1  0
  5  6  2  0
 16 17  1  0
M  CHG  1  16   1
M  END
>  <minimizedAffinity>  (98) 
-8.97757

$$$$
data/reference_output_2/data/smiles/118684.pdb
     RDKit          3D

 24 26  0  0  0  0  0  0  0  0999 V2000
   68.7182   40.7643   57.4771 N   0  0  0  0  0  0  0  0  0  0  0  0
   67.7457   41.3207   56.7136 C   0  0  0  0  0  0  0  0  0  0  0  0
   68.1456   42.5985   56.3345 C   0  0  0  0  0  0  0  0  0  0  0  0
   67.5194   43.4636   55.6097 N   0  0  0  0  0  0  0  0  0  0  0  0
   69.3211   42.7537   56.8772 O   0  0  0  0  0  0  0  0  0  0  0  0
   69.6633   41.6878   57.5453 N   0  0  0  0  0  0  0  0  0  0  0  0
   68.0796   44.7492   55.3107 C   0  0  0  0  0  0  0  0  0  0  0  0
   68.5665   45.4136   56.2423 O   0  0  0  0  0  0  0  0  0  0  0  0
   68.1025   45.2922   54.0146 N   0  0  0  0  0  0  0  0  0  0  0  0
   68.6187   46.5336   53.5933 C   0  0  0  0  0  0  0  0  0  0  0  0
   68.7274   47.6691   54.3418 C   0  0  0  0  0  0  0  0  0  0  0  0
   69.2613   48.8623   53.8180 C   0  0  0  0  0  0  0  0  0  0  0  0
   69.7030   48.9443   52.5207 C   0  0  0  0  0  0  0  0  0  0  0  0
   69.5983   47.8065   51.7553 C   0  0  0  0  0  0  0  0  0  0  0  0
   69.0758   46.6466   52.2738 C   0  0  0  0  0  0  0  0  0  0  0  0
   67.5098   39.3038   58.9501 C   0  0  0  0  0  0  0  0  0  0  0  0
   68.7527   39.4542   58.0978 C   0  0  2  0  0  0  0  0  0  0  0  0
   69.9556   39.3319   59.0334 C   0  0  0  0  0  0  0  0  0  0  0  0
   70.6833   38.0804   58.8369 C   0  0  0  0  0  0  0  0  0  0  0  0
   70.4154   36.9749   59.6104 C   0  0  0  0  0  0  0  0  0  0  0  0
   71.0868   35.7759   59.4504 C   0  0  0  0  0  0  0  0  0  0  0  0
   72.0632   35.6623   58.4853 C   0  0  0  0  0  0  0  0  0  0  0  0
   72.3506   36.7557   57.6958 C   0  0  0  0  0  0  0  0  0  0  0  0
   71.6594   37.9591   57.8754 C   0  0  0  0  0  0  0  0  0  0  0  0
 17 16  1  1
 17 18  1  0
 17  1  1  0
 18 19  1  0
 19 20  2  0
 19 24  1  0
 20 21  1  0
 21 22  2  0
 22 23  1  0
 23 24  2  0
  1  2  1  0
  1  6  2  0
  2  3  1  0
  3  4  2  0
  3  5  1  0
  4  7  1  0
  7  8  2  0
  7  9  1  0
  9 10  1  0
 10 11  2  0
 10 15  1  0
 11 12  1  0
 12 13  2  0
 13 14  1  0
 14 15  2  0
  5  6  1  0
M  CHG  2   1   1   2  -1
M  END
>  <minimizedAffinity>  (99) 
-8.97537

$$$$
data/reference_output_2/data/smiles/166752.pdb
     RDKit          3D

 26 29  0  0  0  0  0  0  0  0999 V2000
   71.3125   46.9855   58.8739 C   0  0  0  0  0  0  0  0  0  0  0  0
   71.3551   45.6110   58.6675 C   0  0  0  0  0  0  0  0  0  0  0  0
   70.5412   45.1213   57.6900 C   0  0  0  0  0  0  0  0  0  0  0  0
   69.7198   45.9288   56.9418 C   0  0  0  0  0  0  0  0  0  0  0  0
   69.6574   47.2918   57.1214 C   0  0  0  0  0  0  0  0  0  0  0  0
   70.4922   47.7960   58.1264 C   0  0  0  0  0  0  0  0  0  0  0  0
   71.8777   47.3806   61.1135 O   0  0  0  0  0  0  0  0  0  0  0  0
   72.1752   47.5160   59.9282 C   0  0  0  0  0  0  0  0  0  0  0  0
   73.3536   48.1845   59.5340 N   0  0  0  0  0  0  0  0  0  0  0  0
   74.2786   48.7677   60.5208 C   0  0  0  0  0  0  0  0  0  0  0  0
   74.5104   50.2258   60.2109 C   0  0  0  0  0  0  0  0  0  0  0  0
   73.9294   50.6740   58.9890 N   0  0  0  0  0  0  0  0  0  0  0  0
   74.0789   49.8054   57.8595 C   0  0  0  0  0  0  0  0  0  0  0  0
   73.7809   48.3662   58.1613 C   0  0  0  0  0  0  0  0  0  0  0  0
   68.7950   48.1919   56.3238 C   0  0  0  0  0  0  0  0  0  0  0  0
   69.2523   48.3005   54.9340 C   0  0  0  0  0  0  0  0  0  0  0  0
   70.2226   49.2079   54.5997 N   0  0  0  0  0  0  0  0  0  0  0  0
   70.7171   49.3359   53.3896 N   0  0  0  0  0  0  0  0  0  0  0  0
   70.2847   48.5637   52.3934 C   0  0  0  0  0  0  0  0  0  0  0  0
   70.7651   48.6834   51.2088 O   0  0  0  0  0  0  0  0  0  0  0  0
   69.3183   47.6287   52.6194 C   0  0  0  0  0  0  0  0  0  0  0  0
   68.8634   46.8361   51.5839 C   0  0  0  0  0  0  0  0  0  0  0  0
   67.8791   45.9055   51.8278 C   0  0  0  0  0  0  0  0  0  0  0  0
   67.3561   45.7718   53.0943 C   0  0  0  0  0  0  0  0  0  0  0  0
   67.8131   46.5655   54.1261 C   0  0  0  0  0  0  0  0  0  0  0  0
   68.7973   47.5025   53.9193 C   0  0  0  0  0  0  0  0  0  0  0  0
  7  8  2  0
  8  1  1  0
  8  9  1  0
  1  2  2  0
  1  6  1  0
  2  3  1  0
  3  4  2  0
  4  5  1  0
  5 15  1  0
  5  6  2  0
 15 16  1  0
 16 17  2  0
 16 26  1  0
 17 18  1  0
 18 19  1  0
 19 20  2  0
 19 21  1  0
 21 22  1  0
 21 26  2  0
 22 23  2  0
 23 24  1  0
 24 25  2  0
 25 26  1  0
  9 10  1  0
  9 14  1  0
 10 11  1  0
 11 12  1  0
 12 13  1  0
 13 14  1  0
M  CHG  1  12   1
M  END
>  <minimizedAffinity>  (100) 
-8.97450

$$$$
data/200k_reference_output/data/smiles/69258.pdb
     RDKit          3D

 24 27  0  0  0  0  0  0  0  0999 V2000
   68.1540   45.8032   55.0435 C   0  0  0  0  0  0  0  0  0  0  0  0
   68.2298   46.4859   56.1981 N   0  0  0  0  0  0  0  0  0  0  0  0
   68.6465   47.7814   56.2078 C   0  0  0  0  0  0  0  0  0  0  0  0
   68.7149   48.4739   57.4123 C   0  0  0  0  0  0  0  0  0  0  0  0
   69.1384   49.7899   57.4018 C   0  0  0  0  0  0  0  0  0  0  0  0
   69.1998   50.4513   58.5777 F   0  0  0  0  0  0  0  0  0  0  0  0
   69.4999   50.4620   56.2575 C   0  0  0  0  0  0  0  0  0  0  0  0
   69.4307   49.7736   55.0647 C   0  0  0  0  0  0  0  0  0  0  0  0
   69.0052   48.4475   55.0663 C   0  0  0  0  0  0  0  0  0  0  0  0
   68.9287   47.7534   53.8954 N   0  0  0  0  0  0  0  0  0  0  0  0
   69.2225   48.1665   52.6505 C   0  0  0  0  0  0  0  0  0  0  0  0
   68.9852   47.0987   51.8146 C   0  0  0  0  0  0  0  0  0  0  0  0
   68.5429   46.0306   52.5738 C   0  0  0  0  0  0  0  0  0  0  0  0
   68.5165   46.4766   53.8902 C   0  0  0  0  0  0  0  0  0  0  0  0
   67.7412   44.4475   54.9669 N   0  0  0  0  0  0  0  0  0  0  0  0
   66.4008   42.0681   55.1357 O   0  0  0  0  0  0  0  0  0  0  0  0
   67.1961   42.3109   56.0797 C   0  0  0  0  0  0  0  0  0  0  0  0
   67.8975   43.5399   56.0166 N   0  0  0  0  0  0  0  0  0  0  0  0
   67.3489   41.3443   57.1567 C   0  0  0  0  0  0  0  0  0  0  0  0
   68.1143   40.2196   57.0357 C   0  0  0  0  0  0  0  0  0  0  0  0
   68.2538   39.3022   58.0742 C   0  0  0  0  0  0  0  0  0  0  0  0
   67.5969   39.5419   59.2587 C   0  0  0  0  0  0  0  0  0  0  0  0
   66.8295   40.6800   59.3661 C   0  0  0  0  0  0  0  0  0  0  0  0
   66.7175   41.5582   58.3222 N   0  0  0  0  0  0  0  0  0  0  0  0
 16 17  2  0
 17 18  1  0
 17 19  1  0
 18 15  1  0
 15  1  1  0
  1  2  2  0
  1 14  1  0
  2  3  1  0
  3  4  2  0
  3  9  1  0
  4  5  1  0
  5  6  1  0
  5  7  2  0
  7  8  1  0
  8  9  2  0
  9 10  1  0
 10 11  1  0
 10 14  1  0
 11 12  2  0
 12 13  1  0
 13 14  2  0
 19 20  2  0
 19 24  1  0
 20 21  1  0
 21 22  2  0
 22 23  1  0
 23 24  2  0
M  END
>  <minimizedAffinity>  (101) 
-8.97386

$$$$
data/200k_reference_output/data/smiles/57712.pdb
     RDKit          3D

 25 29  0  0  0  0  0  0  0  0999 V2000
   69.7169   43.3505   57.3168 C   0  0  0  0  0  0  0  0  0  0  0  0
   70.2800   44.5686   57.6277 C   0  0  0  0  0  0  0  0  0  0  0  0
   69.5861   45.5746   57.0429 N   0  0  0  0  0  0  0  0  0  0  0  0
   68.6070   44.9683   56.3798 N   0  0  0  0  0  0  0  0  0  0  0  0
   68.6670   43.6542   56.5284 N   0  0  0  0  0  0  0  0  0  0  0  0
   72.1188   38.0761   59.1102 C   0  0  0  0  0  0  0  0  0  0  0  0
   70.7859   37.6957   58.9363 C   0  0  0  0  0  0  0  0  0  0  0  0
   69.8533   38.5762   58.5293 N   0  0  0  0  0  0  0  0  0  0  0  0
   70.1284   39.8777   58.2620 C   0  0  0  0  0  0  0  0  0  0  0  0
   69.3696   40.9319   57.8473 N   0  0  0  0  0  0  0  0  0  0  0  0
   70.1479   42.0209   57.7345 C   0  0  0  0  0  0  0  0  0  0  0  0
   71.4205   41.6344   58.0874 C   0  0  0  0  0  0  0  0  0  0  0  0
   71.4330   40.2842   58.4251 C   0  0  0  0  0  0  0  0  0  0  0  0
   72.3960   39.3929   58.8402 C   0  0  0  0  0  0  0  0  0  0  0  0
   69.8120   46.9929   57.0882 C   0  0  0  0  0  0  0  0  0  0  0  0
   68.8659   47.8193   56.3105 C   0  0  0  0  0  0  0  0  0  0  0  0
   69.1928   48.0582   54.9074 C   0  0  0  0  0  0  0  0  0  0  0  0
   70.0400   49.0395   54.3697 C   0  0  0  0  0  0  0  0  0  0  0  0
   70.0520   48.9298   53.0449 N   0  0  0  0  0  0  0  0  0  0  0  0
   69.2485   47.9150   52.6597 C   0  0  0  0  0  0  0  0  0  0  0  0
   68.9371   47.4071   51.4412 N   0  0  0  0  0  0  0  0  0  0  0  0
   68.1074   46.3644   51.2762 C   0  0  0  0  0  0  0  0  0  0  0  0
   67.5769   45.8228   52.4292 C   0  0  0  0  0  0  0  0  0  0  0  0
   67.8599   46.3005   53.6882 C   0  0  0  0  0  0  0  0  0  0  0  0
   68.7134   47.3718   53.8251 C   0  0  0  0  0  0  0  0  0  0  0  0
  6  7  2  0
  6 14  1  0
  7  8  1  0
  8  9  2  0
  9 10  1  0
  9 13  1  0
 10 11  1  0
 11  1  1  0
 11 12  2  0
  1  2  2  0
  1  5  1  0
  2  3  1  0
  3 15  1  0
  3  4  1  0
 15 16  1  0
 16 17  1  0
 17 18  2  0
 17 25  1  0
 18 19  1  0
 19 20  1  0
 20 21  1  0
 20 25  2  0
 21 22  2  0
 22 23  1  0
 23 24  2  0
 24 25  1  0
  4  5  2  0
 12 13  1  0
 13 14  2  0
M  END
>  <minimizedAffinity>  (102) 
-8.97218

$$$$
data/200k_reference_output/data/smiles/22857.pdb
     RDKit          3D

 25 27  0  0  0  0  0  0  0  0999 V2000
   68.9265   48.2489   56.3711 C   0  0  0  0  0  0  0  0  0  0  0  0
   68.2455   49.1588   56.9582 O   0  0  0  0  0  0  0  0  0  0  0  0
   69.5749   48.5540   55.1208 C   0  0  0  0  0  0  0  0  0  0  0  0
   70.5827   49.4401   54.8918 C   0  0  0  0  0  0  0  0  0  0  0  0
   70.9097   49.4276   53.5687 N   0  0  0  0  0  0  0  0  0  0  0  0
   70.1064   48.5304   52.9622 C   0  0  0  0  0  0  0  0  0  0  0  0
   69.9966   48.1111   51.6458 C   0  0  0  0  0  0  0  0  0  0  0  0
   69.0775   47.1692   51.3010 C   0  0  0  0  0  0  0  0  0  0  0  0
   68.2160   46.5879   52.2292 C   0  0  0  0  0  0  0  0  0  0  0  0
   68.3276   47.0058   53.5310 C   0  0  0  0  0  0  0  0  0  0  0  0
   69.2629   47.9709   53.9112 C   0  0  0  0  0  0  0  0  0  0  0  0
   67.2672   45.6059   51.8290 N   0  0  0  0  0  0  0  0  0  0  0  0
   66.9353   44.6871   52.5928 O   0  0  0  0  0  0  0  0  0  0  0  0
   66.7237   45.6889   50.5905 O   0  0  0  0  0  0  0  0  0  0  0  0
   69.7634   46.7604   58.2009 N   0  0  0  0  0  0  0  0  0  0  0  0
   69.0272   46.9282   56.9836 C   0  0  0  0  0  0  0  0  0  0  0  0
   68.4821   45.9447   56.4612 O   0  0  0  0  0  0  0  0  0  0  0  0
   69.8834   45.4952   58.8229 N   0  0  0  0  0  0  0  0  0  0  0  0
   74.6730   44.2609   58.3471 C   0  0  0  0  0  0  0  0  0  0  0  0
   73.2304   43.9582   58.2025 C   0  0  0  0  0  0  0  0  0  0  0  0
   72.8678   42.7389   57.6782 C   0  0  0  0  0  0  0  0  0  0  0  0
   71.5183   42.4274   57.5312 C   0  0  0  0  0  0  0  0  0  0  0  0
   70.5610   43.3596   57.9186 C   0  0  0  0  0  0  0  0  0  0  0  0
   70.9055   44.5839   58.4443 C   0  0  0  0  0  0  0  0  0  0  0  0
   72.2437   44.8594   58.5760 C   0  0  0  0  0  0  0  0  0  0  0  0
 19 20  1  0
 20 21  2  0
 20 25  1  0
 21 22  1  0
 22 23  2  0
 23 24  1  0
 24 18  1  0
 24 25  2  0
 18 15  1  0
 15 16  1  0
 16 17  2  0
 16  1  1  0
  1  2  2  0
  1  3  1  0
  3  4  2  0
  3 11  1  0
  4  5  1  0
  5  6  1  0
  6  7  1  0
  6 11  2  0
  7  8  2  0
  8  9  1  0
  9 12  1  0
  9 10  2  0
 12 13  2  0
 12 14  1  0
 10 11  1  0
M  CHG  2  12   1  14  -1
M  END
>  <minimizedAffinity>  (103) 
-8.97162

$$$$
data/reference_output_2/data/smiles/141920.pdb
     RDKit          3D

 24 26  0  0  0  0  0  0  0  0999 V2000
   72.2786   51.0042   54.8749 C   0  0  2  0  0  0  0  0  0  0  0  0
   70.1127   50.8773   53.0573 O   0  0  0  0  0  0  0  0  0  0  0  0
   70.4328   49.7970   53.6066 C   0  0  0  0  0  0  0  0  0  0  0  0
   71.5103   49.8198   54.5194 N   0  0  0  0  0  0  0  0  0  0  0  0
   69.6893   48.5855   53.2818 C   0  0  0  0  0  0  0  0  0  0  0  0
   68.9188   47.9492   54.1860 N   0  0  0  0  0  0  0  0  0  0  0  0
   68.2344   46.8339   53.8816 C   0  0  0  0  0  0  0  0  0  0  0  0
   68.2773   46.2647   52.6182 C   0  0  0  0  0  0  0  0  0  0  0  0
   69.0586   46.8928   51.6714 C   0  0  0  0  0  0  0  0  0  0  0  0
   69.7490   48.0389   52.0179 C   0  0  0  0  0  0  0  0  0  0  0  0
   70.5479   48.6898   51.0657 O   0  0  0  0  0  0  0  0  0  0  0  0
   73.6720   50.9322   54.4785 C   0  0  0  0  0  0  0  0  0  0  0  0
   74.6507   51.5034   54.9684 O   0  0  0  0  0  0  0  0  0  0  0  0
   73.9702   50.0950   53.3763 O   0  0  0  0  0  0  0  0  0  0  0  0
   71.9573   51.4639   56.2622 C   0  0  0  0  0  0  0  0  0  0  0  0
   70.5793   51.8822   56.4774 C   0  0  0  0  0  0  0  0  0  0  0  0
   69.9916   53.1311   56.3329 C   0  0  0  0  0  0  0  0  0  0  0  0
   68.6954   53.0623   56.6688 N   0  0  0  0  0  0  0  0  0  0  0  0
   68.3679   51.7876   57.0447 C   0  0  0  0  0  0  0  0  0  0  0  0
   67.1684   51.2404   57.4511 C   0  0  0  0  0  0  0  0  0  0  0  0
   67.1460   49.8984   57.7489 C   0  0  0  0  0  0  0  0  0  0  0  0
   68.3074   49.1617   57.6309 C   0  0  0  0  0  0  0  0  0  0  0  0
   69.4875   49.7177   57.2272 C   0  0  0  0  0  0  0  0  0  0  0  0
   69.5421   51.0565   56.9232 C   0  0  0  0  0  0  0  0  0  0  0  0
  2  3  2  0
  3  4  1  0
  3  5  1  0
  4  1  1  0
  1 15  1  1
  1 12  1  0
 15 16  1  0
 16 17  2  0
 16 24  1  0
 17 18  1  0
 18 19  1  0
 19 20  1  0
 19 24  2  0
 20 21  2  0
 21 22  1  0
 22 23  2  0
 23 24  1  0
 12 13  2  0
 12 14  1  0
  5  6  2  0
  5 10  1  0
  6  7  1  0
  7  8  2  0
  8  9  1  0
  9 10  2  0
 10 11  1  0
M  END
>  <minimizedAffinity>  (104) 
-8.97000

$$$$
data/200k_reference_output/data/smiles/27190.pdb
     RDKit          3D

 23 25  0  0  0  0  0  0  0  0999 V2000
   68.4689   41.9907   57.3891 C   0  0  0  0  0  0  0  0  0  0  0  0
   67.7091   42.3125   56.2744 C   0  0  0  0  0  0  0  0  0  0  0  0
   67.9986   43.6147   55.8769 C   0  0  0  0  0  0  0  0  0  0  0  0
   68.9200   44.0403   56.7586 N   0  0  0  0  0  0  0  0  0  0  0  0
   69.1945   43.0792   57.6485 N   0  0  0  0  0  0  0  0  0  0  0  0
   70.6953   37.7978   58.6745 N   0  0  0  0  0  0  0  0  0  0  0  0
   69.5464   38.6232   58.7084 C   0  0  0  0  0  0  0  0  0  0  0  0
   68.3861   38.2450   59.3641 C   0  0  0  0  0  0  0  0  0  0  0  0
   67.2669   39.0560   59.3894 C   0  0  0  0  0  0  0  0  0  0  0  0
   67.2918   40.2973   58.7370 C   0  0  0  0  0  0  0  0  0  0  0  0
   68.4334   40.6972   58.0783 C   0  0  0  0  0  0  0  0  0  0  0  0
   69.5245   39.8570   58.0799 C   0  0  0  0  0  0  0  0  0  0  0  0
   67.4982   44.3734   54.7896 N   0  0  0  0  0  0  0  0  0  0  0  0
   68.0766   45.5317   54.2579 C   0  0  0  0  0  0  0  0  0  0  0  0
   68.5387   46.5156   55.1038 C   0  0  0  0  0  0  0  0  0  0  0  0
   69.1238   47.6316   54.5544 C   0  0  0  0  0  0  0  0  0  0  0  0
   69.2480   47.7631   53.1695 C   0  0  0  0  0  0  0  0  0  0  0  0
   68.7797   46.7696   52.3423 C   0  0  0  0  0  0  0  0  0  0  0  0
   68.2012   45.6671   52.8917 C   0  0  0  0  0  0  0  0  0  0  0  0
   70.0053   49.2079   52.5373 S   0  0  0  0  0  0  0  0  0  0  0  0
   69.2588   50.6059   53.2163 N   0  0  0  0  0  0  0  0  0  0  0  0
   69.9866   49.2486   51.0392 O   0  0  0  0  0  0  0  0  0  0  0  0
   71.4579   49.2574   52.9893 O   0  0  0  0  0  0  0  0  0  0  0  0
  6  7  1  0
  7  8  2  0
  7 12  1  0
  8  9  1  0
  9 10  2  0
 10 11  1  0
 11  1  1  0
 11 12  2  0
  1  2  1  0
  1  5  2  0
  2  3  2  0
  3 13  1  0
  3  4  1  0
 13 14  1  0
 14 15  2  0
 14 19  1  0
 15 16  1  0
 16 17  2  0
 17 20  1  0
 17 18  1  0
 20 21  1  0
 20 22  2  0
 20 23  2  0
 18 19  2  0
  4  5  1  0
M  END
>  <minimizedAffinity>  (105) 
-8.96827

$$$$
data/200k_reference_output/data/smiles/43752.pdb
     RDKit          3D

 24 26  0  0  0  0  0  0  0  0999 V2000
   70.4088   49.6573   53.7668 S   0  0  0  0  0  0  0  0  0  0  0  0
   71.7897   49.3656   53.2456 O   0  0  0  0  0  0  0  0  0  0  0  0
   69.9068   50.8469   52.9674 O   0  0  0  0  0  0  0  0  0  0  0  0
   69.4394   48.2544   53.4817 C   0  0  0  0  0  0  0  0  0  0  0  0
   69.1067   47.3937   54.5301 C   0  0  0  0  0  0  0  0  0  0  0  0
   68.3375   46.2807   54.3047 C   0  0  0  0  0  0  0  0  0  0  0  0
   67.8664   45.9696   53.0497 C   0  0  0  0  0  0  0  0  0  0  0  0
   67.1134   44.9695   52.5532 N   0  0  0  0  0  0  0  0  0  0  0  0
   66.9641   45.1765   51.2383 C   0  0  0  0  0  0  0  0  0  0  0  0
   66.3027   44.4104   50.4691 O   0  0  0  0  0  0  0  0  0  0  0  0
   67.6094   46.2717   50.9389 O   0  0  0  0  0  0  0  0  0  0  0  0
   68.1816   46.8022   52.0027 C   0  0  0  0  0  0  0  0  0  0  0  0
   68.9560   47.9258   52.2221 C   0  0  0  0  0  0  0  0  0  0  0  0
   71.7552   50.3305   56.0303 C   0  0  0  0  0  0  0  0  0  0  0  0
   70.4540   50.1094   55.4286 N   0  0  0  0  0  0  0  0  0  0  0  0
   69.2571   50.2352   56.1418 C   0  0  0  0  0  0  0  0  0  0  0  0
   68.7284   49.1179   56.7938 C   0  0  0  0  0  0  0  0  0  0  0  0
   67.5986   49.2306   57.5655 C   0  0  0  0  0  0  0  0  0  0  0  0
   66.9473   50.4297   57.7286 C   0  0  0  0  0  0  0  0  0  0  0  0
   67.4596   51.5324   57.0893 C   0  0  0  0  0  0  0  0  0  0  0  0
   68.6186   51.4337   56.2908 C   0  0  0  0  0  0  0  0  0  0  0  0
   69.0569   52.6197   55.5721 C   0  0  0  0  0  0  0  0  0  0  0  0
   69.9637   53.3240   56.0568 O   0  0  0  0  0  0  0  0  0  0  0  0
   68.5061   53.0080   54.3607 O   0  0  0  0  0  0  0  0  0  0  0  0
 14 15  1  0
 15 16  1  0
 15  1  1  0
 16 17  2  0
 16 21  1  0
 17 18  1  0
 18 19  2  0
 19 20  1  0
 20 21  2  0
 21 22  1  0
 22 23  2  0
 22 24  1  0
  1  2  2  0
  1  3  2  0
  1  4  1  0
  4  5  2  0
  4 13  1  0
  5  6  1  0
  6  7  2  0
  7  8  1  0
  7 12  1  0
  8  9  1  0
  9 10  2  0
  9 11  1  0
 11 12  1  0
 12 13  2  0
M  END
>  <minimizedAffinity>  (106) 
-8.96816

$$$$
data/reference_output_2/data/smiles/125310.pdb
     RDKit          3D

 23 25  0  0  0  0  0  0  0  0999 V2000
   67.9345   43.5138   55.8262 C   0  0  0  0  0  0  0  0  0  0  0  0
   67.6238   42.2361   56.2324 C   0  0  0  0  0  0  0  0  0  0  0  0
   68.3586   41.9042   57.3549 C   0  0  0  0  0  0  0  0  0  0  0  0
   69.1049   42.9936   57.6083 N   0  0  0  0  0  0  0  0  0  0  0  0
   68.8693   43.9412   56.7252 N   0  0  0  0  0  0  0  0  0  0  0  0
   68.3266   40.6368   58.1028 C   0  0  0  0  0  0  0  0  0  0  0  0
   67.1996   40.2432   58.7900 C   0  0  0  0  0  0  0  0  0  0  0  0
   67.1293   39.0658   59.5015 C   0  0  0  0  0  0  0  0  0  0  0  0
   68.2155   38.2503   59.5311 C   0  0  0  0  0  0  0  0  0  0  0  0
   68.1623   37.0736   60.2344 F   0  0  0  0  0  0  0  0  0  0  0  0
   69.3589   38.6217   58.8488 C   0  0  0  0  0  0  0  0  0  0  0  0
   69.4180   39.8109   58.1368 C   0  0  0  0  0  0  0  0  0  0  0  0
   67.4450   44.2637   54.7275 N   0  0  0  0  0  0  0  0  0  0  0  0
   69.2075   47.9048   53.3810 C   0  0  0  0  0  0  0  0  0  0  0  0
   68.7495   46.9481   52.4977 C   0  0  0  0  0  0  0  0  0  0  0  0
   68.1827   45.7692   52.9359 C   0  0  0  0  0  0  0  0  0  0  0  0
   68.0426   45.4820   54.2788 C   0  0  0  0  0  0  0  0  0  0  0  0
   68.4995   46.4367   55.1684 C   0  0  0  0  0  0  0  0  0  0  0  0
   69.0684   47.6196   54.7238 C   0  0  0  0  0  0  0  0  0  0  0  0
   69.8794   49.4809   51.0794 N   0  0  0  0  0  0  0  0  0  0  0  0
   69.9348   49.4011   52.8228 S   0  0  0  0  0  0  0  0  0  0  0  0
   69.2539   50.6004   53.4203 O   0  0  0  0  0  0  0  0  0  0  0  0
   71.3931   49.4910   53.2036 O   0  0  0  0  0  0  0  0  0  0  0  0
 20 21  1  0
 21 22  2  0
 21 23  2  0
 21 14  1  0
 14 15  2  0
 14 19  1  0
 15 16  1  0
 16 17  2  0
 17 13  1  0
 17 18  1  0
 13  1  1  0
  1  2  1  0
  1  5  2  0
  2  3  2  0
  3  6  1  0
  3  4  1  0
  6  7  2  0
  6 12  1  0
  7  8  1  0
  8  9  2  0
  9 10  1  0
  9 11  1  0
 11 12  2  0
  4  5  1  0
 18 19  2  0
M  END
>  <minimizedAffinity>  (107) 
-8.96691

$$$$
data/200k_reference_output/data/smiles/73931.pdb
     RDKit          3D

 23 25  0  0  0  0  0  0  0  0999 V2000
   72.7688   50.5439   54.3169 N   0  0  0  0  0  0  0  0  0  0  0  0
   71.4161   50.5647   54.6994 C   0  0  0  0  0  0  0  0  0  0  0  0
   71.0813   51.2229   55.7378 O   0  0  0  0  0  0  0  0  0  0  0  0
   70.4093   49.8277   53.8945 C   0  0  2  0  0  0  0  0  0  0  0  0
   69.6463   48.8299   54.7337 C   0  0  0  0  0  0  0  0  0  0  0  0
   69.0469   47.7536   53.9042 C   0  0  0  0  0  0  0  0  0  0  0  0
   68.2624   46.8106   54.5145 C   0  0  0  0  0  0  0  0  0  0  0  0
   67.6620   45.7742   53.8331 C   0  0  0  0  0  0  0  0  0  0  0  0
   67.8576   45.6772   52.4688 C   0  0  0  0  0  0  0  0  0  0  0  0
   68.6563   46.6349   51.8334 C   0  0  0  0  0  0  0  0  0  0  0  0
   69.2333   47.6474   52.5521 C   0  0  0  0  0  0  0  0  0  0  0  0
   70.0732   48.6478   51.8664 C   0  0  0  0  0  0  0  0  0  0  0  0
   71.0670   49.1048   52.8293 N   0  0  0  0  0  0  0  0  0  0  0  0
   73.8129   51.2195   55.0407 C   0  0  0  0  0  0  0  0  0  0  0  0
   75.2717   49.5370   54.3748 O   0  0  0  0  0  0  0  0  0  0  0  0
   75.0270   50.4207   55.2675 C   0  0  0  0  0  0  0  0  0  0  0  0
   75.8732   50.6013   56.3862 N   0  0  0  0  0  0  0  0  0  0  0  0
   77.0531   49.7762   56.5348 C   0  0  0  0  0  0  0  0  0  0  0  0
   77.1030   49.0433   57.8347 C   0  0  0  0  0  0  0  0  0  0  0  0
   77.5898   49.8187   58.9975 C   0  0  0  0  0  0  0  0  0  0  0  0
   78.6027   50.8847   58.6461 C   0  0  0  0  0  0  0  0  0  0  0  0
   79.3080   50.3779   57.3807 C   0  0  0  0  0  0  0  0  0  0  0  0
   78.2747   50.6248   56.2722 C   0  0  0  0  0  0  0  0  0  0  0  0
 15 16  2  0
 16 14  1  0
 16 17  1  0
 14  1  1  0
  1  2  1  0
  2  3  2  0
  4  2  1  1
  4  5  1  0
  4 13  1  0
  5  6  1  0
  6  7  2  0
  6 11  1  0
  7  8  1  0
  8  9  2  0
  9 10  1  0
 10 11  2  0
 11 12  1  0
 12 13  1  0
 17 18  1  0
 18 19  1  0
 18 23  1  0
 19 20  1  0
 20 21  1  0
 21 22  1  0
 22 23  1  0
M  CHG  1  13   1
M  END
>  <minimizedAffinity>  (108) 
-8.96492

$$$$
data/reference_output_2/data/smiles/102791.pdb
     RDKit          3D

 25 27  0  0  0  0  0  0  0  0999 V2000
   67.9415   42.3411   56.5005 C   0  0  0  0  0  0  0  0  0  0  0  0
   67.0872   42.0044   55.6403 O   0  0  0  0  0  0  0  0  0  0  0  0
   68.3698   43.6919   56.4591 N   0  0  0  0  0  0  0  0  0  0  0  0
   68.1520   40.0674   57.4368 C   0  0  0  0  0  0  0  0  0  0  0  0
   68.4248   41.3518   57.4541 C   0  0  0  0  0  0  0  0  0  0  0  0
   69.7464   37.1988   60.2115 C   0  0  0  0  0  0  0  0  0  0  0  0
   70.5401   37.8443   59.2834 C   0  0  0  0  0  0  0  0  0  0  0  0
   69.9882   38.7599   58.4098 C   0  0  0  0  0  0  0  0  0  0  0  0
   68.6463   39.0841   58.4025 C   0  0  0  0  0  0  0  0  0  0  0  0
   67.8529   38.4449   59.3235 C   0  0  0  0  0  0  0  0  0  0  0  0
   68.4088   37.5145   60.2131 C   0  0  0  0  0  0  0  0  0  0  0  0
   70.3062   36.2765   61.0929 O   0  0  0  0  0  0  0  0  0  0  0  0
   71.3186   34.3229   60.0265 C   0  0  0  0  0  0  0  0  0  0  0  0
   70.2469   34.8784   60.9298 C   0  0  0  0  0  0  0  0  0  0  0  0
   67.9088   44.6447   55.5459 N   0  0  0  0  0  0  0  0  0  0  0  0
   68.3577   46.0001   55.5086 C   0  0  0  0  0  0  0  0  0  0  0  0
   68.5311   46.6997   56.6551 N   0  0  0  0  0  0  0  0  0  0  0  0
   68.9367   47.9448   56.6425 N   0  0  0  0  0  0  0  0  0  0  0  0
   69.2070   48.6065   55.5060 C   0  0  0  0  0  0  0  0  0  0  0  0
   69.0486   47.9442   54.3238 C   0  0  0  0  0  0  0  0  0  0  0  0
   69.3028   48.5687   53.1357 C   0  0  0  0  0  0  0  0  0  0  0  0
   69.1314   47.8876   51.9508 C   0  0  0  0  0  0  0  0  0  0  0  0
   68.7030   46.5734   51.9368 C   0  0  0  0  0  0  0  0  0  0  0  0
   68.4453   45.9428   53.1514 C   0  0  0  0  0  0  0  0  0  0  0  0
   68.6218   46.6359   54.3246 C   0  0  0  0  0  0  0  0  0  0  0  0
 13 14  1  0
 14 12  1  0
 12  6  1  0
  6  7  2  0
  6 11  1  0
  7  8  1  0
  8  9  2  0
  9  4  1  0
  9 10  1  0
  4  5  2  0
  5  1  1  0
  1  2  2  0
  1  3  1  0
  3 15  1  0
 15 16  1  0
 16 17  2  0
 16 25  1  0
 17 18  1  0
 18 19  2  0
 19 20  1  0
 20 21  1  0
 20 25  2  0
 21 22  2  0
 22 23  1  0
 23 24  2  0
 24 25  1  0
 10 11  2  0
M  END
>  <minimizedAffinity>  (109) 
-8.96403

$$$$
data/reference_output_2/data/smiles/138483.pdb
     RDKit          3D

 26 29  0  0  0  0  0  0  0  0999 V2000
   69.4494   47.4916   56.0423 N   0  0  0  0  0  0  0  0  0  0  0  0
   69.9838   48.4076   55.2708 N   0  0  0  0  0  0  0  0  0  0  0  0
   69.8165   48.4342   53.9104 C   0  0  0  0  0  0  0  0  0  0  0  0
   69.0566   47.4696   53.2962 C   0  0  0  0  0  0  0  0  0  0  0  0
   68.8293   47.4072   51.9577 C   0  0  0  0  0  0  0  0  0  0  0  0
   68.0386   46.3854   51.4105 C   0  0  0  0  0  0  0  0  0  0  0  0
   67.4620   45.4090   52.1906 C   0  0  0  0  0  0  0  0  0  0  0  0
   67.6877   45.4651   53.5499 C   0  0  0  0  0  0  0  0  0  0  0  0
   68.4737   46.4816   54.0911 C   0  0  0  0  0  0  0  0  0  0  0  0
   68.7059   46.5458   55.4555 C   0  0  0  0  0  0  0  0  0  0  0  0
   68.1506   45.6194   56.1325 O   0  0  0  0  0  0  0  0  0  0  0  0
   70.4473   49.4792   53.1801 C   0  0  0  0  0  0  0  0  0  0  0  0
   71.6834   49.7185   53.4233 O   0  0  0  0  0  0  0  0  0  0  0  0
   69.8881   50.2723   52.2342 O   0  0  0  0  0  0  0  0  0  0  0  0
   69.6351   47.4806   57.4827 C   0  0  0  0  0  0  0  0  0  0  0  0
   70.6937   48.8677   59.0155 O   0  0  0  0  0  0  0  0  0  0  0  0
   69.8352   48.8051   58.0685 C   0  0  0  0  0  0  0  0  0  0  0  0
   69.1669   50.0385   57.6880 C   0  0  0  0  0  0  0  0  0  0  0  0
   67.8226   50.2924   57.8210 C   0  0  0  0  0  0  0  0  0  0  0  0
   67.6065   51.5346   57.3730 N   0  0  0  0  0  0  0  0  0  0  0  0
   68.7662   52.0783   56.9618 C   0  0  0  0  0  0  0  0  0  0  0  0
   69.0916   53.3123   56.4245 C   0  0  0  0  0  0  0  0  0  0  0  0
   70.3972   53.5900   56.0918 C   0  0  0  0  0  0  0  0  0  0  0  0
   71.4202   52.6819   56.2698 C   0  0  0  0  0  0  0  0  0  0  0  0
   71.0926   51.4577   56.8040 C   0  0  0  0  0  0  0  0  0  0  0  0
   69.7700   51.1551   57.1493 C   0  0  0  0  0  0  0  0  0  0  0  0
 16 17  2  0
 17 15  1  0
 17 18  1  0
 15  1  1  0
  1  2  1  0
  1 10  1  0
  2  3  2  0
  3 12  1  0
  3  4  1  0
 12 13  2  0
 12 14  1  0
  4  5  2  0
  4  9  1  0
  5  6  1  0
  6  7  2  0
  7  8  1  0
  8  9  2  0
  9 10  1  0
 10 11  2  0
 18 19  2  0
 18 26  1  0
 19 20  1  0
 20 21  1  0
 21 22  1  0
 21 26  2  0
 22 23  2  0
 23 24  1  0
 24 25  2  0
 25 26  1  0
M  END
>  <minimizedAffinity>  (110) 
-8.96318

$$$$
data/reference_output_2/data/smiles/129229.pdb
     RDKit          3D

 25 27  0  0  0  0  0  0  0  0999 V2000
   68.5710   42.0285   56.5227 O   0  0  0  0  0  0  0  0  0  0  0  0
   69.4525   42.5623   57.2188 C   0  0  0  0  0  0  0  0  0  0  0  0
   69.5183   43.9937   57.1539 N   0  0  0  0  0  0  0  0  0  0  0  0
   68.6332   44.7293   56.3459 N   0  0  0  0  0  0  0  0  0  0  0  0
   68.8553   46.0996   56.0612 C   0  0  0  0  0  0  0  0  0  0  0  0
   69.8727   46.6331   56.5583 O   0  0  0  0  0  0  0  0  0  0  0  0
   67.9609   46.9176   55.2229 C   0  0  0  0  0  0  0  0  0  0  0  0
   68.6808   47.3536   54.0064 C   0  0  0  0  0  0  0  0  0  0  0  0
   69.3239   48.5673   54.0127 C   0  0  0  0  0  0  0  0  0  0  0  0
   69.9969   48.9711   52.8709 C   0  0  0  0  0  0  0  0  0  0  0  0
   70.0488   48.2044   51.7241 C   0  0  0  0  0  0  0  0  0  0  0  0
   69.3998   46.9935   51.7363 C   0  0  0  0  0  0  0  0  0  0  0  0
   68.7235   46.5873   52.8831 C   0  0  0  0  0  0  0  0  0  0  0  0
   70.3815   41.7882   58.0658 C   0  0  0  0  0  0  0  0  0  0  0  0
   69.7664   40.8271   58.8467 O   0  0  0  0  0  0  0  0  0  0  0  0
   70.1039   39.4972   58.9845 C   0  0  0  0  0  0  0  0  0  0  0  0
   69.4759   38.7055   59.9407 C   0  0  0  0  0  0  0  0  0  0  0  0
   69.8105   37.3761   60.0787 C   0  0  0  0  0  0  0  0  0  0  0  0
   70.7688   36.7708   59.2887 C   0  0  0  0  0  0  0  0  0  0  0  0
   71.1327   35.4465   59.3949 C   0  0  0  0  0  0  0  0  0  0  0  0
   72.0956   34.8719   58.5886 C   0  0  0  0  0  0  0  0  0  0  0  0
   72.7198   35.6536   57.6408 C   0  0  0  0  0  0  0  0  0  0  0  0
   72.3678   36.9719   57.5248 C   0  0  0  0  0  0  0  0  0  0  0  0
   71.4008   37.5426   58.3360 C   0  0  0  0  0  0  0  0  0  0  0  0
   71.0553   38.8941   58.2016 C   0  0  0  0  0  0  0  0  0  0  0  0
  1  2  2  0
  2 14  1  0
  2  3  1  0
 14 15  1  0
 15 16  1  0
 16 17  2  0
 16 25  1  0
 17 18  1  0
 18 19  2  0
 19 20  1  0
 19 24  1  0
 20 21  2  0
 21 22  1  0
 22 23  2  0
 23 24  1  0
 24 25  2  0
  3  4  1  0
  4  5  1  0
  5  6  2  0
  5  7  1  0
  7  8  1  0
  8  9  2  0
  8 13  1  0
  9 10  1  0
 10 11  2  0
 11 12  1  0
 12 13  2  0
M  END
>  <minimizedAffinity>  (111) 
-8.96304

$$$$
data/200k_reference_output/data/smiles/34491.pdb
     RDKit          3D

 23 25  0  0  0  0  0  0  0  0999 V2000
   68.0136   43.5861   55.8677 C   0  0  0  0  0  0  0  0  0  0  0  0
   67.6813   42.3044   56.2667 C   0  0  0  0  0  0  0  0  0  0  0  0
   68.4045   41.9568   57.3938 C   0  0  0  0  0  0  0  0  0  0  0  0
   69.1597   43.0353   57.6540 N   0  0  0  0  0  0  0  0  0  0  0  0
   68.9394   43.9894   56.7706 N   0  0  0  0  0  0  0  0  0  0  0  0
   68.3334   40.6928   58.1157 C   0  0  0  0  0  0  0  0  0  0  0  0
   67.2133   40.3394   58.8254 C   0  0  0  0  0  0  0  0  0  0  0  0
   67.0834   39.1516   59.5360 C   0  0  0  0  0  0  0  0  0  0  0  0
   68.1490   38.2753   59.5248 C   0  0  0  0  0  0  0  0  0  0  0  0
   69.2849   38.5907   58.8293 C   0  0  0  0  0  0  0  0  0  0  0  0
   70.3419   37.6718   58.8456 O   0  0  0  0  0  0  0  0  0  0  0  0
   69.3800   39.7887   58.1288 C   0  0  0  0  0  0  0  0  0  0  0  0
   67.4963   44.2975   54.7596 N   0  0  0  0  0  0  0  0  0  0  0  0
   69.2141   47.9343   53.3566 C   0  0  0  0  0  0  0  0  0  0  0  0
   69.1248   47.6589   54.7119 C   0  0  0  0  0  0  0  0  0  0  0  0
   68.5607   46.4723   55.1708 C   0  0  0  0  0  0  0  0  0  0  0  0
   68.0674   45.5236   54.3043 C   0  0  0  0  0  0  0  0  0  0  0  0
   68.1554   45.7961   52.9528 C   0  0  0  0  0  0  0  0  0  0  0  0
   68.7199   46.9827   52.4929 C   0  0  0  0  0  0  0  0  0  0  0  0
   69.8311   49.5502   51.0583 N   0  0  0  0  0  0  0  0  0  0  0  0
   69.9348   49.4400   52.8001 S   0  0  0  0  0  0  0  0  0  0  0  0
   71.3789   49.4246   53.1895 O   0  0  0  0  0  0  0  0  0  0  0  0
   69.2046   50.6206   53.3760 O   0  0  0  0  0  0  0  0  0  0  0  0
 20 21  1  0
 21 22  2  0
 21 23  2  0
 21 14  1  0
 14 15  2  0
 14 19  1  0
 15 16  1  0
 16 17  2  0
 17 13  1  0
 17 18  1  0
 13  1  1  0
  1  2  2  0
  1  5  1  0
  2  3  1  0
  3  6  1  0
  3  4  2  0
  6  7  2  0
  6 12  1  0
  7  8  1  0
  8  9  2  0
  9 10  1  0
 10 11  1  0
 10 12  2  0
  4  5  1  0
 18 19  2  0
M  END
>  <minimizedAffinity>  (112) 
-8.96179

$$$$
data/reference_output_2/data/smiles/119731.pdb
     RDKit          3D

 24 27  0  0  0  0  0  0  0  0999 V2000
   71.0946   45.8184   58.3065 C   0  0  0  0  0  0  0  0  0  0  0  0
   71.9711   46.7226   58.8605 C   0  0  0  0  0  0  0  0  0  0  0  0
   71.8973   48.0805   58.6396 C   0  0  0  0  0  0  0  0  0  0  0  0
   70.9117   48.5931   57.8312 C   0  0  0  0  0  0  0  0  0  0  0  0
   69.9930   47.7040   57.2437 C   0  0  0  0  0  0  0  0  0  0  0  0
   70.0958   46.3561   57.4852 C   0  0  0  0  0  0  0  0  0  0  0  0
   69.2618   43.9608   59.8424 O   0  0  0  0  0  0  0  0  0  0  0  0
   70.2186   43.5331   59.1204 C   0  0  0  0  0  0  0  0  0  0  0  0
   70.5316   42.1156   58.7566 C   0  0  0  0  0  0  0  0  0  0  0  0
   71.5467   42.3483   57.6288 C   0  0  0  0  0  0  0  0  0  0  0  0
   72.2941   43.5533   58.1940 C   0  0  0  0  0  0  0  0  0  0  0  0
   71.1698   44.4124   58.5333 N   0  0  0  0  0  0  0  0  0  0  0  0
   68.9469   48.3135   56.4023 C   0  0  0  0  0  0  0  0  0  0  0  0
   69.2878   48.4064   54.9665 C   0  0  0  0  0  0  0  0  0  0  0  0
   70.1594   49.3703   54.5237 N   0  0  0  0  0  0  0  0  0  0  0  0
   70.5489   49.4880   53.2860 N   0  0  0  0  0  0  0  0  0  0  0  0
   70.1421   48.6822   52.3040 C   0  0  0  0  0  0  0  0  0  0  0  0
   70.5253   48.8003   51.0963 O   0  0  0  0  0  0  0  0  0  0  0  0
   69.2570   47.6763   52.6554 C   0  0  0  0  0  0  0  0  0  0  0  0
   68.8041   46.8350   51.6602 C   0  0  0  0  0  0  0  0  0  0  0  0
   67.9035   45.8320   51.9854 C   0  0  0  0  0  0  0  0  0  0  0  0
   67.5053   45.7280   53.2943 C   0  0  0  0  0  0  0  0  0  0  0  0
   67.9605   46.5714   54.2908 C   0  0  0  0  0  0  0  0  0  0  0  0
   68.8457   47.5570   53.9799 C   0  0  0  0  0  0  0  0  0  0  0  0
  7  8  2  0
  8  9  1  0
  8 12  1  0
  9 10  1  0
 10 11  1  0
 11 12  1  0
 12  1  1  0
  1  2  2  0
  1  6  1  0
  2  3  1  0
  3  4  2  0
  4  5  1  0
  5 13  1  0
  5  6  2  0
 13 14  1  0
 14 15  2  0
 14 24  1  0
 15 16  1  0
 16 17  1  0
 17 18  2  0
 17 19  1  0
 19 20  1  0
 19 24  2  0
 20 21  2  0
 21 22  1  0
 22 23  2  0
 23 24  1  0
M  END
>  <minimizedAffinity>  (113) 
-8.96105

$$$$
data/reference_output_2/data/smiles/109732.pdb
     RDKit          3D

 24 26  0  0  0  0  0  0  0  0999 V2000
   68.1383   46.9310   56.3459 N   0  0  0  0  0  0  0  0  0  0  0  0
   69.2779   46.8491   57.1682 C   0  0  0  0  0  0  0  0  0  0  0  0
   69.9374   45.6906   57.3750 N   0  0  0  0  0  0  0  0  0  0  0  0
   71.0181   45.6327   58.1657 C   0  0  0  0  0  0  0  0  0  0  0  0
   71.4618   46.7394   58.7709 N   0  0  0  0  0  0  0  0  0  0  0  0
   70.8701   47.9311   58.6224 C   0  0  0  0  0  0  0  0  0  0  0  0
   71.1015   49.1688   59.1046 N   0  0  0  0  0  0  0  0  0  0  0  0
   70.1744   49.9919   58.6187 C   0  0  0  0  0  0  0  0  0  0  0  0
   69.2998   49.2910   57.7899 C   0  0  0  0  0  0  0  0  0  0  0  0
   69.7387   47.9878   57.7925 C   0  0  0  0  0  0  0  0  0  0  0  0
   68.1535   49.8290   57.0628 C   0  0  0  0  0  0  0  0  0  0  0  0
   68.2823   51.2899   56.7116 C   0  0  0  0  0  0  0  0  0  0  0  0
   66.9527   49.7392   58.0228 C   0  0  0  0  0  0  0  0  0  0  0  0
   69.3019   47.7749   52.9338 C   0  0  0  0  0  0  0  0  0  0  0  0
   68.6939   46.8108   52.1518 C   0  0  0  0  0  0  0  0  0  0  0  0
   67.8978   45.8836   52.7725 C   0  0  0  0  0  0  0  0  0  0  0  0
   67.7012   45.9026   54.1344 C   0  0  0  0  0  0  0  0  0  0  0  0
   68.3041   46.8655   54.9459 C   0  0  0  0  0  0  0  0  0  0  0  0
   69.0996   47.7881   54.3139 C   0  0  0  0  0  0  0  0  0  0  0  0
   70.3263   48.9777   52.1918 S   0  0  0  0  0  0  0  0  0  0  0  0
   70.6859   48.5382   50.8195 O   0  0  0  0  0  0  0  0  0  0  0  0
   71.6040   49.1600   52.9898 O   0  0  0  0  0  0  0  0  0  0  0  0
   69.9991   51.2615   53.3005 C   0  0  0  0  0  0  0  0  0  0  0  0
   69.5681   50.5164   52.1123 N   0  0  0  0  0  0  0  0  0  0  0  0
 23 24  1  0
 24 20  1  0
 20 21  2  0
 20 22  2  0
 20 14  1  0
 14 15  2  0
 14 19  1  0
 15 16  1  0
 16 17  2  0
 17 18  1  0
 18  1  1  0
 18 19  2  0
  1  2  1  0
  2  3  2  0
  2 10  1  0
  3  4  1  0
  4  5  2  0
  5  6  1  0
  6  7  1  0
  6 10  2  0
  7  8  1  0
  8  9  2  0
  9 11  1  0
  9 10  1  0
 11 12  1  0
 11 13  1  0
M  END
>  <minimizedAffinity>  (114) 
-8.95337

$$$$
data/reference_output_2/data/smiles/146632.pdb
     RDKit          3D

 25 28  0  0  0  0  0  0  0  0999 V2000
   68.7561   40.9222   57.6664 C   0  0  0  0  0  0  0  0  0  0  0  0
   67.7444   40.7541   56.7469 C   0  0  0  0  0  0  0  0  0  0  0  0
   67.3743   41.8321   55.9662 C   0  0  0  0  0  0  0  0  0  0  0  0
   66.4471   41.7307   55.1043 O   0  0  0  0  0  0  0  0  0  0  0  0
   67.9811   43.0413   56.0851 N   0  0  0  0  0  0  0  0  0  0  0  0
   67.7993   44.1944   55.4585 N   0  0  0  0  0  0  0  0  0  0  0  0
   68.6621   45.1077   55.9425 C   0  0  0  0  0  0  0  0  0  0  0  0
   69.3691   44.4592   56.8840 N   0  0  0  0  0  0  0  0  0  0  0  0
   68.9693   43.1785   56.9937 C   0  0  0  0  0  0  0  0  0  0  0  0
   69.3269   42.1253   57.7522 N   0  0  0  0  0  0  0  0  0  0  0  0
   69.1764   39.7666   58.5262 C   0  0  0  0  0  0  0  0  0  0  0  0
   64.6639   37.5159   61.2553 C   0  0  0  0  0  0  0  0  0  0  0  0
   65.8155   38.1187   60.5728 C   0  0  0  0  0  0  0  0  0  0  0  0
   66.2350   39.4130   60.8594 C   0  0  0  0  0  0  0  0  0  0  0  0
   67.3200   39.9638   60.2083 C   0  0  0  0  0  0  0  0  0  0  0  0
   67.9995   39.2386   59.2671 C   0  0  0  0  0  0  0  0  0  0  0  0
   67.5684   37.9571   58.9969 C   0  0  0  0  0  0  0  0  0  0  0  0
   66.4932   37.3802   59.6269 C   0  0  0  0  0  0  0  0  0  0  0  0
   68.8015   46.5436   55.5184 C   0  0  0  0  0  0  0  0  0  0  0  0
   68.6209   46.5992   54.0421 C   0  0  0  0  0  0  0  0  0  0  0  0
   67.7524   45.7820   53.3610 C   0  0  0  0  0  0  0  0  0  0  0  0
   67.6201   45.8718   51.9794 C   0  0  0  0  0  0  0  0  0  0  0  0
   68.3526   46.7812   51.2516 C   0  0  0  0  0  0  0  0  0  0  0  0
   69.2247   47.6024   51.9339 C   0  0  0  0  0  0  0  0  0  0  0  0
   69.3522   47.5083   53.3013 C   0  0  0  0  0  0  0  0  0  0  0  0
 12 13  1  0
 13 14  2  0
 13 18  1  0
 14 15  1  0
 15 16  2  0
 16 11  1  0
 16 17  1  0
 11  1  1  0
  1  2  2  0
  1 10  1  0
  2  3  1  0
  3  4  2  0
  3  5  1  0
  5  6  1  0
  5  9  1  0
  6  7  2  0
  7 19  1  0
  7  8  1  0
 19 20  1  0
 20 21  2  0
 20 25  1  0
 21 22  1  0
 22 23  2  0
 23 24  1  0
 24 25  2  0
  8  9  2  0
  9 10  1  0
 17 18  2  0
M  END
>  <minimizedAffinity>  (115) 
-8.95246

$$$$
data/reference_output_2/data/smiles/139467.pdb
     RDKit          3D

 24 26  0  0  0  0  0  0  0  0999 V2000
   67.9799   43.7915   55.8915 N   0  0  0  0  0  0  0  0  0  0  0  0
   68.9172   43.2681   56.8081 C   0  0  0  0  0  0  0  0  0  0  0  0
   69.9614   43.9421   56.9968 O   0  0  0  0  0  0  0  0  0  0  0  0
   68.7445   42.0143   57.5337 C   0  0  0  0  0  0  0  0  0  0  0  0
   67.5090   41.6855   58.0516 C   0  0  0  0  0  0  0  0  0  0  0  0
   67.2707   40.5236   58.7457 C   0  0  0  0  0  0  0  0  0  0  0  0
   68.2876   39.6131   58.9574 C   0  0  0  0  0  0  0  0  0  0  0  0
   68.0878   38.4343   59.6501 C   0  0  0  0  0  0  0  0  0  0  0  0
   69.1080   37.5270   59.8589 C   0  0  0  0  0  0  0  0  0  0  0  0
   70.3489   37.8391   59.3476 C   0  0  0  0  0  0  0  0  0  0  0  0
   70.5522   39.0270   58.6499 C   0  0  0  0  0  0  0  0  0  0  0  0
   69.5285   39.9264   58.4454 C   0  0  0  0  0  0  0  0  0  0  0  0
   69.7649   41.1108   57.7406 C   0  0  0  0  0  0  0  0  0  0  0  0
   68.5729   47.4434   53.8090 C   0  0  0  0  0  0  0  0  0  0  0  0
   68.0114   46.3398   53.1828 C   0  0  0  0  0  0  0  0  0  0  0  0
   67.8236   45.1651   53.8662 C   0  0  0  0  0  0  0  0  0  0  0  0
   68.1853   45.0410   55.1874 C   0  0  0  0  0  0  0  0  0  0  0  0
   68.7413   46.1221   55.8213 C   0  0  0  0  0  0  0  0  0  0  0  0
   68.9282   47.2992   55.1345 C   0  0  0  0  0  0  0  0  0  0  0  0
   68.7744   48.6500   53.1395 O   0  0  0  0  0  0  0  0  0  0  0  0
   69.7278   49.9430   50.8995 N   0  0  0  0  0  0  0  0  0  0  0  0
   70.0999   48.6742   52.0410 S   0  0  0  0  0  0  0  0  0  0  0  0
   71.3842   48.9280   52.7382 O   0  0  0  0  0  0  0  0  0  0  0  0
   70.1382   47.3958   51.2473 O   0  0  0  0  0  0  0  0  0  0  0  0
 21 22  1  0
 22 23  2  0
 22 24  2  0
 22 20  1  0
 20 14  1  0
 14 15  2  0
 14 19  1  0
 15 16  1  0
 16 17  2  0
 17  1  1  0
 17 18  1  0
  1  2  1  0
  2  3  2  0
  2  4  1  0
  4  5  2  0
  4 13  1  0
  5  6  1  0
  6  7  2  0
  7  8  1  0
  7 12  1  0
  8  9  2  0
  9 10  1  0
 10 11  2  0
 11 12  1  0
 12 13  2  0
 18 19  2  0
M  END
>  <minimizedAffinity>  (116) 
-8.95039

$$$$
data/200k_reference_output/data/smiles/59668.pdb
     RDKit          3D

 24 26  0  0  0  0  0  0  0  0999 V2000
   69.3019   42.7017   57.2216 O   0  0  0  0  0  0  0  0  0  0  0  0
   68.1773   42.3058   56.8655 C   0  0  0  0  0  0  0  0  0  0  0  0
   67.6457   41.0998   57.3658 N   0  0  0  0  0  0  0  0  0  0  0  0
   67.4849   43.1475   55.9334 N   0  0  0  0  0  0  0  0  0  0  0  0
   68.0554   44.3394   55.4627 N   0  0  0  0  0  0  0  0  0  0  0  0
   67.7283   44.8731   54.3389 C   0  0  0  0  0  0  0  0  0  0  0  0
   68.3386   46.1260   53.8603 C   0  0  0  0  0  0  0  0  0  0  0  0
   68.3881   47.2352   54.6800 C   0  0  0  0  0  0  0  0  0  0  0  0
   68.9458   48.4358   54.2884 C   0  0  0  0  0  0  0  0  0  0  0  0
   69.4817   48.5526   53.0316 C   0  0  0  0  0  0  0  0  0  0  0  0
   69.4359   47.4420   52.2020 C   0  0  0  0  0  0  0  0  0  0  0  0
   68.8730   46.2462   52.6084 C   0  0  0  0  0  0  0  0  0  0  0  0
   70.0221   47.8355   51.0543 N   0  0  0  0  0  0  0  0  0  0  0  0
   70.3924   49.0740   51.1689 O   0  0  0  0  0  0  0  0  0  0  0  0
   70.0897   49.5475   52.3393 N   0  0  0  0  0  0  0  0  0  0  0  0
   70.3292   50.8235   52.8191 O   0  0  0  0  0  0  0  0  0  0  0  0
   68.2855   40.1822   58.2616 C   0  0  0  0  0  0  0  0  0  0  0  0
   67.6769   39.9683   59.5804 C   0  0  0  0  0  0  0  0  0  0  0  0
   66.5976   38.9970   59.7564 C   0  0  0  0  0  0  0  0  0  0  0  0
   66.6696   37.6995   59.3088 C   0  0  0  0  0  0  0  0  0  0  0  0
   65.6312   36.8368   59.4942 C   0  0  0  0  0  0  0  0  0  0  0  0
   64.4876   37.2661   60.1414 C   0  0  0  0  0  0  0  0  0  0  0  0
   64.3897   38.5588   60.5992 C   0  0  0  0  0  0  0  0  0  0  0  0
   65.4421   39.4033   60.4010 C   0  0  0  0  0  0  0  0  0  0  0  0
  1  2  2  0
  2  3  1  0
  2  4  1  0
  3 17  1  0
 17 18  1  0
 18 19  1  0
 19 20  2  0
 19 24  1  0
 20 21  1  0
 21 22  2  0
 22 23  1  0
 23 24  2  0
  4  5  1  0
  5  6  2  0
  6  7  1  0
  7  8  1  0
  7 12  2  0
  8  9  2  0
  9 10  1  0
 10 11  1  0
 10 15  2  0
 11 12  1  0
 11 13  2  0
 13 14  1  0
 14 15  1  0
 15 16  1  0
M  CHG  2  15   1  16  -1
M  END
>  <minimizedAffinity>  (117) 
-8.94564

$$$$
data/reference_output_2/data/smiles/121853.pdb
     RDKit          3D

 26 29  0  0  0  0  0  0  0  0999 V2000
   70.5061   51.3319   53.3121 O   0  0  0  0  0  0  0  0  0  0  0  0
   70.7873   50.1184   53.6817 C   0  0  0  0  0  0  0  0  0  0  0  0
   71.8229   50.0246   54.6072 N   0  0  0  0  0  0  0  0  0  0  0  0
   69.9987   49.0542   53.0911 C   0  0  0  0  0  0  0  0  0  0  0  0
   69.4731   48.0468   53.9183 C   0  0  0  0  0  0  0  0  0  0  0  0
   68.7204   47.0138   53.4041 C   0  0  0  0  0  0  0  0  0  0  0  0
   68.1974   46.0145   54.2099 C   0  0  0  0  0  0  0  0  0  0  0  0
   67.4430   44.9832   53.6757 C   0  0  0  0  0  0  0  0  0  0  0  0
   67.2011   44.9370   52.3215 C   0  0  0  0  0  0  0  0  0  0  0  0
   66.4511   43.9220   51.7515 O   0  0  0  0  0  0  0  0  0  0  0  0
   67.7169   45.9259   51.5113 C   0  0  0  0  0  0  0  0  0  0  0  0
   68.4783   46.9682   52.0512 C   0  0  0  0  0  0  0  0  0  0  0  0
   68.9704   47.9059   51.3028 O   0  0  0  0  0  0  0  0  0  0  0  0
   69.7091   48.9278   51.7778 C   0  0  0  0  0  0  0  0  0  0  0  0
   70.1326   49.7801   50.9471 O   0  0  0  0  0  0  0  0  0  0  0  0
   72.5948   51.1157   55.1478 C   0  0  0  0  0  0  0  0  0  0  0  0
   72.0811   51.7680   56.3453 C   0  0  0  0  0  0  0  0  0  0  0  0
   70.6784   52.0960   56.5321 C   0  0  0  0  0  0  0  0  0  0  0  0
   70.0539   53.3410   56.3927 C   0  0  0  0  0  0  0  0  0  0  0  0
   68.7563   53.2000   56.6990 N   0  0  0  0  0  0  0  0  0  0  0  0
   68.4637   51.9489   57.0338 C   0  0  0  0  0  0  0  0  0  0  0  0
   67.3104   51.2970   57.4202 C   0  0  0  0  0  0  0  0  0  0  0  0
   67.3880   49.9513   57.6965 C   0  0  0  0  0  0  0  0  0  0  0  0
   68.5654   49.2489   57.6004 C   0  0  0  0  0  0  0  0  0  0  0  0
   69.7012   49.9141   57.2147 C   0  0  0  0  0  0  0  0  0  0  0  0
   69.6435   51.2442   56.9379 C   0  0  0  0  0  0  0  0  0  0  0  0
  1  2  2  0
  2  3  1  0
  2  4  1  0
  3 16  1  0
 16 17  1  0
 17 18  1  0
 18 19  2  0
 18 26  1  0
 19 20  1  0
 20 21  1  0
 21 22  1  0
 21 26  2  0
 22 23  2  0
 23 24  1  0
 24 25  2  0
 25 26  1  0
  4  5  2  0
  4 14  1  0
  5  6  1  0
  6  7  2  0
  6 12  1  0
  7  8  1  0
  8  9  2  0
  9 10  1  0
  9 11  1  0
 11 12  2  0
 12 13  1  0
 13 14  1  0
 14 15  2  0
M  END
>  <minimizedAffinity>  (118) 
-8.94514

$$$$
data/200k_reference_output/data/smiles/11498.pdb
     RDKit          3D

 25 27  0  0  0  0  0  0  0  0999 V2000
   69.4220   42.6785   57.2323 C   0  0  0  0  0  0  0  0  0  0  0  0
   70.1260   43.7662   57.6682 C   0  0  0  0  0  0  0  0  0  0  0  0
   69.8851   45.0632   57.1722 C   0  0  0  0  0  0  0  0  0  0  0  0
   68.9353   45.3206   56.2261 C   0  0  0  0  0  0  0  0  0  0  0  0
   68.2208   44.1753   55.7910 C   0  0  0  0  0  0  0  0  0  0  0  0
   68.4610   42.9206   56.2781 C   0  0  0  0  0  0  0  0  0  0  0  0
   72.3456   39.0783   59.1441 C   0  0  0  0  0  0  0  0  0  0  0  0
   71.0406   39.5823   58.6468 C   0  0  0  0  0  0  0  0  0  0  0  0
   70.8631   40.8660   58.1838 C   0  0  0  0  0  0  0  0  0  0  0  0
   69.6510   41.3303   57.7255 C   0  0  0  0  0  0  0  0  0  0  0  0
   68.5885   40.4434   57.7415 C   0  0  0  0  0  0  0  0  0  0  0  0
   68.7563   39.1567   58.2022 C   0  0  0  0  0  0  0  0  0  0  0  0
   69.9747   38.7042   58.6600 C   0  0  0  0  0  0  0  0  0  0  0  0
   70.1097   37.4299   59.1074 F   0  0  0  0  0  0  0  0  0  0  0  0
   68.5816   46.5970   55.6575 C   0  0  0  0  0  0  0  0  0  0  0  0
   67.6752   47.2494   56.3542 O   0  0  0  0  0  0  0  0  0  0  0  0
   69.0117   47.3206   54.4967 C   0  0  0  0  0  0  0  0  0  0  0  0
   68.6328   46.8078   53.2290 C   0  0  0  0  0  0  0  0  0  0  0  0
   69.0536   47.4420   52.0996 C   0  0  0  0  0  0  0  0  0  0  0  0
   68.7170   46.9886   50.9475 O   0  0  0  0  0  0  0  0  0  0  0  0
   69.8240   48.5466   52.1316 N   0  0  0  0  0  0  0  0  0  0  0  0
   70.2323   49.1592   50.9647 O   0  0  0  0  0  0  0  0  0  0  0  0
   70.1594   48.9972   53.3444 C   0  0  0  0  0  0  0  0  0  0  0  0
   70.8891   50.0434   53.3663 O   0  0  0  0  0  0  0  0  0  0  0  0
   69.7682   48.4054   54.5132 N   0  0  0  0  0  0  0  0  0  0  0  0
  7  8  1  0
  8  9  2  0
  8 13  1  0
  9 10  1  0
 10  1  1  0
 10 11  2  0
  1  2  2  0
  1  6  1  0
  2  3  1  0
  3  4  2  0
  4 15  1  0
  4  5  1  0
 15 16  2  0
 15 17  1  0
 17 18  2  0
 17 25  1  0
 18 19  1  0
 19 20  2  0
 19 21  1  0
 21 22  1  0
 21 23  1  0
 23 24  2  0
 23 25  1  0
  5  6  2  0
 11 12  1  0
 12 13  2  0
 13 14  1  0
M  END
>  <minimizedAffinity>  (119) 
-8.94299

$$$$
data/200k_reference_output/data/smiles/31202.pdb
     RDKit          3D

 24 26  0  0  0  0  0  0  0  0999 V2000
   68.0876   41.9129   57.3186 C   0  0  0  0  0  0  0  0  0  0  0  0
   67.3881   42.3153   56.1983 C   0  0  0  0  0  0  0  0  0  0  0  0
   67.8525   43.5367   55.7493 C   0  0  0  0  0  0  0  0  0  0  0  0
   68.8311   43.8487   56.6179 N   0  0  0  0  0  0  0  0  0  0  0  0
   68.9745   42.8993   57.5427 N   0  0  0  0  0  0  0  0  0  0  0  0
   66.5868   39.3572   59.6575 C   0  0  0  0  0  0  0  0  0  0  0  0
   67.5591   38.3777   59.6197 C   0  0  0  0  0  0  0  0  0  0  0  0
   68.6909   38.5447   58.8450 C   0  0  0  0  0  0  0  0  0  0  0  0
   68.8544   39.6965   58.1043 C   0  0  0  0  0  0  0  0  0  0  0  0
   67.9129   40.7001   58.1102 C   0  0  0  0  0  0  0  0  0  0  0  0
   66.8042   40.4858   58.8972 C   0  0  0  0  0  0  0  0  0  0  0  0
   64.7097   37.9881   60.2469 C   0  0  0  0  0  0  0  0  0  0  0  0
   65.4557   39.1725   60.4398 O   0  0  0  0  0  0  0  0  0  0  0  0
   67.4185   44.3080   54.6382 N   0  0  0  0  0  0  0  0  0  0  0  0
   68.0407   45.5128   54.2198 C   0  0  0  0  0  0  0  0  0  0  0  0
   68.2519   45.7600   52.8580 C   0  0  0  0  0  0  0  0  0  0  0  0
   68.8402   46.9250   52.4012 C   0  0  0  0  0  0  0  0  0  0  0  0
   69.2442   47.8927   53.2876 C   0  0  0  0  0  0  0  0  0  0  0  0
   69.0375   47.6513   54.6263 C   0  0  0  0  0  0  0  0  0  0  0  0
   68.4441   46.4823   55.1047 C   0  0  0  0  0  0  0  0  0  0  0  0
   70.0076   49.3681   52.7509 S   0  0  0  0  0  0  0  0  0  0  0  0
   71.5681   49.5914   53.4412 N   0  0  0  0  0  0  0  0  0  0  0  0
   70.2103   49.3000   51.2397 O   0  0  0  0  0  0  0  0  0  0  0  0
   69.1732   50.5824   53.0841 O   0  0  0  0  0  0  0  0  0  0  0  0
 12 13  1  0
 13  6  1  0
  6  7  2  0
  6 11  1  0
  7  8  1  0
  8  9  2  0
  9 10  1  0
 10  1  1  0
 10 11  2  0
  1  2  1  0
  1  5  2  0
  2  3  2  0
  3 14  1  0
  3  4  1  0
 14 15  1  0
 15 16  2  0
 15 20  1  0
 16 17  1  0
 17 18  2  0
 18 21  1  0
 18 19  1  0
 21 22  1  0
 21 23  2  0
 21 24  2  0
 19 20  2  0
  4  5  1  0
M  END
>  <minimizedAffinity>  (120) 
-8.94094

$$$$
data/reference_output_2/data/smiles/167223.pdb
     RDKit          3D

 22 23  0  0  0  0  0  0  0  0999 V2000
   69.2253   46.8343   56.9445 C   0  0  0  0  0  0  0  0  0  0  0  0
   69.7028   48.2720   57.5260 S   0  0  0  0  0  0  0  0  0  0  0  0
   69.9378   45.6769   57.3254 N   0  0  0  0  0  0  0  0  0  0  0  0
   71.3284   43.5617   58.2468 C   0  0  0  0  0  0  0  0  0  0  0  0
   69.9907   43.4000   57.6629 C   0  0  0  0  0  0  0  0  0  0  0  0
   69.3586   44.4133   57.2364 N   0  0  0  0  0  0  0  0  0  0  0  0
   69.3932   42.0820   57.5741 C   0  0  0  0  0  0  0  0  0  0  0  0
   69.8404   41.0305   58.3907 C   0  0  0  0  0  0  0  0  0  0  0  0
   69.3154   39.7711   58.3559 C   0  0  0  0  0  0  0  0  0  0  0  0
   68.2853   39.5051   57.4709 C   0  0  0  0  0  0  0  0  0  0  0  0
   67.8356   40.5297   56.6623 C   0  0  0  0  0  0  0  0  0  0  0  0
   68.3871   41.7747   56.7291 N   0  0  0  0  0  0  0  0  0  0  0  0
   68.1096   46.7887   56.0737 N   0  0  0  0  0  0  0  0  0  0  0  0
   68.3699   46.8592   54.6812 C   0  0  0  0  0  0  0  0  0  0  0  0
   67.7564   45.9592   53.8362 C   0  0  0  0  0  0  0  0  0  0  0  0
   67.9587   45.9626   52.4719 C   0  0  0  0  0  0  0  0  0  0  0  0
   68.8035   46.8994   51.9313 C   0  0  0  0  0  0  0  0  0  0  0  0
   69.4443   47.8261   52.7424 C   0  0  0  0  0  0  0  0  0  0  0  0
   69.2125   47.7857   54.1098 C   0  0  0  0  0  0  0  0  0  0  0  0
   70.3150   48.7927   52.1624 N   0  0  0  0  0  0  0  0  0  0  0  0
   71.3765   49.0697   52.7718 O   0  0  0  0  0  0  0  0  0  0  0  0
   69.9891   49.3951   50.9734 O   0  0  0  0  0  0  0  0  0  0  0  0
  4  5  1  0
  5  6  2  0
  5  7  1  0
  6  3  1  0
  3  1  1  0
  1  2  2  0
  1 13  1  0
 13 14  1  0
 14 15  2  0
 14 19  1  0
 15 16  1  0
 16 17  2  0
 17 18  1  0
 18 20  1  0
 18 19  2  0
 20 21  2  0
 20 22  1  0
  7  8  2  0
  7 12  1  0
  8  9  1  0
  9 10  2  0
 10 11  1  0
 11 12  2  0
M  CHG  2  20   1  22  -1
M  END
>  <minimizedAffinity>  (121) 
-8.94009

$$$$
data/reference_output_2/data/smiles/162707.pdb
     RDKit          3D

 23 25  0  0  0  0  0  0  0  0999 V2000
   70.1609   49.2893   54.1462 C   0  0  0  0  0  0  0  0  0  0  0  0
   69.6253   48.5848   55.1895 C   0  0  0  0  0  0  0  0  0  0  0  0
   68.7983   47.4557   54.9994 C   0  0  0  0  0  0  0  0  0  0  0  0
   68.4937   47.0130   53.7405 C   0  0  0  0  0  0  0  0  0  0  0  0
   67.6854   45.9266   53.4989 C   0  0  0  0  0  0  0  0  0  0  0  0
   67.3884   45.5064   52.1978 C   0  0  0  0  0  0  0  0  0  0  0  0
   67.9424   46.2293   51.1671 C   0  0  0  0  0  0  0  0  0  0  0  0
   68.7215   47.2792   51.4304 N   0  0  0  0  0  0  0  0  0  0  0  0
   69.0270   47.7112   52.6826 C   0  0  0  0  0  0  0  0  0  0  0  0
   69.8291   48.8058   52.8724 C   0  0  0  0  0  0  0  0  0  0  0  0
   70.3317   49.4616   51.7631 O   0  0  0  0  0  0  0  0  0  0  0  0
   71.3281   51.6644   57.4267 C   0  0  0  0  0  0  0  0  0  0  0  0
   70.8129   52.9630   56.8563 C   0  0  0  0  0  0  0  0  0  0  0  0
   71.8124   53.5403   55.8764 C   0  0  0  0  0  0  0  0  0  0  0  0
   72.0090   52.6292   54.6755 C   0  0  0  0  0  0  0  0  0  0  0  0
   70.8102   51.7474   54.5618 N   0  0  0  0  0  0  0  0  0  0  0  0
   71.0628   50.4269   54.2646 C   0  0  0  0  0  0  0  0  0  0  0  0
   72.3152   50.1083   54.0458 O   0  0  0  0  0  0  0  0  0  0  0  0
   69.5889   52.4588   54.7452 C   0  0  0  0  0  0  0  0  0  0  0  0
   69.4485   52.7173   56.2332 C   0  0  0  0  0  0  0  0  0  0  0  0
   68.3107   46.8281   56.1597 N   0  0  0  0  0  0  0  0  0  0  0  0
   67.5650   47.3888   56.9496 O   0  0  0  0  0  0  0  0  0  0  0  0
   68.6406   45.5087   56.4250 O   0  0  0  0  0  0  0  0  0  0  0  0
 12 13  1  0
 13 14  1  0
 13 20  1  0
 14 15  1  0
 15 16  1  0
 16 17  1  0
 16 19  1  0
 17 18  2  0
 17  1  1  0
  1  2  2  0
  1 10  1  0
  2  3  1  0
  3 21  1  0
  3  4  2  0
 21 22  2  0
 21 23  1  0
  4  5  1  0
  4  9  1  0
  5  6  2  0
  6  7  1  0
  7  8  2  0
  8  9  1  0
  9 10  2  0
 10 11  1  0
 19 20  1  0
M  CHG  2  21   1  23  -1
M  END
>  <minimizedAffinity>  (122) 
-8.93943

$$$$
data/200k_reference_output/data/smiles/67453.pdb
     RDKit          3D

 24 25  0  0  0  0  0  0  0  0999 V2000
   70.9049   51.3094   54.9347 C   0  0  0  0  0  0  0  0  0  0  0  0
   70.3280   52.2886   55.7329 C   0  0  0  0  0  0  0  0  0  0  0  0
   69.0084   52.6691   55.5910 C   0  0  0  0  0  0  0  0  0  0  0  0
   68.2662   52.0383   54.6192 C   0  0  0  0  0  0  0  0  0  0  0  0
   68.8361   51.0658   53.8262 C   0  0  0  0  0  0  0  0  0  0  0  0
   70.1485   50.6736   53.9508 C   0  0  0  0  0  0  0  0  0  0  0  0
   73.3214   51.6647   54.7825 C   0  0  0  0  0  0  0  0  0  0  0  0
   72.2979   50.9005   55.0770 C   0  0  0  0  0  0  0  0  0  0  0  0
   75.1506   49.9168   54.7923 N   0  0  0  0  0  0  0  0  0  0  0  0
   74.7006   51.2396   54.9310 C   0  0  0  0  0  0  0  0  0  0  0  0
   75.5974   52.1078   55.2081 O   0  0  0  0  0  0  0  0  0  0  0  0
   76.4901   49.5899   54.9494 O   0  0  0  0  0  0  0  0  0  0  0  0
   78.2456   50.2349   56.6208 C   0  0  0  0  0  0  0  0  0  0  0  0
   76.9947   49.5143   56.2553 C   0  0  0  0  0  0  0  0  0  0  0  0
   76.3688   48.8302   57.0972 O   0  0  0  0  0  0  0  0  0  0  0  0
   70.7078   49.6918   53.1438 O   0  0  0  0  0  0  0  0  0  0  0  0
   69.9895   48.9165   52.2601 C   0  0  0  0  0  0  0  0  0  0  0  0
   70.0210   49.2376   51.0426 O   0  0  0  0  0  0  0  0  0  0  0  0
   69.2059   47.7542   52.6772 C   0  0  0  0  0  0  0  0  0  0  0  0
   69.0557   47.4700   54.0185 C   0  0  0  0  0  0  0  0  0  0  0  0
   68.3099   46.3628   54.4278 C   0  0  0  0  0  0  0  0  0  0  0  0
   67.7093   45.5315   53.5037 C   0  0  0  0  0  0  0  0  0  0  0  0
   67.8555   45.8089   52.1470 C   0  0  0  0  0  0  0  0  0  0  0  0
   68.5981   46.9109   51.7777 C   0  0  0  0  0  0  0  0  0  0  0  0
 13 14  1  0
 14 15  2  0
 14 12  1  0
 12  9  1  0
  9 10  1  0
 10 11  2  0
 10  7  1  0
  7  8  2  0
  8  1  1  0
  1  2  2  0
  1  6  1  0
  2  3  1  0
  3  4  2  0
  4  5  1  0
  5  6  2  0
  6 16  1  0
 16 17  1  0
 17 18  2  0
 17 19  1  0
 19 20  2  0
 19 24  1  0
 20 21  1  0
 21 22  2  0
 22 23  1  0
 23 24  2  0
M  END
>  <minimizedAffinity>  (123) 
-8.93934

$$$$
data/200k_reference_output/data/smiles/32016.pdb
     RDKit          3D

 23 25  0  0  0  0  0  0  0  0999 V2000
   69.2137   43.7429   56.9779 N   0  0  0  0  0  0  0  0  0  0  0  0
   68.7428   42.5486   57.0301 C   0  0  0  0  0  0  0  0  0  0  0  0
   67.5227   42.0865   56.4502 C   0  0  0  0  0  0  0  0  0  0  0  0
   66.6605   42.7499   55.8108 O   0  0  0  0  0  0  0  0  0  0  0  0
   67.4372   40.6817   56.7285 N   0  0  0  0  0  0  0  0  0  0  0  0
   68.5682   40.2687   57.4646 C   0  0  0  0  0  0  0  0  0  0  0  0
   68.9687   39.0420   57.9744 C   0  0  0  0  0  0  0  0  0  0  0  0
   70.1401   38.8943   58.6718 C   0  0  0  0  0  0  0  0  0  0  0  0
   70.6202   37.3152   59.2998 Cl  0  0  0  0  0  0  0  0  0  0  0  0
   70.9601   39.9776   58.8829 C   0  0  0  0  0  0  0  0  0  0  0  0
   70.5504   41.2062   58.3671 C   0  0  0  0  0  0  0  0  0  0  0  0
   69.3757   41.3677   57.6651 C   0  0  0  0  0  0  0  0  0  0  0  0
   70.0239   46.4805   57.0597 O   0  0  0  0  0  0  0  0  0  0  0  0
   69.0136   46.1623   56.3796 C   0  0  0  0  0  0  0  0  0  0  0  0
   68.6147   44.8216   56.3345 N   0  0  0  0  0  0  0  0  0  0  0  0
   68.1980   47.1424   55.6018 C   0  0  0  0  0  0  0  0  0  0  0  0
   68.7921   47.4399   54.2731 C   0  0  0  0  0  0  0  0  0  0  0  0
   69.5965   48.5919   54.1864 C   0  0  0  0  0  0  0  0  0  0  0  0
   70.2038   48.9426   53.0165 C   0  0  0  0  0  0  0  0  0  0  0  0
   70.0401   48.1669   51.8842 C   0  0  0  0  0  0  0  0  0  0  0  0
   70.6945   48.5660   50.6917 O   0  0  0  0  0  0  0  0  0  0  0  0
   69.2603   47.0436   51.9568 C   0  0  0  0  0  0  0  0  0  0  0  0
   68.6309   46.6692   53.1432 C   0  0  0  0  0  0  0  0  0  0  0  0
 13 14  2  0
 14 16  1  0
 14 15  1  0
 16 17  1  0
 17 18  2  0
 17 23  1  0
 18 19  1  0
 19 20  2  0
 20 21  1  0
 20 22  1  0
 22 23  2  0
 15  1  1  0
  1  2  2  0
  2  3  1  0
  2 12  1  0
  3  4  2  0
  3  5  1  0
  5  6  1  0
  6  7  1  0
  6 12  2  0
  7  8  2  0
  8  9  1  0
  8 10  1  0
 10 11  2  0
 11 12  1  0
M  END
>  <minimizedAffinity>  (124) 
-8.93918

$$$$
data/200k_reference_output/data/smiles/16948.pdb
     RDKit          3D

 23 25  0  0  0  0  0  0  0  0999 V2000
   68.9376   47.4687   56.8081 C   0  0  2  0  0  0  0  0  0  0  0  0
   70.0230   50.6152   52.3253 N   0  0  0  0  0  0  0  0  0  0  0  0
   69.5539   49.2926   52.6294 C   0  0  0  0  0  0  0  0  0  0  0  0
   69.4205   48.9038   53.8917 N   0  0  0  0  0  0  0  0  0  0  0  0
   68.9876   47.6789   54.2054 C   0  0  0  0  0  0  0  0  0  0  0  0
   68.7527   47.0537   55.4087 C   0  0  0  0  0  0  0  0  0  0  0  0
   68.2890   45.7810   55.0267 C   0  0  0  0  0  0  0  0  0  0  0  0
   68.2583   45.6765   53.6879 N   0  0  0  0  0  0  0  0  0  0  0  0
   68.6808   46.8245   53.1370 C   0  0  0  0  0  0  0  0  0  0  0  0
   68.8199   47.2258   51.8262 C   0  0  0  0  0  0  0  0  0  0  0  0
   68.5555   46.4864   50.8582 O   0  0  0  0  0  0  0  0  0  0  0  0
   69.2622   48.4758   51.5792 N   0  0  0  0  0  0  0  0  0  0  0  0
   68.1993   48.7309   57.1382 C   0  0  0  0  0  0  0  0  0  0  0  0
   66.9773   48.6998   57.7235 C   0  0  0  0  0  0  0  0  0  0  0  0
   66.3385   49.8938   58.0245 C   0  0  0  0  0  0  0  0  0  0  0  0
   66.9397   51.0931   57.7319 C   0  0  0  0  0  0  0  0  0  0  0  0
   68.1878   51.1069   57.1336 C   0  0  0  0  0  0  0  0  0  0  0  0
   68.9269   52.6651   56.7722 Cl  0  0  0  0  0  0  0  0  0  0  0  0
   68.8193   49.9233   56.8357 C   0  0  0  0  0  0  0  0  0  0  0  0
   70.2611   47.3085   57.4222 C   0  0  0  0  0  0  0  0  0  0  0  0
   70.6249   46.1236   58.1471 C   0  0  0  0  0  0  0  0  0  0  0  0
   69.7581   45.6097   58.9477 O   0  0  0  0  0  0  0  0  0  0  0  0
   71.8106   45.4713   58.0759 O   0  0  0  0  0  0  0  0  0  0  0  0
  2  3  1  0
  3  4  2  0
  3 12  1  0
  4  5  1  0
  5  6  1  0
  5  9  2  0
  6  1  1  0
  6  7  2  0
  1 20  1  6
  1 13  1  0
 20 21  1  0
 21 22  2  0
 21 23  1  0
 13 14  2  0
 13 19  1  0
 14 15  1  0
 15 16  2  0
 16 17  1  0
 17 18  1  0
 17 19  2  0
  7  8  1  0
  8  9  1  0
  9 10  1  0
 10 11  2  0
 10 12  1  0
M  END
>  <minimizedAffinity>  (125) 
-8.93816

$$$$
data/reference_output_2/data/smiles/184737.pdb
     RDKit          3D

 24 27  0  0  0  0  0  0  0  0999 V2000
   68.3264   47.2523   55.5046 C   0  0  0  0  0  0  0  0  0  0  0  0
   68.2971   48.5805   56.1742 C   0  0  0  0  0  0  0  0  0  0  0  0
   67.8796   48.8863   57.4636 C   0  0  0  0  0  0  0  0  0  0  0  0
   67.9264   50.1893   57.9357 C   0  0  0  0  0  0  0  0  0  0  0  0
   68.3988   51.1722   57.0896 C   0  0  0  0  0  0  0  0  0  0  0  0
   68.8202   50.8706   55.7929 C   0  0  0  0  0  0  0  0  0  0  0  0
   68.7673   49.5672   55.3352 C   0  0  0  0  0  0  0  0  0  0  0  0
   69.1214   48.9406   54.0706 C   0  0  0  0  0  0  0  0  0  0  0  0
   69.6384   49.4265   52.8755 C   0  0  0  0  0  0  0  0  0  0  0  0
   69.8976   48.6054   51.7851 C   0  0  0  0  0  0  0  0  0  0  0  0
   69.6309   47.2532   51.8962 C   0  0  0  0  0  0  0  0  0  0  0  0
   69.1217   46.7747   53.0733 C   0  0  0  0  0  0  0  0  0  0  0  0
   68.8671   47.5937   54.1494 C   0  0  0  0  0  0  0  0  0  0  0  0
   69.3048   46.4054   56.1969 N   0  0  0  0  0  0  0  0  0  0  0  0
   68.2752   42.3518   56.3999 C   0  0  0  0  0  0  0  0  0  0  0  0
   67.6593   43.1991   55.5221 C   0  0  0  0  0  0  0  0  0  0  0  0
   67.9976   44.5081   55.4620 N   0  0  0  0  0  0  0  0  0  0  0  0
   68.9385   45.0200   56.2533 C   0  0  0  0  0  0  0  0  0  0  0  0
   69.5548   44.1880   57.1254 N   0  0  0  0  0  0  0  0  0  0  0  0
   69.2500   42.8889   57.2156 C   0  0  0  0  0  0  0  0  0  0  0  0
   67.5191   40.3823   55.3992 O   0  0  0  0  0  0  0  0  0  0  0  0
   67.9208   40.9434   56.4743 C   0  0  0  0  0  0  0  0  0  0  0  0
   67.9876   40.1536   57.6365 N   0  0  0  0  0  0  0  0  0  0  0  0
   67.6244   38.8377   57.5576 O   0  0  0  0  0  0  0  0  0  0  0  0
 21 22  2  0
 22 23  1  0
 22 15  1  0
 23 24  1  0
 15 16  2  0
 15 20  1  0
 16 17  1  0
 17 18  2  0
 18 14  1  0
 18 19  1  0
 14  1  1  0
  1  2  1  0
  1 13  1  0
  2  3  2  0
  2  7  1  0
  3  4  1  0
  4  5  2  0
  5  6  1  0
  6  7  2  0
  7  8  1  0
  8  9  2  0
  8 13  1  0
  9 10  1  0
 10 11  2  0
 11 12  1  0
 12 13  2  0
 19 20  2  0
M  END
>  <minimizedAffinity>  (126) 
-8.93791

$$$$
data/reference_output_2/data/smiles/198258.pdb
     RDKit          3D

 26 28  0  0  0  0  0  0  0  0999 V2000
   68.5607   41.9108   57.0338 C   0  0  0  0  0  0  0  0  0  0  0  0
   69.0089   43.1779   56.6582 C   0  0  0  0  0  0  0  0  0  0  0  0
   68.0933   43.8292   55.8506 C   0  0  0  0  0  0  0  0  0  0  0  0
   67.1303   42.9787   55.7316 O   0  0  0  0  0  0  0  0  0  0  0  0
   67.4061   41.8359   56.4295 N   0  0  0  0  0  0  0  0  0  0  0  0
   68.3590   45.1807   55.3752 C   0  0  0  0  0  0  0  0  0  0  0  0
   68.9014   46.2341   56.0683 C   0  0  0  0  0  0  0  0  0  0  0  0
   69.1426   47.4755   55.3996 C   0  0  0  0  0  0  0  0  0  0  0  0
   68.8518   47.6661   54.0837 C   0  0  0  0  0  0  0  0  0  0  0  0
   68.2886   46.5829   53.3379 C   0  0  0  0  0  0  0  0  0  0  0  0
   68.0731   45.4142   54.0068 C   0  0  0  0  0  0  0  0  0  0  0  0
   69.0045   48.8472   53.2702 N   0  0  0  0  0  0  0  0  0  0  0  0
   70.2254   48.9991   52.4926 C   0  0  0  0  0  0  0  0  0  0  0  0
   71.2678   49.3648   53.1946 N   0  0  0  0  0  0  0  0  0  0  0  0
   70.3560   48.7752   51.1241 N   0  0  0  0  0  0  0  0  0  0  0  0
   69.3903   39.7507   57.9713 N   0  0  0  0  0  0  0  0  0  0  0  0
   69.3620   41.1592   58.0704 C   0  0  0  0  0  0  0  0  0  0  0  0
   70.0139   41.6762   58.9584 O   0  0  0  0  0  0  0  0  0  0  0  0
   71.2044   36.2982   59.3241 C   0  0  0  0  0  0  0  0  0  0  0  0
   70.0827   36.7640   59.9357 C   0  0  0  0  0  0  0  0  0  0  0  0
   69.5839   38.0064   59.5817 C   0  0  0  0  0  0  0  0  0  0  0  0
   70.2136   38.7786   58.6019 C   0  0  0  0  0  0  0  0  0  0  0  0
   71.3557   38.2873   58.0163 C   0  0  0  0  0  0  0  0  0  0  0  0
   71.8840   37.0178   58.3678 C   0  0  0  0  0  0  0  0  0  0  0  0
   71.8442   33.7153   59.5904 N   0  0  0  0  0  0  0  0  0  0  0  0
   71.5688   34.8242   59.4782 C   0  0  0  0  0  0  0  0  0  0  0  0
 25 26  3  0
 26 19  1  0
 19 20  2  0
 19 24  1  0
 20 21  1  0
 21 22  2  0
 22 16  1  0
 22 23  1  0
 16 17  1  0
 17 18  2  0
 17  1  1  0
  1  2  1  0
  1  5  2  0
  2  3  2  0
  3  6  1  0
  3  4  1  0
  6  7  2  0
  6 11  1  0
  7  8  1  0
  8  9  2  0
  9 12  1  0
  9 10  1  0
 12 13  1  0
 13 14  2  0
 13 15  1  0
 10 11  2  0
  4  5  1  0
 23 24  2  0
M  CHG  1  14   1
M  END
>  <minimizedAffinity>  (127) 
-8.93767

$$$$
data/200k_reference_output/data/smiles/62946.pdb
     RDKit          3D

 24 27  0  0  0  0  0  0  0  0999 V2000
   68.4772   46.3980   55.4801 C   0  0  0  0  0  0  0  0  0  0  0  0
   68.6276   46.9888   56.5981 N   0  0  0  0  0  0  0  0  0  0  0  0
   69.1771   48.3064   56.7138 C   0  0  0  0  0  0  0  0  0  0  0  0
   68.1270   49.2431   57.3530 C   0  0  0  0  0  0  0  0  0  0  0  0
   68.9600   50.3206   57.9979 C   0  0  0  0  0  0  0  0  0  0  0  0
   70.3198   49.7312   58.2900 C   0  0  0  0  0  0  0  0  0  0  0  0
   70.3137   48.3232   57.7471 C   0  0  0  0  0  0  0  0  0  0  0  0
   69.6483   48.9701   55.4876 C   0  0  0  0  0  0  0  0  0  0  0  0
   69.4128   48.2787   54.2099 C   0  0  0  0  0  0  0  0  0  0  0  0
   69.7658   48.9076   53.0303 C   0  0  0  0  0  0  0  0  0  0  0  0
   69.5636   48.2544   51.8102 C   0  0  0  0  0  0  0  0  0  0  0  0
   69.0139   46.9919   51.8314 C   0  0  0  0  0  0  0  0  0  0  0  0
   68.6572   46.3568   53.0258 C   0  0  0  0  0  0  0  0  0  0  0  0
   68.8673   47.0254   54.2115 C   0  0  0  0  0  0  0  0  0  0  0  0
   67.9196   45.0917   55.4963 N   0  0  0  0  0  0  0  0  0  0  0  0
   66.8783   42.4393   55.6341 O   0  0  0  0  0  0  0  0  0  0  0  0
   67.9272   42.6995   56.2669 C   0  0  0  0  0  0  0  0  0  0  0  0
   68.4213   44.0034   56.1920 N   0  0  0  0  0  0  0  0  0  0  0  0
   68.5581   41.6209   57.0365 C   0  0  0  0  0  0  0  0  0  0  0  0
   69.7087   41.7758   57.7497 C   0  0  0  0  0  0  0  0  0  0  0  0
   70.2266   40.6792   58.4498 C   0  0  0  0  0  0  0  0  0  0  0  0
   69.6082   39.4471   58.4414 C   0  0  0  0  0  0  0  0  0  0  0  0
   68.4762   39.3269   57.7283 N   0  0  0  0  0  0  0  0  0  0  0  0
   67.9743   40.3746   57.0548 C   0  0  0  0  0  0  0  0  0  0  0  0
 16 17  2  0
 17 18  1  0
 17 19  1  0
 18 15  1  0
 15  1  1  0
  1  2  2  0
  1 14  1  0
  2  3  1  0
  3  4  1  0
  3  7  1  0
  3  8  1  0
  4  5  1  0
  5  6  1  0
  6  7  1  0
  8  9  1  0
  9 10  2  0
  9 14  1  0
 10 11  1  0
 11 12  2  0
 12 13  1  0
 13 14  2  0
 19 20  2  0
 19 24  1  0
 20 21  1  0
 21 22  2  0
 22 23  1  0
 23 24  2  0
M  CHG  1   2   1
M  END
>  <minimizedAffinity>  (128) 
-8.93524

$$$$
data/200k_reference_output/data/smiles/75118.pdb
     RDKit          3D

 21 23  0  0  0  0  0  0  0  0999 V2000
   66.6713   44.9861   50.7500 O   0  0  0  0  0  0  0  0  0  0  0  0
   67.3157   45.7526   51.5382 C   0  0  0  0  0  0  0  0  0  0  0  0
   68.1443   46.6451   50.9803 N   0  0  0  0  0  0  0  0  0  0  0  0
   68.8364   47.4698   51.8224 C   0  0  0  0  0  0  0  0  0  0  0  0
   69.6162   48.3019   51.3068 O   0  0  0  0  0  0  0  0  0  0  0  0
   68.7303   47.4333   53.1769 C   0  0  0  0  0  0  0  0  0  0  0  0
   69.4410   48.2727   54.0013 C   0  0  0  0  0  0  0  0  0  0  0  0
   69.1897   48.0637   55.3760 C   0  0  0  0  0  0  0  0  0  0  0  0
   68.3276   47.1258   55.8377 C   0  0  0  0  0  0  0  0  0  0  0  0
   68.1462   46.9872   57.0623 O   0  0  0  0  0  0  0  0  0  0  0  0
   67.6866   46.3660   55.0027 O   0  0  0  0  0  0  0  0  0  0  0  0
   67.8485   46.4771   53.6953 C   0  0  0  0  0  0  0  0  0  0  0  0
   67.1661   45.6649   52.8686 N   0  0  0  0  0  0  0  0  0  0  0  0
   70.3132   49.2970   53.5073 C   0  0  0  0  0  0  0  0  0  0  0  0
   69.8338   50.6510   53.1518 C   0  0  0  0  0  0  0  0  0  0  0  0
   69.7167   51.6698   54.1916 C   0  0  0  0  0  0  0  0  0  0  0  0
   69.1766   51.4698   55.4693 C   0  0  0  0  0  0  0  0  0  0  0  0
   68.0338   51.4267   56.1683 C   0  0  0  0  0  0  0  0  0  0  0  0
   68.0417   51.2200   57.5003 C   0  0  0  0  0  0  0  0  0  0  0  0
   69.1739   51.0508   58.1771 C   0  0  0  0  0  0  0  0  0  0  0  0
   70.3985   51.1981   56.7795 S   0  0  0  0  0  0  0  0  0  0  0  0
  1  2  2  0
  2  3  1  0
  2 13  1  0
  3  4  1  0
  4  5  2  0
  4  6  1  0
  6  7  1  0
  6 12  2  0
  7 14  1  0
  7  8  2  0
 14 15  1  0
 15 16  1  0
 16 17  1  0
 17 18  2  0
 17 21  1  0
 18 19  1  0
 19 20  2  0
 20 21  1  0
  8  9  1  0
  9 10  2  0
  9 11  1  0
 11 12  1  0
 12 13  1  0
M  END
>  <minimizedAffinity>  (129) 
-8.93415

$$$$
data/reference_output_2/data/smiles/173074.pdb
     RDKit          3D

 23 25  0  0  0  0  0  0  0  0999 V2000
   71.5288   51.4670   54.8678 C   0  0  0  0  0  0  0  0  0  0  0  0
   73.5988   52.4706   55.4691 O   0  0  0  0  0  0  0  0  0  0  0  0
   73.0095   51.4712   54.9724 C   0  0  0  0  0  0  0  0  0  0  0  0
   73.7322   50.3383   54.5067 N   0  0  0  0  0  0  0  0  0  0  0  0
   75.1228   50.3673   54.6159 N   0  0  0  0  0  0  0  0  0  0  0  0
   75.7610   50.0568   55.6894 C   0  0  0  0  0  0  0  0  0  0  0  0
   77.2057   50.0851   55.8037 C   0  0  0  0  0  0  0  0  0  0  0  0
   78.0134   49.0732   55.3533 C   0  0  0  0  0  0  0  0  0  0  0  0
   79.4006   49.1209   55.4722 C   0  0  0  0  0  0  0  0  0  0  0  0
   79.9899   50.2177   56.0610 C   0  0  0  0  0  0  0  0  0  0  0  0
   79.1535   51.2234   56.5065 C   0  0  0  0  0  0  0  0  0  0  0  0
   77.7963   51.1445   56.3735 N   0  0  0  0  0  0  0  0  0  0  0  0
   71.1530   50.7062   53.7083 N   0  0  0  0  0  0  0  0  0  0  0  0
   70.3340   49.5566   53.8086 C   0  0  0  0  0  0  0  0  0  0  0  0
   69.9118   49.1381   55.0693 C   0  0  0  0  0  0  0  0  0  0  0  0
   69.1250   48.0183   55.1790 C   0  0  0  0  0  0  0  0  0  0  0  0
   68.7370   47.2918   54.0785 C   0  0  0  0  0  0  0  0  0  0  0  0
   67.9335   46.1543   54.2216 C   0  0  0  0  0  0  0  0  0  0  0  0
   67.5879   45.4837   53.0882 C   0  0  0  0  0  0  0  0  0  0  0  0
   68.0065   45.8996   51.8449 C   0  0  0  0  0  0  0  0  0  0  0  0
   68.7997   47.0257   51.7187 C   0  0  0  0  0  0  0  0  0  0  0  0
   69.1666   47.7260   52.8528 C   0  0  0  0  0  0  0  0  0  0  0  0
   69.9642   48.8531   52.6895 C   0  0  0  0  0  0  0  0  0  0  0  0
  2  3  2  0
  3  1  1  0
  3  4  1  0
  1 13  1  0
 13 14  1  0
 14 15  2  0
 14 23  1  0
 15 16  1  0
 16 17  2  0
 17 18  1  0
 17 22  1  0
 18 19  2  0
 19 20  1  0
 20 21  2  0
 21 22  1  0
 22 23  2  0
  4  5  1  0
  5  6  2  0
  6  7  1  0
  7  8  2  0
  7 12  1  0
  8  9  1  0
  9 10  2  0
 10 11  1  0
 11 12  2  0
M  END
>  <minimizedAffinity>  (130) 
-8.93256

$$$$
data/reference_output_2/data/smiles/118146.pdb
     RDKit          3D

 24 25  0  0  0  0  0  0  0  0999 V2000
   73.5320   51.3090   54.7657 C   0  0  0  0  0  0  0  0  0  0  0  0
   74.0252   50.2425   55.1929 O   0  0  0  0  0  0  0  0  0  0  0  0
   72.3292   51.2119   54.0158 N   0  0  0  0  0  0  0  0  0  0  0  0
   71.6783   50.0126   53.7334 N   0  0  0  0  0  0  0  0  0  0  0  0
   70.2919   49.8589   53.6276 C   0  0  0  0  0  0  0  0  0  0  0  0
   69.5821   50.8871   53.8021 O   0  0  0  0  0  0  0  0  0  0  0  0
   69.6118   48.6045   53.3311 C   0  0  0  0  0  0  0  0  0  0  0  0
   68.8817   47.9246   54.2828 C   0  0  0  0  0  0  0  0  0  0  0  0
   68.2389   46.7262   53.9743 C   0  0  0  0  0  0  0  0  0  0  0  0
   68.3102   46.1794   52.7158 C   0  0  0  0  0  0  0  0  0  0  0  0
   69.0391   46.8538   51.7594 C   0  0  0  0  0  0  0  0  0  0  0  0
   69.6691   48.0381   52.0763 C   0  0  0  0  0  0  0  0  0  0  0  0
   70.4020   48.7118   51.1085 O   0  0  0  0  0  0  0  0  0  0  0  0
   74.2123   52.5851   55.0578 C   0  0  0  0  0  0  0  0  0  0  0  0
   73.1702   53.6188   55.3975 C   0  0  0  0  0  0  0  0  0  0  0  0
   72.5924   53.3511   56.7218 C   0  0  0  0  0  0  0  0  0  0  0  0
   73.2425   53.5767   57.7855 O   0  0  0  0  0  0  0  0  0  0  0  0
   67.3718   51.1166   57.3346 C   0  0  0  0  0  0  0  0  0  0  0  0
   68.7071   51.6987   57.1678 C   0  0  0  0  0  0  0  0  0  0  0  0
   69.7856   51.1455   57.8300 C   0  0  0  0  0  0  0  0  0  0  0  0
   71.0241   51.7141   57.6552 C   0  0  0  0  0  0  0  0  0  0  0  0
   71.2354   52.8089   56.8493 C   0  0  0  0  0  0  0  0  0  0  0  0
   70.1699   53.3568   56.1935 C   0  0  0  0  0  0  0  0  0  0  0  0
   68.9132   52.8138   56.3451 C   0  0  0  0  0  0  0  0  0  0  0  0
 18 19  1  0
 19 20  2  0
 19 24  1  0
 20 21  1  0
 21 22  2  0
 22 16  1  0
 22 23  1  0
 16 17  2  0
 16 15  1  0
 15 14  1  0
 14  1  1  0
  1  2  2  0
  1  3  1  0
  3  4  1  0
  4  5  1  0
  5  6  2  0
  5  7  1  0
  7  8  2  0
  7 12  1  0
  8  9  1  0
  9 10  2  0
 10 11  1  0
 11 12  2  0
 12 13  1  0
 23 24  2  0
M  END
>  <minimizedAffinity>  (131) 
-8.93195

$$$$
data/reference_output_2/data/smiles/187388.pdb
     RDKit          3D

 23 25  0  0  0  0  0  0  0  0999 V2000
   69.6481   47.7852   56.4046 C   0  0  1  0  0  0  0  0  0  0  0  0
   70.0792   49.1905   51.1414 N   0  0  0  0  0  0  0  0  0  0  0  0
   69.4115   48.1925   51.9416 C   0  0  0  0  0  0  0  0  0  0  0  0
   69.5875   48.2081   53.2736 N   0  0  0  0  0  0  0  0  0  0  0  0
   68.9324   47.2416   53.9852 C   0  0  0  0  0  0  0  0  0  0  0  0
   68.9292   47.0187   55.3502 C   0  0  0  0  0  0  0  0  0  0  0  0
   68.1031   45.9122   55.5281 C   0  0  0  0  0  0  0  0  0  0  0  0
   67.6521   45.5168   54.3312 N   0  0  0  0  0  0  0  0  0  0  0  0
   68.1377   46.3067   53.3559 C   0  0  0  0  0  0  0  0  0  0  0  0
   67.9869   46.3307   51.9744 C   0  0  0  0  0  0  0  0  0  0  0  0
   67.2585   45.4678   51.4331 O   0  0  0  0  0  0  0  0  0  0  0  0
   68.6378   47.2859   51.3038 N   0  0  0  0  0  0  0  0  0  0  0  0
   68.8439   48.9832   56.7227 C   0  0  0  0  0  0  0  0  0  0  0  0
   67.7358   48.8294   57.5179 C   0  0  0  0  0  0  0  0  0  0  0  0
   66.9502   49.9240   57.8496 C   0  0  0  0  0  0  0  0  0  0  0  0
   67.3015   51.1617   57.3702 C   0  0  0  0  0  0  0  0  0  0  0  0
   68.4203   51.3046   56.5699 C   0  0  0  0  0  0  0  0  0  0  0  0
   68.8851   52.8766   55.9475 Cl  0  0  0  0  0  0  0  0  0  0  0  0
   69.2144   50.2317   56.2275 C   0  0  0  0  0  0  0  0  0  0  0  0
   69.8256   46.9696   57.6605 C   0  0  0  0  0  0  0  0  0  0  0  0
   71.0578   47.3750   58.3997 C   0  0  0  0  0  0  0  0  0  0  0  0
   71.9458   48.0865   57.9164 O   0  0  0  0  0  0  0  0  0  0  0  0
   71.2352   46.9327   59.7204 O   0  0  0  0  0  0  0  0  0  0  0  0
  2  3  1  0
  3  4  2  0
  3 12  1  0
  4  5  1  0
  5  6  1  0
  5  9  2  0
  6  1  1  0
  6  7  2  0
  1 20  1  1
  1 13  1  0
 20 21  1  0
 21 22  2  0
 21 23  1  0
 13 14  2  0
 13 19  1  0
 14 15  1  0
 15 16  2  0
 16 17  1  0
 17 18  1  0
 17 19  2  0
  7  8  1  0
  8  9  1  0
  9 10  1  0
 10 11  2  0
 10 12  1  0
M  END
>  <minimizedAffinity>  (132) 
-8.93176

$$$$
data/200k_reference_output/data/smiles/36105.pdb
     RDKit          3D

 24 26  0  0  0  0  0  0  0  0999 V2000
   70.7187   45.3212   57.8663 C   0  0  0  0  0  0  0  0  0  0  0  0
   71.9792   45.3303   58.4167 C   0  0  0  0  0  0  0  0  0  0  0  0
   72.6456   46.5020   58.7372 C   0  0  0  0  0  0  0  0  0  0  0  0
   72.0547   47.7260   58.5097 C   0  0  0  0  0  0  0  0  0  0  0  0
   70.7969   47.7432   57.9609 C   0  0  0  0  0  0  0  0  0  0  0  0
   70.1368   46.5502   57.6427 C   0  0  0  0  0  0  0  0  0  0  0  0
   68.6679   41.7729   56.9117 C   0  0  0  0  0  0  0  0  0  0  0  0
   69.7992   41.7722   57.6916 C   0  0  0  0  0  0  0  0  0  0  0  0
   70.4063   42.9257   57.9614 N   0  0  0  0  0  0  0  0  0  0  0  0
   69.9785   44.1136   57.5125 C   0  0  0  0  0  0  0  0  0  0  0  0
   68.8798   44.1205   56.7545 N   0  0  0  0  0  0  0  0  0  0  0  0
   68.2187   42.9919   56.4446 C   0  0  0  0  0  0  0  0  0  0  0  0
   67.1735   42.9856   55.7242 O   0  0  0  0  0  0  0  0  0  0  0  0
   67.6665   40.2725   55.4358 O   0  0  0  0  0  0  0  0  0  0  0  0
   67.9966   40.5222   56.6103 C   0  0  0  0  0  0  0  0  0  0  0  0
   67.7195   39.6112   57.6012 O   0  0  0  0  0  0  0  0  0  0  0  0
   68.8628   46.5859   57.0872 O   0  0  0  0  0  0  0  0  0  0  0  0
   68.4439   47.6652   56.2593 C   0  0  0  0  0  0  0  0  0  0  0  0
   68.5356   47.3078   54.8260 C   0  0  0  0  0  0  0  0  0  0  0  0
   69.2623   48.0828   53.9303 C   0  0  0  0  0  0  0  0  0  0  0  0
   69.3600   47.7653   52.5882 C   0  0  0  0  0  0  0  0  0  0  0  0
   68.7215   46.6493   52.1177 C   0  0  0  0  0  0  0  0  0  0  0  0
   67.9981   45.8630   52.9648 C   0  0  0  0  0  0  0  0  0  0  0  0
   67.9061   46.1925   54.3150 C   0  0  0  0  0  0  0  0  0  0  0  0
 14 15  2  0
 15 16  1  0
 15  7  1  0
  7  8  2  0
  7 12  1  0
  8  9  1  0
  9 10  2  0
 10  1  1  0
 10 11  1  0
  1  2  2  0
  1  6  1  0
  2  3  1  0
  3  4  2  0
  4  5  1  0
  5  6  2  0
  6 17  1  0
 17 18  1  0
 18 19  1  0
 19 20  2  0
 19 24  1  0
 20 21  1  0
 21 22  2  0
 22 23  1  0
 23 24  2  0
 11 12  1  0
 12 13  2  0
M  END
>  <minimizedAffinity>  (133) 
-8.92636

$$$$
data/reference_output_2/data/smiles/122445.pdb
     RDKit          3D

 23 25  0  0  0  0  0  0  0  0999 V2000
   68.9707   44.9739   56.5846 C   0  0  0  0  0  0  0  0  0  0  0  0
   68.8004   43.6132   56.6990 C   0  0  0  0  0  0  0  0  0  0  0  0
   69.8385   43.0623   57.4624 C   0  0  0  0  0  0  0  0  0  0  0  0
   70.6042   44.1152   57.7827 N   0  0  0  0  0  0  0  0  0  0  0  0
   70.0937   45.2380   57.2678 N   0  0  0  0  0  0  0  0  0  0  0  0
   69.9970   41.6502   57.7847 C   0  0  0  0  0  0  0  0  0  0  0  0
   71.2127   41.1245   58.1557 C   0  0  0  0  0  0  0  0  0  0  0  0
   71.3655   39.7804   58.4742 C   0  0  0  0  0  0  0  0  0  0  0  0
   70.2967   38.9141   58.4327 C   0  0  0  0  0  0  0  0  0  0  0  0
   70.4263   37.5938   58.7422 F   0  0  0  0  0  0  0  0  0  0  0  0
   69.0698   39.4359   58.0608 C   0  0  0  0  0  0  0  0  0  0  0  0
   68.9253   40.7799   57.7432 C   0  0  0  0  0  0  0  0  0  0  0  0
   68.1193   45.8927   55.8812 N   0  0  0  0  0  0  0  0  0  0  0  0
   69.2199   47.7442   52.8886 C   0  0  0  0  0  0  0  0  0  0  0  0
   68.7217   46.9491   51.8761 C   0  0  0  0  0  0  0  0  0  0  0  0
   68.0299   45.8219   52.1835 C   0  0  0  0  0  0  0  0  0  0  0  0
   67.8340   45.4877   53.5239 C   0  0  0  0  0  0  0  0  0  0  0  0
   68.3199   46.2636   54.5440 C   0  0  0  0  0  0  0  0  0  0  0  0
   69.0171   47.3964   54.2325 C   0  0  0  0  0  0  0  0  0  0  0  0
   69.2922   50.5281   53.2143 N   0  0  0  0  0  0  0  0  0  0  0  0
   70.0975   49.1850   52.4652 S   0  0  0  0  0  0  0  0  0  0  0  0
   69.9982   49.3960   50.9676 O   0  0  0  0  0  0  0  0  0  0  0  0
   71.5237   49.1543   52.9268 O   0  0  0  0  0  0  0  0  0  0  0  0
 20 21  1  0
 21 22  2  0
 21 23  2  0
 21 14  1  0
 14 15  2  0
 14 19  1  0
 15 16  1  0
 16 17  2  0
 17 18  1  0
 18 13  1  0
 18 19  2  0
 13  1  1  0
  1  2  2  0
  1  5  1  0
  2  3  1  0
  3  6  1  0
  3  4  2  0
  6  7  2  0
  6 12  1  0
  7  8  1  0
  8  9  2  0
  9 10  1  0
  9 11  1  0
 11 12  2  0
  4  5  1  0
M  END
>  <minimizedAffinity>  (134) 
-8.92591

$$$$
data/reference_output_2/data/smiles/195418.pdb
     RDKit          3D

 22 23  0  0  0  0  0  0  0  0999 V2000
   71.1957   49.6710   53.3700 N   0  0  0  0  0  0  0  0  0  0  0  0
   71.9136   51.4822   54.8632 C   0  0  0  0  0  0  0  0  0  0  0  0
   71.5935   52.6018   55.5874 C   0  0  0  0  0  0  0  0  0  0  0  0
   70.3165   53.1314   55.6303 C   0  0  0  0  0  0  0  0  0  0  0  0
   69.3356   52.4789   54.8971 C   0  0  0  0  0  0  0  0  0  0  0  0
   69.6596   51.3560   54.1723 C   0  0  0  0  0  0  0  0  0  0  0  0
   70.9364   50.8423   54.1409 C   0  0  0  0  0  0  0  0  0  0  0  0
   74.6857   52.1005   55.3133 N   0  0  0  0  0  0  0  0  0  0  0  0
   73.5384   50.8961   54.8717 S   0  0  0  0  0  0  0  0  0  0  0  0
   73.7192   49.7380   55.8120 O   0  0  0  0  0  0  0  0  0  0  0  0
   73.8758   50.3763   53.4816 O   0  0  0  0  0  0  0  0  0  0  0  0
   70.0752   48.9062   52.3636 S   0  0  0  0  0  0  0  0  0  0  0  0
   70.8415   48.2971   51.1956 O   0  0  0  0  0  0  0  0  0  0  0  0
   69.1400   49.9060   51.7474 O   0  0  0  0  0  0  0  0  0  0  0  0
   69.1742   47.6180   53.0930 C   0  0  0  0  0  0  0  0  0  0  0  0
   69.1224   47.4836   54.4588 C   0  0  0  0  0  0  0  0  0  0  0  0
   68.3760   46.4278   54.9862 C   0  0  0  0  0  0  0  0  0  0  0  0
   67.7276   45.5709   54.1408 C   0  0  0  0  0  0  0  0  0  0  0  0
   67.7908   45.7210   52.7658 C   0  0  0  0  0  0  0  0  0  0  0  0
   67.1154   44.8217   52.0108 F   0  0  0  0  0  0  0  0  0  0  0  0
   68.5212   46.7562   52.2199 C   0  0  0  0  0  0  0  0  0  0  0  0
   68.5838   46.9045   50.8746 F   0  0  0  0  0  0  0  0  0  0  0  0
  8  9  1  0
  9 10  2  0
  9 11  2  0
  9  2  1  0
  2  3  2  0
  2  7  1  0
  3  4  1  0
  4  5  2  0
  5  6  1  0
  6  7  2  0
  7  1  1  0
  1 12  1  0
 12 13  2  0
 12 14  2  0
 12 15  1  0
 15 16  2  0
 15 21  1  0
 16 17  1  0
 17 18  2  0
 18 19  1  0
 19 20  1  0
 19 21  2  0
 21 22  1  0
M  END
>  <minimizedAffinity>  (135) 
-8.92584

$$$$
data/reference_output_2/data/smiles/148272.pdb
     RDKit          3D

 25 27  0  0  0  0  0  0  0  0999 V2000
   67.4227   42.2395   56.2058 C   0  0  0  0  0  0  0  0  0  0  0  0
   68.6428   42.3830   56.9921 C   0  0  0  0  0  0  0  0  0  0  0  0
   69.1814   43.5580   57.0955 N   0  0  0  0  0  0  0  0  0  0  0  0
   68.6191   44.6779   56.4714 N   0  0  0  0  0  0  0  0  0  0  0  0
   69.1801   45.9714   56.5181 C   0  0  0  0  0  0  0  0  0  0  0  0
   70.2636   46.0901   57.1762 O   0  0  0  0  0  0  0  0  0  0  0  0
   68.6205   47.1664   55.8773 C   0  0  2  0  0  0  0  0  0  0  0  0
   67.3266   47.3811   56.4024 O   0  0  0  0  0  0  0  0  0  0  0  0
   68.5657   46.9729   54.4008 C   0  0  0  0  0  0  0  0  0  0  0  0
   67.7784   45.9834   53.8301 C   0  0  0  0  0  0  0  0  0  0  0  0
   67.7330   45.8108   52.4615 C   0  0  0  0  0  0  0  0  0  0  0  0
   68.4619   46.6069   51.6029 C   0  0  0  0  0  0  0  0  0  0  0  0
   69.2460   47.5930   52.1634 C   0  0  0  0  0  0  0  0  0  0  0  0
   69.2920   47.7665   53.5356 C   0  0  0  0  0  0  0  0  0  0  0  0
   69.2717   41.2369   57.6654 C   0  0  0  0  0  0  0  0  0  0  0  0
   68.6249   40.1322   57.9383 C   0  0  0  0  0  0  0  0  0  0  0  0
   69.1936   38.9642   58.6015 C   0  0  0  0  0  0  0  0  0  0  0  0
   68.5162   38.3598   59.6505 C   0  0  0  0  0  0  0  0  0  0  0  0
   69.0193   37.2511   60.3092 C   0  0  0  0  0  0  0  0  0  0  0  0
   70.2306   36.6984   59.9395 C   0  0  0  0  0  0  0  0  0  0  0  0
   70.9229   37.2790   58.9003 C   0  0  0  0  0  0  0  0  0  0  0  0
   70.3962   38.3955   58.2532 C   0  0  0  0  0  0  0  0  0  0  0  0
   72.1127   36.5479   58.7102 O   0  0  0  0  0  0  0  0  0  0  0  0
   71.8816   35.2985   59.3341 C   0  0  0  0  0  0  0  0  0  0  0  0
   70.9949   35.6255   60.3734 O   0  0  0  0  0  0  0  0  0  0  0  0
  1  2  1  0
  2 15  1  0
  2  3  2  0
 15 16  2  0
 16 17  1  0
 17 18  2  0
 17 22  1  0
 18 19  1  0
 19 20  2  0
 20 21  1  0
 20 25  1  0
 21 22  2  0
 21 23  1  0
 23 24  1  0
 24 25  1  0
  3  4  1  0
  4  5  1  0
  5  6  2  0
  5  7  1  0
  7  8  1  1
  7  9  1  0
  9 10  2  0
  9 14  1  0
 10 11  1  0
 11 12  2  0
 12 13  1  0
 13 14  2  0
M  END
>  <minimizedAffinity>  (136) 
-8.92461

$$$$
data/reference_output_2/data/smiles/121166.pdb
     RDKit          3D

 23 25  0  0  0  0  0  0  0  0999 V2000
   68.7111   45.5611   55.8341 C   0  0  0  0  0  0  0  0  0  0  0  0
   67.9054   44.8682   55.1733 O   0  0  0  0  0  0  0  0  0  0  0  0
   69.3955   44.8766   56.9066 N   0  0  0  0  0  0  0  0  0  0  0  0
   69.1101   43.5274   57.1156 N   0  0  0  0  0  0  0  0  0  0  0  0
   69.8937   42.7187   57.7306 C   0  0  0  0  0  0  0  0  0  0  0  0
   69.5676   41.3084   57.9357 C   0  0  0  0  0  0  0  0  0  0  0  0
   68.3372   40.7096   57.7905 C   0  0  0  0  0  0  0  0  0  0  0  0
   68.4502   39.3924   58.0700 N   0  0  0  0  0  0  0  0  0  0  0  0
   69.7402   39.0923   58.4023 C   0  0  0  0  0  0  0  0  0  0  0  0
   70.3686   37.9216   58.7638 C   0  0  0  0  0  0  0  0  0  0  0  0
   71.7140   37.9099   59.0528 C   0  0  0  0  0  0  0  0  0  0  0  0
   72.4067   39.0961   58.9697 C   0  0  0  0  0  0  0  0  0  0  0  0
   71.7605   40.2551   58.6072 C   0  0  0  0  0  0  0  0  0  0  0  0
   70.4147   40.2944   58.3124 C   0  0  0  0  0  0  0  0  0  0  0  0
   68.9738   46.9885   55.5681 C   0  0  0  0  0  0  0  0  0  0  0  0
   68.2298   47.5922   54.4389 C   0  0  0  0  0  0  0  0  0  0  0  0
   70.4514   49.4606   53.4696 C   0  0  0  0  0  0  0  0  0  0  0  0
   69.8800   48.3567   52.6650 C   0  0  0  0  0  0  0  0  0  0  0  0
   70.2039   47.9883   51.4139 N   0  0  0  0  0  0  0  0  0  0  0  0
   69.4608   46.9547   51.0584 N   0  0  0  0  0  0  0  0  0  0  0  0
   68.6296   46.6275   52.0834 C   0  0  0  0  0  0  0  0  0  0  0  0
   67.6382   45.5291   52.0405 C   0  0  0  0  0  0  0  0  0  0  0  0
   68.8742   47.4999   53.1160 C   0  0  0  0  0  0  0  0  0  0  0  0
 17 18  1  0
 18 19  2  0
 18 23  1  0
 19 20  1  0
 20 21  1  0
 21 22  1  0
 21 23  2  0
 23 16  1  0
 16 15  1  0
 15  1  1  0
  1  2  2  0
  1  3  1  0
  3  4  1  0
  4  5  2  0
  5  6  1  0
  6  7  2  0
  6 14  1  0
  7  8  1  0
  8  9  1  0
  9 10  1  0
  9 14  2  0
 10 11  2  0
 11 12  1  0
 12 13  2  0
 13 14  1  0
M  END
>  <minimizedAffinity>  (137) 
-8.92358

$$$$
data/200k_reference_output/data/smiles/37795.pdb
     RDKit          3D

 24 26  0  0  0  0  0  0  0  0999 V2000
   72.2338   51.0820   54.7596 C   0  0  2  0  0  0  0  0  0  0  0  0
   70.1763   50.8259   52.8771 O   0  0  0  0  0  0  0  0  0  0  0  0
   70.4689   49.7687   53.5277 C   0  0  0  0  0  0  0  0  0  0  0  0
   71.4981   49.8733   54.4771 N   0  0  0  0  0  0  0  0  0  0  0  0
   69.7156   48.5550   53.2304 C   0  0  0  0  0  0  0  0  0  0  0  0
   69.7627   47.9533   51.9922 C   0  0  0  0  0  0  0  0  0  0  0  0
   69.0269   46.7882   51.7408 C   0  0  0  0  0  0  0  0  0  0  0  0
   68.2378   46.2036   52.7053 C   0  0  0  0  0  0  0  0  0  0  0  0
   67.5170   45.0732   52.4802 F   0  0  0  0  0  0  0  0  0  0  0  0
   68.1946   46.8103   53.9429 C   0  0  0  0  0  0  0  0  0  0  0  0
   68.9190   47.9540   54.1834 C   0  0  0  0  0  0  0  0  0  0  0  0
   73.6988   50.8888   54.6174 C   0  0  0  0  0  0  0  0  0  0  0  0
   74.1496   50.2099   53.6718 O   0  0  0  0  0  0  0  0  0  0  0  0
   74.6023   51.4379   55.5033 O   0  0  0  0  0  0  0  0  0  0  0  0
   71.9886   51.4148   56.2278 C   0  0  0  0  0  0  0  0  0  0  0  0
   70.5782   51.8078   56.4796 C   0  0  0  0  0  0  0  0  0  0  0  0
   70.0226   53.0816   56.3155 C   0  0  0  0  0  0  0  0  0  0  0  0
   68.7181   53.0354   56.6453 N   0  0  0  0  0  0  0  0  0  0  0  0
   68.3909   51.7913   57.0177 C   0  0  0  0  0  0  0  0  0  0  0  0
   67.1908   51.2620   57.4351 C   0  0  0  0  0  0  0  0  0  0  0  0
   67.1259   49.9212   57.7663 C   0  0  0  0  0  0  0  0  0  0  0  0
   68.2616   49.1441   57.6718 C   0  0  0  0  0  0  0  0  0  0  0  0
   69.4687   49.7076   57.2444 C   0  0  0  0  0  0  0  0  0  0  0  0
   69.5277   51.0321   56.9185 C   0  0  0  0  0  0  0  0  0  0  0  0
  2  3  2  0
  3  4  1  0
  3  5  1  0
  4  1  1  0
  1 15  1  1
  1 12  1  0
 15 16  1  0
 16 17  2  0
 16 24  1  0
 17 18  1  0
 18 19  1  0
 19 20  1  0
 19 24  2  0
 20 21  2  0
 21 22  1  0
 22 23  2  0
 23 24  1  0
 12 13  2  0
 12 14  1  0
  5  6  2  0
  5 11  1  0
  6  7  1  0
  7  8  2  0
  8  9  1  0
  8 10  1  0
 10 11  2  0
M  END
>  <minimizedAffinity>  (138) 
-8.92167

$$$$
data/200k_reference_output/data/smiles/48135.pdb
     RDKit          3D

 26 30  0  0  0  0  0  0  0  0999 V2000
   74.4650   35.2042   54.2844 N   0  0  0  0  0  0  0  0  0  0  0  0
   75.6784   35.3825   54.8429 C   0  0  0  0  0  0  0  0  0  0  0  0
   76.8545   35.2433   54.1699 C   0  0  0  0  0  0  0  0  0  0  0  0
   76.8305   34.8984   52.8345 C   0  0  0  0  0  0  0  0  0  0  0  0
   75.6056   34.7071   52.2259 C   0  0  0  0  0  0  0  0  0  0  0  0
   74.4599   34.8660   52.9677 C   0  0  0  0  0  0  0  0  0  0  0  0
   75.6030   34.3360   50.8171 C   0  0  0  0  0  0  0  0  0  0  0  0
   74.6789   33.5018   50.2242 C   0  0  0  0  0  0  0  0  0  0  0  0
   74.9657   33.3761   48.9131 N   0  0  0  0  0  0  0  0  0  0  0  0
   76.0650   34.1165   48.6368 C   0  0  0  0  0  0  0  0  0  0  0  0
   76.7886   34.3509   47.4801 C   0  0  0  0  0  0  0  0  0  0  0  0
   77.8895   35.1733   47.5305 C   0  0  0  0  0  0  0  0  0  0  0  0
   78.2999   35.7765   48.7048 C   0  0  0  0  0  0  0  0  0  0  0  0
   77.5705   35.5418   49.8745 C   0  0  0  0  0  0  0  0  0  0  0  0
   76.4720   34.7195   49.8172 C   0  0  0  0  0  0  0  0  0  0  0  0
   73.2301   35.3557   55.0299 C   0  0  0  0  0  0  0  0  0  0  0  0
   73.4431   34.9124   56.4515 C   0  0  0  0  0  0  0  0  0  0  0  0
   70.4576   34.6194   60.8359 C   0  0  0  0  0  0  0  0  0  0  0  0
   71.1552   33.5978   60.2130 C   0  0  0  0  0  0  0  0  0  0  0  0
   71.8918   33.8566   59.0657 C   0  0  0  0  0  0  0  0  0  0  0  0
   71.9344   35.1262   58.5373 C   0  0  0  0  0  0  0  0  0  0  0  0
   72.5926   35.6080   57.4166 C   0  0  0  0  0  0  0  0  0  0  0  0
   72.2756   36.9495   57.3757 C   0  0  0  0  0  0  0  0  0  0  0  0
   71.4784   37.2498   58.4072 N   0  0  0  0  0  0  0  0  0  0  0  0
   71.2393   36.1573   59.1529 C   0  0  0  0  0  0  0  0  0  0  0  0
   70.5247   35.8771   60.2776 C   0  0  0  0  0  0  0  0  0  0  0  0
 18 19  2  0
 18 26  1  0
 19 20  1  0
 20 21  2  0
 21 22  1  0
 21 25  1  0
 22 17  1  0
 22 23  2  0
 17 16  1  0
 16  1  1  0
  1  2  2  0
  1  6  1  0
  2  3  1  0
  3  4  2  0
  4  5  1  0
  5  7  1  0
  5  6  2  0
  7  8  2  0
  7 15  1  0
  8  9  1  0
  9 10  1  0
 10 11  1  0
 10 15  2  0
 11 12  2  0
 12 13  1  0
 13 14  2  0
 14 15  1  0
 23 24  1  0
 24 25  1  0
 25 26  2  0
M  CHG  1   1   1
M  END
>  <minimizedAffinity>  (139) 
-8.92035

$$$$
data/reference_output_2/data/smiles/176510.pdb
     RDKit          3D

 24 26  0  0  0  0  0  0  0  0999 V2000
   70.2821   43.0012   57.3909 O   0  0  0  0  0  0  0  0  0  0  0  0
   69.1411   42.5071   57.1991 C   0  0  0  0  0  0  0  0  0  0  0  0
   68.1854   43.3393   56.5513 N   0  0  0  0  0  0  0  0  0  0  0  0
   68.8681   41.1576   57.6363 C   0  0  0  0  0  0  0  0  0  0  0  0
   67.6874   40.4465   57.6714 C   0  0  0  0  0  0  0  0  0  0  0  0
   67.9323   39.2082   58.1651 N   0  0  0  0  0  0  0  0  0  0  0  0
   69.2511   39.0854   58.4567 C   0  0  0  0  0  0  0  0  0  0  0  0
   69.9883   38.0383   58.9747 C   0  0  0  0  0  0  0  0  0  0  0  0
   71.3394   38.1933   59.1721 C   0  0  0  0  0  0  0  0  0  0  0  0
   71.9401   39.3950   58.8510 C   0  0  0  0  0  0  0  0  0  0  0  0
   71.1966   40.4315   58.3361 C   0  0  0  0  0  0  0  0  0  0  0  0
   69.8288   40.2941   58.1290 C   0  0  0  0  0  0  0  0  0  0  0  0
   68.5345   44.6387   56.1606 N   0  0  0  0  0  0  0  0  0  0  0  0
   68.1679   45.1853   55.0760 C   0  0  0  0  0  0  0  0  0  0  0  0
   68.5408   46.5468   54.6806 C   0  0  0  0  0  0  0  0  0  0  0  0
   68.9865   46.8387   53.4100 C   0  0  0  0  0  0  0  0  0  0  0  0
   69.3501   48.1026   52.9864 C   0  0  0  0  0  0  0  0  0  0  0  0
   69.2487   49.1147   53.9224 C   0  0  0  0  0  0  0  0  0  0  0  0
   68.8090   48.8766   55.2070 C   0  0  0  0  0  0  0  0  0  0  0  0
   68.4542   47.5836   55.5847 C   0  0  0  0  0  0  0  0  0  0  0  0
   68.0082   47.2989   56.8602 O   0  0  0  0  0  0  0  0  0  0  0  0
   69.8042   48.3725   51.6747 N   0  0  0  0  0  0  0  0  0  0  0  0
   70.1960   47.4376   50.9682 O   0  0  0  0  0  0  0  0  0  0  0  0
   69.8179   49.6438   51.1773 O   0  0  0  0  0  0  0  0  0  0  0  0
  1  2  2  0
  2  3  1  0
  2  4  1  0
  3 13  1  0
 13 14  2  0
 14 15  1  0
 15 16  2  0
 15 20  1  0
 16 17  1  0
 17 22  1  0
 17 18  2  0
 22 23  2  0
 22 24  1  0
 18 19  1  0
 19 20  2  0
 20 21  1  0
  4  5  2  0
  4 12  1  0
  5  6  1  0
  6  7  1  0
  7  8  1  0
  7 12  2  0
  8  9  2  0
  9 10  1  0
 10 11  2  0
 11 12  1  0
M  CHG  2  22   1  24  -1
M  END
>  <minimizedAffinity>  (140) 
-8.92025

$$$$
data/reference_output_2/data/smiles/104615.pdb
     RDKit          3D

 26 29  0  0  0  0  0  0  0  0999 V2000
   71.0009   45.6548   58.2152 C   0  0  0  0  0  0  0  0  0  0  0  0
   71.9822   46.4198   58.7885 C   0  0  0  0  0  0  0  0  0  0  0  0
   72.0229   47.8085   58.5986 C   0  0  0  0  0  0  0  0  0  0  0  0
   71.0509   48.4045   57.8172 C   0  0  0  0  0  0  0  0  0  0  0  0
   70.0598   47.6696   57.2295 C   0  0  0  0  0  0  0  0  0  0  0  0
   70.0650   46.2911   57.4517 C   0  0  0  0  0  0  0  0  0  0  0  0
   72.4005   40.8235   58.6305 C   0  0  0  0  0  0  0  0  0  0  0  0
   71.5365   41.9591   58.4221 N   0  0  0  0  0  0  0  0  0  0  0  0
   70.0901   42.0295   58.5701 C   0  0  0  0  0  0  0  0  0  0  0  0
   69.9833   43.4508   59.0801 C   0  0  0  0  0  0  0  0  0  0  0  0
   69.1706   43.8838   59.9253 O   0  0  0  0  0  0  0  0  0  0  0  0
   70.9865   44.2303   58.4237 N   0  0  0  0  0  0  0  0  0  0  0  0
   71.9619   43.2822   58.0121 C   0  0  0  0  0  0  0  0  0  0  0  0
   73.0413   43.4709   57.3923 O   0  0  0  0  0  0  0  0  0  0  0  0
   68.9781   48.2424   56.3540 C   0  0  0  0  0  0  0  0  0  0  0  0
   69.3521   48.3074   54.9456 C   0  0  0  0  0  0  0  0  0  0  0  0
   70.2290   49.2736   54.5498 N   0  0  0  0  0  0  0  0  0  0  0  0
   70.5990   49.4382   53.3003 N   0  0  0  0  0  0  0  0  0  0  0  0
   70.1388   48.6617   52.3127 C   0  0  0  0  0  0  0  0  0  0  0  0
   70.5044   48.8381   51.1329 O   0  0  0  0  0  0  0  0  0  0  0  0
   69.2472   47.6630   52.6473 C   0  0  0  0  0  0  0  0  0  0  0  0
   68.7601   46.8414   51.6711 C   0  0  0  0  0  0  0  0  0  0  0  0
   67.8798   45.8264   51.9608 C   0  0  0  0  0  0  0  0  0  0  0  0
   67.4847   45.6464   53.2846 C   0  0  0  0  0  0  0  0  0  0  0  0
   67.9878   46.4832   54.2416 C   0  0  0  0  0  0  0  0  0  0  0  0
   68.8609   47.4943   53.9640 C   0  0  0  0  0  0  0  0  0  0  0  0
  7  8  1  0
  8  9  1  0
  8 13  1  0
  9 10  1  0
 10 11  2  0
 10 12  1  0
 12  1  1  0
 12 13  1  0
  1  2  2  0
  1  6  1  0
  2  3  1  0
  3  4  2  0
  4  5  1  0
  5 15  1  0
  5  6  2  0
 15 16  1  0
 16 17  2  0
 16 26  1  0
 17 18  1  0
 18 19  1  0
 19 20  2  0
 19 21  1  0
 21 22  1  0
 21 26  2  0
 22 23  2  0
 23 24  1  0
 24 25  2  0
 25 26  1  0
 13 14  2  0
M  END
>  <minimizedAffinity>  (141) 
-8.91703

$$$$
data/reference_output_2/data/smiles/183527.pdb
     RDKit          3D

 24 26  0  0  0  0  0  0  0  0999 V2000
   73.6144   50.2856   55.7624 N   0  0  0  0  0  0  0  0  0  0  0  0
   72.9611   50.9333   54.6894 C   0  0  0  0  0  0  0  0  0  0  0  0
   73.6216   51.7423   54.0003 O   0  0  0  0  0  0  0  0  0  0  0  0
   71.5184   50.6517   54.3944 C   0  0  0  0  0  0  0  0  0  0  0  0
   70.5678   51.6655   54.3811 C   0  0  0  0  0  0  0  0  0  0  0  0
   69.0227   50.7305   53.9681 S   0  0  0  0  0  0  0  0  0  0  0  0
   69.9636   49.1300   53.8911 C   0  0  0  0  0  0  0  0  0  0  0  0
   71.0107   49.4563   54.1240 N   0  0  0  0  0  0  0  0  0  0  0  0
   69.1485   47.8718   53.5580 C   0  0  0  0  0  0  0  0  0  0  0  0
   68.8119   47.0639   54.5871 C   0  0  0  0  0  0  0  0  0  0  0  0
   68.0668   45.8976   54.3498 C   0  0  0  0  0  0  0  0  0  0  0  0
   67.6794   45.5786   53.0657 C   0  0  0  0  0  0  0  0  0  0  0  0
   68.0371   46.4220   52.0375 C   0  0  0  0  0  0  0  0  0  0  0  0
   67.6598   46.1145   50.7733 F   0  0  0  0  0  0  0  0  0  0  0  0
   68.7822   47.5848   52.2900 C   0  0  0  0  0  0  0  0  0  0  0  0
   75.7033   49.0698   54.4768 O   0  0  0  0  0  0  0  0  0  0  0  0
   76.0203   49.8703   55.3945 C   0  0  0  0  0  0  0  0  0  0  0  0
   74.9596   50.5151   56.0769 N   0  0  0  0  0  0  0  0  0  0  0  0
   77.4304   50.0996   55.7111 C   0  0  0  0  0  0  0  0  0  0  0  0
   78.3669   49.1585   55.3942 C   0  0  0  0  0  0  0  0  0  0  0  0
   79.7206   49.3580   55.6884 C   0  0  0  0  0  0  0  0  0  0  0  0
   80.1219   50.5217   56.3087 C   0  0  0  0  0  0  0  0  0  0  0  0
   79.1402   51.4522   56.6140 C   0  0  0  0  0  0  0  0  0  0  0  0
   77.8312   51.2315   56.3162 N   0  0  0  0  0  0  0  0  0  0  0  0
 16 17  2  0
 17 18  1  0
 17 19  1  0
 18  1  1  0
  1  2  1  0
  2  3  2  0
  2  4  1  0
  4  5  2  0
  4  8  1  0
  5  6  1  0
  6  7  1  0
  7  9  1  0
  7  8  2  0
  9 10  2  0
  9 15  1  0
 10 11  1  0
 11 12  2  0
 12 13  1  0
 13 14  1  0
 13 15  2  0
 19 20  2  0
 19 24  1  0
 20 21  1  0
 21 22  2  0
 22 23  1  0
 23 24  2  0
M  END
>  <minimizedAffinity>  (142) 
-8.91616

$$$$
data/200k_reference_output/data/smiles/17912.pdb
     RDKit          3D

 24 26  0  0  0  0  0  0  0  0999 V2000
   67.9403   41.6578   57.9873 C   0  0  0  0  0  0  0  0  0  0  0  0
   68.5222   42.6244   56.9840 C   0  0  0  0  0  0  0  0  0  0  0  0
   69.7560   42.6881   56.8519 O   0  0  0  0  0  0  0  0  0  0  0  0
   67.7162   43.4495   56.1901 N   0  0  0  0  0  0  0  0  0  0  0  0
   68.0578   44.3729   55.2253 N   0  0  0  0  0  0  0  0  0  0  0  0
   68.3264   45.7366   55.3248 C   0  0  0  0  0  0  0  0  0  0  0  0
   68.2731   46.2866   56.4437 O   0  0  0  0  0  0  0  0  0  0  0  0
   68.6762   46.5974   54.1726 C   0  0  0  0  0  0  0  0  0  0  0  0
   68.4077   46.1599   52.8887 C   0  0  0  0  0  0  0  0  0  0  0  0
   68.7397   46.9597   51.7876 C   0  0  0  0  0  0  0  0  0  0  0  0
   69.3344   48.1894   51.9521 C   0  0  0  0  0  0  0  0  0  0  0  0
   69.5855   48.5986   53.2249 C   0  0  0  0  0  0  0  0  0  0  0  0
   69.2643   47.8171   54.3369 C   0  0  0  0  0  0  0  0  0  0  0  0
   69.1234   41.4747   59.3898 S   0  0  0  0  0  0  0  0  0  0  0  0
   73.0497   35.0606   57.3193 C   0  0  0  0  0  0  0  0  0  0  0  0
   72.1478   36.0124   58.0526 C   0  0  0  0  0  0  0  0  0  0  0  0
   71.4009   35.5615   59.1273 C   0  0  0  0  0  0  0  0  0  0  0  0
   70.5568   36.4358   59.7913 C   0  0  0  0  0  0  0  0  0  0  0  0
   70.4280   37.7737   59.4129 C   0  0  0  0  0  0  0  0  0  0  0  0
   69.6958   38.7931   59.8668 N   0  0  0  0  0  0  0  0  0  0  0  0
   69.9583   39.8978   59.1008 C   0  0  0  0  0  0  0  0  0  0  0  0
   70.8436   39.5228   58.2020 N   0  0  0  0  0  0  0  0  0  0  0  0
   71.1785   38.2053   58.3440 C   0  0  0  0  0  0  0  0  0  0  0  0
   72.0174   37.3292   57.6882 C   0  0  0  0  0  0  0  0  0  0  0  0
 15 16  1  0
 16 17  2  0
 16 24  1  0
 17 18  1  0
 18 19  2  0
 19 20  1  0
 19 23  1  0
 20 21  1  0
 21 14  1  0
 21 22  2  0
 14  1  1  0
  1  2  1  0
  2  3  2  0
  2  4  1  0
  4  5  1  0
  5  6  1  0
  6  7  2  0
  6  8  1  0
  8  9  2  0
  8 13  1  0
  9 10  1  0
 10 11  2  0
 11 12  1  0
 12 13  2  0
 22 23  1  0
 23 24  2  0
M  CHG  1  22   1
M  END
>  <minimizedAffinity>  (143) 
-8.91403

$$$$
data/reference_output_2/data/smiles/98172.pdb
     RDKit          3D

 22 23  0  0  0  0  0  0  0  0999 V2000
   68.0939   45.9656   55.7229 N   0  0  0  0  0  0  0  0  0  0  0  0
   68.2615   46.2954   54.3551 C   0  0  0  0  0  0  0  0  0  0  0  0
   67.5823   45.5885   53.3928 C   0  0  0  0  0  0  0  0  0  0  0  0
   67.6807   45.8578   52.0554 C   0  0  0  0  0  0  0  0  0  0  0  0
   67.0020   45.1415   51.1432 F   0  0  0  0  0  0  0  0  0  0  0  0
   68.4899   46.8773   51.6265 C   0  0  0  0  0  0  0  0  0  0  0  0
   69.1939   47.6173   52.5589 C   0  0  0  0  0  0  0  0  0  0  0  0
   69.0682   47.3162   53.8915 C   0  0  0  0  0  0  0  0  0  0  0  0
   70.0706   48.7388   52.0856 C   0  0  0  0  0  0  0  0  0  0  0  0
   70.9980   49.1002   53.0752 F   0  0  0  0  0  0  0  0  0  0  0  0
   69.3145   49.8840   51.8788 F   0  0  0  0  0  0  0  0  0  0  0  0
   70.6856   48.4287   50.9002 F   0  0  0  0  0  0  0  0  0  0  0  0
   70.9247   47.2145   58.6072 C   0  0  0  0  0  0  0  0  0  0  0  0
   70.2170   48.1445   57.8435 C   0  0  0  0  0  0  0  0  0  0  0  0
   69.3175   47.7092   56.9362 N   0  0  0  0  0  0  0  0  0  0  0  0
   69.0469   46.4350   56.7088 C   0  0  0  0  0  0  0  0  0  0  0  0
   69.7272   45.5102   57.4418 N   0  0  0  0  0  0  0  0  0  0  0  0
   70.6432   45.8995   58.3694 C   0  0  0  0  0  0  0  0  0  0  0  0
   72.8898   48.3486   59.2206 O   0  0  0  0  0  0  0  0  0  0  0  0
   71.9063   47.6408   59.5964 C   0  0  0  0  0  0  0  0  0  0  0  0
   71.8619   47.3282   60.9755 N   0  0  0  0  0  0  0  0  0  0  0  0
   72.8109   47.7521   61.8570 O   0  0  0  0  0  0  0  0  0  0  0  0
 19 20  2  0
 20 21  1  0
 20 13  1  0
 21 22  1  0
 13 14  2  0
 13 18  1  0
 14 15  1  0
 15 16  2  0
 16  1  1  0
 16 17  1  0
  1  2  1  0
  2  3  2  0
  2  8  1  0
  3  4  1  0
  4  5  1  0
  4  6  2  0
  6  7  1  0
  7  9  1  0
  7  8  2  0
  9 10  1  0
  9 11  1  0
  9 12  1  0
 17 18  2  0
M  END
>  <minimizedAffinity>  (144) 
-8.91187

$$$$
data/200k_reference_output/data/smiles/74885.pdb
     RDKit          3D

 24 27  0  0  0  0  0  0  0  0999 V2000
   68.1824   45.5492   55.1121 C   0  0  0  0  0  0  0  0  0  0  0  0
   68.4739   46.1810   56.2617 N   0  0  0  0  0  0  0  0  0  0  0  0
   68.9864   47.4304   56.2972 C   0  0  0  0  0  0  0  0  0  0  0  0
   69.2883   48.0707   57.4811 C   0  0  0  0  0  0  0  0  0  0  0  0
   69.8102   49.3302   57.4990 C   0  0  0  0  0  0  0  0  0  0  0  0
   70.0817   49.8885   58.6926 F   0  0  0  0  0  0  0  0  0  0  0  0
   70.0422   49.9792   56.3114 C   0  0  0  0  0  0  0  0  0  0  0  0
   69.7490   49.3604   55.1200 C   0  0  0  0  0  0  0  0  0  0  0  0
   69.2167   48.0775   55.0872 C   0  0  0  0  0  0  0  0  0  0  0  0
   68.9376   47.4771   53.9252 N   0  0  0  0  0  0  0  0  0  0  0  0
   69.0678   47.8962   52.6620 C   0  0  0  0  0  0  0  0  0  0  0  0
   68.6332   46.9073   51.7873 C   0  0  0  0  0  0  0  0  0  0  0  0
   68.2336   45.8669   52.6163 C   0  0  0  0  0  0  0  0  0  0  0  0
   68.4213   46.2157   53.9369 C   0  0  0  0  0  0  0  0  0  0  0  0
   67.6556   44.2384   55.1159 N   0  0  0  0  0  0  0  0  0  0  0  0
   66.5488   41.8105   55.2561 O   0  0  0  0  0  0  0  0  0  0  0  0
   67.2747   42.1240   56.2606 C   0  0  0  0  0  0  0  0  0  0  0  0
   67.8709   43.3957   56.2042 N   0  0  0  0  0  0  0  0  0  0  0  0
   67.4342   41.1841   57.3544 C   0  0  0  0  0  0  0  0  0  0  0  0
   68.1519   40.0244   57.1630 C   0  0  0  0  0  0  0  0  0  0  0  0
   68.2573   39.1491   58.2212 C   0  0  0  0  0  0  0  0  0  0  0  0
   67.6826   39.3794   59.4575 C   0  0  0  0  0  0  0  0  0  0  0  0
   66.9966   40.5292   59.5728 N   0  0  0  0  0  0  0  0  0  0  0  0
   66.8613   41.4160   58.5770 C   0  0  0  0  0  0  0  0  0  0  0  0
 16 17  2  0
 17 18  1  0
 17 19  1  0
 18 15  1  0
 15  1  1  0
  1  2  2  0
  1 14  1  0
  2  3  1  0
  3  4  2  0
  3  9  1  0
  4  5  1  0
  5  6  1  0
  5  7  2  0
  7  8  1  0
  8  9  2  0
  9 10  1  0
 10 11  1  0
 10 14  1  0
 11 12  2  0
 12 13  1  0
 13 14  2  0
 19 20  2  0
 19 24  1  0
 20 21  1  0
 21 22  2  0
 22 23  1  0
 23 24  2  0
M  END
>  <minimizedAffinity>  (145) 
-8.90798

$$$$
data/reference_output_2/data/smiles/122870.pdb
     RDKit          3D

 22 23  0  0  0  0  0  0  0  0999 V2000
   69.4032   46.7964   56.9804 C   0  0  0  0  0  0  0  0  0  0  0  0
   69.9589   48.2251   57.4569 S   0  0  0  0  0  0  0  0  0  0  0  0
   69.9913   45.6314   57.5666 N   0  0  0  0  0  0  0  0  0  0  0  0
   71.5606   43.4852   57.9488 C   0  0  0  0  0  0  0  0  0  0  0  0
   70.1249   43.2810   57.7111 C   0  0  0  0  0  0  0  0  0  0  0  0
   69.4113   44.3651   57.5320 N   0  0  0  0  0  0  0  0  0  0  0  0
   69.4973   41.9600   57.6723 C   0  0  0  0  0  0  0  0  0  0  0  0
   68.3735   41.7280   56.9107 C   0  0  0  0  0  0  0  0  0  0  0  0
   67.7924   40.4561   56.8916 C   0  0  0  0  0  0  0  0  0  0  0  0
   68.3453   39.4437   57.6322 C   0  0  0  0  0  0  0  0  0  0  0  0
   69.4659   39.7055   58.3814 C   0  0  0  0  0  0  0  0  0  0  0  0
   69.9976   40.9470   58.3741 N   0  0  0  0  0  0  0  0  0  0  0  0
   68.3892   46.5981   56.0395 N   0  0  0  0  0  0  0  0  0  0  0  0
   68.4480   46.6524   54.6218 C   0  0  0  0  0  0  0  0  0  0  0  0
   67.7639   45.8524   53.7557 C   0  0  0  0  0  0  0  0  0  0  0  0
   67.8701   45.9604   52.3722 C   0  0  0  0  0  0  0  0  0  0  0  0
   68.6976   46.9104   51.8317 C   0  0  0  0  0  0  0  0  0  0  0  0
   69.4229   47.7581   52.6612 C   0  0  0  0  0  0  0  0  0  0  0  0
   69.2802   47.6070   54.0134 C   0  0  0  0  0  0  0  0  0  0  0  0
   70.2854   48.7476   52.1194 N   0  0  0  0  0  0  0  0  0  0  0  0
   70.0316   49.2984   51.0506 O   0  0  0  0  0  0  0  0  0  0  0  0
   71.4218   49.0973   52.7974 O   0  0  0  0  0  0  0  0  0  0  0  0
  4  5  1  0
  5  6  2  0
  5  7  1  0
  6  3  1  0
  3  1  1  0
  1  2  2  0
  1 13  1  0
 13 14  1  0
 14 15  2  0
 14 19  1  0
 15 16  1  0
 16 17  2  0
 17 18  1  0
 18 20  1  0
 18 19  2  0
 20 21  2  0
 20 22  1  0
  7  8  2  0
  7 12  1  0
  8  9  1  0
  9 10  2  0
 10 11  1  0
 11 12  2  0
M  CHG  2  20   1  22  -1
M  END
>  <minimizedAffinity>  (146) 
-8.90684

$$$$
data/200k_reference_output/data/smiles/16116.pdb
     RDKit          3D

 23 24  0  0  0  0  0  0  0  0999 V2000
   72.8927   42.3345   58.1239 C   0  0  0  0  0  0  0  0  0  0  0  0
   71.7741   43.2756   58.1008 N   0  0  0  0  0  0  0  0  0  0  0  0
   71.9439   44.5879   58.0680 C   0  0  0  0  0  0  0  0  0  0  0  0
   70.6869   45.1953   58.0554 C   0  0  0  0  0  0  0  0  0  0  0  0
   69.7980   44.1261   58.0802 C   0  0  0  0  0  0  0  0  0  0  0  0
   70.4540   42.9315   58.1099 C   0  0  0  0  0  0  0  0  0  0  0  0
   70.4063   46.6020   57.8908 C   0  0  0  0  0  0  0  0  0  0  0  0
   69.6770   47.3539   57.1812 C   0  0  0  0  0  0  0  0  0  0  0  0
   68.6994   47.2993   56.1537 C   0  0  0  0  0  0  0  0  0  0  0  0
   67.4512   47.4052   56.6068 O   0  0  0  0  0  0  0  0  0  0  0  0
   68.7241   47.1467   54.7276 C   0  0  0  0  0  0  0  0  0  0  0  0
   69.3414   47.9818   53.8405 C   0  0  0  0  0  0  0  0  0  0  0  0
   69.2600   47.7944   52.4904 C   0  0  0  0  0  0  0  0  0  0  0  0
   68.5506   46.7496   51.9407 C   0  0  0  0  0  0  0  0  0  0  0  0
   67.9208   45.8941   52.8143 C   0  0  0  0  0  0  0  0  0  0  0  0
   67.1983   44.8342   52.3384 F   0  0  0  0  0  0  0  0  0  0  0  0
   68.0017   46.0820   54.1563 C   0  0  0  0  0  0  0  0  0  0  0  0
   69.9441   41.5907   58.1374 C   0  0  0  0  0  0  0  0  0  0  0  0
   68.9951   40.9599   57.5511 C   0  0  0  0  0  0  0  0  0  0  0  0
   67.9893   41.2554   56.6009 C   0  0  0  0  0  0  0  0  0  0  0  0
   67.2753   42.2719   56.4791 O   0  0  0  0  0  0  0  0  0  0  0  0
   67.6654   40.2756   55.5608 N   0  0  0  0  0  0  0  0  0  0  0  0
   66.7112   40.5192   54.6337 O   0  0  0  0  0  0  0  0  0  0  0  0
  1  2  1  0
  2  3  1  0
  2  6  1  0
  3  4  2  0
  4  7  1  0
  4  5  1  0
  7  8  2  0
  8  9  1  0
  9 10  2  0
  9 11  1  0
 11 12  2  0
 11 17  1  0
 12 13  1  0
 13 14  2  0
 14 15  1  0
 15 16  1  0
 15 17  2  0
  5  6  2  0
  6 18  1  0
 18 19  2  0
 19 20  1  0
 20 21  2  0
 20 22  1  0
 22 23  1  0
M  END
>  <minimizedAffinity>  (147) 
-8.90641

$$$$
data/200k_reference_output/data/smiles/30753.pdb
     RDKit          3D

 24 26  0  0  0  0  0  0  0  0999 V2000
   72.2434   51.0576   54.7746 C   0  0  2  0  0  0  0  0  0  0  0  0
   70.1922   50.8362   52.9303 O   0  0  0  0  0  0  0  0  0  0  0  0
   70.4647   49.7736   53.5263 C   0  0  0  0  0  0  0  0  0  0  0  0
   71.5142   49.8431   54.4832 N   0  0  0  0  0  0  0  0  0  0  0  0
   69.7154   48.5613   53.2160 C   0  0  0  0  0  0  0  0  0  0  0  0
   68.9311   47.9851   54.1981 C   0  0  0  0  0  0  0  0  0  0  0  0
   68.1961   46.8382   53.9765 C   0  0  0  0  0  0  0  0  0  0  0  0
   68.2091   46.2059   52.7530 C   0  0  0  0  0  0  0  0  0  0  0  0
   67.4804   45.0675   52.5328 F   0  0  0  0  0  0  0  0  0  0  0  0
   68.9855   46.7676   51.7657 C   0  0  0  0  0  0  0  0  0  0  0  0
   69.7276   47.9277   51.9941 C   0  0  0  0  0  0  0  0  0  0  0  0
   73.7003   50.9120   54.6070 C   0  0  0  0  0  0  0  0  0  0  0  0
   74.1623   50.2307   53.6692 O   0  0  0  0  0  0  0  0  0  0  0  0
   74.5920   51.5139   55.4667 O   0  0  0  0  0  0  0  0  0  0  0  0
   71.9908   51.5138   56.2162 C   0  0  0  0  0  0  0  0  0  0  0  0
   70.5945   51.8864   56.4334 C   0  0  0  0  0  0  0  0  0  0  0  0
   70.0635   53.1392   56.1993 C   0  0  0  0  0  0  0  0  0  0  0  0
   68.7635   53.1037   56.5122 N   0  0  0  0  0  0  0  0  0  0  0  0
   68.4589   51.8582   56.9375 C   0  0  0  0  0  0  0  0  0  0  0  0
   67.2739   51.3190   57.3666 C   0  0  0  0  0  0  0  0  0  0  0  0
   67.2036   50.0072   57.7563 C   0  0  0  0  0  0  0  0  0  0  0  0
   68.3559   49.2258   57.7118 C   0  0  0  0  0  0  0  0  0  0  0  0
   69.5690   49.7198   57.2886 C   0  0  0  0  0  0  0  0  0  0  0  0
   69.6031   51.0566   56.8994 C   0  0  0  0  0  0  0  0  0  0  0  0
  2  3  2  0
  3  4  1  0
  3  5  1  0
  4  1  1  0
  1 15  1  1
  1 12  1  0
 15 16  1  0
 16 17  2  0
 16 24  1  0
 17 18  1  0
 18 19  1  0
 19 20  1  0
 19 24  2  0
 20 21  2  0
 21 22  1  0
 22 23  2  0
 23 24  1  0
 12 13  2  0
 12 14  1  0
  5  6  2  0
  5 11  1  0
  6  7  1  0
  7  8  2  0
  8  9  1  0
  8 10  1  0
 10 11  2  0
M  END
>  <minimizedAffinity>  (148) 
-8.90593

$$$$
data/reference_output_2/data/smiles/194243.pdb
     RDKit          3D

 23 24  0  0  0  0  0  0  0  0999 V2000
   69.1537   46.5095   57.2189 N   0  0  0  0  0  0  0  0  0  0  0  0
   68.6213   47.3106   56.3938 C   0  0  0  0  0  0  0  0  0  0  0  0
   68.6332   46.9987   54.9726 C   0  0  0  0  0  0  0  0  0  0  0  0
   67.9215   45.9800   54.3768 C   0  0  0  0  0  0  0  0  0  0  0  0
   67.9026   45.7806   52.9873 C   0  0  0  0  0  0  0  0  0  0  0  0
   68.5945   46.5882   52.1381 C   0  0  0  0  0  0  0  0  0  0  0  0
   69.3179   47.6163   52.7019 C   0  0  0  0  0  0  0  0  0  0  0  0
   69.3261   47.8022   54.0801 C   0  0  0  0  0  0  0  0  0  0  0  0
   70.0566   48.4934   51.8572 N   0  0  0  0  0  0  0  0  0  0  0  0
   70.5290   48.1045   50.7798 O   0  0  0  0  0  0  0  0  0  0  0  0
   70.2553   49.7924   52.2315 O   0  0  0  0  0  0  0  0  0  0  0  0
   68.0232   48.5654   56.9056 C   0  0  0  0  0  0  0  0  0  0  0  0
   68.6138   49.7785   56.5144 C   0  0  0  0  0  0  0  0  0  0  0  0
   68.1014   50.9878   56.9301 C   0  0  0  0  0  0  0  0  0  0  0  0
   66.9922   51.0580   57.7435 C   0  0  0  0  0  0  0  0  0  0  0  0
   66.4368   49.8412   58.1082 C   0  0  0  0  0  0  0  0  0  0  0  0
   66.9671   48.6835   57.6809 N   0  0  0  0  0  0  0  0  0  0  0  0
   69.7891   45.3312   57.1345 N   0  0  0  0  0  0  0  0  0  0  0  0
   70.4869   44.8013   58.2804 C   0  0  0  0  0  0  0  0  0  0  0  0
   72.1028   44.7438   58.2546 S   0  0  0  0  0  0  0  0  0  0  0  0
   69.7838   44.3401   59.4101 N   0  0  0  0  0  0  0  0  0  0  0  0
   69.1988   42.0748   58.7200 C   0  0  0  0  0  0  0  0  0  0  0  0
   69.8072   42.9395   59.7768 C   0  0  0  0  0  0  0  0  0  0  0  0
 22 23  1  0
 23 21  1  0
 21 19  1  0
 19 20  2  0
 19 18  1  0
 18  1  1  0
  1  2  2  0
  2  3  1  0
  2 12  1  0
  3  4  2  0
  3  8  1  0
  4  5  1  0
  5  6  2  0
  6  7  1  0
  7  9  1  0
  7  8  2  0
  9 10  2  0
  9 11  1  0
 12 13  2  0
 12 17  1  0
 13 14  1  0
 14 15  2  0
 15 16  1  0
 16 17  2  0
M  CHG  2   9   1  11  -1
M  END
>  <minimizedAffinity>  (149) 
-8.89448

$$$$
data/200k_reference_output/data/smiles/83956.pdb
     RDKit          3D

 25 27  0  0  0  0  0  0  0  0999 V2000
   67.9406   44.1140   55.2345 N   0  0  0  0  0  0  0  0  0  0  0  0
   68.1537   45.5003   55.1773 C   0  0  0  0  0  0  0  0  0  0  0  0
   68.2388   46.1245   56.2550 O   0  0  0  0  0  0  0  0  0  0  0  0
   68.2694   46.2252   53.9035 C   0  0  0  0  0  0  0  0  0  0  0  0
   67.6624   45.6339   52.8110 C   0  0  0  0  0  0  0  0  0  0  0  0
   67.7833   46.2774   51.5840 C   0  0  0  0  0  0  0  0  0  0  0  0
   67.2246   45.7293   50.5847 O   0  0  0  0  0  0  0  0  0  0  0  0
   68.4582   47.4247   51.4575 N   0  0  0  0  0  0  0  0  0  0  0  0
   69.0551   48.0238   52.4942 C   0  0  0  0  0  0  0  0  0  0  0  0
   69.7356   49.2130   52.3357 C   0  0  0  0  0  0  0  0  0  0  0  0
   70.3276   49.8025   53.4291 C   0  0  0  0  0  0  0  0  0  0  0  0
   70.2182   49.1784   54.6551 C   0  0  0  0  0  0  0  0  0  0  0  0
   69.5418   47.9866   54.8391 C   0  0  0  0  0  0  0  0  0  0  0  0
   68.9507   47.4018   53.7433 C   0  0  0  0  0  0  0  0  0  0  0  0
   67.7268   42.0057   56.2711 C   0  0  0  0  0  0  0  0  0  0  0  0
   67.7809   43.2888   56.3279 N   0  0  0  0  0  0  0  0  0  0  0  0
   67.1418   39.4158   59.6012 C   0  0  0  0  0  0  0  0  0  0  0  0
   67.9264   39.0501   58.5194 C   0  0  0  0  0  0  0  0  0  0  0  0
   68.1314   39.9066   57.4466 C   0  0  0  0  0  0  0  0  0  0  0  0
   67.5453   41.1578   57.4483 C   0  0  0  0  0  0  0  0  0  0  0  0
   66.7811   41.5058   58.5156 C   0  0  0  0  0  0  0  0  0  0  0  0
   66.5737   40.6578   59.5822 C   0  0  0  0  0  0  0  0  0  0  0  0
   67.9601   37.6120   61.1249 C   0  0  0  0  0  0  0  0  0  0  0  0
   66.9029   38.4812   60.6593 N   0  0  0  0  0  0  0  0  0  0  0  0
   65.5941   38.4060   61.2559 C   0  0  0  0  0  0  0  0  0  0  0  0
 23 24  1  0
 24 25  1  0
 24 17  1  0
 17 18  2  0
 17 22  1  0
 18 19  1  0
 19 20  2  0
 20 15  1  0
 20 21  1  0
 15 16  2  0
 16  1  1  0
  1  2  1  0
  2  3  2  0
  2  4  1  0
  4  5  2  0
  4 14  1  0
  5  6  1  0
  6  7  2  0
  6  8  1  0
  8  9  1  0
  9 10  1  0
  9 14  2  0
 10 11  2  0
 11 12  1  0
 12 13  2  0
 13 14  1  0
 21 22  2  0
M  END
>  <minimizedAffinity>  (150) 
-8.89389

$$$$
data/200k_reference_output/data/smiles/31533.pdb
     RDKit          3D

 24 27  0  0  0  0  0  0  0  0999 V2000
   71.1276   46.5790   58.2345 C   0  0  0  0  0  0  0  0  0  0  0  0
   71.7302   47.4937   59.0724 C   0  0  0  0  0  0  0  0  0  0  0  0
   71.3974   48.8263   59.0334 C   0  0  0  0  0  0  0  0  0  0  0  0
   70.4281   49.2606   58.1263 C   0  0  0  0  0  0  0  0  0  0  0  0
   69.8017   48.3981   57.2759 C   0  0  0  0  0  0  0  0  0  0  0  0
   70.1824   47.0498   57.3603 C   0  0  0  0  0  0  0  0  0  0  0  0
   69.6671   44.4722   59.4550 O   0  0  0  0  0  0  0  0  0  0  0  0
   70.7766   44.1945   58.9465 C   0  0  0  0  0  0  0  0  0  0  0  0
   71.5199   45.2211   58.3353 N   0  0  0  0  0  0  0  0  0  0  0  0
   71.3091   42.7888   58.9863 C   0  0  0  0  0  0  0  0  0  0  0  0
   70.8061   41.9243   57.7908 C   0  0  0  0  0  0  0  0  0  0  0  0
   72.2316   42.3409   57.9024 C   0  0  0  0  0  0  0  0  0  0  0  0
   68.7598   48.7834   56.2648 C   0  0  0  0  0  0  0  0  0  0  0  0
   69.2258   48.7035   54.8785 C   0  0  0  0  0  0  0  0  0  0  0  0
   70.0808   49.6581   54.3950 N   0  0  0  0  0  0  0  0  0  0  0  0
   70.5177   49.7133   53.1653 N   0  0  0  0  0  0  0  0  0  0  0  0
   70.1373   48.7958   52.2596 C   0  0  0  0  0  0  0  0  0  0  0  0
   70.5471   48.8362   51.0741 O   0  0  0  0  0  0  0  0  0  0  0  0
   69.2792   47.8077   52.6841 C   0  0  0  0  0  0  0  0  0  0  0  0
   68.8527   46.8089   51.8190 C   0  0  0  0  0  0  0  0  0  0  0  0
   68.0132   45.7992   52.2150 C   0  0  0  0  0  0  0  0  0  0  0  0
   67.5639   45.7479   53.4993 C   0  0  0  0  0  0  0  0  0  0  0  0
   67.9621   46.7271   54.4044 C   0  0  0  0  0  0  0  0  0  0  0  0
   68.8051   47.7405   54.0021 C   0  0  0  0  0  0  0  0  0  0  0  0
  7  8  2  0
  8  9  1  0
  8 10  1  0
  9  1  1  0
  1  2  2  0
  1  6  1  0
  2  3  1  0
  3  4  2  0
  4  5  1  0
  5 13  1  0
  5  6  2  0
 13 14  1  0
 14 15  2  0
 14 24  1  0
 15 16  1  0
 16 17  1  0
 17 18  2  0
 17 19  1  0
 19 20  1  0
 19 24  2  0
 20 21  2  0
 21 22  1  0
 22 23  2  0
 23 24  1  0
 10 11  1  0
 10 12  1  0
 11 12  1  0
M  END
>  <minimizedAffinity>  (151) 
-8.89151

$$$$
data/200k_reference_output/data/smiles/21970.pdb
     RDKit          3D

 25 27  0  0  0  0  0  0  0  0999 V2000
   68.2231   43.6831   55.8601 C   0  0  0  0  0  0  0  0  0  0  0  0
   67.2098   42.7630   55.6502 C   0  0  0  0  0  0  0  0  0  0  0  0
   67.4659   41.7119   56.4999 C   0  0  0  0  0  0  0  0  0  0  0  0
   68.6154   42.0088   57.2003 C   0  0  0  0  0  0  0  0  0  0  0  0
   69.0116   43.1778   56.7806 O   0  0  0  0  0  0  0  0  0  0  0  0
   68.2229   46.2950   53.1592 C   0  0  0  0  0  0  0  0  0  0  0  0
   68.5673   47.4118   53.8802 C   0  0  0  0  0  0  0  0  0  0  0  0
   68.7989   47.3285   55.2291 C   0  0  0  0  0  0  0  0  0  0  0  0
   68.6788   46.0911   55.8546 C   0  0  0  0  0  0  0  0  0  0  0  0
   68.3360   44.9547   55.1600 C   0  0  0  0  0  0  0  0  0  0  0  0
   68.1085   45.0671   53.8082 C   0  0  0  0  0  0  0  0  0  0  0  0
   68.7419   46.9862   50.9463 O   0  0  0  0  0  0  0  0  0  0  0  0
   67.9758   46.3785   51.7306 C   0  0  0  0  0  0  0  0  0  0  0  0
   66.8465   45.7651   51.1800 O   0  0  0  0  0  0  0  0  0  0  0  0
   69.2448   41.1690   58.2061 C   0  0  0  0  0  0  0  0  0  0  0  0
   69.6077   40.0500   58.2336 N   0  0  0  0  0  0  0  0  0  0  0  0
   70.0030   38.8245   58.2638 N   0  0  0  0  0  0  0  0  0  0  0  0
   71.3803   38.3677   58.2956 C   0  0  0  0  0  0  0  0  0  0  0  0
   72.2422   39.2757   58.2850 O   0  0  0  0  0  0  0  0  0  0  0  0
   71.7736   36.9854   58.3408 C   0  0  0  0  0  0  0  0  0  0  0  0
   72.6569   36.3925   57.4682 C   0  0  0  0  0  0  0  0  0  0  0  0
   72.9500   35.0346   57.6059 C   0  0  0  0  0  0  0  0  0  0  0  0
   72.3822   34.2638   58.5916 C   0  0  0  0  0  0  0  0  0  0  0  0
   71.5243   34.8664   59.4299 N   0  0  0  0  0  0  0  0  0  0  0  0
   71.2211   36.1677   59.3247 C   0  0  0  0  0  0  0  0  0  0  0  0
 12 13  2  0
 13 14  1  0
 13  6  1  0
  6  7  2  0
  6 11  1  0
  7  8  1  0
  8  9  2  0
  9 10  1  0
 10  1  1  0
 10 11  2  0
  1  2  2  0
  1  5  1  0
  2  3  1  0
  3  4  2  0
  4 15  1  0
  4  5  1  0
 15 16  2  3
 16 17  1  0
 17 18  1  0
 18 19  2  0
 18 20  1  0
 20 21  2  0
 20 25  1  0
 21 22  1  0
 22 23  2  0
 23 24  1  0
 24 25  2  0
M  END
>  <minimizedAffinity>  (152) 
-8.88948

$$$$
data/200k_reference_output/data/smiles/53639.pdb
     RDKit          3D

 26 30  0  0  0  0  0  0  0  0999 V2000
   68.6584   47.4428   56.0265 C   0  0  2  0  0  0  0  0  0  0  0  0
   67.3147   47.3678   56.4697 O   0  0  0  0  0  0  0  0  0  0  0  0
   68.9214   53.8536   56.7680 O   0  0  0  0  0  0  0  0  0  0  0  0
   69.2274   52.8919   56.0199 C   0  0  0  0  0  0  0  0  0  0  0  0
   70.0440   52.9734   54.8767 N   0  0  0  0  0  0  0  0  0  0  0  0
   69.9557   51.7476   54.1766 C   0  0  0  0  0  0  0  0  0  0  0  0
   70.4625   51.4358   53.0767 O   0  0  0  0  0  0  0  0  0  0  0  0
   69.1203   50.7663   54.9503 C   0  0  1  0  0  0  0  0  0  0  0  0
   69.9907   49.6593   55.4473 C   0  0  1  0  0  0  0  0  0  0  0  0
   70.8051   50.4280   56.5130 C   0  0  0  0  0  0  0  0  0  0  0  0
   69.5506   50.8009   57.3280 C   0  0  2  0  0  0  0  0  0  0  0  0
   68.9775   49.4629   57.5019 C   0  0  0  0  0  0  0  0  0  0  0  0
   69.1708   48.8063   56.3606 C   0  0  0  0  0  0  0  0  0  0  0  0
   68.7554   51.5020   56.2457 C   0  0  1  0  0  0  0  0  0  0  0  0
   68.6492   47.2184   54.5768 C   0  0  0  0  0  0  0  0  0  0  0  0
   69.4982   47.8528   53.6759 C   0  0  0  0  0  0  0  0  0  0  0  0
   69.4344   47.6015   52.3197 C   0  0  0  0  0  0  0  0  0  0  0  0
   68.5241   46.7087   51.7944 C   0  0  0  0  0  0  0  0  0  0  0  0
   67.6705   46.0663   52.6728 C   0  0  0  0  0  0  0  0  0  0  0  0
   67.7532   46.3327   54.0193 C   0  0  0  0  0  0  0  0  0  0  0  0
   69.4237   46.4498   56.7824 C   0  0  0  0  0  0  0  0  0  0  0  0
   70.4282   46.8684   57.6210 C   0  0  0  0  0  0  0  0  0  0  0  0
   71.1949   45.9963   58.3677 C   0  0  0  0  0  0  0  0  0  0  0  0
   70.9515   44.6329   58.2773 C   0  0  0  0  0  0  0  0  0  0  0  0
   69.9315   44.2437   57.4240 C   0  0  0  0  0  0  0  0  0  0  0  0
   69.2119   45.1236   56.7173 N   0  0  0  0  0  0  0  0  0  0  0  0
  3  4  2  0
  4  5  1  0
 14  4  1  6
  5  6  1  0
  6  7  2  0
  8  6  1  6
  8  9  1  0
  8 14  1  0
  9 10  1  0
  9 13  1  1
 10 11  1  0
 11 12  1  6
 11 14  1  0
 12 13  2  0
 13  1  1  0
  1  2  1  1
  1 15  1  0
  1 21  1  0
 15 16  2  0
 15 20  1  0
 16 17  1  0
 17 18  2  0
 18 19  1  0
 19 20  2  0
 21 22  2  0
 21 26  1  0
 22 23  1  0
 23 24  2  0
 24 25  1  0
 25 26  2  0
M  END
>  <minimizedAffinity>  (153) 
-8.88832

$$$$
data/reference_output_2/data/smiles/102536.pdb
     RDKit          3D

 24 26  0  0  0  0  0  0  0  0999 V2000
   73.6267   50.2401   55.7623 N   0  0  0  0  0  0  0  0  0  0  0  0
   72.9397   51.0528   54.8383 C   0  0  0  0  0  0  0  0  0  0  0  0
   73.5515   51.9991   54.2985 O   0  0  0  0  0  0  0  0  0  0  0  0
   71.4952   50.7687   54.5182 C   0  0  0  0  0  0  0  0  0  0  0  0
   70.5286   51.7426   54.6256 C   0  0  0  0  0  0  0  0  0  0  0  0
   69.0184   50.8442   54.1237 S   0  0  0  0  0  0  0  0  0  0  0  0
   69.9401   49.2898   53.8477 C   0  0  0  0  0  0  0  0  0  0  0  0
   71.0364   49.5982   54.1164 N   0  0  0  0  0  0  0  0  0  0  0  0
   69.1858   48.0679   53.3825 C   0  0  0  0  0  0  0  0  0  0  0  0
   68.5770   47.2758   54.3065 C   0  0  0  0  0  0  0  0  0  0  0  0
   67.8658   46.1290   53.9082 C   0  0  0  0  0  0  0  0  0  0  0  0
   67.7811   45.8016   52.5742 C   0  0  0  0  0  0  0  0  0  0  0  0
   67.0985   44.6958   52.1520 F   0  0  0  0  0  0  0  0  0  0  0  0
   68.4002   46.6104   51.6514 C   0  0  0  0  0  0  0  0  0  0  0  0
   69.0954   47.7341   52.0620 C   0  0  0  0  0  0  0  0  0  0  0  0
   75.7504   49.0564   54.4737 O   0  0  0  0  0  0  0  0  0  0  0  0
   76.0478   49.8358   55.4198 C   0  0  0  0  0  0  0  0  0  0  0  0
   74.9806   50.4586   56.1010 N   0  0  0  0  0  0  0  0  0  0  0  0
   77.4487   50.0494   55.7541 C   0  0  0  0  0  0  0  0  0  0  0  0
   78.4309   49.1392   55.4360 C   0  0  0  0  0  0  0  0  0  0  0  0
   79.7560   49.3241   55.7439 C   0  0  0  0  0  0  0  0  0  0  0  0
   80.1348   50.4754   56.4040 C   0  0  0  0  0  0  0  0  0  0  0  0
   79.1392   51.3837   56.7176 C   0  0  0  0  0  0  0  0  0  0  0  0
   77.8395   51.1630   56.3962 N   0  0  0  0  0  0  0  0  0  0  0  0
 16 17  2  0
 17 18  1  0
 17 19  1  0
 18  1  1  0
  1  2  1  0
  2  3  2  0
  2  4  1  0
  4  5  2  0
  4  8  1  0
  5  6  1  0
  6  7  1  0
  7  9  1  0
  7  8  2  0
  9 10  2  0
  9 15  1  0
 10 11  1  0
 11 12  2  0
 12 13  1  0
 12 14  1  0
 14 15  2  0
 19 20  2  0
 19 24  1  0
 20 21  1  0
 21 22  2  0
 22 23  1  0
 23 24  2  0
M  END
>  <minimizedAffinity>  (154) 
-8.88778

$$$$
data/200k_reference_output/data/smiles/32291.pdb
     RDKit          3D

 23 25  0  0  0  0  0  0  0  0999 V2000
   68.2861   45.6999   54.8419 C   0  0  0  0  0  0  0  0  0  0  0  0
   68.6206   46.4597   55.9137 C   0  0  0  0  0  0  0  0  0  0  0  0
   69.1425   47.7562   55.7811 C   0  0  0  0  0  0  0  0  0  0  0  0
   69.3164   48.2689   54.5192 C   0  0  0  0  0  0  0  0  0  0  0  0
   69.8110   49.4994   54.3501 N   0  0  0  0  0  0  0  0  0  0  0  0
   69.9727   49.9798   53.1118 C   0  0  0  0  0  0  0  0  0  0  0  0
   70.4385   51.1398   52.9463 O   0  0  0  0  0  0  0  0  0  0  0  0
   69.6587   49.2721   52.0128 N   0  0  0  0  0  0  0  0  0  0  0  0
   69.8491   49.8224   50.7500 O   0  0  0  0  0  0  0  0  0  0  0  0
   69.1601   48.0329   52.1308 C   0  0  0  0  0  0  0  0  0  0  0  0
   68.8473   47.3218   51.1369 O   0  0  0  0  0  0  0  0  0  0  0  0
   68.9872   47.5240   53.4124 C   0  0  0  0  0  0  0  0  0  0  0  0
   68.4790   46.2568   53.5944 C   0  0  0  0  0  0  0  0  0  0  0  0
   68.6474   43.7497   56.9699 O   0  0  0  0  0  0  0  0  0  0  0  0
   67.9474   43.4723   55.9821 C   0  0  0  0  0  0  0  0  0  0  0  0
   67.3562   42.1689   55.9739 N   0  0  0  0  0  0  0  0  0  0  0  0
   67.7629   44.4030   54.9471 N   0  0  0  0  0  0  0  0  0  0  0  0
   67.5419   41.2295   57.0190 C   0  0  0  0  0  0  0  0  0  0  0  0
   68.3606   40.1308   56.8613 C   0  0  0  0  0  0  0  0  0  0  0  0
   68.5421   39.2075   57.8932 C   0  0  0  0  0  0  0  0  0  0  0  0
   67.9057   39.3654   59.1070 C   0  0  0  0  0  0  0  0  0  0  0  0
   67.0910   40.4710   59.2435 C   0  0  0  0  0  0  0  0  0  0  0  0
   66.8999   41.3945   58.2359 C   0  0  0  0  0  0  0  0  0  0  0  0
 14 15  2  0
 15 16  1  0
 15 17  1  0
 16 18  1  0
 18 19  2  0
 18 23  1  0
 19 20  1  0
 20 21  2  0
 21 22  1  0
 22 23  2  0
 17  1  1  0
  1  2  2  0
  1 13  1  0
  2  3  1  0
  3  4  2  0
  4  5  1  0
  4 12  1  0
  5  6  1  0
  6  7  2  0
  6  8  1  0
  8  9  1  0
  8 10  1  0
 10 11  2  0
 10 12  1  0
 12 13  2  0
M  END
>  <minimizedAffinity>  (155) 
-8.88688

$$$$
data/reference_output_2/data/smiles/100921.pdb
     RDKit          3D

 25 28  0  0  0  0  0  0  0  0999 V2000
   72.7585   51.3049   56.1206 C   0  0  2  0  0  0  0  0  0  0  0  0
   72.1133   52.2814   57.0261 C   0  0  0  0  0  0  0  0  0  0  0  0
   71.5479   53.3376   56.0109 C   0  0  0  0  0  0  0  0  0  0  0  0
   70.3121   52.5788   55.4707 C   0  0  0  0  0  0  0  0  0  0  0  0
   70.6400   51.3923   54.8236 N   0  0  2  0  0  0  0  0  0  0  0  0
   71.8081   50.6843   55.1316 C   0  0  0  0  0  0  0  0  0  0  0  0
   73.6039   50.2978   56.8218 C   0  0  0  0  0  0  0  0  0  0  0  0
   75.5040   49.4936   54.6766 O   0  0  0  0  0  0  0  0  0  0  0  0
   75.8736   50.0220   55.7494 C   0  0  0  0  0  0  0  0  0  0  0  0
   75.0030   50.3985   56.7866 N   0  0  0  0  0  0  0  0  0  0  0  0
   77.3316   50.2549   55.9069 C   0  0  0  0  0  0  0  0  0  0  0  0
   78.3251   49.3583   55.5876 C   0  0  0  0  0  0  0  0  0  0  0  0
   79.5389   49.9268   55.8714 C   0  0  0  0  0  0  0  0  0  0  0  0
   79.2644   51.1886   56.3699 C   0  0  0  0  0  0  0  0  0  0  0  0
   77.9153   51.3617   56.3808 N   0  0  0  0  0  0  0  0  0  0  0  0
   69.8954   50.9231   53.7330 C   0  0  0  0  0  0  0  0  0  0  0  0
   69.4775   49.5208   53.7118 C   0  0  0  0  0  0  0  0  0  0  0  0
   68.8578   48.9571   54.7955 C   0  0  0  0  0  0  0  0  0  0  0  0
   68.5172   47.6036   54.7122 C   0  0  0  0  0  0  0  0  0  0  0  0
   68.8064   46.8740   53.5602 C   0  0  0  0  0  0  0  0  0  0  0  0
   69.4263   47.4473   52.4812 C   0  0  0  0  0  0  0  0  0  0  0  0
   69.8192   46.9880   51.2693 N   0  0  0  0  0  0  0  0  0  0  0  0
   70.3781   47.9984   50.6226 O   0  0  0  0  0  0  0  0  0  0  0  0
   70.3473   49.0653   51.3831 N   0  0  0  0  0  0  0  0  0  0  0  0
   69.7628   48.7739   52.5556 C   0  0  0  0  0  0  0  0  0  0  0  0
  8  9  2  0
  9 10  1  0
  9 11  1  0
 10  7  1  0
  1  7  1  1
  1  2  1  0
  1  6  1  0
  2  3  1  0
  3  4  1  0
  4  5  1  0
  5 16  1  6
  5  6  1  0
 16 17  1  0
 17 18  2  0
 17 25  1  0
 18 19  1  0
 19 20  2  0
 20 21  1  0
 21 22  2  0
 21 25  1  0
 22 23  1  0
 23 24  1  0
 24 25  2  0
 11 12  2  0
 11 15  1  0
 12 13  1  0
 13 14  2  0
 14 15  1  0
M  CHG  1   5   1
M  END
>  <minimizedAffinity>  (156) 
-8.88508

$$$$
data/200k_reference_output/data/smiles/51421.pdb
     RDKit          3D

 24 25  0  0  0  0  0  0  0  0999 V2000
   66.6125   41.6951   55.2324 C   0  0  0  0  0  0  0  0  0  0  0  0
   67.1886   42.2025   56.4753 C   0  0  0  0  0  0  0  0  0  0  0  0
   67.8008   43.3330   56.4390 N   0  0  0  0  0  0  0  0  0  0  0  0
   67.8705   44.0031   55.1921 N   0  0  0  0  0  0  0  0  0  0  0  0
   68.2144   45.3473   55.0598 C   0  0  0  0  0  0  0  0  0  0  0  0
   68.4709   45.9734   56.1360 O   0  0  0  0  0  0  0  0  0  0  0  0
   68.2791   46.0104   53.7640 C   0  0  0  0  0  0  0  0  0  0  0  0
   67.6261   45.5786   52.6337 C   0  0  0  0  0  0  0  0  0  0  0  0
   67.6966   46.2167   51.4111 C   0  0  0  0  0  0  0  0  0  0  0  0
   68.4383   47.3182   51.3107 N   0  0  0  0  0  0  0  0  0  0  0  0
   69.1032   47.7956   52.3762 C   0  0  0  0  0  0  0  0  0  0  0  0
   69.0460   47.1736   53.6033 C   0  0  0  0  0  0  0  0  0  0  0  0
   67.0630   41.4130   57.7580 C   0  0  0  0  0  0  0  0  0  0  0  0
   68.1324   40.3506   57.7835 C   0  0  0  0  0  0  0  0  0  0  0  0
   67.9825   39.3421   57.0667 O   0  0  0  0  0  0  0  0  0  0  0  0
   69.2663   40.4816   58.5866 N   0  0  0  0  0  0  0  0  0  0  0  0
   70.3473   39.5828   58.7205 C   0  0  0  0  0  0  0  0  0  0  0  0
   70.2290   38.2488   58.9718 C   0  0  0  0  0  0  0  0  0  0  0  0
   71.3134   37.3943   59.0978 C   0  0  0  0  0  0  0  0  0  0  0  0
   71.1396   35.9438   59.3713 C   0  0  0  0  0  0  0  0  0  0  0  0
   72.5794   37.8977   58.9656 C   0  0  0  0  0  0  0  0  0  0  0  0
   72.7518   39.2400   58.7106 C   0  0  0  0  0  0  0  0  0  0  0  0
   71.6541   40.0562   58.5930 C   0  0  0  0  0  0  0  0  0  0  0  0
   71.8712   41.5134   58.3163 C   0  0  0  0  0  0  0  0  0  0  0  0
  1  2  1  0
  2 13  1  0
  2  3  2  0
 13 14  1  0
 14 15  2  0
 14 16  1  0
 16 17  1  0
 17 18  2  0
 17 23  1  0
 18 19  1  0
 19 20  1  0
 19 21  2  0
 21 22  1  0
 22 23  2  0
 23 24  1  0
  3  4  1  0
  4  5  1  0
  5  6  2  0
  5  7  1  0
  7  8  2  0
  7 12  1  0
  8  9  1  0
  9 10  2  0
 10 11  1  0
 11 12  2  0
M  END
>  <minimizedAffinity>  (157) 
-8.88061

$$$$
data/reference_output_2/data/smiles/190597.pdb
     RDKit          3D

 23 25  0  0  0  0  0  0  0  0999 V2000
   70.0743   46.5731   57.2137 O   0  0  0  0  0  0  0  0  0  0  0  0
   69.0748   46.2638   56.5229 C   0  0  0  0  0  0  0  0  0  0  0  0
   68.7292   44.8870   56.4381 N   0  0  0  0  0  0  0  0  0  0  0  0
   69.3847   43.8373   57.0495 N   0  0  0  0  0  0  0  0  0  0  0  0
   68.9338   42.6370   57.1095 C   0  0  0  0  0  0  0  0  0  0  0  0
   67.6892   42.1461   56.5698 C   0  0  0  0  0  0  0  0  0  0  0  0
   66.8280   42.8272   55.9814 O   0  0  0  0  0  0  0  0  0  0  0  0
   67.6557   40.7401   56.8521 N   0  0  0  0  0  0  0  0  0  0  0  0
   68.8351   40.3368   57.5507 C   0  0  0  0  0  0  0  0  0  0  0  0
   69.2415   39.1112   58.0220 C   0  0  0  0  0  0  0  0  0  0  0  0
   70.4593   38.9704   58.6842 C   0  0  0  0  0  0  0  0  0  0  0  0
   71.2188   40.1193   58.8342 C   0  0  0  0  0  0  0  0  0  0  0  0
   70.7983   41.3603   58.3522 C   0  0  0  0  0  0  0  0  0  0  0  0
   69.5916   41.4687   57.7013 C   0  0  0  0  0  0  0  0  0  0  0  0
   68.2423   47.2410   55.7985 C   0  0  0  0  0  0  0  0  0  0  0  0
   68.8223   47.6355   54.4612 C   0  0  0  0  0  0  0  0  0  0  0  0
   69.7577   48.6558   54.4017 C   0  0  0  0  0  0  0  0  0  0  0  0
   70.3304   49.0510   53.2257 C   0  0  0  0  0  0  0  0  0  0  0  0
   69.9917   48.4351   52.0368 C   0  0  0  0  0  0  0  0  0  0  0  0
   70.5801   48.8445   50.8599 O   0  0  0  0  0  0  0  0  0  0  0  0
   69.0485   47.4104   52.1026 C   0  0  0  0  0  0  0  0  0  0  0  0
   68.6668   46.7524   50.9143 O   0  0  0  0  0  0  0  0  0  0  0  0
   68.4665   47.0115   53.2952 C   0  0  0  0  0  0  0  0  0  0  0  0
  1  2  2  0
  2 15  1  0
  2  3  1  0
 15 16  1  0
 16 17  2  0
 16 23  1  0
 17 18  1  0
 18 19  2  0
 19 20  1  0
 19 21  1  0
 21 22  1  0
 21 23  2  0
  3  4  1  0
  4  5  2  0
  5  6  1  0
  5 14  1  0
  6  7  2  0
  6  8  1  0
  8  9  1  0
  9 10  1  0
  9 14  2  0
 10 11  2  0
 11 12  1  0
 12 13  2  0
 13 14  1  0
M  END
>  <minimizedAffinity>  (158) 
-8.87856

$$$$
data/200k_reference_output/data/smiles/22401.pdb
     RDKit          3D

 21 23  0  0  0  0  0  0  0  0999 V2000
   69.2546   47.5134   54.7157 C   0  0  0  0  0  0  0  0  0  0  0  0
   70.0527   48.6311   54.6475 C   0  0  0  0  0  0  0  0  0  0  0  0
   70.3004   49.2247   53.4318 C   0  0  0  0  0  0  0  0  0  0  0  0
   69.7643   48.7208   52.2739 C   0  0  0  0  0  0  0  0  0  0  0  0
   70.0111   49.3180   51.0315 O   0  0  0  0  0  0  0  0  0  0  0  0
   68.9620   47.6053   52.2941 C   0  0  0  0  0  0  0  0  0  0  0  0
   68.4260   47.0917   51.1632 N   0  0  0  0  0  0  0  0  0  0  0  0
   67.6475   45.9989   51.2192 C   0  0  0  0  0  0  0  0  0  0  0  0
   67.3887   45.3911   52.4292 C   0  0  0  0  0  0  0  0  0  0  0  0
   67.9208   45.8877   53.6193 C   0  0  0  0  0  0  0  0  0  0  0  0
   68.7152   47.0098   53.5289 C   0  0  0  0  0  0  0  0  0  0  0  0
   70.1490   46.3933   56.9827 O   0  0  0  0  0  0  0  0  0  0  0  0
   68.8844   46.6780   56.1928 S   0  0  0  0  0  0  0  0  0  0  0  0
   68.1458   45.3813   55.9561 O   0  0  0  0  0  0  0  0  0  0  0  0
   67.8237   47.6521   57.1150 N   0  0  0  0  0  0  0  0  0  0  0  0
   68.0583   49.0281   57.3015 C   0  0  0  0  0  0  0  0  0  0  0  0
   67.1480   50.0198   57.0300 C   0  0  0  0  0  0  0  0  0  0  0  0
   67.3835   51.3548   57.2186 C   0  0  0  0  0  0  0  0  0  0  0  0
   68.5972   51.7569   57.7091 C   0  0  0  0  0  0  0  0  0  0  0  0
   69.5577   50.8161   58.0038 C   0  0  0  0  0  0  0  0  0  0  0  0
   69.2896   49.4947   57.8037 C   0  0  0  0  0  0  0  0  0  0  0  0
 12 13  2  0
 13 14  2  0
 13 15  1  0
 13  1  1  0
 15 16  1  0
 16 17  2  0
 16 21  1  0
 17 18  1  0
 18 19  2  0
 19 20  1  0
 20 21  2  0
  1  2  2  0
  1 11  1  0
  2  3  1  0
  3  4  2  0
  4  5  1  0
  4  6  1  0
  6  7  1  0
  6 11  2  0
  7  8  2  0
  8  9  1  0
  9 10  2  0
 10 11  1  0
M  END
>  <minimizedAffinity>  (159) 
-8.87810

$$$$
data/reference_output_2/data/smiles/157008.pdb
     RDKit          3D

 23 25  0  0  0  0  0  0  0  0999 V2000
   70.1126   45.7623   58.9292 O   0  0  0  0  0  0  0  0  0  0  0  0
   69.9506   44.9422   57.9721 C   0  0  0  0  0  0  0  0  0  0  0  0
   69.3096   45.4969   56.8143 N   0  0  0  0  0  0  0  0  0  0  0  0
   70.3734   43.5807   58.0484 C   0  0  0  0  0  0  0  0  0  0  0  0
   71.7448   43.2932   58.0049 C   0  0  0  0  0  0  0  0  0  0  0  0
   72.2276   42.0065   58.0720 C   0  0  0  0  0  0  0  0  0  0  0  0
   71.3619   40.9392   58.1853 C   0  0  0  0  0  0  0  0  0  0  0  0
   71.8352   39.6604   58.2518 N   0  0  0  0  0  0  0  0  0  0  0  0
   71.0123   38.6026   58.3632 C   0  0  0  0  0  0  0  0  0  0  0  0
   69.6507   38.8174   58.4113 C   0  0  0  0  0  0  0  0  0  0  0  0
   69.1577   40.1291   58.3434 C   0  0  0  0  0  0  0  0  0  0  0  0
   70.0152   41.1990   58.2298 C   0  0  0  0  0  0  0  0  0  0  0  0
   69.5418   42.5165   58.1602 C   0  0  0  0  0  0  0  0  0  0  0  0
   68.8975   46.7409   56.6796 N   0  0  0  0  0  0  0  0  0  0  0  0
   68.6091   47.4756   55.7323 C   0  0  0  0  0  0  0  0  0  0  0  0
   68.6363   47.1705   54.3341 C   0  0  0  0  0  0  0  0  0  0  0  0
   67.6893   46.2197   53.8895 C   0  0  0  0  0  0  0  0  0  0  0  0
   67.6078   45.8376   52.5807 C   0  0  0  0  0  0  0  0  0  0  0  0
   68.4322   46.3460   51.6095 C   0  0  0  0  0  0  0  0  0  0  0  0
   69.3575   47.2643   52.0006 C   0  0  0  0  0  0  0  0  0  0  0  0
   70.2152   47.8118   51.0745 O   0  0  0  0  0  0  0  0  0  0  0  0
   69.4390   47.6580   53.3615 C   0  0  0  0  0  0  0  0  0  0  0  0
   70.4065   48.5840   53.6242 O   0  0  0  0  0  0  0  0  0  0  0  0
  1  2  2  0
  2  3  1  0
  2  4  1  0
  3 14  1  0
 14 15  2  0
 15 16  1  0
 16 17  2  0
 16 22  1  0
 17 18  1  0
 18 19  2  0
 19 20  1  0
 20 21  1  0
 20 22  2  0
 22 23  1  0
  4  5  2  0
  4 13  1  0
  5  6  1  0
  6  7  2  0
  7  8  1  0
  7 12  1  0
  8  9  2  0
  9 10  1  0
 10 11  2  0
 11 12  1  0
 12 13  2  0
M  END
>  <minimizedAffinity>  (160) 
-8.87795

$$$$
data/reference_output_2/data/smiles/170996.pdb
     RDKit          3D

 23 25  0  0  0  0  0  0  0  0999 V2000
   68.3821   41.9661   57.3385 C   0  0  0  0  0  0  0  0  0  0  0  0
   67.6356   42.3038   56.2244 C   0  0  0  0  0  0  0  0  0  0  0  0
   67.9557   43.5745   55.7817 C   0  0  0  0  0  0  0  0  0  0  0  0
   68.9182   43.9842   56.6702 N   0  0  0  0  0  0  0  0  0  0  0  0
   69.1499   43.0401   57.5623 N   0  0  0  0  0  0  0  0  0  0  0  0
   68.2093   37.1008   60.3234 N   0  0  0  0  0  0  0  0  0  0  0  0
   68.2478   38.3186   59.5796 C   0  0  0  0  0  0  0  0  0  0  0  0
   69.3788   38.6685   58.8676 C   0  0  0  0  0  0  0  0  0  0  0  0
   69.4217   39.8577   58.1382 C   0  0  0  0  0  0  0  0  0  0  0  0
   68.3488   40.7218   58.0985 C   0  0  0  0  0  0  0  0  0  0  0  0
   67.2264   40.3612   58.8130 C   0  0  0  0  0  0  0  0  0  0  0  0
   67.1773   39.1866   59.5362 C   0  0  0  0  0  0  0  0  0  0  0  0
   67.4503   44.3296   54.6913 N   0  0  0  0  0  0  0  0  0  0  0  0
   68.0197   45.5118   54.2086 C   0  0  0  0  0  0  0  0  0  0  0  0
   68.1720   45.7618   52.8712 C   0  0  0  0  0  0  0  0  0  0  0  0
   68.7712   46.9402   52.4117 C   0  0  0  0  0  0  0  0  0  0  0  0
   69.2190   47.8733   53.3128 C   0  0  0  0  0  0  0  0  0  0  0  0
   69.0678   47.6255   54.6760 C   0  0  0  0  0  0  0  0  0  0  0  0
   68.4713   46.4511   55.1072 C   0  0  0  0  0  0  0  0  0  0  0  0
   69.9819   49.3680   52.7808 S   0  0  0  0  0  0  0  0  0  0  0  0
   69.8352   49.5402   51.0724 N   0  0  0  0  0  0  0  0  0  0  0  0
   71.4267   49.4012   53.1775 O   0  0  0  0  0  0  0  0  0  0  0  0
   69.3006   50.5386   53.4275 O   0  0  0  0  0  0  0  0  0  0  0  0
  6  7  1  0
  7  8  2  0
  7 12  1  0
  8  9  1  0
  9 10  2  0
 10  1  1  0
 10 11  1  0
  1  2  1  0
  1  5  2  0
  2  3  2  0
  3 13  1  0
  3  4  1  0
 13 14  1  0
 14 15  2  0
 14 19  1  0
 15 16  1  0
 16 17  2  0
 17 20  1  0
 17 18  1  0
 20 21  1  0
 20 22  2  0
 20 23  2  0
 18 19  2  0
  4  5  1  0
 11 12  2  0
M  END
>  <minimizedAffinity>  (161) 
-8.87552

$$$$
data/reference_output_2/data/smiles/107861.pdb
     RDKit          3D

 23 26  0  0  0  0  0  0  0  0999 V2000
   71.0435   52.8288   55.5296 C   0  0  0  0  0  0  0  0  0  0  0  0
   70.8797   51.7342   54.7129 C   0  0  0  0  0  0  0  0  0  0  0  0
   69.6264   51.1935   54.3947 C   0  0  0  0  0  0  0  0  0  0  0  0
   68.5248   51.7916   54.9274 C   0  0  0  0  0  0  0  0  0  0  0  0
   68.6774   52.8886   55.7473 C   0  0  0  0  0  0  0  0  0  0  0  0
   69.9051   53.4276   56.0663 C   0  0  0  0  0  0  0  0  0  0  0  0
   70.0433   54.5077   56.8751 F   0  0  0  0  0  0  0  0  0  0  0  0
   69.5886   50.0400   53.5094 C   0  0  0  0  0  0  0  0  0  0  0  0
   70.0649   50.1697   52.2634 N   0  0  0  0  0  0  0  0  0  0  0  0
   70.0529   49.1463   51.4148 N   0  0  0  0  0  0  0  0  0  0  0  0
   69.5699   47.9426   51.7545 C   0  0  0  0  0  0  0  0  0  0  0  0
   69.5590   46.9635   50.9410 O   0  0  0  0  0  0  0  0  0  0  0  0
   69.0606   47.7296   53.0220 C   0  0  0  0  0  0  0  0  0  0  0  0
   69.0884   48.8260   53.8914 C   0  0  0  0  0  0  0  0  0  0  0  0
   68.5723   48.6301   55.2440 C   0  0  0  0  0  0  0  0  0  0  0  0
   68.9725   47.2456   55.7154 C   0  0  0  0  0  0  0  0  0  0  0  0
   68.4391   46.1590   54.8565 C   0  0  0  0  0  0  0  0  0  0  0  0
   68.5256   46.4101   53.3947 C   0  0  0  0  0  0  0  0  0  0  0  0
   73.1175   53.2343   58.1697 O   0  0  0  0  0  0  0  0  0  0  0  0
   73.0887   53.6204   56.9747 C   0  0  0  0  0  0  0  0  0  0  0  0
   73.8874   54.5938   56.1899 C   0  0  0  0  0  0  0  0  0  0  0  0
   73.4135   53.8115   55.0120 C   0  0  0  0  0  0  0  0  0  0  0  0
   72.3224   53.3415   55.8253 N   0  0  0  0  0  0  0  0  0  0  0  0
 19 20  2  0
 20 21  1  0
 20 23  1  0
 21 22  1  0
 22 23  1  0
 23  1  1  0
  1  2  2  0
  1  6  1  0
  2  3  1  0
  3  8  1  0
  3  4  2  0
  8  9  2  0
  8 14  1  0
  9 10  1  0
 10 11  1  0
 11 12  2  0
 11 13  1  0
 13 14  2  0
 13 18  1  0
 14 15  1  0
 15 16  1  0
 16 17  1  0
 17 18  1  0
  4  5  1  0
  5  6  2  0
  6  7  1  0
M  END
>  <minimizedAffinity>  (162) 
-8.87503

$$$$
data/200k_reference_output/data/smiles/44053.pdb
     RDKit          3D

 26 30  0  0  0  0  0  0  0  0999 V2000
   71.9609   47.3429   59.5448 C   0  0  0  0  0  0  0  0  0  0  0  0
   70.8871   47.3288   58.5996 N   0  0  0  0  0  0  0  0  0  0  0  0
   70.2476   48.4654   58.2400 C   0  0  0  0  0  0  0  0  0  0  0  0
   70.5725   49.6989   58.7668 C   0  0  0  0  0  0  0  0  0  0  0  0
   69.8954   50.8693   58.3832 C   0  0  0  0  0  0  0  0  0  0  0  0
   68.8815   50.7909   57.4617 C   0  0  0  0  0  0  0  0  0  0  0  0
   68.2026   51.9111   57.0664 F   0  0  0  0  0  0  0  0  0  0  0  0
   68.5752   49.5678   56.9536 C   0  0  0  0  0  0  0  0  0  0  0  0
   69.2228   48.3812   57.3078 C   0  0  0  0  0  0  0  0  0  0  0  0
   68.8318   47.1920   56.7352 C   0  0  0  0  0  0  0  0  0  0  0  0
   69.5132   46.0637   57.1331 C   0  0  0  0  0  0  0  0  0  0  0  0
   69.3804   44.7579   56.7738 N   0  0  0  0  0  0  0  0  0  0  0  0
   70.2675   44.0147   57.4301 C   0  0  0  0  0  0  0  0  0  0  0  0
   70.5270   42.6631   57.4155 C   0  0  0  0  0  0  0  0  0  0  0  0
   71.5102   42.0751   58.1902 C   0  0  0  0  0  0  0  0  0  0  0  0
   72.2453   42.9246   59.0057 C   0  0  0  0  0  0  0  0  0  0  0  0
   72.0168   44.2807   59.0491 C   0  0  0  0  0  0  0  0  0  0  0  0
   71.0353   44.8375   58.2702 C   0  0  0  0  0  0  0  0  0  0  0  0
   70.5381   46.1146   58.0597 C   0  0  0  0  0  0  0  0  0  0  0  0
   67.7833   47.1174   55.7826 N   0  0  0  0  0  0  0  0  0  0  0  0
   68.1007   46.9668   54.3803 C   0  0  0  0  0  0  0  0  0  0  0  0
   67.5630   45.9448   53.6417 C   0  0  0  0  0  0  0  0  0  0  0  0
   67.8787   45.8229   52.3166 C   0  0  0  0  0  0  0  0  0  0  0  0
   68.7319   46.7186   51.7172 C   0  0  0  0  0  0  0  0  0  0  0  0
   69.2825   47.7556   52.4474 C   0  0  0  0  0  0  0  0  0  0  0  0
   68.9563   47.8664   53.7831 C   0  0  0  0  0  0  0  0  0  0  0  0
  1  2  1  0
  2  3  2  0
  2 19  1  0
  3  4  1  0
  3  9  1  0
  4  5  2  0
  5  6  1  0
  6  7  1  0
  6  8  2  0
  8  9  1  0
  9 10  2  0
 10 20  1  0
 10 11  1  0
 20 21  1  0
 21 22  2  0
 21 26  1  0
 22 23  1  0
 23 24  2  0
 24 25  1  0
 25 26  2  0
 11 12  1  0
 11 19  2  0
 12 13  1  0
 13 14  1  0
 13 18  2  0
 14 15  2  0
 15 16  1  0
 16 17  2  0
 17 18  1  0
 18 19  1  0
M  CHG  1   2   1
M  END
>  <minimizedAffinity>  (163) 
-8.87407

$$$$
data/reference_output_2/data/smiles/189168.pdb
     RDKit          3D

 25 27  0  0  0  0  0  0  0  0999 V2000
   69.1692   46.8648   57.2873 N   0  0  0  0  0  0  0  0  0  0  0  0
   68.6751   47.5500   56.3337 C   0  0  0  0  0  0  0  0  0  0  0  0
   68.6803   47.0623   54.9714 C   0  0  0  0  0  0  0  0  0  0  0  0
   67.9758   45.9749   54.5050 C   0  0  0  0  0  0  0  0  0  0  0  0
   67.8742   45.6821   53.1559 C   0  0  0  0  0  0  0  0  0  0  0  0
   68.4860   46.4778   52.2144 C   0  0  0  0  0  0  0  0  0  0  0  0
   69.2008   47.5755   52.6386 C   0  0  0  0  0  0  0  0  0  0  0  0
   69.2851   47.8467   53.9734 C   0  0  0  0  0  0  0  0  0  0  0  0
   68.1176   48.8867   56.6564 C   0  0  0  0  0  0  0  0  0  0  0  0
   67.0507   48.9588   57.5589 C   0  0  0  0  0  0  0  0  0  0  0  0
   66.5956   50.1651   57.9628 C   0  0  0  0  0  0  0  0  0  0  0  0
   67.1408   51.3490   57.5212 C   0  0  0  0  0  0  0  0  0  0  0  0
   68.1577   51.2920   56.6640 N   0  0  0  0  0  0  0  0  0  0  0  0
   68.6325   50.0694   56.2457 C   0  0  0  0  0  0  0  0  0  0  0  0
   70.6932   45.8483   59.3096 O   0  0  0  0  0  0  0  0  0  0  0  0
   70.5575   45.0986   58.3106 C   0  0  0  0  0  0  0  0  0  0  0  0
   69.7496   45.6452   57.2469 N   0  0  0  0  0  0  0  0  0  0  0  0
   71.1752   43.7805   58.2471 C   0  0  0  0  0  0  0  0  0  0  0  0
   72.5163   43.5502   58.0867 C   0  0  0  0  0  0  0  0  0  0  0  0
   73.0541   42.2629   58.0327 C   0  0  0  0  0  0  0  0  0  0  0  0
   74.4172   42.0616   57.8698 O   0  0  0  0  0  0  0  0  0  0  0  0
   72.2324   41.1629   58.1415 C   0  0  0  0  0  0  0  0  0  0  0  0
   70.8754   41.3845   58.3028 C   0  0  0  0  0  0  0  0  0  0  0  0
   70.3497   42.6588   58.3561 C   0  0  0  0  0  0  0  0  0  0  0  0
   68.9770   42.8656   58.5204 O   0  0  0  0  0  0  0  0  0  0  0  0
 15 16  2  0
 16 17  1  0
 16 18  1  0
 17  1  1  0
  1  2  2  0
  2  3  1  0
  2  9  1  0
  3  4  2  0
  3  8  1  0
  4  5  1  0
  5  6  2  0
  6  7  1  0
  7  8  2  0
  9 10  2  0
  9 14  1  0
 10 11  1  0
 11 12  2  0
 12 13  1  0
 13 14  2  0
 18 19  2  0
 18 24  1  0
 19 20  1  0
 20 21  1  0
 20 22  2  0
 22 23  1  0
 23 24  2  0
 24 25  1  0
M  END
>  <minimizedAffinity>  (164) 
-8.87320

$$$$
data/reference_output_2/data/smiles/96538.pdb
     RDKit          3D

 24 26  0  0  0  0  0  0  0  0999 V2000
   68.2287   46.2779   54.1032 C   0  0  0  0  0  0  0  0  0  0  0  0
   67.9021   45.8658   52.7899 C   0  0  0  0  0  0  0  0  0  0  0  0
   68.3761   46.5565   51.7026 C   0  0  0  0  0  0  0  0  0  0  0  0
   69.1774   47.6684   51.8211 C   0  0  0  0  0  0  0  0  0  0  0  0
   69.5073   48.0913   53.0718 C   0  0  0  0  0  0  0  0  0  0  0  0
   69.0275   47.3889   54.1889 C   0  0  0  0  0  0  0  0  0  0  0  0
   70.3547   49.2508   53.3214 C   0  0  0  0  0  0  0  0  0  0  0  0
   71.5751   49.1317   52.9955 O   0  0  0  0  0  0  0  0  0  0  0  0
   69.8660   50.4497   53.8925 N   0  0  0  0  0  0  0  0  0  0  0  0
   70.6375   51.6439   54.1618 C   0  0  0  0  0  0  0  0  0  0  0  0
   69.9921   52.1319   55.4407 C   0  0  1  0  0  0  0  0  0  0  0  0
   70.2689   53.4776   55.6785 O   0  0  0  0  0  0  0  0  0  0  0  0
   68.5159   51.9509   55.1261 C   0  0  2  0  0  0  0  0  0  0  0  0
   67.7307   51.9157   56.2322 F   0  0  0  0  0  0  0  0  0  0  0  0
   68.4984   50.6747   54.3073 C   0  0  0  0  0  0  0  0  0  0  0  0
   67.7269   45.5442   55.1402 O   0  0  0  0  0  0  0  0  0  0  0  0
   68.5031   42.3184   56.6606 C   0  0  0  0  0  0  0  0  0  0  0  0
   69.5840   42.6601   57.4315 C   0  0  0  0  0  0  0  0  0  0  0  0
   70.0296   43.9712   57.4214 C   0  0  0  0  0  0  0  0  0  0  0  0
   69.3980   44.8559   56.6697 N   0  0  0  0  0  0  0  0  0  0  0  0
   68.3417   44.6084   55.8932 C   0  0  0  0  0  0  0  0  0  0  0  0
   67.8848   43.3033   55.8917 C   0  0  0  0  0  0  0  0  0  0  0  0
   67.5539   40.4741   55.4040 N   0  0  0  0  0  0  0  0  0  0  0  0
   68.0436   40.9165   56.6946 C   0  0  0  0  0  0  0  0  0  0  0  0
 23 24  1  0
 24 17  1  0
 17 18  2  0
 17 22  1  0
 18 19  1  0
 19 20  2  0
 20 21  1  0
 21 16  1  0
 21 22  2  0
 16  1  1  0
  1  2  2  0
  1  6  1  0
  2  3  1  0
  3  4  2  0
  4  5  1  0
  5  7  1  0
  5  6  2  0
  7  8  2  0
  7  9  1  0
  9 10  1  0
  9 15  1  0
 10 11  1  0
 11 12  1  6
 11 13  1  0
 13 14  1  1
 13 15  1  0
M  CHG  1  23   1
M  END
>  <minimizedAffinity>  (165) 
-8.87145

$$$$
data/reference_output_2/data/smiles/119890.pdb
     RDKit          3D

 24 25  0  0  0  0  0  0  0  0999 V2000
   68.5688   41.1632   58.6277 C   0  0  0  0  0  0  0  0  0  0  0  0
   70.2377   39.2935   58.9196 N   0  0  0  0  0  0  0  0  0  0  0  0
   69.0605   39.7771   58.2993 C   0  0  0  0  0  0  0  0  0  0  0  0
   68.4527   39.0496   57.4965 O   0  0  0  0  0  0  0  0  0  0  0  0
   69.5184   37.2993   60.6832 C   0  0  0  0  0  0  0  0  0  0  0  0
   70.4959   37.0133   59.6199 C   0  0  0  0  0  0  0  0  0  0  0  0
   71.0305   35.7414   59.5342 C   0  0  0  0  0  0  0  0  0  0  0  0
   70.5507   34.5007   60.6713 Cl  0  0  0  0  0  0  0  0  0  0  0  0
   71.9466   35.4261   58.5591 C   0  0  0  0  0  0  0  0  0  0  0  0
   72.2985   36.4262   57.6845 C   0  0  0  0  0  0  0  0  0  0  0  0
   71.7590   37.7243   57.7642 C   0  0  0  0  0  0  0  0  0  0  0  0
   70.8434   38.0374   58.7402 C   0  0  0  0  0  0  0  0  0  0  0  0
   67.2641   41.3657   57.9280 C   0  0  0  0  0  0  0  0  0  0  0  0
   67.4236   42.0601   56.6408 C   0  0  0  0  0  0  0  0  0  0  0  0
   67.1980   41.4222   55.5804 O   0  0  0  0  0  0  0  0  0  0  0  0
   67.8249   43.4311   56.5551 N   0  0  0  0  0  0  0  0  0  0  0  0
   67.9471   43.9947   55.2831 N   0  0  0  0  0  0  0  0  0  0  0  0
   68.2169   45.3959   55.1727 C   0  0  0  0  0  0  0  0  0  0  0  0
   68.3295   46.0486   56.2414 O   0  0  0  0  0  0  0  0  0  0  0  0
   68.3551   46.0421   53.8663 C   0  0  0  0  0  0  0  0  0  0  0  0
   67.7162   45.6371   52.7362 C   0  0  0  0  0  0  0  0  0  0  0  0
   68.1196   46.5125   51.7322 C   0  0  0  0  0  0  0  0  0  0  0  0
   68.9975   47.4097   52.3356 C   0  0  0  0  0  0  0  0  0  0  0  0
   69.0951   47.0776   53.6005 O   0  0  0  0  0  0  0  0  0  0  0  0
  5  6  1  0
  6  7  2  0
  6 12  1  0
  7  8  1  0
  7  9  1  0
  9 10  2  0
 10 11  1  0
 11 12  2  0
 12  2  1  0
  2  3  1  0
  3  4  2  0
  3  1  1  0
  1 13  1  0
 13 14  1  0
 14 15  2  0
 14 16  1  0
 16 17  1  0
 17 18  1  0
 18 19  2  0
 18 20  1  0
 20 21  2  0
 20 24  1  0
 21 22  1  0
 22 23  2  0
 23 24  1  0
M  END
>  <minimizedAffinity>  (166) 
-8.87051

$$$$
data/reference_output_2/data/smiles/184427.pdb
     RDKit          3D

 22 23  0  0  0  0  0  0  0  0999 V2000
   67.7060   42.3251   56.2605 C   0  0  0  0  0  0  0  0  0  0  0  0
   66.5201   42.0798   55.8686 O   0  0  0  0  0  0  0  0  0  0  0  0
   68.2350   43.5737   55.8720 N   0  0  0  0  0  0  0  0  0  0  0  0
   69.7742   39.3872   58.5963 C   0  0  0  0  0  0  0  0  0  0  0  0
   70.3068   40.6421   58.4179 C   0  0  0  0  0  0  0  0  0  0  0  0
   69.6407   41.5948   57.6628 C   0  0  0  0  0  0  0  0  0  0  0  0
   68.4303   41.3450   57.0605 C   0  0  0  0  0  0  0  0  0  0  0  0
   67.9017   40.0630   57.2519 C   0  0  0  0  0  0  0  0  0  0  0  0
   68.5614   39.1141   58.0014 C   0  0  0  0  0  0  0  0  0  0  0  0
   71.5900   37.6951   58.6415 C   0  0  0  0  0  0  0  0  0  0  0  0
   70.4681   38.3386   59.4042 C   0  0  0  0  0  0  0  0  0  0  0  0
   67.5161   44.4884   55.1077 N   0  0  0  0  0  0  0  0  0  0  0  0
   68.1032   45.6718   54.5740 C   0  0  0  0  0  0  0  0  0  0  0  0
   68.1341   45.9056   53.2151 C   0  0  0  0  0  0  0  0  0  0  0  0
   68.6984   47.0450   52.6787 C   0  0  0  0  0  0  0  0  0  0  0  0
   69.2621   48.0100   53.4885 C   0  0  0  0  0  0  0  0  0  0  0  0
   69.2325   47.7780   54.8485 C   0  0  0  0  0  0  0  0  0  0  0  0
   68.6669   46.6375   55.3816 C   0  0  0  0  0  0  0  0  0  0  0  0
   69.9871   49.4684   52.8446 S   0  0  0  0  0  0  0  0  0  0  0  0
   69.9107   49.4717   51.1054 N   0  0  0  0  0  0  0  0  0  0  0  0
   71.4409   49.5252   53.2162 O   0  0  0  0  0  0  0  0  0  0  0  0
   69.2490   50.6979   53.3004 O   0  0  0  0  0  0  0  0  0  0  0  0
 10 11  1  0
 11  4  1  0
  4  5  2  0
  4  9  1  0
  5  6  1  0
  6  7  2  0
  7  1  1  0
  7  8  1  0
  1  2  2  0
  1  3  1  0
  3 12  1  0
 12 13  1  0
 13 14  2  0
 13 18  1  0
 14 15  1  0
 15 16  2  0
 16 19  1  0
 16 17  1  0
 19 20  1  0
 19 21  2  0
 19 22  2  0
 17 18  2  0
  8  9  2  0
M  END
>  <minimizedAffinity>  (167) 
-8.86890

$$$$
data/200k_reference_output/data/smiles/43552.pdb
     RDKit          3D

 25 27  0  0  0  0  0  0  0  0999 V2000
   68.3548   41.3628   58.7337 O   0  0  0  0  0  0  0  0  0  0  0  0
   69.3892   40.4470   58.6426 C   0  0  0  0  0  0  0  0  0  0  0  0
   70.7167   40.8102   58.5191 C   0  0  0  0  0  0  0  0  0  0  0  0
   71.7269   39.8766   58.4311 C   0  0  0  0  0  0  0  0  0  0  0  0
   71.4441   38.5160   58.4627 C   0  0  0  0  0  0  0  0  0  0  0  0
   70.1201   38.1468   58.5852 C   0  0  0  0  0  0  0  0  0  0  0  0
   69.1358   39.0778   58.6715 C   0  0  0  0  0  0  0  0  0  0  0  0
   72.4881   37.5207   58.3708 C   0  0  0  0  0  0  0  0  0  0  0  0
   73.5265   37.5615   59.2726 C   0  0  0  0  0  0  0  0  0  0  0  0
   74.5416   36.6019   59.1901 C   0  0  0  0  0  0  0  0  0  0  0  0
   74.5111   35.6247   58.2205 C   0  0  0  0  0  0  0  0  0  0  0  0
   73.4728   35.5826   57.3171 C   0  0  0  0  0  0  0  0  0  0  0  0
   72.4601   36.5425   57.4033 C   0  0  0  0  0  0  0  0  0  0  0  0
   67.2554   41.4526   57.8981 C   0  0  0  0  0  0  0  0  0  0  0  0
   67.1895   41.5188   55.5750 O   0  0  0  0  0  0  0  0  0  0  0  0
   67.4316   42.1874   56.6396 C   0  0  0  0  0  0  0  0  0  0  0  0
   67.8289   43.5135   56.4553 N   0  0  0  0  0  0  0  0  0  0  0  0
   67.9653   44.1361   55.2050 N   0  0  0  0  0  0  0  0  0  0  0  0
   68.2316   45.5105   55.0686 C   0  0  0  0  0  0  0  0  0  0  0  0
   68.3503   46.1959   56.1260 O   0  0  0  0  0  0  0  0  0  0  0  0
   68.3704   46.1378   53.7416 C   0  0  0  0  0  0  0  0  0  0  0  0
   67.6946   45.7144   52.6166 C   0  0  0  0  0  0  0  0  0  0  0  0
   68.0904   46.5464   51.5936 C   0  0  0  0  0  0  0  0  0  0  0  0
   68.9853   47.4334   52.1455 C   0  0  0  0  0  0  0  0  0  0  0  0
   69.1216   47.1563   53.4185 O   0  0  0  0  0  0  0  0  0  0  0  0
 15 16  2  0
 16 14  1  0
 16 17  1  0
 14  1  1  0
  1  2  1  0
  2  3  2  0
  2  7  1  0
  3  4  1  0
  4  5  2  0
  5  8  1  0
  5  6  1  0
  8  9  2  0
  8 13  1  0
  9 10  1  0
 10 11  2  0
 11 12  1  0
 12 13  2  0
  6  7  2  0
 17 18  1  0
 18 19  1  0
 19 20  2  0
 19 21  1  0
 21 22  2  0
 21 25  1  0
 22 23  1  0
 23 24  2  0
 24 25  1  0
M  END
>  <minimizedAffinity>  (168) 
-8.86683

$$$$
data/reference_output_2/data/smiles/198156.pdb
     RDKit          3D

 25 28  0  0  0  0  0  0  0  0999 V2000
   69.3558   47.7407   55.8877 C   0  0  0  0  0  0  0  0  0  0  0  0
   71.9345   47.2125   59.6540 N   0  0  2  0  0  0  0  0  0  0  0  0
   72.6503   45.9405   59.6302 C   0  0  0  0  0  0  0  0  0  0  0  0
   71.6190   44.8710   59.4196 C   0  0  0  0  0  0  0  0  0  0  0  0
   70.6846   45.2963   58.3560 C   0  0  0  0  0  0  0  0  0  0  0  0
   69.6563   44.6604   57.7237 N   0  0  0  0  0  0  0  0  0  0  0  0
   69.1108   45.4562   56.8387 N   0  0  0  0  0  0  0  0  0  0  0  0
   69.7346   46.6761   56.8159 C   0  0  0  0  0  0  0  0  0  0  0  0
   70.7144   46.5486   57.7766 C   0  0  0  0  0  0  0  0  0  0  0  0
   71.7079   47.5744   58.2369 C   0  0  0  0  0  0  0  0  0  0  0  0
   72.6791   48.2456   60.3318 C   0  0  0  0  0  0  0  0  0  0  0  0
   73.0767   48.0305   62.7097 O   0  0  0  0  0  0  0  0  0  0  0  0
   73.5397   47.7241   61.4523 C   0  0  0  0  0  0  0  0  0  0  0  0
   68.9656   47.3401   54.5417 C   0  0  0  0  0  0  0  0  0  0  0  0
   68.0371   46.3265   54.3658 C   0  0  0  0  0  0  0  0  0  0  0  0
   67.7075   45.9524   53.0898 C   0  0  0  0  0  0  0  0  0  0  0  0
   68.2499   46.5300   51.9651 C   0  0  0  0  0  0  0  0  0  0  0  0
   69.1715   47.5361   52.1401 C   0  0  0  0  0  0  0  0  0  0  0  0
   69.5055   47.9151   53.4287 C   0  0  0  0  0  0  0  0  0  0  0  0
   68.4986   48.7628   56.5027 C   0  0  0  0  0  0  0  0  0  0  0  0
   68.7282   50.1175   56.2740 C   0  0  0  0  0  0  0  0  0  0  0  0
   67.9466   51.0808   56.8550 C   0  0  0  0  0  0  0  0  0  0  0  0
   66.9105   50.7305   57.6825 C   0  0  0  0  0  0  0  0  0  0  0  0
   66.6572   49.4133   57.9294 C   0  0  0  0  0  0  0  0  0  0  0  0
   67.4518   48.4402   57.3380 C   0  0  0  0  0  0  0  0  0  0  0  0
 12 13  1  0
 13 11  1  0
  2 11  1  6
  2  3  1  0
  2 10  1  0
  3  4  1  0
  4  5  1  0
  5  6  1  0
  5  9  2  0
  6  7  1  0
  7  8  2  0
  8  1  1  0
  8  9  1  0
  1 14  1  0
  1 20  1  0
 14 15  2  0
 14 19  1  0
 15 16  1  0
 16 17  2  0
 17 18  1  0
 18 19  2  0
 20 21  2  0
 20 25  1  0
 21 22  1  0
 22 23  2  0
 23 24  1  0
 24 25  2  0
  9 10  1  0
M  CHG  1   2   1
M  END
>  <minimizedAffinity>  (169) 
-8.86663

$$$$
data/200k_reference_output/data/smiles/25745.pdb
     RDKit          3D

 26 28  0  0  0  0  0  0  0  0999 V2000
   67.5198   43.0714   56.5687 N   0  0  0  0  0  0  0  0  0  0  0  0
   67.5206   41.6600   56.6643 C   0  0  0  0  0  0  0  0  0  0  0  0
   67.5989   41.0173   55.5927 O   0  0  0  0  0  0  0  0  0  0  0  0
   67.4331   41.0115   57.9660 C   0  0  0  0  0  0  0  0  0  0  0  0
   68.0329   39.8162   58.2808 C   0  0  0  0  0  0  0  0  0  0  0  0
   67.9121   39.2451   59.5471 C   0  0  0  0  0  0  0  0  0  0  0  0
   67.1867   39.8438   60.5528 C   0  0  0  0  0  0  0  0  0  0  0  0
   66.5781   41.0440   60.2507 C   0  0  0  0  0  0  0  0  0  0  0  0
   66.6985   41.6072   59.0010 C   0  0  0  0  0  0  0  0  0  0  0  0
   67.0794   39.2378   61.8384 N   0  0  0  0  0  0  0  0  0  0  0  0
   66.5129   39.8067   62.9211 C   0  0  0  0  0  0  0  0  0  0  0  0
   66.5727   38.9544   64.0047 C   0  0  0  0  0  0  0  0  0  0  0  0
   67.2055   37.8181   63.5575 C   0  0  0  0  0  0  0  0  0  0  0  0
   67.5018   38.0244   62.2304 C   0  0  0  0  0  0  0  0  0  0  0  0
   68.1142   45.0277   55.1733 C   0  0  0  0  0  0  0  0  0  0  0  0
   68.4855   45.6107   56.2054 O   0  0  0  0  0  0  0  0  0  0  0  0
   67.6043   43.7103   55.3036 N   0  0  0  0  0  0  0  0  0  0  0  0
   69.0795   47.5029   52.5105 C   0  0  0  0  0  0  0  0  0  0  0  0
   68.3704   46.9887   51.4292 C   0  0  0  0  0  0  0  0  0  0  0  0
   67.5822   45.8474   51.5514 C   0  0  0  0  0  0  0  0  0  0  0  0
   67.5358   45.2554   52.7810 C   0  0  0  0  0  0  0  0  0  0  0  0
   68.2160   45.7168   53.8921 C   0  0  0  0  0  0  0  0  0  0  0  0
   68.9790   46.8511   53.7072 C   0  0  0  0  0  0  0  0  0  0  0  0
   70.1957   49.5289   53.5008 C   0  0  0  0  0  0  0  0  0  0  0  0
   69.8849   48.6998   52.3129 C   0  0  0  0  0  0  0  0  0  0  0  0
   70.3168   49.0472   51.1907 O   0  0  0  0  0  0  0  0  0  0  0  0
 24 25  1  0
 25 26  2  0
 25 18  1  0
 18 19  2  0
 18 23  1  0
 19 20  1  0
 20 21  2  0
 21 22  1  0
 22 15  1  0
 22 23  2  0
 15 16  2  0
 15 17  1  0
 17  1  1  0
  1  2  1  0
  2  3  2  0
  2  4  1  0
  4  5  2  0
  4  9  1  0
  5  6  1  0
  6  7  2  0
  7 10  1  0
  7  8  1  0
 10 11  1  0
 10 14  1  0
 11 12  2  0
 12 13  1  0
 13 14  2  0
  8  9  2  0
M  END
>  <minimizedAffinity>  (170) 
-8.86610

$$$$
data/reference_output_2/data/smiles/87775.pdb
     RDKit          3D

 24 26  0  0  0  0  0  0  0  0999 V2000
   70.0776   46.1041   58.9417 O   0  0  0  0  0  0  0  0  0  0  0  0
   69.6773   46.2777   57.7782 C   0  0  0  0  0  0  0  0  0  0  0  0
   69.4794   45.0498   57.0295 N   0  0  0  0  0  0  0  0  0  0  0  0
   69.7338   43.8140   57.6226 N   0  0  0  0  0  0  0  0  0  0  0  0
   69.0673   42.7561   57.3283 C   0  0  0  0  0  0  0  0  0  0  0  0
   67.9754   42.6565   56.3698 C   0  0  0  0  0  0  0  0  0  0  0  0
   67.5568   43.6424   55.7006 O   0  0  0  0  0  0  0  0  0  0  0  0
   67.5144   41.3117   56.3455 N   0  0  0  0  0  0  0  0  0  0  0  0
   68.2985   40.5589   57.2766 C   0  0  0  0  0  0  0  0  0  0  0  0
   68.2331   39.2223   57.6091 C   0  0  0  0  0  0  0  0  0  0  0  0
   69.1267   38.7642   58.5522 C   0  0  0  0  0  0  0  0  0  0  0  0
   70.0582   39.5849   59.1560 C   0  0  0  0  0  0  0  0  0  0  0  0
   70.1067   40.9185   58.8095 C   0  0  0  0  0  0  0  0  0  0  0  0
   71.2617   42.0168   59.5320 Cl  0  0  0  0  0  0  0  0  0  0  0  0
   69.2246   41.3904   57.8717 C   0  0  0  0  0  0  0  0  0  0  0  0
   69.4137   47.5696   57.1655 C   0  0  0  0  0  0  0  0  0  0  0  0
   68.3481   47.5772   56.1464 C   0  0  0  0  0  0  0  0  0  0  0  0
   68.7375   47.5492   54.7429 C   0  0  0  0  0  0  0  0  0  0  0  0
   68.3086   46.4794   53.9470 C   0  0  0  0  0  0  0  0  0  0  0  0
   68.6611   46.3737   52.6242 C   0  0  0  0  0  0  0  0  0  0  0  0
   69.4636   47.3537   52.0631 C   0  0  0  0  0  0  0  0  0  0  0  0
   69.7938   47.2038   50.7228 O   0  0  0  0  0  0  0  0  0  0  0  0
   69.8961   48.4096   52.8266 C   0  0  0  0  0  0  0  0  0  0  0  0
   69.5322   48.5027   54.1602 C   0  0  0  0  0  0  0  0  0  0  0  0
  1  2  2  0
  2 16  1  0
  2  3  1  0
 16 17  1  0
 17 18  1  0
 18 19  2  0
 18 24  1  0
 19 20  1  0
 20 21  2  0
 21 22  1  0
 21 23  1  0
 23 24  2  0
  3  4  1  0
  4  5  2  0
  5  6  1  0
  5 15  1  0
  6  7  2  0
  6  8  1  0
  8  9  1  0
  9 10  1  0
  9 15  2  0
 10 11  2  0
 11 12  1  0
 12 13  2  0
 13 14  1  0
 13 15  1  0
M  END
>  <minimizedAffinity>  (171) 
-8.86506

$$$$
data/200k_reference_output/data/smiles/31416.pdb
     RDKit          3D

 23 25  0  0  0  0  0  0  0  0999 V2000
   68.2582   45.0992   55.8334 N   0  0  0  0  0  0  0  0  0  0  0  0
   68.6242   46.1838   55.5582 C   0  0  0  0  0  0  0  0  0  0  0  0
   68.3524   46.7293   54.1959 C   0  0  0  0  0  0  0  0  0  0  0  0
   69.2810   47.8027   54.0348 C   0  0  0  0  0  0  0  0  0  0  0  0
   69.6689   48.0933   52.7249 C   0  0  0  0  0  0  0  0  0  0  0  0
   69.1561   47.3787   51.6511 C   0  0  0  0  0  0  0  0  0  0  0  0
   68.2400   46.3789   51.8484 C   0  0  0  0  0  0  0  0  0  0  0  0
   67.8579   46.0739   53.1875 C   0  0  0  0  0  0  0  0  0  0  0  0
   70.1173   43.9901   56.7608 O   0  0  0  0  0  0  0  0  0  0  0  0
   69.0866   43.2125   56.7948 C   0  0  0  0  0  0  0  0  0  0  0  0
   67.8781   43.8940   56.2346 N   0  0  0  0  0  0  0  0  0  0  0  0
   69.2186   41.9172   57.3116 C   0  0  0  0  0  0  0  0  0  0  0  0
   68.1440   41.0034   57.0353 C   0  0  0  0  0  0  0  0  0  0  0  0
   68.1032   39.7691   57.5243 C   0  0  0  0  0  0  0  0  0  0  0  0
   69.1086   39.3232   58.3248 C   0  0  0  0  0  0  0  0  0  0  0  0
   70.1704   40.1559   58.6128 C   0  0  0  0  0  0  0  0  0  0  0  0
   70.2050   41.4279   58.1052 C   0  0  0  0  0  0  0  0  0  0  0  0
   69.1922   46.8585   56.7218 C   0  0  0  0  0  0  0  0  0  0  0  0
   68.1360   47.8882   57.1370 C   0  0  0  0  0  0  0  0  0  0  0  0
   66.9522   48.0287   57.5153 N   0  0  0  0  0  0  0  0  0  0  0  0
   66.6895   49.3195   57.8732 C   0  0  0  0  0  0  0  0  0  0  0  0
   67.8558   50.0067   57.6801 C   0  0  0  0  0  0  0  0  0  0  0  0
   68.7579   49.1818   57.2348 N   0  0  0  0  0  0  0  0  0  0  0  0
  9 10  2  0
 10 11  1  0
 10 12  1  0
 11  1  1  0
  1  2  2  0
  2 18  1  0
  2  3  1  0
 18 19  1  0
 19 20  2  0
 19 23  1  0
 20 21  1  0
 21 22  2  0
 22 23  1  0
  3  4  2  0
  3  8  1  0
  4  5  1  0
  5  6  2  0
  6  7  1  0
  7  8  2  0
 12 13  2  0
 12 17  1  0
 13 14  1  0
 14 15  2  0
 15 16  1  0
 16 17  2  0
M  CHG  1  20   1
M  END
>  <minimizedAffinity>  (172) 
-8.86082

$$$$
data/200k_reference_output/data/smiles/61232.pdb
     RDKit          3D

 22 23  0  0  0  0  0  0  0  0999 V2000
   70.3441   48.9335   51.0746 O   0  0  0  0  0  0  0  0  0  0  0  0
   70.0074   49.1739   52.5867 S   0  0  0  0  0  0  0  0  0  0  0  0
   71.4705   49.1751   53.1365 O   0  0  0  0  0  0  0  0  0  0  0  0
   69.2771   47.8538   53.1809 C   0  0  0  0  0  0  0  0  0  0  0  0
   68.6091   46.8765   52.4369 C   0  0  0  0  0  0  0  0  0  0  0  0
   68.4828   47.1475   51.1307 F   0  0  0  0  0  0  0  0  0  0  0  0
   68.0371   45.8297   53.0530 C   0  0  0  0  0  0  0  0  0  0  0  0
   67.1601   45.0374   52.3295 F   0  0  0  0  0  0  0  0  0  0  0  0
   68.1064   45.6322   54.3858 C   0  0  0  0  0  0  0  0  0  0  0  0
   67.6121   44.4955   54.9082 F   0  0  0  0  0  0  0  0  0  0  0  0
   68.7864   46.5730   55.1914 C   0  0  0  0  0  0  0  0  0  0  0  0
   68.8726   46.3573   56.5197 F   0  0  0  0  0  0  0  0  0  0  0  0
   69.3316   47.6352   54.5771 C   0  0  0  0  0  0  0  0  0  0  0  0
   69.6684   48.7120   55.3915 F   0  0  0  0  0  0  0  0  0  0  0  0
   69.5496   50.7877   52.5439 N   0  0  0  0  0  0  0  0  0  0  0  0
   70.0735   51.4417   53.7615 C   0  0  0  0  0  0  0  0  0  0  0  0
   68.9739   51.9992   54.6021 C   0  0  0  0  0  0  0  0  0  0  0  0
   68.8572   51.7581   55.9772 C   0  0  0  0  0  0  0  0  0  0  0  0
   67.6611   51.3735   56.6210 C   0  0  0  0  0  0  0  0  0  0  0  0
   68.0289   50.9347   57.8189 N   0  0  0  0  0  0  0  0  0  0  0  0
   69.3677   51.0306   57.9891 C   0  0  0  0  0  0  0  0  0  0  0  0
   69.8418   51.5360   56.8476 N   0  0  0  0  0  0  0  0  0  0  0  0
  1  2  2  0
  2  3  2  0
  2 15  1  0
  2  4  1  0
 15 16  1  0
 16 17  1  0
 17 18  1  0
 18 19  2  0
 18 22  1  0
 19 20  1  0
 20 21  1  0
 21 22  2  0
  4  5  2  0
  4 13  1  0
  5  6  1  0
  5  7  1  0
  7  8  1  0
  7  9  2  0
  9 10  1  0
  9 11  1  0
 11 12  1  0
 11 13  2  0
 13 14  1  0
M  CHG  1  22   1
M  END
>  <minimizedAffinity>  (173) 
-8.86065

$$$$
data/200k_reference_output/data/smiles/40055.pdb
     RDKit          3D

 26 29  0  0  0  0  0  0  0  0999 V2000
   69.0616   39.3806   57.9317 C   0  0  0  0  0  0  0  0  0  0  0  0
   67.8755   39.1575   57.2987 N   0  0  0  0  0  0  0  0  0  0  0  0
   67.4239   40.2691   56.7624 N   0  0  0  0  0  0  0  0  0  0  0  0
   68.2648   41.2948   56.9982 C   0  0  0  0  0  0  0  0  0  0  0  0
   68.2772   42.6402   56.6731 C   0  0  0  0  0  0  0  0  0  0  0  0
   69.3095   43.4623   57.0693 C   0  0  0  0  0  0  0  0  0  0  0  0
   70.2959   42.8920   57.7826 N   0  0  0  0  0  0  0  0  0  0  0  0
   70.3106   41.5757   58.1157 C   0  0  0  0  0  0  0  0  0  0  0  0
   69.2966   40.7278   57.7365 C   0  0  0  0  0  0  0  0  0  0  0  0
   73.2551   36.7144   58.4351 C   0  0  0  0  0  0  0  0  0  0  0  0
   71.9086   37.1372   58.8699 C   0  0  0  0  0  0  0  0  0  0  0  0
   71.1303   38.0664   58.1814 C   0  0  0  0  0  0  0  0  0  0  0  0
   69.8832   38.4144   58.6448 C   0  0  0  0  0  0  0  0  0  0  0  0
   69.4442   37.8132   59.8021 C   0  0  0  0  0  0  0  0  0  0  0  0
   70.2057   36.8900   60.4955 C   0  0  0  0  0  0  0  0  0  0  0  0
   71.4112   36.5932   59.9934 N   0  0  0  0  0  0  0  0  0  0  0  0
   69.3290   44.8568   56.7370 N   0  0  0  0  0  0  0  0  0  0  0  0
   68.6884   45.3623   55.5840 C   0  0  0  0  0  0  0  0  0  0  0  0
   68.0923   44.5359   54.8463 O   0  0  0  0  0  0  0  0  0  0  0  0
   68.6958   46.7450   55.2343 N   0  0  0  0  0  0  0  0  0  0  0  0
   68.0432   47.2668   54.0567 C   0  0  0  0  0  0  0  0  0  0  0  0
   69.0140   47.6487   52.9975 C   0  0  0  0  0  0  0  0  0  0  0  0
   69.2531   46.9365   51.8439 C   0  0  0  0  0  0  0  0  0  0  0  0
   70.1906   47.6154   51.1647 N   0  0  0  0  0  0  0  0  0  0  0  0
   70.5441   48.6973   51.8226 N   0  0  0  0  0  0  0  0  0  0  0  0
   69.8367   48.7436   52.9539 C   0  0  0  0  0  0  0  0  0  0  0  0
 10 11  1  0
 11 12  2  0
 11 16  1  0
 12 13  1  0
 13  1  1  0
 13 14  2  0
  1  2  2  0
  1  9  1  0
  2  3  1  0
  3  4  1  0
  4  5  1  0
  4  9  2  0
  5  6  2  0
  6 17  1  0
  6  7  1  0
 17 18  1  0
 18 19  2  0
 18 20  1  0
 20 21  1  0
 21 22  1  0
 22 23  1  0
 22 26  2  0
 23 24  2  0
 24 25  1  0
 25 26  1  0
  7  8  2  0
  8  9  1  0
 14 15  1  0
 15 16  2  0
M  END
>  <minimizedAffinity>  (174) 
-8.85779

$$$$
data/reference_output_2/data/smiles/197537.pdb
     RDKit          3D

 26 30  0  0  0  0  0  0  0  0999 V2000
   71.9210   47.4801   59.5410 C   0  0  0  0  0  0  0  0  0  0  0  0
   70.8658   47.4383   58.5942 N   0  0  0  0  0  0  0  0  0  0  0  0
   70.2099   48.5582   58.2225 C   0  0  0  0  0  0  0  0  0  0  0  0
   70.5262   49.7776   58.7134 C   0  0  0  0  0  0  0  0  0  0  0  0
   69.8157   50.9215   58.2941 C   0  0  0  0  0  0  0  0  0  0  0  0
   68.7890   50.8470   57.3840 C   0  0  0  0  0  0  0  0  0  0  0  0
   68.1201   51.9726   56.9979 F   0  0  0  0  0  0  0  0  0  0  0  0
   68.4632   49.6116   56.8817 C   0  0  0  0  0  0  0  0  0  0  0  0
   69.1650   48.5013   57.2984 C   0  0  0  0  0  0  0  0  0  0  0  0
   68.8143   47.2820   56.7735 C   0  0  0  0  0  0  0  0  0  0  0  0
   69.4736   46.1410   57.1452 C   0  0  0  0  0  0  0  0  0  0  0  0
   69.3117   44.8772   56.7731 N   0  0  0  0  0  0  0  0  0  0  0  0
   70.2013   44.0997   57.4079 C   0  0  0  0  0  0  0  0  0  0  0  0
   70.4523   42.7313   57.3764 C   0  0  0  0  0  0  0  0  0  0  0  0
   71.4480   42.1741   58.1409 C   0  0  0  0  0  0  0  0  0  0  0  0
   72.1827   43.0126   58.9351 C   0  0  0  0  0  0  0  0  0  0  0  0
   71.9585   44.3767   58.9904 C   0  0  0  0  0  0  0  0  0  0  0  0
   70.9673   44.9427   58.2306 C   0  0  0  0  0  0  0  0  0  0  0  0
   70.5208   46.2214   58.0735 C   0  0  0  0  0  0  0  0  0  0  0  0
   67.7768   47.2009   55.8521 O   0  0  0  0  0  0  0  0  0  0  0  0
   68.1063   47.0345   54.5009 C   0  0  0  0  0  0  0  0  0  0  0  0
   67.5958   45.9905   53.7652 C   0  0  0  0  0  0  0  0  0  0  0  0
   67.9007   45.8004   52.4384 C   0  0  0  0  0  0  0  0  0  0  0  0
   68.7551   46.6919   51.8117 C   0  0  0  0  0  0  0  0  0  0  0  0
   69.2874   47.7510   52.5126 C   0  0  0  0  0  0  0  0  0  0  0  0
   68.9576   47.9063   53.8407 C   0  0  0  0  0  0  0  0  0  0  0  0
  1  2  1  0
  2  3  2  0
  2 19  1  0
  3  4  1  0
  3  9  1  0
  4  5  2  0
  5  6  1  0
  6  7  1  0
  6  8  2  0
  8  9  1  0
  9 10  2  0
 10 20  1  0
 10 11  1  0
 20 21  1  0
 21 22  2  0
 21 26  1  0
 22 23  1  0
 23 24  2  0
 24 25  1  0
 25 26  2  0
 11 12  1  0
 11 19  2  0
 12 13  1  0
 13 14  1  0
 13 18  2  0
 14 15  2  0
 15 16  1  0
 16 17  2  0
 17 18  1  0
 18 19  1  0
M  CHG  1   2   1
M  END
>  <minimizedAffinity>  (175) 
-8.85771

$$$$
data/reference_output_2/data/smiles/108063.pdb
     RDKit          3D

 23 25  0  0  0  0  0  0  0  0999 V2000
   69.9187   47.0060   57.8051 C   0  0  0  0  0  0  0  0  0  0  0  0
   70.7064   48.1012   58.1040 C   0  0  0  0  0  0  0  0  0  0  0  0
   71.6303   48.0621   59.1468 C   0  0  0  0  0  0  0  0  0  0  0  0
   71.7906   46.9302   59.9186 C   0  0  0  0  0  0  0  0  0  0  0  0
   70.9929   45.8874   59.5816 N   0  0  0  0  0  0  0  0  0  0  0  0
   70.1212   45.9337   58.5918 N   0  0  0  0  0  0  0  0  0  0  0  0
   72.7395   46.8332   61.0209 C   0  0  0  0  0  0  0  0  0  0  0  0
   73.4401   45.7051   61.3697 C   0  0  0  0  0  0  0  0  0  0  0  0
   74.3305   45.6782   62.4287 C   0  0  0  0  0  0  0  0  0  0  0  0
   74.5233   46.8283   63.1626 C   0  0  0  0  0  0  0  0  0  0  0  0
   73.8169   47.9591   62.8066 C   0  0  0  0  0  0  0  0  0  0  0  0
   72.9658   47.9248   61.7685 N   0  0  0  0  0  0  0  0  0  0  0  0
   68.7472   46.9710   56.5238 S   0  0  0  0  0  0  0  0  0  0  0  0
   68.4402   45.5281   56.1328 O   0  0  0  0  0  0  0  0  0  0  0  0
   67.4371   47.5461   56.9927 O   0  0  0  0  0  0  0  0  0  0  0  0
   69.2349   47.8156   55.0493 C   0  0  0  0  0  0  0  0  0  0  0  0
   70.1692   48.8000   52.4168 C   0  0  0  0  0  0  0  0  0  0  0  0
   69.2293   47.6709   52.5859 C   0  0  0  0  0  0  0  0  0  0  0  0
   68.7760   47.0500   51.4424 C   0  0  0  0  0  0  0  0  0  0  0  0
   67.8559   46.0063   51.4638 C   0  0  0  0  0  0  0  0  0  0  0  0
   67.3948   45.5926   52.6826 C   0  0  0  0  0  0  0  0  0  0  0  0
   67.8407   46.2050   53.8334 C   0  0  0  0  0  0  0  0  0  0  0  0
   68.7528   47.2389   53.8057 C   0  0  0  0  0  0  0  0  0  0  0  0
 17 18  1  0
 18 19  2  0
 18 23  1  0
 19 20  1  0
 20 21  2  0
 21 22  1  0
 22 23  2  0
 23 16  1  0
 16 13  1  0
 13 14  2  0
 13 15  2  0
 13  1  1  0
  1  2  2  0
  1  6  1  0
  2  3  1  0
  3  4  2  0
  4  7  1  0
  4  5  1  0
  7  8  2  0
  7 12  1  0
  8  9  1  0
  9 10  2  0
 10 11  1  0
 11 12  2  0
  5  6  2  0
M  END
>  <minimizedAffinity>  (176) 
-8.85366

$$$$
data/200k_reference_output/data/smiles/17647.pdb
     RDKit          3D

 23 25  0  0  0  0  0  0  0  0999 V2000
   68.8267   47.2234   56.1240 C   0  0  0  0  0  0  0  0  0  0  0  0
   69.1555   47.7869   54.8148 C   0  0  0  0  0  0  0  0  0  0  0  0
   69.9397   48.9281   54.7134 C   0  0  0  0  0  0  0  0  0  0  0  0
   70.2516   49.4343   53.4875 C   0  0  0  0  0  0  0  0  0  0  0  0
   69.8088   48.8435   52.3421 C   0  0  0  0  0  0  0  0  0  0  0  0
   70.0990   49.3216   51.0703 O   0  0  0  0  0  0  0  0  0  0  0  0
   69.0186   47.6939   52.4419 C   0  0  0  0  0  0  0  0  0  0  0  0
   68.5658   47.0815   51.3243 N   0  0  0  0  0  0  0  0  0  0  0  0
   67.8068   45.9744   51.3620 C   0  0  0  0  0  0  0  0  0  0  0  0
   67.4643   45.4254   52.5775 C   0  0  0  0  0  0  0  0  0  0  0  0
   67.9106   46.0258   53.7341 C   0  0  0  0  0  0  0  0  0  0  0  0
   68.6937   47.1689   53.6619 C   0  0  0  0  0  0  0  0  0  0  0  0
   69.6693   47.4820   57.1908 N   0  0  0  0  0  0  0  0  0  0  0  0
   70.5002   46.5551   57.7833 C   0  0  0  0  0  0  0  0  0  0  0  0
   69.7374   44.7503   59.1570 O   0  0  0  0  0  0  0  0  0  0  0  0
   70.0568   45.1910   58.0362 C   0  0  0  0  0  0  0  0  0  0  0  0
   69.9508   44.2148   56.9666 N   0  0  0  0  0  0  0  0  0  0  0  0
   69.5181   42.8954   57.2344 C   0  0  0  0  0  0  0  0  0  0  0  0
   70.2520   41.9668   57.9275 C   0  0  0  0  0  0  0  0  0  0  0  0
   69.7692   40.6825   58.1682 C   0  0  0  0  0  0  0  0  0  0  0  0
   68.5297   40.2902   57.7205 C   0  0  0  0  0  0  0  0  0  0  0  0
   67.7780   41.2056   57.0228 C   0  0  0  0  0  0  0  0  0  0  0  0
   68.2603   42.4851   56.7836 C   0  0  0  0  0  0  0  0  0  0  0  0
 15 16  2  0
 16 14  1  0
 16 17  1  0
 14 13  1  0
 13  1  1  0
  1  2  1  0
  2  3  2  0
  2 12  1  0
  3  4  1  0
  4  5  2  0
  5  6  1  0
  5  7  1  0
  7  8  1  0
  7 12  2  0
  8  9  2  0
  9 10  1  0
 10 11  2  0
 11 12  1  0
 17 18  1  0
 18 19  2  0
 18 23  1  0
 19 20  1  0
 20 21  2  0
 21 22  1  0
 22 23  2  0
M  CHG  1  13   1
M  END
>  <minimizedAffinity>  (177) 
-8.85132

$$$$
data/200k_reference_output/data/smiles/65925.pdb
     RDKit          3D

 25 26  0  0  0  0  0  0  0  0999 V2000
   67.9681   41.7534   57.9944 C   0  0  0  0  0  0  0  0  0  0  0  0
   68.4821   42.6921   56.9107 C   0  0  0  0  0  0  0  0  0  0  0  0
   69.7124   42.7948   56.7885 O   0  0  0  0  0  0  0  0  0  0  0  0
   67.5435   43.3797   56.1187 N   0  0  0  0  0  0  0  0  0  0  0  0
   67.8413   44.2552   55.1095 N   0  0  0  0  0  0  0  0  0  0  0  0
   68.1929   45.6014   55.0930 C   0  0  0  0  0  0  0  0  0  0  0  0
   68.2781   46.2127   56.1731 O   0  0  0  0  0  0  0  0  0  0  0  0
   68.4764   46.3614   53.8698 C   0  0  0  0  0  0  0  0  0  0  0  0
   69.1339   47.5649   53.9656 C   0  0  0  0  0  0  0  0  0  0  0  0
   69.4422   48.3486   52.8667 C   0  0  0  0  0  0  0  0  0  0  0  0
   69.0864   47.9199   51.6437 N   0  0  0  0  0  0  0  0  0  0  0  0
   68.4428   46.7486   51.5149 C   0  0  0  0  0  0  0  0  0  0  0  0
   68.1237   45.9446   52.6139 C   0  0  0  0  0  0  0  0  0  0  0  0
   68.8506   41.8250   59.1891 C   0  0  0  0  0  0  0  0  0  0  0  0
   70.1191   41.3219   59.0923 O   0  0  0  0  0  0  0  0  0  0  0  0
   71.8683   37.5684   58.5307 C   0  0  0  0  0  0  0  0  0  0  0  0
   70.4981   37.6927   58.6111 C   0  0  0  0  0  0  0  0  0  0  0  0
   69.8913   38.9164   58.7955 C   0  0  0  0  0  0  0  0  0  0  0  0
   70.6187   40.0758   58.9097 C   0  0  0  0  0  0  0  0  0  0  0  0
   72.0174   39.9472   58.8266 C   0  0  0  0  0  0  0  0  0  0  0  0
   72.6083   38.7232   58.6425 C   0  0  0  0  0  0  0  0  0  0  0  0
   72.7972   36.0284   56.8831 C   0  0  0  0  0  0  0  0  0  0  0  0
   72.5246   36.2464   58.3321 C   0  0  0  0  0  0  0  0  0  0  0  0
   71.7002   35.1546   58.9566 C   0  0  0  0  0  0  0  0  0  0  0  0
   73.8591   36.2969   59.0592 C   0  0  0  0  0  0  0  0  0  0  0  0
 22 23  1  0
 23 24  1  0
 23 25  1  0
 23 16  1  0
 16 17  2  0
 16 21  1  0
 17 18  1  0
 18 19  2  0
 19 15  1  0
 19 20  1  0
 15 14  1  0
 14  1  1  0
  1  2  1  0
  2  3  2  0
  2  4  1  0
  4  5  1  0
  5  6  1  0
  6  7  2  0
  6  8  1  0
  8  9  2  0
  8 13  1  0
  9 10  1  0
 10 11  2  0
 11 12  1  0
 12 13  2  0
 20 21  2  0
M  END
>  <minimizedAffinity>  (178) 
-8.85100

$$$$
data/reference_output_2/data/smiles/186711.pdb
     RDKit          3D

 23 25  0  0  0  0  0  0  0  0999 V2000
   72.1668   50.3074   53.9579 O   0  0  0  0  0  0  0  0  0  0  0  0
   70.8162   50.1288   53.7191 C   0  0  0  0  0  0  0  0  0  0  0  0
   70.0239   50.9503   54.2471 O   0  0  0  0  0  0  0  0  0  0  0  0
   70.3211   49.0213   52.8815 C   0  0  0  0  0  0  0  0  0  0  0  0
   70.6303   48.8209   51.5894 N   0  0  0  0  0  0  0  0  0  0  0  0
   70.0122   47.7274   51.1316 N   0  0  0  0  0  0  0  0  0  0  0  0
   69.2979   47.2255   52.1513 C   0  0  0  0  0  0  0  0  0  0  0  0
   68.4750   46.1146   52.2435 C   0  0  0  0  0  0  0  0  0  0  0  0
   67.8253   45.7834   53.4274 C   0  0  0  0  0  0  0  0  0  0  0  0
   68.0027   46.5795   54.5397 C   0  0  0  0  0  0  0  0  0  0  0  0
   68.8296   47.6977   54.4535 C   0  0  0  0  0  0  0  0  0  0  0  0
   69.4673   48.0159   53.2763 C   0  0  0  0  0  0  0  0  0  0  0  0
   72.6919   51.2772   54.8431 C   0  0  0  0  0  0  0  0  0  0  0  0
   74.9141   52.0019   55.0700 O   0  0  0  0  0  0  0  0  0  0  0  0
   74.1231   51.0250   55.1242 C   0  0  0  0  0  0  0  0  0  0  0  0
   74.6572   49.7665   55.4481 N   0  0  0  0  0  0  0  0  0  0  0  0
   76.0417   49.5323   55.7192 C   0  0  0  0  0  0  0  0  0  0  0  0
   76.5362   49.5205   57.0077 C   0  0  0  0  0  0  0  0  0  0  0  0
   77.8721   49.2960   57.2957 C   0  0  0  0  0  0  0  0  0  0  0  0
   78.7677   49.0731   56.2684 C   0  0  0  0  0  0  0  0  0  0  0  0
   80.4571   48.7872   56.5996 Cl  0  0  0  0  0  0  0  0  0  0  0  0
   78.2469   49.0903   54.9834 C   0  0  0  0  0  0  0  0  0  0  0  0
   76.9403   49.3109   54.7359 N   0  0  0  0  0  0  0  0  0  0  0  0
 14 15  2  0
 15 13  1  0
 15 16  1  0
 13  1  1  0
  1  2  1  0
  2  3  2  0
  2  4  1  0
  4  5  2  0
  4 12  1  0
  5  6  1  0
  6  7  1  0
  7  8  1  0
  7 12  2  0
  8  9  2  0
  9 10  1  0
 10 11  2  0
 11 12  1  0
 16 17  1  0
 17 18  2  0
 17 23  1  0
 18 19  1  0
 19 20  2  0
 20 21  1  0
 20 22  1  0
 22 23  2  0
M  END
>  <minimizedAffinity>  (179) 
-8.85037

$$$$
data/reference_output_2/data/smiles/177834.pdb
     RDKit          3D

 22 24  0  0  0  0  0  0  0  0999 V2000
   69.5260   44.1457   57.2643 C   0  0  0  0  0  0  0  0  0  0  0  0
   68.9337   44.8423   56.2648 N   0  0  0  0  0  0  0  0  0  0  0  0
   69.0202   46.1447   56.5181 C   0  0  0  0  0  0  0  0  0  0  0  0
   69.6737   46.2528   57.6883 N   0  0  0  0  0  0  0  0  0  0  0  0
   69.9579   45.0664   58.1037 O   0  0  0  0  0  0  0  0  0  0  0  0
   69.6637   42.6605   57.3959 C   0  0  0  0  0  0  0  0  0  0  0  0
   67.7639   41.1496   57.5210 C   0  0  1  0  0  0  0  0  0  0  0  0
   68.3439   39.7555   57.6739 C   0  0  0  0  0  0  0  0  0  0  0  0
   68.8361   39.5908   59.0965 C   0  0  0  0  0  0  0  0  0  0  0  0
   68.2693   40.6738   60.0136 C   0  0  0  0  0  0  0  0  0  0  0  0
   68.6972   42.0414   59.5214 C   0  0  0  0  0  0  0  0  0  0  0  0
   68.6258   42.0594   58.1181 N   0  0  1  0  0  0  0  0  0  0  0  0
   67.5471   40.3019   55.2967 O   0  0  0  0  0  0  0  0  0  0  0  0
   67.3615   41.4260   56.1011 C   0  0  0  0  0  0  0  0  0  0  0  0
   68.5388   47.3243   55.7511 C   0  0  0  0  0  0  0  0  0  0  0  0
   68.5642   47.1224   54.2997 C   0  0  0  0  0  0  0  0  0  0  0  0
   69.3582   47.9240   53.5164 C   0  0  0  0  0  0  0  0  0  0  0  0
   69.3676   47.7185   52.1534 C   0  0  0  0  0  0  0  0  0  0  0  0
   68.6069   46.7376   51.5661 C   0  0  0  0  0  0  0  0  0  0  0  0
   67.8044   45.9261   52.3401 C   0  0  0  0  0  0  0  0  0  0  0  0
   67.0584   44.9631   51.7498 F   0  0  0  0  0  0  0  0  0  0  0  0
   67.8037   46.1434   53.7130 C   0  0  0  0  0  0  0  0  0  0  0  0
 13 14  1  0
  7 14  1  6
  7  8  1  0
  7 12  1  0
  8  9  1  0
  9 10  1  0
 10 11  1  0
 11 12  1  0
 12  6  1  6
  6  1  1  0
  1  2  2  0
  1  5  1  0
  2  3  1  0
  3 15  1  0
  3  4  2  0
 15 16  1  0
 16 17  2  0
 16 22  1  0
 17 18  1  0
 18 19  2  0
 19 20  1  0
 20 21  1  0
 20 22  2  0
  4  5  1  0
M  CHG  1  12   1
M  END
>  <minimizedAffinity>  (180) 
-8.85026

$$$$
data/reference_output_2/data/smiles/195403.pdb
     RDKit          3D

 24 25  0  0  0  0  0  0  0  0999 V2000
   71.5800   47.0830   58.1408 N   0  0  0  0  0  0  0  0  0  0  0  0
   70.5211   46.4234   58.4616 C   0  0  0  0  0  0  0  0  0  0  0  0
   70.5763   45.3071   59.3280 N   0  0  0  0  0  0  0  0  0  0  0  0
   69.7949   44.1438   59.0825 N   0  0  0  0  0  0  0  0  0  0  0  0
   70.1067   43.4402   58.0481 C   0  0  0  0  0  0  0  0  0  0  0  0
   69.3925   42.2227   57.6755 C   0  0  0  0  0  0  0  0  0  0  0  0
   69.6636   41.0011   58.2631 C   0  0  0  0  0  0  0  0  0  0  0  0
   68.9878   39.8524   57.9115 C   0  0  0  0  0  0  0  0  0  0  0  0
   69.2826   38.6564   58.5139 F   0  0  0  0  0  0  0  0  0  0  0  0
   68.0062   39.8831   56.9483 C   0  0  0  0  0  0  0  0  0  0  0  0
   67.7154   41.1053   56.3418 C   0  0  0  0  0  0  0  0  0  0  0  0
   68.4076   42.2409   56.7142 C   0  0  0  0  0  0  0  0  0  0  0  0
   68.0822   43.4162   56.0859 F   0  0  0  0  0  0  0  0  0  0  0  0
   69.2956   46.9003   57.8809 N   0  0  0  0  0  0  0  0  0  0  0  0
   68.8884   46.5258   56.5883 N   0  0  0  0  0  0  0  0  0  0  0  0
   69.1668   47.2501   55.5588 C   0  0  0  0  0  0  0  0  0  0  0  0
   68.7771   46.9205   54.1979 C   0  0  0  0  0  0  0  0  0  0  0  0
   67.9732   45.8500   53.8960 C   0  0  0  0  0  0  0  0  0  0  0  0
   67.6315   45.5814   52.5747 C   0  0  0  0  0  0  0  0  0  0  0  0
   66.8424   44.5392   52.2242 F   0  0  0  0  0  0  0  0  0  0  0  0
   68.0971   46.3888   51.5572 C   0  0  0  0  0  0  0  0  0  0  0  0
   68.8951   47.4542   51.8475 C   0  0  0  0  0  0  0  0  0  0  0  0
   69.2226   47.7028   53.1571 C   0  0  0  0  0  0  0  0  0  0  0  0
   70.0220   48.7751   53.4149 F   0  0  0  0  0  0  0  0  0  0  0  0
  1  2  2  0
  2  3  1  0
  2 14  1  0
  3  4  1  0
  4  5  2  0
  5  6  1  0
  6  7  2  0
  6 12  1  0
  7  8  1  0
  8  9  1  0
  8 10  2  0
 10 11  1  0
 11 12  2  0
 12 13  1  0
 14 15  1  0
 15 16  2  0
 16 17  1  0
 17 18  2  0
 17 23  1  0
 18 19  1  0
 19 20  1  0
 19 21  2  0
 21 22  1  0
 22 23  2  0
 23 24  1  0
M  CHG  1   1   1
M  END
>  <minimizedAffinity>  (181) 
-8.84857

$$$$
data/reference_output_2/data/smiles/94560.pdb
     RDKit          3D

 23 25  0  0  0  0  0  0  0  0999 V2000
   69.8729   45.7686   58.8932 O   0  0  0  0  0  0  0  0  0  0  0  0
   70.3290   45.2223   57.8686 C   0  0  0  0  0  0  0  0  0  0  0  0
   69.6041   45.4722   56.6389 N   0  0  0  0  0  0  0  0  0  0  0  0
   71.5093   44.4060   57.9766 C   0  0  0  0  0  0  0  0  0  0  0  0
   71.4243   43.0153   57.8208 C   0  0  0  0  0  0  0  0  0  0  0  0
   72.5299   42.2042   57.9178 C   0  0  0  0  0  0  0  0  0  0  0  0
   73.7757   42.7351   58.1755 C   0  0  0  0  0  0  0  0  0  0  0  0
   74.8774   41.9588   58.2759 N   0  0  0  0  0  0  0  0  0  0  0  0
   76.0936   42.4549   58.5253 C   0  0  0  0  0  0  0  0  0  0  0  0
   76.2704   43.8170   58.6934 C   0  0  0  0  0  0  0  0  0  0  0  0
   75.1536   44.6091   58.5926 C   0  0  0  0  0  0  0  0  0  0  0  0
   73.9045   44.0968   58.3360 C   0  0  0  0  0  0  0  0  0  0  0  0
   72.7703   44.8887   58.2318 C   0  0  0  0  0  0  0  0  0  0  0  0
   68.5237   46.2166   56.5283 N   0  0  0  0  0  0  0  0  0  0  0  0
   68.0511   46.9622   55.6837 C   0  0  0  0  0  0  0  0  0  0  0  0
   68.6146   47.2785   54.4005 C   0  0  0  0  0  0  0  0  0  0  0  0
   69.3733   48.4667   54.3805 C   0  0  0  0  0  0  0  0  0  0  0  0
   69.9868   48.9270   53.2424 C   0  0  0  0  0  0  0  0  0  0  0  0
   69.9026   48.2588   52.0474 C   0  0  0  0  0  0  0  0  0  0  0  0
   70.5331   48.7476   50.9140 O   0  0  0  0  0  0  0  0  0  0  0  0
   69.1691   47.1069   52.0589 C   0  0  0  0  0  0  0  0  0  0  0  0
   68.5349   46.6305   53.2314 C   0  0  0  0  0  0  0  0  0  0  0  0
   67.8347   45.4587   53.0841 O   0  0  0  0  0  0  0  0  0  0  0  0
  1  2  2  0
  2  3  1  0
  2  4  1  0
  3 14  1  0
 14 15  2  0
 15 16  1  0
 16 17  2  0
 16 22  1  0
 17 18  1  0
 18 19  2  0
 19 20  1  0
 19 21  1  0
 21 22  2  0
 22 23  1  0
  4  5  2  0
  4 13  1  0
  5  6  1  0
  6  7  2  0
  7  8  1  0
  7 12  1  0
  8  9  2  0
  9 10  1  0
 10 11  2  0
 11 12  1  0
 12 13  2  0
M  END
>  <minimizedAffinity>  (182) 
-8.84798

$$$$
data/200k_reference_output/data/smiles/31149.pdb
     RDKit          3D

 24 26  0  0  0  0  0  0  0  0999 V2000
   70.2042   46.0318   58.9078 O   0  0  0  0  0  0  0  0  0  0  0  0
   69.8248   46.3954   57.7388 C   0  0  0  0  0  0  0  0  0  0  0  0
   69.4409   45.3173   56.9088 N   0  0  0  0  0  0  0  0  0  0  0  0
   69.4689   43.9908   57.3500 N   0  0  0  0  0  0  0  0  0  0  0  0
   68.7243   42.9463   56.7739 C   0  0  0  0  0  0  0  0  0  0  0  0
   67.9867   43.2356   55.7970 O   0  0  0  0  0  0  0  0  0  0  0  0
   68.7629   41.5651   57.2432 C   0  0  0  0  0  0  0  0  0  0  0  0
   67.8384   40.6448   56.7997 C   0  0  0  0  0  0  0  0  0  0  0  0
   67.8520   39.3524   57.2207 N   0  0  0  0  0  0  0  0  0  0  0  0
   68.7896   38.9398   58.0984 C   0  0  0  0  0  0  0  0  0  0  0  0
   69.7254   39.8425   58.5564 C   0  0  0  0  0  0  0  0  0  0  0  0
   69.6799   41.1141   58.1159 N   0  0  0  0  0  0  0  0  0  0  0  0
   69.8178   47.8240   57.3552 C   0  0  0  0  0  0  0  0  0  0  0  0
   68.9228   48.0562   56.3068 O   0  0  0  0  0  0  0  0  0  0  0  0
   69.2822   48.3170   54.9874 C   0  0  0  0  0  0  0  0  0  0  0  0
   70.1066   49.3707   54.6146 C   0  0  0  0  0  0  0  0  0  0  0  0
   70.4264   49.5693   53.2855 C   0  0  0  0  0  0  0  0  0  0  0  0
   69.9542   48.7508   52.2835 C   0  0  0  0  0  0  0  0  0  0  0  0
   69.1361   47.7042   52.6491 C   0  0  0  0  0  0  0  0  0  0  0  0
   68.6519   46.8700   51.6498 C   0  0  0  0  0  0  0  0  0  0  0  0
   67.8320   45.8135   51.9768 C   0  0  0  0  0  0  0  0  0  0  0  0
   67.5252   45.6333   53.3112 C   0  0  0  0  0  0  0  0  0  0  0  0
   67.9920   46.4463   54.3140 C   0  0  0  0  0  0  0  0  0  0  0  0
   68.8161   47.5047   53.9733 C   0  0  0  0  0  0  0  0  0  0  0  0
  1  2  2  0
  2 13  1  0
  2  3  1  0
 13 14  1  0
 14 15  1  0
 15 16  2  0
 15 24  1  0
 16 17  1  0
 17 18  2  0
 18 19  1  0
 19 20  1  0
 19 24  2  0
 20 21  2  0
 21 22  1  0
 22 23  2  0
 23 24  1  0
  3  4  1  0
  4  5  1  0
  5  6  2  0
  5  7  1  0
  7  8  2  0
  7 12  1  0
  8  9  1  0
  9 10  2  0
 10 11  1  0
 11 12  2  0
M  END
>  <minimizedAffinity>  (183) 
-8.84706

$$$$
data/200k_reference_output/data/smiles/27419.pdb
     RDKit          3D

 22 23  0  0  0  0  0  0  0  0999 V2000
   69.2943   46.5986   56.4176 N   0  0  0  0  0  0  0  0  0  0  0  0
   68.6960   45.8839   55.5309 C   0  0  0  0  0  0  0  0  0  0  0  0
   68.0859   44.6694   55.8831 N   0  0  0  0  0  0  0  0  0  0  0  0
   68.6149   46.2834   54.1290 C   0  0  0  0  0  0  0  0  0  0  0  0
   67.7825   45.6715   53.2156 C   0  0  0  0  0  0  0  0  0  0  0  0
   67.7463   46.0962   51.8865 C   0  0  0  0  0  0  0  0  0  0  0  0
   68.5510   47.1363   51.4882 C   0  0  0  0  0  0  0  0  0  0  0  0
   69.3873   47.7526   52.3992 C   0  0  0  0  0  0  0  0  0  0  0  0
   69.4123   47.3228   53.7099 C   0  0  0  0  0  0  0  0  0  0  0  0
   70.2137   48.8257   51.9786 N   0  0  0  0  0  0  0  0  0  0  0  0
   69.9149   49.4691   50.9562 O   0  0  0  0  0  0  0  0  0  0  0  0
   71.3276   49.1173   52.7228 O   0  0  0  0  0  0  0  0  0  0  0  0
   69.3189   46.1408   57.7092 O   0  0  0  0  0  0  0  0  0  0  0  0
   70.4532   45.7899   58.3914 C   0  0  0  0  0  0  0  0  0  0  0  0
   70.8999   46.5973   59.2462 O   0  0  0  0  0  0  0  0  0  0  0  0
   74.7096   43.1842   58.1195 C   0  0  0  0  0  0  0  0  0  0  0  0
   73.2199   43.2406   58.0303 C   0  0  0  0  0  0  0  0  0  0  0  0
   72.4652   42.1220   57.7375 C   0  0  0  0  0  0  0  0  0  0  0  0
   71.0887   42.1709   57.6540 C   0  0  0  0  0  0  0  0  0  0  0  0
   70.4480   43.3786   57.8703 C   0  0  0  0  0  0  0  0  0  0  0  0
   71.1602   44.5213   58.1662 C   0  0  0  0  0  0  0  0  0  0  0  0
   72.5252   44.4198   58.2372 C   0  0  0  0  0  0  0  0  0  0  0  0
 16 17  1  0
 17 18  2  0
 17 22  1  0
 18 19  1  0
 19 20  2  0
 20 21  1  0
 21 14  1  0
 21 22  2  0
 14 15  2  0
 14 13  1  0
 13  1  1  0
  1  2  2  0
  2  3  1  0
  2  4  1  0
  4  5  2  0
  4  9  1  0
  5  6  1  0
  6  7  2  0
  7  8  1  0
  8 10  1  0
  8  9  2  0
 10 11  2  0
 10 12  1  0
M  CHG  3   1   1  10   1  12  -1
M  END
>  <minimizedAffinity>  (184) 
-8.84656

$$$$
data/reference_output_2/data/smiles/147148.pdb
     RDKit          3D

 23 25  0  0  0  0  0  0  0  0999 V2000
   69.4974   48.9903   56.2286 C   0  0  0  0  0  0  0  0  0  0  0  0
   69.7680   48.7203   54.8073 C   0  0  0  0  0  0  0  0  0  0  0  0
   70.7936   49.3583   54.1864 N   0  0  0  0  0  0  0  0  0  0  0  0
   71.0488   49.1688   52.9073 N   0  0  0  0  0  0  0  0  0  0  0  0
   70.3286   48.3463   52.1333 C   0  0  0  0  0  0  0  0  0  0  0  0
   70.5730   48.1685   50.9204 O   0  0  0  0  0  0  0  0  0  0  0  0
   69.2615   47.6557   52.7002 C   0  0  0  0  0  0  0  0  0  0  0  0
   69.0084   47.8707   54.0590 C   0  0  0  0  0  0  0  0  0  0  0  0
   67.8917   47.1037   54.6403 C   0  0  0  0  0  0  0  0  0  0  0  0
   67.8872   45.6578   54.1112 C   0  0  0  0  0  0  0  0  0  0  0  0
   67.8422   45.5885   52.6289 C   0  0  0  0  0  0  0  0  0  0  0  0
   68.4157   46.7481   51.9068 C   0  0  0  0  0  0  0  0  0  0  0  0
   70.6013   46.2332   58.5646 C   0  0  0  0  0  0  0  0  0  0  0  0
   71.9104   46.5894   58.9179 C   0  0  0  0  0  0  0  0  0  0  0  0
   72.3900   47.7473   58.3700 C   0  0  0  0  0  0  0  0  0  0  0  0
   71.6453   48.5416   57.5094 C   0  0  0  0  0  0  0  0  0  0  0  0
   70.3664   48.2016   57.1575 C   0  0  0  0  0  0  0  0  0  0  0  0
   69.8631   47.0156   57.7142 C   0  0  0  0  0  0  0  0  0  0  0  0
   70.0835   45.0446   59.1264 N   0  0  0  0  0  0  0  0  0  0  0  0
   71.2075   42.6931   57.8095 C   0  0  0  0  0  0  0  0  0  0  0  0
   69.7940   43.6678   58.1674 S   0  0  0  0  0  0  0  0  0  0  0  0
   68.7263   42.7987   58.8204 O   0  0  0  0  0  0  0  0  0  0  0  0
   69.1805   44.0735   56.8279 O   0  0  0  0  0  0  0  0  0  0  0  0
 20 21  1  0
 21 22  2  0
 21 23  2  0
 21 19  1  0
 19 13  1  0
 13 14  2  0
 13 18  1  0
 14 15  1  0
 15 16  2  0
 16 17  1  0
 17  1  1  0
 17 18  2  0
  1  2  1  0
  2  3  2  0
  2  8  1  0
  3  4  1  0
  4  5  1  0
  5  6  2  0
  5  7  1  0
  7  8  2  0
  7 12  1  0
  8  9  1  0
  9 10  1  0
 10 11  1  0
 11 12  1  0
M  END
>  <minimizedAffinity>  (185) 
-8.84412

$$$$
data/200k_reference_output/data/smiles/36477.pdb
     RDKit          3D

 23 25  0  0  0  0  0  0  0  0999 V2000
   69.7083   45.0893   59.1574 O   0  0  0  0  0  0  0  0  0  0  0  0
   70.5484   45.3394   58.2798 C   0  0  0  0  0  0  0  0  0  0  0  0
   70.2271   46.4018   57.3717 N   0  0  0  0  0  0  0  0  0  0  0  0
   71.7866   44.5863   58.1872 C   0  0  0  0  0  0  0  0  0  0  0  0
   71.7303   43.2698   57.7103 C   0  0  0  0  0  0  0  0  0  0  0  0
   72.8518   42.4829   57.5894 C   0  0  0  0  0  0  0  0  0  0  0  0
   74.0857   42.9822   57.9441 C   0  0  0  0  0  0  0  0  0  0  0  0
   75.2118   42.2159   57.8309 N   0  0  0  0  0  0  0  0  0  0  0  0
   76.4123   42.7097   58.1787 C   0  0  0  0  0  0  0  0  0  0  0  0
   76.5542   43.9972   58.6574 C   0  0  0  0  0  0  0  0  0  0  0  0
   75.4163   44.7617   58.7672 C   0  0  0  0  0  0  0  0  0  0  0  0
   74.1663   44.2736   58.4154 C   0  0  0  0  0  0  0  0  0  0  0  0
   73.0294   45.0404   58.5265 C   0  0  0  0  0  0  0  0  0  0  0  0
   69.0791   47.1229   57.4313 N   0  0  0  0  0  0  0  0  0  0  0  0
   68.4081   47.5482   56.4694 C   0  0  0  0  0  0  0  0  0  0  0  0
   68.6859   47.3792   55.0694 C   0  0  0  0  0  0  0  0  0  0  0  0
   68.2737   46.3330   54.3063 C   0  0  0  0  0  0  0  0  0  0  0  0
   68.5915   46.2464   52.9365 C   0  0  0  0  0  0  0  0  0  0  0  0
   69.3296   47.2160   52.3203 C   0  0  0  0  0  0  0  0  0  0  0  0
   69.6221   47.0944   50.9670 O   0  0  0  0  0  0  0  0  0  0  0  0
   69.7542   48.2786   53.0707 C   0  0  0  0  0  0  0  0  0  0  0  0
   70.5004   49.2485   52.4272 O   0  0  0  0  0  0  0  0  0  0  0  0
   69.4382   48.3456   54.3916 C   0  0  0  0  0  0  0  0  0  0  0  0
  1  2  2  0
  2  3  1  0
  2  4  1  0
  3 14  1  0
 14 15  2  0
 15 16  1  0
 16 17  2  0
 16 23  1  0
 17 18  1  0
 18 19  2  0
 19 20  1  0
 19 21  1  0
 21 22  1  0
 21 23  2  0
  4  5  2  0
  4 13  1  0
  5  6  1  0
  6  7  2  0
  7  8  1  0
  7 12  1  0
  8  9  2  0
  9 10  1  0
 10 11  2  0
 11 12  1  0
 12 13  2  0
M  END
>  <minimizedAffinity>  (186) 
-8.84396

$$$$
data/reference_output_2/data/smiles/90951.pdb
     RDKit          3D

 23 25  0  0  0  0  0  0  0  0999 V2000
   70.2197   44.4569   57.6949 C   0  0  0  0  0  0  0  0  0  0  0  0
   71.1220   45.3807   58.1929 C   0  0  0  0  0  0  0  0  0  0  0  0
   70.6575   46.6154   57.8038 C   0  0  0  0  0  0  0  0  0  0  0  0
   69.5038   46.4206   57.0891 C   0  0  0  0  0  0  0  0  0  0  0  0
   69.2942   45.1278   57.0573 O   0  0  0  0  0  0  0  0  0  0  0  0
   70.2921   43.0052   57.8548 C   0  0  0  0  0  0  0  0  0  0  0  0
   71.3001   42.3875   57.4040 O   0  0  0  0  0  0  0  0  0  0  0  0
   69.2293   42.2397   58.5255 C   0  0  0  0  0  0  0  0  0  0  0  0
   69.3304   39.9094   58.0614 O   0  0  0  0  0  0  0  0  0  0  0  0
   68.8481   41.0520   57.7412 C   0  0  0  0  0  0  0  0  0  0  0  0
   67.9394   41.1435   56.6167 C   0  0  0  0  0  0  0  0  0  0  0  0
   67.1677   42.2278   56.3375 N   0  0  0  0  0  0  0  0  0  0  0  0
   66.4676   41.9524   55.2446 C   0  0  0  0  0  0  0  0  0  0  0  0
   66.7755   40.7267   54.8284 N   0  0  0  0  0  0  0  0  0  0  0  0
   67.6868   40.2240   55.6756 N   0  0  0  0  0  0  0  0  0  0  0  0
   68.6585   47.4956   56.4722 C   0  0  0  0  0  0  0  0  0  0  0  0
   68.6338   47.2798   55.0025 C   0  0  0  0  0  0  0  0  0  0  0  0
   67.9091   46.2165   54.4797 C   0  0  0  0  0  0  0  0  0  0  0  0
   67.8561   45.9773   53.1271 C   0  0  0  0  0  0  0  0  0  0  0  0
   68.5446   46.8281   52.2954 C   0  0  0  0  0  0  0  0  0  0  0  0
   68.5107   46.6184   50.9531 F   0  0  0  0  0  0  0  0  0  0  0  0
   69.2757   47.8966   52.7728 C   0  0  0  0  0  0  0  0  0  0  0  0
   69.3120   48.1144   54.1455 C   0  0  0  0  0  0  0  0  0  0  0  0
  9 10  2  0
 10  8  1  0
 10 11  1  0
  8  6  1  0
  6  7  2  0
  6  1  1  0
  1  2  2  0
  1  5  1  0
  2  3  1  0
  3  4  2  0
  4 16  1  0
  4  5  1  0
 16 17  1  0
 17 18  2  0
 17 23  1  0
 18 19  1  0
 19 20  2  0
 20 21  1  0
 20 22  1  0
 22 23  2  0
 11 12  1  0
 11 15  2  0
 12 13  2  0
 13 14  1  0
 14 15  1  0
M  END
>  <minimizedAffinity>  (187) 
-8.84337

$$$$
data/reference_output_2/data/smiles/183184.pdb
     RDKit          3D

 22 25  0  0  0  0  0  0  0  0999 V2000
   69.4758   49.4963   57.3886 N   0  0  2  0  0  0  0  0  0  0  0  0
   70.7069   49.5482   56.6204 C   0  0  0  0  0  0  0  0  0  0  0  0
   70.4075   49.0431   55.2627 C   0  0  0  0  0  0  0  0  0  0  0  0
   71.1521   49.5839   54.3516 N   0  0  0  0  0  0  0  0  0  0  0  0
   71.1671   49.3650   52.9542 N   0  0  0  0  0  0  0  0  0  0  0  0
   70.3641   48.4896   52.1630 C   0  0  0  0  0  0  0  0  0  0  0  0
   70.5773   48.4835   50.9245 O   0  0  0  0  0  0  0  0  0  0  0  0
   69.3083   47.5862   52.6326 C   0  0  0  0  0  0  0  0  0  0  0  0
   68.7067   46.8629   51.6334 C   0  0  0  0  0  0  0  0  0  0  0  0
   67.6906   45.9803   52.0077 C   0  0  0  0  0  0  0  0  0  0  0  0
   67.0924   45.2633   51.0285 F   0  0  0  0  0  0  0  0  0  0  0  0
   67.2852   45.8249   53.3376 C   0  0  0  0  0  0  0  0  0  0  0  0
   67.9170   46.5719   54.3061 C   0  0  0  0  0  0  0  0  0  0  0  0
   67.7850   46.6726   55.6505 N   0  0  0  0  0  0  0  0  0  0  0  0
   68.6677   47.5764   56.1550 C   0  0  0  0  0  0  0  0  0  0  0  0
   69.3701   48.0494   55.0799 C   0  0  0  0  0  0  0  0  0  0  0  0
   68.9262   47.4515   53.9525 C   0  0  0  0  0  0  0  0  0  0  0  0
   69.0363   48.1392   57.4895 C   0  0  0  0  0  0  0  0  0  0  0  0
   68.5402   50.3863   56.7906 C   0  0  0  0  0  0  0  0  0  0  0  0
   68.6912   51.8179   57.2366 C   0  0  0  0  0  0  0  0  0  0  0  0
   68.3813   52.1478   54.7746 C   0  0  0  0  0  0  0  0  0  0  0  0
   68.9540   52.7040   56.0362 C   0  0  0  0  0  0  0  0  0  0  0  0
 21 22  1  0
 22 20  1  0
 20 19  1  0
  1 19  1  6
  1  2  1  0
  1 18  1  0
  2  3  1  0
  3  4  2  0
  3 16  1  0
  4  5  1  0
  5  6  1  0
  6  7  2  0
  6  8  1  0
  8  9  1  0
  8 17  2  0
  9 10  2  0
 10 11  1  0
 10 12  1  0
 12 13  2  0
 13 14  1  0
 13 17  1  0
 14 15  1  0
 15 16  2  0
 15 18  1  0
 16 17  1  0
M  CHG  1   1   1
M  END
>  <minimizedAffinity>  (188) 
-8.83980

$$$$
data/reference_output_2/data/smiles/200614.pdb
     RDKit          3D

 23 24  0  0  0  0  0  0  0  0999 V2000
   72.7511   50.8133   55.2790 C   0  0  0  0  0  0  0  0  0  0  0  0
   72.7858   49.7090   55.8824 O   0  0  0  0  0  0  0  0  0  0  0  0
   71.9533   50.8378   54.0883 N   0  0  0  0  0  0  0  0  0  0  0  0
   71.2708   49.6963   53.6494 N   0  0  0  0  0  0  0  0  0  0  0  0
   70.0548   49.4359   53.9514 C   0  0  0  0  0  0  0  0  0  0  0  0
   69.3330   48.2630   53.5086 C   0  0  0  0  0  0  0  0  0  0  0  0
   68.6803   47.4584   54.4069 C   0  0  0  0  0  0  0  0  0  0  0  0
   68.6956   47.7656   55.8616 C   0  0  0  0  0  0  0  0  0  0  0  0
   67.9850   46.3308   53.9921 C   0  0  0  0  0  0  0  0  0  0  0  0
   67.9281   45.9854   52.6628 C   0  0  0  0  0  0  0  0  0  0  0  0
   67.2213   44.8497   52.2859 O   0  0  0  0  0  0  0  0  0  0  0  0
   68.5800   46.7893   51.7570 C   0  0  0  0  0  0  0  0  0  0  0  0
   69.2824   47.9281   52.1772 C   0  0  0  0  0  0  0  0  0  0  0  0
   69.9126   48.6841   51.1988 O   0  0  0  0  0  0  0  0  0  0  0  0
   73.4822   52.0124   55.7615 C   0  0  0  0  0  0  0  0  0  0  0  0
   72.6280   52.6897   56.7134 N   0  0  0  0  0  0  0  0  0  0  0  0
   67.1631   51.1142   57.3900 C   0  0  0  0  0  0  0  0  0  0  0  0
   68.5938   51.5272   57.2157 C   0  0  0  0  0  0  0  0  0  0  0  0
   68.9568   52.4199   56.2356 C   0  0  0  0  0  0  0  0  0  0  0  0
   70.2795   52.7825   56.0980 C   0  0  0  0  0  0  0  0  0  0  0  0
   71.2885   52.2838   56.9135 C   0  0  0  0  0  0  0  0  0  0  0  0
   70.9069   51.3932   57.8863 C   0  0  0  0  0  0  0  0  0  0  0  0
   69.5660   51.0188   58.0351 C   0  0  0  0  0  0  0  0  0  0  0  0
 17 18  1  0
 18 19  2  0
 18 23  1  0
 19 20  1  0
 20 21  2  0
 21 16  1  0
 21 22  1  0
 16 15  1  0
 15  1  1  0
  1  2  2  0
  1  3  1  0
  3  4  1  0
  4  5  2  0
  5  6  1  0
  6  7  2  0
  6 13  1  0
  7  8  1  0
  7  9  1  0
  9 10  2  0
 10 11  1  0
 10 12  1  0
 12 13  2  0
 13 14  1  0
 22 23  2  0
M  END
>  <minimizedAffinity>  (189) 
-8.83886

$$$$
data/reference_output_2/data/smiles/117549.pdb
     RDKit          3D

 22 24  0  0  0  0  0  0  0  0999 V2000
   68.2465   45.0245   56.1093 N   0  0  0  0  0  0  0  0  0  0  0  0
   68.3010   45.5984   54.8108 C   0  0  0  0  0  0  0  0  0  0  0  0
   69.0154   46.7116   54.5689 N   0  0  0  0  0  0  0  0  0  0  0  0
   69.0824   47.2749   53.3454 C   0  0  0  0  0  0  0  0  0  0  0  0
   69.7345   48.3931   52.8661 C   0  0  0  0  0  0  0  0  0  0  0  0
   69.3951   48.4291   51.5090 C   0  0  0  0  0  0  0  0  0  0  0  0
   68.5940   47.3898   51.2261 N   0  0  0  0  0  0  0  0  0  0  0  0
   68.3720   46.6460   52.3331 C   0  0  0  0  0  0  0  0  0  0  0  0
   67.6355   45.5016   52.5718 C   0  0  0  0  0  0  0  0  0  0  0  0
   66.9880   44.9204   51.6683 O   0  0  0  0  0  0  0  0  0  0  0  0
   67.6142   44.9972   53.8133 N   0  0  0  0  0  0  0  0  0  0  0  0
   70.6017   49.3528   53.6011 C   0  0  0  0  0  0  0  0  0  0  0  0
   69.8203   50.3384   54.3924 C   0  0  0  0  0  0  0  0  0  0  0  0
   69.7063   51.6520   53.9758 C   0  0  0  0  0  0  0  0  0  0  0  0
   68.9782   52.5609   54.7124 C   0  0  0  0  0  0  0  0  0  0  0  0
   68.3374   52.2036   55.8887 C   0  0  0  0  0  0  0  0  0  0  0  0
   68.4410   50.9064   56.3153 C   0  0  0  0  0  0  0  0  0  0  0  0
   69.1737   49.9899   55.5740 C   0  0  0  0  0  0  0  0  0  0  0  0
   67.7731   50.4745   57.5641 C   0  0  0  0  0  0  0  0  0  0  0  0
   66.6356   51.2472   57.8049 F   0  0  0  0  0  0  0  0  0  0  0  0
   68.6167   50.6639   58.6466 F   0  0  0  0  0  0  0  0  0  0  0  0
   67.4602   49.1341   57.5119 F   0  0  0  0  0  0  0  0  0  0  0  0
  1  2  1  0
  2  3  2  0
  2 11  1  0
  3  4  1  0
  4  5  1  0
  4  8  2  0
  5 12  1  0
  5  6  2  0
 12 13  1  0
 13 14  2  0
 13 18  1  0
 14 15  1  0
 15 16  2  0
 16 17  1  0
 17 19  1  0
 17 18  2  0
 19 20  1  0
 19 21  1  0
 19 22  1  0
  6  7  1  0
  7  8  1  0
  8  9  1  0
  9 10  2  0
  9 11  1  0
M  END
>  <minimizedAffinity>  (190) 
-8.83818

$$$$
data/reference_output_2/data/smiles/142527.pdb
     RDKit          3D

 24 26  0  0  0  0  0  0  0  0999 V2000
   71.3355   50.1899   56.6435 C   0  0  0  0  0  0  0  0  0  0  0  0
   73.2216   50.1459   58.0713 O   0  0  0  0  0  0  0  0  0  0  0  0
   72.7616   50.0388   56.9290 C   0  0  0  0  0  0  0  0  0  0  0  0
   73.7338   49.7552   55.9023 N   0  0  0  0  0  0  0  0  0  0  0  0
   75.0851   49.6204   56.2345 N   0  0  0  0  0  0  0  0  0  0  0  0
   75.9637   50.1422   55.4832 C   0  0  0  0  0  0  0  0  0  0  0  0
   77.4005   50.0755   55.7156 C   0  0  0  0  0  0  0  0  0  0  0  0
   78.0674   51.0254   56.4527 C   0  0  0  0  0  0  0  0  0  0  0  0
   79.4390   50.9568   56.6705 C   0  0  0  0  0  0  0  0  0  0  0  0
   80.1539   49.9074   56.1335 C   0  0  0  0  0  0  0  0  0  0  0  0
   79.5160   48.9458   55.3946 C   0  0  0  0  0  0  0  0  0  0  0  0
   78.1371   49.0358   55.1890 C   0  0  0  0  0  0  0  0  0  0  0  0
   71.1196   50.6253   55.2216 C   0  0  0  0  0  0  0  0  0  0  0  0
   70.4687   49.6089   54.3662 C   0  0  0  0  0  0  0  0  0  0  0  0
   69.6618   48.6315   54.8179 N   0  0  0  0  0  0  0  0  0  0  0  0
   69.0733   47.7102   54.0416 C   0  0  0  0  0  0  0  0  0  0  0  0
   68.2487   46.7142   54.5120 C   0  0  0  0  0  0  0  0  0  0  0  0
   67.6874   45.8095   53.6442 C   0  0  0  0  0  0  0  0  0  0  0  0
   67.9431   45.8911   52.3002 C   0  0  0  0  0  0  0  0  0  0  0  0
   68.7663   46.8847   51.8248 C   0  0  0  0  0  0  0  0  0  0  0  0
   69.3246   47.7845   52.6904 C   0  0  0  0  0  0  0  0  0  0  0  0
   70.1665   48.8033   52.2198 C   0  0  0  0  0  0  0  0  0  0  0  0
   70.3895   48.8607   50.9754 O   0  0  0  0  0  0  0  0  0  0  0  0
   70.7291   49.6996   53.0391 N   0  0  0  0  0  0  0  0  0  0  0  0
  2  3  2  0
  3  1  1  0
  3  4  1  0
  1 13  1  0
 13 14  1  0
 14 15  2  0
 14 24  1  0
 15 16  1  0
 16 17  2  0
 16 21  1  0
 17 18  1  0
 18 19  2  0
 19 20  1  0
 20 21  2  0
 21 22  1  0
 22 23  2  0
 22 24  1  0
  4  5  1  0
  5  6  2  0
  6  7  1  0
  7  8  2  0
  7 12  1  0
  8  9  1  0
  9 10  2  0
 10 11  1  0
 11 12  2  0
M  END
>  <minimizedAffinity>  (191) 
-8.83815

$$$$
data/reference_output_2/data/smiles/122457.pdb
     RDKit          3D

 23 25  0  0  0  0  0  0  0  0999 V2000
   68.1471   45.4781   54.7416 C   0  0  0  0  0  0  0  0  0  0  0  0
   68.1641   44.8817   55.8627 N   0  0  0  0  0  0  0  0  0  0  0  0
   69.5399   48.4422   52.9445 C   0  0  0  0  0  0  0  0  0  0  0  0
   69.6722   49.3531   53.9802 C   0  0  0  0  0  0  0  0  0  0  0  0
   69.3079   49.0304   55.2794 C   0  0  0  0  0  0  0  0  0  0  0  0
   68.7946   47.7577   55.5500 C   0  0  0  0  0  0  0  0  0  0  0  0
   68.6539   46.8432   54.5544 C   0  0  0  0  0  0  0  0  0  0  0  0
   69.0320   47.2084   53.2563 C   0  0  0  0  0  0  0  0  0  0  0  0
   68.8928   46.2825   52.2152 O   0  0  0  0  0  0  0  0  0  0  0  0
   70.4776   47.8648   50.9363 O   0  0  0  0  0  0  0  0  0  0  0  0
   69.9097   48.7484   51.6063 N   0  0  0  0  0  0  0  0  0  0  0  0
   69.6727   49.9644   51.0189 O   0  0  0  0  0  0  0  0  0  0  0  0
   67.6931   43.5840   56.1014 N   0  0  0  0  0  0  0  0  0  0  0  0
   68.5320   42.6474   56.8036 C   0  0  0  0  0  0  0  0  0  0  0  0
   69.8152   43.0627   57.1872 C   0  0  0  0  0  0  0  0  0  0  0  0
   70.6805   42.2458   57.8720 C   0  0  0  0  0  0  0  0  0  0  0  0
   70.2480   40.9685   58.1846 C   0  0  0  0  0  0  0  0  0  0  0  0
   71.0537   40.0858   58.8755 C   0  0  0  0  0  0  0  0  0  0  0  0
   70.5607   38.8324   59.1575 C   0  0  0  0  0  0  0  0  0  0  0  0
   69.3064   38.3965   58.7956 C   0  0  0  0  0  0  0  0  0  0  0  0
   68.5256   39.2978   58.1096 C   0  0  0  0  0  0  0  0  0  0  0  0
   68.9896   40.5755   57.8037 C   0  0  0  0  0  0  0  0  0  0  0  0
   68.1483   41.4184   57.1187 N   0  0  0  0  0  0  0  0  0  0  0  0
 10 11  2  0
 11 12  1  0
 11  3  1  0
  3  4  2  0
  3  8  1  0
  4  5  1  0
  5  6  2  0
  6  7  1  0
  7  1  1  0
  7  8  2  0
  1  2  2  0
  2 13  1  0
 13 14  1  0
 14 15  2  0
 14 23  1  0
 15 16  1  0
 16 17  2  0
 17 18  1  0
 17 22  1  0
 18 19  2  0
 19 20  1  0
 20 21  2  0
 21 22  1  0
 22 23  2  0
  8  9  1  0
M  CHG  2  11   1  12  -1
M  END
>  <minimizedAffinity>  (192) 
-8.83777

$$$$
data/200k_reference_output/data/smiles/36926.pdb
     RDKit          3D

 23 24  0  0  0  0  0  0  0  0999 V2000
   67.9655   43.9710   55.4639 N   0  0  0  0  0  0  0  0  0  0  0  0
   68.2624   45.3414   55.2515 C   0  0  0  0  0  0  0  0  0  0  0  0
   68.4595   46.0411   56.2709 O   0  0  0  0  0  0  0  0  0  0  0  0
   68.3481   45.9629   53.9367 C   0  0  0  0  0  0  0  0  0  0  0  0
   67.5443   45.5217   52.8973 C   0  0  0  0  0  0  0  0  0  0  0  0
   67.5607   46.0488   51.6445 C   0  0  0  0  0  0  0  0  0  0  0  0
   66.7396   45.5931   50.5878 N   0  0  0  0  0  0  0  0  0  0  0  0
   68.4313   47.0977   51.3640 C   0  0  0  0  0  0  0  0  0  0  0  0
   69.2671   47.5833   52.3778 C   0  0  0  0  0  0  0  0  0  0  0  0
   69.1950   47.0014   53.6231 C   0  0  0  0  0  0  0  0  0  0  0  0
   70.1509   48.6513   52.0755 N   0  0  0  0  0  0  0  0  0  0  0  0
   71.1412   48.8846   52.7870 O   0  0  0  0  0  0  0  0  0  0  0  0
   69.9316   49.4467   50.9862 O   0  0  0  0  0  0  0  0  0  0  0  0
   67.8109   41.9947   56.9753 C   0  0  0  0  0  0  0  0  0  0  0  0
   67.8168   41.2744   55.9408 O   0  0  0  0  0  0  0  0  0  0  0  0
   67.8888   43.4026   56.7426 N   0  0  0  0  0  0  0  0  0  0  0  0
   70.2180   41.1163   58.2838 C   0  0  0  0  0  0  0  0  0  0  0  0
   68.8861   40.9839   58.9266 C   0  0  0  0  0  0  0  0  0  0  0  0
   68.8392   40.4113   60.2027 C   0  0  0  0  0  0  0  0  0  0  0  0
   67.6295   40.2619   60.8545 C   0  0  0  0  0  0  0  0  0  0  0  0
   66.4680   40.6826   60.2369 C   0  0  0  0  0  0  0  0  0  0  0  0
   66.5538   41.2350   58.9931 C   0  0  0  0  0  0  0  0  0  0  0  0
   67.7323   41.4062   58.3020 C   0  0  0  0  0  0  0  0  0  0  0  0
 17 18  1  0
 18 19  2  0
 18 23  1  0
 19 20  1  0
 20 21  2  0
 21 22  1  0
 22 23  2  0
 23 14  1  0
 14 15  2  0
 14 16  1  0
 16  1  1  0
  1  2  1  0
  2  3  2  0
  2  4  1  0
  4  5  2  0
  4 10  1  0
  5  6  1  0
  6  7  1  0
  6  8  2  0
  8  9  1  0
  9 11  1  0
  9 10  2  0
 11 12  2  0
 11 13  1  0
M  CHG  2  11   1  13  -1
M  END
>  <minimizedAffinity>  (193) 
-8.83627

$$$$
data/reference_output_2/data/smiles/163369.pdb
     RDKit          3D

 23 24  0  0  0  0  0  0  0  0999 V2000
   71.1451   46.2980   58.3971 C   0  0  0  0  0  0  0  0  0  0  0  0
   70.0986   46.7983   57.6508 C   0  0  0  0  0  0  0  0  0  0  0  0
   69.2384   45.9821   56.9372 C   0  0  0  0  0  0  0  0  0  0  0  0
   69.4407   44.6536   56.9831 N   0  0  0  0  0  0  0  0  0  0  0  0
   70.4534   44.1052   57.6995 C   0  0  0  0  0  0  0  0  0  0  0  0
   71.3036   44.9282   58.4053 C   0  0  0  0  0  0  0  0  0  0  0  0
   70.6173   42.6274   57.7030 C   0  0  0  0  0  0  0  0  0  0  0  0
   71.8638   42.2869   57.1664 F   0  0  0  0  0  0  0  0  0  0  0  0
   70.5916   42.1236   58.9895 F   0  0  0  0  0  0  0  0  0  0  0  0
   69.6044   42.0591   56.9697 F   0  0  0  0  0  0  0  0  0  0  0  0
   71.6339   47.3242   60.5249 N   0  0  0  0  0  0  0  0  0  0  0  0
   72.0799   47.1573   59.1695 C   0  0  0  0  0  0  0  0  0  0  0  0
   68.2025   46.5509   56.2053 O   0  0  0  0  0  0  0  0  0  0  0  0
   68.3803   46.7048   54.8476 C   0  0  0  0  0  0  0  0  0  0  0  0
   68.0376   45.7278   53.9441 C   0  0  0  0  0  0  0  0  0  0  0  0
   68.2164   45.8859   52.5848 C   0  0  0  0  0  0  0  0  0  0  0  0
   68.7629   47.0709   52.1001 C   0  0  0  0  0  0  0  0  0  0  0  0
   69.1105   48.0526   52.9836 C   0  0  0  0  0  0  0  0  0  0  0  0
   68.9188   47.8711   54.3611 C   0  0  0  0  0  0  0  0  0  0  0  0
   69.6810   49.2949   52.4926 C   0  0  0  0  0  0  0  0  0  0  0  0
   70.0799   49.3470   51.2753 O   0  0  0  0  0  0  0  0  0  0  0  0
   69.8180   50.4495   53.2869 N   0  0  0  0  0  0  0  0  0  0  0  0
   70.3719   51.5613   52.7041 O   0  0  0  0  0  0  0  0  0  0  0  0
 11 12  1  0
 12  1  1  0
  1  2  2  0
  1  6  1  0
  2  3  1  0
  3 13  1  0
  3  4  2  0
 13 14  1  0
 14 15  2  0
 14 19  1  0
 15 16  1  0
 16 17  2  0
 17 18  1  0
 18 20  1  0
 18 19  2  0
 20 21  2  0
 20 22  1  0
 22 23  1  0
  4  5  1  0
  5  7  1  0
  5  6  2  0
  7  8  1  0
  7  9  1  0
  7 10  1  0
M  CHG  1  11   1
M  END
>  <minimizedAffinity>  (194) 
-8.83620

$$$$
data/200k_reference_output/data/smiles/32730.pdb
     RDKit          3D

 24 27  0  0  0  0  0  0  0  0999 V2000
   68.2259   43.8264   55.9347 C   0  0  0  0  0  0  0  0  0  0  0  0
   67.1634   43.0851   55.5287 N   0  0  0  0  0  0  0  0  0  0  0  0
   66.9339   41.8796   56.0658 C   0  0  0  0  0  0  0  0  0  0  0  0
   67.7442   41.3441   57.0342 C   0  0  0  0  0  0  0  0  0  0  0  0
   68.8380   42.1184   57.4456 C   0  0  0  0  0  0  0  0  0  0  0  0
   69.0187   43.3194   56.8720 N   0  0  0  0  0  0  0  0  0  0  0  0
   68.4395   46.4829   53.2730 C   0  0  0  0  0  0  0  0  0  0  0  0
   68.7607   47.5948   54.0257 C   0  0  0  0  0  0  0  0  0  0  0  0
   68.9070   47.4844   55.3883 C   0  0  0  0  0  0  0  0  0  0  0  0
   68.7340   46.2525   56.0281 C   0  0  0  0  0  0  0  0  0  0  0  0
   68.4145   45.1262   55.3083 C   0  0  0  0  0  0  0  0  0  0  0  0
   68.2775   45.2922   53.9374 C   0  0  0  0  0  0  0  0  0  0  0  0
   69.3263   47.1326   51.0463 N   0  0  0  0  0  0  0  0  0  0  0  0
   68.2862   46.6015   51.8397 C   0  0  0  0  0  0  0  0  0  0  0  0
   67.2257   46.2301   51.3041 O   0  0  0  0  0  0  0  0  0  0  0  0
   69.6847   41.5777   58.4471 N   0  0  0  0  0  0  0  0  0  0  0  0
   70.0996   40.2411   58.5081 C   0  0  0  0  0  0  0  0  0  0  0  0
   71.3567   39.6730   58.4181 C   0  0  0  0  0  0  0  0  0  0  0  0
   71.2560   38.2983   58.5392 C   0  0  0  0  0  0  0  0  0  0  0  0
   69.9502   38.0531   58.6996 N   0  0  0  0  0  0  0  0  0  0  0  0
   69.2720   39.1672   58.6844 N   0  0  0  0  0  0  0  0  0  0  0  0
   72.4026   37.3342   58.4917 C   0  0  0  0  0  0  0  0  0  0  0  0
   72.4757   36.4302   57.2357 C   0  0  0  0  0  0  0  0  0  0  0  0
   72.0841   35.8575   58.5701 C   0  0  0  0  0  0  0  0  0  0  0  0
 13 14  1  0
 14 15  2  0
 14  7  1  0
  7  8  2  0
  7 12  1  0
  8  9  1  0
  9 10  2  0
 10 11  1  0
 11  1  1  0
 11 12  2  0
  1  2  2  0
  1  6  1  0
  2  3  1  0
  3  4  2  0
  4  5  1  0
  5 16  1  0
  5  6  2  0
 16 17  1  0
 17 18  1  0
 17 21  2  0
 18 19  2  0
 19 22  1  0
 19 20  1  0
 22 23  1  0
 22 24  1  0
 23 24  1  0
 20 21  1  0
M  END
>  <minimizedAffinity>  (195) 
-8.83111

$$$$
data/200k_reference_output/data/smiles/12592.pdb
     RDKit          3D

 23 25  0  0  0  0  0  0  0  0999 V2000
   70.4073   49.1861   52.3862 S   0  0  0  0  0  0  0  0  0  0  0  0
   70.4759   48.8031   50.9324 O   0  0  0  0  0  0  0  0  0  0  0  0
   71.8373   49.0981   52.8949 O   0  0  0  0  0  0  0  0  0  0  0  0
   68.4987   46.9186   55.1202 C   0  0  0  0  0  0  0  0  0  0  0  0
   67.8542   45.9966   54.3317 C   0  0  0  0  0  0  0  0  0  0  0  0
   67.9968   46.0645   52.9665 C   0  0  0  0  0  0  0  0  0  0  0  0
   68.7653   47.0259   52.3516 C   0  0  0  0  0  0  0  0  0  0  0  0
   69.4171   47.9601   53.1666 C   0  0  0  0  0  0  0  0  0  0  0  0
   69.2823   47.9023   54.5303 C   0  0  0  0  0  0  0  0  0  0  0  0
   69.1415   46.1875   57.2155 O   0  0  0  0  0  0  0  0  0  0  0  0
   68.3761   46.8825   56.5374 N   0  0  0  0  0  0  0  0  0  0  0  0
   67.3912   47.6342   57.1431 O   0  0  0  0  0  0  0  0  0  0  0  0
   69.7637   50.7555   52.5976 N   0  0  0  0  0  0  0  0  0  0  0  0
   69.6333   51.4313   53.8193 C   0  0  0  0  0  0  0  0  0  0  0  0
   68.4760   51.4958   54.5691 C   0  0  0  0  0  0  0  0  0  0  0  0
   68.3592   52.1545   55.7692 C   0  0  0  0  0  0  0  0  0  0  0  0
   69.4511   52.8024   56.2837 C   0  0  0  0  0  0  0  0  0  0  0  0
   70.6438   52.7768   55.5808 C   0  0  0  0  0  0  0  0  0  0  0  0
   71.7437   53.4322   56.1039 C   0  0  0  0  0  0  0  0  0  0  0  0
   72.9520   53.4234   55.4233 C   0  0  0  0  0  0  0  0  0  0  0  0
   72.9705   52.7368   54.2283 C   0  0  0  0  0  0  0  0  0  0  0  0
   71.8921   52.1054   53.7356 N   0  0  0  0  0  0  0  0  0  0  0  0
   70.7253   52.1060   54.3805 C   0  0  0  0  0  0  0  0  0  0  0  0
 10 11  2  0
 11 12  1  0
 11  4  1  0
  4  5  2  0
  4  9  1  0
  5  6  1  0
  6  7  2  0
  7  8  1  0
  8  1  1  0
  8  9  2  0
  1  2  2  0
  1  3  2  0
  1 13  1  0
 13 14  1  0
 14 15  2  0
 14 23  1  0
 15 16  1  0
 16 17  2  0
 17 18  1  0
 18 19  1  0
 18 23  2  0
 19 20  2  0
 20 21  1  0
 21 22  2  0
 22 23  1  0
M  CHG  2  11   1  12  -1
M  END
>  <minimizedAffinity>  (196) 
-8.82978

$$$$
data/reference_output_2/data/smiles/157813.pdb
     RDKit          3D

 24 27  0  0  0  0  0  0  0  0999 V2000
   69.0157   40.2902   58.6041 C   0  0  0  0  0  0  0  0  0  0  0  0
   68.3363   39.8410   57.4945 C   0  0  0  0  0  0  0  0  0  0  0  0
   68.0105   40.7231   56.4712 C   0  0  0  0  0  0  0  0  0  0  0  0
   67.3879   40.3109   55.4532 O   0  0  0  0  0  0  0  0  0  0  0  0
   68.3614   42.0197   56.5656 N   0  0  0  0  0  0  0  0  0  0  0  0
   68.1766   43.0453   55.7474 N   0  0  0  0  0  0  0  0  0  0  0  0
   68.7141   44.1619   56.2846 C   0  0  0  0  0  0  0  0  0  0  0  0
   69.2299   43.7561   57.4605 N   0  0  0  0  0  0  0  0  0  0  0  0
   69.0249   42.4412   57.6569 C   0  0  0  0  0  0  0  0  0  0  0  0
   69.3474   41.5801   58.6650 N   0  0  0  0  0  0  0  0  0  0  0  0
   68.7144   45.4922   55.6870 C   0  0  0  0  0  0  0  0  0  0  0  0
   68.2267   45.6570   54.3968 C   0  0  0  0  0  0  0  0  0  0  0  0
   68.2044   46.8926   53.7832 C   0  0  0  0  0  0  0  0  0  0  0  0
   68.6675   48.0134   54.4340 C   0  0  0  0  0  0  0  0  0  0  0  0
   69.1587   47.8761   55.7209 C   0  0  0  0  0  0  0  0  0  0  0  0
   69.1721   46.6304   56.3158 C   0  0  0  0  0  0  0  0  0  0  0  0
   69.3902   39.3957   59.7287 C   0  0  0  0  0  0  0  0  0  0  0  0
   72.9292   35.2556   57.7300 C   0  0  0  0  0  0  0  0  0  0  0  0
   72.0247   36.3204   58.2388 C   0  0  0  0  0  0  0  0  0  0  0  0
   72.0965   37.6250   57.7726 C   0  0  0  0  0  0  0  0  0  0  0  0
   71.2582   38.6110   58.2450 C   0  0  0  0  0  0  0  0  0  0  0  0
   70.3109   38.3281   59.2051 C   0  0  0  0  0  0  0  0  0  0  0  0
   70.2392   37.0316   59.6685 C   0  0  0  0  0  0  0  0  0  0  0  0
   71.0813   36.0287   59.1988 C   0  0  0  0  0  0  0  0  0  0  0  0
 18 19  1  0
 19 20  2  0
 19 24  1  0
 20 21  1  0
 21 22  2  0
 22 17  1  0
 22 23  1  0
 17  1  1  0
  1  2  2  0
  1 10  1  0
  2  3  1  0
  3  4  2  0
  3  5  1  0
  5  6  1  0
  5  9  1  0
  6  7  2  0
  7 11  1  0
  7  8  1  0
 11 12  2  0
 11 16  1  0
 12 13  1  0
 13 14  2  0
 14 15  1  0
 15 16  2  0
  8  9  2  0
  9 10  1  0
 23 24  2  0
M  END
>  <minimizedAffinity>  (197) 
-8.82538

$$$$
data/reference_output_2/data/smiles/97326.pdb
     RDKit          3D

 24 26  0  0  0  0  0  0  0  0999 V2000
   69.0946   47.2475   56.5419 S   0  0  0  0  0  0  0  0  0  0  0  0
   69.9366   48.0609   57.5093 O   0  0  0  0  0  0  0  0  0  0  0  0
   67.6784   47.4125   57.0331 O   0  0  0  0  0  0  0  0  0  0  0  0
   69.2817   47.8235   54.9174 C   0  0  0  0  0  0  0  0  0  0  0  0
   69.9792   48.9832   54.6863 C   0  0  0  0  0  0  0  0  0  0  0  0
   70.1772   49.4660   53.3972 C   0  0  0  0  0  0  0  0  0  0  0  0
   69.6503   48.7435   52.3339 C   0  0  0  0  0  0  0  0  0  0  0  0
   68.9519   47.5859   52.5421 C   0  0  0  0  0  0  0  0  0  0  0  0
   68.4305   46.8995   51.4805 C   0  0  0  0  0  0  0  0  0  0  0  0
   67.7343   45.7661   51.7373 N   0  0  0  0  0  0  0  0  0  0  0  0
   67.5418   45.3017   52.9781 C   0  0  0  0  0  0  0  0  0  0  0  0
   68.0581   45.9770   54.0611 C   0  0  0  0  0  0  0  0  0  0  0  0
   68.7800   47.1450   53.8424 C   0  0  0  0  0  0  0  0  0  0  0  0
   69.9268   45.0358   57.8862 C   0  0  0  0  0  0  0  0  0  0  0  0
   69.7946   45.6912   58.9387 O   0  0  0  0  0  0  0  0  0  0  0  0
   69.6261   45.6276   56.6532 N   0  0  0  0  0  0  0  0  0  0  0  0
   70.4076   43.6288   58.0208 C   0  0  0  0  0  0  0  0  0  0  0  0
   70.4756   40.8075   58.8678 C   0  0  0  0  0  0  0  0  0  0  0  0
   69.4704   41.3147   57.8962 C   0  0  0  0  0  0  0  0  0  0  0  0
   68.5602   40.3837   57.4052 C   0  0  0  0  0  0  0  0  0  0  0  0
   67.5985   40.7792   56.5007 C   0  0  0  0  0  0  0  0  0  0  0  0
   67.5947   42.1022   56.1265 C   0  0  0  0  0  0  0  0  0  0  0  0
   68.4892   43.0368   56.6030 C   0  0  0  0  0  0  0  0  0  0  0  0
   69.4563   42.6409   57.5132 C   0  0  0  0  0  0  0  0  0  0  0  0
 18 19  1  0
 19 20  2  0
 19 24  1  0
 20 21  1  0
 21 22  2  0
 22 23  1  0
 23 24  2  0
 24 17  1  0
 17 14  1  0
 14 15  2  0
 14 16  1  0
 16  1  1  0
  1  2  2  0
  1  3  2  0
  1  4  1  0
  4  5  2  0
  4 13  1  0
  5  6  1  0
  6  7  2  0
  7  8  1  0
  8  9  1  0
  8 13  2  0
  9 10  2  0
 10 11  1  0
 11 12  2  0
 12 13  1  0
M  END
>  <minimizedAffinity>  (198) 
-8.82522

$$$$
data/reference_output_2/data/smiles/144010.pdb
     RDKit          3D

 25 27  0  0  0  0  0  0  0  0999 V2000
   69.6461   47.9611   57.4541 C   0  0  0  0  0  0  0  0  0  0  0  0
   69.2554   46.8230   56.9359 C   0  0  0  0  0  0  0  0  0  0  0  0
   70.0868   45.7357   57.5094 C   0  0  0  0  0  0  0  0  0  0  0  0
   69.9906   44.5187   57.2386 O   0  0  0  0  0  0  0  0  0  0  0  0
   71.0077   46.3191   58.4155 N   0  0  0  0  0  0  0  0  0  0  0  0
   70.7624   47.7129   58.4077 C   0  0  0  0  0  0  0  0  0  0  0  0
   71.3606   48.6120   59.0746 O   0  0  0  0  0  0  0  0  0  0  0  0
   69.8190   50.1755   56.3872 C   0  0  0  0  0  0  0  0  0  0  0  0
   69.3549   51.4449   56.1094 C   0  0  0  0  0  0  0  0  0  0  0  0
   68.1383   51.8828   56.5901 C   0  0  0  0  0  0  0  0  0  0  0  0
   67.4115   50.9939   57.3588 C   0  0  0  0  0  0  0  0  0  0  0  0
   67.8753   49.7278   57.6365 C   0  0  0  0  0  0  0  0  0  0  0  0
   69.0871   49.2816   57.1621 C   0  0  0  0  0  0  0  0  0  0  0  0
   72.1108   50.6776   55.7394 C   0  0  0  0  0  0  0  0  0  0  0  0
   71.0421   49.7509   55.8975 O   0  0  0  0  0  0  0  0  0  0  0  0
   68.2391   46.5740   55.9954 N   0  0  0  0  0  0  0  0  0  0  0  0
   68.3310   46.6180   54.5820 C   0  0  0  0  0  0  0  0  0  0  0  0
   67.6786   45.7545   53.7530 C   0  0  0  0  0  0  0  0  0  0  0  0
   67.8411   45.8437   52.3816 C   0  0  0  0  0  0  0  0  0  0  0  0
   68.6675   46.8160   51.8426 C   0  0  0  0  0  0  0  0  0  0  0  0
   69.3457   47.7112   52.6583 C   0  0  0  0  0  0  0  0  0  0  0  0
   69.1568   47.5849   54.0140 C   0  0  0  0  0  0  0  0  0  0  0  0
   70.2043   48.7318   52.1235 C   0  0  0  0  0  0  0  0  0  0  0  0
   69.9168   49.3181   51.0440 O   0  0  0  0  0  0  0  0  0  0  0  0
   71.3619   49.0914   52.7754 O   0  0  0  0  0  0  0  0  0  0  0  0
 14 15  1  0
 15  8  1  0
  8  9  2  0
  8 13  1  0
  9 10  1  0
 10 11  2  0
 11 12  1  0
 12 13  2  0
 13  1  1  0
  1  2  2  0
  1  6  1  0
  2 16  1  0
  2  3  1  0
 16 17  1  0
 17 18  2  0
 17 22  1  0
 18 19  1  0
 19 20  2  0
 20 21  1  0
 21 23  1  0
 21 22  2  0
 23 24  2  0
 23 25  1  0
  3  4  2  0
  3  5  1  0
  5  6  1  0
  6  7  2  0
M  END
>  <minimizedAffinity>  (199) 
-8.82471

$$$$
data/reference_output_2/data/smiles/100456.pdb
     RDKit          3D

 22 23  0  0  0  0  0  0  0  0999 V2000
   69.2359   49.9179   56.7293 C   0  0  0  0  0  0  0  0  0  0  0  0
   68.9511   51.1801   57.2029 C   0  0  0  0  0  0  0  0  0  0  0  0
   68.7231   52.1968   56.2897 C   0  0  0  0  0  0  0  0  0  0  0  0
   68.7712   51.9940   54.9305 C   0  0  0  0  0  0  0  0  0  0  0  0
   69.0547   50.7375   54.4455 C   0  0  0  0  0  0  0  0  0  0  0  0
   69.2792   49.7344   55.3619 C   0  0  0  0  0  0  0  0  0  0  0  0
   70.5287   48.0222   57.5725 C   0  0  0  0  0  0  0  0  0  0  0  0
   69.4857   48.8023   57.6258 C   0  0  0  0  0  0  0  0  0  0  0  0
   71.6866   46.9304   59.3373 O   0  0  0  0  0  0  0  0  0  0  0  0
   70.7174   46.9010   58.5229 C   0  0  0  0  0  0  0  0  0  0  0  0
   69.8010   45.8173   58.4966 N   0  0  0  0  0  0  0  0  0  0  0  0
   69.9395   44.7804   59.3450 O   0  0  0  0  0  0  0  0  0  0  0  0
   69.1175   50.4816   53.0362 N   0  0  0  0  0  0  0  0  0  0  0  0
   69.9591   49.0975   52.4650 S   0  0  0  0  0  0  0  0  0  0  0  0
   71.3396   49.0478   53.0895 O   0  0  0  0  0  0  0  0  0  0  0  0
   70.1873   49.1837   50.9876 O   0  0  0  0  0  0  0  0  0  0  0  0
   69.0659   47.6423   52.8544 C   0  0  0  0  0  0  0  0  0  0  0  0
   68.9661   47.1708   54.1471 C   0  0  0  0  0  0  0  0  0  0  0  0
   68.2392   46.0085   54.3760 C   0  0  0  0  0  0  0  0  0  0  0  0
   67.6329   45.3379   53.3491 C   0  0  0  0  0  0  0  0  0  0  0  0
   67.7368   45.8149   52.0637 C   0  0  0  0  0  0  0  0  0  0  0  0
   68.4562   46.9699   51.8170 C   0  0  0  0  0  0  0  0  0  0  0  0
  9 10  2  0
 10  7  1  0
 10 11  1  0
  7  8  2  0
  8  1  1  0
  1  2  2  0
  1  6  1  0
  2  3  1  0
  3  4  2  0
  4  5  1  0
  5 13  1  0
  5  6  2  0
 13 14  1  0
 14 15  2  0
 14 16  2  0
 14 17  1  0
 17 18  2  0
 17 22  1  0
 18 19  1  0
 19 20  2  0
 20 21  1  0
 21 22  2  0
 11 12  1  0
M  END
>  <minimizedAffinity>  (200) 
-8.82459

$$$$
data/200k_reference_output/data/smiles/86528.pdb
     RDKit          3D

 26 29  0  0  0  0  0  0  0  0999 V2000
   74.1270   34.8766   55.2784 C   0  0  0  0  0  0  0  0  0  0  0  0
   73.1665   35.2013   54.4525 C   0  0  0  0  0  0  0  0  0  0  0  0
   73.1627   34.8858   53.0163 C   0  0  0  0  0  0  0  0  0  0  0  0
   72.1375   35.3694   52.2399 C   0  0  0  0  0  0  0  0  0  0  0  0
   72.0875   35.0969   50.8649 C   0  0  0  0  0  0  0  0  0  0  0  0
   73.0874   34.3367   50.3064 C   0  0  0  0  0  0  0  0  0  0  0  0
   74.0908   33.8643   51.0683 N   0  0  0  0  0  0  0  0  0  0  0  0
   74.1307   34.1338   52.4021 C   0  0  0  0  0  0  0  0  0  0  0  0
   75.1362   33.0637   50.4596 C   0  0  0  0  0  0  0  0  0  0  0  0
   76.0892   33.9957   49.7992 C   0  0  0  0  0  0  0  0  0  0  0  0
   76.8498   34.8658   50.5521 C   0  0  0  0  0  0  0  0  0  0  0  0
   77.7402   35.7393   49.9516 C   0  0  0  0  0  0  0  0  0  0  0  0
   77.9032   35.7729   48.5775 C   0  0  0  0  0  0  0  0  0  0  0  0
   77.1464   34.9058   47.8213 C   0  0  0  0  0  0  0  0  0  0  0  0
   76.2506   34.0286   48.4302 C   0  0  0  0  0  0  0  0  0  0  0  0
   75.1618   34.8547   57.3488 O   0  0  0  0  0  0  0  0  0  0  0  0
   74.1207   35.1884   56.6771 C   0  0  0  0  0  0  0  0  0  0  0  0
   73.0575   35.8454   57.4234 C   0  0  0  0  0  0  0  0  0  0  0  0
   72.3402   35.2852   58.4937 C   0  0  0  0  0  0  0  0  0  0  0  0
   71.4208   36.2028   58.9416 C   0  0  0  0  0  0  0  0  0  0  0  0
   70.4604   36.2317   59.9344 C   0  0  0  0  0  0  0  0  0  0  0  0
   69.6534   37.3242   60.1662 C   0  0  0  0  0  0  0  0  0  0  0  0
   69.8637   38.4122   59.3315 C   0  0  0  0  0  0  0  0  0  0  0  0
   70.8032   38.4177   58.3416 C   0  0  0  0  0  0  0  0  0  0  0  0
   71.6001   37.3172   58.1252 C   0  0  0  0  0  0  0  0  0  0  0  0
   72.5548   37.0397   57.2788 O   0  0  0  0  0  0  0  0  0  0  0  0
 16 17  2  0
 17  1  1  0
 17 18  1  0
  1  2  2  0
  2  3  1  0
  3  4  2  0
  3  8  1  0
  4  5  1  0
  5  6  2  0
  6  7  1  0
  7  9  1  0
  7  8  2  0
  9 10  1  0
 10 11  2  0
 10 15  1  0
 11 12  1  0
 12 13  2  0
 13 14  1  0
 14 15  2  0
 18 19  2  0
 18 26  1  0
 19 20  1  0
 20 21  2  0
 20 25  1  0
 21 22  1  0
 22 23  2  0
 23 24  1  0
 24 25  2  0
 25 26  1  0
M  CHG  1   7   1
M  END
>  <minimizedAffinity>  (201) 
-8.82439

$$$$
data/200k_reference_output/data/smiles/8396.pdb
     RDKit          3D

 24 26  0  0  0  0  0  0  0  0999 V2000
   71.0639   50.8088   54.9177 N   0  0  0  0  0  0  0  0  0  0  0  0
   70.4563   50.6335   53.6671 C   0  0  0  0  0  0  0  0  0  0  0  0
   70.4879   51.6759   52.9061 O   0  0  0  0  0  0  0  0  0  0  0  0
   69.8196   49.4314   53.1697 C   0  0  0  0  0  0  0  0  0  0  0  0
   69.3503   48.4648   54.0777 C   0  0  0  0  0  0  0  0  0  0  0  0
   68.7404   47.3094   53.6513 C   0  0  0  0  0  0  0  0  0  0  0  0
   68.2723   46.3468   54.5203 C   0  0  0  0  0  0  0  0  0  0  0  0
   67.6597   45.1873   54.0909 C   0  0  0  0  0  0  0  0  0  0  0  0
   67.4911   44.9467   52.7433 C   0  0  0  0  0  0  0  0  0  0  0  0
   67.9585   45.9055   51.8704 C   0  0  0  0  0  0  0  0  0  0  0  0
   68.5744   47.0728   52.3052 C   0  0  0  0  0  0  0  0  0  0  0  0
   69.0151   47.9778   51.4762 O   0  0  0  0  0  0  0  0  0  0  0  0
   69.6118   49.1111   51.8617 C   0  0  0  0  0  0  0  0  0  0  0  0
   70.0026   49.9251   50.9639 O   0  0  0  0  0  0  0  0  0  0  0  0
   73.0434   52.1566   55.4478 C   0  0  0  0  0  0  0  0  0  0  0  0
   73.6079   53.3512   55.8530 C   0  0  0  0  0  0  0  0  0  0  0  0
   72.8319   54.4518   56.1544 C   0  0  0  0  0  0  0  0  0  0  0  0
   71.4637   54.3197   56.0364 C   0  0  0  0  0  0  0  0  0  0  0  0
   70.8905   53.1333   55.6332 C   0  0  0  0  0  0  0  0  0  0  0  0
   71.6749   52.0359   55.3340 C   0  0  0  0  0  0  0  0  0  0  0  0
   75.7149   51.1462   55.4122 N   0  0  0  0  0  0  0  0  0  0  0  0
   74.0414   50.7738   55.0729 S   0  0  0  0  0  0  0  0  0  0  0  0
   73.9574   50.3857   53.6302 O   0  0  0  0  0  0  0  0  0  0  0  0
   73.7000   49.6015   55.9815 O   0  0  0  0  0  0  0  0  0  0  0  0
 21 22  1  0
 22 23  2  0
 22 24  2  0
 22 15  1  0
 15 16  2  0
 15 20  1  0
 16 17  1  0
 17 18  2  0
 18 19  1  0
 19 20  2  0
 20  1  1  0
  1  2  1  0
  2  3  2  0
  2  4  1  0
  4  5  2  0
  4 13  1  0
  5  6  1  0
  6  7  2  0
  6 11  1  0
  7  8  1  0
  8  9  2  0
  9 10  1  0
 10 11  2  0
 11 12  1  0
 12 13  1  0
 13 14  2  0
M  END
>  <minimizedAffinity>  (202) 
-8.82348

$$$$
data/200k_reference_output/data/smiles/29548.pdb
     RDKit          3D

 24 26  0  0  0  0  0  0  0  0999 V2000
   69.4979   43.8434   56.7467 O   0  0  0  0  0  0  0  0  0  0  0  0
   69.7864   45.0061   57.1395 C   0  0  0  0  0  0  0  0  0  0  0  0
   70.8046   45.3476   58.0746 N   0  0  0  0  0  0  0  0  0  0  0  0
   70.7383   46.7684   58.1872 C   0  0  0  0  0  0  0  0  0  0  0  0
   71.4913   47.4481   58.9306 O   0  0  0  0  0  0  0  0  0  0  0  0
   69.6689   47.2393   57.3044 C   0  0  0  0  0  0  0  0  0  0  0  0
   69.0935   46.2288   56.6782 C   0  0  0  0  0  0  0  0  0  0  0  0
   69.3257   48.6604   57.1763 C   0  0  0  0  0  0  0  0  0  0  0  0
   70.2790   49.5773   56.7948 C   0  0  0  0  0  0  0  0  0  0  0  0
   69.9914   50.9064   56.6674 C   0  0  0  0  0  0  0  0  0  0  0  0
   68.7078   51.3439   56.9287 C   0  0  0  0  0  0  0  0  0  0  0  0
   67.7619   50.4350   57.3074 C   0  0  0  0  0  0  0  0  0  0  0  0
   66.1288   51.0344   57.6318 Cl  0  0  0  0  0  0  0  0  0  0  0  0
   68.0324   49.1012   57.4397 C   0  0  0  0  0  0  0  0  0  0  0  0
   68.0266   46.2417   55.7399 N   0  0  0  0  0  0  0  0  0  0  0  0
   68.2574   46.4691   54.3507 C   0  0  0  0  0  0  0  0  0  0  0  0
   67.6263   45.6588   53.4304 C   0  0  0  0  0  0  0  0  0  0  0  0
   67.8476   45.8782   52.0767 C   0  0  0  0  0  0  0  0  0  0  0  0
   68.6877   46.8950   51.6774 C   0  0  0  0  0  0  0  0  0  0  0  0
   69.3324   47.7213   52.5721 C   0  0  0  0  0  0  0  0  0  0  0  0
   69.0948   47.4803   53.9105 C   0  0  0  0  0  0  0  0  0  0  0  0
   70.2132   48.7887   52.1187 C   0  0  0  0  0  0  0  0  0  0  0  0
   69.9885   49.4037   51.0488 O   0  0  0  0  0  0  0  0  0  0  0  0
   71.3240   49.1544   52.8571 O   0  0  0  0  0  0  0  0  0  0  0  0
  1  2  2  0
  2  3  1  0
  2  7  1  0
  3  4  1  0
  4  5  2  0
  4  6  1  0
  6  8  1  0
  6  7  2  0
  8  9  2  0
  8 14  1  0
  9 10  1  0
 10 11  2  0
 11 12  1  0
 12 13  1  0
 12 14  2  0
  7 15  1  0
 15 16  1  0
 16 17  2  0
 16 21  1  0
 17 18  1  0
 18 19  2  0
 19 20  1  0
 20 22  1  0
 20 21  2  0
 22 23  2  0
 22 24  1  0
M  END
>  <minimizedAffinity>  (203) 
-8.82342

$$$$
data/reference_output_2/data/smiles/88250.pdb
     RDKit          3D

 22 23  0  0  0  0  0  0  0  0999 V2000
   70.4348   49.4938   53.6881 C   0  0  0  0  0  0  0  0  0  0  0  0
   70.4574   50.4817   52.9021 O   0  0  0  0  0  0  0  0  0  0  0  0
   71.2444   49.5735   54.8317 N   0  0  0  0  0  0  0  0  0  0  0  0
   67.1365   45.0623   52.2248 N   0  0  0  0  0  0  0  0  0  0  0  0
   67.9471   46.1640   52.6201 C   0  0  0  0  0  0  0  0  0  0  0  0
   67.9761   46.6429   53.9121 C   0  0  0  0  0  0  0  0  0  0  0  0
   68.7812   47.7289   54.2816 C   0  0  0  0  0  0  0  0  0  0  0  0
   69.5794   48.3581   53.3495 C   0  0  0  0  0  0  0  0  0  0  0  0
   69.5377   47.8647   52.0596 C   0  0  0  0  0  0  0  0  0  0  0  0
   70.3494   48.5032   51.1066 O   0  0  0  0  0  0  0  0  0  0  0  0
   68.7462   46.7952   51.6909 C   0  0  0  0  0  0  0  0  0  0  0  0
   72.0918   50.7103   55.1579 C   0  0  1  0  0  0  0  0  0  0  0  0
   73.0272   51.0509   54.0900 C   0  0  0  0  0  0  0  0  0  0  0  0
   73.0301   52.2604   53.6711 O   0  0  0  0  0  0  0  0  0  0  0  0
   73.9078   50.2007   53.4876 O   0  0  0  0  0  0  0  0  0  0  0  0
   71.1486   51.8587   55.4286 C   0  0  0  0  0  0  0  0  0  0  0  0
   69.9778   51.4946   56.2458 C   0  0  0  0  0  0  0  0  0  0  0  0
   70.1171   50.8338   57.4484 C   0  0  0  0  0  0  0  0  0  0  0  0
   69.0300   50.4833   58.2177 C   0  0  0  0  0  0  0  0  0  0  0  0
   67.7799   50.8086   57.7597 C   0  0  0  0  0  0  0  0  0  0  0  0
   67.6271   51.4655   56.5635 C   0  0  0  0  0  0  0  0  0  0  0  0
   68.7153   51.8156   55.7961 C   0  0  0  0  0  0  0  0  0  0  0  0
  4  5  1  0
  5  6  2  0
  5 11  1  0
  6  7  1  0
  7  8  2  0
  8  1  1  0
  8  9  1  0
  1  2  2  0
  1  3  1  0
  3 12  1  0
 12 16  1  6
 12 13  1  0
 16 17  1  0
 17 18  2  0
 17 22  1  0
 18 19  1  0
 19 20  2  0
 20 21  1  0
 21 22  2  0
 13 14  2  0
 13 15  1  0
  9 10  1  0
  9 11  2  0
M  END
>  <minimizedAffinity>  (204) 
-8.82072

$$$$
data/reference_output_2/data/smiles/184651.pdb
     RDKit          3D

 24 26  0  0  0  0  0  0  0  0999 V2000
   68.6176   43.5432   56.4290 C   0  0  0  0  0  0  0  0  0  0  0  0
   70.0199   43.4555   57.6956 S   0  0  0  0  0  0  0  0  0  0  0  0
   69.8071   41.7000   57.8770 C   0  0  0  0  0  0  0  0  0  0  0  0
   68.9758   41.3950   57.1961 N   0  0  0  0  0  0  0  0  0  0  0  0
   68.2327   42.2399   56.3680 C   0  0  0  0  0  0  0  0  0  0  0  0
   68.3320   46.0941   55.5082 C   0  0  0  0  0  0  0  0  0  0  0  0
   68.1805   46.7950   56.5268 O   0  0  0  0  0  0  0  0  0  0  0  0
   68.4763   44.7188   55.8064 N   0  0  0  0  0  0  0  0  0  0  0  0
   68.5467   46.6974   52.8588 C   0  0  0  0  0  0  0  0  0  0  0  0
   68.4378   46.4099   54.1735 C   0  0  0  0  0  0  0  0  0  0  0  0
   67.0631   41.7005   55.7665 C   0  0  0  0  0  0  0  0  0  0  0  0
   65.7898   41.7616   55.3690 N   0  0  0  0  0  0  0  0  0  0  0  0
   67.4328   40.3252   55.3145 O   0  0  0  0  0  0  0  0  0  0  0  0
   70.7883   41.0043   58.7593 N   0  0  0  0  0  0  0  0  0  0  0  0
   70.6845   39.6435   59.0329 C   0  0  0  0  0  0  0  0  0  0  0  0
   69.9060   38.9759   59.9658 C   0  0  0  0  0  0  0  0  0  0  0  0
   70.0709   37.5658   60.1052 C   0  0  0  0  0  0  0  0  0  0  0  0
   70.9227   36.7774   59.3994 C   0  0  0  0  0  0  0  0  0  0  0  0
   71.0687   35.4436   59.3976 C   0  0  0  0  0  0  0  0  0  0  0  0
   71.9371   34.7494   58.4899 C   0  0  0  0  0  0  0  0  0  0  0  0
   72.6280   35.3620   57.6490 C   0  0  0  0  0  0  0  0  0  0  0  0
   72.5482   36.8198   57.5713 C   0  0  0  0  0  0  0  0  0  0  0  0
   71.6993   37.4855   58.4463 C   0  0  0  0  0  0  0  0  0  0  0  0
   71.5876   38.8168   58.2814 C   0  0  0  0  0  0  0  0  0  0  0  0
  9 10  3  0
 10  6  1  0
  6  7  2  0
  6  8  1  0
  8  1  1  0
  1  2  1  0
  1  5  2  0
  2  3  1  0
  3 14  1  0
  3  4  2  0
 14 15  1  0
 15 16  2  0
 15 24  1  0
 16 17  1  0
 17 18  2  0
 18 19  1  0
 18 23  1  0
 19 20  2  0
 20 21  1  0
 21 22  2  0
 22 23  1  0
 23 24  2  0
  4  5  1  0
  5 11  1  0
 11 12  1  0
 11 13  2  0
M  END
>  <minimizedAffinity>  (205) 
-8.82066

$$$$
data/200k_reference_output/data/smiles/812.pdb
     RDKit          3D

 25 28  0  0  0  0  0  0  0  0999 V2000
   67.7312   39.0956   57.2973 O   0  0  0  0  0  0  0  0  0  0  0  0
   68.2104   40.2696   57.2644 C   0  0  0  0  0  0  0  0  0  0  0  0
   67.6882   41.1888   56.4491 N   0  0  0  0  0  0  0  0  0  0  0  0
   68.1816   42.4347   56.4003 C   0  0  0  0  0  0  0  0  0  0  0  0
   67.8870   43.5522   55.7079 N   0  0  0  0  0  0  0  0  0  0  0  0
   68.6980   44.5705   56.0272 C   0  0  0  0  0  0  0  0  0  0  0  0
   69.5377   44.0820   56.9559 N   0  0  0  0  0  0  0  0  0  0  0  0
   69.2595   42.7915   57.2118 C   0  0  0  0  0  0  0  0  0  0  0  0
   69.7521   41.7963   58.0305 C   0  0  0  0  0  0  0  0  0  0  0  0
   70.7300   42.0818   58.7805 O   0  0  0  0  0  0  0  0  0  0  0  0
   69.2633   40.5448   58.0848 N   0  0  0  0  0  0  0  0  0  0  0  0
   68.6835   45.9354   55.4860 C   0  0  0  0  0  0  0  0  0  0  0  0
   68.4281   46.1901   54.1551 C   0  0  0  0  0  0  0  0  0  0  0  0
   68.4143   47.4794   53.6448 C   0  0  0  0  0  0  0  0  0  0  0  0
   68.6573   48.5664   54.4593 C   0  0  0  0  0  0  0  0  0  0  0  0
   68.9117   48.3097   55.7901 C   0  0  0  0  0  0  0  0  0  0  0  0
   68.9250   47.0188   56.2981 C   0  0  0  0  0  0  0  0  0  0  0  0
   69.8178   39.5263   58.9632 C   0  0  0  0  0  0  0  0  0  0  0  0
   71.1504   39.0435   58.4713 C   0  0  0  0  0  0  0  0  0  0  0  0
   71.3435   37.6004   58.6117 C   0  0  0  0  0  0  0  0  0  0  0  0
   70.7443   36.8408   59.5985 C   0  0  0  0  0  0  0  0  0  0  0  0
   70.9609   35.4920   59.6772 C   0  0  0  0  0  0  0  0  0  0  0  0
   71.7730   34.8113   58.7990 C   0  0  0  0  0  0  0  0  0  0  0  0
   72.3807   35.5499   57.8070 C   0  0  0  0  0  0  0  0  0  0  0  0
   72.1680   36.9055   57.7220 C   0  0  0  0  0  0  0  0  0  0  0  0
  1  2  2  0
  2  3  1  0
  2 11  1  0
  3  4  1  0
  4  5  1  0
  4  8  2  0
  5  6  1  0
  6 12  1  0
  6  7  2  0
 12 13  2  0
 12 17  1  0
 13 14  1  0
 14 15  2  0
 15 16  1  0
 16 17  2  0
  7  8  1  0
  8  9  1  0
  9 10  2  0
  9 11  1  0
 11 18  1  0
 18 19  1  0
 19 20  1  0
 20 21  2  0
 20 25  1  0
 21 22  1  0
 22 23  2  0
 23 24  1  0
 24 25  2  0
M  CHG  1   7   1
M  END
>  <minimizedAffinity>  (206) 
-8.81969

$$$$
data/200k_reference_output/data/smiles/72559.pdb
     RDKit          3D

 24 27  0  0  0  0  0  0  0  0999 V2000
   70.0643   44.6243   57.7112 N   0  0  0  0  0  0  0  0  0  0  0  0
   69.3362   45.3433   56.9310 N   0  0  0  0  0  0  0  0  0  0  0  0
   69.5268   46.6836   57.1403 C   0  0  0  0  0  0  0  0  0  0  0  0
   70.4761   46.6982   58.1626 C   0  0  0  0  0  0  0  0  0  0  0  0
   71.0761   47.7071   58.8174 C   0  0  0  0  0  0  0  0  0  0  0  0
   70.8077   49.0364   58.5092 N   0  0  0  0  0  0  0  0  0  0  0  0
   71.9950   47.4893   59.8126 N   0  0  0  0  0  0  0  0  0  0  0  0
   72.2899   46.2150   60.1265 C   0  0  0  0  0  0  0  0  0  0  0  0
   71.6905   45.2250   59.4724 N   0  0  0  0  0  0  0  0  0  0  0  0
   70.7977   45.4030   58.5061 C   0  0  0  0  0  0  0  0  0  0  0  0
   70.1068   43.1504   57.6913 C   0  0  0  0  0  0  0  0  0  0  0  0
   67.9147   41.9936   56.6392 C   0  0  0  0  0  0  0  0  0  0  0  0
   68.9629   42.5341   57.1428 C   0  0  0  0  0  0  0  0  0  0  0  0
   68.8964   47.7037   56.3797 C   0  0  0  0  0  0  0  0  0  0  0  0
   69.2082   48.0533   55.0068 C   0  0  0  0  0  0  0  0  0  0  0  0
   70.0409   49.1348   54.7327 C   0  0  0  0  0  0  0  0  0  0  0  0
   70.4129   49.4941   53.4755 C   0  0  0  0  0  0  0  0  0  0  0  0
   69.9727   48.7845   52.3837 C   0  0  0  0  0  0  0  0  0  0  0  0
   69.1336   47.6883   52.6063 C   0  0  0  0  0  0  0  0  0  0  0  0
   68.6947   46.9798   51.5058 C   0  0  0  0  0  0  0  0  0  0  0  0
   67.8691   45.8939   51.6884 C   0  0  0  0  0  0  0  0  0  0  0  0
   67.4875   45.5245   52.9793 C   0  0  0  0  0  0  0  0  0  0  0  0
   67.9343   46.2409   54.0652 C   0  0  0  0  0  0  0  0  0  0  0  0
   68.7699   47.3429   53.8878 C   0  0  0  0  0  0  0  0  0  0  0  0
 12 13  3  0
 13 11  1  0
 11  1  1  0
  1  2  1  0
  1 10  1  0
  2  3  2  0
  3 14  1  0
  3  4  1  0
 14 15  1  0
 15 16  2  0
 15 24  1  0
 16 17  1  0
 17 18  2  0
 18 19  1  0
 19 20  1  0
 19 24  2  0
 20 21  2  0
 21 22  1  0
 22 23  2  0
 23 24  1  0
  4  5  1  0
  4 10  2  0
  5  6  1  0
  5  7  2  0
  7  8  1  0
  8  9  2  0
  9 10  1  0
M  END
>  <minimizedAffinity>  (207) 
-8.81795

$$$$
data/reference_output_2/data/smiles/179162.pdb
     RDKit          3D

 24 26  0  0  0  0  0  0  0  0999 V2000
   69.9772   49.4517   57.3885 C   0  0  0  0  0  0  0  0  0  0  0  0
   69.4557   50.5615   57.9812 C   0  0  0  0  0  0  0  0  0  0  0  0
   68.9438   51.5704   57.1625 C   0  0  0  0  0  0  0  0  0  0  0  0
   68.9619   51.4515   55.7892 C   0  0  0  0  0  0  0  0  0  0  0  0
   68.5353   52.2723   54.7880 N   0  0  0  0  0  0  0  0  0  0  0  0
   68.7766   51.7050   53.5929 C   0  0  0  0  0  0  0  0  0  0  0  0
   69.3689   50.4960   53.7950 C   0  0  0  0  0  0  0  0  0  0  0  0
   69.4844   50.3369   55.1713 C   0  0  0  0  0  0  0  0  0  0  0  0
   69.9847   49.3544   55.9870 C   0  0  0  0  0  0  0  0  0  0  0  0
   69.9172   49.2975   52.6582 S   0  0  0  0  0  0  0  0  0  0  0  0
   71.3825   49.0112   52.9477 O   0  0  0  0  0  0  0  0  0  0  0  0
   69.7892   49.8358   51.2585 O   0  0  0  0  0  0  0  0  0  0  0  0
   69.0463   47.8114   52.7899 C   0  0  0  0  0  0  0  0  0  0  0  0
   68.6354   47.1699   51.6402 C   0  0  0  0  0  0  0  0  0  0  0  0
   67.9270   45.9640   51.6995 C   0  0  0  0  0  0  0  0  0  0  0  0
   67.6260   45.3927   52.9192 C   0  0  0  0  0  0  0  0  0  0  0  0
   68.0476   46.0514   54.0555 C   0  0  0  0  0  0  0  0  0  0  0  0
   68.7460   47.2408   54.0085 C   0  0  0  0  0  0  0  0  0  0  0  0
   70.2315   47.0885   57.7651 C   0  0  0  0  0  0  0  0  0  0  0  0
   70.5497   48.3117   58.0858 C   0  0  0  0  0  0  0  0  0  0  0  0
   71.9799   45.5773   58.3382 O   0  0  0  0  0  0  0  0  0  0  0  0
   70.7538   45.8789   58.4072 C   0  0  0  0  0  0  0  0  0  0  0  0
   69.8797   45.0354   59.1120 N   0  0  0  0  0  0  0  0  0  0  0  0
   70.3283   43.8889   59.7304 O   0  0  0  0  0  0  0  0  0  0  0  0
 21 22  2  0
 22 19  1  0
 22 23  1  0
 19 20  2  0
 20  1  1  0
  1  2  2  0
  1  9  1  0
  2  3  1  0
  3  4  2  0
  4  5  1  0
  4  8  1  0
  5  6  1  0
  6  7  2  0
  7 10  1  0
  7  8  1  0
 10 11  2  0
 10 12  2  0
 10 13  1  0
 13 14  2  0
 13 18  1  0
 14 15  1  0
 15 16  2  0
 16 17  1  0
 17 18  2  0
  8  9  2  0
 23 24  1  0
M  END
>  <minimizedAffinity>  (208) 
-8.81640

$$$$
data/200k_reference_output/data/smiles/37241.pdb
     RDKit          3D

 23 25  0  0  0  0  0  0  0  0999 V2000
   70.0063   46.4208   57.2293 O   0  0  0  0  0  0  0  0  0  0  0  0
   69.0088   46.2027   56.4909 C   0  0  0  0  0  0  0  0  0  0  0  0
   68.6262   44.8480   56.3068 N   0  0  0  0  0  0  0  0  0  0  0  0
   69.3660   43.8423   56.9446 N   0  0  0  0  0  0  0  0  0  0  0  0
   68.9290   42.6267   57.0510 C   0  0  0  0  0  0  0  0  0  0  0  0
   67.6545   42.1284   56.5485 C   0  0  0  0  0  0  0  0  0  0  0  0
   66.8103   42.8330   55.9396 O   0  0  0  0  0  0  0  0  0  0  0  0
   67.5936   40.7473   56.8867 N   0  0  0  0  0  0  0  0  0  0  0  0
   68.7737   40.3563   57.5788 C   0  0  0  0  0  0  0  0  0  0  0  0
   69.1610   39.1358   58.0985 C   0  0  0  0  0  0  0  0  0  0  0  0
   70.3775   39.0082   58.7384 C   0  0  0  0  0  0  0  0  0  0  0  0
   71.1732   40.1277   58.8363 C   0  0  0  0  0  0  0  0  0  0  0  0
   70.7862   41.3645   58.3133 C   0  0  0  0  0  0  0  0  0  0  0  0
   69.5742   41.4759   57.6792 C   0  0  0  0  0  0  0  0  0  0  0  0
   68.2892   47.3388   55.8578 C   0  0  0  0  0  0  0  0  0  0  0  0
   68.8963   47.7475   54.5815 C   0  0  0  0  0  0  0  0  0  0  0  0
   69.7674   48.8117   54.4684 C   0  0  0  0  0  0  0  0  0  0  0  0
   70.3359   49.1906   53.2656 C   0  0  0  0  0  0  0  0  0  0  0  0
   70.0362   48.4941   52.1157 C   0  0  0  0  0  0  0  0  0  0  0  0
   70.5634   48.8104   50.8730 O   0  0  0  0  0  0  0  0  0  0  0  0
   69.1613   47.4160   52.2023 C   0  0  0  0  0  0  0  0  0  0  0  0
   68.8377   46.7007   51.0944 F   0  0  0  0  0  0  0  0  0  0  0  0
   68.6061   47.0540   53.4059 C   0  0  0  0  0  0  0  0  0  0  0  0
  1  2  2  0
  2 15  1  0
  2  3  1  0
 15 16  1  0
 16 17  2  0
 16 23  1  0
 17 18  1  0
 18 19  2  0
 19 20  1  0
 19 21  1  0
 21 22  1  0
 21 23  2  0
  3  4  1  0
  4  5  2  0
  5  6  1  0
  5 14  1  0
  6  7  2  0
  6  8  1  0
  8  9  1  0
  9 10  1  0
  9 14  2  0
 10 11  2  0
 11 12  1  0
 12 13  2  0
 13 14  1  0
M  END
>  <minimizedAffinity>  (209) 
-8.81607

$$$$
data/reference_output_2/data/smiles/145922.pdb
     RDKit          3D

 23 24  0  0  0  0  0  0  0  0999 V2000
   68.7073   50.8360   56.4976 C   0  0  0  0  0  0  0  0  0  0  0  0
   67.6681   50.9648   57.4135 C   0  0  0  0  0  0  0  0  0  0  0  0
   66.9830   49.8656   57.9026 C   0  0  0  0  0  0  0  0  0  0  0  0
   67.3056   48.5931   57.4963 C   0  0  0  0  0  0  0  0  0  0  0  0
   68.3279   48.4343   56.5938 C   0  0  0  0  0  0  0  0  0  0  0  0
   69.0090   49.5522   56.1169 C   0  0  0  0  0  0  0  0  0  0  0  0
   68.9222   52.3700   54.5401 C   0  0  0  0  0  0  0  0  0  0  0  0
   69.4039   51.9842   55.8930 C   0  0  2  0  0  0  0  0  0  0  0  0
   70.8898   51.7287   55.9141 C   0  0  0  0  0  0  0  0  0  0  0  0
   71.5058   51.9449   56.9643 O   0  0  0  0  0  0  0  0  0  0  0  0
   71.6077   51.2485   54.8013 N   0  0  0  0  0  0  0  0  0  0  0  0
   73.3160   50.9471   54.7905 S   0  0  0  0  0  0  0  0  0  0  0  0
   74.2266   52.4378   54.9603 C   0  0  0  0  0  0  0  0  0  0  0  0
   73.6192   50.0033   55.9315 O   0  0  0  0  0  0  0  0  0  0  0  0
   73.7250   50.2413   53.5179 O   0  0  0  0  0  0  0  0  0  0  0  0
   68.6275   47.1387   55.9933 C   0  0  0  0  0  0  0  0  0  0  0  0
   68.9849   46.1941   56.7008 O   0  0  0  0  0  0  0  0  0  0  0  0
   68.4737   47.0202   54.5632 C   0  0  0  0  0  0  0  0  0  0  0  0
   67.7890   46.0261   53.9563 C   0  0  0  0  0  0  0  0  0  0  0  0
   67.8385   45.8399   52.5987 C   0  0  0  0  0  0  0  0  0  0  0  0
   68.6158   46.6972   51.8146 C   0  0  0  0  0  0  0  0  0  0  0  0
   69.3152   47.7100   52.4166 C   0  0  0  0  0  0  0  0  0  0  0  0
   69.2515   47.8796   53.7710 C   0  0  0  0  0  0  0  0  0  0  0  0
  8  7  1  6
  8  9  1  0
  8  1  1  0
  9 10  2  0
  9 11  1  0
 11 12  1  0
 12 13  1  0
 12 14  2  0
 12 15  2  0
  1  2  2  0
  1  6  1  0
  2  3  1  0
  3  4  2  0
  4  5  1  0
  5 16  1  0
  5  6  2  0
 16 17  2  0
 16 18  1  0
 18 19  2  0
 18 23  1  0
 19 20  1  0
 20 21  2  0
 21 22  1  0
 22 23  2  0
M  END
>  <minimizedAffinity>  (210) 
-8.81587

$$$$
data/200k_reference_output/data/smiles/66323.pdb
     RDKit          3D

 24 26  0  0  0  0  0  0  0  0999 V2000
   70.3958   46.6045   57.8713 C   0  0  0  0  0  0  0  0  0  0  0  0
   70.7955   47.6422   58.4565 O   0  0  0  0  0  0  0  0  0  0  0  0
   69.5975   46.7565   56.7155 N   0  0  0  0  0  0  0  0  0  0  0  0
   70.7279   45.2494   58.3445 C   0  0  0  0  0  0  0  0  0  0  0  0
   70.6185   44.2512   57.3842 O   0  0  0  0  0  0  0  0  0  0  0  0
   68.1345   39.1578   58.0615 C   0  0  0  0  0  0  0  0  0  0  0  0
   68.8039   40.4747   57.9000 C   0  0  0  0  0  0  0  0  0  0  0  0
   70.0345   40.7521   58.4516 C   0  0  0  0  0  0  0  0  0  0  0  0
   70.6581   41.9863   58.2987 C   0  0  0  0  0  0  0  0  0  0  0  0
   70.0544   42.9877   57.5783 C   0  0  0  0  0  0  0  0  0  0  0  0
   68.8096   42.7127   57.0166 C   0  0  0  0  0  0  0  0  0  0  0  0
   68.2086   41.4907   57.1772 C   0  0  0  0  0  0  0  0  0  0  0  0
   69.2751   48.0978   56.2558 C   0  0  0  0  0  0  0  0  0  0  0  0
   69.6238   48.2543   54.8315 C   0  0  0  0  0  0  0  0  0  0  0  0
   70.5497   49.1394   54.4485 N   0  0  0  0  0  0  0  0  0  0  0  0
   70.8951   49.3120   53.1765 N   0  0  0  0  0  0  0  0  0  0  0  0
   70.2833   48.5629   52.2486 C   0  0  0  0  0  0  0  0  0  0  0  0
   70.5904   48.7039   51.0245 O   0  0  0  0  0  0  0  0  0  0  0  0
   69.3178   47.6265   52.5405 C   0  0  0  0  0  0  0  0  0  0  0  0
   68.7042   46.8700   51.5646 C   0  0  0  0  0  0  0  0  0  0  0  0
   67.7356   45.9350   51.8917 C   0  0  0  0  0  0  0  0  0  0  0  0
   67.3993   45.7779   53.2132 C   0  0  0  0  0  0  0  0  0  0  0  0
   68.0178   46.5405   54.1995 C   0  0  0  0  0  0  0  0  0  0  0  0
   68.9869   47.4790   53.8916 C   0  0  0  0  0  0  0  0  0  0  0  0
  6  7  1  0
  7  8  2  0
  7 12  1  0
  8  9  1  0
  9 10  2  0
 10  5  1  0
 10 11  1  0
  5  4  1  0
  4  1  1  0
  1  2  2  0
  1  3  1  0
  3 13  1  0
 13 14  1  0
 14 15  2  0
 14 24  1  0
 15 16  1  0
 16 17  1  0
 17 18  2  0
 17 19  1  0
 19 20  1  0
 19 24  2  0
 20 21  2  0
 21 22  1  0
 22 23  2  0
 23 24  1  0
 11 12  2  0
M  END
>  <minimizedAffinity>  (211) 
-8.81584

$$$$
data/200k_reference_output/data/smiles/53112.pdb
     RDKit          3D

 23 25  0  0  0  0  0  0  0  0999 V2000
   69.8989   47.5272   57.3686 O   0  0  0  0  0  0  0  0  0  0  0  0
   68.6946   47.3837   56.4370 S   0  0  0  0  0  0  0  0  0  0  0  0
   68.5173   45.8670   56.3613 O   0  0  0  0  0  0  0  0  0  0  0  0
   69.1037   47.9031   54.8257 C   0  0  0  0  0  0  0  0  0  0  0  0
   69.9854   48.9774   54.6360 C   0  0  0  0  0  0  0  0  0  0  0  0
   70.3893   49.3528   53.3818 C   0  0  0  0  0  0  0  0  0  0  0  0
   69.9573   48.7056   52.2483 C   0  0  0  0  0  0  0  0  0  0  0  0
   70.3750   49.0935   50.9770 O   0  0  0  0  0  0  0  0  0  0  0  0
   69.0817   47.6363   52.3967 C   0  0  0  0  0  0  0  0  0  0  0  0
   68.6215   46.9993   51.3055 N   0  0  0  0  0  0  0  0  0  0  0  0
   67.7565   45.9813   51.3846 C   0  0  0  0  0  0  0  0  0  0  0  0
   67.3515   45.6126   52.6477 C   0  0  0  0  0  0  0  0  0  0  0  0
   67.7825   46.2209   53.8015 C   0  0  0  0  0  0  0  0  0  0  0  0
   68.6792   47.2674   53.6789 C   0  0  0  0  0  0  0  0  0  0  0  0
   67.2893   48.0048   57.0967 N   0  0  0  0  0  0  0  0  0  0  0  0
   67.3012   49.0504   58.0241 C   0  0  0  0  0  0  0  0  0  0  0  0
   67.9936   50.2436   57.4117 C   0  0  0  0  0  0  0  0  0  0  0  0
   67.4833   50.9031   56.3145 C   0  0  0  0  0  0  0  0  0  0  0  0
   68.1487   51.9993   55.7763 C   0  0  0  0  0  0  0  0  0  0  0  0
   69.3302   52.4625   56.3141 C   0  0  0  0  0  0  0  0  0  0  0  0
   69.8372   51.8008   57.4118 C   0  0  0  0  0  0  0  0  0  0  0  0
   69.1750   50.7069   57.9495 C   0  0  0  0  0  0  0  0  0  0  0  0
   69.6919   50.0761   59.0250 F   0  0  0  0  0  0  0  0  0  0  0  0
  1  2  2  0
  2  3  2  0
  2 15  1  0
  2  4  1  0
 15 16  1  0
 16 17  1  0
 17 18  2  0
 17 22  1  0
 18 19  1  0
 19 20  2  0
 20 21  1  0
 21 22  2  0
 22 23  1  0
  4  5  2  0
  4 14  1  0
  5  6  1  0
  6  7  2  0
  7  8  1  0
  7  9  1  0
  9 10  1  0
  9 14  2  0
 10 11  2  0
 11 12  1  0
 12 13  2  0
 13 14  1  0
M  END
>  <minimizedAffinity>  (212) 
-8.81576

$$$$
data/reference_output_2/data/smiles/121189.pdb
     RDKit          3D

 23 25  0  0  0  0  0  0  0  0999 V2000
   70.0200   45.6053   58.9980 O   0  0  0  0  0  0  0  0  0  0  0  0
   69.9268   44.8538   58.0041 C   0  0  0  0  0  0  0  0  0  0  0  0
   69.3119   45.3973   56.7995 N   0  0  0  0  0  0  0  0  0  0  0  0
   70.4241   43.4886   58.0750 C   0  0  0  0  0  0  0  0  0  0  0  0
   71.8085   43.2609   58.0234 C   0  0  0  0  0  0  0  0  0  0  0  0
   72.3118   41.9826   58.0888 C   0  0  0  0  0  0  0  0  0  0  0  0
   71.5101   40.8678   58.2061 C   0  0  0  0  0  0  0  0  0  0  0  0
   72.0065   39.6189   58.2702 N   0  0  0  0  0  0  0  0  0  0  0  0
   71.2148   38.5221   58.3861 C   0  0  0  0  0  0  0  0  0  0  0  0
   69.8452   38.6807   58.4420 C   0  0  0  0  0  0  0  0  0  0  0  0
   69.3419   39.9641   58.3759 C   0  0  0  0  0  0  0  0  0  0  0  0
   70.1487   41.0770   58.2588 C   0  0  0  0  0  0  0  0  0  0  0  0
   69.6357   42.3669   58.1920 C   0  0  0  0  0  0  0  0  0  0  0  0
   68.8560   46.6184   56.7057 N   0  0  0  0  0  0  0  0  0  0  0  0
   68.5552   47.3925   55.8193 C   0  0  0  0  0  0  0  0  0  0  0  0
   68.6084   47.1906   54.4062 C   0  0  0  0  0  0  0  0  0  0  0  0
   67.7948   46.1843   53.8774 C   0  0  0  0  0  0  0  0  0  0  0  0
   67.7412   45.8794   52.5490 C   0  0  0  0  0  0  0  0  0  0  0  0
   66.9191   44.8771   52.0950 O   0  0  0  0  0  0  0  0  0  0  0  0
   68.5073   46.5712   51.6648 C   0  0  0  0  0  0  0  0  0  0  0  0
   69.3119   47.5591   52.1458 C   0  0  0  0  0  0  0  0  0  0  0  0
   69.3685   47.8781   53.5295 C   0  0  0  0  0  0  0  0  0  0  0  0
   70.2397   48.9059   53.8292 O   0  0  0  0  0  0  0  0  0  0  0  0
  1  2  2  0
  2  3  1  0
  2  4  1  0
  3 14  1  0
 14 15  2  0
 15 16  1  0
 16 17  2  0
 16 22  1  0
 17 18  1  0
 18 19  1  0
 18 20  2  0
 20 21  1  0
 21 22  2  0
 22 23  1  0
  4  5  2  0
  4 13  1  0
  5  6  1  0
  6  7  2  0
  7  8  1  0
  7 12  1  0
  8  9  2  0
  9 10  1  0
 10 11  2  0
 11 12  1  0
 12 13  2  0
M  END
>  <minimizedAffinity>  (213) 
-8.81406

$$$$
data/200k_reference_output/data/smiles/47364.pdb
     RDKit          3D

 22 24  0  0  0  0  0  0  0  0999 V2000
   68.8104   47.3081   56.4720 S   0  0  0  0  0  0  0  0  0  0  0  0
   69.4763   48.6430   56.7857 O   0  0  0  0  0  0  0  0  0  0  0  0
   67.4454   47.3466   57.0905 O   0  0  0  0  0  0  0  0  0  0  0  0
   69.3278   47.9394   52.5150 C   0  0  0  0  0  0  0  0  0  0  0  0
   68.6222   46.9244   51.9098 C   0  0  0  0  0  0  0  0  0  0  0  0
   67.9774   46.0273   52.7326 C   0  0  0  0  0  0  0  0  0  0  0  0
   68.0216   46.1204   54.1017 C   0  0  0  0  0  0  0  0  0  0  0  0
   68.7160   47.1205   54.7323 C   0  0  0  0  0  0  0  0  0  0  0  0
   69.3687   48.0275   53.8879 C   0  0  0  0  0  0  0  0  0  0  0  0
   69.9095   50.1199   51.9581 O   0  0  0  0  0  0  0  0  0  0  0  0
   70.0175   48.8989   51.7323 N   0  0  0  0  0  0  0  0  0  0  0  0
   70.8152   48.4609   50.7077 O   0  0  0  0  0  0  0  0  0  0  0  0
   69.7880   46.1010   57.1642 N   0  0  0  0  0  0  0  0  0  0  0  0
   69.4540   44.7332   57.1703 C   0  0  0  0  0  0  0  0  0  0  0  0
   68.4796   44.1543   56.3860 N   0  0  0  0  0  0  0  0  0  0  0  0
   68.3891   42.8537   56.6257 C   0  0  0  0  0  0  0  0  0  0  0  0
   67.6164   41.8055   56.1527 C   0  0  0  0  0  0  0  0  0  0  0  0
   67.7820   40.5233   56.6329 C   0  0  0  0  0  0  0  0  0  0  0  0
   68.7226   40.2489   57.6001 C   0  0  0  0  0  0  0  0  0  0  0  0
   69.5067   41.2912   58.0854 C   0  0  0  0  0  0  0  0  0  0  0  0
   69.3226   42.5524   57.5935 C   0  0  0  0  0  0  0  0  0  0  0  0
   69.9317   43.7039   57.8845 N   0  0  0  0  0  0  0  0  0  0  0  0
 10 11  2  0
 11 12  1  0
 11  4  1  0
  4  5  2  0
  4  9  1  0
  5  6  1  0
  6  7  2  0
  7  8  1  0
  8  1  1  0
  8  9  2  0
  1  2  2  0
  1  3  2  0
  1 13  1  0
 13 14  1  0
 14 15  2  0
 14 22  1  0
 15 16  1  0
 16 17  2  0
 16 21  1  0
 17 18  1  0
 18 19  2  0
 19 20  1  0
 20 21  2  0
 21 22  1  0
M  CHG  3  11   1  12  -1  15   1
M  END
>  <minimizedAffinity>  (214) 
-8.81193

$$$$
data/reference_output_2/data/smiles/138347.pdb
     RDKit          3D

 24 26  0  0  0  0  0  0  0  0999 V2000
   72.9752   52.0614   54.8624 C   0  0  0  0  0  0  0  0  0  0  0  0
   72.2446   52.2316   56.1950 C   0  0  0  0  0  0  0  0  0  0  0  0
   71.9017   53.7144   56.2777 C   0  0  0  0  0  0  0  0  0  0  0  0
   73.1169   54.3453   55.6691 C   0  0  0  0  0  0  0  0  0  0  0  0
   73.4314   53.4581   54.4959 C   0  0  0  0  0  0  0  0  0  0  0  0
   75.8206   50.0436   55.7546 C   0  0  0  0  0  0  0  0  0  0  0  0
   74.9578   51.0355   56.0242 N   0  0  0  0  0  0  0  0  0  0  0  0
   74.0952   51.1273   55.0132 C   0  0  0  0  0  0  0  0  0  0  0  0
   74.4415   50.1854   54.1313 N   0  0  0  0  0  0  0  0  0  0  0  0
   75.4692   49.5560   54.5954 O   0  0  0  0  0  0  0  0  0  0  0  0
   76.9684   49.5753   56.6056 C   0  0  0  0  0  0  0  0  0  0  0  0
   78.7524   51.1086   56.4927 C   0  0  0  0  0  0  0  0  0  0  0  0
   77.6150   50.6800   57.2495 N   0  0  0  0  0  0  0  0  0  0  0  0
   77.9931   50.3965   58.6152 C   0  0  0  0  0  0  0  0  0  0  0  0
   71.9767   51.6107   53.9071 N   0  0  0  0  0  0  0  0  0  0  0  0
   71.3028   50.3880   53.9968 C   0  0  0  0  0  0  0  0  0  0  0  0
   71.5424   49.6082   54.9367 O   0  0  0  0  0  0  0  0  0  0  0  0
   70.3168   49.9561   53.0428 N   0  0  0  0  0  0  0  0  0  0  0  0
   69.6434   48.7176   53.1458 C   0  0  0  0  0  0  0  0  0  0  0  0
   69.6308   47.8516   52.0790 C   0  0  0  0  0  0  0  0  0  0  0  0
   68.9773   46.6205   52.1430 C   0  0  0  0  0  0  0  0  0  0  0  0
   68.3280   46.2527   53.2886 C   0  0  0  0  0  0  0  0  0  0  0  0
   68.3341   47.1116   54.3603 C   0  0  0  0  0  0  0  0  0  0  0  0
   68.9889   48.3422   54.2945 C   0  0  0  0  0  0  0  0  0  0  0  0
 12 13  1  0
 13 14  1  0
 13 11  1  0
 11  6  1  0
  6  7  2  0
  6 10  1  0
  7  8  1  0
  8  1  1  0
  8  9  2  0
  1 15  1  0
  1  2  1  0
  1  5  1  0
 15 16  1  0
 16 17  2  0
 16 18  1  0
 18 19  1  0
 19 20  2  0
 19 24  1  0
 20 21  1  0
 21 22  2  0
 22 23  1  0
 23 24  2  0
  2  3  1  0
  3  4  1  0
  4  5  1  0
  9 10  1  0
M  CHG  1  13   1
M  END
>  <minimizedAffinity>  (215) 
-8.81177

$$$$
data/reference_output_2/data/smiles/145519.pdb
     RDKit          3D

 24 26  0  0  0  0  0  0  0  0999 V2000
   72.2810   50.9731   54.9244 C   0  0  2  0  0  0  0  0  0  0  0  0
   70.2079   50.8664   52.8920 O   0  0  0  0  0  0  0  0  0  0  0  0
   70.4953   49.8129   53.5568 C   0  0  0  0  0  0  0  0  0  0  0  0
   71.5030   49.8512   54.5390 N   0  0  0  0  0  0  0  0  0  0  0  0
   69.7280   48.5848   53.2428 C   0  0  0  0  0  0  0  0  0  0  0  0
   68.9473   48.0015   54.2234 C   0  0  0  0  0  0  0  0  0  0  0  0
   68.2257   46.8679   53.9709 C   0  0  0  0  0  0  0  0  0  0  0  0
   68.2329   46.2441   52.7424 C   0  0  0  0  0  0  0  0  0  0  0  0
   67.4890   45.1005   52.5331 O   0  0  0  0  0  0  0  0  0  0  0  0
   69.0039   46.8146   51.7629 C   0  0  0  0  0  0  0  0  0  0  0  0
   69.7459   47.9770   52.0138 C   0  0  0  0  0  0  0  0  0  0  0  0
   73.7394   50.8788   54.6187 C   0  0  0  0  0  0  0  0  0  0  0  0
   74.1527   50.2264   53.6219 O   0  0  0  0  0  0  0  0  0  0  0  0
   74.6759   51.4939   55.4116 O   0  0  0  0  0  0  0  0  0  0  0  0
   72.0206   51.5370   56.2911 C   0  0  0  0  0  0  0  0  0  0  0  0
   70.6147   51.9085   56.5069 C   0  0  0  0  0  0  0  0  0  0  0  0
   70.0210   53.1610   56.2915 C   0  0  0  0  0  0  0  0  0  0  0  0
   68.7144   53.0915   56.5841 N   0  0  0  0  0  0  0  0  0  0  0  0
   68.3989   51.8319   56.9931 C   0  0  0  0  0  0  0  0  0  0  0  0
   67.1958   51.2768   57.4012 C   0  0  0  0  0  0  0  0  0  0  0  0
   67.1398   49.9536   57.7791 C   0  0  0  0  0  0  0  0  0  0  0  0
   68.3206   49.2439   57.7260 C   0  0  0  0  0  0  0  0  0  0  0  0
   69.5239   49.7660   57.3267 C   0  0  0  0  0  0  0  0  0  0  0  0
   69.5703   51.1044   56.9455 C   0  0  0  0  0  0  0  0  0  0  0  0
  2  3  2  0
  3  4  1  0
  3  5  1  0
  4  1  1  0
  1 15  1  1
  1 12  1  0
 15 16  1  0
 16 17  2  0
 16 24  1  0
 17 18  1  0
 18 19  1  0
 19 20  1  0
 19 24  2  0
 20 21  2  0
 21 22  1  0
 22 23  2  0
 23 24  1  0
 12 13  2  0
 12 14  1  0
  5  6  2  0
  5 11  1  0
  6  7  1  0
  7  8  2  0
  8  9  1  0
  8 10  1  0
 10 11  2  0
M  END
>  <minimizedAffinity>  (216) 
-8.81057

$$$$
data/reference_output_2/data/smiles/181449.pdb
     RDKit          3D

 24 26  0  0  0  0  0  0  0  0999 V2000
   68.1655   43.9638   55.7202 C   0  0  0  0  0  0  0  0  0  0  0  0
   67.7049   44.4841   54.6315 N   0  0  0  0  0  0  0  0  0  0  0  0
   68.1371   45.7656   54.0995 C   0  0  0  0  0  0  0  0  0  0  0  0
   67.9972   45.8586   52.7443 C   0  0  0  0  0  0  0  0  0  0  0  0
   68.5069   46.9657   52.0875 C   0  0  0  0  0  0  0  0  0  0  0  0
   69.1475   47.9576   52.7998 C   0  0  0  0  0  0  0  0  0  0  0  0
   69.7847   49.3482   51.9496 Cl  0  0  0  0  0  0  0  0  0  0  0  0
   69.3045   47.8931   54.1689 C   0  0  0  0  0  0  0  0  0  0  0  0
   68.7831   46.7806   54.8182 C   0  0  0  0  0  0  0  0  0  0  0  0
   69.0190   46.9168   56.2333 C   0  0  0  0  0  0  0  0  0  0  0  0
   69.1781   45.8743   57.0482 N   0  0  0  0  0  0  0  0  0  0  0  0
   69.1266   44.4985   56.6759 N   0  0  0  0  0  0  0  0  0  0  0  0
   69.9655   43.5156   57.2548 C   0  0  0  0  0  0  0  0  0  0  0  0
   69.0711   48.2110   56.8853 C   0  0  0  0  0  0  0  0  0  0  0  0
   67.8631   48.8579   57.2067 C   0  0  0  0  0  0  0  0  0  0  0  0
   67.8051   50.1323   57.6969 C   0  0  0  0  0  0  0  0  0  0  0  0
   68.9652   50.8447   57.8993 C   0  0  0  0  0  0  0  0  0  0  0  0
   70.1670   50.2699   57.6039 C   0  0  0  0  0  0  0  0  0  0  0  0
   70.1761   48.9714   57.1053 C   0  0  0  0  0  0  0  0  0  0  0  0
   67.6013   42.7098   56.0291 N   0  0  0  0  0  0  0  0  0  0  0  0
   68.5127   39.5885   58.0491 C   0  0  0  0  0  0  0  0  0  0  0  0
   68.0767   40.4774   56.9208 C   0  0  0  0  0  0  0  0  0  0  0  0
   67.7563   40.0289   55.7931 O   0  0  0  0  0  0  0  0  0  0  0  0
   68.0046   41.8825   57.0728 N   0  0  0  0  0  0  0  0  0  0  0  0
 21 22  1  0
 22 23  2  0
 22 24  1  0
 24 20  1  0
 20  1  1  0
  1  2  2  0
  1 12  1  0
  2  3  1  0
  3  4  2  0
  3  9  1  0
  4  5  1  0
  5  6  2  0
  6  7  1  0
  6  8  1  0
  8  9  2  0
  9 10  1  0
 10 14  1  0
 10 11  2  0
 14 15  2  0
 14 19  1  0
 15 16  1  0
 16 17  2  0
 17 18  1  0
 18 19  2  0
 11 12  1  0
 12 13  1  0
M  CHG  1   2   1
M  END
>  <minimizedAffinity>  (217) 
-8.81042

$$$$
data/200k_reference_output/data/smiles/82239.pdb
     RDKit          3D

 26 29  0  0  0  0  0  0  0  0999 V2000
   70.5375   45.4202   59.1629 O   0  0  0  0  0  0  0  0  0  0  0  0
   70.8943   46.6404   59.2708 C   0  0  0  0  0  0  0  0  0  0  0  0
   71.3708   47.2711   60.3596 N   0  0  0  0  0  0  0  0  0  0  0  0
   71.5930   48.5140   59.9709 N   0  0  0  0  0  0  0  0  0  0  0  0
   71.2629   48.6618   58.6580 C   0  0  0  0  0  0  0  0  0  0  0  0
   70.8197   47.4818   58.2082 N   0  0  0  0  0  0  0  0  0  0  0  0
   70.3793   47.1986   56.9154 N   0  0  0  0  0  0  0  0  0  0  0  0
   69.1462   47.0099   56.5796 C   0  0  0  0  0  0  0  0  0  0  0  0
   68.8177   46.7193   55.1997 C   0  0  0  0  0  0  0  0  0  0  0  0
   68.2185   45.5445   54.8314 C   0  0  0  0  0  0  0  0  0  0  0  0
   67.9054   44.6105   55.8074 O   0  0  0  0  0  0  0  0  0  0  0  0
   67.9240   45.2820   53.5117 C   0  0  0  0  0  0  0  0  0  0  0  0
   68.2249   46.1939   52.5291 C   0  0  0  0  0  0  0  0  0  0  0  0
   68.8287   47.3891   52.8654 C   0  0  0  0  0  0  0  0  0  0  0  0
   69.1319   48.3022   51.8887 C   0  0  0  0  0  0  0  0  0  0  0  0
   69.7324   49.4840   52.2437 C   0  0  0  0  0  0  0  0  0  0  0  0
   70.0203   49.7302   53.5699 C   0  0  0  0  0  0  0  0  0  0  0  0
   69.7238   48.8279   54.5571 C   0  0  0  0  0  0  0  0  0  0  0  0
   69.1157   47.6297   54.2120 C   0  0  0  0  0  0  0  0  0  0  0  0
   71.4127   49.9665   57.9656 C   0  0  0  0  0  0  0  0  0  0  0  0
   70.0483   50.4661   57.6696 C   0  0  0  0  0  0  0  0  0  0  0  0
   68.9290   49.8914   58.2106 C   0  0  0  0  0  0  0  0  0  0  0  0
   67.6501   50.3492   57.9523 C   0  0  0  0  0  0  0  0  0  0  0  0
   67.4829   51.4382   57.1119 C   0  0  0  0  0  0  0  0  0  0  0  0
   68.5888   52.0262   56.5634 C   0  0  0  0  0  0  0  0  0  0  0  0
   69.8699   51.5469   56.8376 C   0  0  0  0  0  0  0  0  0  0  0  0
  1  2  2  0
  2  3  1  0
  2  6  1  0
  3  4  1  0
  4  5  2  0
  5 20  1  0
  5  6  1  0
 20 21  1  0
 21 22  2  0
 21 26  1  0
 22 23  1  0
 23 24  2  0
 24 25  1  0
 25 26  2  0
  6  7  1  0
  7  8  2  0
  8  9  1  0
  9 10  2  0
  9 19  1  0
 10 11  1  0
 10 12  1  0
 12 13  2  0
 13 14  1  0
 14 15  1  0
 14 19  2  0
 15 16  2  0
 16 17  1  0
 17 18  2  0
 18 19  1  0
M  END
>  <minimizedAffinity>  (218) 
-8.81012

$$$$
data/200k_reference_output/data/smiles/47017.pdb
     RDKit          3D

 23 25  0  0  0  0  0  0  0  0999 V2000
   68.8918   40.4266   57.7754 C   0  0  0  0  0  0  0  0  0  0  0  0
   67.8568   40.2993   56.8809 C   0  0  0  0  0  0  0  0  0  0  0  0
   67.4052   41.3601   56.0946 C   0  0  0  0  0  0  0  0  0  0  0  0
   67.9919   42.6075   56.1850 C   0  0  0  0  0  0  0  0  0  0  0  0
   67.7856   43.7791   55.5816 N   0  0  0  0  0  0  0  0  0  0  0  0
   68.6825   44.7176   56.0642 C   0  0  0  0  0  0  0  0  0  0  0  0
   69.4124   44.0587   56.9622 N   0  0  0  0  0  0  0  0  0  0  0  0
   69.0249   42.7540   57.0714 C   0  0  0  0  0  0  0  0  0  0  0  0
   69.4600   41.6992   57.8410 C   0  0  0  0  0  0  0  0  0  0  0  0
   70.5313   38.7410   58.3894 C   0  0  0  0  0  0  0  0  0  0  0  0
   69.3970   39.3578   58.6141 C   0  0  0  0  0  0  0  0  0  0  0  0
   71.3843   37.9500   60.4104 O   0  0  0  0  0  0  0  0  0  0  0  0
   71.0395   37.6615   59.2393 C   0  0  0  0  0  0  0  0  0  0  0  0
   71.1705   36.3134   58.8357 N   0  0  0  0  0  0  0  0  0  0  0  0
   71.6480   35.3435   59.6618 O   0  0  0  0  0  0  0  0  0  0  0  0
   68.6616   46.1123   55.5937 C   0  0  0  0  0  0  0  0  0  0  0  0
   67.9653   46.4548   54.3586 C   0  0  0  0  0  0  0  0  0  0  0  0
   68.7428   47.1620   53.3277 C   0  0  0  0  0  0  0  0  0  0  0  0
   69.2716   48.4362   53.5935 C   0  0  0  0  0  0  0  0  0  0  0  0
   70.0456   49.1188   52.6975 C   0  0  0  0  0  0  0  0  0  0  0  0
   70.3240   48.5388   51.4801 C   0  0  0  0  0  0  0  0  0  0  0  0
   69.8283   47.3198   51.2062 N   0  0  0  0  0  0  0  0  0  0  0  0
   69.0605   46.6516   52.1064 C   0  0  0  0  0  0  0  0  0  0  0  0
 12 13  2  0
 13 10  1  0
 13 14  1  0
 10 11  2  0
 11  1  1  0
  1  2  2  0
  1  9  1  0
  2  3  1  0
  3  4  2  0
  4  5  1  0
  4  8  1  0
  5  6  2  0
  6 16  1  0
  6  7  1  0
 16 17  1  0
 17 18  1  0
 18 19  2  0
 18 23  1  0
 19 20  1  0
 20 21  2  0
 21 22  1  0
 22 23  2  0
  7  8  1  0
  8  9  2  0
 14 15  1  0
M  CHG  1   5   1
M  END
>  <minimizedAffinity>  (219) 
-8.80690

$$$$
data/200k_reference_output/data/smiles/7144.pdb
     RDKit          3D

 25 27  0  0  0  0  0  0  0  0999 V2000
   68.5921   42.3587   57.2051 C   0  0  0  0  0  0  0  0  0  0  0  0
   69.8384   42.4598   57.0758 O   0  0  0  0  0  0  0  0  0  0  0  0
   67.7980   43.3631   56.5949 N   0  0  0  0  0  0  0  0  0  0  0  0
   67.0214   39.0153   59.3891 C   0  0  0  0  0  0  0  0  0  0  0  0
   68.0177   38.8677   58.4467 C   0  0  0  0  0  0  0  0  0  0  0  0
   68.5168   39.9558   57.7474 C   0  0  0  0  0  0  0  0  0  0  0  0
   68.0427   41.2380   57.9592 C   0  0  0  0  0  0  0  0  0  0  0  0
   67.0483   41.3768   58.9030 C   0  0  0  0  0  0  0  0  0  0  0  0
   66.5362   40.2857   59.6148 C   0  0  0  0  0  0  0  0  0  0  0  0
   65.5677   36.9944   59.3613 C   0  0  0  0  0  0  0  0  0  0  0  0
   66.4474   37.9029   60.1656 C   0  0  0  0  0  0  0  0  0  0  0  0
   67.6225   37.0614   60.6677 C   0  0  0  0  0  0  0  0  0  0  0  0
   65.6937   38.4764   61.3356 C   0  0  0  0  0  0  0  0  0  0  0  0
   68.3521   44.4374   55.8709 N   0  0  0  0  0  0  0  0  0  0  0  0
   67.8016   44.8813   54.8155 C   0  0  0  0  0  0  0  0  0  0  0  0
   68.3296   45.9948   54.0226 C   0  0  0  0  0  0  0  0  0  0  0  0
   68.2431   46.0285   52.6491 C   0  0  0  0  0  0  0  0  0  0  0  0
   68.7384   47.0749   51.8878 C   0  0  0  0  0  0  0  0  0  0  0  0
   69.3473   48.1335   52.5296 C   0  0  0  0  0  0  0  0  0  0  0  0
   69.4501   48.1276   53.9072 C   0  0  0  0  0  0  0  0  0  0  0  0
   68.9433   47.0645   54.6373 C   0  0  0  0  0  0  0  0  0  0  0  0
   70.0810   49.2725   54.2230 N   0  0  0  0  0  0  0  0  0  0  0  0
   70.3490   49.9402   53.1193 O   0  0  0  0  0  0  0  0  0  0  0  0
   69.9197   49.2780   52.0868 N   0  0  0  0  0  0  0  0  0  0  0  0
   70.0283   49.6740   50.7739 O   0  0  0  0  0  0  0  0  0  0  0  0
 10 11  1  0
 11 12  1  0
 11 13  1  0
 11  4  1  0
  4  5  2  0
  4  9  1  0
  5  6  1  0
  6  7  2  0
  7  1  1  0
  7  8  1  0
  1  2  2  0
  1  3  1  0
  3 14  1  0
 14 15  2  0
 15 16  1  0
 16 17  1  0
 16 21  2  0
 17 18  2  0
 18 19  1  0
 19 20  1  0
 19 24  2  0
 20 21  1  0
 20 22  2  0
 22 23  1  0
 23 24  1  0
 24 25  1  0
  8  9  2  0
M  CHG  2  24   1  25  -1
M  END
>  <minimizedAffinity>  (220) 
-8.80687

$$$$
data/reference_output_2/data/smiles/142851.pdb
     RDKit          3D

 24 26  0  0  0  0  0  0  0  0999 V2000
   72.3339   51.1386   54.9146 C   0  0  2  0  0  0  0  0  0  0  0  0
   70.3595   50.8556   53.0165 O   0  0  0  0  0  0  0  0  0  0  0  0
   70.5875   49.8040   53.6881 C   0  0  0  0  0  0  0  0  0  0  0  0
   71.5841   49.8946   54.6675 N   0  0  0  0  0  0  0  0  0  0  0  0
   69.8209   48.6085   53.4052 C   0  0  0  0  0  0  0  0  0  0  0  0
   69.7761   48.1324   52.1160 C   0  0  0  0  0  0  0  0  0  0  0  0
   69.0675   47.0008   51.7671 C   0  0  0  0  0  0  0  0  0  0  0  0
   68.3791   46.3284   52.7739 C   0  0  0  0  0  0  0  0  0  0  0  0
   68.4003   46.7734   54.0752 C   0  0  0  0  0  0  0  0  0  0  0  0
   67.6972   46.0663   55.0387 O   0  0  0  0  0  0  0  0  0  0  0  0
   69.1314   47.9231   54.3749 C   0  0  0  0  0  0  0  0  0  0  0  0
   73.7506   50.8969   54.6197 C   0  0  0  0  0  0  0  0  0  0  0  0
   74.6982   51.3366   55.3088 O   0  0  0  0  0  0  0  0  0  0  0  0
   74.1232   50.1277   53.5043 O   0  0  0  0  0  0  0  0  0  0  0  0
   71.9795   51.5900   56.2800 C   0  0  0  0  0  0  0  0  0  0  0  0
   70.5535   51.9016   56.4917 C   0  0  0  0  0  0  0  0  0  0  0  0
   69.9461   53.1531   56.2794 C   0  0  0  0  0  0  0  0  0  0  0  0
   68.6461   53.0829   56.6025 N   0  0  0  0  0  0  0  0  0  0  0  0
   68.3340   51.8363   57.0267 C   0  0  0  0  0  0  0  0  0  0  0  0
   67.1454   51.2635   57.4500 C   0  0  0  0  0  0  0  0  0  0  0  0
   67.0916   49.9370   57.8189 C   0  0  0  0  0  0  0  0  0  0  0  0
   68.2651   49.2167   57.7477 C   0  0  0  0  0  0  0  0  0  0  0  0
   69.4417   49.7942   57.3268 C   0  0  0  0  0  0  0  0  0  0  0  0
   69.5107   51.1231   56.9536 C   0  0  0  0  0  0  0  0  0  0  0  0
  2  3  2  0
  3  4  1  0
  3  5  1  0
  4  1  1  0
  1 15  1  1
  1 12  1  0
 15 16  1  0
 16 17  2  0
 16 24  1  0
 17 18  1  0
 18 19  1  0
 19 20  1  0
 19 24  2  0
 20 21  2  0
 21 22  1  0
 22 23  2  0
 23 24  1  0
 12 13  2  0
 12 14  1  0
  5  6  2  0
  5 11  1  0
  6  7  1  0
  7  8  2  0
  8  9  1  0
  9 10  1  0
  9 11  2  0
M  END
>  <minimizedAffinity>  (221) 
-8.80651

$$$$
data/reference_output_2/data/smiles/117138.pdb
     RDKit          3D

 23 24  0  0  0  0  0  0  0  0999 V2000
   67.3628   42.9336   55.8108 N   0  0  0  0  0  0  0  0  0  0  0  0
   67.9507   44.0428   55.4825 C   0  0  0  0  0  0  0  0  0  0  0  0
   67.6593   40.2265   55.5436 O   0  0  0  0  0  0  0  0  0  0  0  0
   67.9950   40.6977   56.6573 C   0  0  0  0  0  0  0  0  0  0  0  0
   67.8495   42.0965   56.8144 N   0  0  0  0  0  0  0  0  0  0  0  0
   68.5024   39.8321   57.7129 C   0  0  0  0  0  0  0  0  0  0  0  0
   69.8346   39.9324   58.0492 C   0  0  0  0  0  0  0  0  0  0  0  0
   70.4200   39.1592   59.0360 C   0  0  0  0  0  0  0  0  0  0  0  0
   69.6550   38.2532   59.7138 C   0  0  0  0  0  0  0  0  0  0  0  0
   68.3190   38.1371   59.3922 C   0  0  0  0  0  0  0  0  0  0  0  0
   67.5668   37.2346   60.0696 F   0  0  0  0  0  0  0  0  0  0  0  0
   67.7507   38.9287   58.3926 C   0  0  0  0  0  0  0  0  0  0  0  0
   67.4370   44.8785   54.4580 N   0  0  0  0  0  0  0  0  0  0  0  0
   68.1841   45.9530   53.9808 C   0  0  0  0  0  0  0  0  0  0  0  0
   68.4684   46.9827   54.8875 C   0  0  0  0  0  0  0  0  0  0  0  0
   69.1862   48.1053   54.5500 C   0  0  0  0  0  0  0  0  0  0  0  0
   69.6340   48.1912   53.2490 C   0  0  0  0  0  0  0  0  0  0  0  0
   69.3569   47.1747   52.3401 C   0  0  0  0  0  0  0  0  0  0  0  0
   69.8099   47.2681   51.0306 O   0  0  0  0  0  0  0  0  0  0  0  0
   68.6335   46.0504   52.6915 C   0  0  0  0  0  0  0  0  0  0  0  0
   70.3979   49.3642   52.8504 C   0  0  0  0  0  0  0  0  0  0  0  0
   71.5483   49.5736   53.3037 O   0  0  0  0  0  0  0  0  0  0  0  0
   69.8878   50.2916   51.9580 O   0  0  0  0  0  0  0  0  0  0  0  0
  3  4  2  0
  4  5  1  0
  4  6  1  0
  5  1  1  0
  1  2  2  0
  2 13  1  0
 13 14  1  0
 14 15  2  0
 14 20  1  0
 15 16  1  0
 16 17  2  0
 17 21  1  0
 17 18  1  0
 21 22  2  0
 21 23  1  0
 18 19  1  0
 18 20  2  0
  6  7  2  0
  6 12  1  0
  7  8  1  0
  8  9  2  0
  9 10  1  0
 10 11  1  0
 10 12  2  0
M  END
>  <minimizedAffinity>  (222) 
-8.80341

$$$$
data/reference_output_2/data/smiles/156564.pdb
     RDKit          3D

 24 26  0  0  0  0  0  0  0  0999 V2000
   68.6824   47.8765   56.6473 C   0  0  2  0  0  0  0  0  0  0  0  0
   67.4171   47.5844   57.1827 O   0  0  0  0  0  0  0  0  0  0  0  0
   68.7815   49.3573   56.6913 C   0  0  0  0  0  0  0  0  0  0  0  0
   67.8191   50.1243   57.2869 C   0  0  0  0  0  0  0  0  0  0  0  0
   67.9831   51.4942   57.2892 C   0  0  0  0  0  0  0  0  0  0  0  0
   69.0765   52.1096   56.7163 C   0  0  0  0  0  0  0  0  0  0  0  0
   69.2814   53.8590   56.7221 Cl  0  0  0  0  0  0  0  0  0  0  0  0
   70.0275   51.2941   56.1246 C   0  0  0  0  0  0  0  0  0  0  0  0
   69.8740   49.9305   56.1164 C   0  0  0  0  0  0  0  0  0  0  0  0
   69.2641   47.7085   52.9087 C   0  0  0  0  0  0  0  0  0  0  0  0
   68.5622   46.5569   52.5660 C   0  0  0  0  0  0  0  0  0  0  0  0
   67.9139   45.8518   53.5517 C   0  0  0  0  0  0  0  0  0  0  0  0
   67.9494   46.2718   54.8866 C   0  0  0  0  0  0  0  0  0  0  0  0
   68.6407   47.4074   55.2293 C   0  0  0  0  0  0  0  0  0  0  0  0
   69.2892   48.1087   54.2279 C   0  0  0  0  0  0  0  0  0  0  0  0
   70.0205   49.8864   52.0284 N   0  0  0  0  0  0  0  0  0  0  0  0
   69.9639   48.4844   51.8950 C   0  0  0  0  0  0  0  0  0  0  0  0
   70.5122   47.9386   50.9163 O   0  0  0  0  0  0  0  0  0  0  0  0
   69.7498   47.1914   57.4107 C   0  0  0  0  0  0  0  0  0  0  0  0
   70.5777   47.8872   58.2818 C   0  0  0  0  0  0  0  0  0  0  0  0
   71.5429   47.2627   58.9815 N   0  0  0  0  0  0  0  0  0  0  0  0
   71.7637   45.9415   58.8813 C   0  0  0  0  0  0  0  0  0  0  0  0
   70.9779   45.2450   58.0452 N   0  0  0  0  0  0  0  0  0  0  0  0
   69.9895   45.8343   57.3186 C   0  0  0  0  0  0  0  0  0  0  0  0
 16 17  1  0
 17 18  2  0
 17 10  1  0
 10 11  2  0
 10 15  1  0
 11 12  1  0
 12 13  2  0
 13 14  1  0
 14  1  1  0
 14 15  2  0
  1  2  1  1
  1  3  1  0
  1 19  1  0
  3  4  2  0
  3  9  1  0
  4  5  1  0
  5  6  2  0
  6  7  1  0
  6  8  1  0
  8  9  2  0
 19 20  2  0
 19 24  1  0
 20 21  1  0
 21 22  2  0
 22 23  1  0
 23 24  2  0
M  END
>  <minimizedAffinity>  (223) 
-8.80340

$$$$
data/reference_output_2/data/smiles/155726.pdb
     RDKit          3D

 24 26  0  0  0  0  0  0  0  0999 V2000
   68.9388   45.7578   56.1667 C   0  0  0  0  0  0  0  0  0  0  0  0
   68.0121   45.0841   55.7019 O   0  0  0  0  0  0  0  0  0  0  0  0
   69.6768   45.1049   57.2420 N   0  0  0  0  0  0  0  0  0  0  0  0
   69.2346   43.8262   57.5708 N   0  0  0  0  0  0  0  0  0  0  0  0
   69.9061   42.7586   57.2544 C   0  0  0  0  0  0  0  0  0  0  0  0
   69.4544   41.4236   57.5864 C   0  0  0  0  0  0  0  0  0  0  0  0
   68.2440   40.7967   57.4714 C   0  0  0  0  0  0  0  0  0  0  0  0
   67.0473   41.5137   56.9091 C   0  0  0  0  0  0  0  0  0  0  0  0
   68.3347   39.5289   57.9247 N   0  0  0  0  0  0  0  0  0  0  0  0
   69.5990   39.3311   58.3342 C   0  0  0  0  0  0  0  0  0  0  0  0
   70.2189   38.2073   58.8851 C   0  0  0  0  0  0  0  0  0  0  0  0
   71.5582   38.2879   59.2239 C   0  0  0  0  0  0  0  0  0  0  0  0
   72.3039   39.4355   59.0392 C   0  0  0  0  0  0  0  0  0  0  0  0
   71.6574   40.5153   58.4953 C   0  0  0  0  0  0  0  0  0  0  0  0
   70.3286   40.4812   58.1429 C   0  0  0  0  0  0  0  0  0  0  0  0
   69.3064   47.0916   55.7133 C   0  0  0  0  0  0  0  0  0  0  0  0
   68.5141   47.7394   54.6606 C   0  0  0  0  0  0  0  0  0  0  0  0
   67.7110   45.5897   52.2828 C   0  0  0  0  0  0  0  0  0  0  0  0
   68.6816   46.7437   52.2980 C   0  0  0  0  0  0  0  0  0  0  0  0
   69.4324   47.0878   51.2113 N   0  0  0  0  0  0  0  0  0  0  0  0
   70.1398   48.1538   51.4942 N   0  0  0  0  0  0  0  0  0  0  0  0
   69.9052   48.5642   52.7487 C   0  0  0  0  0  0  0  0  0  0  0  0
   70.5188   49.7347   53.4415 C   0  0  0  0  0  0  0  0  0  0  0  0
   68.9644   47.6547   53.2719 C   0  0  0  0  0  0  0  0  0  0  0  0
 18 19  1  0
 19 20  2  0
 19 24  1  0
 20 21  1  0
 21 22  1  0
 22 23  1  0
 22 24  2  0
 24 17  1  0
 17 16  1  0
 16  1  1  0
  1  2  2  0
  1  3  1  0
  3  4  1  0
  4  5  2  0
  5  6  1  0
  6  7  2  0
  6 15  1  0
  7  8  1  0
  7  9  1  0
  9 10  1  0
 10 11  1  0
 10 15  2  0
 11 12  2  0
 12 13  1  0
 13 14  2  0
 14 15  1  0
M  END
>  <minimizedAffinity>  (224) 
-8.80265

$$$$
data/reference_output_2/data/smiles/122238.pdb
     RDKit          3D

 24 27  0  0  0  0  0  0  0  0999 V2000
   74.6115   34.4589   52.0464 N   0  0  0  0  0  0  0  0  0  0  0  0
   74.7361   35.0101   53.2378 C   0  0  0  0  0  0  0  0  0  0  0  0
   75.8950   35.7975   53.5041 C   0  0  0  0  0  0  0  0  0  0  0  0
   76.8329   35.9437   52.5201 C   0  0  0  0  0  0  0  0  0  0  0  0
   76.6891   35.3551   51.2853 C   0  0  0  0  0  0  0  0  0  0  0  0
   77.6584   35.5207   50.2923 C   0  0  0  0  0  0  0  0  0  0  0  0
   77.5273   34.9460   49.0504 C   0  0  0  0  0  0  0  0  0  0  0  0
   78.5741   35.1394   48.0151 C   0  0  0  0  0  0  0  0  0  0  0  0
   76.3945   34.1988   48.8294 C   0  0  0  0  0  0  0  0  0  0  0  0
   75.4143   34.0268   49.8224 C   0  0  0  0  0  0  0  0  0  0  0  0
   75.5572   34.6026   51.0529 C   0  0  0  0  0  0  0  0  0  0  0  0
   72.3974   34.9994   51.1958 C   0  0  0  0  0  0  0  0  0  0  0  0
   73.3780   33.8503   51.6346 C   0  0  0  0  0  0  0  0  0  0  0  0
   73.9141   34.7337   54.4015 C   0  0  0  0  0  0  0  0  0  0  0  0
   73.9127   35.2372   55.5761 C   0  0  0  0  0  0  0  0  0  0  0  0
   73.1227   34.9850   56.7560 C   0  0  0  0  0  0  0  0  0  0  0  0
   72.9596   33.7112   57.3350 C   0  0  0  0  0  0  0  0  0  0  0  0
   72.1990   33.7774   58.4222 N   0  0  0  0  0  0  0  0  0  0  0  0
   71.8267   35.0391   58.6226 C   0  0  0  0  0  0  0  0  0  0  0  0
   71.0522   35.6135   59.6042 C   0  0  0  0  0  0  0  0  0  0  0  0
   70.8159   36.9827   59.5928 C   0  0  0  0  0  0  0  0  0  0  0  0
   71.3781   37.7245   58.5815 C   0  0  0  0  0  0  0  0  0  0  0  0
   72.1674   37.1592   57.5763 C   0  0  0  0  0  0  0  0  0  0  0  0
   72.3904   35.8097   57.5993 C   0  0  0  0  0  0  0  0  0  0  0  0
 12 13  1  0
 13  1  1  0
  1  2  2  0
  1 11  1  0
  2 14  1  0
  2  3  1  0
 14 15  2  0
 15 16  1  0
 16 17  2  0
 16 24  1  0
 17 18  1  0
 18 19  1  0
 19 20  1  0
 19 24  2  0
 20 21  2  0
 21 22  1  0
 22 23  2  0
 23 24  1  0
  3  4  2  0
  4  5  1  0
  5  6  1  0
  5 11  2  0
  6  7  2  0
  7  8  1  0
  7  9  1  0
  9 10  2  0
 10 11  1  0
M  CHG  1   1   1
M  END
>  <minimizedAffinity>  (225) 
-8.79681

$$$$
data/200k_reference_output/data/smiles/71234.pdb
     RDKit          3D

 24 26  0  0  0  0  0  0  0  0999 V2000
   68.9389   46.1023   56.3799 C   0  0  0  0  0  0  0  0  0  0  0  0
   69.9688   46.3992   57.0576 O   0  0  0  0  0  0  0  0  0  0  0  0
   68.5633   44.7434   56.2232 N   0  0  0  0  0  0  0  0  0  0  0  0
   69.3737   43.7935   56.8422 N   0  0  0  0  0  0  0  0  0  0  0  0
   69.0073   42.5839   57.0508 C   0  0  0  0  0  0  0  0  0  0  0  0
   67.6987   42.0649   56.6641 C   0  0  0  0  0  0  0  0  0  0  0  0
   66.7874   42.7081   56.0956 O   0  0  0  0  0  0  0  0  0  0  0  0
   67.7092   40.6888   57.0792 N   0  0  0  0  0  0  0  0  0  0  0  0
   68.9573   40.3997   57.6813 C   0  0  0  0  0  0  0  0  0  0  0  0
   69.4508   39.2346   58.2332 C   0  0  0  0  0  0  0  0  0  0  0  0
   70.7170   39.1359   58.7874 C   0  0  0  0  0  0  0  0  0  0  0  0
   71.5381   40.2690   58.7894 C   0  0  0  0  0  0  0  0  0  0  0  0
   71.0278   41.4220   58.2346 C   0  0  0  0  0  0  0  0  0  0  0  0
   69.7683   41.5081   57.6868 C   0  0  0  0  0  0  0  0  0  0  0  0
   68.1437   47.2170   55.7613 C   0  0  0  0  0  0  0  0  0  0  0  0
   69.9723   49.2572   53.1684 C   0  0  0  0  0  0  0  0  0  0  0  0
   69.3838   48.8382   54.3349 C   0  0  0  0  0  0  0  0  0  0  0  0
   68.7644   47.6210   54.4786 C   0  0  0  0  0  0  0  0  0  0  0  0
   68.7347   46.7825   53.3925 C   0  0  0  0  0  0  0  0  0  0  0  0
   69.3234   47.1725   52.1834 C   0  0  0  0  0  0  0  0  0  0  0  0
   69.9387   48.4039   52.0763 C   0  0  0  0  0  0  0  0  0  0  0  0
   70.5382   48.8288   50.8820 O   0  0  0  0  0  0  0  0  0  0  0  0
   70.0841   51.5541   53.8293 C   0  0  0  0  0  0  0  0  0  0  0  0
   70.5936   50.4912   53.0479 O   0  0  0  0  0  0  0  0  0  0  0  0
 23 24  1  0
 24 16  1  0
 16 17  2  0
 16 21  1  0
 17 18  1  0
 18 15  1  0
 18 19  2  0
 15  1  1  0
  1  2  2  0
  1  3  1  0
  3  4  1  0
  4  5  2  0
  5  6  1  0
  5 14  1  0
  6  7  2  0
  6  8  1  0
  8  9  1  0
  9 10  1  0
  9 14  2  0
 10 11  2  0
 11 12  1  0
 12 13  2  0
 13 14  1  0
 19 20  1  0
 20 21  2  0
 21 22  1  0
M  END
>  <minimizedAffinity>  (226) 
-8.79480

$$$$
data/reference_output_2/data/smiles/198103.pdb
     RDKit          3D

 23 26  0  0  0  0  0  0  0  0999 V2000
   69.3314   49.3706   57.4872 N   0  0  2  0  0  0  0  0  0  0  0  0
   70.4878   49.5999   56.6448 C   0  0  0  0  0  0  0  0  0  0  0  0
   70.3416   49.0376   55.2861 C   0  0  0  0  0  0  0  0  0  0  0  0
   71.1535   49.5339   54.4285 N   0  0  0  0  0  0  0  0  0  0  0  0
   71.3115   49.2510   53.0454 N   0  0  0  0  0  0  0  0  0  0  0  0
   70.3577   48.6194   52.1844 C   0  0  0  0  0  0  0  0  0  0  0  0
   70.3852   48.8688   50.9707 O   0  0  0  0  0  0  0  0  0  0  0  0
   69.3345   47.6865   52.6323 C   0  0  0  0  0  0  0  0  0  0  0  0
   68.7484   46.9751   51.6073 C   0  0  0  0  0  0  0  0  0  0  0  0
   67.7634   46.0517   51.9063 C   0  0  0  0  0  0  0  0  0  0  0  0
   67.1632   45.3298   50.9101 F   0  0  0  0  0  0  0  0  0  0  0  0
   67.3471   45.8183   53.2166 C   0  0  0  0  0  0  0  0  0  0  0  0
   67.9300   46.5276   54.2549 C   0  0  0  0  0  0  0  0  0  0  0  0
   67.7973   46.5815   55.5889 N   0  0  0  0  0  0  0  0  0  0  0  0
   68.6416   47.4879   56.1373 C   0  0  0  0  0  0  0  0  0  0  0  0
   69.3325   48.0179   55.0738 C   0  0  0  0  0  0  0  0  0  0  0  0
   68.8981   47.4298   53.9121 C   0  0  0  0  0  0  0  0  0  0  0  0
   68.9521   47.9847   57.4764 C   0  0  0  0  0  0  0  0  0  0  0  0
   68.2702   50.2898   57.1586 C   0  0  0  0  0  0  0  0  0  0  0  0
   68.5882   51.7294   57.3570 C   0  0  0  0  0  0  0  0  0  0  0  0
   68.3152   52.1192   54.9872 C   0  0  0  0  0  0  0  0  0  0  0  0
   68.7801   52.5655   56.2540 N   0  0  0  0  0  0  0  0  0  0  0  0
   69.9303   53.4146   56.2492 C   0  0  0  0  0  0  0  0  0  0  0  0
 21 22  1  0
 22 23  1  0
 22 20  1  0
 20 19  1  0
  1 19  1  6
  1  2  1  0
  1 18  1  0
  2  3  1  0
  3  4  2  0
  3 16  1  0
  4  5  1  0
  5  6  1  0
  6  7  2  0
  6  8  1  0
  8  9  1  0
  8 17  2  0
  9 10  2  0
 10 11  1  0
 10 12  1  0
 12 13  2  0
 13 14  1  0
 13 17  1  0
 14 15  1  0
 15 16  2  0
 15 18  1  0
 16 17  1  0
M  CHG  2   1   1  22   1
M  END
>  <minimizedAffinity>  (227) 
-8.79434

$$$$
data/reference_output_2/data/smiles/116088.pdb
     RDKit          3D

 23 25  0  0  0  0  0  0  0  0999 V2000
   68.6768   43.5261   56.6967 C   0  0  0  0  0  0  0  0  0  0  0  0
   69.7171   43.9914   57.4059 N   0  0  0  0  0  0  0  0  0  0  0  0
   69.8531   45.2954   57.1904 N   0  0  0  0  0  0  0  0  0  0  0  0
   68.8772   45.6411   56.3316 C   0  0  0  0  0  0  0  0  0  0  0  0
   68.1887   44.5454   56.0575 O   0  0  0  0  0  0  0  0  0  0  0  0
   67.5315   41.7097   55.7326 O   0  0  0  0  0  0  0  0  0  0  0  0
   68.2270   42.1226   56.6890 C   0  0  0  0  0  0  0  0  0  0  0  0
   68.5439   41.2173   57.7149 N   0  0  0  0  0  0  0  0  0  0  0  0
   68.1491   39.8294   57.7908 C   0  0  0  0  0  0  0  0  0  0  0  0
   69.1341   38.9634   58.4700 C   0  0  0  0  0  0  0  0  0  0  0  0
   70.4572   38.9934   58.1406 C   0  0  0  0  0  0  0  0  0  0  0  0
   71.4032   38.1830   58.7806 C   0  0  0  0  0  0  0  0  0  0  0  0
   70.9418   37.3340   59.7759 C   0  0  0  0  0  0  0  0  0  0  0  0
   69.6149   37.2871   60.1223 C   0  0  0  0  0  0  0  0  0  0  0  0
   68.7075   38.1125   59.4589 C   0  0  0  0  0  0  0  0  0  0  0  0
   68.5882   46.9934   55.7666 C   0  0  0  0  0  0  0  0  0  0  0  0
   68.5469   46.8701   54.2906 C   0  0  0  0  0  0  0  0  0  0  0  0
   69.2656   47.7170   53.4797 C   0  0  0  0  0  0  0  0  0  0  0  0
   69.2319   47.6066   52.0945 C   0  0  0  0  0  0  0  0  0  0  0  0
   68.4682   46.6354   51.4795 C   0  0  0  0  0  0  0  0  0  0  0  0
   67.7474   45.7856   52.2876 C   0  0  0  0  0  0  0  0  0  0  0  0
   66.9946   44.8279   51.7050 F   0  0  0  0  0  0  0  0  0  0  0  0
   67.7842   45.8979   53.6606 C   0  0  0  0  0  0  0  0  0  0  0  0
  6  7  2  0
  7  8  1  0
  7  1  1  0
  8  9  1  0
  9 10  1  0
 10 11  2  0
 10 15  1  0
 11 12  1  0
 12 13  2  0
 13 14  1  0
 14 15  2  0
  1  2  2  0
  1  5  1  0
  2  3  1  0
  3  4  2  0
  4 16  1  0
  4  5  1  0
 16 17  1  0
 17 18  2  0
 17 23  1  0
 18 19  1  0
 19 20  2  0
 20 21  1  0
 21 22  1  0
 21 23  2  0
M  END
>  <minimizedAffinity>  (228) 
-8.79396

$$$$
data/reference_output_2/data/smiles/159233.pdb
     RDKit          3D

 25 27  0  0  0  0  0  0  0  0999 V2000
   70.0824   45.4180   57.4766 C   0  0  0  0  0  0  0  0  0  0  0  0
   69.2675   45.5976   56.5180 N   0  0  0  0  0  0  0  0  0  0  0  0
   68.7692   46.8343   56.0232 C   0  0  1  0  0  0  0  0  0  0  0  0
   69.5131   48.0465   56.4879 C   0  0  0  0  0  0  0  0  0  0  0  0
   70.1748   47.8772   57.7859 C   0  0  0  0  0  0  0  0  0  0  0  0
   70.3610   48.8813   58.5111 O   0  0  0  0  0  0  0  0  0  0  0  0
   70.5795   46.5622   58.1626 N   0  0  0  0  0  0  0  0  0  0  0  0
   68.7111   46.8787   54.5387 C   0  0  0  0  0  0  0  0  0  0  0  0
   69.2394   47.9216   53.7970 C   0  0  0  0  0  0  0  0  0  0  0  0
   69.1912   47.9741   52.4187 C   0  0  0  0  0  0  0  0  0  0  0  0
   68.5822   46.9271   51.7423 C   0  0  0  0  0  0  0  0  0  0  0  0
   68.0521   45.8843   52.4490 C   0  0  0  0  0  0  0  0  0  0  0  0
   68.1081   45.8472   53.8202 C   0  0  0  0  0  0  0  0  0  0  0  0
   67.5620   44.7835   54.4531 F   0  0  0  0  0  0  0  0  0  0  0  0
   69.6754   42.9587   57.5704 C   0  0  0  0  0  0  0  0  0  0  0  0
   68.5825   43.1887   56.9817 O   0  0  0  0  0  0  0  0  0  0  0  0
   70.4806   44.0882   57.8447 N   0  0  0  0  0  0  0  0  0  0  0  0
   70.5987   38.9057   58.5840 C   0  0  0  0  0  0  0  0  0  0  0  0
   71.5906   39.8569   58.5197 C   0  0  0  0  0  0  0  0  0  0  0  0
   71.3095   41.1886   58.1901 C   0  0  0  0  0  0  0  0  0  0  0  0
   70.0254   41.5869   57.9190 C   0  0  0  0  0  0  0  0  0  0  0  0
   69.0417   40.6241   57.9879 C   0  0  0  0  0  0  0  0  0  0  0  0
   69.3090   39.3076   58.3122 C   0  0  0  0  0  0  0  0  0  0  0  0
   72.0648   36.9682   58.1173 C   0  0  0  0  0  0  0  0  0  0  0  0
   70.9219   37.4873   58.9391 C   0  0  0  0  0  0  0  0  0  0  0  0
 24 25  1  0
 25 18  1  0
 18 19  2  0
 18 23  1  0
 19 20  1  0
 20 21  2  0
 21 15  1  0
 21 22  1  0
 15 16  2  0
 15 17  1  0
 17  1  1  0
  1  2  2  0
  1  7  1  0
  2  3  1  0
  3  8  1  6
  3  4  1  0
  8  9  2  0
  8 13  1  0
  9 10  1  0
 10 11  2  0
 11 12  1  0
 12 13  2  0
 13 14  1  0
  4  5  1  0
  5  6  2  0
  5  7  1  0
 22 23  2  0
M  CHG  1   2   1
M  END
>  <minimizedAffinity>  (229) 
-8.79376

$$$$
data/200k_reference_output/data/smiles/65716.pdb
     RDKit          3D

 24 26  0  0  0  0  0  0  0  0999 V2000
   73.6668   51.9594   53.4721 O   0  0  0  0  0  0  0  0  0  0  0  0
   72.9807   51.6533   54.5002 C   0  0  0  0  0  0  0  0  0  0  0  0
   73.6906   51.3122   55.6917 N   0  0  0  0  0  0  0  0  0  0  0  0
   75.1151   51.3184   55.7117 N   0  0  0  0  0  0  0  0  0  0  0  0
   75.8501   50.1192   55.8067 C   0  0  0  0  0  0  0  0  0  0  0  0
   75.2252   49.0320   55.8734 O   0  0  0  0  0  0  0  0  0  0  0  0
   77.2989   50.0850   55.8305 C   0  0  0  0  0  0  0  0  0  0  0  0
   78.0650   51.0534   56.4339 C   0  0  0  0  0  0  0  0  0  0  0  0
   79.4666   51.0004   56.4457 C   0  0  0  0  0  0  0  0  0  0  0  0
   80.1399   49.9626   55.8429 C   0  0  0  0  0  0  0  0  0  0  0  0
   79.3742   48.9904   55.2364 C   0  0  0  0  0  0  0  0  0  0  0  0
   77.9990   49.0321   55.2204 C   0  0  0  0  0  0  0  0  0  0  0  0
   71.5025   51.6444   54.4879 C   0  0  0  0  0  0  0  0  0  0  0  0
   70.9367   50.8690   53.4763 O   0  0  0  0  0  0  0  0  0  0  0  0
   70.2162   49.7259   53.7668 C   0  0  0  0  0  0  0  0  0  0  0  0
   69.8844   49.3228   55.0391 C   0  0  0  0  0  0  0  0  0  0  0  0
   69.1583   48.1538   55.2355 C   0  0  0  0  0  0  0  0  0  0  0  0
   68.7749   47.4084   54.1481 C   0  0  0  0  0  0  0  0  0  0  0  0
   68.0494   46.2393   54.3138 C   0  0  0  0  0  0  0  0  0  0  0  0
   67.6608   45.4838   53.2214 C   0  0  0  0  0  0  0  0  0  0  0  0
   67.9985   45.8997   51.9410 C   0  0  0  0  0  0  0  0  0  0  0  0
   68.7158   47.0539   51.7584 C   0  0  0  0  0  0  0  0  0  0  0  0
   69.1029   47.8077   52.8709 C   0  0  0  0  0  0  0  0  0  0  0  0
   69.8216   48.9631   52.6690 C   0  0  0  0  0  0  0  0  0  0  0  0
  1  2  2  0
  2 13  1  0
  2  3  1  0
 13 14  1  0
 14 15  1  0
 15 16  2  0
 15 24  1  0
 16 17  1  0
 17 18  2  0
 18 19  1  0
 18 23  1  0
 19 20  2  0
 20 21  1  0
 21 22  2  0
 22 23  1  0
 23 24  2  0
  3  4  1  0
  4  5  1  0
  5  6  2  0
  5  7  1  0
  7  8  2  0
  7 12  1  0
  8  9  1  0
  9 10  2  0
 10 11  1  0
 11 12  2  0
M  END
>  <minimizedAffinity>  (230) 
-8.79210

$$$$
data/reference_output_2/data/smiles/91808.pdb
     RDKit          3D

 25 27  0  0  0  0  0  0  0  0999 V2000
   71.8913   50.0213   53.9581 O   0  0  0  0  0  0  0  0  0  0  0  0
   70.6146   50.0870   53.9289 C   0  0  0  0  0  0  0  0  0  0  0  0
   70.0852   51.1958   54.6162 N   0  0  0  0  0  0  0  0  0  0  0  0
   69.8718   49.0560   53.2207 C   0  0  0  0  0  0  0  0  0  0  0  0
   69.3334   47.9811   53.9527 C   0  0  0  0  0  0  0  0  0  0  0  0
   68.6182   46.9660   53.3721 C   0  0  0  0  0  0  0  0  0  0  0  0
   68.0884   45.9100   54.0898 C   0  0  0  0  0  0  0  0  0  0  0  0
   67.3729   44.8986   53.4868 C   0  0  0  0  0  0  0  0  0  0  0  0
   67.1884   44.9557   52.1251 C   0  0  0  0  0  0  0  0  0  0  0  0
   66.4742   43.9653   51.4536 O   0  0  0  0  0  0  0  0  0  0  0  0
   67.7122   46.0086   51.3861 C   0  0  0  0  0  0  0  0  0  0  0  0
   68.4376   47.0323   52.0074 C   0  0  0  0  0  0  0  0  0  0  0  0
   68.9323   48.0249   51.3137 O   0  0  0  0  0  0  0  0  0  0  0  0
   69.6320   49.0183   51.8795 C   0  0  0  0  0  0  0  0  0  0  0  0
   70.0551   49.9132   51.1164 O   0  0  0  0  0  0  0  0  0  0  0  0
   70.7739   52.2391   55.2722 C   0  0  0  0  0  0  0  0  0  0  0  0
   70.9894   52.3384   56.6971 C   0  0  0  0  0  0  0  0  0  0  0  0
   70.5575   51.5218   57.7970 C   0  0  0  0  0  0  0  0  0  0  0  0
   69.4034   50.6283   57.7260 C   0  0  0  0  0  0  0  0  0  0  0  0
   68.0886   51.0088   57.7889 C   0  0  0  0  0  0  0  0  0  0  0  0
   67.0068   50.1721   57.6956 C   0  0  0  0  0  0  0  0  0  0  0  0
   67.2525   48.8243   57.5238 C   0  0  0  0  0  0  0  0  0  0  0  0
   68.5632   48.3721   57.4529 C   0  0  0  0  0  0  0  0  0  0  0  0
   68.8087   47.0127   57.2811 O   0  0  0  0  0  0  0  0  0  0  0  0
   69.6069   49.2409   57.5502 C   0  0  0  0  0  0  0  0  0  0  0  0
  1  2  2  0
  2  3  1  0
  2  4  1  0
  3 16  1  0
 16 17  1  0
 17 18  1  0
 18 19  1  0
 19 20  2  0
 19 25  1  0
 20 21  1  0
 21 22  2  0
 22 23  1  0
 23 24  1  0
 23 25  2  0
  4  5  2  0
  4 14  1  0
  5  6  1  0
  6  7  2  0
  6 12  1  0
  7  8  1  0
  8  9  2  0
  9 10  1  0
  9 11  1  0
 11 12  2  0
 12 13  1  0
 13 14  1  0
 14 15  2  0
M  END
>  <minimizedAffinity>  (231) 
-8.79047

$$$$
data/reference_output_2/data/smiles/156944.pdb
     RDKit          3D

 25 28  0  0  0  0  0  0  0  0999 V2000
   67.7896   46.3310   51.9578 C   0  0  0  0  0  0  0  0  0  0  0  0
   68.0951   46.3684   53.4214 C   0  0  0  0  0  0  0  0  0  0  0  0
   68.1213   45.2056   54.1402 C   0  0  0  0  0  0  0  0  0  0  0  0
   68.4097   45.2137   55.5210 C   0  0  0  0  0  0  0  0  0  0  0  0
   68.6443   46.4355   56.0269 N   0  0  0  0  0  0  0  0  0  0  0  0
   68.9459   46.8227   57.2465 N   0  0  0  0  0  0  0  0  0  0  0  0
   69.1082   48.1329   57.3450 C   0  0  0  0  0  0  0  0  0  0  0  0
   68.9011   48.6727   56.0950 C   0  0  0  0  0  0  0  0  0  0  0  0
   68.6096   47.5624   55.2937 C   0  0  0  0  0  0  0  0  0  0  0  0
   68.3381   47.5554   53.9899 N   0  0  0  0  0  0  0  0  0  0  0  0
   68.9772   50.0758   55.7248 C   0  0  0  0  0  0  0  0  0  0  0  0
   69.3718   50.4581   54.4538 C   0  0  0  0  0  0  0  0  0  0  0  0
   69.4506   51.7671   54.0853 C   0  0  0  0  0  0  0  0  0  0  0  0
   69.1222   52.7459   55.0185 C   0  0  0  0  0  0  0  0  0  0  0  0
   68.7278   52.3882   56.2852 C   0  0  0  0  0  0  0  0  0  0  0  0
   68.6510   51.0409   56.6502 C   0  0  0  0  0  0  0  0  0  0  0  0
   68.4449   44.0002   56.1933 N   0  0  0  0  0  0  0  0  0  0  0  0
   67.6183   42.8648   56.1359 C   0  0  0  0  0  0  0  0  0  0  0  0
   67.9778   41.7565   57.0603 C   0  0  0  0  0  0  0  0  0  0  0  0
   68.2183   42.0430   58.4088 C   0  0  0  0  0  0  0  0  0  0  0  0
   68.4737   41.0037   59.2578 C   0  0  0  0  0  0  0  0  0  0  0  0
   68.4962   39.7018   58.8106 C   0  0  0  0  0  0  0  0  0  0  0  0
   68.2511   39.4835   57.4772 C   0  0  0  0  0  0  0  0  0  0  0  0
   67.9916   40.5008   56.6004 N   0  0  0  0  0  0  0  0  0  0  0  0
   67.6944   40.1584   55.2862 O   0  0  0  0  0  0  0  0  0  0  0  0
  1  2  1  0
  2  3  1  0
  2 10  2  0
  3  4  2  0
  4 17  1  0
  4  5  1  0
 17 18  1  0
 18 19  1  0
 19 20  2  0
 19 24  1  0
 20 21  1  0
 21 22  2  0
 22 23  1  0
 23 24  2  0
 24 25  1  0
  5  6  1  0
  5  9  1  0
  6  7  2  0
  7  8  1  0
  8 11  1  0
  8  9  2  0
 11 12  2  0
 11 16  1  0
 12 13  1  0
 13 14  2  0
 14 15  1  0
 15 16  2  0
  9 10  1  0
M  CHG  2  24   1  25  -1
M  END
>  <minimizedAffinity>  (232) 
-8.79013

$$$$
data/reference_output_2/data/smiles/194076.pdb
     RDKit          3D

 25 27  0  0  0  0  0  0  0  0999 V2000
   69.7033   45.5548   57.2518 O   0  0  0  0  0  0  0  0  0  0  0  0
   70.1037   46.4184   58.0651 C   0  0  0  0  0  0  0  0  0  0  0  0
   69.6538   47.7606   57.9478 N   0  0  0  0  0  0  0  0  0  0  0  0
   71.0101   46.0368   59.1014 N   0  0  0  0  0  0  0  0  0  0  0  0
   71.4829   44.6517   59.2342 C   0  0  2  0  0  0  0  0  0  0  0  0
   72.2274   44.2185   57.9748 C   0  0  0  0  0  0  0  0  0  0  0  0
   71.7600   42.7664   57.8018 C   0  0  0  0  0  0  0  0  0  0  0  0
   70.3459   42.9060   58.0561 N   0  0  0  0  0  0  0  0  0  0  0  0
   70.2676   43.7946   59.1645 C   0  0  0  0  0  0  0  0  0  0  0  0
   69.3031   43.8546   59.9826 O   0  0  0  0  0  0  0  0  0  0  0  0
   69.2670   42.2855   57.3472 C   0  0  0  0  0  0  0  0  0  0  0  0
   68.4623   43.0530   56.5315 C   0  0  0  0  0  0  0  0  0  0  0  0
   67.3998   42.4987   55.8218 C   0  0  0  0  0  0  0  0  0  0  0  0
   67.1401   41.1672   55.9299 C   0  0  0  0  0  0  0  0  0  0  0  0
   67.9277   40.3741   56.7400 C   0  0  0  0  0  0  0  0  0  0  0  0
   68.9902   40.9582   57.4410 C   0  0  0  0  0  0  0  0  0  0  0  0
   68.7364   48.2089   56.9203 C   0  0  0  0  0  0  0  0  0  0  0  0
   69.4190   48.6476   55.6608 C   0  0  0  0  0  0  0  0  0  0  0  0
   69.0645   47.7861   54.4857 C   0  0  0  0  0  0  0  0  0  0  0  0
   68.0973   46.7961   54.5959 C   0  0  0  0  0  0  0  0  0  0  0  0
   67.7263   45.9741   53.5562 C   0  0  0  0  0  0  0  0  0  0  0  0
   68.3558   46.1495   52.3406 C   0  0  0  0  0  0  0  0  0  0  0  0
   69.3233   47.1177   52.1752 C   0  0  0  0  0  0  0  0  0  0  0  0
   69.9777   47.3191   50.9538 O   0  0  0  0  0  0  0  0  0  0  0  0
   69.6687   47.9297   53.2544 C   0  0  0  0  0  0  0  0  0  0  0  0
  1  2  2  0
  2  3  1  0
  2  4  1  0
  3 17  1  0
 17 18  1  0
 18 19  1  0
 19 20  2  0
 19 25  1  0
 20 21  1  0
 21 22  2  0
 22 23  1  0
 23 24  1  0
 23 25  2  0
  5  4  1  6
  5  6  1  0
  5  9  1  0
  6  7  1  0
  7  8  1  0
  8 11  1  0
  8  9  1  0
 11 12  2  0
 11 16  1  0
 12 13  1  0
 13 14  2  0
 14 15  1  0
 15 16  2  0
  9 10  2  0
M  END
>  <minimizedAffinity>  (233) 
-8.79004

$$$$
data/reference_output_2/data/smiles/196671.pdb
     RDKit          3D

 22 23  0  0  0  0  0  0  0  0999 V2000
   67.9723   44.2010   55.1431 N   0  0  0  0  0  0  0  0  0  0  0  0
   68.2275   45.4783   55.0603 C   0  0  0  0  0  0  0  0  0  0  0  0
   68.3657   46.2969   56.2383 N   0  0  0  0  0  0  0  0  0  0  0  0
   68.3890   46.1516   53.7868 C   0  0  0  0  0  0  0  0  0  0  0  0
   67.7357   45.6803   52.6735 C   0  0  0  0  0  0  0  0  0  0  0  0
   67.8953   46.3339   51.4468 C   0  0  0  0  0  0  0  0  0  0  0  0
   68.6961   47.4430   51.3332 C   0  0  0  0  0  0  0  0  0  0  0  0
   69.3432   47.8958   52.4760 C   0  0  0  0  0  0  0  0  0  0  0  0
   69.1957   47.2581   53.7038 C   0  0  0  0  0  0  0  0  0  0  0  0
   70.1796   49.0320   52.4205 N   0  0  0  0  0  0  0  0  0  0  0  0
   69.8180   50.0276   51.7779 O   0  0  0  0  0  0  0  0  0  0  0  0
   71.3857   49.0511   53.0668 O   0  0  0  0  0  0  0  0  0  0  0  0
   67.8411   43.6765   56.4063 O   0  0  0  0  0  0  0  0  0  0  0  0
   67.5144   42.3489   56.6401 C   0  0  0  0  0  0  0  0  0  0  0  0
   66.3603   41.9876   56.2812 O   0  0  0  0  0  0  0  0  0  0  0  0
   71.2548   38.7332   59.1081 C   0  0  0  0  0  0  0  0  0  0  0  0
   70.2890   39.6649   58.4721 C   0  0  0  0  0  0  0  0  0  0  0  0
   69.0403   39.2172   58.0845 C   0  0  0  0  0  0  0  0  0  0  0  0
   68.1394   40.0909   57.4891 C   0  0  0  0  0  0  0  0  0  0  0  0
   68.4456   41.4142   57.2640 C   0  0  0  0  0  0  0  0  0  0  0  0
   69.6939   41.8470   57.6545 C   0  0  0  0  0  0  0  0  0  0  0  0
   70.6050   40.9885   58.2496 C   0  0  0  0  0  0  0  0  0  0  0  0
 16 17  1  0
 17 18  2  0
 17 22  1  0
 18 19  1  0
 19 20  2  0
 20 14  1  0
 20 21  1  0
 14 15  2  0
 14 13  1  0
 13  1  1  0
  1  2  2  0
  2  3  1  0
  2  4  1  0
  4  5  2  0
  4  9  1  0
  5  6  1  0
  6  7  2  0
  7  8  1  0
  8 10  1  0
  8  9  2  0
 10 11  2  0
 10 12  1  0
 21 22  2  0
M  CHG  3   1   1  10   1  12  -1
M  END
>  <minimizedAffinity>  (234) 
-8.78520

$$$$
data/reference_output_2/data/smiles/94061.pdb
     RDKit          3D

 25 28  0  0  0  0  0  0  0  0999 V2000
   67.4060   42.3779   56.3593 C   0  0  0  0  0  0  0  0  0  0  0  0
   66.6790   42.0442   55.4005 O   0  0  0  0  0  0  0  0  0  0  0  0
   68.0451   43.6401   56.2974 N   0  0  0  0  0  0  0  0  0  0  0  0
   68.7303   41.4513   58.3925 C   0  0  2  0  0  0  0  0  0  0  0  0
   68.5719   40.3472   57.3700 C   0  0  0  0  0  0  0  0  0  0  0  0
   67.5825   41.4973   57.4926 C   0  0  2  0  0  0  0  0  0  0  0  0
   72.4115   43.6243   58.1503 C   0  0  0  0  0  0  0  0  0  0  0  0
   71.3197   44.2132   58.7198 C   0  0  0  0  0  0  0  0  0  0  0  0
   70.1188   43.5262   58.7995 C   0  0  0  0  0  0  0  0  0  0  0  0
   69.9399   42.2439   58.3294 C   0  0  0  0  0  0  0  0  0  0  0  0
   71.0941   41.6859   57.7531 C   0  0  0  0  0  0  0  0  0  0  0  0
   72.2832   42.3411   57.6626 C   0  0  0  0  0  0  0  0  0  0  0  0
   73.9398   45.5753   58.2580 C   0  0  0  0  0  0  0  0  0  0  0  0
   73.6350   44.2355   58.0324 O   0  0  0  0  0  0  0  0  0  0  0  0
   67.8213   44.4395   55.1523 N   0  0  0  0  0  0  0  0  0  0  0  0
   68.3168   45.7721   55.2315 C   0  0  0  0  0  0  0  0  0  0  0  0
   68.5214   46.3618   56.4281 N   0  0  0  0  0  0  0  0  0  0  0  0
   68.9832   47.5997   56.5232 N   0  0  0  0  0  0  0  0  0  0  0  0
   69.2814   48.3587   55.4554 C   0  0  0  0  0  0  0  0  0  0  0  0
   69.0963   47.8178   54.2022 C   0  0  0  0  0  0  0  0  0  0  0  0
   69.3926   48.5705   53.0893 C   0  0  0  0  0  0  0  0  0  0  0  0
   69.1874   47.9758   51.8661 C   0  0  0  0  0  0  0  0  0  0  0  0
   68.7092   46.6936   51.7606 C   0  0  0  0  0  0  0  0  0  0  0  0
   68.4183   45.9564   52.8750 C   0  0  0  0  0  0  0  0  0  0  0  0
   68.6141   46.5267   54.1185 C   0  0  0  0  0  0  0  0  0  0  0  0
 13 14  1  0
 14  7  1  0
  7  8  2  0
  7 12  1  0
  8  9  1  0
  9 10  2  0
  4 10  1  6
 10 11  1  0
  4  5  1  0
  4  6  1  0
  5  6  1  0
  6  1  1  6
  1  2  2  0
  1  3  1  0
  3 15  1  0
 15 16  1  0
 16 17  2  0
 16 25  1  0
 17 18  1  0
 18 19  2  0
 19 20  1  0
 20 21  1  0
 20 25  2  0
 21 22  2  0
 22 23  1  0
 23 24  2  0
 24 25  1  0
 11 12  2  0
M  END
>  <minimizedAffinity>  (235) 
-8.78388

$$$$
data/reference_output_2/data/smiles/128971.pdb
     RDKit          3D

 25 28  0  0  0  0  0  0  0  0999 V2000
   70.3187   39.9183   58.2309 C   0  0  0  0  0  0  0  0  0  0  0  0
   71.3116   40.8736   58.2965 C   0  0  0  0  0  0  0  0  0  0  0  0
   71.0983   42.2022   57.9670 C   0  0  0  0  0  0  0  0  0  0  0  0
   69.8494   42.6183   57.5521 C   0  0  0  0  0  0  0  0  0  0  0  0
   68.8562   41.6650   57.4855 C   0  0  0  0  0  0  0  0  0  0  0  0
   69.0742   40.3405   57.8154 C   0  0  0  0  0  0  0  0  0  0  0  0
   69.1829   38.4726   60.5942 C   0  0  0  0  0  0  0  0  0  0  0  0
   70.0987   37.8863   59.6481 N   0  0  0  0  0  0  0  0  0  0  0  0
   70.6074   38.5289   58.5925 C   0  0  0  0  0  0  0  0  0  0  0  0
   71.4276   37.6257   57.9520 C   0  0  0  0  0  0  0  0  0  0  0  0
   71.3886   36.4508   58.6506 N   0  0  0  0  0  0  0  0  0  0  0  0
   72.0031   35.2691   58.4471 C   0  0  0  0  0  0  0  0  0  0  0  0
   71.7908   34.2352   59.3083 C   0  0  0  0  0  0  0  0  0  0  0  0
   70.9555   34.3613   60.3940 C   0  0  0  0  0  0  0  0  0  0  0  0
   70.3400   35.5794   60.5784 C   0  0  0  0  0  0  0  0  0  0  0  0
   70.5642   36.6182   59.6999 C   0  0  0  0  0  0  0  0  0  0  0  0
   69.5721   44.0040   57.1938 C   0  0  0  0  0  0  0  0  0  0  0  0
   68.6234   44.3479   56.3929 N   0  0  0  0  0  0  0  0  0  0  0  0
   68.3492   45.6706   56.0428 N   0  0  0  0  0  0  0  0  0  0  0  0
   68.3387   45.9842   54.6506 C   0  0  0  0  0  0  0  0  0  0  0  0
   68.9727   47.0649   54.1582 N   0  0  0  0  0  0  0  0  0  0  0  0
   68.9944   47.4068   52.8593 C   0  0  0  0  0  0  0  0  0  0  0  0
   68.3322   46.6152   51.9485 C   0  0  0  0  0  0  0  0  0  0  0  0
   67.6826   45.5079   52.4490 C   0  0  0  0  0  0  0  0  0  0  0  0
   67.6855   45.2022   53.7581 N   0  0  0  0  0  0  0  0  0  0  0  0
  7  8  1  0
  8  9  1  0
  8 16  2  0
  9  1  1  0
  9 10  2  0
  1  2  2  0
  1  6  1  0
  2  3  1  0
  3  4  2  0
  4 17  1  0
  4  5  1  0
 17 18  2  0
 18 19  1  0
 19 20  1  0
 20 21  2  0
 20 25  1  0
 21 22  1  0
 22 23  2  0
 23 24  1  0
 24 25  2  0
  5  6  2  0
 10 11  1  0
 11 12  1  0
 11 16  1  0
 12 13  2  0
 13 14  1  0
 14 15  2  0
 15 16  1  0
M  CHG  1   8   1
M  END
>  <minimizedAffinity>  (236) 
-8.78354

$$$$
data/200k_reference_output/data/smiles/34122.pdb
     RDKit          3D

 24 26  0  0  0  0  0  0  0  0999 V2000
   70.8925   45.9787   58.4317 O   0  0  0  0  0  0  0  0  0  0  0  0
   70.3670   45.0840   57.7663 C   0  0  0  0  0  0  0  0  0  0  0  0
   69.3204   45.4711   56.8220 N   0  0  0  0  0  0  0  0  0  0  0  0
   70.7641   43.6968   57.9010 C   0  0  0  0  0  0  0  0  0  0  0  0
   72.0624   43.2569   58.0088 C   0  0  0  0  0  0  0  0  0  0  0  0
   72.3141   41.8968   58.1602 C   0  0  0  0  0  0  0  0  0  0  0  0
   71.3198   40.9468   58.2089 C   0  0  0  0  0  0  0  0  0  0  0  0
   71.5643   39.6370   58.3584 N   0  0  0  0  0  0  0  0  0  0  0  0
   70.5687   38.7227   58.4092 C   0  0  0  0  0  0  0  0  0  0  0  0
   69.2469   39.1049   58.3059 C   0  0  0  0  0  0  0  0  0  0  0  0
   69.0031   40.4522   58.1522 C   0  0  0  0  0  0  0  0  0  0  0  0
   70.0096   41.4065   58.0976 C   0  0  0  0  0  0  0  0  0  0  0  0
   69.7419   42.7406   57.9491 C   0  0  0  0  0  0  0  0  0  0  0  0
   68.9449   46.7147   56.6844 N   0  0  0  0  0  0  0  0  0  0  0  0
   68.6676   47.4213   55.7610 C   0  0  0  0  0  0  0  0  0  0  0  0
   68.6113   47.2820   54.3361 C   0  0  0  0  0  0  0  0  0  0  0  0
   67.7756   46.1800   53.9452 C   0  0  0  0  0  0  0  0  0  0  0  0
   67.6896   45.7659   52.6641 C   0  0  0  0  0  0  0  0  0  0  0  0
   68.4080   46.3948   51.6963 C   0  0  0  0  0  0  0  0  0  0  0  0
   69.1911   47.4349   52.0391 C   0  0  0  0  0  0  0  0  0  0  0  0
   69.3062   47.9150   53.3946 C   0  0  0  0  0  0  0  0  0  0  0  0
   70.0895   49.0895   53.4366 N   0  0  0  0  0  0  0  0  0  0  0  0
   69.3894   50.1573   53.5973 O   0  0  0  0  0  0  0  0  0  0  0  0
   71.3912   49.3271   53.2851 O   0  0  0  0  0  0  0  0  0  0  0  0
  1  2  2  0
  2  3  1  0
  2  4  1  0
  3 14  1  0
 14 15  2  0
 15 16  1  0
 16 17  2  0
 16 21  1  0
 17 18  1  0
 18 19  2  0
 19 20  1  0
 20 21  2  0
 21 22  1  0
 22 23  2  0
 22 24  1  0
  4  5  2  0
  4 13  1  0
  5  6  1  0
  6  7  2  0
  7  8  1  0
  7 12  1  0
  8  9  2  0
  9 10  1  0
 10 11  2  0
 11 12  1  0
 12 13  2  0
M  CHG  2  22   1  24  -1
M  END
>  <minimizedAffinity>  (237) 
-8.78201

$$$$
data/reference_output_2/data/smiles/198812.pdb
     RDKit          3D

 26 29  0  0  0  0  0  0  0  0999 V2000
   68.8589   44.7441   56.3767 N   0  0  0  0  0  0  0  0  0  0  0  0
   69.9262   44.2596   57.0840 C   0  0  0  0  0  0  0  0  0  0  0  0
   69.7303   42.9290   57.3772 C   0  0  0  0  0  0  0  0  0  0  0  0
   68.4994   42.6317   56.8153 C   0  0  0  0  0  0  0  0  0  0  0  0
   68.0310   43.7522   56.2344 N   0  0  0  0  0  0  0  0  0  0  0  0
   70.5697   42.0560   58.0998 N   0  0  0  0  0  0  0  0  0  0  0  0
   71.9195   41.7988   57.9408 C   0  0  0  0  0  0  0  0  0  0  0  0
   72.5872   42.3795   57.0679 O   0  0  0  0  0  0  0  0  0  0  0  0
   72.6462   40.8256   58.7995 C   0  0  0  0  0  0  0  0  0  0  0  0
   73.8090   41.0735   59.4341 N   0  0  0  0  0  0  0  0  0  0  0  0
   74.2446   39.9728   60.0123 N   0  0  0  0  0  0  0  0  0  0  0  0
   73.4189   38.9481   59.8036 C   0  0  0  0  0  0  0  0  0  0  0  0
   72.3724   39.5036   59.0153 C   0  0  0  0  0  0  0  0  0  0  0  0
   71.3053   38.5570   58.6382 C   0  0  0  0  0  0  0  0  0  0  0  0
   71.9629   37.3957   57.9104 C   0  0  0  0  0  0  0  0  0  0  0  0
   73.2301   36.9350   58.5981 C   0  0  0  0  0  0  0  0  0  0  0  0
   73.3034   37.4871   60.0530 C   0  0  0  0  0  0  0  0  0  0  0  0
   68.7860   46.1375   55.8924 C   0  0  0  0  0  0  0  0  0  0  0  0
   68.9476   47.3764   52.3303 C   0  0  0  0  0  0  0  0  0  0  0  0
   68.1701   46.5024   51.6260 C   0  0  0  0  0  0  0  0  0  0  0  0
   67.5523   45.4530   52.3569 C   0  0  0  0  0  0  0  0  0  0  0  0
   67.7541   45.3598   53.7109 C   0  0  0  0  0  0  0  0  0  0  0  0
   68.5218   46.2183   54.4312 C   0  0  0  0  0  0  0  0  0  0  0  0
   69.1315   47.2523   53.7065 C   0  0  0  0  0  0  0  0  0  0  0  0
   70.2170   49.4130   51.2851 N   0  0  0  0  0  0  0  0  0  0  0  0
   69.6227   48.4782   51.7612 C   0  0  0  0  0  0  0  0  0  0  0  0
 25 26  3  0
 26 19  1  0
 19 20  2  0
 19 24  1  0
 20 21  1  0
 21 22  2  0
 22 23  1  0
 23 18  1  0
 23 24  2  0
 18  1  1  0
  1  2  1  0
  1  5  1  0
  2  3  2  0
  3  6  1  0
  3  4  1  0
  6  7  1  0
  7  8  2  0
  7  9  1  0
  9 10  2  0
  9 13  1  0
 10 11  1  0
 11 12  1  0
 12 13  2  0
 12 17  1  0
 13 14  1  0
 14 15  1  0
 15 16  1  0
 16 17  1  0
  4  5  2  0
M  END
>  <minimizedAffinity>  (238) 
-8.77885

$$$$
data/200k_reference_output/data/smiles/10957.pdb
     RDKit          3D

 24 26  0  0  0  0  0  0  0  0999 V2000
   69.9374   44.0476   57.2632 C   0  0  0  0  0  0  0  0  0  0  0  0
   68.8474   43.5140   56.7228 N   0  0  0  0  0  0  0  0  0  0  0  0
   68.2210   44.4718   56.0701 N   0  0  0  0  0  0  0  0  0  0  0  0
   68.9325   45.5958   56.2133 C   0  0  0  0  0  0  0  0  0  0  0  0
   69.9666   45.3058   56.9422 O   0  0  0  0  0  0  0  0  0  0  0  0
   71.6326   44.0299   58.9156 O   0  0  0  0  0  0  0  0  0  0  0  0
   70.9610   43.3652   58.0905 C   0  0  0  0  0  0  0  0  0  0  0  0
   71.1749   41.9739   57.9483 N   0  0  0  0  0  0  0  0  0  0  0  0
   72.1469   41.2073   58.7122 C   0  0  0  0  0  0  0  0  0  0  0  0
   71.8325   39.7509   58.7476 C   0  0  0  0  0  0  0  0  0  0  0  0
   72.8806   38.8260   58.8237 C   0  0  0  0  0  0  0  0  0  0  0  0
   72.6354   37.4717   58.8631 C   0  0  0  0  0  0  0  0  0  0  0  0
   71.3258   37.0462   58.8266 C   0  0  0  0  0  0  0  0  0  0  0  0
   71.0609   35.7083   58.8639 F   0  0  0  0  0  0  0  0  0  0  0  0
   70.2658   37.9046   58.7520 C   0  0  0  0  0  0  0  0  0  0  0  0
   70.5431   39.2745   58.7122 C   0  0  0  0  0  0  0  0  0  0  0  0
   68.6479   46.9559   55.6653 C   0  0  0  0  0  0  0  0  0  0  0  0
   68.6097   46.9396   54.1763 C   0  0  0  0  0  0  0  0  0  0  0  0
   69.3948   47.8521   53.5148 C   0  0  0  0  0  0  0  0  0  0  0  0
   69.4170   47.8941   52.1371 C   0  0  0  0  0  0  0  0  0  0  0  0
   68.6574   47.0277   51.3938 C   0  0  0  0  0  0  0  0  0  0  0  0
   67.8725   46.1166   52.0819 C   0  0  0  0  0  0  0  0  0  0  0  0
   67.1083   45.2451   51.3653 F   0  0  0  0  0  0  0  0  0  0  0  0
   67.8431   46.0648   53.4566 C   0  0  0  0  0  0  0  0  0  0  0  0
  6  7  2  0
  7  8  1  0
  7  1  1  0
  8  9  1  0
  9 10  1  0
 10 11  2  0
 10 16  1  0
 11 12  1  0
 12 13  2  0
 13 14  1  0
 13 15  1  0
 15 16  2  0
  1  2  2  0
  1  5  1  0
  2  3  1  0
  3  4  2  0
  4 17  1  0
  4  5  1  0
 17 18  1  0
 18 19  2  0
 18 24  1  0
 19 20  1  0
 20 21  2  0
 21 22  1  0
 22 23  1  0
 22 24  2  0
M  END
>  <minimizedAffinity>  (239) 
-8.77806

$$$$
data/reference_output_2/data/smiles/152197.pdb
     RDKit          3D

 26 29  0  0  0  0  0  0  0  0999 V2000
   68.7061   47.4181   56.7385 C   0  0  0  0  0  0  0  0  0  0  0  0
   71.4345   50.6122   54.2500 C   0  0  0  0  0  0  0  0  0  0  0  0
   70.5133   49.4752   54.2405 N   0  0  0  0  0  0  0  0  0  0  0  0
   70.0170   48.9917   55.3658 N   0  0  0  0  0  0  0  0  0  0  0  0
   69.1820   47.9446   55.4395 C   0  0  0  0  0  0  0  0  0  0  0  0
   68.7742   47.2816   54.2872 C   0  0  0  0  0  0  0  0  0  0  0  0
   67.9240   46.2013   54.2774 C   0  0  0  0  0  0  0  0  0  0  0  0
   67.5621   45.5840   53.0746 C   0  0  0  0  0  0  0  0  0  0  0  0
   68.0584   46.0567   51.8809 C   0  0  0  0  0  0  0  0  0  0  0  0
   68.9056   47.1378   51.9130 C   0  0  0  0  0  0  0  0  0  0  0  0
   69.2790   47.7669   53.0935 C   0  0  0  0  0  0  0  0  0  0  0  0
   70.1369   48.8540   53.1113 C   0  0  0  0  0  0  0  0  0  0  0  0
   70.5977   49.3002   52.0326 O   0  0  0  0  0  0  0  0  0  0  0  0
   69.5931   46.3559   57.2714 C   0  0  0  0  0  0  0  0  0  0  0  0
   70.5837   46.6325   58.0194 O   0  0  0  0  0  0  0  0  0  0  0  0
   69.3579   45.0007   56.9553 N   0  0  0  0  0  0  0  0  0  0  0  0
   70.1156   43.8964   57.4253 C   0  0  0  0  0  0  0  0  0  0  0  0
   71.4634   44.0736   57.7819 C   0  0  0  0  0  0  0  0  0  0  0  0
   72.2378   43.0193   58.2023 C   0  0  0  0  0  0  0  0  0  0  0  0
   71.6613   41.7816   58.2646 C   0  0  0  0  0  0  0  0  0  0  0  0
   70.3303   41.5309   57.9260 C   0  0  0  0  0  0  0  0  0  0  0  0
   69.8304   40.2826   57.9877 N   0  0  0  0  0  0  0  0  0  0  0  0
   68.5542   40.0800   57.6311 C   0  0  0  0  0  0  0  0  0  0  0  0
   67.7941   41.1426   57.2155 C   0  0  0  0  0  0  0  0  0  0  0  0
   68.2837   42.4170   57.1463 C   0  0  0  0  0  0  0  0  0  0  0  0
   69.5940   42.6409   57.5083 C   0  0  0  0  0  0  0  0  0  0  0  0
  2  3  1  0
  3  4  1  0
  3 12  1  0
  4  5  2  0
  5  1  1  0
  5  6  1  0
  1 14  1  0
 14 15  2  0
 14 16  1  0
 16 17  1  0
 17 18  2  0
 17 26  1  0
 18 19  1  0
 19 20  2  0
 20 21  1  0
 21 22  1  0
 21 26  2  0
 22 23  2  0
 23 24  1  0
 24 25  2  0
 25 26  1  0
  6  7  1  0
  6 11  2  0
  7  8  2  0
  8  9  1  0
  9 10  2  0
 10 11  1  0
 11 12  1  0
 12 13  2  0
M  END
>  <minimizedAffinity>  (240) 
-8.77801

$$$$
data/200k_reference_output/data/smiles/3893.pdb
     RDKit          3D

 23 25  0  0  0  0  0  0  0  0999 V2000
   66.9905   43.0584   55.2609 O   0  0  0  0  0  0  0  0  0  0  0  0
   67.7885   42.8988   56.2673 C   0  0  0  0  0  0  0  0  0  0  0  0
   68.5593   44.0741   56.4921 N   0  0  0  0  0  0  0  0  0  0  0  0
   67.8127   41.6650   56.9926 C   0  0  0  0  0  0  0  0  0  0  0  0
   67.8991   41.7300   58.4007 C   0  0  0  0  0  0  0  0  0  0  0  0
   67.9499   40.5741   59.1443 C   0  0  0  0  0  0  0  0  0  0  0  0
   68.0399   40.6123   60.5357 C   0  0  0  0  0  0  0  0  0  0  0  0
   68.0934   39.4499   61.2785 C   0  0  0  0  0  0  0  0  0  0  0  0
   68.0615   38.2020   60.7016 C   0  0  0  0  0  0  0  0  0  0  0  0
   67.9725   38.1495   59.3181 C   0  0  0  0  0  0  0  0  0  0  0  0
   67.9193   39.3231   58.5779 C   0  0  0  0  0  0  0  0  0  0  0  0
   67.8380   39.2917   57.2630 O   0  0  0  0  0  0  0  0  0  0  0  0
   67.7873   40.3885   56.5118 C   0  0  0  0  0  0  0  0  0  0  0  0
   67.7121   40.2052   55.2979 O   0  0  0  0  0  0  0  0  0  0  0  0
   68.5243   45.1952   55.8327 N   0  0  0  0  0  0  0  0  0  0  0  0
   68.3386   46.3005   55.4432 C   0  0  0  0  0  0  0  0  0  0  0  0
   68.7796   46.9975   54.2391 C   0  0  0  0  0  0  0  0  0  0  0  0
   69.4180   48.2248   54.2866 C   0  0  0  0  0  0  0  0  0  0  0  0
   69.8206   48.8873   53.1362 C   0  0  0  0  0  0  0  0  0  0  0  0
   69.5959   48.3402   51.8852 C   0  0  0  0  0  0  0  0  0  0  0  0
   68.9644   47.1236   51.8215 C   0  0  0  0  0  0  0  0  0  0  0  0
   68.5730   46.4827   52.9805 C   0  0  0  0  0  0  0  0  0  0  0  0
   67.9475   45.2758   52.8871 F   0  0  0  0  0  0  0  0  0  0  0  0
  1  2  2  0
  2  3  1  0
  2  4  1  0
  3 15  1  0
 15 16  2  0
 16 17  1  0
 17 18  2  0
 17 22  1  0
 18 19  1  0
 19 20  2  0
 20 21  1  0
 21 22  2  0
 22 23  1  0
  4  5  2  0
  4 13  1  0
  5  6  1  0
  6  7  2  0
  6 11  1  0
  7  8  1  0
  8  9  2  0
  9 10  1  0
 10 11  2  0
 11 12  1  0
 12 13  1  0
 13 14  2  0
M  END
>  <minimizedAffinity>  (241) 
-8.77727

$$$$
data/200k_reference_output/data/smiles/30636.pdb
     RDKit          3D

 25 29  0  0  0  0  0  0  0  0999 V2000
   68.1062   46.8221   56.4802 O   0  0  0  0  0  0  0  0  0  0  0  0
   68.6805   47.4815   55.5772 C   0  0  0  0  0  0  0  0  0  0  0  0
   68.5889   47.1595   54.2409 C   0  0  0  0  0  0  0  0  0  0  0  0
   67.8450   46.0734   53.8396 C   0  0  0  0  0  0  0  0  0  0  0  0
   67.7596   45.7562   52.4799 C   0  0  0  0  0  0  0  0  0  0  0  0
   68.4312   46.5521   51.5835 C   0  0  0  0  0  0  0  0  0  0  0  0
   69.1624   47.6240   52.0123 C   0  0  0  0  0  0  0  0  0  0  0  0
   69.2581   47.9533   53.3597 C   0  0  0  0  0  0  0  0  0  0  0  0
   70.0048   49.0412   53.7498 C   0  0  0  0  0  0  0  0  0  0  0  0
   70.5573   49.6693   52.8307 O   0  0  0  0  0  0  0  0  0  0  0  0
   70.1193   49.4010   55.1256 C   0  0  0  0  0  0  0  0  0  0  0  0
   69.4175   48.5493   55.9196 C   0  0  0  0  0  0  0  0  0  0  0  0
   69.7253   49.2207   57.5992 S   0  0  0  0  0  0  0  0  0  0  0  0
   70.7846   50.5971   57.0167 C   0  0  0  0  0  0  0  0  0  0  0  0
   71.4081   51.5655   57.7522 C   0  0  0  0  0  0  0  0  0  0  0  0
   71.3008   51.5999   58.9960 O   0  0  0  0  0  0  0  0  0  0  0  0
   72.1717   52.5199   57.0828 C   0  0  0  0  0  0  0  0  0  0  0  0
   72.8300   53.5246   57.7398 C   0  0  0  0  0  0  0  0  0  0  0  0
   73.5875   54.4658   57.0268 C   0  0  0  0  0  0  0  0  0  0  0  0
   73.6564   54.3625   55.6754 C   0  0  0  0  0  0  0  0  0  0  0  0
   72.9945   53.3533   55.0235 C   0  0  0  0  0  0  0  0  0  0  0  0
   72.2298   52.4024   55.7305 C   0  0  0  0  0  0  0  0  0  0  0  0
   71.5916   51.4177   55.0165 C   0  0  0  0  0  0  0  0  0  0  0  0
   71.7498   51.4544   53.7804 O   0  0  0  0  0  0  0  0  0  0  0  0
   70.8076   50.4304   55.6675 C   0  0  0  0  0  0  0  0  0  0  0  0
  1  2  2  0
  2  3  1  0
  2 12  1  0
  3  4  2  0
  3  8  1  0
  4  5  1  0
  5  6  2  0
  6  7  1  0
  7  8  2  0
  8  9  1  0
  9 10  2  0
  9 11  1  0
 11 12  2  0
 11 25  1  0
 12 13  1  0
 13 14  1  0
 14 15  1  0
 14 25  2  0
 15 16  2  0
 15 17  1  0
 17 18  1  0
 17 22  2  0
 18 19  2  0
 19 20  1  0
 20 21  2  0
 21 22  1  0
 22 23  1  0
 23 24  2  0
 23 25  1  0
M  END
>  <minimizedAffinity>  (242) 
-8.77359

$$$$
data/200k_reference_output/data/smiles/69980.pdb
     RDKit          3D

 27 32  0  0  0  0  0  0  0  0999 V2000
   73.8607   42.9490   58.1100 C   0  0  0  0  0  0  0  0  0  0  0  0
   74.1047   41.7744   58.7724 C   0  0  0  0  0  0  0  0  0  0  0  0
   73.1097   40.8042   58.9734 C   0  0  0  0  0  0  0  0  0  0  0  0
   71.8480   41.0118   58.5038 C   0  0  0  0  0  0  0  0  0  0  0  0
   71.6094   42.2117   57.8294 C   0  0  0  0  0  0  0  0  0  0  0  0
   72.5898   43.1590   57.6364 C   0  0  0  0  0  0  0  0  0  0  0  0
   70.2030   42.1534   57.4383 C   0  0  0  0  0  0  0  0  0  0  0  0
   69.3499   42.9598   56.7695 N   0  0  0  0  0  0  0  0  0  0  0  0
   68.0548   42.5810   56.5632 C   0  0  0  0  0  0  0  0  0  0  0  0
   67.5290   41.3854   57.0046 C   0  0  0  0  0  0  0  0  0  0  0  0
   68.4044   40.5485   57.6950 C   0  0  0  0  0  0  0  0  0  0  0  0
   68.0580   39.3166   58.2029 C   0  0  0  0  0  0  0  0  0  0  0  0
   69.0271   38.5730   58.8698 C   0  0  0  0  0  0  0  0  0  0  0  0
   70.3068   39.0117   59.0443 N   0  0  0  0  0  0  0  0  0  0  0  0
   70.6289   40.2119   58.5429 C   0  0  0  0  0  0  0  0  0  0  0  0
   69.6807   40.9690   57.8749 C   0  0  0  0  0  0  0  0  0  0  0  0
   71.2112   38.1876   59.7939 C   0  0  0  0  0  0  0  0  0  0  0  0
   71.6678   36.9823   59.0246 C   0  0  0  0  0  0  0  0  0  0  0  0
   71.5973   35.7264   59.6601 C   0  0  0  0  0  0  0  0  0  0  0  0
   71.9955   34.5737   59.0297 C   0  0  0  0  0  0  0  0  0  0  0  0
   72.4837   34.5853   57.7431 C   0  0  0  0  0  0  0  0  0  0  0  0
   72.8845   33.4189   57.1100 C   0  0  0  0  0  0  0  0  0  0  0  0
   73.3728   33.4377   55.8217 C   0  0  0  0  0  0  0  0  0  0  0  0
   73.4497   34.6568   55.1840 C   0  0  0  0  0  0  0  0  0  0  0  0
   73.0444   35.8340   55.8236 C   0  0  0  0  0  0  0  0  0  0  0  0
   72.5578   35.8020   57.1128 C   0  0  0  0  0  0  0  0  0  0  0  0
   72.1521   36.9825   57.7529 C   0  0  0  0  0  0  0  0  0  0  0  0
  1  2  2  0
  1  6  1  0
  2  3  1  0
  3  4  2  0
  4  5  1  0
  4 15  1  0
  5  6  2  0
  5  7  1  0
  7  8  2  0
  7 16  1  0
  8  9  1  0
  9 10  2  0
 10 11  1  0
 11 12  1  0
 11 16  2  0
 12 13  2  0
 13 14  1  0
 14 17  1  0
 14 15  2  0
 17 18  1  0
 18 19  2  0
 18 27  1  0
 19 20  1  0
 20 21  2  0
 21 22  1  0
 21 26  1  0
 22 23  2  0
 23 24  1  0
 24 25  2  0
 25 26  1  0
 26 27  2  0
 15 16  1  0
M  CHG  1  14   1
M  END
>  <minimizedAffinity>  (243) 
-8.77047

$$$$
data/reference_output_2/data/smiles/138222.pdb
     RDKit          3D

 23 25  0  0  0  0  0  0  0  0999 V2000
   69.2920   48.8173   56.2896 C   0  0  0  0  0  0  0  0  0  0  0  0
   69.6483   48.6385   54.8572 C   0  0  0  0  0  0  0  0  0  0  0  0
   70.6864   49.3551   54.3234 N   0  0  0  0  0  0  0  0  0  0  0  0
   71.0398   49.2745   53.0617 N   0  0  0  0  0  0  0  0  0  0  0  0
   70.3580   48.4568   52.2528 C   0  0  0  0  0  0  0  0  0  0  0  0
   70.6914   48.3765   51.0448 O   0  0  0  0  0  0  0  0  0  0  0  0
   69.2790   47.6903   52.7329 C   0  0  0  0  0  0  0  0  0  0  0  0
   68.9256   47.7878   54.0602 C   0  0  0  0  0  0  0  0  0  0  0  0
   67.8260   46.9733   54.5872 C   0  0  0  0  0  0  0  0  0  0  0  0
   67.9445   45.6133   53.8832 C   0  0  0  0  0  0  0  0  0  0  0  0
   67.8129   45.7461   52.4083 C   0  0  0  0  0  0  0  0  0  0  0  0
   68.5738   46.8341   51.7594 C   0  0  0  0  0  0  0  0  0  0  0  0
   70.7465   45.7960   58.0289 C   0  0  0  0  0  0  0  0  0  0  0  0
   71.8064   46.3532   58.6976 C   0  0  0  0  0  0  0  0  0  0  0  0
   72.0577   47.7066   58.5983 C   0  0  0  0  0  0  0  0  0  0  0  0
   71.2318   48.4822   57.8215 C   0  0  0  0  0  0  0  0  0  0  0  0
   70.1480   47.9321   57.1336 C   0  0  0  0  0  0  0  0  0  0  0  0
   69.9165   46.5891   57.2454 C   0  0  0  0  0  0  0  0  0  0  0  0
   70.4765   44.3415   58.1422 C   0  0  0  0  0  0  0  0  0  0  0  0
   69.2747   43.9711   57.4709 N   0  0  0  0  0  0  0  0  0  0  0  0
   67.7832   42.1714   56.6819 C   0  0  0  0  0  0  0  0  0  0  0  0
   69.1809   42.6329   57.0039 C   0  0  0  0  0  0  0  0  0  0  0  0
   69.7014   41.7243   58.1136 C   0  0  0  0  0  0  0  0  0  0  0  0
 21 22  1  0
 22 23  1  0
 22 20  1  0
 20 19  1  0
 19 13  1  0
 13 14  2  0
 13 18  1  0
 14 15  1  0
 15 16  2  0
 16 17  1  0
 17  1  1  0
 17 18  2  0
  1  2  1  0
  2  3  2  0
  2  8  1  0
  3  4  1  0
  4  5  1  0
  5  6  2  0
  5  7  1  0
  7  8  2  0
  7 12  1  0
  8  9  1  0
  9 10  1  0
 10 11  1  0
 11 12  1  0
M  CHG  1  20   1
M  END
>  <minimizedAffinity>  (244) 
-8.76996

$$$$
data/reference_output_2/data/smiles/162343.pdb
     RDKit          3D

 24 26  0  0  0  0  0  0  0  0999 V2000
   72.2682   51.1167   54.8467 C   0  0  2  0  0  0  0  0  0  0  0  0
   70.2875   50.9342   52.8843 O   0  0  0  0  0  0  0  0  0  0  0  0
   70.5316   49.8568   53.5334 C   0  0  0  0  0  0  0  0  0  0  0  0
   71.5356   49.9211   54.5369 N   0  0  0  0  0  0  0  0  0  0  0  0
   69.7977   48.6541   53.2273 C   0  0  0  0  0  0  0  0  0  0  0  0
   69.8038   48.0664   51.9894 C   0  0  0  0  0  0  0  0  0  0  0  0
   69.0840   46.8992   51.7289 C   0  0  0  0  0  0  0  0  0  0  0  0
   68.3453   46.3198   52.7440 C   0  0  0  0  0  0  0  0  0  0  0  0
   68.3268   46.8980   53.9985 C   0  0  0  0  0  0  0  0  0  0  0  0
   67.6157   46.3620   55.0234 F   0  0  0  0  0  0  0  0  0  0  0  0
   69.0559   48.0593   54.2215 C   0  0  0  0  0  0  0  0  0  0  0  0
   73.7243   50.9554   54.6239 C   0  0  0  0  0  0  0  0  0  0  0  0
   74.1560   50.2682   53.6738 O   0  0  0  0  0  0  0  0  0  0  0  0
   74.6314   51.5700   55.4728 O   0  0  0  0  0  0  0  0  0  0  0  0
   72.0371   51.4922   56.2935 C   0  0  0  0  0  0  0  0  0  0  0  0
   70.6146   51.8324   56.5452 C   0  0  0  0  0  0  0  0  0  0  0  0
   70.0588   53.0953   56.3637 C   0  0  0  0  0  0  0  0  0  0  0  0
   68.7567   53.0602   56.6429 N   0  0  0  0  0  0  0  0  0  0  0  0
   68.4212   51.8078   57.0088 C   0  0  0  0  0  0  0  0  0  0  0  0
   67.1998   51.2463   57.4029 C   0  0  0  0  0  0  0  0  0  0  0  0
   67.1363   49.9246   57.7377 C   0  0  0  0  0  0  0  0  0  0  0  0
   68.2729   49.1371   57.6900 C   0  0  0  0  0  0  0  0  0  0  0  0
   69.4643   49.7176   57.2961 C   0  0  0  0  0  0  0  0  0  0  0  0
   69.5645   51.0435   56.9516 C   0  0  0  0  0  0  0  0  0  0  0  0
  2  3  2  0
  3  4  1  0
  3  5  1  0
  4  1  1  0
  1 15  1  1
  1 12  1  0
 15 16  1  0
 16 17  2  0
 16 24  1  0
 17 18  1  0
 18 19  1  0
 19 20  1  0
 19 24  2  0
 20 21  2  0
 21 22  1  0
 22 23  2  0
 23 24  1  0
 12 13  2  0
 12 14  1  0
  5  6  2  0
  5 11  1  0
  6  7  1  0
  7  8  2  0
  8  9  1  0
  9 10  1  0
  9 11  2  0
M  END
>  <minimizedAffinity>  (245) 
-8.76875

$$$$
data/reference_output_2/data/smiles/141556.pdb
     RDKit          3D

 26 29  0  0  0  0  0  0  0  0999 V2000
   70.3271   46.1268   58.0623 C   0  0  0  0  0  0  0  0  0  0  0  0
   69.5841   45.2135   57.7094 O   0  0  0  0  0  0  0  0  0  0  0  0
   69.9150   47.4124   57.5127 N   0  0  0  0  0  0  0  0  0  0  0  0
   72.7742   47.8849   61.8547 N   0  0  0  0  0  0  0  0  0  0  0  0
   72.6583   46.9768   60.7735 C   0  0  0  0  0  0  0  0  0  0  0  0
   71.6014   46.9678   59.9541 N   0  0  0  0  0  0  0  0  0  0  0  0
   71.5007   46.0845   58.9140 C   0  0  0  0  0  0  0  0  0  0  0  0
   72.5302   45.2076   58.7454 C   0  0  0  0  0  0  0  0  0  0  0  0
   72.5400   44.2761   57.7366 C   0  0  0  0  0  0  0  0  0  0  0  0
   73.5887   43.3860   57.5717 C   0  0  0  0  0  0  0  0  0  0  0  0
   73.5472   42.4799   56.5520 F   0  0  0  0  0  0  0  0  0  0  0  0
   74.6728   43.3972   58.4125 C   0  0  0  0  0  0  0  0  0  0  0  0
   74.6846   44.3197   59.4276 C   0  0  0  0  0  0  0  0  0  0  0  0
   73.6443   45.1959   59.5861 C   0  0  0  0  0  0  0  0  0  0  0  0
   73.6571   46.0997   60.5809 N   0  0  0  0  0  0  0  0  0  0  0  0
   68.7607   47.5007   56.6665 C   0  0  0  0  0  0  0  0  0  0  0  0
   69.1971   47.9656   55.3325 C   0  0  0  0  0  0  0  0  0  0  0  0
   70.0141   49.0804   55.1776 C   0  0  0  0  0  0  0  0  0  0  0  0
   70.4242   49.5158   53.9410 C   0  0  0  0  0  0  0  0  0  0  0  0
   70.0379   48.8593   52.8005 C   0  0  0  0  0  0  0  0  0  0  0  0
   69.2196   47.7421   52.9449 C   0  0  0  0  0  0  0  0  0  0  0  0
   68.7993   47.0420   51.8391 C   0  0  0  0  0  0  0  0  0  0  0  0
   67.9889   45.9323   51.9561 C   0  0  0  0  0  0  0  0  0  0  0  0
   67.5857   45.5076   53.2118 C   0  0  0  0  0  0  0  0  0  0  0  0
   68.0040   46.2023   54.2830 N   0  0  0  0  0  0  0  0  0  0  0  0
   68.8041   47.2994   54.1915 C   0  0  0  0  0  0  0  0  0  0  0  0
  4  5  1  0
  5  6  2  0
  5 15  1  0
  6  7  1  0
  7  1  1  0
  7  8  2  0
  1  2  2  0
  1  3  1  0
  3 16  1  0
 16 17  1  0
 17 18  2  0
 17 26  1  0
 18 19  1  0
 19 20  2  0
 20 21  1  0
 21 22  1  0
 21 26  2  0
 22 23  2  0
 23 24  1  0
 24 25  2  0
 25 26  1  0
  8  9  1  0
  8 14  1  0
  9 10  2  0
 10 11  1  0
 10 12  1  0
 12 13  2  0
 13 14  1  0
 14 15  2  0
M  END
>  <minimizedAffinity>  (246) 
-8.76750

$$$$
data/reference_output_2/data/smiles/180775.pdb
     RDKit          3D

 23 24  0  0  0  0  0  0  0  0999 V2000
   67.9719   43.4914   55.9463 C   0  0  0  0  0  0  0  0  0  0  0  0
   68.9011   43.9139   56.6876 O   0  0  0  0  0  0  0  0  0  0  0  0
   67.5753   44.2591   54.8388 N   0  0  0  0  0  0  0  0  0  0  0  0
   68.1105   45.5038   54.4449 C   0  0  0  0  0  0  0  0  0  0  0  0
   68.6824   46.4487   55.2307 C   0  0  0  0  0  0  0  0  0  0  0  0
   69.2170   47.6287   54.7371 C   0  0  0  0  0  0  0  0  0  0  0  0
   69.1964   47.9077   53.4000 C   0  0  0  0  0  0  0  0  0  0  0  0
   68.6192   46.9658   52.5734 C   0  0  0  0  0  0  0  0  0  0  0  0
   68.0892   45.7957   53.0713 C   0  0  0  0  0  0  0  0  0  0  0  0
   67.5309   44.8987   52.2129 F   0  0  0  0  0  0  0  0  0  0  0  0
   69.8954   49.3800   52.7613 S   0  0  0  0  0  0  0  0  0  0  0  0
   69.7960   49.5327   51.0788 N   0  0  0  0  0  0  0  0  0  0  0  0
   69.2080   50.5835   53.3853 O   0  0  0  0  0  0  0  0  0  0  0  0
   71.3349   49.4556   53.2767 O   0  0  0  0  0  0  0  0  0  0  0  0
   67.3020   42.1719   56.2552 C   0  0  0  0  0  0  0  0  0  0  0  0
   70.0569   39.8181   58.4815 C   0  0  0  0  0  0  0  0  0  0  0  0
   70.3842   41.1118   58.1835 C   0  0  0  0  0  0  0  0  0  0  0  0
   69.4732   41.8550   57.4539 C   0  0  0  0  0  0  0  0  0  0  0  0
   68.2769   41.3770   57.0198 C   0  0  0  0  0  0  0  0  0  0  0  0
   67.9723   40.0537   57.3410 C   0  0  0  0  0  0  0  0  0  0  0  0
   68.8591   39.2810   58.0668 C   0  0  0  0  0  0  0  0  0  0  0  0
   72.1251   38.4692   58.7432 C   0  0  0  0  0  0  0  0  0  0  0  0
   70.9335   39.0419   59.2045 O   0  0  0  0  0  0  0  0  0  0  0  0
 22 23  1  0
 23 16  1  0
 16 17  2  0
 16 21  1  0
 17 18  1  0
 18 19  2  0
 19 15  1  0
 19 20  1  0
 15  1  1  0
  1  2  2  0
  1  3  1  0
  3  4  1  0
  4  5  2  0
  4  9  1  0
  5  6  1  0
  6  7  2  0
  7 11  1  0
  7  8  1  0
 11 12  1  0
 11 13  2  0
 11 14  2  0
  8  9  2  0
  9 10  1  0
 20 21  2  0
M  END
>  <minimizedAffinity>  (247) 
-8.76728

$$$$
data/200k_reference_output/data/smiles/5271.pdb
     RDKit          3D

 24 25  0  0  0  0  0  0  0  0999 V2000
   68.1946   42.7500   56.6051 C   0  0  0  0  0  0  0  0  0  0  0  0
   67.0981   42.7721   55.9664 O   0  0  0  0  0  0  0  0  0  0  0  0
   68.9055   43.9598   56.6552 N   0  0  0  0  0  0  0  0  0  0  0  0
   69.5661   39.1400   58.4739 C   0  0  0  0  0  0  0  0  0  0  0  0
   68.3731   39.1792   57.8193 C   0  0  0  0  0  0  0  0  0  0  0  0
   67.9077   40.3546   57.2015 C   0  0  0  0  0  0  0  0  0  0  0  0
   68.6345   41.5153   57.2281 C   0  0  0  0  0  0  0  0  0  0  0  0
   69.8347   41.4443   57.8972 C   0  0  0  0  0  0  0  0  0  0  0  0
   70.3046   40.3265   58.4998 C   0  0  0  0  0  0  0  0  0  0  0  0
   71.2117   37.2344   58.7137 C   0  0  0  0  0  0  0  0  0  0  0  0
   71.8559   37.5162   57.6890 O   0  0  0  0  0  0  0  0  0  0  0  0
   70.1023   37.9961   59.1207 N   0  0  0  0  0  0  0  0  0  0  0  0
   72.0830   34.9237   58.5709 C   0  0  0  0  0  0  0  0  0  0  0  0
   71.6693   36.0359   59.5057 C   0  0  0  0  0  0  0  0  0  0  0  0
   68.4568   45.1466   56.0419 N   0  0  0  0  0  0  0  0  0  0  0  0
   69.0382   46.4047   56.2979 C   0  0  0  0  0  0  0  0  0  0  0  0
   69.9994   46.4293   57.1174 O   0  0  0  0  0  0  0  0  0  0  0  0
   68.5981   47.6736   55.6770 C   0  0  0  0  0  0  0  0  0  0  0  0
   68.9768   47.7958   54.2689 C   0  0  0  0  0  0  0  0  0  0  0  0
   68.5374   46.9152   53.2909 C   0  0  0  0  0  0  0  0  0  0  0  0
   68.9146   47.0593   51.9702 C   0  0  0  0  0  0  0  0  0  0  0  0
   69.7438   48.0853   51.5737 C   0  0  0  0  0  0  0  0  0  0  0  0
   70.1905   48.9677   52.5234 C   0  0  0  0  0  0  0  0  0  0  0  0
   69.8062   48.8134   53.8441 C   0  0  0  0  0  0  0  0  0  0  0  0
 13 14  1  0
 14 10  1  0
 10 11  2  0
 10 12  1  0
 12  4  1  0
  4  5  2  0
  4  9  1  0
  5  6  1  0
  6  7  2  0
  7  1  1  0
  7  8  1  0
  1  2  2  0
  1  3  1  0
  3 15  1  0
 15 16  1  0
 16 17  2  0
 16 18  1  0
 18 19  1  0
 19 20  2  0
 19 24  1  0
 20 21  1  0
 21 22  2  0
 22 23  1  0
 23 24  2  0
  8  9  2  0
M  END
>  <minimizedAffinity>  (248) 
-8.76676

$$$$
data/reference_output_2/data/smiles/109850.pdb
     RDKit          3D

 23 24  0  0  0  0  0  0  0  0999 V2000
   69.5441   51.1365   54.7589 C   0  0  0  0  0  0  0  0  0  0  0  0
   69.0189   52.2636   55.4281 C   0  0  0  0  0  0  0  0  0  0  0  0
   68.3268   52.1116   56.6060 C   0  0  0  0  0  0  0  0  0  0  0  0
   68.1514   50.8573   57.1202 C   0  0  0  0  0  0  0  0  0  0  0  0
   68.6654   49.7720   56.4589 C   0  0  0  0  0  0  0  0  0  0  0  0
   69.3738   49.8828   55.2609 C   0  0  0  0  0  0  0  0  0  0  0  0
   70.3294   51.3824   53.5561 C   0  0  0  0  0  0  0  0  0  0  0  0
   69.8998   51.0281   52.4127 O   0  0  0  0  0  0  0  0  0  0  0  0
   71.5583   52.0039   53.5934 O   0  0  0  0  0  0  0  0  0  0  0  0
   72.3290   52.1038   54.7413 C   0  0  0  0  0  0  0  0  0  0  0  0
   76.7095   50.3775   56.5139 N   0  0  0  0  0  0  0  0  0  0  0  0
   75.6519   50.2924   55.5629 C   0  0  0  0  0  0  0  0  0  0  0  0
   75.6328   49.4369   54.6413 O   0  0  0  0  0  0  0  0  0  0  0  0
   74.5586   51.2270   55.6599 N   0  0  0  0  0  0  0  0  0  0  0  0
   73.4823   51.1828   54.7364 C   0  0  0  0  0  0  0  0  0  0  0  0
   73.5170   50.2689   53.8331 O   0  0  0  0  0  0  0  0  0  0  0  0
   69.8375   48.7582   54.6876 O   0  0  0  0  0  0  0  0  0  0  0  0
   69.2383   47.8454   53.8798 C   0  0  0  0  0  0  0  0  0  0  0  0
   69.2924   47.7987   52.4991 C   0  0  0  0  0  0  0  0  0  0  0  0
   68.6387   46.8176   51.7864 C   0  0  0  0  0  0  0  0  0  0  0  0
   67.9017   45.8393   52.4171 C   0  0  0  0  0  0  0  0  0  0  0  0
   67.8323   45.8642   53.7907 C   0  0  0  0  0  0  0  0  0  0  0  0
   68.4861   46.8431   54.4870 C   0  0  0  0  0  0  0  0  0  0  0  0
 11 12  1  0
 12 13  2  0
 12 14  1  0
 14 15  1  0
 15 16  2  0
 15 10  1  0
 10  9  1  0
  9  7  1  0
  7  8  2  0
  7  1  1  0
  1  2  2  0
  1  6  1  0
  2  3  1  0
  3  4  2  0
  4  5  1  0
  5  6  2  0
  6 17  1  0
 17 18  1  0
 18 19  2  0
 18 23  1  0
 19 20  1  0
 20 21  2  0
 21 22  1  0
 22 23  2  0
M  END
>  <minimizedAffinity>  (249) 
-8.76476

$$$$
data/200k_reference_output/data/smiles/65978.pdb
     RDKit          3D

 26 30  0  0  0  0  0  0  0  0999 V2000
   69.7244   52.5234   56.5048 C   0  0  0  0  0  0  0  0  0  0  0  0
   69.0432   51.9627   57.5939 C   0  0  0  0  0  0  0  0  0  0  0  0
   68.5574   50.6755   57.5349 C   0  0  0  0  0  0  0  0  0  0  0  0
   68.7163   49.8865   56.4173 C   0  0  0  0  0  0  0  0  0  0  0  0
   69.3837   50.4141   55.3319 C   0  0  0  0  0  0  0  0  0  0  0  0
   69.8688   51.7099   55.4004 C   0  0  0  0  0  0  0  0  0  0  0  0
   69.5461   49.5756   54.1608 C   0  0  0  0  0  0  0  0  0  0  0  0
   70.1945   50.0717   53.0906 N   0  0  0  0  0  0  0  0  0  0  0  0
   70.3504   49.3187   52.0153 N   0  0  0  0  0  0  0  0  0  0  0  0
   69.8881   48.0561   51.9236 C   0  0  0  0  0  0  0  0  0  0  0  0
   70.0598   47.3715   50.8729 O   0  0  0  0  0  0  0  0  0  0  0  0
   69.2159   47.4925   52.9854 C   0  0  0  0  0  0  0  0  0  0  0  0
   68.7380   46.2048   52.9090 C   0  0  0  0  0  0  0  0  0  0  0  0
   68.0769   45.7115   54.0114 C   0  0  0  0  0  0  0  0  0  0  0  0
   67.9059   46.4994   55.1561 C   0  0  0  0  0  0  0  0  0  0  0  0
   68.3886   47.7932   55.2294 C   0  0  0  0  0  0  0  0  0  0  0  0
   69.0521   48.2780   54.1114 C   0  0  0  0  0  0  0  0  0  0  0  0
   68.2214   48.5781   56.3616 O   0  0  0  0  0  0  0  0  0  0  0  0
   70.2425   53.8913   56.5539 C   0  0  0  0  0  0  0  0  0  0  0  0
   74.5658   53.4210   54.7067 O   0  0  0  0  0  0  0  0  0  0  0  0
   73.8003   53.7812   55.6451 C   0  0  0  0  0  0  0  0  0  0  0  0
   72.3454   53.5452   55.4522 C   0  0  0  0  0  0  0  0  0  0  0  0
   71.6586   53.9940   56.6201 N   0  0  2  0  0  0  0  0  0  0  0  0
   72.2894   53.4884   57.7900 C   0  0  0  0  0  0  0  0  0  0  0  0
   73.5140   54.3724   58.0694 C   0  0  0  0  0  0  0  0  0  0  0  0
   74.2866   54.3883   56.8419 N   0  0  0  0  0  0  0  0  0  0  0  0
 20 21  2  0
 21 22  1  0
 21 26  1  0
 22 23  1  0
 23 19  1  6
 23 24  1  0
 19  1  1  0
  1  2  2  0
  1  6  1  0
  2  3  1  0
  3  4  2  0
  4  5  1  0
  4 18  1  0
  5  6  2  0
  5  7  1  0
  7  8  2  0
  7 17  1  0
  8  9  1  0
  9 10  1  0
 10 11  2  0
 10 12  1  0
 12 13  1  0
 12 17  2  0
 13 14  2  0
 14 15  1  0
 15 16  2  0
 16 17  1  0
 16 18  1  0
 24 25  1  0
 25 26  1  0
M  CHG  1  23   1
M  END
>  <minimizedAffinity>  (250) 
-8.76315

$$$$
data/reference_output_2/data/smiles/136806.pdb
     RDKit          3D

 24 26  0  0  0  0  0  0  0  0999 V2000
   68.0427   44.4370   55.3954 C   0  0  0  0  0  0  0  0  0  0  0  0
   67.1059   43.6011   54.9042 N   0  0  0  0  0  0  0  0  0  0  0  0
   67.0786   42.4758   55.6258 N   0  0  0  0  0  0  0  0  0  0  0  0
   68.0029   42.5751   56.5957 C   0  0  0  0  0  0  0  0  0  0  0  0
   68.5811   43.7721   56.4418 N   0  0  0  0  0  0  0  0  0  0  0  0
   69.5359   49.6954   53.4932 C   0  0  0  0  0  0  0  0  0  0  0  0
   69.1499   48.3367   53.9855 C   0  0  0  0  0  0  0  0  0  0  0  0
   68.6583   47.3690   53.1350 C   0  0  0  0  0  0  0  0  0  0  0  0
   68.3054   46.1171   53.6018 C   0  0  0  0  0  0  0  0  0  0  0  0
   68.4241   45.7675   54.9322 C   0  0  0  0  0  0  0  0  0  0  0  0
   68.9171   46.7397   55.7806 C   0  0  0  0  0  0  0  0  0  0  0  0
   69.2697   47.9915   55.3151 C   0  0  0  0  0  0  0  0  0  0  0  0
   68.2627   41.5655   57.5629 N   0  0  0  0  0  0  0  0  0  0  0  0
   68.1668   40.1734   57.2428 C   0  0  0  0  0  0  0  0  0  0  0  0
   67.8464   39.8927   56.0756 O   0  0  0  0  0  0  0  0  0  0  0  0
   68.4348   39.1198   58.2416 C   0  0  0  0  0  0  0  0  0  0  0  0
   69.7673   39.0576   58.6084 O   0  0  0  0  0  0  0  0  0  0  0  0
   70.6044   37.9753   58.6365 C   0  0  0  0  0  0  0  0  0  0  0  0
   71.6941   37.8113   57.8026 C   0  0  0  0  0  0  0  0  0  0  0  0
   72.4639   36.6750   57.9263 C   0  0  0  0  0  0  0  0  0  0  0  0
   72.1709   35.7125   58.8515 C   0  0  0  0  0  0  0  0  0  0  0  0
   71.0898   35.8664   59.6849 C   0  0  0  0  0  0  0  0  0  0  0  0
   70.3109   36.9883   59.5802 C   0  0  0  0  0  0  0  0  0  0  0  0
   69.2529   37.1223   60.4070 F   0  0  0  0  0  0  0  0  0  0  0  0
  6  7  1  0
  7  8  2  0
  7 12  1  0
  8  9  1  0
  9 10  2  0
 10  1  1  0
 10 11  1  0
  1  2  2  0
  1  5  1  0
  2  3  1  0
  3  4  1  0
  4 13  1  0
  4  5  2  0
 13 14  1  0
 14 15  2  0
 14 16  1  0
 16 17  1  0
 17 18  1  0
 18 19  2  0
 18 23  1  0
 19 20  1  0
 20 21  2  0
 21 22  1  0
 22 23  2  0
 23 24  1  0
 11 12  2  0
M  END
>  <minimizedAffinity>  (251) 
-8.76173

$$$$
data/200k_reference_output/data/smiles/74706.pdb
     RDKit          3D

 25 27  0  0  0  0  0  0  0  0999 V2000
   68.3071   42.9573   56.3856 C   0  0  0  0  0  0  0  0  0  0  0  0
   68.7828   41.9979   57.2520 C   0  0  0  0  0  0  0  0  0  0  0  0
   68.3737   40.6922   57.2194 C   0  0  0  0  0  0  0  0  0  0  0  0
   67.4505   40.3844   56.2614 N   0  0  0  0  0  0  0  0  0  0  0  0
   66.9642   41.2941   55.3981 C   0  0  0  0  0  0  0  0  0  0  0  0
   66.0024   40.9319   54.4136 N   0  0  0  0  0  0  0  0  0  0  0  0
   67.4050   42.5884   55.4716 N   0  0  0  0  0  0  0  0  0  0  0  0
   68.8399   39.6470   58.1048 C   0  0  0  0  0  0  0  0  0  0  0  0
   70.1819   39.4110   58.2491 C   0  0  0  0  0  0  0  0  0  0  0  0
   70.6058   38.3934   59.1137 C   0  0  0  0  0  0  0  0  0  0  0  0
   69.6981   37.6342   59.8131 C   0  0  0  0  0  0  0  0  0  0  0  0
   68.3629   37.8667   59.6705 C   0  0  0  0  0  0  0  0  0  0  0  0
   67.4876   37.1065   60.3707 F   0  0  0  0  0  0  0  0  0  0  0  0
   67.9498   38.8732   58.8158 C   0  0  0  0  0  0  0  0  0  0  0  0
   68.1975   45.3559   55.6642 N   0  0  0  0  0  0  0  0  0  0  0  0
   68.7816   44.3590   56.4593 C   0  0  0  0  0  0  0  0  0  0  0  0
   69.7094   44.6687   57.2322 O   0  0  0  0  0  0  0  0  0  0  0  0
   68.4780   46.7494   55.5635 C   0  0  0  0  0  0  0  0  0  0  0  0
   67.7190   45.6468   52.8155 C   0  0  0  0  0  0  0  0  0  0  0  0
   68.6571   46.7754   53.0257 C   0  0  0  0  0  0  0  0  0  0  0  0
   69.1886   47.3214   51.8521 C   0  0  0  0  0  0  0  0  0  0  0  0
   70.0129   48.4216   51.9239 C   0  0  0  0  0  0  0  0  0  0  0  0
   70.2617   48.9190   53.1835 C   0  0  0  0  0  0  0  0  0  0  0  0
   69.7417   48.3747   54.2852 N   0  0  0  0  0  0  0  0  0  0  0  0
   68.9140   47.2767   54.2689 C   0  0  0  0  0  0  0  0  0  0  0  0
 19 20  1  0
 20 21  2  0
 20 25  1  0
 21 22  1  0
 22 23  2  0
 23 24  1  0
 24 25  2  0
 25 18  1  0
 18 15  1  0
 15 16  1  0
 16 17  2  0
 16  1  1  0
  1  2  2  0
  1  7  1  0
  2  3  1  0
  3  8  1  0
  3  4  2  0
  8  9  2  0
  8 14  1  0
  9 10  1  0
 10 11  2  0
 11 12  1  0
 12 13  1  0
 12 14  2  0
  4  5  1  0
  5  6  1  0
  5  7  2  0
M  END
>  <minimizedAffinity>  (252) 
-8.76106

$$$$
data/200k_reference_output/data/smiles/71214.pdb
     RDKit          3D

 23 25  0  0  0  0  0  0  0  0999 V2000
   69.9344   44.5306   57.3705 O   0  0  0  0  0  0  0  0  0  0  0  0
   70.0807   45.7568   57.6306 C   0  0  0  0  0  0  0  0  0  0  0  0
   71.0442   46.3310   58.5096 N   0  0  0  0  0  0  0  0  0  0  0  0
   70.8174   47.7362   58.4735 C   0  0  0  0  0  0  0  0  0  0  0  0
   71.5038   48.5536   59.1442 O   0  0  0  0  0  0  0  0  0  0  0  0
   69.7044   47.9821   57.5587 C   0  0  0  0  0  0  0  0  0  0  0  0
   69.2703   46.8270   57.0627 C   0  0  0  0  0  0  0  0  0  0  0  0
   69.1780   49.2977   57.2547 C   0  0  0  0  0  0  0  0  0  0  0  0
   67.9400   49.7383   57.6602 C   0  0  0  0  0  0  0  0  0  0  0  0
   67.4698   51.0150   57.3413 C   0  0  0  0  0  0  0  0  0  0  0  0
   68.2620   51.8781   56.5930 C   0  0  0  0  0  0  0  0  0  0  0  0
   69.5093   51.4448   56.1787 C   0  0  0  0  0  0  0  0  0  0  0  0
   69.9399   50.2000   56.5041 C   0  0  0  0  0  0  0  0  0  0  0  0
   68.1936   46.7070   56.1442 N   0  0  0  0  0  0  0  0  0  0  0  0
   68.3654   46.7762   54.7372 C   0  0  0  0  0  0  0  0  0  0  0  0
   67.7206   45.8915   53.9030 C   0  0  0  0  0  0  0  0  0  0  0  0
   67.8998   45.9508   52.5178 C   0  0  0  0  0  0  0  0  0  0  0  0
   68.7193   46.8889   51.9375 C   0  0  0  0  0  0  0  0  0  0  0  0
   69.3711   47.7846   52.7798 C   0  0  0  0  0  0  0  0  0  0  0  0
   69.1835   47.7097   54.1454 C   0  0  0  0  0  0  0  0  0  0  0  0
   70.2608   48.7953   52.1832 C   0  0  0  0  0  0  0  0  0  0  0  0
   71.3091   49.1333   52.7769 O   0  0  0  0  0  0  0  0  0  0  0  0
   69.9743   49.3923   50.9711 O   0  0  0  0  0  0  0  0  0  0  0  0
  1  2  2  0
  2  3  1  0
  2  7  1  0
  3  4  1  0
  4  5  2  0
  4  6  1  0
  6  8  1  0
  6  7  2  0
  8  9  2  0
  8 13  1  0
  9 10  1  0
 10 11  2  0
 11 12  1  0
 12 13  2  0
  7 14  1  0
 14 15  1  0
 15 16  2  0
 15 20  1  0
 16 17  1  0
 17 18  2  0
 18 19  1  0
 19 21  1  0
 19 20  2  0
 21 22  2  0
 21 23  1  0
M  END
>  <minimizedAffinity>  (253) 
-8.76049

$$$$
data/reference_output_2/data/smiles/138917.pdb
     RDKit          3D

 25 28  0  0  0  0  0  0  0  0999 V2000
   73.9617   51.2404   55.6899 C   0  0  0  0  0  0  0  0  0  0  0  0
   73.9511   52.4225   54.9890 C   0  0  0  0  0  0  0  0  0  0  0  0
   72.7939   52.8964   54.3725 C   0  0  0  0  0  0  0  0  0  0  0  0
   71.6450   52.1508   54.4789 C   0  0  0  0  0  0  0  0  0  0  0  0
   71.6125   50.9372   55.1845 C   0  0  0  0  0  0  0  0  0  0  0  0
   72.7841   50.5262   55.7679 C   0  0  0  0  0  0  0  0  0  0  0  0
   76.0663   49.8705   55.6837 C   0  0  0  0  0  0  0  0  0  0  0  0
   75.6957   49.4092   54.5741 O   0  0  0  0  0  0  0  0  0  0  0  0
   75.1797   50.8292   56.2882 N   0  0  0  0  0  0  0  0  0  0  0  0
   77.2685   48.7427   57.6551 C   0  0  0  0  0  0  0  0  0  0  0  0
   77.3275   49.4528   56.3184 C   0  0  0  0  0  0  0  0  0  0  0  0
   78.4659   50.4342   56.1859 C   0  0  0  0  0  0  0  0  0  0  0  0
   78.5057   49.0731   55.4775 C   0  0  0  0  0  0  0  0  0  0  0  0
   70.3136   50.2016   55.2727 C   0  0  0  0  0  0  0  0  0  0  0  0
   70.0834   49.3204   54.1001 C   0  0  0  0  0  0  0  0  0  0  0  0
   70.8255   49.5169   52.9566 N   0  0  0  0  0  0  0  0  0  0  0  0
   70.6823   48.7428   51.9000 N   0  0  0  0  0  0  0  0  0  0  0  0
   69.7917   47.7349   51.9357 C   0  0  0  0  0  0  0  0  0  0  0  0
   69.6489   46.9890   50.9300 O   0  0  0  0  0  0  0  0  0  0  0  0
   69.0232   47.4890   53.0469 C   0  0  0  0  0  0  0  0  0  0  0  0
   69.1757   48.3144   54.1692 C   0  0  0  0  0  0  0  0  0  0  0  0
   68.2927   48.0053   55.3028 C   0  0  0  0  0  0  0  0  0  0  0  0
   68.4084   46.5300   55.6533 C   0  0  0  0  0  0  0  0  0  0  0  0
   68.3888   45.6460   54.4394 C   0  0  0  0  0  0  0  0  0  0  0  0
   68.0275   46.4034   53.1808 C   0  0  0  0  0  0  0  0  0  0  0  0
 10 11  1  0
 11  7  1  0
 11 12  1  0
 11 13  1  0
  7  8  2  0
  7  9  1  0
  9  1  1  0
  1  2  2  0
  1  6  1  0
  2  3  1  0
  3  4  2  0
  4  5  1  0
  5 14  1  0
  5  6  2  0
 14 15  1  0
 15 16  2  0
 15 21  1  0
 16 17  1  0
 17 18  1  0
 18 19  2  0
 18 20  1  0
 20 21  2  0
 20 25  1  0
 21 22  1  0
 22 23  1  0
 23 24  1  0
 24 25  1  0
 12 13  1  0
M  END
>  <minimizedAffinity>  (254) 
-8.76049

$$$$
data/reference_output_2/data/smiles/114108.pdb
     RDKit          3D

 26 29  0  0  0  0  0  0  0  0999 V2000
   68.6239   47.2615   56.6170 C   0  0  0  0  0  0  0  0  0  0  0  0
   71.3576   50.5384   54.1812 C   0  0  0  0  0  0  0  0  0  0  0  0
   70.4618   49.3996   54.2005 N   0  0  0  0  0  0  0  0  0  0  0  0
   69.9726   48.8854   55.3146 N   0  0  0  0  0  0  0  0  0  0  0  0
   69.1319   47.8089   55.3280 C   0  0  0  0  0  0  0  0  0  0  0  0
   68.7570   47.2074   54.1496 C   0  0  0  0  0  0  0  0  0  0  0  0
   67.9037   46.1188   54.1201 C   0  0  0  0  0  0  0  0  0  0  0  0
   67.5478   45.5495   52.9140 C   0  0  0  0  0  0  0  0  0  0  0  0
   68.0545   46.0785   51.7258 C   0  0  0  0  0  0  0  0  0  0  0  0
   68.9066   47.1666   51.7674 C   0  0  0  0  0  0  0  0  0  0  0  0
   69.2681   47.7435   52.9637 C   0  0  0  0  0  0  0  0  0  0  0  0
   70.1085   48.8278   53.0358 C   0  0  0  0  0  0  0  0  0  0  0  0
   70.5618   49.2970   51.9475 O   0  0  0  0  0  0  0  0  0  0  0  0
   69.5686   46.2394   57.1428 C   0  0  0  0  0  0  0  0  0  0  0  0
   70.6172   46.5548   57.7399 O   0  0  0  0  0  0  0  0  0  0  0  0
   69.2877   44.8510   56.9662 N   0  0  0  0  0  0  0  0  0  0  0  0
   70.1347   43.8207   57.4211 C   0  0  0  0  0  0  0  0  0  0  0  0
   71.4214   44.0017   57.7525 N   0  0  0  0  0  0  0  0  0  0  0  0
   72.2055   42.9920   58.1866 C   0  0  0  0  0  0  0  0  0  0  0  0
   71.7279   41.7066   58.3164 C   0  0  0  0  0  0  0  0  0  0  0  0
   70.4085   41.4863   57.9844 C   0  0  0  0  0  0  0  0  0  0  0  0
   69.9170   40.2026   58.1108 C   0  0  0  0  0  0  0  0  0  0  0  0
   68.6017   39.9595   57.7871 C   0  0  0  0  0  0  0  0  0  0  0  0
   67.8108   41.0017   57.3446 C   0  0  0  0  0  0  0  0  0  0  0  0
   68.3008   42.2852   57.2172 C   0  0  0  0  0  0  0  0  0  0  0  0
   69.6298   42.5394   57.5430 C   0  0  0  0  0  0  0  0  0  0  0  0
  2  3  1  0
  3  4  1  0
  3 12  1  0
  4  5  2  0
  5  1  1  0
  5  6  1  0
  1 14  1  0
 14 15  2  0
 14 16  1  0
 16 17  1  0
 17 18  2  0
 17 26  1  0
 18 19  1  0
 19 20  2  0
 20 21  1  0
 21 22  1  0
 21 26  2  0
 22 23  2  0
 23 24  1  0
 24 25  2  0
 25 26  1  0
  6  7  1  0
  6 11  2  0
  7  8  2  0
  8  9  1  0
  9 10  2  0
 10 11  1  0
 11 12  1  0
 12 13  2  0
M  END
>  <minimizedAffinity>  (255) 
-8.75996

$$$$
data/reference_output_2/data/smiles/101469.pdb
     RDKit          3D

 25 26  0  0  0  0  0  0  0  0999 V2000
   73.9777   52.5454   54.9747 C   0  0  0  0  0  0  0  0  0  0  0  0
   73.8738   50.1530   54.8864 O   0  0  0  0  0  0  0  0  0  0  0  0
   73.3144   51.2772   54.6246 C   0  0  0  0  0  0  0  0  0  0  0  0
   72.0519   51.1462   53.9916 N   0  0  0  0  0  0  0  0  0  0  0  0
   71.4880   49.8981   53.6967 N   0  0  0  0  0  0  0  0  0  0  0  0
   70.0906   49.6931   53.6636 C   0  0  0  0  0  0  0  0  0  0  0  0
   69.3835   50.7286   53.9240 O   0  0  0  0  0  0  0  0  0  0  0  0
   69.4291   48.4308   53.3664 C   0  0  0  0  0  0  0  0  0  0  0  0
   68.7846   47.7160   54.3406 C   0  0  0  0  0  0  0  0  0  0  0  0
   68.1604   46.5060   54.0144 C   0  0  0  0  0  0  0  0  0  0  0  0
   68.1799   46.0140   52.7273 C   0  0  0  0  0  0  0  0  0  0  0  0
   68.8228   46.7261   51.7544 C   0  0  0  0  0  0  0  0  0  0  0  0
   69.4341   47.9170   52.0860 C   0  0  0  0  0  0  0  0  0  0  0  0
   73.9938   52.8744   56.3195 O   0  0  0  0  0  0  0  0  0  0  0  0
   72.8985   53.1298   57.1138 C   0  0  0  0  0  0  0  0  0  0  0  0
   72.7830   54.2670   57.6200 O   0  0  0  0  0  0  0  0  0  0  0  0
   71.8590   52.1198   57.3888 C   0  0  0  0  0  0  0  0  0  0  0  0
   70.6092   52.3174   57.0128 C   0  0  0  0  0  0  0  0  0  0  0  0
   69.5135   51.3910   57.2338 C   0  0  0  0  0  0  0  0  0  0  0  0
   69.7828   50.0445   57.4544 C   0  0  0  0  0  0  0  0  0  0  0  0
   68.7761   49.1252   57.6687 C   0  0  0  0  0  0  0  0  0  0  0  0
   67.4472   49.5315   57.6698 C   0  0  0  0  0  0  0  0  0  0  0  0
   67.1578   50.8553   57.4542 C   0  0  0  0  0  0  0  0  0  0  0  0
   65.8658   51.2569   57.4536 F   0  0  0  0  0  0  0  0  0  0  0  0
   68.2005   51.7605   57.2399 C   0  0  0  0  0  0  0  0  0  0  0  0
  2  3  2  0
  3  1  1  0
  3  4  1  0
  1 14  1  0
 14 15  1  0
 15 16  2  0
 15 17  1  0
 17 18  2  0
 18 19  1  0
 19 20  2  0
 19 25  1  0
 20 21  1  0
 21 22  2  0
 22 23  1  0
 23 24  1  0
 23 25  2  0
  4  5  1  0
  5  6  1  0
  6  7  2  0
  6  8  1  0
  8  9  2  0
  8 13  1  0
  9 10  1  0
 10 11  2  0
 11 12  1  0
 12 13  2  0
M  END
>  <minimizedAffinity>  (256) 
-8.75661

$$$$
data/reference_output_2/data/smiles/156983.pdb
     RDKit          3D

 26 29  0  0  0  0  0  0  0  0999 V2000
   69.1908   46.6675   57.2743 N   0  0  0  0  0  0  0  0  0  0  0  0
   68.7230   47.3955   56.3382 C   0  0  0  0  0  0  0  0  0  0  0  0
   68.3321   48.7971   56.6976 C   0  0  0  0  0  0  0  0  0  0  0  0
   68.8600   49.9238   56.1849 C   0  0  0  0  0  0  0  0  0  0  0  0
   68.3958   51.1914   56.4833 C   0  0  0  0  0  0  0  0  0  0  0  0
   67.3397   51.3539   57.3510 C   0  0  0  0  0  0  0  0  0  0  0  0
   66.7890   50.2089   57.8879 C   0  0  0  0  0  0  0  0  0  0  0  0
   67.2563   48.9540   57.5835 C   0  0  0  0  0  0  0  0  0  0  0  0
   68.6700   46.8848   54.9864 C   0  0  0  0  0  0  0  0  0  0  0  0
   67.9628   45.7794   54.5753 C   0  0  0  0  0  0  0  0  0  0  0  0
   67.7927   45.4138   53.2411 C   0  0  0  0  0  0  0  0  0  0  0  0
   68.3323   46.1461   52.2704 N   0  0  0  0  0  0  0  0  0  0  0  0
   69.0367   47.2382   52.5975 C   0  0  0  0  0  0  0  0  0  0  0  0
   69.2098   47.6132   53.9097 C   0  0  0  0  0  0  0  0  0  0  0  0
   70.4785   45.4350   59.3519 O   0  0  0  0  0  0  0  0  0  0  0  0
   70.2929   44.7282   58.3316 C   0  0  0  0  0  0  0  0  0  0  0  0
   69.6134   45.3857   57.2396 N   0  0  0  0  0  0  0  0  0  0  0  0
   70.7477   43.3526   58.2979 C   0  0  0  0  0  0  0  0  0  0  0  0
   72.1052   43.1031   58.3041 C   0  0  0  0  0  0  0  0  0  0  0  0
   72.6396   41.8336   58.2741 C   0  0  0  0  0  0  0  0  0  0  0  0
   71.7978   40.7365   58.2355 C   0  0  0  0  0  0  0  0  0  0  0  0
   70.4370   40.9535   58.2280 C   0  0  0  0  0  0  0  0  0  0  0  0
   69.9264   42.2585   58.2596 C   0  0  0  0  0  0  0  0  0  0  0  0
   69.8547   39.6955   58.1880 O   0  0  0  0  0  0  0  0  0  0  0  0
   70.8268   38.7489   58.6333 C   0  0  0  0  0  0  0  0  0  0  0  0
   72.0335   39.3602   58.1999 O   0  0  0  0  0  0  0  0  0  0  0  0
 15 16  2  0
 16 17  1  0
 16 18  1  0
 17  1  1  0
  1  2  2  0
  2  3  1  0
  2  9  1  0
  3  4  2  0
  3  8  1  0
  4  5  1  0
  5  6  2  0
  6  7  1  0
  7  8  2  0
  9 10  2  0
  9 14  1  0
 10 11  1  0
 11 12  2  0
 12 13  1  0
 13 14  2  0
 18 19  2  0
 18 23  1  0
 19 20  1  0
 20 21  2  0
 21 22  1  0
 21 26  1  0
 22 23  2  0
 22 24  1  0
 24 25  1  0
 25 26  1  0
M  END
>  <minimizedAffinity>  (257) 
-8.75569

$$$$
data/reference_output_2/data/smiles/90460.pdb
     RDKit          3D

 24 26  0  0  0  0  0  0  0  0999 V2000
   69.7488   45.7862   57.4882 S   0  0  0  0  0  0  0  0  0  0  0  0
   69.4992   46.4376   58.8617 O   0  0  0  0  0  0  0  0  0  0  0  0
   71.0478   46.4373   57.0332 O   0  0  0  0  0  0  0  0  0  0  0  0
   70.0610   44.0948   57.7056 C   0  0  0  0  0  0  0  0  0  0  0  0
   71.2172   43.6712   58.3600 C   0  0  0  0  0  0  0  0  0  0  0  0
   71.5478   42.3533   58.5302 C   0  0  0  0  0  0  0  0  0  0  0  0
   70.6769   41.4190   58.0187 C   0  0  0  0  0  0  0  0  0  0  0  0
   69.5165   41.8016   57.3629 C   0  0  0  0  0  0  0  0  0  0  0  0
   68.6698   40.7864   56.8896 C   0  0  0  0  0  0  0  0  0  0  0  0
   67.5076   41.1558   56.2587 C   0  0  0  0  0  0  0  0  0  0  0  0
   67.2495   42.4891   56.1314 C   0  0  0  0  0  0  0  0  0  0  0  0
   68.0613   43.4468   56.5844 N   0  0  0  0  0  0  0  0  0  0  0  0
   69.2195   43.1287   57.2122 C   0  0  0  0  0  0  0  0  0  0  0  0
   68.5294   46.2161   56.3940 N   0  0  0  0  0  0  0  0  0  0  0  0
   69.2632   47.5617   52.9802 C   0  0  0  0  0  0  0  0  0  0  0  0
   69.2684   47.3781   54.3530 C   0  0  0  0  0  0  0  0  0  0  0  0
   68.5779   46.3853   54.9945 C   0  0  0  0  0  0  0  0  0  0  0  0
   67.8360   45.5348   54.1527 C   0  0  0  0  0  0  0  0  0  0  0  0
   67.8054   45.6865   52.7866 C   0  0  0  0  0  0  0  0  0  0  0  0
   68.5134   46.6942   52.1863 C   0  0  0  0  0  0  0  0  0  0  0  0
   68.5165   46.8901   50.8023 O   0  0  0  0  0  0  0  0  0  0  0  0
   71.1751   48.8826   52.7705 O   0  0  0  0  0  0  0  0  0  0  0  0
   70.0240   48.6407   52.3645 C   0  0  0  0  0  0  0  0  0  0  0  0
   69.4853   49.3898   51.3441 O   0  0  0  0  0  0  0  0  0  0  0  0
 22 23  2  0
 23 24  1  0
 23 15  1  0
 15 16  2  0
 15 20  1  0
 16 17  1  0
 17 14  1  0
 17 18  2  0
 14  1  1  0
  1  2  2  0
  1  3  2  0
  1  4  1  0
  4  5  2  0
  4 13  1  0
  5  6  1  0
  6  7  2  0
  7  8  1  0
  8  9  1  0
  8 13  2  0
  9 10  2  0
 10 11  1  0
 11 12  2  0
 12 13  1  0
 18 19  1  0
 19 20  2  0
 20 21  1  0
M  END
>  <minimizedAffinity>  (258) 
-8.75543

$$$$
data/200k_reference_output/data/smiles/28989.pdb
     RDKit          3D

 25 28  0  0  0  0  0  0  0  0999 V2000
   68.3997   44.9105   55.6724 C   0  0  0  0  0  0  0  0  0  0  0  0
   68.8944   45.7664   56.5791 N   0  0  0  0  0  0  0  0  0  0  0  0
   69.1404   46.9612   55.9939 C   0  0  0  0  0  0  0  0  0  0  0  0
   68.7726   46.7945   54.6744 C   0  0  0  0  0  0  0  0  0  0  0  0
   68.7849   47.6336   53.5888 C   0  0  0  0  0  0  0  0  0  0  0  0
   68.3556   47.2254   52.3427 C   0  0  0  0  0  0  0  0  0  0  0  0
   67.9016   45.9449   52.1806 C   0  0  0  0  0  0  0  0  0  0  0  0
   67.8995   45.1170   53.2959 C   0  0  0  0  0  0  0  0  0  0  0  0
   68.3258   45.5408   54.5052 N   0  0  0  0  0  0  0  0  0  0  0  0
   68.0126   41.4689   56.6794 C   0  0  0  0  0  0  0  0  0  0  0  0
   66.9312   41.6867   55.8918 N   0  0  0  0  0  0  0  0  0  0  0  0
   66.9153   42.9130   55.4328 N   0  0  0  0  0  0  0  0  0  0  0  0
   68.0087   43.5127   55.9286 C   0  0  0  0  0  0  0  0  0  0  0  0
   68.6856   42.6453   56.6891 N   0  0  0  0  0  0  0  0  0  0  0  0
   69.4275   40.2497   58.3031 N   0  0  0  0  0  0  0  0  0  0  0  0
   68.3668   40.2336   57.3637 C   0  0  0  0  0  0  0  0  0  0  0  0
   67.7563   39.1649   57.1384 O   0  0  0  0  0  0  0  0  0  0  0  0
   69.6912   48.1724   56.6531 C   0  0  0  0  0  0  0  0  0  0  0  0
   68.6108   49.1497   56.9691 C   0  0  0  0  0  0  0  0  0  0  0  0
   67.5270   48.8512   57.7446 C   0  0  0  0  0  0  0  0  0  0  0  0
   66.5561   49.7905   58.0051 C   0  0  0  0  0  0  0  0  0  0  0  0
   66.6251   51.0813   57.4993 C   0  0  0  0  0  0  0  0  0  0  0  0
   67.7230   51.3778   56.7164 C   0  0  0  0  0  0  0  0  0  0  0  0
   68.6969   50.4387   56.4524 C   0  0  0  0  0  0  0  0  0  0  0  0
   69.7866   50.7380   55.6738 F   0  0  0  0  0  0  0  0  0  0  0  0
 15 16  1  0
 16 17  2  0
 16 10  1  0
 10 11  2  0
 10 14  1  0
 11 12  1  0
 12 13  1  0
 13  1  1  0
 13 14  2  0
  1  2  2  0
  1  9  1  0
  2  3  1  0
  3 18  1  0
  3  4  2  0
 18 19  1  0
 19 20  2  0
 19 24  1  0
 20 21  1  0
 21 22  2  0
 22 23  1  0
 23 24  2  0
 24 25  1  0
  4  5  1  0
  4  9  1  0
  5  6  2  0
  6  7  1  0
  7  8  2  0
  8  9  1  0
M  END
>  <minimizedAffinity>  (259) 
-8.75486

$$$$
data/reference_output_2/data/smiles/135141.pdb
     RDKit          3D

 25 28  0  0  0  0  0  0  0  0999 V2000
   67.8866   43.3389   56.6587 N   0  0  0  0  0  0  0  0  0  0  0  0
   67.8953   41.9287   56.8459 C   0  0  0  0  0  0  0  0  0  0  0  0
   67.9101   41.2375   55.7736 O   0  0  0  0  0  0  0  0  0  0  0  0
   67.8870   41.2673   58.1607 C   0  0  2  0  0  0  0  0  0  0  0  0
   68.1203   39.7858   57.9703 C   0  0  0  0  0  0  0  0  0  0  0  0
   68.0234   39.0615   59.2915 C   0  0  1  0  0  0  0  0  0  0  0  0
   69.0664   39.6039   60.2231 C   0  0  0  0  0  0  0  0  0  0  0  0
   68.8521   41.0881   60.4002 C   0  0  2  0  0  0  0  0  0  0  0  0
   67.5010   41.3408   61.0398 C   0  0  0  0  0  0  0  0  0  0  0  0
   66.4569   40.7335   60.1347 C   0  0  2  0  0  0  0  0  0  0  0  0
   66.6706   39.2527   59.9294 C   0  0  0  0  0  0  0  0  0  0  0  0
   66.5131   41.4088   58.8059 C   0  0  0  0  0  0  0  0  0  0  0  0
   68.9083   41.8318   59.1062 C   0  0  0  0  0  0  0  0  0  0  0  0
   68.5835   45.9286   56.1261 O   0  0  0  0  0  0  0  0  0  0  0  0
   68.2610   45.2461   55.1206 C   0  0  0  0  0  0  0  0  0  0  0  0
   67.8951   43.8981   55.3693 N   0  0  0  0  0  0  0  0  0  0  0  0
   68.2795   45.8533   53.7966 C   0  0  0  0  0  0  0  0  0  0  0  0
   67.5209   45.4190   52.7371 C   0  0  0  0  0  0  0  0  0  0  0  0
   67.5587   46.0124   51.4951 C   0  0  0  0  0  0  0  0  0  0  0  0
   68.3830   47.0948   51.2691 C   0  0  0  0  0  0  0  0  0  0  0  0
   69.1594   47.5611   52.3035 C   0  0  0  0  0  0  0  0  0  0  0  0
   69.0973   46.9357   53.5506 C   0  0  0  0  0  0  0  0  0  0  0  0
   70.0351   48.6887   52.1098 N   0  0  0  0  0  0  0  0  0  0  0  0
   69.8512   49.5127   51.2116 O   0  0  0  0  0  0  0  0  0  0  0  0
   71.0966   48.8316   52.9601 O   0  0  0  0  0  0  0  0  0  0  0  0
 14 15  2  0
 15 16  1  0
 15 17  1  0
 16  1  1  0
  1  2  1  0
  2  3  2  0
  4  2  1  6
  4  5  1  0
  4 12  1  0
  4 13  1  0
  6  5  1  6
  6  7  1  0
  6 11  1  0
  8  7  1  6
  8  9  1  0
  8 13  1  0
 10  9  1  1
 10 11  1  0
 10 12  1  0
 17 18  2  0
 17 22  1  0
 18 19  1  0
 19 20  2  0
 20 21  1  0
 21 23  1  0
 21 22  2  0
 23 24  2  0
 23 25  1  0
M  CHG  2  23   1  25  -1
M  END
>  <minimizedAffinity>  (260) 
-8.75431

$$$$
data/200k_reference_output/data/smiles/44687.pdb
     RDKit          3D

 22 23  0  0  0  0  0  0  0  0999 V2000
   68.1732   45.0211   56.1733 O   0  0  0  0  0  0  0  0  0  0  0  0
   68.7514   46.0820   55.7597 C   0  0  0  0  0  0  0  0  0  0  0  0
   69.4566   46.9242   56.6362 N   0  0  0  0  0  0  0  0  0  0  0  0
   68.6558   46.3907   54.3465 C   0  0  0  0  0  0  0  0  0  0  0  0
   67.8051   45.7151   53.4834 C   0  0  0  0  0  0  0  0  0  0  0  0
   67.7709   46.0708   52.1398 C   0  0  0  0  0  0  0  0  0  0  0  0
   68.5504   47.0656   51.6479 C   0  0  0  0  0  0  0  0  0  0  0  0
   69.4000   47.7348   52.5313 C   0  0  0  0  0  0  0  0  0  0  0  0
   69.4497   47.4032   53.8461 C   0  0  0  0  0  0  0  0  0  0  0  0
   70.2152   48.7721   52.0247 N   0  0  0  0  0  0  0  0  0  0  0  0
   71.3131   49.0017   52.5338 O   0  0  0  0  0  0  0  0  0  0  0  0
   69.7820   49.5176   50.9705 O   0  0  0  0  0  0  0  0  0  0  0  0
   69.5455   46.6262   57.9834 N   0  0  0  0  0  0  0  0  0  0  0  0
   71.1391   46.3471   58.5290 S   0  0  0  0  0  0  0  0  0  0  0  0
   72.1184   47.3466   57.9372 O   0  0  0  0  0  0  0  0  0  0  0  0
   71.1561   46.6099   60.0243 O   0  0  0  0  0  0  0  0  0  0  0  0
   71.7349   44.7653   58.1580 C   0  0  0  0  0  0  0  0  0  0  0  0
   70.8528   43.7162   58.0213 C   0  0  0  0  0  0  0  0  0  0  0  0
   71.3018   42.4305   57.7222 C   0  0  0  0  0  0  0  0  0  0  0  0
   72.6426   42.1713   57.5544 C   0  0  0  0  0  0  0  0  0  0  0  0
   73.5196   43.2310   57.6935 C   0  0  0  0  0  0  0  0  0  0  0  0
   73.0760   44.4998   57.9891 C   0  0  0  0  0  0  0  0  0  0  0  0
  1  2  2  0
  2  3  1  0
  2  4  1  0
  3 13  1  0
 13 14  1  0
 14 15  2  0
 14 16  2  0
 14 17  1  0
 17 18  2  0
 17 22  1  0
 18 19  1  0
 19 20  2  0
 20 21  1  0
 21 22  2  0
  4  5  2  0
  4  9  1  0
  5  6  1  0
  6  7  2  0
  7  8  1  0
  8 10  1  0
  8  9  2  0
 10 11  2  0
 10 12  1  0
M  CHG  2  10   1  12  -1
M  END
>  <minimizedAffinity>  (261) 
-8.75396

$$$$
data/200k_reference_output/data/smiles/782.pdb
     RDKit          3D

 23 25  0  0  0  0  0  0  0  0999 V2000
   68.9560   48.8015   56.1378 C   0  0  0  0  0  0  0  0  0  0  0  0
   69.3818   48.6673   54.7539 C   0  0  0  0  0  0  0  0  0  0  0  0
   70.2853   49.5892   54.3058 N   0  0  0  0  0  0  0  0  0  0  0  0
   70.6742   49.5914   53.0532 N   0  0  0  0  0  0  0  0  0  0  0  0
   70.2031   48.6963   52.1742 C   0  0  0  0  0  0  0  0  0  0  0  0
   70.5631   48.6809   50.9632 O   0  0  0  0  0  0  0  0  0  0  0  0
   69.2895   47.7304   52.5421 C   0  0  0  0  0  0  0  0  0  0  0  0
   68.8093   46.7982   51.6743 C   0  0  0  0  0  0  0  0  0  0  0  0
   67.9220   45.8620   52.1213 C   0  0  0  0  0  0  0  0  0  0  0  0
   67.5143   45.8544   53.4366 C   0  0  0  0  0  0  0  0  0  0  0  0
   67.9905   46.7990   54.3508 C   0  0  0  0  0  0  0  0  0  0  0  0
   68.8802   47.7378   53.8913 C   0  0  0  0  0  0  0  0  0  0  0  0
   70.6525   46.0512   58.0971 C   0  0  0  0  0  0  0  0  0  0  0  0
   71.7773   46.7177   58.5772 C   0  0  0  0  0  0  0  0  0  0  0  0
   71.9672   48.0265   58.2701 C   0  0  0  0  0  0  0  0  0  0  0  0
   71.0362   48.7133   57.4701 C   0  0  0  0  0  0  0  0  0  0  0  0
   69.9293   48.0901   56.9850 C   0  0  0  0  0  0  0  0  0  0  0  0
   69.7576   46.7392   57.3176 C   0  0  0  0  0  0  0  0  0  0  0  0
   71.0705   43.5792   57.7566 N   0  0  0  0  0  0  0  0  0  0  0  0
   70.4670   44.6508   58.4469 C   0  0  0  0  0  0  0  0  0  0  0  0
   69.7271   44.3355   59.4232 O   0  0  0  0  0  0  0  0  0  0  0  0
   72.2318   41.5432   58.3445 C   0  0  0  0  0  0  0  0  0  0  0  0
   70.8626   42.1870   58.1303 C   0  0  0  0  0  0  0  0  0  0  0  0
 22 23  1  0
 23 19  1  0
 19 20  1  0
 20 21  2  0
 20 13  1  0
 13 14  2  0
 13 18  1  0
 14 15  1  0
 15 16  2  0
 16 17  1  0
 17  1  1  0
 17 18  2  0
  1  2  1  0
  2  3  2  0
  2 12  1  0
  3  4  1  0
  4  5  1  0
  5  6  2  0
  5  7  1  0
  7  8  1  0
  7 12  2  0
  8  9  2  0
  9 10  1  0
 10 11  2  0
 11 12  1  0
M  END
>  <minimizedAffinity>  (262) 
-8.75271

$$$$
data/reference_output_2/data/smiles/93025.pdb
     RDKit          3D

 24 26  0  0  0  0  0  0  0  0999 V2000
   68.2524   44.3123   55.7221 N   0  0  0  0  0  0  0  0  0  0  0  0
   67.7772   44.8628   54.7071 C   0  0  0  0  0  0  0  0  0  0  0  0
   68.2585   45.9307   53.8629 C   0  0  0  0  0  0  0  0  0  0  0  0
   68.1584   45.8198   52.4626 C   0  0  0  0  0  0  0  0  0  0  0  0
   68.6061   46.8168   51.6404 C   0  0  0  0  0  0  0  0  0  0  0  0
   69.1633   47.9452   52.1575 C   0  0  0  0  0  0  0  0  0  0  0  0
   69.6304   48.9825   51.3435 O   0  0  0  0  0  0  0  0  0  0  0  0
   69.2925   48.1195   53.5295 C   0  0  0  0  0  0  0  0  0  0  0  0
   69.8604   49.2743   54.0197 C   0  0  0  0  0  0  0  0  0  0  0  0
   69.9766   49.4209   55.3802 C   0  0  0  0  0  0  0  0  0  0  0  0
   69.5453   48.4555   56.2513 C   0  0  0  0  0  0  0  0  0  0  0  0
   68.9761   47.3015   55.7111 C   0  0  0  0  0  0  0  0  0  0  0  0
   68.8274   47.0881   54.3522 C   0  0  0  0  0  0  0  0  0  0  0  0
   69.6870   42.4554   57.0297 O   0  0  0  0  0  0  0  0  0  0  0  0
   68.4162   42.2965   57.1306 C   0  0  0  0  0  0  0  0  0  0  0  0
   67.6517   43.2638   56.4497 N   0  0  0  0  0  0  0  0  0  0  0  0
   67.9442   41.1723   57.9112 C   0  0  0  0  0  0  0  0  0  0  0  0
   68.3495   39.8786   57.5508 C   0  0  0  0  0  0  0  0  0  0  0  0
   67.9611   38.7489   58.2218 C   0  0  0  0  0  0  0  0  0  0  0  0
   67.1286   38.8263   59.3148 C   0  0  0  0  0  0  0  0  0  0  0  0
   66.7153   37.7058   60.0160 O   0  0  0  0  0  0  0  0  0  0  0  0
   66.7171   40.0814   59.6885 C   0  0  0  0  0  0  0  0  0  0  0  0
   67.1174   41.2404   58.9984 C   0  0  0  0  0  0  0  0  0  0  0  0
   66.6664   42.4763   59.4265 O   0  0  0  0  0  0  0  0  0  0  0  0
 14 15  2  0
 15 16  1  0
 15 17  1  0
 16  1  1  0
  1  2  2  0
  2  3  1  0
  3  4  2  0
  3 13  1  0
  4  5  1  0
  5  6  2  0
  6  7  1  0
  6  8  1  0
  8  9  1  0
  8 13  2  0
  9 10  2  0
 10 11  1  0
 11 12  2  0
 12 13  1  0
 17 18  2  0
 17 23  1  0
 18 19  1  0
 19 20  2  0
 20 21  1  0
 20 22  1  0
 22 23  2  0
 23 24  1  0
M  END
>  <minimizedAffinity>  (263) 
-8.75075

$$$$
data/reference_output_2/data/smiles/191652.pdb
     RDKit          3D

 26 29  0  0  0  0  0  0  0  0999 V2000
   70.4747   45.8521   57.9123 C   0  0  0  0  0  0  0  0  0  0  0  0
   71.6085   46.4487   58.4166 C   0  0  0  0  0  0  0  0  0  0  0  0
   71.8860   47.8035   58.2154 C   0  0  0  0  0  0  0  0  0  0  0  0
   71.0177   48.5902   57.4968 C   0  0  0  0  0  0  0  0  0  0  0  0
   69.8920   48.0226   56.9889 C   0  0  0  0  0  0  0  0  0  0  0  0
   69.6220   46.6579   57.1968 C   0  0  0  0  0  0  0  0  0  0  0  0
   71.9162   41.9557   58.0782 C   0  0  0  0  0  0  0  0  0  0  0  0
   70.6287   42.2507   58.8138 C   0  0  2  0  0  0  0  0  0  0  0  0
   69.4730   42.2366   57.9328 N   0  0  0  0  0  0  0  0  0  0  0  0
   69.4841   43.5433   57.3174 C   0  0  0  0  0  0  0  0  0  0  0  0
   68.9193   43.7841   56.2240 O   0  0  0  0  0  0  0  0  0  0  0  0
   70.2185   44.4525   58.1437 N   0  0  0  0  0  0  0  0  0  0  0  0
   70.6363   43.6707   59.2475 C   0  0  0  0  0  0  0  0  0  0  0  0
   70.9541   44.0602   60.3696 O   0  0  0  0  0  0  0  0  0  0  0  0
   68.8331   48.7277   56.2028 C   0  0  0  0  0  0  0  0  0  0  0  0
   69.2375   48.6912   54.8004 C   0  0  0  0  0  0  0  0  0  0  0  0
   70.1289   49.6637   54.4127 N   0  0  0  0  0  0  0  0  0  0  0  0
   70.5770   49.6559   53.1807 N   0  0  0  0  0  0  0  0  0  0  0  0
   70.1885   48.7266   52.2959 C   0  0  0  0  0  0  0  0  0  0  0  0
   70.6262   48.7215   51.1001 O   0  0  0  0  0  0  0  0  0  0  0  0
   69.2973   47.7250   52.6173 C   0  0  0  0  0  0  0  0  0  0  0  0
   68.8806   46.7816   51.7325 C   0  0  0  0  0  0  0  0  0  0  0  0
   67.9753   45.8205   52.1250 C   0  0  0  0  0  0  0  0  0  0  0  0
   67.4916   45.8145   53.4157 C   0  0  0  0  0  0  0  0  0  0  0  0
   67.9066   46.7774   54.3479 C   0  0  0  0  0  0  0  0  0  0  0  0
   68.8084   47.7211   53.9353 C   0  0  0  0  0  0  0  0  0  0  0  0
  8  7  1  6
  8  9  1  0
  8 13  1  0
  9 10  1  0
 10 11  2  0
 10 12  1  0
 12  1  1  0
 12 13  1  0
  1  2  2  0
  1  6  1  0
  2  3  1  0
  3  4  2  0
  4  5  1  0
  5 15  1  0
  5  6  2  0
 15 16  1  0
 16 17  2  0
 16 26  1  0
 17 18  1  0
 18 19  1  0
 19 20  2  0
 19 21  1  0
 21 22  1  0
 21 26  2  0
 22 23  2  0
 23 24  1  0
 24 25  2  0
 25 26  1  0
 13 14  2  0
M  END
>  <minimizedAffinity>  (264) 
-8.75010

$$$$
data/200k_reference_output/data/smiles/66095.pdb
     RDKit          3D

 25 27  0  0  0  0  0  0  0  0999 V2000
   67.7672   41.5642   58.2159 C   0  0  1  0  0  0  0  0  0  0  0  0
   68.5774   41.8194   59.4767 C   0  0  0  0  0  0  0  0  0  0  0  0
   67.5030   43.2416   56.3257 N   0  0  0  0  0  0  0  0  0  0  0  0
   68.3352   42.4060   57.0825 C   0  0  0  0  0  0  0  0  0  0  0  0
   69.5521   42.3514   56.8252 O   0  0  0  0  0  0  0  0  0  0  0  0
   68.2058   45.4036   55.2423 C   0  0  0  0  0  0  0  0  0  0  0  0
   68.3758   46.0284   56.3024 O   0  0  0  0  0  0  0  0  0  0  0  0
   67.7882   44.0710   55.2806 N   0  0  0  0  0  0  0  0  0  0  0  0
   70.0066   48.6767   51.8997 C   0  0  0  0  0  0  0  0  0  0  0  0
   69.2400   47.5305   52.5127 C   0  0  0  0  0  0  0  0  0  0  0  0
   68.4000   46.6909   51.8131 C   0  0  0  0  0  0  0  0  0  0  0  0
   67.9068   45.7903   52.7422 C   0  0  0  0  0  0  0  0  0  0  0  0
   68.4572   46.1088   53.9612 C   0  0  0  0  0  0  0  0  0  0  0  0
   69.2274   47.1400   53.7415 O   0  0  0  0  0  0  0  0  0  0  0  0
   67.7715   40.2374   57.8318 O   0  0  0  0  0  0  0  0  0  0  0  0
   68.5827   39.2778   58.3809 C   0  0  0  0  0  0  0  0  0  0  0  0
   68.0587   38.5074   59.4367 C   0  0  0  0  0  0  0  0  0  0  0  0
   68.8101   37.5383   60.0269 C   0  0  0  0  0  0  0  0  0  0  0  0
   70.1103   37.2603   59.6276 C   0  0  0  0  0  0  0  0  0  0  0  0
   70.8298   36.2714   60.2541 C   0  0  0  0  0  0  0  0  0  0  0  0
   72.1217   36.0020   59.8507 C   0  0  0  0  0  0  0  0  0  0  0  0
   72.6382   36.7541   58.8157 C   0  0  0  0  0  0  0  0  0  0  0  0
   71.9333   37.7453   58.1797 C   0  0  0  0  0  0  0  0  0  0  0  0
   70.6307   38.0055   58.5993 C   0  0  0  0  0  0  0  0  0  0  0  0
   69.8745   38.9873   57.9985 C   0  0  0  0  0  0  0  0  0  0  0  0
  9 10  1  0
 10 11  2  0
 10 14  1  0
 11 12  1  0
 12 13  2  0
 13  6  1  0
 13 14  1  0
  6  7  2  0
  6  8  1  0
  8  3  1  0
  3  4  1  0
  4  5  2  0
  4  1  1  0
  1  2  1  1
  1 15  1  0
 15 16  1  0
 16 17  2  0
 16 25  1  0
 17 18  1  0
 18 19  2  0
 19 20  1  0
 19 24  1  0
 20 21  2  0
 21 22  1  0
 22 23  2  0
 23 24  1  0
 24 25  2  0
M  END
>  <minimizedAffinity>  (265) 
-8.74961

$$$$
data/reference_output_2/data/smiles/177430.pdb
     RDKit          3D

 24 27  0  0  0  0  0  0  0  0999 V2000
   76.3776   35.0619   52.1279 C   0  0  0  0  0  0  0  0  0  0  0  0
   75.1000   35.2132   52.6159 C   0  0  0  0  0  0  0  0  0  0  0  0
   74.8159   35.2866   53.9492 N   0  0  0  0  0  0  0  0  0  0  0  0
   73.6829   35.4290   54.6590 C   0  0  0  0  0  0  0  0  0  0  0  0
   72.5432   35.5336   54.1504 O   0  0  0  0  0  0  0  0  0  0  0  0
   73.9405   35.4442   55.9793 N   0  0  0  0  0  0  0  0  0  0  0  0
   75.2555   35.3088   56.0822 N   0  0  0  0  0  0  0  0  0  0  0  0
   75.8021   35.2110   54.8514 C   0  0  0  0  0  0  0  0  0  0  0  0
   77.0796   35.0607   54.3836 C   0  0  0  0  0  0  0  0  0  0  0  0
   78.0112   34.9896   55.2205 O   0  0  0  0  0  0  0  0  0  0  0  0
   77.3548   34.9885   53.0429 N   0  0  0  0  0  0  0  0  0  0  0  0
   77.5242   34.7720   46.4847 C   0  0  0  0  0  0  0  0  0  0  0  0
   77.2454   34.8601   47.9322 C   0  0  0  0  0  0  0  0  0  0  0  0
   76.2367   34.1090   48.4785 C   0  0  0  0  0  0  0  0  0  0  0  0
   75.9493   34.1697   49.8392 C   0  0  0  0  0  0  0  0  0  0  0  0
   76.6657   34.9848   50.6921 C   0  0  0  0  0  0  0  0  0  0  0  0
   77.6694   35.7250   50.1171 C   0  0  0  0  0  0  0  0  0  0  0  0
   77.9803   35.6847   48.7531 C   0  0  0  0  0  0  0  0  0  0  0  0
   73.0285   35.5760   57.0656 C   0  0  0  0  0  0  0  0  0  0  0  0
   72.4394   36.7663   57.4369 C   0  0  0  0  0  0  0  0  0  0  0  0
   71.5575   36.8514   58.4996 C   0  0  0  0  0  0  0  0  0  0  0  0
   71.2280   35.7240   59.2435 C   0  0  0  0  0  0  0  0  0  0  0  0
   71.8131   34.5328   58.8777 C   0  0  0  0  0  0  0  0  0  0  0  0
   72.6899   34.4592   57.8170 C   0  0  0  0  0  0  0  0  0  0  0  0
 12 13  1  0
 13 14  2  0
 13 18  1  0
 14 15  1  0
 15 16  2  0
 16  1  1  0
 16 17  1  0
  1  2  2  0
  1 11  1  0
  2  3  1  0
  3  4  1  0
  3  8  1  0
  4  5  2  0
  4  6  1  0
  6 19  1  0
  6  7  1  0
 19 20  2  0
 19 24  1  0
 20 21  1  0
 21 22  2  0
 22 23  1  0
 23 24  2  0
  7  8  2  0
  8  9  1  0
  9 10  2  0
  9 11  1  0
 17 18  2  0
M  END
>  <minimizedAffinity>  (266) 
-8.74917

$$$$
data/200k_reference_output/data/smiles/43816.pdb
     RDKit          3D

 24 26  0  0  0  0  0  0  0  0999 V2000
   67.7901   44.9428   55.2617 N   0  0  0  0  0  0  0  0  0  0  0  0
   68.2998   46.2740   55.3292 C   0  0  0  0  0  0  0  0  0  0  0  0
   68.3734   46.9041   56.4349 N   0  0  0  0  0  0  0  0  0  0  0  0
   68.8489   48.2205   56.6787 C   0  0  0  0  0  0  0  0  0  0  0  0
   70.0389   48.1289   57.6525 C   0  0  0  0  0  0  0  0  0  0  0  0
   67.8088   49.0465   57.4495 C   0  0  0  0  0  0  0  0  0  0  0  0
   69.3256   48.9913   55.5008 C   0  0  0  0  0  0  0  0  0  0  0  0
   69.2420   48.2542   54.2188 C   0  0  0  0  0  0  0  0  0  0  0  0
   69.6890   48.9534   53.0950 C   0  0  0  0  0  0  0  0  0  0  0  0
   69.6395   48.3321   51.8692 C   0  0  0  0  0  0  0  0  0  0  0  0
   69.1512   47.0304   51.7614 C   0  0  0  0  0  0  0  0  0  0  0  0
   68.7121   46.3492   52.8771 C   0  0  0  0  0  0  0  0  0  0  0  0
   68.7577   46.9629   54.1069 C   0  0  0  0  0  0  0  0  0  0  0  0
   67.8445   42.6513   56.2013 C   0  0  0  0  0  0  0  0  0  0  0  0
   66.7429   42.4292   55.6178 O   0  0  0  0  0  0  0  0  0  0  0  0
   68.4060   43.9327   56.0361 N   0  0  0  0  0  0  0  0  0  0  0  0
   69.5481   39.4489   58.5036 C   0  0  0  0  0  0  0  0  0  0  0  0
   70.1428   40.6902   58.4460 C   0  0  0  0  0  0  0  0  0  0  0  0
   69.5951   41.7352   57.6993 C   0  0  0  0  0  0  0  0  0  0  0  0
   68.4274   41.5665   56.9853 C   0  0  0  0  0  0  0  0  0  0  0  0
   67.8404   40.3182   57.0507 C   0  0  0  0  0  0  0  0  0  0  0  0
   68.3820   39.2873   57.7879 C   0  0  0  0  0  0  0  0  0  0  0  0
   71.1729   37.6452   58.7283 C   0  0  0  0  0  0  0  0  0  0  0  0
   70.1025   38.4084   59.2531 O   0  0  0  0  0  0  0  0  0  0  0  0
 23 24  1  0
 24 17  1  0
 17 18  2  0
 17 22  1  0
 18 19  1  0
 19 20  2  0
 20 14  1  0
 20 21  1  0
 14 15  2  0
 14 16  1  0
 16  1  1  0
  1  2  1  0
  2  3  2  0
  2 13  1  0
  3  4  1  0
  4  5  1  0
  4  6  1  0
  4  7  1  0
  7  8  1  0
  8  9  2  0
  8 13  1  0
  9 10  1  0
 10 11  2  0
 11 12  1  0
 12 13  2  0
 21 22  2  0
M  CHG  1   3   1
M  END
>  <minimizedAffinity>  (267) 
-8.74883

$$$$
data/200k_reference_output/data/smiles/67692.pdb
     RDKit          3D

 23 26  0  0  0  0  0  0  0  0999 V2000
   68.7464   47.2468   56.1108 C   0  0  0  0  0  0  0  0  0  0  0  0
   70.2048   49.2222   51.0314 O   0  0  0  0  0  0  0  0  0  0  0  0
   69.8313   48.7338   52.2733 C   0  0  0  0  0  0  0  0  0  0  0  0
   70.2762   49.3436   53.4118 C   0  0  0  0  0  0  0  0  0  0  0  0
   69.9336   48.8974   54.6551 C   0  0  0  0  0  0  0  0  0  0  0  0
   69.1074   47.7893   54.7926 C   0  0  0  0  0  0  0  0  0  0  0  0
   68.6583   47.1743   53.6456 C   0  0  0  0  0  0  0  0  0  0  0  0
   67.8307   46.0637   53.7049 C   0  0  0  0  0  0  0  0  0  0  0  0
   67.3855   45.4549   52.5586 C   0  0  0  0  0  0  0  0  0  0  0  0
   67.7869   45.9810   51.3420 C   0  0  0  0  0  0  0  0  0  0  0  0
   68.5790   47.0421   51.2701 N   0  0  0  0  0  0  0  0  0  0  0  0
   69.0073   47.6283   52.4026 C   0  0  0  0  0  0  0  0  0  0  0  0
   67.5896   47.6504   56.7391 N   0  0  0  0  0  0  0  0  0  0  0  0
   67.4514   48.6786   57.6535 C   0  0  0  0  0  0  0  0  0  0  0  0
   68.2327   49.9103   57.4329 C   0  0  0  0  0  0  0  0  0  0  0  0
   67.7812   50.9210   56.5752 C   0  0  0  0  0  0  0  0  0  0  0  0
   68.4867   52.0892   56.3864 C   0  0  0  0  0  0  0  0  0  0  0  0
   69.6883   52.2859   57.0646 C   0  0  0  0  0  0  0  0  0  0  0  0
   70.1273   51.2914   57.9052 C   0  0  0  0  0  0  0  0  0  0  0  0
   69.4181   50.1298   58.0874 C   0  0  0  0  0  0  0  0  0  0  0  0
   71.3410   51.7843   58.4242 O   0  0  0  0  0  0  0  0  0  0  0  0
   71.8480   52.7305   57.4695 C   0  0  0  0  0  0  0  0  0  0  0  0
   70.6099   53.3376   57.0818 O   0  0  0  0  0  0  0  0  0  0  0  0
  2  3  1  0
  3  4  2  0
  3 12  1  0
  4  5  1  0
  5  6  2  0
  6  1  1  0
  6  7  1  0
  1 13  1  0
 13 14  1  0
 14 15  1  0
 15 16  2  0
 15 20  1  0
 16 17  1  0
 17 18  2  0
 18 19  1  0
 18 23  1  0
 19 20  2  0
 19 21  1  0
 21 22  1  0
 22 23  1  0
  7  8  1  0
  7 12  2  0
  8  9  2  0
  9 10  1  0
 10 11  2  0
 11 12  1  0
M  CHG  1  13   1
M  END
>  <minimizedAffinity>  (268) 
-8.74859

$$$$
data/200k_reference_output/data/smiles/21942.pdb
     RDKit          3D

 22 23  0  0  0  0  0  0  0  0999 V2000
   71.5972   49.9343   53.9824 N   0  0  0  0  0  0  0  0  0  0  0  0
   70.4939   50.7192   53.5585 C   0  0  0  0  0  0  0  0  0  0  0  0
   69.6434   50.2137   52.7326 N   0  0  0  0  0  0  0  0  0  0  0  0
   69.7782   48.8992   52.2354 C   0  0  0  0  0  0  0  0  0  0  0  0
   70.4560   48.7086   51.1696 O   0  0  0  0  0  0  0  0  0  0  0  0
   69.1818   47.7549   52.8808 C   0  0  0  0  0  0  0  0  0  0  0  0
   69.3578   47.5287   54.2399 C   0  0  0  0  0  0  0  0  0  0  0  0
   68.8167   46.4640   54.9013 C   0  0  0  0  0  0  0  0  0  0  0  0
   69.1011   46.2673   56.6313 Cl  0  0  0  0  0  0  0  0  0  0  0  0
   68.0507   45.5504   54.1985 C   0  0  0  0  0  0  0  0  0  0  0  0
   67.8730   45.7718   52.8468 C   0  0  0  0  0  0  0  0  0  0  0  0
   68.4168   46.8438   52.1778 C   0  0  0  0  0  0  0  0  0  0  0  0
   68.2193   47.0382   50.8130 O   0  0  0  0  0  0  0  0  0  0  0  0
   70.2741   52.0449   53.9985 N   0  0  0  0  0  0  0  0  0  0  0  0
   69.0028   52.3729   54.5833 C   0  0  0  0  0  0  0  0  0  0  0  0
   69.1053   52.4478   56.1143 C   0  0  0  0  0  0  0  0  0  0  0  0
   68.3681   51.3440   56.7469 C   0  0  0  0  0  0  0  0  0  0  0  0
   67.0632   51.4835   57.1748 C   0  0  0  0  0  0  0  0  0  0  0  0
   66.3798   50.4536   57.7652 C   0  0  0  0  0  0  0  0  0  0  0  0
   66.9807   49.2214   57.9553 C   0  0  0  0  0  0  0  0  0  0  0  0
   68.2779   49.0552   57.5388 C   0  0  0  0  0  0  0  0  0  0  0  0
   68.9605   50.0942   56.9462 C   0  0  0  0  0  0  0  0  0  0  0  0
  1  2  1  0
  2  3  2  0
  2 14  1  0
  3  4  1  0
  4  5  2  0
  4  6  1  0
  6  7  2  0
  6 12  1  0
  7  8  1  0
  8  9  1  0
  8 10  2  0
 10 11  1  0
 11 12  2  0
 12 13  1  0
 14 15  1  0
 15 16  1  0
 16 17  1  0
 17 18  2  0
 17 22  1  0
 18 19  1  0
 19 20  2  0
 20 21  1  0
 21 22  2  0
M  CHG  1   3   1
M  END
>  <minimizedAffinity>  (269) 
-8.74825

$$$$
data/200k_reference_output/data/smiles/32798.pdb
     RDKit          3D

 23 25  0  0  0  0  0  0  0  0999 V2000
   73.1056   51.4972   55.0748 C   0  0  0  0  0  0  0  0  0  0  0  0
   72.7783   52.4964   55.9596 C   0  0  0  0  0  0  0  0  0  0  0  0
   71.4665   52.8852   56.0839 C   0  0  0  0  0  0  0  0  0  0  0  0
   71.1294   53.7897   56.8769 O   0  0  0  0  0  0  0  0  0  0  0  0
   70.5169   52.2442   55.3003 C   0  0  0  0  0  0  0  0  0  0  0  0
   69.1749   52.6162   55.3747 C   0  0  0  0  0  0  0  0  0  0  0  0
   68.2282   52.0017   54.5931 C   0  0  0  0  0  0  0  0  0  0  0  0
   68.6170   51.0086   53.7300 C   0  0  0  0  0  0  0  0  0  0  0  0
   69.9396   50.5826   53.6015 C   0  0  0  0  0  0  0  0  0  0  0  0
   70.8415   51.2398   54.4116 C   0  0  0  0  0  0  0  0  0  0  0  0
   72.1456   50.8960   54.3270 N   0  0  0  0  0  0  0  0  0  0  0  0
   75.4306   51.7658   55.3882 O   0  0  0  0  0  0  0  0  0  0  0  0
   74.4961   51.0762   54.9346 C   0  0  0  0  0  0  0  0  0  0  0  0
   74.8264   49.8940   54.2913 O   0  0  0  0  0  0  0  0  0  0  0  0
   70.2612   49.2947   52.5513 S   0  0  0  0  0  0  0  0  0  0  0  0
   69.7721   49.6122   51.1521 O   0  0  0  0  0  0  0  0  0  0  0  0
   71.6217   48.7672   52.4405 O   0  0  0  0  0  0  0  0  0  0  0  0
   69.2826   47.9217   53.0605 C   0  0  0  0  0  0  0  0  0  0  0  0
   68.7409   47.0519   52.1515 C   0  0  0  0  0  0  0  0  0  0  0  0
   67.9715   45.9524   52.5136 C   0  0  0  0  0  0  0  0  0  0  0  0
   67.7364   45.7213   53.8481 C   0  0  0  0  0  0  0  0  0  0  0  0
   68.2883   46.6061   54.7501 C   0  0  0  0  0  0  0  0  0  0  0  0
   69.0468   47.6884   54.4059 C   0  0  0  0  0  0  0  0  0  0  0  0
 12 13  2  0
 13 14  1  0
 13  1  1  0
  1  2  2  0
  1 11  1  0
  2  3  1  0
  3  4  2  0
  3  5  1  0
  5  6  1  0
  5 10  2  0
  6  7  2  0
  7  8  1  0
  8  9  2  0
  9 15  1  0
  9 10  1  0
 15 16  2  0
 15 17  2  0
 15 18  1  0
 18 19  2  0
 18 23  1  0
 19 20  1  0
 20 21  2  0
 21 22  1  0
 22 23  2  0
 10 11  1  0
M  END
>  <minimizedAffinity>  (270) 
-8.74810

$$$$
data/200k_reference_output/data/smiles/50115.pdb
     RDKit          3D

 23 25  0  0  0  0  0  0  0  0999 V2000
   71.8608   40.7212   59.6671 C   0  0  0  0  0  0  0  0  0  0  0  0
   70.6302   40.5472   58.8500 C   0  0  0  0  0  0  0  0  0  0  0  0
   69.9526   39.3549   58.7789 C   0  0  0  0  0  0  0  0  0  0  0  0
   68.8095   39.1774   58.0248 C   0  0  0  0  0  0  0  0  0  0  0  0
   68.3216   40.2569   57.3044 C   0  0  0  0  0  0  0  0  0  0  0  0
   68.9828   41.4726   57.3549 C   0  0  0  0  0  0  0  0  0  0  0  0
   70.1296   41.6096   58.1259 C   0  0  0  0  0  0  0  0  0  0  0  0
   68.3000   42.4572   56.5285 C   0  0  0  0  0  0  0  0  0  0  0  0
   68.6006   43.7015   56.3129 N   0  0  0  0  0  0  0  0  0  0  0  0
   67.1552   41.7657   55.9513 C   0  0  0  0  0  0  0  0  0  0  0  0
   66.3338   42.3017   55.1803 O   0  0  0  0  0  0  0  0  0  0  0  0
   67.1914   40.4209   56.4406 N   0  0  0  0  0  0  0  0  0  0  0  0
   67.7980   44.4804   55.4721 N   0  0  0  0  0  0  0  0  0  0  0  0
   68.3038   45.6674   54.8547 C   0  0  0  0  0  0  0  0  0  0  0  0
   68.2675   45.8602   53.4917 C   0  0  0  0  0  0  0  0  0  0  0  0
   68.7592   47.0095   52.9090 C   0  0  0  0  0  0  0  0  0  0  0  0
   69.3119   48.0206   53.6675 C   0  0  0  0  0  0  0  0  0  0  0  0
   69.3517   47.8351   55.0331 C   0  0  0  0  0  0  0  0  0  0  0  0
   68.8557   46.6779   55.6135 C   0  0  0  0  0  0  0  0  0  0  0  0
   69.9346   49.4812   52.9130 S   0  0  0  0  0  0  0  0  0  0  0  0
   69.8721   49.3808   51.1974 N   0  0  0  0  0  0  0  0  0  0  0  0
   69.1219   50.6565   53.3729 O   0  0  0  0  0  0  0  0  0  0  0  0
   71.3681   49.7122   53.2994 O   0  0  0  0  0  0  0  0  0  0  0  0
  1  2  1  0
  2  3  2  0
  2  7  1  0
  3  4  1  0
  4  5  2  0
  5  6  1  0
  5 12  1  0
  6  7  2  0
  6  8  1  0
  8  9  2  0
  8 10  1  0
  9 13  1  0
 13 14  1  0
 14 15  2  0
 14 19  1  0
 15 16  1  0
 16 17  2  0
 17 20  1  0
 17 18  1  0
 20 21  1  0
 20 22  2  0
 20 23  2  0
 18 19  2  0
 10 11  2  0
 10 12  1  0
M  END
>  <minimizedAffinity>  (271) 
-8.74585

$$$$
data/200k_reference_output/data/smiles/84730.pdb
     RDKit          3D

 25 28  0  0  0  0  0  0  0  0999 V2000
   70.2108   39.9648   58.2293 C   0  0  0  0  0  0  0  0  0  0  0  0
   68.9630   40.3791   57.7999 C   0  0  0  0  0  0  0  0  0  0  0  0
   68.7510   41.6895   57.4156 C   0  0  0  0  0  0  0  0  0  0  0  0
   69.7495   42.6401   57.4379 C   0  0  0  0  0  0  0  0  0  0  0  0
   70.9947   42.2354   57.8649 C   0  0  0  0  0  0  0  0  0  0  0  0
   71.2043   40.9225   58.2488 C   0  0  0  0  0  0  0  0  0  0  0  0
   69.0766   38.3963   60.6929 C   0  0  0  0  0  0  0  0  0  0  0  0
   70.0053   37.9133   59.6964 N   0  0  0  0  0  0  0  0  0  0  0  0
   70.4850   38.5953   58.6443 C   0  0  0  0  0  0  0  0  0  0  0  0
   71.3228   37.7055   58.0077 C   0  0  0  0  0  0  0  0  0  0  0  0
   71.3348   36.5292   58.6724 N   0  0  0  0  0  0  0  0  0  0  0  0
   71.9660   35.3600   58.4805 C   0  0  0  0  0  0  0  0  0  0  0  0
   71.8177   34.2821   59.3086 C   0  0  0  0  0  0  0  0  0  0  0  0
   70.9797   34.3895   60.3959 C   0  0  0  0  0  0  0  0  0  0  0  0
   70.3322   35.5870   60.5928 C   0  0  0  0  0  0  0  0  0  0  0  0
   70.5089   36.6531   59.7331 C   0  0  0  0  0  0  0  0  0  0  0  0
   69.4772   44.0169   57.0216 C   0  0  0  0  0  0  0  0  0  0  0  0
   68.5171   44.2951   56.2074 N   0  0  0  0  0  0  0  0  0  0  0  0
   68.1791   45.5418   55.7567 N   0  0  0  0  0  0  0  0  0  0  0  0
   68.1947   45.8289   54.3681 C   0  0  0  0  0  0  0  0  0  0  0  0
   68.8418   46.8925   53.7586 C   0  0  0  0  0  0  0  0  0  0  0  0
   68.5932   46.7852   52.4187 C   0  0  0  0  0  0  0  0  0  0  0  0
   69.0457   47.6456   51.3841 N   0  0  0  0  0  0  0  0  0  0  0  0
   67.8278   45.6937   52.2671 N   0  0  0  0  0  0  0  0  0  0  0  0
   67.5785   45.1088   53.4218 N   0  0  0  0  0  0  0  0  0  0  0  0
  7  8  1  0
  8  9  1  0
  8 16  2  0
  9  1  1  0
  9 10  2  0
  1  2  2  0
  1  6  1  0
  2  3  1  0
  3  4  2  0
  4 17  1  0
  4  5  1  0
 17 18  2  0
 18 19  1  0
 19 20  1  0
 20 21  1  0
 20 25  2  0
 21 22  2  0
 22 23  1  0
 22 24  1  0
 24 25  1  0
  5  6  2  0
 10 11  1  0
 11 12  1  0
 11 16  1  0
 12 13  2  0
 13 14  1  0
 14 15  2  0
 15 16  1  0
M  CHG  1   8   1
M  END
>  <minimizedAffinity>  (272) 
-8.74269

$$$$
data/reference_output_2/data/smiles/100754.pdb
     RDKit          3D

 24 26  0  0  0  0  0  0  0  0999 V2000
   69.4607   47.8385   56.1394 C   0  0  0  0  0  0  0  0  0  0  0  0
   68.5255   48.8594   56.6546 C   0  0  0  0  0  0  0  0  0  0  0  0
   68.6947   50.2051   56.2987 C   0  0  0  0  0  0  0  0  0  0  0  0
   67.8599   51.1959   56.7453 C   0  0  0  0  0  0  0  0  0  0  0  0
   66.7998   50.8804   57.5819 C   0  0  0  0  0  0  0  0  0  0  0  0
   66.6193   49.5507   57.9430 C   0  0  0  0  0  0  0  0  0  0  0  0
   67.4756   48.5724   57.4787 C   0  0  0  0  0  0  0  0  0  0  0  0
   69.0468   47.4539   54.7794 C   0  0  0  0  0  0  0  0  0  0  0  0
   69.5920   48.0625   53.6590 C   0  0  0  0  0  0  0  0  0  0  0  0
   69.2294   47.7092   52.3788 C   0  0  0  0  0  0  0  0  0  0  0  0
   68.2973   46.7216   52.1655 C   0  0  0  0  0  0  0  0  0  0  0  0
   67.7446   46.1052   53.2771 C   0  0  0  0  0  0  0  0  0  0  0  0
   68.1052   46.4566   54.5723 C   0  0  0  0  0  0  0  0  0  0  0  0
   69.8138   46.7471   57.0670 C   0  0  0  0  0  0  0  0  0  0  0  0
   69.7445   44.2080   57.2763 C   0  0  0  0  0  0  0  0  0  0  0  0
   70.9097   44.1677   57.7580 O   0  0  0  0  0  0  0  0  0  0  0  0
   69.2132   45.4737   56.9470 N   0  0  0  0  0  0  0  0  0  0  0  0
   68.3835   39.4272   57.8454 C   0  0  0  0  0  0  0  0  0  0  0  0
   68.4204   40.8089   57.3685 N   0  0  0  0  0  0  0  0  0  0  0  0
   69.2718   41.7699   57.7608 C   0  0  0  0  0  0  0  0  0  0  0  0
   69.0010   42.9700   57.0809 C   0  0  0  0  0  0  0  0  0  0  0  0
   67.9452   42.6633   56.2691 C   0  0  0  0  0  0  0  0  0  0  0  0
   67.3850   43.4612   55.4834 O   0  0  0  0  0  0  0  0  0  0  0  0
   67.6231   41.3495   56.4713 N   0  0  0  0  0  0  0  0  0  0  0  0
 18 19  1  0
 19 20  1  0
 19 24  1  0
 20 21  2  0
 21 15  1  0
 21 22  1  0
 15 16  2  0
 15 17  1  0
 17 14  1  0
 14  1  1  0
  1  2  1  0
  1  8  1  0
  2  3  2  0
  2  7  1  0
  3  4  1  0
  4  5  2  0
  5  6  1  0
  6  7  2  0
  8  9  2  0
  8 13  1  0
  9 10  1  0
 10 11  2  0
 11 12  1  0
 12 13  2  0
 22 23  2  0
 22 24  1  0
M  END
>  <minimizedAffinity>  (273) 
-8.74192

$$$$
data/reference_output_2/data/smiles/112713.pdb
     RDKit          3D

 24 27  0  0  0  0  0  0  0  0999 V2000
   70.1860   42.1810   57.9029 C   0  0  0  0  0  0  0  0  0  0  0  0
   69.3010   42.7173   57.0432 N   0  0  0  0  0  0  0  0  0  0  0  0
   69.3895   44.0644   57.0173 C   0  0  0  0  0  0  0  0  0  0  0  0
   68.7445   45.0438   56.3426 N   0  0  0  0  0  0  0  0  0  0  0  0
   69.0179   46.3486   56.4922 C   0  0  0  0  0  0  0  0  0  0  0  0
   70.0092   46.6837   57.3818 C   0  0  0  0  0  0  0  0  0  0  0  0
   70.6573   45.6741   58.0610 C   0  0  0  0  0  0  0  0  0  0  0  0
   71.5709   45.9526   58.8834 O   0  0  0  0  0  0  0  0  0  0  0  0
   70.3646   44.3686   57.8937 N   0  0  0  0  0  0  0  0  0  0  0  0
   70.8399   43.2407   58.4227 N   0  0  0  0  0  0  0  0  0  0  0  0
   71.2392   36.6367   59.1632 C   0  0  0  0  0  0  0  0  0  0  0  0
   70.9600   38.0810   58.8345 C   0  0  0  0  0  0  0  0  0  0  0  0
   71.9726   38.9949   58.7069 C   0  0  0  0  0  0  0  0  0  0  0  0
   71.6980   40.3187   58.4043 C   0  0  0  0  0  0  0  0  0  0  0  0
   70.4085   40.7721   58.2199 C   0  0  0  0  0  0  0  0  0  0  0  0
   69.4046   39.8387   58.3520 C   0  0  0  0  0  0  0  0  0  0  0  0
   69.6627   38.5141   58.6536 C   0  0  0  0  0  0  0  0  0  0  0  0
   68.2977   47.4144   55.7419 C   0  0  0  0  0  0  0  0  0  0  0  0
   68.5135   47.2133   54.2686 C   0  0  0  0  0  0  0  0  0  0  0  0
   69.4204   48.0324   53.6252 C   0  0  0  0  0  0  0  0  0  0  0  0
   69.6843   47.9207   52.2766 C   0  0  0  0  0  0  0  0  0  0  0  0
   69.0126   46.9546   51.5555 C   0  0  0  0  0  0  0  0  0  0  0  0
   68.1126   46.1450   52.2047 C   0  0  0  0  0  0  0  0  0  0  0  0
   67.8402   46.2470   53.5560 C   0  0  0  0  0  0  0  0  0  0  0  0
 11 12  1  0
 12 13  2  0
 12 17  1  0
 13 14  1  0
 14 15  2  0
 15  1  1  0
 15 16  1  0
  1  2  1  0
  1 10  2  0
  2  3  2  0
  3  4  1  0
  3  9  1  0
  4  5  1  0
  5 18  1  0
  5  6  2  0
 18 19  1  0
 19 20  2  0
 19 24  1  0
 20 21  1  0
 21 22  2  0
 22 23  1  0
 23 24  2  0
  6  7  1  0
  7  8  2  0
  7  9  1  0
  9 10  1  0
 16 17  2  0
M  END
>  <minimizedAffinity>  (274) 
-8.74097

$$$$
data/200k_reference_output/data/smiles/46916.pdb
     RDKit          3D

 24 26  0  0  0  0  0  0  0  0999 V2000
   68.9600   46.6736   56.5093 C   0  0  0  0  0  0  0  0  0  0  0  0
   68.9106   47.0060   57.7684 O   0  0  0  0  0  0  0  0  0  0  0  0
   68.6576   47.7029   55.5989 N   0  0  0  0  0  0  0  0  0  0  0  0
   68.4304   49.0282   56.1393 C   0  0  0  0  0  0  0  0  0  0  0  0
   67.6281   48.9304   57.2485 C   0  0  0  0  0  0  0  0  0  0  0  0
   67.3107   50.0933   57.9128 C   0  0  0  0  0  0  0  0  0  0  0  0
   67.7986   51.3242   57.4579 C   0  0  0  0  0  0  0  0  0  0  0  0
   68.6022   51.3994   56.3412 C   0  0  0  0  0  0  0  0  0  0  0  0
   68.9411   50.2372   55.6463 C   0  0  0  0  0  0  0  0  0  0  0  0
   69.7691   50.5031   54.5425 N   0  0  0  0  0  0  0  0  0  0  0  0
   70.4067   51.8151   54.5536 C   0  0  0  0  0  0  0  0  0  0  0  0
   70.1463   49.5062   53.1855 S   0  0  0  0  0  0  0  0  0  0  0  0
   69.7676   50.2984   51.9436 O   0  0  0  0  0  0  0  0  0  0  0  0
   71.6237   49.2524   53.0800 O   0  0  0  0  0  0  0  0  0  0  0  0
   69.2293   48.0373   53.1828 C   0  0  0  0  0  0  0  0  0  0  0  0
   69.0912   47.5065   51.9006 C   0  0  0  0  0  0  0  0  0  0  0  0
   68.3544   46.3411   51.6945 C   0  0  0  0  0  0  0  0  0  0  0  0
   67.7536   45.7056   52.7686 C   0  0  0  0  0  0  0  0  0  0  0  0
   67.8694   46.2006   54.0414 C   0  0  0  0  0  0  0  0  0  0  0  0
   68.6201   47.3709   54.2059 C   0  0  0  0  0  0  0  0  0  0  0  0
   69.3412   45.2864   56.2542 C   0  0  0  0  0  0  0  0  0  0  0  0
   70.8968   44.8080   58.0333 C   0  0  0  0  0  0  0  0  0  0  0  0
   69.5785   44.5628   57.5244 N   0  0  0  0  0  0  0  0  0  0  0  0
   69.3136   43.1685   57.3424 C   0  0  0  0  0  0  0  0  0  0  0  0
 22 23  1  0
 23 24  1  0
 23 21  1  0
 21  1  1  0
  1  2  2  0
  1  3  1  0
  3  4  1  0
  3 20  1  0
  4  5  2  0
  4  9  1  0
  5  6  1  0
  6  7  2  0
  7  8  1  0
  8  9  2  0
  9 10  1  0
 10 11  1  0
 10 12  1  0
 12 13  2  0
 12 14  2  0
 12 15  1  0
 15 16  2  0
 15 20  1  0
 16 17  1  0
 17 18  2  0
 18 19  1  0
 19 20  2  0
M  CHG  1  23   1
M  END
>  <minimizedAffinity>  (275) 
-8.73857

$$$$
data/reference_output_2/data/smiles/119739.pdb
     RDKit          3D

 23 24  0  0  0  0  0  0  0  0999 V2000
   69.0098   44.9908   56.5522 C   0  0  0  0  0  0  0  0  0  0  0  0
   70.2315   45.7262   57.4780 S   0  0  0  0  0  0  0  0  0  0  0  0
   67.0024   43.0981   55.5778 O   0  0  0  0  0  0  0  0  0  0  0  0
   67.9258   42.7456   56.2841 C   0  0  0  0  0  0  0  0  0  0  0  0
   68.9114   43.6265   56.7730 N   0  0  0  0  0  0  0  0  0  0  0  0
   68.0356   41.2955   56.6662 C   0  0  0  0  0  0  0  0  0  0  0  0
   68.3704   41.2179   58.1326 C   0  0  0  0  0  0  0  0  0  0  0  0
   69.5694   40.3743   58.3076 C   0  0  0  0  0  0  0  0  0  0  0  0
   70.8176   40.9632   58.3862 C   0  0  0  0  0  0  0  0  0  0  0  0
   71.9333   40.1526   58.5521 C   0  0  0  0  0  0  0  0  0  0  0  0
   71.7696   38.7756   58.6337 C   0  0  0  0  0  0  0  0  0  0  0  0
   70.5242   38.1970   58.5539 C   0  0  0  0  0  0  0  0  0  0  0  0
   69.4236   39.0139   58.3896 C   0  0  0  0  0  0  0  0  0  0  0  0
   68.3211   45.8472   55.7443 N   0  0  0  0  0  0  0  0  0  0  0  0
   68.3803   46.2120   54.3924 C   0  0  0  0  0  0  0  0  0  0  0  0
   67.6466   45.5002   53.4353 C   0  0  0  0  0  0  0  0  0  0  0  0
   67.7386   45.8346   52.1003 C   0  0  0  0  0  0  0  0  0  0  0  0
   68.5712   46.8884   51.7208 C   0  0  0  0  0  0  0  0  0  0  0  0
   69.3038   47.6059   52.6421 C   0  0  0  0  0  0  0  0  0  0  0  0
   69.2050   47.2642   53.9732 C   0  0  0  0  0  0  0  0  0  0  0  0
   70.1661   48.7051   52.2056 C   0  0  0  0  0  0  0  0  0  0  0  0
   69.8977   49.3392   51.1565 O   0  0  0  0  0  0  0  0  0  0  0  0
   71.2934   49.0900   52.9124 O   0  0  0  0  0  0  0  0  0  0  0  0
  3  4  2  0
  4  6  1  0
  4  5  1  0
  6  7  1  0
  7  8  1  0
  8  9  2  0
  8 13  1  0
  9 10  1  0
 10 11  2  0
 11 12  1  0
 12 13  2  0
  5  1  1  0
  1  2  2  0
  1 14  1  0
 14 15  1  0
 15 16  2  0
 15 20  1  0
 16 17  1  0
 17 18  2  0
 18 19  1  0
 19 21  1  0
 19 20  2  0
 21 22  2  0
 21 23  1  0
M  END
>  <minimizedAffinity>  (276) 
-8.73705

$$$$
data/200k_reference_output/data/smiles/9715.pdb
     RDKit          3D

 23 25  0  0  0  0  0  0  0  0999 V2000
   72.6401   40.1409   59.5226 C   0  0  0  0  0  0  0  0  0  0  0  0
   71.3009   40.2010   58.8582 C   0  0  0  0  0  0  0  0  0  0  0  0
   70.4795   39.1017   58.7834 C   0  0  0  0  0  0  0  0  0  0  0  0
   69.2438   39.1569   58.1712 C   0  0  0  0  0  0  0  0  0  0  0  0
   68.7800   40.3315   57.6046 C   0  0  0  0  0  0  0  0  0  0  0  0
   69.5963   41.4420   57.6738 C   0  0  0  0  0  0  0  0  0  0  0  0
   70.8347   41.3722   58.2915 C   0  0  0  0  0  0  0  0  0  0  0  0
   68.9568   42.5891   57.0312 C   0  0  0  0  0  0  0  0  0  0  0  0
   69.3852   43.7880   56.8874 N   0  0  0  0  0  0  0  0  0  0  0  0
   67.6700   42.1012   56.5523 C   0  0  0  0  0  0  0  0  0  0  0  0
   66.8170   42.7930   55.9394 O   0  0  0  0  0  0  0  0  0  0  0  0
   67.6087   40.7284   56.9235 N   0  0  0  0  0  0  0  0  0  0  0  0
   68.5866   44.7302   56.2273 N   0  0  0  0  0  0  0  0  0  0  0  0
   68.9337   46.1159   56.2857 C   0  0  0  0  0  0  0  0  0  0  0  0
   69.9551   46.4414   56.9341 O   0  0  0  0  0  0  0  0  0  0  0  0
   68.1423   47.1694   55.6157 C   0  0  0  0  0  0  0  0  0  0  0  0
   68.7831   47.4810   54.3158 C   0  0  0  0  0  0  0  0  0  0  0  0
   68.6434   46.7166   53.1973 C   0  0  0  0  0  0  0  0  0  0  0  0
   69.2813   47.0786   52.0075 C   0  0  0  0  0  0  0  0  0  0  0  0
   70.0566   48.2214   51.9736 C   0  0  0  0  0  0  0  0  0  0  0  0
   70.6793   48.5609   50.7812 O   0  0  0  0  0  0  0  0  0  0  0  0
   70.2097   49.0095   53.0941 C   0  0  0  0  0  0  0  0  0  0  0  0
   69.5715   48.6337   54.2578 C   0  0  0  0  0  0  0  0  0  0  0  0
  1  2  1  0
  2  3  2  0
  2  7  1  0
  3  4  1  0
  4  5  2  0
  5  6  1  0
  5 12  1  0
  6  7  2  0
  6  8  1  0
  8  9  2  0
  8 10  1  0
  9 13  1  0
 13 14  1  0
 14 15  2  0
 14 16  1  0
 16 17  1  0
 17 18  2  0
 17 23  1  0
 18 19  1  0
 19 20  2  0
 20 21  1  0
 20 22  1  0
 22 23  2  0
 10 11  2  0
 10 12  1  0
M  END
>  <minimizedAffinity>  (277) 
-8.73678

$$$$
data/200k_reference_output/data/smiles/50935.pdb
     RDKit          3D

 22 24  0  0  0  0  0  0  0  0999 V2000
   69.9522   46.4806   57.4079 O   0  0  0  0  0  0  0  0  0  0  0  0
   69.0788   46.3216   56.5154 C   0  0  0  0  0  0  0  0  0  0  0  0
   68.6615   44.9860   56.2797 N   0  0  0  0  0  0  0  0  0  0  0  0
   69.1826   43.8946   56.9902 N   0  0  0  0  0  0  0  0  0  0  0  0
   68.6817   42.7153   56.9281 C   0  0  0  0  0  0  0  0  0  0  0  0
   67.5364   42.3276   56.1433 C   0  0  0  0  0  0  0  0  0  0  0  0
   66.8736   43.1212   55.4069 O   0  0  0  0  0  0  0  0  0  0  0  0
   67.3305   40.9455   56.3669 N   0  0  0  0  0  0  0  0  0  0  0  0
   68.3062   40.4353   57.2690 C   0  0  0  0  0  0  0  0  0  0  0  0
   68.5309   39.1788   57.7945 C   0  0  0  0  0  0  0  0  0  0  0  0
   69.5776   38.9276   58.6801 C   0  0  0  0  0  0  0  0  0  0  0  0
   70.3919   39.9878   59.0184 C   0  0  0  0  0  0  0  0  0  0  0  0
   70.1627   41.2441   58.4906 C   0  0  0  0  0  0  0  0  0  0  0  0
   69.1255   41.4904   57.6141 C   0  0  0  0  0  0  0  0  0  0  0  0
   68.5719   47.4987   55.8075 C   0  0  0  0  0  0  0  0  0  0  0  0
   68.6759   47.3224   54.3411 C   0  0  0  0  0  0  0  0  0  0  0  0
   69.4853   48.1090   53.5526 C   0  0  0  0  0  0  0  0  0  0  0  0
   69.5662   47.9268   52.1846 C   0  0  0  0  0  0  0  0  0  0  0  0
   68.8216   46.9319   51.5817 C   0  0  0  0  0  0  0  0  0  0  0  0
   67.9990   46.1240   52.3503 C   0  0  0  0  0  0  0  0  0  0  0  0
   67.0596   44.8664   51.5727 Cl  0  0  0  0  0  0  0  0  0  0  0  0
   67.9400   46.3357   53.7264 C   0  0  0  0  0  0  0  0  0  0  0  0
  1  2  2  0
  2 15  1  0
  2  3  1  0
 15 16  1  0
 16 17  2  0
 16 22  1  0
 17 18  1  0
 18 19  2  0
 19 20  1  0
 20 21  1  0
 20 22  2  0
  3  4  1  0
  4  5  2  0
  5  6  1  0
  5 14  1  0
  6  7  2  0
  6  8  1  0
  8  9  1  0
  9 10  1  0
  9 14  2  0
 10 11  2  0
 11 12  1  0
 12 13  2  0
 13 14  1  0
M  END
>  <minimizedAffinity>  (278) 
-8.73461

$$$$
data/reference_output_2/data/smiles/128366.pdb
     RDKit          3D

 24 26  0  0  0  0  0  0  0  0999 V2000
   70.4798   47.6299   57.3702 C   0  0  0  0  0  0  0  0  0  0  0  0
   70.0015   46.2486   57.1774 C   0  0  0  0  0  0  0  0  0  0  0  0
   70.5146   45.1821   57.9000 C   0  0  0  0  0  0  0  0  0  0  0  0
   69.8320   44.0792   57.4522 C   0  0  0  0  0  0  0  0  0  0  0  0
   69.9933   42.7727   57.8974 C   0  0  0  0  0  0  0  0  0  0  0  0
   69.2039   41.8193   57.3393 C   0  0  0  0  0  0  0  0  0  0  0  0
   68.3100   42.1995   56.3854 C   0  0  0  0  0  0  0  0  0  0  0  0
   68.1757   43.5162   55.9643 C   0  0  0  0  0  0  0  0  0  0  0  0
   68.9494   44.4477   56.5087 N   0  0  0  0  0  0  0  0  0  0  0  0
   69.0292   45.7988   56.3063 C   0  0  0  0  0  0  0  0  0  0  0  0
   71.5785   45.2506   58.9143 C   0  0  0  0  0  0  0  0  0  0  0  0
   71.5975   46.0309   59.8433 N   0  0  0  0  0  0  0  0  0  0  0  0
   71.8324   46.7385   60.8762 N   0  0  0  0  0  0  0  0  0  0  0  0
   73.0718   47.4139   61.2018 C   0  0  0  0  0  0  0  0  0  0  0  0
   73.1694   48.1534   62.4081 N   0  0  0  0  0  0  0  0  0  0  0  0
   74.0714   47.3589   60.4372 O   0  0  0  0  0  0  0  0  0  0  0  0
   68.2559   46.6362   55.3985 C   0  0  0  0  0  0  0  0  0  0  0  0
   67.3001   47.3296   55.8728 O   0  0  0  0  0  0  0  0  0  0  0  0
   68.4635   46.7717   53.9717 C   0  0  0  0  0  0  0  0  0  0  0  0
   67.8173   45.9822   53.0410 C   0  0  0  0  0  0  0  0  0  0  0  0
   68.0230   46.1632   51.7286 C   0  0  0  0  0  0  0  0  0  0  0  0
   68.8587   47.1084   51.2166 N   0  0  0  0  0  0  0  0  0  0  0  0
   69.5159   47.9081   52.0788 C   0  0  0  0  0  0  0  0  0  0  0  0
   69.3084   47.7283   53.4521 C   0  0  0  0  0  0  0  0  0  0  0  0
  1  2  1  0
  2  3  1  0
  2 10  2  0
  3 11  1  0
  3  4  2  0
 11 12  2  0
 12 13  1  0
 13 14  1  0
 14 15  1  0
 14 16  2  0
  4  5  1  0
  4  9  1  0
  5  6  2  0
  6  7  1  0
  7  8  2  0
  8  9  1  0
  9 10  1  0
 10 17  1  0
 17 18  2  0
 17 19  1  0
 19 20  2  0
 19 24  1  0
 20 21  1  0
 21 22  2  0
 22 23  1  0
 23 24  2  0
M  END
>  <minimizedAffinity>  (279) 
-8.73261

$$$$
data/reference_output_2/data/smiles/180660.pdb
     RDKit          3D

 24 26  0  0  0  0  0  0  0  0999 V2000
   72.2942   51.1866   54.6646 C   0  0  1  0  0  0  0  0  0  0  0  0
   75.9455   51.0084   55.6260 N   0  0  0  0  0  0  0  0  0  0  0  0
   74.5816   51.3294   55.6539 N   0  0  0  0  0  0  0  0  0  0  0  0
   73.7335   50.8505   54.6386 C   0  0  0  0  0  0  0  0  0  0  0  0
   74.2449   50.1384   53.7288 O   0  0  0  0  0  0  0  0  0  0  0  0
   71.6050   49.9353   54.4105 N   0  0  0  0  0  0  0  0  0  0  0  0
   70.4948   49.8526   53.5171 C   0  0  0  0  0  0  0  0  0  0  0  0
   70.1690   50.9457   52.9742 O   0  0  0  0  0  0  0  0  0  0  0  0
   69.7682   48.6258   53.2253 C   0  0  0  0  0  0  0  0  0  0  0  0
   68.9524   48.0119   54.1240 C   0  0  0  0  0  0  0  0  0  0  0  0
   68.2634   46.8299   53.8151 C   0  0  0  0  0  0  0  0  0  0  0  0
   68.3976   46.2541   52.5792 C   0  0  0  0  0  0  0  0  0  0  0  0
   69.2271   46.8765   51.6626 C   0  0  0  0  0  0  0  0  0  0  0  0
   69.9084   48.0531   51.9804 C   0  0  0  0  0  0  0  0  0  0  0  0
   71.9975   51.7630   56.0002 C   0  0  0  0  0  0  0  0  0  0  0  0
   70.6208   52.0515   56.3233 C   0  0  0  0  0  0  0  0  0  0  0  0
   70.0441   53.2978   56.1745 C   0  0  0  0  0  0  0  0  0  0  0  0
   68.7607   53.2494   56.5558 N   0  0  0  0  0  0  0  0  0  0  0  0
   68.4871   51.9929   56.9523 C   0  0  0  0  0  0  0  0  0  0  0  0
   67.3620   51.3520   57.4381 C   0  0  0  0  0  0  0  0  0  0  0  0
   67.3545   50.0098   57.7799 C   0  0  0  0  0  0  0  0  0  0  0  0
   68.5382   49.2832   57.6217 C   0  0  0  0  0  0  0  0  0  0  0  0
   69.6738   49.8941   57.1407 C   0  0  0  0  0  0  0  0  0  0  0  0
   69.6432   51.2271   56.8131 C   0  0  0  0  0  0  0  0  0  0  0  0
  2  3  1  0
  3  4  1  0
  4  5  2  0
  4  1  1  0
  1 15  1  1
  1  6  1  0
 15 16  1  0
 16 17  2  0
 16 24  1  0
 17 18  1  0
 18 19  1  0
 19 20  1  0
 19 24  2  0
 20 21  2  0
 21 22  1  0
 22 23  2  0
 23 24  1  0
  6  7  1  0
  7  8  2  0
  7  9  1  0
  9 10  2  0
  9 14  1  0
 10 11  1  0
 11 12  2  0
 12 13  1  0
 13 14  2  0
M  END
>  <minimizedAffinity>  (280) 
-8.73161

$$$$
data/reference_output_2/data/smiles/94511.pdb
     RDKit          3D

 25 27  0  0  0  0  0  0  0  0999 V2000
   69.4111   47.7540   56.2087 N   0  0  0  0  0  0  0  0  0  0  0  0
   69.9770   48.6607   55.4562 N   0  0  0  0  0  0  0  0  0  0  0  0
   69.8940   48.6826   54.0866 C   0  0  0  0  0  0  0  0  0  0  0  0
   69.1824   47.7104   53.4515 C   0  0  0  0  0  0  0  0  0  0  0  0
   69.0589   47.6681   52.0869 C   0  0  0  0  0  0  0  0  0  0  0  0
   68.3140   46.6318   51.5148 C   0  0  0  0  0  0  0  0  0  0  0  0
   67.6965   45.6521   52.2436 C   0  0  0  0  0  0  0  0  0  0  0  0
   67.8403   45.7231   53.6127 C   0  0  0  0  0  0  0  0  0  0  0  0
   68.5601   46.7184   54.2247 C   0  0  0  0  0  0  0  0  0  0  0  0
   68.7109   46.7951   55.5919 C   0  0  0  0  0  0  0  0  0  0  0  0
   68.1532   45.9048   56.3003 O   0  0  0  0  0  0  0  0  0  0  0  0
   70.5611   49.7443   53.3737 C   0  0  0  0  0  0  0  0  0  0  0  0
   71.8393   49.8222   53.5511 O   0  0  0  0  0  0  0  0  0  0  0  0
   70.0626   50.6914   52.5329 O   0  0  0  0  0  0  0  0  0  0  0  0
   69.5249   47.7961   57.6774 C   0  0  0  0  0  0  0  0  0  0  0  0
   72.4345   50.1766   58.5837 C   0  0  0  0  0  0  0  0  0  0  0  0
   71.0601   49.8015   58.2484 N   0  0  0  0  0  0  0  0  0  0  0  0
   70.8047   48.4311   58.0134 C   0  0  0  0  0  0  0  0  0  0  0  0
   71.7948   47.6116   58.0966 O   0  0  0  0  0  0  0  0  0  0  0  0
   70.0916   50.8699   58.1716 C   0  0  0  0  0  0  0  0  0  0  0  0
   68.7061   50.3986   58.2560 C   0  0  0  0  0  0  0  0  0  0  0  0
   67.7007   50.9407   57.3171 C   0  0  0  0  0  0  0  0  0  0  0  0
   68.1720   51.6739   56.1273 C   0  0  0  0  0  0  0  0  0  0  0  0
   69.3215   52.5527   56.4743 C   0  0  0  0  0  0  0  0  0  0  0  0
   70.4468   51.7228   56.9959 C   0  0  0  0  0  0  0  0  0  0  0  0
 16 17  1  0
 17 18  1  0
 17 20  1  0
 18 19  2  0
 18 15  1  0
 15  1  1  0
  1  2  1  0
  1 10  1  0
  2  3  2  0
  3 12  1  0
  3  4  1  0
 12 13  2  0
 12 14  1  0
  4  5  2  0
  4  9  1  0
  5  6  1  0
  6  7  2  0
  7  8  1  0
  8  9  2  0
  9 10  1  0
 10 11  2  0
 20 21  1  0
 20 25  1  0
 21 22  1  0
 22 23  1  0
 23 24  1  0
 24 25  1  0
M  END
>  <minimizedAffinity>  (281) 
-8.73127

$$$$
data/200k_reference_output/data/smiles/42709.pdb
     RDKit          3D

 25 27  0  0  0  0  0  0  0  0999 V2000
   70.3488   46.5935   57.9919 C   0  0  0  0  0  0  0  0  0  0  0  0
   70.6014   45.1490   58.0798 C   0  0  0  0  0  0  0  0  0  0  0  0
   69.5827   44.3626   58.0480 O   0  0  0  0  0  0  0  0  0  0  0  0
   71.8777   44.5234   58.1999 N   0  0  0  0  0  0  0  0  0  0  0  0
   71.9335   43.0765   58.2759 C   0  0  0  0  0  0  0  0  0  0  0  0
   73.0919   42.5023   57.4853 C   0  0  0  0  0  0  0  0  0  0  0  0
   74.3565   43.1179   57.9902 C   0  0  0  0  0  0  0  0  0  0  0  0
   75.4983   42.3850   58.0920 C   0  0  0  0  0  0  0  0  0  0  0  0
   76.6837   42.9465   58.5731 C   0  0  0  0  0  0  0  0  0  0  0  0
   76.6521   44.2719   58.9401 C   0  0  0  0  0  0  0  0  0  0  0  0
   75.4904   45.0089   58.8332 C   0  0  0  0  0  0  0  0  0  0  0  0
   74.3066   44.4319   58.3487 C   0  0  0  0  0  0  0  0  0  0  0  0
   73.1021   45.2700   58.2472 C   0  0  0  0  0  0  0  0  0  0  0  0
   69.0230   46.8248   57.5749 O   0  0  0  0  0  0  0  0  0  0  0  0
   68.4634   48.8681   56.8407 O   0  0  0  0  0  0  0  0  0  0  0  0
   68.7153   47.6787   56.5274 C   0  0  0  0  0  0  0  0  0  0  0  0
   68.6698   47.2934   55.1397 C   0  0  0  0  0  0  0  0  0  0  0  0
   68.0513   46.1675   54.6472 C   0  0  0  0  0  0  0  0  0  0  0  0
   68.0515   45.8624   53.2795 C   0  0  0  0  0  0  0  0  0  0  0  0
   68.6805   46.6941   52.3794 C   0  0  0  0  0  0  0  0  0  0  0  0
   69.3114   47.8354   52.8446 C   0  0  0  0  0  0  0  0  0  0  0  0
   69.2885   48.0961   54.1830 C   0  0  0  0  0  0  0  0  0  0  0  0
   69.9575   48.6867   51.9018 N   0  0  0  0  0  0  0  0  0  0  0  0
   70.5166   48.1365   50.9330 O   0  0  0  0  0  0  0  0  0  0  0  0
   69.9934   50.0337   52.0030 O   0  0  0  0  0  0  0  0  0  0  0  0
 15 16  2  0
 16 14  1  0
 16 17  1  0
 14  1  1  0
  1  2  1  0
  2  3  2  0
  2  4  1  0
  4  5  1  0
  4 13  1  0
  5  6  1  0
  6  7  1  0
  7  8  2  0
  7 12  1  0
  8  9  1  0
  9 10  2  0
 10 11  1  0
 11 12  2  0
 12 13  1  0
 17 18  2  0
 17 22  1  0
 18 19  1  0
 19 20  2  0
 20 21  1  0
 21 23  1  0
 21 22  2  0
 23 24  2  0
 23 25  1  0
M  CHG  2  23   1  25  -1
M  END
>  <minimizedAffinity>  (282) 
-8.73090

$$$$
data/reference_output_2/data/smiles/102644.pdb
     RDKit          3D

 24 26  0  0  0  0  0  0  0  0999 V2000
   72.2056   50.8572   53.9227 N   0  0  0  0  0  0  0  0  0  0  0  0
   72.8295   51.3860   54.9104 C   0  0  0  0  0  0  0  0  0  0  0  0
   72.8779   50.8005   56.2770 C   0  0  0  0  0  0  0  0  0  0  0  0
   72.1041   51.7876   57.1606 C   0  0  0  0  0  0  0  0  0  0  0  0
   72.2185   53.1063   56.7374 N   0  0  0  0  0  0  0  0  0  0  0  0
   73.2984   53.5208   55.9315 C   0  0  0  0  0  0  0  0  0  0  0  0
   73.5698   52.6613   54.7401 C   0  0  0  0  0  0  0  0  0  0  0  0
   69.9893   50.3490   52.3932 O   0  0  0  0  0  0  0  0  0  0  0  0
   70.3527   49.4251   53.2079 C   0  0  0  0  0  0  0  0  0  0  0  0
   71.4799   49.6492   54.0030 N   0  0  0  0  0  0  0  0  0  0  0  0
   69.5490   48.2218   53.2278 C   0  0  0  0  0  0  0  0  0  0  0  0
   68.8006   47.9177   54.3753 C   0  0  0  0  0  0  0  0  0  0  0  0
   68.0400   46.8040   54.4274 C   0  0  0  0  0  0  0  0  0  0  0  0
   67.9547   45.9233   53.3893 C   0  0  0  0  0  0  0  0  0  0  0  0
   68.6729   46.1897   52.2557 C   0  0  0  0  0  0  0  0  0  0  0  0
   69.4649   47.3410   52.1852 C   0  0  0  0  0  0  0  0  0  0  0  0
   70.1593   47.5416   51.0095 O   0  0  0  0  0  0  0  0  0  0  0  0
   71.0344   53.8119   56.4988 C   0  0  0  0  0  0  0  0  0  0  0  0
   69.8379   52.9821   56.2260 C   0  0  0  0  0  0  0  0  0  0  0  0
   69.1549   52.4086   57.3020 C   0  0  0  0  0  0  0  0  0  0  0  0
   68.0531   51.6218   57.0979 C   0  0  0  0  0  0  0  0  0  0  0  0
   67.6107   51.3930   55.8113 C   0  0  0  0  0  0  0  0  0  0  0  0
   68.2653   51.9443   54.7425 C   0  0  0  0  0  0  0  0  0  0  0  0
   69.3741   52.7348   54.9562 C   0  0  0  0  0  0  0  0  0  0  0  0
  8  9  2  0
  9 10  1  0
  9 11  1  0
 10  1  1  0
  1  2  2  0
  2  3  1  0
  2  7  1  0
  3  4  1  0
  4  5  1  0
  5 18  1  0
  5  6  1  0
 18 19  1  0
 19 20  2  0
 19 24  1  0
 20 21  1  0
 21 22  2  0
 22 23  1  0
 23 24  2  0
  6  7  1  0
 11 12  2  0
 11 16  1  0
 12 13  1  0
 13 14  2  0
 14 15  1  0
 15 16  2  0
 16 17  1  0
M  CHG  1   5   1
M  END
>  <minimizedAffinity>  (283) 
-8.73078

$$$$
data/reference_output_2/data/smiles/126097.pdb
     RDKit          3D

 23 25  0  0  0  0  0  0  0  0999 V2000
   68.3186   43.8461   56.0630 C   0  0  0  0  0  0  0  0  0  0  0  0
   69.2801   44.6038   56.6745 N   0  0  0  0  0  0  0  0  0  0  0  0
   70.0702   44.0908   57.6330 C   0  0  0  0  0  0  0  0  0  0  0  0
   71.0373   44.8961   58.2261 C   0  0  0  0  0  0  0  0  0  0  0  0
   71.8531   44.3879   59.2059 C   0  0  0  0  0  0  0  0  0  0  0  0
   71.7255   43.0727   59.6153 C   0  0  0  0  0  0  0  0  0  0  0  0
   70.7775   42.2826   59.0337 C   0  0  0  0  0  0  0  0  0  0  0  0
   69.9527   42.7727   58.0521 C   0  0  0  0  0  0  0  0  0  0  0  0
   69.0080   42.0248   57.4537 N   0  0  0  0  0  0  0  0  0  0  0  0
   68.2080   42.5500   56.4786 C   0  0  0  0  0  0  0  0  0  0  0  0
   67.1751   41.7102   55.8572 C   0  0  0  0  0  0  0  0  0  0  0  0
   65.9550   42.0660   55.8178 O   0  0  0  0  0  0  0  0  0  0  0  0
   67.4950   40.4949   55.2879 O   0  0  0  0  0  0  0  0  0  0  0  0
   67.5065   44.4414   55.0656 N   0  0  0  0  0  0  0  0  0  0  0  0
   69.2654   47.5913   52.7355 C   0  0  0  0  0  0  0  0  0  0  0  0
   68.6889   46.4787   52.1549 C   0  0  0  0  0  0  0  0  0  0  0  0
   68.1099   45.4780   52.8977 C   0  0  0  0  0  0  0  0  0  0  0  0
   68.0638   45.5121   54.2753 C   0  0  0  0  0  0  0  0  0  0  0  0
   68.6418   46.6299   54.8763 C   0  0  0  0  0  0  0  0  0  0  0  0
   69.2216   47.6356   54.1356 C   0  0  0  0  0  0  0  0  0  0  0  0
   70.5318   48.3611   50.9424 O   0  0  0  0  0  0  0  0  0  0  0  0
   69.8883   48.6588   51.9727 C   0  0  0  0  0  0  0  0  0  0  0  0
   69.8134   49.9973   52.3257 O   0  0  0  0  0  0  0  0  0  0  0  0
 21 22  2  0
 22 23  1  0
 22 15  1  0
 15 16  2  0
 15 20  1  0
 16 17  1  0
 17 18  2  0
 18 14  1  0
 18 19  1  0
 14  1  1  0
  1  2  2  0
  1 10  1  0
  2  3  1  0
  3  4  2  0
  3  8  1  0
  4  5  1  0
  5  6  2  0
  6  7  1  0
  7  8  2  0
  8  9  1  0
  9 10  2  0
 10 11  1  0
 11 12  2  0
 11 13  1  0
 19 20  2  0
M  END
>  <minimizedAffinity>  (284) 
-8.73023

$$$$
data/200k_reference_output/data/smiles/43841.pdb
     RDKit          3D

 24 26  0  0  0  0  0  0  0  0999 V2000
   69.3046   46.1055   57.5299 O   0  0  0  0  0  0  0  0  0  0  0  0
   70.3511   46.7895   57.6497 C   0  0  0  0  0  0  0  0  0  0  0  0
   70.4436   48.1061   57.0636 N   0  0  0  0  0  0  0  0  0  0  0  0
   71.4827   46.2076   58.4083 C   0  0  0  0  0  0  0  0  0  0  0  0
   71.6579   44.8762   58.0094 O   0  0  0  0  0  0  0  0  0  0  0  0
   72.9012   44.2836   58.0822 C   0  0  0  0  0  0  0  0  0  0  0  0
   74.0133   44.9896   58.5529 C   0  0  0  0  0  0  0  0  0  0  0  0
   75.2696   44.4572   58.6457 C   0  0  0  0  0  0  0  0  0  0  0  0
   75.4398   43.1294   58.2427 C   0  0  0  0  0  0  0  0  0  0  0  0
   77.0527   42.4364   58.3579 Cl  0  0  0  0  0  0  0  0  0  0  0  0
   74.3806   42.3956   57.7736 C   0  0  0  0  0  0  0  0  0  0  0  0
   73.1174   42.9839   57.6971 C   0  0  0  0  0  0  0  0  0  0  0  0
   69.3020   48.6154   56.3356 C   0  0  0  0  0  0  0  0  0  0  0  0
   69.6204   48.6537   54.8738 C   0  0  0  0  0  0  0  0  0  0  0  0
   70.4641   49.5737   54.3539 N   0  0  0  0  0  0  0  0  0  0  0  0
   70.7365   49.6015   53.0653 N   0  0  0  0  0  0  0  0  0  0  0  0
   70.2106   48.7398   52.1793 C   0  0  0  0  0  0  0  0  0  0  0  0
   70.4740   48.7716   50.9496 O   0  0  0  0  0  0  0  0  0  0  0  0
   69.3316   47.7623   52.6366 C   0  0  0  0  0  0  0  0  0  0  0  0
   68.7509   46.8407   51.7937 C   0  0  0  0  0  0  0  0  0  0  0  0
   67.8873   45.8884   52.2895 C   0  0  0  0  0  0  0  0  0  0  0  0
   67.6019   45.8568   53.6348 C   0  0  0  0  0  0  0  0  0  0  0  0
   68.1852   46.7802   54.4714 C   0  0  0  0  0  0  0  0  0  0  0  0
   69.0615   47.7526   53.9950 C   0  0  0  0  0  0  0  0  0  0  0  0
  1  2  2  0
  2  4  1  0
  2  3  1  0
  4  5  1  0
  5  6  1  0
  6  7  2  0
  6 12  1  0
  7  8  1  0
  8  9  2  0
  9 10  1  0
  9 11  1  0
 11 12  2  0
  3 13  1  0
 13 14  1  0
 14 15  2  0
 14 24  1  0
 15 16  1  0
 16 17  1  0
 17 18  2  0
 17 19  1  0
 19 20  1  0
 19 24  2  0
 20 21  2  0
 21 22  1  0
 22 23  2  0
 23 24  1  0
M  END
>  <minimizedAffinity>  (285) 
-8.73015

$$$$
data/reference_output_2/data/smiles/170732.pdb
     RDKit          3D

 25 27  0  0  0  0  0  0  0  0999 V2000
   69.1303   43.8784   56.9679 N   0  0  0  0  0  0  0  0  0  0  0  0
   68.4732   42.6444   56.7566 C   0  0  0  0  0  0  0  0  0  0  0  0
   67.4799   42.6517   55.9967 O   0  0  0  0  0  0  0  0  0  0  0  0
   68.8924   41.3896   57.3717 C   0  0  0  0  0  0  0  0  0  0  0  0
   67.9935   40.3570   57.5384 C   0  0  0  0  0  0  0  0  0  0  0  0
   68.3664   39.1491   58.1221 C   0  0  0  0  0  0  0  0  0  0  0  0
   69.6632   38.9616   58.5498 C   0  0  0  0  0  0  0  0  0  0  0  0
   70.0772   37.7736   59.1363 C   0  0  0  0  0  0  0  0  0  0  0  0
   71.3762   37.5883   59.5644 C   0  0  0  0  0  0  0  0  0  0  0  0
   72.2519   38.6462   59.3805 C   0  0  0  0  0  0  0  0  0  0  0  0
   71.8413   39.8184   58.8012 C   0  0  0  0  0  0  0  0  0  0  0  0
   70.5439   40.0086   58.3715 C   0  0  0  0  0  0  0  0  0  0  0  0
   70.1463   41.1727   57.7991 N   0  0  0  0  0  0  0  0  0  0  0  0
   69.3610   46.3163   56.5873 C   0  0  0  0  0  0  0  0  0  0  0  0
   70.3535   46.3436   57.3543 O   0  0  0  0  0  0  0  0  0  0  0  0
   68.7316   45.0827   56.3806 N   0  0  0  0  0  0  0  0  0  0  0  0
   67.5883   48.0206   56.5336 C   0  0  0  0  0  0  0  0  0  0  0  0
   68.8920   47.5874   55.9298 C   0  0  0  0  0  0  0  0  0  0  0  0
   69.9315   48.6319   56.2355 C   0  0  0  0  0  0  0  0  0  0  0  0
   68.8090   47.3636   54.4663 C   0  0  0  0  0  0  0  0  0  0  0  0
   69.5153   48.1265   53.5597 C   0  0  0  0  0  0  0  0  0  0  0  0
   69.4367   47.9164   52.1968 C   0  0  0  0  0  0  0  0  0  0  0  0
   68.6085   46.8918   51.7393 C   0  0  0  0  0  0  0  0  0  0  0  0
   67.8857   46.1050   52.6086 C   0  0  0  0  0  0  0  0  0  0  0  0
   68.0041   46.3605   53.9578 C   0  0  0  0  0  0  0  0  0  0  0  0
 17 18  1  0
 18 19  1  0
 18 14  1  0
 18 20  1  0
 14 15  2  0
 14 16  1  0
 16  1  1  0
  1  2  1  0
  2  3  2  0
  2  4  1  0
  4  5  2  0
  4 13  1  0
  5  6  1  0
  6  7  2  0
  7  8  1  0
  7 12  1  0
  8  9  2  0
  9 10  1  0
 10 11  2  0
 11 12  1  0
 12 13  2  0
 20 21  2  0
 20 25  1  0
 21 22  1  0
 22 23  2  0
 23 24  1  0
 24 25  2  0
M  END
>  <minimizedAffinity>  (286) 
-8.72963

$$$$
data/reference_output_2/data/smiles/90436.pdb
     RDKit          3D

 23 26  0  0  0  0  0  0  0  0999 V2000
   68.1418   45.6057   54.9558 C   0  0  0  0  0  0  0  0  0  0  0  0
   68.4045   46.2237   56.1220 N   0  0  0  0  0  0  0  0  0  0  0  0
   68.9276   47.4560   56.1841 C   0  0  0  0  0  0  0  0  0  0  0  0
   69.2028   48.1044   57.3675 C   0  0  0  0  0  0  0  0  0  0  0  0
   69.7431   49.3807   57.4208 C   0  0  0  0  0  0  0  0  0  0  0  0
   70.0247   50.0469   56.2500 C   0  0  0  0  0  0  0  0  0  0  0  0
   69.7525   49.4043   55.0436 C   0  0  0  0  0  0  0  0  0  0  0  0
   69.2142   48.1352   55.0183 C   0  0  0  0  0  0  0  0  0  0  0  0
   68.9576   47.5309   53.8271 N   0  0  0  0  0  0  0  0  0  0  0  0
   69.1512   47.9889   52.5762 C   0  0  0  0  0  0  0  0  0  0  0  0
   68.7412   47.0242   51.6713 C   0  0  0  0  0  0  0  0  0  0  0  0
   68.2976   45.9763   52.4502 C   0  0  0  0  0  0  0  0  0  0  0  0
   68.4347   46.2965   53.8010 C   0  0  0  0  0  0  0  0  0  0  0  0
   67.5922   44.3070   54.8843 N   0  0  0  0  0  0  0  0  0  0  0  0
   66.1529   41.9336   55.1274 O   0  0  0  0  0  0  0  0  0  0  0  0
   67.0446   42.1595   55.9809 C   0  0  0  0  0  0  0  0  0  0  0  0
   67.7782   43.3462   55.8754 N   0  0  0  0  0  0  0  0  0  0  0  0
   67.3241   41.2171   57.0648 C   0  0  0  0  0  0  0  0  0  0  0  0
   66.9871   41.4633   58.3787 C   0  0  0  0  0  0  0  0  0  0  0  0
   67.2513   40.5743   59.4003 C   0  0  0  0  0  0  0  0  0  0  0  0
   67.8815   39.3823   59.1048 C   0  0  0  0  0  0  0  0  0  0  0  0
   68.2090   39.1571   57.7837 C   0  0  0  0  0  0  0  0  0  0  0  0
   67.9367   40.0497   56.8006 N   0  0  0  0  0  0  0  0  0  0  0  0
 15 16  2  0
 16 17  1  0
 16 18  1  0
 17 14  1  0
 14  1  1  0
  1  2  2  0
  1 13  1  0
  2  3  1  0
  3  4  2  0
  3  8  1  0
  4  5  1  0
  5  6  2  0
  6  7  1  0
  7  8  2  0
  8  9  1  0
  9 10  1  0
  9 13  1  0
 10 11  2  0
 11 12  1  0
 12 13  2  0
 18 19  2  0
 18 23  1  0
 19 20  1  0
 20 21  2  0
 21 22  1  0
 22 23  2  0
M  END
>  <minimizedAffinity>  (287) 
-8.72942

$$$$
data/200k_reference_output/data/smiles/10974.pdb
     RDKit          3D

 24 27  0  0  0  0  0  0  0  0999 V2000
   69.0472   47.0154   54.2545 C   0  0  0  0  0  0  0  0  0  0  0  0
   68.9555   46.4737   52.9652 C   0  0  0  0  0  0  0  0  0  0  0  0
   69.1159   47.2548   51.8518 C   0  0  0  0  0  0  0  0  0  0  0  0
   69.3720   48.6014   51.9682 C   0  0  0  0  0  0  0  0  0  0  0  0
   69.5715   49.6165   51.0974 N   0  0  0  0  0  0  0  0  0  0  0  0
   69.7800   50.7435   51.7429 N   0  0  0  0  0  0  0  0  0  0  0  0
   69.7307   50.5409   53.0764 C   0  0  0  0  0  0  0  0  0  0  0  0
   69.4743   49.1933   53.2214 C   0  0  0  0  0  0  0  0  0  0  0  0
   69.3052   48.3655   54.3265 C   0  0  0  0  0  0  0  0  0  0  0  0
   69.9033   51.5236   54.1345 C   0  0  0  0  0  0  0  0  0  0  0  0
   71.1629   51.9369   54.5046 C   0  0  0  0  0  0  0  0  0  0  0  0
   71.3632   52.8654   55.5109 C   0  0  0  0  0  0  0  0  0  0  0  0
   70.3003   53.4185   56.1882 C   0  0  0  0  0  0  0  0  0  0  0  0
   70.4899   54.3397   57.1881 F   0  0  0  0  0  0  0  0  0  0  0  0
   69.0311   53.0158   55.8299 C   0  0  0  0  0  0  0  0  0  0  0  0
   68.8403   52.0860   54.8209 C   0  0  0  0  0  0  0  0  0  0  0  0
   67.7814   45.5738   55.6057 O   0  0  0  0  0  0  0  0  0  0  0  0
   68.8734   46.1616   55.4171 C   0  0  0  0  0  0  0  0  0  0  0  0
   69.9092   45.9647   56.3628 N   0  0  0  0  0  0  0  0  0  0  0  0
   69.7278   45.1207   57.5063 C   0  0  0  0  0  0  0  0  0  0  0  0
   69.9511   45.3995   58.8015 N   0  0  0  0  0  0  0  0  0  0  0  0
   69.6477   44.3223   59.5275 N   0  0  0  0  0  0  0  0  0  0  0  0
   69.2360   43.3690   58.6999 N   0  0  0  0  0  0  0  0  0  0  0  0
   69.2854   43.8552   57.4726 N   0  0  0  0  0  0  0  0  0  0  0  0
 17 18  2  0
 18 19  1  0
 18  1  1  0
 19 20  1  0
 20 21  2  0
 20 24  1  0
 21 22  1  0
 22 23  2  0
 23 24  1  0
  1  2  2  0
  1  9  1  0
  2  3  1  0
  3  4  2  0
  4  5  1  0
  4  8  1  0
  5  6  1  0
  6  7  2  0
  7 10  1  0
  7  8  1  0
 10 11  2  0
 10 16  1  0
 11 12  1  0
 12 13  2  0
 13 14  1  0
 13 15  1  0
 15 16  2  0
  8  9  2  0
M  END
>  <minimizedAffinity>  (288) 
-8.72934

$$$$
data/200k_reference_output/data/smiles/86889.pdb
     RDKit          3D

 25 28  0  0  0  0  0  0  0  0999 V2000
   73.3483   35.4580   55.8691 C   0  0  0  0  0  0  0  0  0  0  0  0
   74.6672   35.0875   55.9364 C   0  0  0  0  0  0  0  0  0  0  0  0
   75.4003   34.8062   54.7518 C   0  0  0  0  0  0  0  0  0  0  0  0
   74.8402   34.8939   53.6631 C   0  0  0  0  0  0  0  0  0  0  0  0
   73.4974   35.2627   53.4658 C   0  0  0  0  0  0  0  0  0  0  0  0
   72.6702   35.5653   54.5819 C   0  0  0  0  0  0  0  0  0  0  0  0
   71.1928   38.7178   58.5557 O   0  0  0  0  0  0  0  0  0  0  0  0
   71.4807   37.5328   58.3992 C   0  0  0  0  0  0  0  0  0  0  0  0
   72.2057   37.0947   57.3033 N   0  0  0  0  0  0  0  0  0  0  0  0
   72.5790   35.9207   57.0445 C   0  0  0  0  0  0  0  0  0  0  0  0
   72.2519   34.9250   57.9692 N   0  0  0  0  0  0  0  0  0  0  0  0
   71.5333   35.3185   59.0656 C   0  0  0  0  0  0  0  0  0  0  0  0
   71.1255   36.5379   59.3303 C   0  0  0  0  0  0  0  0  0  0  0  0
   70.2803   36.8909   60.4861 C   0  0  0  0  0  0  0  0  0  0  0  0
   70.1485   35.9183   61.4722 N   0  0  0  0  0  0  0  0  0  0  0  0
   70.8799   34.7231   61.4304 C   0  0  0  0  0  0  0  0  0  0  0  0
   71.2280   34.2137   60.0497 C   0  0  0  0  0  0  0  0  0  0  0  0
   75.5084   34.7695   52.3182 C   0  0  0  0  0  0  0  0  0  0  0  0
   76.0389   34.6699   51.2037 C   0  0  0  0  0  0  0  0  0  0  0  0
   76.6709   34.5459   49.8343 C   0  0  0  0  0  0  0  0  0  0  0  0
   76.2237   33.9761   48.8188 C   0  0  0  0  0  0  0  0  0  0  0  0
   76.6944   34.2275   47.5555 C   0  0  0  0  0  0  0  0  0  0  0  0
   77.6704   35.0736   47.2399 C   0  0  0  0  0  0  0  0  0  0  0  0
   78.2238   35.7538   48.4101 C   0  0  0  0  0  0  0  0  0  0  0  0
   77.7808   35.5475   49.7154 C   0  0  0  0  0  0  0  0  0  0  0  0
  7  8  2  0
  8  9  1  0
  8 13  1  0
  9 10  1  0
 10  1  1  0
 10 11  2  0
  1  2  2  0
  1  6  1  0
  2  3  1  0
  3  4  2  0
  4 18  1  0
  4  5  1  0
 18 19  3  0
 19 20  1  0
 20 21  2  0
 20 25  1  0
 21 22  1  0
 22 23  2  0
 23 24  1  0
 24 25  2  0
  5  6  2  0
 11 12  1  0
 12 13  2  0
 12 17  1  0
 13 14  1  0
 14 15  1  0
 15 16  1  0
 16 17  1  0
M  CHG  1  15   1
M  END
>  <minimizedAffinity>  (289) 
-8.72923

$$$$
data/200k_reference_output/data/smiles/52847.pdb
     RDKit          3D

 25 27  0  0  0  0  0  0  0  0999 V2000
   70.5519   45.5566   58.2808 C   0  0  0  0  0  0  0  0  0  0  0  0
   70.7219   46.2764   59.2833 O   0  0  0  0  0  0  0  0  0  0  0  0
   69.7549   46.2143   57.2563 N   0  0  0  0  0  0  0  0  0  0  0  0
   71.0324   44.2244   58.0475 C   0  0  0  0  0  0  0  0  0  0  0  0
   72.3476   44.1416   57.9008 O   0  0  0  0  0  0  0  0  0  0  0  0
   70.0689   39.3992   58.6544 C   0  0  0  0  0  0  0  0  0  0  0  0
   69.9834   40.8025   58.2336 N   0  0  0  0  0  0  0  0  0  0  0  0
   70.7597   41.8100   58.5981 C   0  0  0  0  0  0  0  0  0  0  0  0
   70.3131   42.9887   57.9439 C   0  0  0  0  0  0  0  0  0  0  0  0
   69.2421   42.6315   57.1855 C   0  0  0  0  0  0  0  0  0  0  0  0
   68.3768   43.3192   56.3675 C   0  0  0  0  0  0  0  0  0  0  0  0
   67.3418   42.6538   55.7422 C   0  0  0  0  0  0  0  0  0  0  0  0
   67.1329   41.3084   55.9081 C   0  0  0  0  0  0  0  0  0  0  0  0
   68.0100   40.6312   56.7386 C   0  0  0  0  0  0  0  0  0  0  0  0
   69.0548   41.2546   57.3825 C   0  0  0  0  0  0  0  0  0  0  0  0
   69.2169   47.5093   57.4326 C   0  0  0  0  0  0  0  0  0  0  0  0
   68.4338   48.0376   56.3172 C   0  0  0  0  0  0  0  0  0  0  0  0
   68.7518   47.8156   54.9253 C   0  0  0  0  0  0  0  0  0  0  0  0
   68.2055   46.7082   54.2647 C   0  0  0  0  0  0  0  0  0  0  0  0
   68.4871   46.4259   52.9602 C   0  0  0  0  0  0  0  0  0  0  0  0
   69.3294   47.2243   52.2229 C   0  0  0  0  0  0  0  0  0  0  0  0
   69.6233   46.9456   50.8911 O   0  0  0  0  0  0  0  0  0  0  0  0
   69.8661   48.3166   52.8801 C   0  0  0  0  0  0  0  0  0  0  0  0
   70.7215   49.1068   52.0925 O   0  0  0  0  0  0  0  0  0  0  0  0
   69.6012   48.6213   54.1856 C   0  0  0  0  0  0  0  0  0  0  0  0
  6  7  1  0
  7  8  1  0
  7 15  1  0
  8  9  2  0
  9  4  1  0
  9 10  1  0
  4  5  2  0
  4  1  1  0
  1  2  2  0
  1  3  1  0
  3 16  1  0
 16 17  1  0
 17 18  1  0
 18 19  2  0
 18 25  1  0
 19 20  1  0
 20 21  2  0
 21 22  1  0
 21 23  1  0
 23 24  1  0
 23 25  2  0
 10 11  1  0
 10 15  2  0
 11 12  2  0
 12 13  1  0
 13 14  2  0
 14 15  1  0
M  END
>  <minimizedAffinity>  (290) 
-8.72840

$$$$
data/reference_output_2/data/smiles/89161.pdb
     RDKit          3D

 23 25  0  0  0  0  0  0  0  0999 V2000
   69.0407   46.1384   56.4551 C   0  0  0  0  0  0  0  0  0  0  0  0
   70.0565   46.3577   57.1382 O   0  0  0  0  0  0  0  0  0  0  0  0
   68.5927   44.7961   56.3105 N   0  0  0  0  0  0  0  0  0  0  0  0
   69.3128   43.7771   56.9401 N   0  0  0  0  0  0  0  0  0  0  0  0
   68.8787   42.5666   57.0391 C   0  0  0  0  0  0  0  0  0  0  0  0
   67.6137   42.0712   56.5308 C   0  0  0  0  0  0  0  0  0  0  0  0
   66.7796   42.7694   55.9278 O   0  0  0  0  0  0  0  0  0  0  0  0
   67.5430   40.6704   56.8625 N   0  0  0  0  0  0  0  0  0  0  0  0
   68.7331   40.2974   57.5608 C   0  0  0  0  0  0  0  0  0  0  0  0
   69.1543   39.0880   58.0899 C   0  0  0  0  0  0  0  0  0  0  0  0
   70.3932   39.0160   58.7336 C   0  0  0  0  0  0  0  0  0  0  0  0
   71.2004   40.1246   58.8496 C   0  0  0  0  0  0  0  0  0  0  0  0
   70.7554   41.3104   58.3139 C   0  0  0  0  0  0  0  0  0  0  0  0
   69.5322   41.4146   57.6705 C   0  0  0  0  0  0  0  0  0  0  0  0
   68.4861   48.5140   56.6275 C   0  0  0  0  0  0  0  0  0  0  0  0
   68.3154   47.2774   55.8064 C   0  0  1  0  0  0  0  0  0  0  0  0
   68.8942   47.5412   54.4553 C   0  0  0  0  0  0  0  0  0  0  0  0
   68.6164   46.7141   53.3866 C   0  0  0  0  0  0  0  0  0  0  0  0
   69.1472   46.9452   52.1185 C   0  0  0  0  0  0  0  0  0  0  0  0
   69.9789   48.0241   51.8948 C   0  0  0  0  0  0  0  0  0  0  0  0
   70.5172   48.2700   50.6383 O   0  0  0  0  0  0  0  0  0  0  0  0
   70.2618   48.8579   52.9614 C   0  0  0  0  0  0  0  0  0  0  0  0
   69.7265   48.6142   54.2150 C   0  0  0  0  0  0  0  0  0  0  0  0
 16 15  1  1
 16  1  1  0
 16 17  1  0
  1  2  2  0
  1  3  1  0
  3  4  1  0
  4  5  2  0
  5  6  1  0
  5 14  1  0
  6  7  2  0
  6  8  1  0
  8  9  1  0
  9 10  1  0
  9 14  2  0
 10 11  2  0
 11 12  1  0
 12 13  2  0
 13 14  1  0
 17 18  2  0
 17 23  1  0
 18 19  1  0
 19 20  2  0
 20 21  1  0
 20 22  1  0
 22 23  2  0
M  END
>  <minimizedAffinity>  (291) 
-8.72660

$$$$
data/reference_output_2/data/smiles/136524.pdb
     RDKit          3D

 26 30  0  0  0  0  0  0  0  0999 V2000
   69.7541   46.1815   57.1509 C   0  0  0  0  0  0  0  0  0  0  0  0
   69.2283   44.9406   56.8903 N   0  0  0  0  0  0  0  0  0  0  0  0
   69.5985   43.8446   57.5558 C   0  0  0  0  0  0  0  0  0  0  0  0
   70.5175   43.9907   58.5055 N   0  0  0  0  0  0  0  0  0  0  0  0
   71.0976   45.1848   58.8340 C   0  0  0  0  0  0  0  0  0  0  0  0
   70.7073   46.3255   58.1364 C   0  0  0  0  0  0  0  0  0  0  0  0
   71.2768   47.6477   58.3941 C   0  0  0  0  0  0  0  0  0  0  0  0
   72.1146   47.6068   59.6658 C   0  0  0  0  0  0  0  0  0  0  0  0
   72.9470   46.3951   59.6739 N   0  0  0  0  0  0  0  0  0  0  0  0
   72.1190   45.2297   59.9135 C   0  0  0  0  0  0  0  0  0  0  0  0
   69.1597   47.1219   51.6438 C   0  0  0  0  0  0  0  0  0  0  0  0
   68.2114   46.2092   52.0648 C   0  0  0  0  0  0  0  0  0  0  0  0
   67.8297   46.2238   53.4084 C   0  0  0  0  0  0  0  0  0  0  0  0
   68.3761   47.1186   54.3006 C   0  0  0  0  0  0  0  0  0  0  0  0
   69.3186   48.0225   53.8706 C   0  0  0  0  0  0  0  0  0  0  0  0
   69.7210   48.0278   52.5175 C   0  0  0  0  0  0  0  0  0  0  0  0
   69.8994   48.9910   54.8171 C   0  0  0  0  0  0  0  0  0  0  0  0
   69.9472   48.5578   56.2520 C   0  0  0  0  0  0  0  0  0  0  0  0
   69.3116   47.2993   56.4274 N   0  0  0  0  0  0  0  0  0  0  0  0
   68.0038   47.1568   55.7494 C   0  0  0  0  0  0  0  0  0  0  0  0
   69.0128   42.5439   57.2448 C   0  0  0  0  0  0  0  0  0  0  0  0
   68.0436   42.3854   56.2758 C   0  0  0  0  0  0  0  0  0  0  0  0
   67.4872   41.1551   55.9797 C   0  0  0  0  0  0  0  0  0  0  0  0
   67.8873   40.0569   56.6476 N   0  0  0  0  0  0  0  0  0  0  0  0
   68.8320   40.1804   57.6008 C   0  0  0  0  0  0  0  0  0  0  0  0
   69.4058   41.4042   57.9157 C   0  0  0  0  0  0  0  0  0  0  0  0
 11 12  2  0
 11 16  1  0
 12 13  1  0
 13 14  2  0
 14 15  1  0
 14 20  1  0
 15 16  2  0
 15 17  1  0
 17 18  1  0
 18 19  1  0
 19  1  1  0
 19 20  1  0
  1  2  2  0
  1  6  1  0
  2  3  1  0
  3 21  1  0
  3  4  2  0
 21 22  2  0
 21 26  1  0
 22 23  1  0
 23 24  2  0
 24 25  1  0
 25 26  2  0
  4  5  1  0
  5  6  2  0
  5 10  1  0
  6  7  1  0
  7  8  1  0
  8  9  1  0
  9 10  1  0
M  CHG  1   9   1
M  END
>  <minimizedAffinity>  (292) 
-8.72634

$$$$
data/200k_reference_output/data/smiles/51645.pdb
     RDKit          3D

 22 23  0  0  0  0  0  0  0  0999 V2000
   69.4525   45.6049   57.1153 C   0  0  0  0  0  0  0  0  0  0  0  0
   70.5524   46.6249   57.9373 S   0  0  0  0  0  0  0  0  0  0  0  0
   67.8265   43.2782   56.4451 O   0  0  0  0  0  0  0  0  0  0  0  0
   68.8626   43.1301   57.1251 C   0  0  0  0  0  0  0  0  0  0  0  0
   69.6216   44.2705   57.4291 N   0  0  0  0  0  0  0  0  0  0  0  0
   69.2196   41.7624   57.5651 C   0  0  0  0  0  0  0  0  0  0  0  0
   68.2547   40.7916   57.4415 C   0  0  0  0  0  0  0  0  0  0  0  0
   68.4751   39.4640   57.8234 C   0  0  0  0  0  0  0  0  0  0  0  0
   69.7163   39.1821   58.3305 C   0  0  0  0  0  0  0  0  0  0  0  0
   70.6868   40.1367   58.4604 C   0  0  0  0  0  0  0  0  0  0  0  0
   70.4315   41.4507   58.0690 C   0  0  0  0  0  0  0  0  0  0  0  0
   68.6056   46.2930   56.2995 N   0  0  0  0  0  0  0  0  0  0  0  0
   68.5768   46.4076   54.8989 C   0  0  0  0  0  0  0  0  0  0  0  0
   67.7991   45.5495   54.1216 C   0  0  0  0  0  0  0  0  0  0  0  0
   67.7604   45.7277   52.7541 C   0  0  0  0  0  0  0  0  0  0  0  0
   68.4719   46.7338   52.1359 C   0  0  0  0  0  0  0  0  0  0  0  0
   68.4016   46.8697   50.7767 O   0  0  0  0  0  0  0  0  0  0  0  0
   69.2421   47.5868   52.8821 C   0  0  0  0  0  0  0  0  0  0  0  0
   69.2811   47.4089   54.2460 C   0  0  0  0  0  0  0  0  0  0  0  0
   70.0172   48.6713   52.2767 C   0  0  0  0  0  0  0  0  0  0  0  0
   69.5641   49.2920   51.2894 O   0  0  0  0  0  0  0  0  0  0  0  0
   71.2539   49.0105   52.7972 O   0  0  0  0  0  0  0  0  0  0  0  0
  3  4  2  0
  4  5  1  0
  4  6  1  0
  5  1  1  0
  1  2  2  0
  1 12  1  0
 12 13  1  0
 13 14  2  0
 13 19  1  0
 14 15  1  0
 15 16  2  0
 16 17  1  0
 16 18  1  0
 18 20  1  0
 18 19  2  0
 20 21  2  0
 20 22  1  0
  6  7  2  0
  6 11  1  0
  7  8  1  0
  8  9  2  0
  9 10  1  0
 10 11  2  0
M  END
>  <minimizedAffinity>  (293) 
-8.72572

$$$$
data/reference_output_2/data/smiles/116398.pdb
     RDKit          3D

 22 25  0  0  0  0  0  0  0  0999 V2000
   70.4174   51.6082   52.7849 O   0  0  0  0  0  0  0  0  0  0  0  0
   70.6615   50.4205   53.6991 S   0  0  0  0  0  0  0  0  0  0  0  0
   72.1549   50.3917   53.8962 O   0  0  0  0  0  0  0  0  0  0  0  0
   69.8086   50.6901   55.1778 C   0  0  0  0  0  0  0  0  0  0  0  0
   68.6193   51.4015   55.1786 C   0  0  0  0  0  0  0  0  0  0  0  0
   67.8869   51.6334   56.3172 C   0  0  0  0  0  0  0  0  0  0  0  0
   68.3203   51.1550   57.5340 C   0  0  0  0  0  0  0  0  0  0  0  0
   69.5049   50.4391   57.5748 C   0  0  0  0  0  0  0  0  0  0  0  0
   69.9168   49.9756   58.8081 C   0  0  0  0  0  0  0  0  0  0  0  0
   71.0894   49.2732   58.8516 C   0  0  0  0  0  0  0  0  0  0  0  0
   71.8332   49.0341   57.7225 C   0  0  0  0  0  0  0  0  0  0  0  0
   71.3848   49.5142   56.5150 C   0  0  0  0  0  0  0  0  0  0  0  0
   70.2257   50.2181   56.4102 C   0  0  0  0  0  0  0  0  0  0  0  0
   70.1057   49.0400   52.8476 N   0  0  0  0  0  0  0  0  0  0  0  0
   70.3869   48.7802   51.5808 N   0  0  0  0  0  0  0  0  0  0  0  0
   69.8345   47.6420   51.1980 N   0  0  0  0  0  0  0  0  0  0  0  0
   69.1729   47.1481   52.2524 C   0  0  0  0  0  0  0  0  0  0  0  0
   68.4303   45.9925   52.3903 C   0  0  0  0  0  0  0  0  0  0  0  0
   67.8585   45.7493   53.6222 C   0  0  0  0  0  0  0  0  0  0  0  0
   68.0224   46.6262   54.6743 C   0  0  0  0  0  0  0  0  0  0  0  0
   68.7690   47.7736   54.5122 C   0  0  0  0  0  0  0  0  0  0  0  0
   69.3525   48.0423   53.2895 C   0  0  0  0  0  0  0  0  0  0  0  0
  1  2  2  0
  2  3  2  0
  2  4  1  0
  2 14  1  0
  4  5  2  0
  4 13  1  0
  5  6  1  0
  6  7  2  0
  7  8  1  0
  8  9  1  0
  8 13  2  0
  9 10  2  0
 10 11  1  0
 11 12  2  0
 12 13  1  0
 14 15  1  0
 14 22  1  0
 15 16  2  0
 16 17  1  0
 17 18  1  0
 17 22  2  0
 18 19  2  0
 19 20  1  0
 20 21  2  0
 21 22  1  0
M  END
>  <minimizedAffinity>  (294) 
-8.72477

$$$$
data/200k_reference_output/data/smiles/85881.pdb
     RDKit          3D

 24 26  0  0  0  0  0  0  0  0999 V2000
   68.6327   47.9091   56.4540 P   0  0  0  0  0  0  0  0  0  0  0  0
   67.2740   47.4685   56.9445 O   0  0  0  0  0  0  0  0  0  0  0  0
   69.4331   47.9692   52.4790 C   0  0  0  0  0  0  0  0  0  0  0  0
   68.9417   46.7480   52.0609 C   0  0  0  0  0  0  0  0  0  0  0  0
   68.3672   45.9039   52.9856 C   0  0  0  0  0  0  0  0  0  0  0  0
   68.2681   46.2547   54.3373 C   0  0  0  0  0  0  0  0  0  0  0  0
   67.6833   45.3790   55.2376 O   0  0  0  0  0  0  0  0  0  0  0  0
   68.7562   47.4642   54.7411 C   0  0  0  0  0  0  0  0  0  0  0  0
   69.3311   48.3127   53.8310 C   0  0  0  0  0  0  0  0  0  0  0  0
   70.7945   48.4723   50.6904 O   0  0  0  0  0  0  0  0  0  0  0  0
   70.0344   48.8800   51.5791 N   0  0  0  0  0  0  0  0  0  0  0  0
   69.7892   50.2208   51.6733 O   0  0  0  0  0  0  0  0  0  0  0  0
   68.8148   49.6605   56.7065 C   0  0  0  0  0  0  0  0  0  0  0  0
   69.9589   50.3398   56.3467 C   0  0  0  0  0  0  0  0  0  0  0  0
   70.0527   51.7117   56.5661 C   0  0  0  0  0  0  0  0  0  0  0  0
   69.0245   52.4290   57.1391 C   0  0  0  0  0  0  0  0  0  0  0  0
   67.8776   51.7483   57.4996 C   0  0  0  0  0  0  0  0  0  0  0  0
   67.7872   50.3789   57.2800 C   0  0  0  0  0  0  0  0  0  0  0  0
   69.8953   47.0911   57.4113 C   0  0  0  0  0  0  0  0  0  0  0  0
   69.9872   45.7191   57.3199 C   0  0  0  0  0  0  0  0  0  0  0  0
   70.9658   45.0405   58.0557 C   0  0  0  0  0  0  0  0  0  0  0  0
   71.8454   45.7138   58.8762 C   0  0  0  0  0  0  0  0  0  0  0  0
   71.7463   47.0827   58.9626 C   0  0  0  0  0  0  0  0  0  0  0  0
   70.7754   47.7549   58.2314 C   0  0  0  0  0  0  0  0  0  0  0  0
 10 11  2  0
 11 12  1  0
 11  3  1  0
  3  4  2  0
  3  9  1  0
  4  5  1  0
  5  6  2  0
  6  7  1  0
  6  8  1  0
  8  1  1  0
  8  9  2  0
  1  2  2  0
  1 13  1  0
  1 19  1  0
 13 14  2  0
 13 18  1  0
 14 15  1  0
 15 16  2  0
 16 17  1  0
 17 18  2  0
 19 20  2  0
 19 24  1  0
 20 21  1  0
 21 22  2  0
 22 23  1  0
 23 24  2  0
M  CHG  2  11   1  12  -1
M  END
>  <minimizedAffinity>  (295) 
-8.72466

$$$$
data/reference_output_2/data/smiles/187478.pdb
     RDKit          3D

 22 24  0  0  0  0  0  0  0  0999 V2000
   70.1461   49.2380   54.0985 C   0  0  0  0  0  0  0  0  0  0  0  0
   69.6623   48.5298   55.1601 C   0  0  0  0  0  0  0  0  0  0  0  0
   68.8346   47.4024   55.0060 C   0  0  0  0  0  0  0  0  0  0  0  0
   68.5029   46.9960   53.7501 C   0  0  0  0  0  0  0  0  0  0  0  0
   67.7103   45.8956   53.4917 C   0  0  0  0  0  0  0  0  0  0  0  0
   67.4135   45.5209   52.1833 C   0  0  0  0  0  0  0  0  0  0  0  0
   67.8936   46.2266   51.0987 C   0  0  0  0  0  0  0  0  0  0  0  0
   68.6568   47.2842   51.3883 N   0  0  0  0  0  0  0  0  0  0  0  0
   68.9736   47.6865   52.6439 C   0  0  0  0  0  0  0  0  0  0  0  0
   69.7753   48.7800   52.8361 C   0  0  0  0  0  0  0  0  0  0  0  0
   70.2240   49.4429   51.6961 O   0  0  0  0  0  0  0  0  0  0  0  0
   72.2798   50.0735   54.0048 O   0  0  0  0  0  0  0  0  0  0  0  0
   71.0253   50.3886   54.2272 C   0  0  0  0  0  0  0  0  0  0  0  0
   70.8104   51.7099   54.5275 N   0  0  0  0  0  0  0  0  0  0  0  0
   69.5945   52.4053   54.7899 C   0  0  0  0  0  0  0  0  0  0  0  0
   69.4340   52.4301   56.3057 C   0  0  0  0  0  0  0  0  0  0  0  0
   70.8152   52.7436   56.8575 C   0  0  0  0  0  0  0  0  0  0  0  0
   71.7156   53.4345   55.8805 C   0  0  0  0  0  0  0  0  0  0  0  0
   72.0111   52.6076   54.6412 C   0  0  0  0  0  0  0  0  0  0  0  0
   68.3829   46.7210   56.1560 N   0  0  0  0  0  0  0  0  0  0  0  0
   67.6298   47.3879   56.9252 O   0  0  0  0  0  0  0  0  0  0  0  0
   68.6753   45.4550   56.5031 O   0  0  0  0  0  0  0  0  0  0  0  0
 12 13  2  0
 13  1  1  0
 13 14  1  0
  1  2  2  0
  1 10  1  0
  2  3  1  0
  3 20  1  0
  3  4  2  0
 20 21  2  0
 20 22  1  0
  4  5  1  0
  4  9  1  0
  5  6  2  0
  6  7  1  0
  7  8  2  0
  8  9  1  0
  9 10  2  0
 10 11  1  0
 14 15  1  0
 14 19  1  0
 15 16  1  0
 16 17  1  0
 17 18  1  0
 18 19  1  0
M  CHG  2  20   1  22  -1
M  END
>  <minimizedAffinity>  (296) 
-8.72163

$$$$
data/200k_reference_output/data/smiles/68475.pdb
     RDKit          3D

 23 25  0  0  0  0  0  0  0  0999 V2000
   69.3018   43.7791   56.8647 N   0  0  0  0  0  0  0  0  0  0  0  0
   68.8681   42.5677   57.0049 C   0  0  0  0  0  0  0  0  0  0  0  0
   67.5878   42.0806   56.5248 C   0  0  0  0  0  0  0  0  0  0  0  0
   66.7185   42.7696   55.9047 O   0  0  0  0  0  0  0  0  0  0  0  0
   67.5254   40.7183   56.8896 N   0  0  0  0  0  0  0  0  0  0  0  0
   68.7012   40.3077   57.5779 C   0  0  0  0  0  0  0  0  0  0  0  0
   69.0957   39.0858   58.1231 C   0  0  0  0  0  0  0  0  0  0  0  0
   70.3173   38.9624   58.7513 C   0  0  0  0  0  0  0  0  0  0  0  0
   71.1153   40.0863   58.8130 C   0  0  0  0  0  0  0  0  0  0  0  0
   70.7401   41.3020   58.2787 C   0  0  0  0  0  0  0  0  0  0  0  0
   71.7734   42.7146   58.3716 Cl  0  0  0  0  0  0  0  0  0  0  0  0
   69.5069   41.4252   57.6457 C   0  0  0  0  0  0  0  0  0  0  0  0
   69.9913   46.3786   56.9705 O   0  0  0  0  0  0  0  0  0  0  0  0
   68.9542   46.1201   56.3000 C   0  0  0  0  0  0  0  0  0  0  0  0
   68.5514   44.7645   56.2160 N   0  0  0  0  0  0  0  0  0  0  0  0
   68.1808   47.2173   55.6204 C   0  0  0  0  0  0  0  0  0  0  0  0
   68.7885   47.4806   54.3126 C   0  0  0  0  0  0  0  0  0  0  0  0
   68.5848   46.6577   53.1967 C   0  0  0  0  0  0  0  0  0  0  0  0
   69.1765   46.9513   51.9998 C   0  0  0  0  0  0  0  0  0  0  0  0
   69.9764   48.0580   51.8873 C   0  0  0  0  0  0  0  0  0  0  0  0
   70.5774   48.3596   50.6784 O   0  0  0  0  0  0  0  0  0  0  0  0
   70.2099   48.9084   52.9672 C   0  0  0  0  0  0  0  0  0  0  0  0
   69.6080   48.5915   54.1460 C   0  0  0  0  0  0  0  0  0  0  0  0
 13 14  2  0
 14 16  1  0
 14 15  1  0
 16 17  1  0
 17 18  2  0
 17 23  1  0
 18 19  1  0
 19 20  2  0
 20 21  1  0
 20 22  1  0
 22 23  2  0
 15  1  1  0
  1  2  2  0
  2  3  1  0
  2 12  1  0
  3  4  2  0
  3  5  1  0
  5  6  1  0
  6  7  1  0
  6 12  2  0
  7  8  2  0
  8  9  1  0
  9 10  2  0
 10 11  1  0
 10 12  1  0
M  END
>  <minimizedAffinity>  (297) 
-8.72080

$$$$
data/200k_reference_output/data/smiles/60743.pdb
     RDKit          3D

 24 28  0  0  0  0  0  0  0  0999 V2000
   70.1453   47.5412   50.8813 O   0  0  0  0  0  0  0  0  0  0  0  0
   69.8029   47.8184   52.0476 C   0  0  0  0  0  0  0  0  0  0  0  0
   69.6839   49.1238   52.6737 C   0  0  0  0  0  0  0  0  0  0  0  0
   69.2524   48.8514   54.0318 N   0  0  0  0  0  0  0  0  0  0  0  0
   69.1140   47.5099   54.2405 C   0  0  0  0  0  0  0  0  0  0  0  0
   68.7137   47.0118   55.4570 C   0  0  0  0  0  0  0  0  0  0  0  0
   68.4532   47.9460   56.4766 C   0  0  0  0  0  0  0  0  0  0  0  0
   68.0852   47.5159   57.5981 O   0  0  0  0  0  0  0  0  0  0  0  0
   68.6074   49.2786   56.2131 C   0  0  0  0  0  0  0  0  0  0  0  0
   68.3498   50.1995   57.2195 C   0  0  0  0  0  0  0  0  0  0  0  0
   68.4903   51.5537   57.0058 C   0  0  0  0  0  0  0  0  0  0  0  0
   68.8931   52.0291   55.7777 C   0  0  0  0  0  0  0  0  0  0  0  0
   69.1481   51.1178   54.7783 C   0  0  0  0  0  0  0  0  0  0  0  0
   69.0051   49.7589   55.0015 C   0  0  0  0  0  0  0  0  0  0  0  0
   69.4488   46.8262   53.0257 N   0  0  0  0  0  0  0  0  0  0  0  0
   68.5440   45.5971   55.7560 C   0  0  0  0  0  0  0  0  0  0  0  0
   69.3200   44.9789   56.7071 N   0  0  0  0  0  0  0  0  0  0  0  0
   69.0182   43.6881   56.8386 C   0  0  0  0  0  0  0  0  0  0  0  0
   69.5056   42.6640   57.6448 C   0  0  0  0  0  0  0  0  0  0  0  0
   68.9809   41.4035   57.5502 C   0  0  0  0  0  0  0  0  0  0  0  0
   67.9599   41.1308   56.6525 C   0  0  0  0  0  0  0  0  0  0  0  0
   67.5013   42.1748   55.8681 C   0  0  0  0  0  0  0  0  0  0  0  0
   68.0103   43.4431   55.9449 C   0  0  0  0  0  0  0  0  0  0  0  0
   67.7623   44.6334   55.3162 N   0  0  0  0  0  0  0  0  0  0  0  0
  1  2  2  0
  2  3  1  0
  2 15  1  0
  3  4  1  0
  4  5  1  0
  4 14  1  0
  5  6  2  0
  5 15  1  0
  6 16  1  0
  6  7  1  0
 16 17  2  0
 16 24  1  0
 17 18  1  0
 18 19  2  0
 18 23  1  0
 19 20  1  0
 20 21  2  0
 21 22  1  0
 22 23  2  0
 23 24  1  0
  7  8  2  0
  7  9  1  0
  9 10  1  0
  9 14  2  0
 10 11  2  0
 11 12  1  0
 12 13  2  0
 13 14  1  0
M  CHG  1  17   1
M  END
>  <minimizedAffinity>  (298) 
-8.72014

$$$$
data/reference_output_2/data/smiles/120302.pdb
     RDKit          3D

 24 26  0  0  0  0  0  0  0  0999 V2000
   70.9890   46.1033   58.0983 C   0  0  0  0  0  0  0  0  0  0  0  0
   71.7234   46.9841   58.8534 C   0  0  0  0  0  0  0  0  0  0  0  0
   71.4937   48.3364   58.7803 C   0  0  0  0  0  0  0  0  0  0  0  0
   70.5312   48.8721   57.9592 C   0  0  0  0  0  0  0  0  0  0  0  0
   69.7810   48.0167   57.1901 C   0  0  0  0  0  0  0  0  0  0  0  0
   70.0087   46.6719   57.2629 C   0  0  0  0  0  0  0  0  0  0  0  0
   71.1873   44.7078   58.0790 N   0  0  0  0  0  0  0  0  0  0  0  0
   70.0219   43.4974   58.1884 S   0  0  0  0  0  0  0  0  0  0  0  0
   68.9498   43.7129   57.1135 O   0  0  0  0  0  0  0  0  0  0  0  0
   69.2062   43.6382   59.4933 O   0  0  0  0  0  0  0  0  0  0  0  0
   72.0034   41.5977   58.3486 C   0  0  0  0  0  0  0  0  0  0  0  0
   70.5411   41.8338   58.0853 C   0  0  0  0  0  0  0  0  0  0  0  0
   68.7236   48.5779   56.2989 C   0  0  0  0  0  0  0  0  0  0  0  0
   69.1766   48.5972   54.9072 C   0  0  0  0  0  0  0  0  0  0  0  0
   70.0527   49.5520   54.4894 N   0  0  0  0  0  0  0  0  0  0  0  0
   70.4869   49.5985   53.2458 N   0  0  0  0  0  0  0  0  0  0  0  0
   70.1065   48.7229   52.3079 C   0  0  0  0  0  0  0  0  0  0  0  0
   70.5310   48.7761   51.1079 O   0  0  0  0  0  0  0  0  0  0  0  0
   69.2259   47.7296   52.6449 C   0  0  0  0  0  0  0  0  0  0  0  0
   68.8267   46.8243   51.6860 C   0  0  0  0  0  0  0  0  0  0  0  0
   67.9383   45.8430   52.0692 C   0  0  0  0  0  0  0  0  0  0  0  0
   67.4814   45.7898   53.3699 C   0  0  0  0  0  0  0  0  0  0  0  0
   67.8892   46.7098   54.3338 C   0  0  0  0  0  0  0  0  0  0  0  0
   68.7720   47.6857   53.9564 C   0  0  0  0  0  0  0  0  0  0  0  0
 11 12  1  0
 12  8  1  0
  8  9  2  0
  8 10  2  0
  8  7  1  0
  7  1  1  0
  1  2  2  0
  1  6  1  0
  2  3  1  0
  3  4  2  0
  4  5  1  0
  5 13  1  0
  5  6  2  0
 13 14  1  0
 14 15  2  0
 14 24  1  0
 15 16  1  0
 16 17  1  0
 17 18  2  0
 17 19  1  0
 19 20  1  0
 19 24  2  0
 20 21  2  0
 21 22  1  0
 22 23  2  0
 23 24  1  0
M  END
>  <minimizedAffinity>  (299) 
-8.72010

$$$$
data/200k_reference_output/data/smiles/33107.pdb
     RDKit          3D

 23 24  0  0  0  0  0  0  0  0999 V2000
   67.9426   43.7056   55.6289 C   0  0  0  0  0  0  0  0  0  0  0  0
   67.1871   42.8064   56.1254 N   0  0  0  0  0  0  0  0  0  0  0  0
   67.6141   41.9541   57.1671 N   0  0  0  0  0  0  0  0  0  0  0  0
   67.9495   40.6094   56.9982 C   0  0  0  0  0  0  0  0  0  0  0  0
   67.8385   40.1893   55.7944 O   0  0  0  0  0  0  0  0  0  0  0  0
   68.3936   39.6635   57.9919 C   0  0  0  0  0  0  0  0  0  0  0  0
   67.4766   38.8257   58.6348 C   0  0  0  0  0  0  0  0  0  0  0  0
   67.8504   37.9097   59.5884 C   0  0  0  0  0  0  0  0  0  0  0  0
   69.1648   37.7902   59.9434 C   0  0  0  0  0  0  0  0  0  0  0  0
   70.0865   38.5836   59.3442 C   0  0  0  0  0  0  0  0  0  0  0  0
   69.6964   39.5016   58.3864 C   0  0  0  0  0  0  0  0  0  0  0  0
   70.6813   40.2461   57.8418 F   0  0  0  0  0  0  0  0  0  0  0  0
   67.4473   44.5182   54.5914 N   0  0  0  0  0  0  0  0  0  0  0  0
   69.4780   47.9135   53.0877 C   0  0  0  0  0  0  0  0  0  0  0  0
   69.1821   47.8171   54.4245 C   0  0  0  0  0  0  0  0  0  0  0  0
   68.5149   46.7093   54.9636 C   0  0  0  0  0  0  0  0  0  0  0  0
   68.1287   45.6717   54.1645 C   0  0  0  0  0  0  0  0  0  0  0  0
   68.4380   45.7823   52.7981 C   0  0  0  0  0  0  0  0  0  0  0  0
   69.0936   46.8757   52.2852 C   0  0  0  0  0  0  0  0  0  0  0  0
   69.3595   46.9086   50.9320 O   0  0  0  0  0  0  0  0  0  0  0  0
   69.8309   49.5902   51.4334 O   0  0  0  0  0  0  0  0  0  0  0  0
   70.1697   49.0465   52.4904 C   0  0  0  0  0  0  0  0  0  0  0  0
   71.2915   49.5633   53.1451 O   0  0  0  0  0  0  0  0  0  0  0  0
 21 22  2  0
 22 23  1  0
 22 14  1  0
 14 15  2  0
 14 19  1  0
 15 16  1  0
 16 17  2  0
 17 13  1  0
 17 18  1  0
 13  1  1  0
  1  2  2  0
  2  3  1  0
  3  4  1  0
  4  5  2  0
  4  6  1  0
  6  7  2  0
  6 11  1  0
  7  8  1  0
  8  9  2  0
  9 10  1  0
 10 11  2  0
 11 12  1  0
 18 19  2  0
 19 20  1  0
M  END
>  <minimizedAffinity>  (300) 
-8.71970

$$$$
data/reference_output_2/data/smiles/117341.pdb
     RDKit          3D

 26 28  0  0  0  0  0  0  0  0999 V2000
   69.6770   48.4062   56.1441 C   0  0  0  0  0  0  0  0  0  0  0  0
   70.7971   49.1770   55.8412 O   0  0  0  0  0  0  0  0  0  0  0  0
   69.1491   47.7131   54.9521 C   0  0  0  0  0  0  0  0  0  0  0  0
   69.4707   48.1927   53.6907 C   0  0  0  0  0  0  0  0  0  0  0  0
   69.0114   47.5903   52.5388 C   0  0  0  0  0  0  0  0  0  0  0  0
   68.2058   46.4736   52.6018 C   0  0  0  0  0  0  0  0  0  0  0  0
   67.8811   45.9895   53.8499 C   0  0  0  0  0  0  0  0  0  0  0  0
   68.3454   46.6005   55.0142 C   0  0  0  0  0  0  0  0  0  0  0  0
   68.6203   49.3319   56.6359 C   0  0  0  0  0  0  0  0  0  0  0  0
   67.6477   48.8242   57.4703 C   0  0  0  0  0  0  0  0  0  0  0  0
   66.6308   49.6478   57.9629 C   0  0  0  0  0  0  0  0  0  0  0  0
   66.6285   50.9683   57.5957 C   0  0  0  0  0  0  0  0  0  0  0  0
   67.6004   51.4713   56.7634 C   0  0  0  0  0  0  0  0  0  0  0  0
   68.5988   50.6551   56.2820 C   0  0  0  0  0  0  0  0  0  0  0  0
   69.2883   46.5286   57.6234 O   0  0  0  0  0  0  0  0  0  0  0  0
   69.9990   47.5020   57.2677 C   0  0  0  0  0  0  0  0  0  0  0  0
   71.1978   47.6917   58.0529 N   0  0  0  0  0  0  0  0  0  0  0  0
   71.5929   46.9571   59.0744 N   0  0  0  0  0  0  0  0  0  0  0  0
   71.8600   45.8802   59.5530 C   0  0  0  0  0  0  0  0  0  0  0  0
   71.8147   44.5759   58.9274 C   0  0  0  0  0  0  0  0  0  0  0  0
   72.9448   44.0937   58.2524 C   0  0  0  0  0  0  0  0  0  0  0  0
   72.9657   42.8692   57.6404 C   0  0  0  0  0  0  0  0  0  0  0  0
   71.8789   42.0442   57.6560 C   0  0  0  0  0  0  0  0  0  0  0  0
   70.7655   42.5086   58.3166 C   0  0  0  0  0  0  0  0  0  0  0  0
   70.7305   43.7441   58.9387 C   0  0  0  0  0  0  0  0  0  0  0  0
   69.5591   44.1360   59.5854 O   0  0  0  0  0  0  0  0  0  0  0  0
 15 16  2  0
 16 17  1  0
 16  1  1  0
 17 18  1  0
 18 19  2  0
 19 20  1  0
 20 21  2  0
 20 25  1  0
 21 22  1  0
 22 23  2  0
 23 24  1  0
 24 25  2  0
 25 26  1  0
  1  2  1  0
  1  3  1  0
  1  9  1  0
  3  4  2  0
  3  8  1  0
  4  5  1  0
  5  6  2  0
  6  7  1  0
  7  8  2  0
  9 10  2  0
  9 14  1  0
 10 11  1  0
 11 12  2  0
 12 13  1  0
 13 14  2  0
M  END
>  <minimizedAffinity>  (301) 
-8.71961

$$$$
data/reference_output_2/data/smiles/117904.pdb
     RDKit          3D

 23 25  0  0  0  0  0  0  0  0999 V2000
   68.4450   43.7097   56.2485 N   0  0  0  0  0  0  0  0  0  0  0  0
   68.1951   42.4622   56.4795 C   0  0  0  0  0  0  0  0  0  0  0  0
   67.1306   41.6902   55.8711 C   0  0  0  0  0  0  0  0  0  0  0  0
   66.3171   42.1569   55.0364 O   0  0  0  0  0  0  0  0  0  0  0  0
   67.2229   40.3807   56.4045 N   0  0  0  0  0  0  0  0  0  0  0  0
   68.3065   40.2882   57.3313 C   0  0  0  0  0  0  0  0  0  0  0  0
   68.7743   39.2321   58.0871 C   0  0  0  0  0  0  0  0  0  0  0  0
   69.8583   39.3995   58.9232 C   0  0  0  0  0  0  0  0  0  0  0  0
   70.4387   40.6499   58.9642 C   0  0  0  0  0  0  0  0  0  0  0  0
   71.5064   40.8566   59.7723 F   0  0  0  0  0  0  0  0  0  0  0  0
   69.9684   41.7034   58.2073 C   0  0  0  0  0  0  0  0  0  0  0  0
   68.8891   41.5373   57.3751 C   0  0  0  0  0  0  0  0  0  0  0  0
   67.7015   44.4887   55.3621 N   0  0  0  0  0  0  0  0  0  0  0  0
   69.2676   47.9839   53.5407 C   0  0  0  0  0  0  0  0  0  0  0  0
   68.6884   46.9843   52.7897 C   0  0  0  0  0  0  0  0  0  0  0  0
   68.1757   45.8435   53.3720 C   0  0  0  0  0  0  0  0  0  0  0  0
   68.2204   45.6527   54.7371 C   0  0  0  0  0  0  0  0  0  0  0  0
   68.8053   46.6650   55.4798 C   0  0  0  0  0  0  0  0  0  0  0  0
   69.3185   47.8067   54.9066 C   0  0  0  0  0  0  0  0  0  0  0  0
   71.5256   49.6441   53.4588 N   0  0  0  0  0  0  0  0  0  0  0  0
   69.9228   49.4410   52.8109 S   0  0  0  0  0  0  0  0  0  0  0  0
   70.0728   49.2459   51.3334 O   0  0  0  0  0  0  0  0  0  0  0  0
   69.0675   50.6260   53.1348 O   0  0  0  0  0  0  0  0  0  0  0  0
 20 21  1  0
 21 22  2  0
 21 23  2  0
 21 14  1  0
 14 15  2  0
 14 19  1  0
 15 16  1  0
 16 17  2  0
 17 13  1  0
 17 18  1  0
 13  1  1  0
  1  2  2  0
  2  3  1  0
  2 12  1  0
  3  4  2  0
  3  5  1  0
  5  6  1  0
  6  7  1  0
  6 12  2  0
  7  8  2  0
  8  9  1  0
  9 10  1  0
  9 11  2  0
 11 12  1  0
 18 19  2  0
M  END
>  <minimizedAffinity>  (302) 
-8.71957

$$$$
data/reference_output_2/data/smiles/120994.pdb
     RDKit          3D

 25 27  0  0  0  0  0  0  0  0999 V2000
   68.4977   47.5100   55.8945 C   0  0  1  0  0  0  0  0  0  0  0  0
   68.9408   48.8788   56.2430 C   0  0  0  0  0  0  0  0  0  0  0  0
   68.5404   49.4114   57.3559 O   0  0  0  0  0  0  0  0  0  0  0  0
   69.7865   49.6041   55.3834 N   0  0  0  0  0  0  0  0  0  0  0  0
   70.3832   50.7222   55.9205 O   0  0  0  0  0  0  0  0  0  0  0  0
   70.0172   49.2178   54.0473 C   0  0  0  0  0  0  0  0  0  0  0  0
   70.7652   49.8721   53.2843 O   0  0  0  0  0  0  0  0  0  0  0  0
   69.3360   47.9975   53.5763 C   0  0  0  0  0  0  0  0  0  0  0  0
   69.4042   47.6586   52.2205 C   0  0  0  0  0  0  0  0  0  0  0  0
   68.6831   46.6187   51.6819 C   0  0  0  0  0  0  0  0  0  0  0  0
   67.8720   45.9013   52.5292 C   0  0  0  0  0  0  0  0  0  0  0  0
   67.1226   44.8518   52.0558 F   0  0  0  0  0  0  0  0  0  0  0  0
   67.8112   46.2420   53.8737 C   0  0  0  0  0  0  0  0  0  0  0  0
   68.5329   47.2834   54.4347 C   0  0  0  0  0  0  0  0  0  0  0  0
   70.3556   46.9733   57.3142 O   0  0  0  0  0  0  0  0  0  0  0  0
   69.3602   46.5209   56.6477 C   0  0  0  0  0  0  0  0  0  0  0  0
   69.1721   45.1363   56.6907 N   0  0  0  0  0  0  0  0  0  0  0  0
   70.0262   44.1975   57.4335 C   0  0  0  0  0  0  0  0  0  0  0  0
   69.4864   42.8254   57.4601 C   0  0  0  0  0  0  0  0  0  0  0  0
   70.0254   41.8159   58.2048 C   0  0  0  0  0  0  0  0  0  0  0  0
   69.4913   40.5271   58.2201 C   0  0  0  0  0  0  0  0  0  0  0  0
   68.3874   40.2531   57.4650 C   0  0  0  0  0  0  0  0  0  0  0  0
   67.8481   39.0138   57.4601 F   0  0  0  0  0  0  0  0  0  0  0  0
   67.8141   41.2448   56.6993 C   0  0  0  0  0  0  0  0  0  0  0  0
   68.3575   42.5086   56.7001 C   0  0  0  0  0  0  0  0  0  0  0  0
 15 16  2  0
 16 17  1  0
  1 16  1  1
 17 18  1  0
 18 19  1  0
 19 20  2  0
 19 25  1  0
 20 21  1  0
 21 22  2  0
 22 23  1  0
 22 24  1  0
 24 25  2  0
  1  2  1  0
  1 14  1  0
  2  3  2  0
  2  4  1  0
  4  5  1  0
  4  6  1  0
  6  7  2  0
  6  8  1  0
  8  9  2  0
  8 14  1  0
  9 10  1  0
 10 11  2  0
 11 12  1  0
 11 13  1  0
 13 14  2  0
M  END
>  <minimizedAffinity>  (303) 
-8.71682

$$$$
data/200k_reference_output/data/smiles/72275.pdb
     RDKit          3D

 23 25  0  0  0  0  0  0  0  0999 V2000
   69.7294   42.7310   57.3293 O   0  0  0  0  0  0  0  0  0  0  0  0
   68.5056   42.3835   57.2562 C   0  0  0  0  0  0  0  0  0  0  0  0
   67.6941   43.2567   56.4868 N   0  0  0  0  0  0  0  0  0  0  0  0
   68.0512   41.1808   57.9316 C   0  0  0  0  0  0  0  0  0  0  0  0
   68.3983   39.9148   57.5301 C   0  0  0  0  0  0  0  0  0  0  0  0
   67.9428   38.7855   58.1944 C   0  0  0  0  0  0  0  0  0  0  0  0
   67.1073   38.8925   59.3058 C   0  0  0  0  0  0  0  0  0  0  0  0
   66.7636   40.1618   59.7041 C   0  0  0  0  0  0  0  0  0  0  0  0
   65.9582   40.5384   60.7611 C   0  0  0  0  0  0  0  0  0  0  0  0
   65.9329   41.9114   60.7255 C   0  0  0  0  0  0  0  0  0  0  0  0
   66.6931   42.3217   59.6893 N   0  0  0  0  0  0  0  0  0  0  0  0
   67.2260   41.2832   59.0299 C   0  0  0  0  0  0  0  0  0  0  0  0
   68.2558   44.4147   55.8733 N   0  0  0  0  0  0  0  0  0  0  0  0
   67.8070   44.8286   54.7390 C   0  0  0  0  0  0  0  0  0  0  0  0
   68.3143   45.9995   54.0351 C   0  0  0  0  0  0  0  0  0  0  0  0
   68.8295   47.0703   54.7535 C   0  0  0  0  0  0  0  0  0  0  0  0
   69.3341   48.1912   54.1419 C   0  0  0  0  0  0  0  0  0  0  0  0
   69.3557   48.3144   52.7488 C   0  0  0  0  0  0  0  0  0  0  0  0
   68.8435   47.2534   52.0375 C   0  0  0  0  0  0  0  0  0  0  0  0
   68.3352   46.1253   52.6646 C   0  0  0  0  0  0  0  0  0  0  0  0
   69.8814   49.4666   52.1103 N   0  0  0  0  0  0  0  0  0  0  0  0
   69.9361   49.5929   50.8767 O   0  0  0  0  0  0  0  0  0  0  0  0
   70.3519   50.4965   52.8828 O   0  0  0  0  0  0  0  0  0  0  0  0
  1  2  2  0
  2  3  1  0
  2  4  1  0
  3 13  1  0
 13 14  2  0
 14 15  1  0
 15 16  2  0
 15 20  1  0
 16 17  1  0
 17 18  2  0
 18 21  1  0
 18 19  1  0
 21 22  2  0
 21 23  1  0
 19 20  2  0
  4  5  2  0
  4 12  1  0
  5  6  1  0
  6  7  2  0
  7  8  1  0
  8  9  1  0
  8 12  2  0
  9 10  2  0
 10 11  1  0
 11 12  1  0
M  CHG  2  21   1  23  -1
M  END
>  <minimizedAffinity>  (304) 
-8.71592

$$$$
data/200k_reference_output/data/smiles/55334.pdb
     RDKit          3D

 25 27  0  0  0  0  0  0  0  0999 V2000
   68.3826   42.0478   57.1243 C   0  0  0  0  0  0  0  0  0  0  0  0
   68.9461   43.2493   56.7380 C   0  0  0  0  0  0  0  0  0  0  0  0
   68.1271   43.8748   55.8185 C   0  0  0  0  0  0  0  0  0  0  0  0
   67.1159   43.0569   55.6757 O   0  0  0  0  0  0  0  0  0  0  0  0
   67.2401   42.0005   56.4158 N   0  0  0  0  0  0  0  0  0  0  0  0
   68.3280   45.1588   55.1458 C   0  0  0  0  0  0  0  0  0  0  0  0
   68.0111   45.3404   53.8174 C   0  0  0  0  0  0  0  0  0  0  0  0
   68.1925   46.5411   53.1641 C   0  0  0  0  0  0  0  0  0  0  0  0
   68.7165   47.6588   53.8257 C   0  0  0  0  0  0  0  0  0  0  0  0
   69.0303   47.4718   55.1465 C   0  0  0  0  0  0  0  0  0  0  0  0
   68.8432   46.2608   55.7920 C   0  0  0  0  0  0  0  0  0  0  0  0
   68.9030   48.8820   53.1112 N   0  0  0  0  0  0  0  0  0  0  0  0
   70.0948   49.1646   52.4046 C   0  0  0  0  0  0  0  0  0  0  0  0
   70.0408   49.2592   51.1263 N   0  0  0  0  0  0  0  0  0  0  0  0
   71.3222   49.3232   53.1237 N   0  0  0  0  0  0  0  0  0  0  0  0
   68.8087   39.6847   57.7946 N   0  0  0  0  0  0  0  0  0  0  0  0
   68.9080   41.0634   58.0799 C   0  0  0  0  0  0  0  0  0  0  0  0
   69.4400   41.4153   59.1406 O   0  0  0  0  0  0  0  0  0  0  0  0
   72.4000   36.5647   58.8893 C   0  0  0  0  0  0  0  0  0  0  0  0
   71.0419   37.0946   59.1650 C   0  0  0  0  0  0  0  0  0  0  0  0
   70.2695   36.5912   60.1756 C   0  0  0  0  0  0  0  0  0  0  0  0
   69.0018   37.1159   60.3996 C   0  0  0  0  0  0  0  0  0  0  0  0
   68.5505   38.1141   59.6192 N   0  0  0  0  0  0  0  0  0  0  0  0
   69.2662   38.6441   58.6158 C   0  0  0  0  0  0  0  0  0  0  0  0
   70.5255   38.1296   58.3846 C   0  0  0  0  0  0  0  0  0  0  0  0
 19 20  1  0
 20 21  2  0
 20 25  1  0
 21 22  1  0
 22 23  2  0
 23 24  1  0
 24 16  1  0
 24 25  2  0
 16 17  1  0
 17 18  2  0
 17  1  1  0
  1  2  1  0
  1  5  2  0
  2  3  2  0
  3  6  1  0
  3  4  1  0
  6  7  2  0
  6 11  1  0
  7  8  1  0
  8  9  2  0
  9 12  1  0
  9 10  1  0
 12 13  1  0
 13 14  2  0
 13 15  1  0
 10 11  2  0
  4  5  1  0
M  CHG  1  14   1
M  END
>  <minimizedAffinity>  (305) 
-8.71394

$$$$
data/reference_output_2/data/smiles/87929.pdb
     RDKit          3D

 23 25  0  0  0  0  0  0  0  0999 V2000
   72.1109   52.0483   54.6850 C   0  0  2  0  0  0  0  0  0  0  0  0
   71.1225   51.1995   53.9847 N   0  0  0  0  0  0  0  0  0  0  0  0
   70.7897   49.9247   54.2570 C   0  0  0  0  0  0  0  0  0  0  0  0
   69.8272   49.4835   53.3737 C   0  0  0  0  0  0  0  0  0  0  0  0
   69.6038   50.5390   52.5724 N   0  0  0  0  0  0  0  0  0  0  0  0
   70.3792   51.5488   52.9481 N   0  0  0  0  0  0  0  0  0  0  0  0
   69.1785   48.1813   53.2956 C   0  0  0  0  0  0  0  0  0  0  0  0
   68.6764   47.5387   54.4074 C   0  0  0  0  0  0  0  0  0  0  0  0
   68.0612   46.3042   54.3313 C   0  0  0  0  0  0  0  0  0  0  0  0
   67.9222   45.6532   53.1230 C   0  0  0  0  0  0  0  0  0  0  0  0
   68.4236   46.2943   52.0100 C   0  0  0  0  0  0  0  0  0  0  0  0
   69.0376   47.5280   52.0879 C   0  0  0  0  0  0  0  0  0  0  0  0
   73.6138   50.9222   56.2020 O   0  0  0  0  0  0  0  0  0  0  0  0
   73.2329   51.1791   55.0552 C   0  0  0  0  0  0  0  0  0  0  0  0
   73.9625   50.5658   53.9903 N   0  0  0  0  0  0  0  0  0  0  0  0
   75.0173   49.7453   54.2688 O   0  0  0  0  0  0  0  0  0  0  0  0
   71.4296   52.7777   55.7822 C   0  0  0  0  0  0  0  0  0  0  0  0
   70.2586   52.1358   56.3773 C   0  0  0  0  0  0  0  0  0  0  0  0
   68.9767   52.3323   55.9347 C   0  0  0  0  0  0  0  0  0  0  0  0
   67.8936   51.6799   56.5254 C   0  0  0  0  0  0  0  0  0  0  0  0
   68.1078   50.8201   57.5764 C   0  0  0  0  0  0  0  0  0  0  0  0
   69.3898   50.6071   58.0392 C   0  0  0  0  0  0  0  0  0  0  0  0
   70.4350   51.2576   57.4438 C   0  0  0  0  0  0  0  0  0  0  0  0
 13 14  2  0
 14 15  1  0
 14  1  1  0
 15 16  1  0
  1 17  1  1
  1  2  1  0
 17 18  1  0
 18 19  2  0
 18 23  1  0
 19 20  1  0
 20 21  2  0
 21 22  1  0
 22 23  2  0
  2  3  1  0
  2  6  1  0
  3  4  2  0
  4  7  1  0
  4  5  1  0
  7  8  2  0
  7 12  1  0
  8  9  1  0
  9 10  2  0
 10 11  1  0
 11 12  2  0
  5  6  2  0
M  END
>  <minimizedAffinity>  (306) 
-8.71344

$$$$
data/reference_output_2/data/smiles/172887.pdb
     RDKit          3D

 25 28  0  0  0  0  0  0  0  0999 V2000
   72.3256   35.7412   52.9823 O   0  0  0  0  0  0  0  0  0  0  0  0
   73.1187   35.4456   53.9066 C   0  0  0  0  0  0  0  0  0  0  0  0
   72.6104   35.1768   55.1593 C   0  0  0  0  0  0  0  0  0  0  0  0
   73.4906   34.8502   56.1802 C   0  0  0  0  0  0  0  0  0  0  0  0
   74.7958   34.8204   55.8637 N   0  0  0  0  0  0  0  0  0  0  0  0
   75.2718   35.0890   54.6211 C   0  0  0  0  0  0  0  0  0  0  0  0
   76.5335   35.1117   54.1057 N   0  0  0  0  0  0  0  0  0  0  0  0
   76.4725   35.4405   52.8035 C   0  0  0  0  0  0  0  0  0  0  0  0
   75.1653   35.6148   52.5403 N   0  0  0  0  0  0  0  0  0  0  0  0
   74.4314   35.4081   53.6201 N   0  0  0  0  0  0  0  0  0  0  0  0
   72.9987   34.5500   57.5547 C   0  0  0  0  0  0  0  0  0  0  0  0
   72.2380   35.6889   58.1319 C   0  0  0  0  0  0  0  0  0  0  0  0
   71.3361   35.4973   59.1686 C   0  0  0  0  0  0  0  0  0  0  0  0
   70.6138   36.5240   59.7300 C   0  0  0  0  0  0  0  0  0  0  0  0
   70.7784   37.8101   59.2576 C   0  0  0  0  0  0  0  0  0  0  0  0
   71.6662   38.0276   58.2309 C   0  0  0  0  0  0  0  0  0  0  0  0
   72.3818   36.9921   57.6795 C   0  0  0  0  0  0  0  0  0  0  0  0
   77.6086   35.5859   51.8366 C   0  0  0  0  0  0  0  0  0  0  0  0
   77.2287   35.1461   50.4840 C   0  0  0  0  0  0  0  0  0  0  0  0
   76.2689   34.1858   50.2860 C   0  0  0  0  0  0  0  0  0  0  0  0
   75.9139   33.7745   48.9972 C   0  0  0  0  0  0  0  0  0  0  0  0
   76.5327   34.3358   47.9058 C   0  0  0  0  0  0  0  0  0  0  0  0
   76.2255   33.9708   46.6252 F   0  0  0  0  0  0  0  0  0  0  0  0
   77.5095   35.3122   48.0892 C   0  0  0  0  0  0  0  0  0  0  0  0
   77.8437   35.7047   49.3907 C   0  0  0  0  0  0  0  0  0  0  0  0
  1  2  2  0
  2  3  1  0
  2 10  1  0
  3  4  2  0
  4 11  1  0
  4  5  1  0
 11 12  1  0
 12 13  2  0
 12 17  1  0
 13 14  1  0
 14 15  2  0
 15 16  1  0
 16 17  2  0
  5  6  1  0
  6  7  2  0
  6 10  1  0
  7  8  1  0
  8 18  1  0
  8  9  2  0
 18 19  1  0
 19 20  2  0
 19 25  1  0
 20 21  1  0
 21 22  2  0
 22 23  1  0
 22 24  1  0
 24 25  2  0
  9 10  1  0
M  END
>  <minimizedAffinity>  (307) 
-8.71224

$$$$
data/200k_reference_output/data/smiles/73827.pdb
     RDKit          3D

 25 27  0  0  0  0  0  0  0  0999 V2000
   69.8365   44.7370   57.1592 N   0  0  0  0  0  0  0  0  0  0  0  0
   68.8740   43.8785   56.8975 N   0  0  0  0  0  0  0  0  0  0  0  0
   68.9697   42.5375   57.1531 C   0  0  0  0  0  0  0  0  0  0  0  0
   70.0978   41.9952   57.7102 C   0  0  0  0  0  0  0  0  0  0  0  0
   70.2650   40.6572   57.9957 C   0  0  0  0  0  0  0  0  0  0  0  0
   71.4532   40.1709   58.5675 C   0  0  0  0  0  0  0  0  0  0  0  0
   72.4771   41.0474   58.8526 C   0  0  0  0  0  0  0  0  0  0  0  0
   72.2895   42.3771   58.5594 C   0  0  0  0  0  0  0  0  0  0  0  0
   71.1265   42.8750   57.9953 C   0  0  0  0  0  0  0  0  0  0  0  0
   70.9648   44.2019   57.7148 C   0  0  0  0  0  0  0  0  0  0  0  0
   71.9019   44.9948   57.9756 O   0  0  0  0  0  0  0  0  0  0  0  0
   67.8397   41.6853   56.8215 C   0  0  0  0  0  0  0  0  0  0  0  0
   67.6990   40.9561   55.8408 O   0  0  0  0  0  0  0  0  0  0  0  0
   66.7275   41.6552   57.7129 O   0  0  0  0  0  0  0  0  0  0  0  0
   69.6990   46.1455   56.9634 C   0  0  0  0  0  0  0  0  0  0  0  0
   67.7678   47.2958   56.6065 O   0  0  0  0  0  0  0  0  0  0  0  0
   68.7799   46.6672   55.9963 C   0  0  0  0  0  0  0  0  0  0  0  0
   68.6559   46.7038   54.5587 C   0  0  0  0  0  0  0  0  0  0  0  0
   69.1950   47.8031   53.8591 C   0  0  0  0  0  0  0  0  0  0  0  0
   69.1566   47.8967   52.5173 C   0  0  0  0  0  0  0  0  0  0  0  0
   69.6842   48.9687   51.8441 F   0  0  0  0  0  0  0  0  0  0  0  0
   68.5800   46.9080   51.7569 C   0  0  0  0  0  0  0  0  0  0  0  0
   68.0406   45.8214   52.3730 C   0  0  0  0  0  0  0  0  0  0  0  0
   68.0900   45.7432   53.7630 C   0  0  0  0  0  0  0  0  0  0  0  0
   67.5069   44.6459   54.2749 F   0  0  0  0  0  0  0  0  0  0  0  0
 16 17  2  0
 17 15  1  0
 17 18  1  0
 15  1  1  0
  1  2  1  0
  1 10  1  0
  2  3  2  0
  3 12  1  0
  3  4  1  0
 12 13  2  0
 12 14  1  0
  4  5  2  0
  4  9  1  0
  5  6  1  0
  6  7  2  0
  7  8  1  0
  8  9  2  0
  9 10  1  0
 10 11  2  0
 18 19  2  0
 18 24  1  0
 19 20  1  0
 20 21  1  0
 20 22  2  0
 22 23  1  0
 23 24  2  0
 24 25  1  0
M  END
>  <minimizedAffinity>  (308) 
-8.71207

$$$$
data/200k_reference_output/data/smiles/730.pdb
     RDKit          3D

 25 28  0  0  0  0  0  0  0  0999 V2000
   73.1736   50.5174   53.8028 O   0  0  0  0  0  0  0  0  0  0  0  0
   71.9141   50.4326   53.9216 C   0  0  0  0  0  0  0  0  0  0  0  0
   71.2384   49.3483   53.4503 N   0  0  0  0  0  0  0  0  0  0  0  0
   69.9079   49.2239   53.5578 C   0  0  0  0  0  0  0  0  0  0  0  0
   69.2415   50.2320   54.1631 N   0  0  0  0  0  0  0  0  0  0  0  0
   69.8673   51.3183   54.6431 C   0  0  0  0  0  0  0  0  0  0  0  0
   71.2348   51.4603   54.5400 C   0  0  0  0  0  0  0  0  0  0  0  0
   71.9502   52.6545   55.0623 C   0  0  0  0  0  0  0  0  0  0  0  0
   71.0734   53.4750   55.9508 C   0  0  0  0  0  0  0  0  0  0  0  0
   69.9002   52.8394   56.4376 N   0  0  1  0  0  0  0  0  0  0  0  0
   69.1123   52.4079   55.3033 C   0  0  0  0  0  0  0  0  0  0  0  0
   69.1823   48.0591   53.0508 C   0  0  0  0  0  0  0  0  0  0  0  0
   68.5638   47.1960   53.9304 C   0  0  0  0  0  0  0  0  0  0  0  0
   67.8640   46.0764   53.4794 C   0  0  0  0  0  0  0  0  0  0  0  0
   67.7887   45.8273   52.1258 C   0  0  0  0  0  0  0  0  0  0  0  0
   68.4266   46.7220   51.2740 C   0  0  0  0  0  0  0  0  0  0  0  0
   69.0969   47.7998   51.7527 N   0  0  0  0  0  0  0  0  0  0  0  0
   70.0609   51.7667   57.3511 C   0  0  0  0  0  0  0  0  0  0  0  0
   68.8937   50.8648   57.4482 C   0  0  0  0  0  0  0  0  0  0  0  0
   67.6223   51.3455   57.6682 C   0  0  0  0  0  0  0  0  0  0  0  0
   66.5205   50.5259   57.7617 C   0  0  0  0  0  0  0  0  0  0  0  0
   66.6463   49.1640   57.6367 C   0  0  0  0  0  0  0  0  0  0  0  0
   67.9086   48.6570   57.4157 C   0  0  0  0  0  0  0  0  0  0  0  0
   68.0383   47.2848   57.2898 O   0  0  0  0  0  0  0  0  0  0  0  0
   69.0147   49.4981   57.3233 C   0  0  0  0  0  0  0  0  0  0  0  0
  1  2  2  0
  2  3  1  0
  2  7  1  0
  3  4  1  0
  4 12  1  0
  4  5  2  0
 12 13  2  0
 12 17  1  0
 13 14  1  0
 14 15  2  0
 15 16  1  0
 16 17  2  0
  5  6  1  0
  6  7  2  0
  6 11  1  0
  7  8  1  0
  8  9  1  0
  9 10  1  0
 10 18  1  1
 10 11  1  0
 18 19  1  0
 19 20  2  0
 19 25  1  0
 20 21  1  0
 21 22  2  0
 22 23  1  0
 23 24  1  0
 23 25  2  0
M  CHG  1  10   1
M  END
>  <minimizedAffinity>  (309) 
-8.71128

$$$$
data/reference_output_2/data/smiles/96199.pdb
     RDKit          3D

 24 26  0  0  0  0  0  0  0  0999 V2000
   71.3133   37.1195   58.6181 C   0  0  0  0  0  0  0  0  0  0  0  0
   70.8341   38.5353   58.5103 C   0  0  0  0  0  0  0  0  0  0  0  0
   69.4875   38.8452   58.4207 C   0  0  0  0  0  0  0  0  0  0  0  0
   69.1324   40.1836   58.3236 C   0  0  0  0  0  0  0  0  0  0  0  0
   70.0717   41.1937   58.3145 C   0  0  0  0  0  0  0  0  0  0  0  0
   69.6891   42.5352   58.2160 C   0  0  0  0  0  0  0  0  0  0  0  0
   68.3439   42.8041   58.1281 O   0  0  0  0  0  0  0  0  0  0  0  0
   70.6091   43.5558   58.2055 C   0  0  0  0  0  0  0  0  0  0  0  0
   71.9465   43.1671   58.2994 C   0  0  0  0  0  0  0  0  0  0  0  0
   72.3115   41.8482   58.3954 C   0  0  0  0  0  0  0  0  0  0  0  0
   71.3909   40.8226   58.4063 C   0  0  0  0  0  0  0  0  0  0  0  0
   71.7378   39.5284   58.5007 N   0  0  0  0  0  0  0  0  0  0  0  0
   70.2928   44.9658   58.1063 C   0  0  0  0  0  0  0  0  0  0  0  0
   70.6600   45.7063   59.0903 O   0  0  0  0  0  0  0  0  0  0  0  0
   69.6200   45.5976   57.0296 N   0  0  0  0  0  0  0  0  0  0  0  0
   69.4138   47.0363   57.1557 C   0  0  0  0  0  0  0  0  0  0  0  0
   68.3522   47.5699   56.2432 C   0  0  0  0  0  0  0  0  0  0  0  0
   68.7404   47.5323   54.8172 C   0  0  0  0  0  0  0  0  0  0  0  0
   68.3400   46.4385   54.0629 C   0  0  0  0  0  0  0  0  0  0  0  0
   68.6598   46.3133   52.7335 C   0  0  0  0  0  0  0  0  0  0  0  0
   69.4028   47.2984   52.1207 C   0  0  0  0  0  0  0  0  0  0  0  0
   69.7240   47.1650   50.7707 O   0  0  0  0  0  0  0  0  0  0  0  0
   69.8047   48.3881   52.8646 C   0  0  0  0  0  0  0  0  0  0  0  0
   69.4763   48.5016   54.1985 C   0  0  0  0  0  0  0  0  0  0  0  0
  1  2  1  0
  2  3  2  0
  2 12  1  0
  3  4  1  0
  4  5  2  0
  5  6  1  0
  5 11  1  0
  6  7  1  0
  6  8  2  0
  8 13  1  0
  8  9  1  0
 13 14  2  0
 13 15  1  0
 15 16  1  0
 16 17  1  0
 17 18  1  0
 18 19  2  0
 18 24  1  0
 19 20  1  0
 20 21  2  0
 21 22  1  0
 21 23  1  0
 23 24  2  0
  9 10  2  0
 10 11  1  0
 11 12  2  0
M  END
>  <minimizedAffinity>  (310) 
-8.71085

$$$$
data/reference_output_2/data/smiles/89698.pdb
     RDKit          3D

 23 25  0  0  0  0  0  0  0  0999 V2000
   69.6663   48.0327   56.3586 C   0  0  0  0  0  0  0  0  0  0  0  0
   69.8231   48.0861   54.9088 C   0  0  0  0  0  0  0  0  0  0  0  0
   70.7367   49.0147   54.4230 N   0  0  0  0  0  0  0  0  0  0  0  0
   70.9214   49.2293   53.1468 N   0  0  0  0  0  0  0  0  0  0  0  0
   70.2478   48.5734   52.1833 C   0  0  0  0  0  0  0  0  0  0  0  0
   70.4377   48.7935   50.9604 O   0  0  0  0  0  0  0  0  0  0  0  0
   69.3222   47.6310   52.5741 C   0  0  0  0  0  0  0  0  0  0  0  0
   68.6322   46.9228   51.6160 C   0  0  0  0  0  0  0  0  0  0  0  0
   67.7293   45.9648   51.9980 C   0  0  0  0  0  0  0  0  0  0  0  0
   67.5484   45.7451   53.3697 C   0  0  0  0  0  0  0  0  0  0  0  0
   68.2413   46.4569   54.3220 C   0  0  0  0  0  0  0  0  0  0  0  0
   69.1436   47.4201   53.9515 C   0  0  0  0  0  0  0  0  0  0  0  0
   68.7757   50.3501   57.0063 C   0  0  0  0  0  0  0  0  0  0  0  0
   67.7386   51.0693   57.5961 C   0  0  0  0  0  0  0  0  0  0  0  0
   66.5739   50.4420   57.9969 C   0  0  0  0  0  0  0  0  0  0  0  0
   66.4365   49.0825   57.8110 C   0  0  0  0  0  0  0  0  0  0  0  0
   67.4634   48.3872   57.2333 C   0  0  0  0  0  0  0  0  0  0  0  0
   68.6655   49.0081   56.8169 C   0  0  0  0  0  0  0  0  0  0  0  0
   69.9053   51.0297   56.5038 N   0  0  0  0  0  0  0  0  0  0  0  0
   69.9375   53.8747   56.3170 C   0  0  0  0  0  0  0  0  0  0  0  0
   69.7502   52.3458   55.4371 S   0  0  0  0  0  0  0  0  0  0  0  0
   70.7808   52.2495   54.3261 O   0  0  0  0  0  0  0  0  0  0  0  0
   68.4119   52.3450   54.7735 O   0  0  0  0  0  0  0  0  0  0  0  0
 20 21  1  0
 21 22  2  0
 21 23  2  0
 21 19  1  0
 19 13  1  0
 13 14  2  0
 13 18  1  0
 14 15  1  0
 15 16  2  0
 16 17  1  0
 17 18  2  0
 18  1  1  0
  1  2  1  0
  2  3  2  0
  2 12  1  0
  3  4  1  0
  4  5  1  0
  5  6  2  0
  5  7  1  0
  7  8  1  0
  7 12  2  0
  8  9  2  0
  9 10  1  0
 10 11  2  0
 11 12  1  0
M  END
>  <minimizedAffinity>  (311) 
-8.71073

$$$$
data/200k_reference_output/data/smiles/57637.pdb
     RDKit          3D

 21 23  0  0  0  0  0  0  0  0999 V2000
   71.3315   49.0619   53.1646 O   0  0  0  0  0  0  0  0  0  0  0  0
   69.9598   49.1654   52.4731 S   0  0  0  0  0  0  0  0  0  0  0  0
   70.3259   49.0946   50.9892 O   0  0  0  0  0  0  0  0  0  0  0  0
   69.1010   47.7433   52.9459 C   0  0  0  0  0  0  0  0  0  0  0  0
   68.5033   46.8715   52.0681 C   0  0  0  0  0  0  0  0  0  0  0  0
   67.8402   45.7349   52.5520 C   0  0  0  0  0  0  0  0  0  0  0  0
   67.7811   45.4812   53.8974 C   0  0  0  0  0  0  0  0  0  0  0  0
   68.4051   46.3992   54.7459 C   0  0  0  0  0  0  0  0  0  0  0  0
   68.3975   46.2196   56.1843 N   0  0  0  0  0  0  0  0  0  0  0  0
   69.2055   47.4593   56.8528 S   0  0  0  0  0  0  0  0  0  0  0  0
   69.6189   48.3158   55.2803 N   0  0  0  0  0  0  0  0  0  0  0  0
   69.0244   47.4590   54.3230 C   0  0  0  0  0  0  0  0  0  0  0  0
   69.2772   50.6507   52.8701 N   0  0  0  0  0  0  0  0  0  0  0  0
   69.2021   51.2102   54.1653 C   0  0  0  0  0  0  0  0  0  0  0  0
   68.1342   51.0957   55.0244 C   0  0  0  0  0  0  0  0  0  0  0  0
   68.1025   51.6954   56.2691 C   0  0  0  0  0  0  0  0  0  0  0  0
   67.0070   51.5420   57.0772 F   0  0  0  0  0  0  0  0  0  0  0  0
   69.1574   52.4554   56.7255 C   0  0  0  0  0  0  0  0  0  0  0  0
   70.2392   52.5880   55.8883 C   0  0  0  0  0  0  0  0  0  0  0  0
   70.2679   51.9913   54.6539 C   0  0  0  0  0  0  0  0  0  0  0  0
   71.3369   52.1144   53.8100 F   0  0  0  0  0  0  0  0  0  0  0  0
  1  2  2  0
  2  3  2  0
  2 13  1  0
  2  4  1  0
 13 14  1  0
 14 15  2  0
 14 20  1  0
 15 16  1  0
 16 17  1  0
 16 18  2  0
 18 19  1  0
 19 20  2  0
 20 21  1  0
  4  5  2  0
  4 12  1  0
  5  6  1  0
  6  7  2  0
  7  8  1  0
  8  9  2  0
  8 12  1  0
  9 10  1  0
 10 11  1  0
 11 12  2  0
M  END
>  <minimizedAffinity>  (312) 
-8.70951

$$$$
data/reference_output_2/data/smiles/112929.pdb
     RDKit          3D

 23 25  0  0  0  0  0  0  0  0999 V2000
   68.8679   48.1620   56.2846 C   0  0  0  0  0  0  0  0  0  0  0  0
   69.3192   48.2740   54.8719 C   0  0  0  0  0  0  0  0  0  0  0  0
   70.2102   49.2176   54.5144 N   0  0  0  0  0  0  0  0  0  0  0  0
   70.6022   49.3997   53.3019 N   0  0  0  0  0  0  0  0  0  0  0  0
   70.1212   48.6266   52.3176 C   0  0  0  0  0  0  0  0  0  0  0  0
   70.4969   48.7917   51.1148 O   0  0  0  0  0  0  0  0  0  0  0  0
   69.2018   47.6202   52.5540 C   0  0  0  0  0  0  0  0  0  0  0  0
   68.7195   46.8268   51.5386 C   0  0  0  0  0  0  0  0  0  0  0  0
   67.8186   45.8309   51.8058 C   0  0  0  0  0  0  0  0  0  0  0  0
   67.4194   45.6547   53.1053 C   0  0  0  0  0  0  0  0  0  0  0  0
   67.8845   46.4357   54.1385 C   0  0  0  0  0  0  0  0  0  0  0  0
   68.8067   47.4639   53.8941 C   0  0  0  0  0  0  0  0  0  0  0  0
   70.5041   47.8347   57.9819 O   0  0  0  0  0  0  0  0  0  0  0  0
   69.7293   47.3189   57.1358 C   0  0  0  0  0  0  0  0  0  0  0  0
   69.6984   45.8988   57.0108 N   0  0  0  0  0  0  0  0  0  0  0  0
   70.5034   44.9976   57.8088 C   0  0  0  0  0  0  0  0  0  0  0  0
   69.9293   43.6286   57.7153 C   0  0  0  0  0  0  0  0  0  0  0  0
   68.9269   43.3438   56.8007 C   0  0  0  0  0  0  0  0  0  0  0  0
   68.4158   42.0546   56.7785 C   0  0  0  0  0  0  0  0  0  0  0  0
   68.8317   41.0371   57.5978 C   0  0  0  0  0  0  0  0  0  0  0  0
   68.1338   39.4186   57.5088 Cl  0  0  0  0  0  0  0  0  0  0  0  0
   69.8321   41.3225   58.5095 C   0  0  0  0  0  0  0  0  0  0  0  0
   70.3627   42.6108   58.5533 C   0  0  0  0  0  0  0  0  0  0  0  0
 13 14  2  0
 14  1  1  0
 14 15  1  0
  1  2  1  0
  2  3  2  0
  2 12  1  0
  3  4  1  0
  4  5  1  0
  5  6  2  0
  5  7  1  0
  7  8  1  0
  7 12  2  0
  8  9  2  0
  9 10  1  0
 10 11  2  0
 11 12  1  0
 15 16  1  0
 16 17  1  0
 17 18  2  0
 17 23  1  0
 18 19  1  0
 19 20  2  0
 20 21  1  0
 20 22  1  0
 22 23  2  0
M  END
>  <minimizedAffinity>  (313) 
-8.70924

$$$$
data/reference_output_2/data/smiles/139870.pdb
     RDKit          3D

 24 27  0  0  0  0  0  0  0  0999 V2000
   70.3550   48.7973   51.1398 O   0  0  0  0  0  0  0  0  0  0  0  0
   70.0325   48.8373   52.3707 C   0  0  0  0  0  0  0  0  0  0  0  0
   69.2767   47.8026   52.9596 N   0  0  0  0  0  0  0  0  0  0  0  0
   68.8731   46.6879   52.1269 C   0  0  0  0  0  0  0  0  0  0  0  0
   67.7167   45.9794   52.7727 C   0  0  0  0  0  0  0  0  0  0  0  0
   68.0693   45.6122   54.1633 C   0  0  0  0  0  0  0  0  0  0  0  0
   67.9241   44.5445   54.8897 O   0  0  0  0  0  0  0  0  0  0  0  0
   68.4164   44.7341   56.0730 N   0  0  0  0  0  0  0  0  0  0  0  0
   68.9291   46.0014   56.1665 C   0  0  0  0  0  0  0  0  0  0  0  0
   68.7074   46.5605   54.9564 C   0  0  0  0  0  0  0  0  0  0  0  0
   68.9347   47.8965   54.3609 C   0  0  0  0  0  0  0  0  0  0  0  0
   70.4698   49.9861   53.1479 C   0  0  0  0  0  0  0  0  0  0  0  0
   69.7624   51.1567   53.3769 C   0  0  0  0  0  0  0  0  0  0  0  0
   70.5255   51.9747   54.1528 C   0  0  0  0  0  0  0  0  0  0  0  0
   71.7128   51.3108   54.4095 C   0  0  0  0  0  0  0  0  0  0  0  0
   71.6515   50.1118   53.7896 N   0  0  0  0  0  0  0  0  0  0  0  0
   69.6297   46.5288   57.3751 C   0  0  0  0  0  0  0  0  0  0  0  0
   69.2922   47.7087   57.8608 O   0  0  0  0  0  0  0  0  0  0  0  0
   68.9728   48.9772   57.6806 C   0  0  0  0  0  0  0  0  0  0  0  0
   67.6569   49.4426   57.6135 C   0  0  0  0  0  0  0  0  0  0  0  0
   67.4166   50.7762   57.4249 C   0  0  0  0  0  0  0  0  0  0  0  0
   68.4206   51.6994   57.2954 C   0  0  0  0  0  0  0  0  0  0  0  0
   69.6825   51.2493   57.3598 N   0  0  0  0  0  0  0  0  0  0  0  0
   69.9737   49.9732   57.5398 C   0  0  0  0  0  0  0  0  0  0  0  0
  1  2  2  0
  2 12  1  0
  2  3  1  0
 12 13  2  0
 12 16  1  0
 13 14  1  0
 14 15  2  0
 15 16  1  0
  3  4  1  0
  3 11  1  0
  4  5  1  0
  5  6  1  0
  6  7  1  0
  6 10  2  0
  7  8  1  0
  8  9  2  0
  9 17  1  0
  9 10  1  0
 17 18  1  0
 18 19  1  0
 19 20  2  0
 19 24  1  0
 20 21  1  0
 21 22  2  0
 22 23  1  0
 23 24  2  0
 10 11  1  0
M  END
>  <minimizedAffinity>  (314) 
-8.70803

$$$$
data/200k_reference_output/data/smiles/868.pdb
     RDKit          3D

 23 26  0  0  0  0  0  0  0  0999 V2000
   70.7212   47.2704   57.4337 O   0  0  0  0  0  0  0  0  0  0  0  0
   70.1429   46.1590   57.2437 C   0  0  0  0  0  0  0  0  0  0  0  0
   70.5489   45.0260   57.8635 N   0  0  0  0  0  0  0  0  0  0  0  0
   69.9092   43.8488   57.6391 C   0  0  0  0  0  0  0  0  0  0  0  0
   70.3498   42.7427   58.2807 N   0  0  0  0  0  0  0  0  0  0  0  0
   69.7196   41.5618   58.0647 C   0  0  0  0  0  0  0  0  0  0  0  0
   70.1453   40.4028   58.7085 C   0  0  0  0  0  0  0  0  0  0  0  0
   69.5095   39.1947   58.4957 C   0  0  0  0  0  0  0  0  0  0  0  0
   68.4384   39.1245   57.6355 C   0  0  0  0  0  0  0  0  0  0  0  0
   68.0171   40.2693   56.9993 C   0  0  0  0  0  0  0  0  0  0  0  0
   68.6471   41.4847   57.2064 C   0  0  0  0  0  0  0  0  0  0  0  0
   68.2299   42.6349   56.5720 C   0  0  0  0  0  0  0  0  0  0  0  0
   67.2499   42.5564   55.7893 O   0  0  0  0  0  0  0  0  0  0  0  0
   68.8619   43.7994   56.7944 N   0  0  0  0  0  0  0  0  0  0  0  0
   68.4737   44.9256   56.1897 N   0  0  0  0  0  0  0  0  0  0  0  0
   69.0722   46.1145   56.3777 C   0  0  0  0  0  0  0  0  0  0  0  0
   68.6005   47.3552   55.6753 C   0  0  0  0  0  0  0  0  0  0  0  0
   68.5909   47.1538   54.2098 C   0  0  0  0  0  0  0  0  0  0  0  0
   67.8131   46.2109   53.5836 C   0  0  0  0  0  0  0  0  0  0  0  0
   67.8321   46.0510   52.1968 C   0  0  0  0  0  0  0  0  0  0  0  0
   68.6557   46.8621   51.4378 C   0  0  0  0  0  0  0  0  0  0  0  0
   69.4414   47.8119   52.0469 C   0  0  0  0  0  0  0  0  0  0  0  0
   69.4022   47.9489   53.4330 C   0  0  0  0  0  0  0  0  0  0  0  0
  1  2  2  0
  2  3  1  0
  2 16  1  0
  3  4  1  0
  4  5  2  0
  4 14  1  0
  5  6  1  0
  6  7  2  0
  6 11  1  0
  7  8  1  0
  8  9  2  0
  9 10  1  0
 10 11  2  0
 11 12  1  0
 12 13  2  0
 12 14  1  0
 14 15  1  0
 15 16  2  0
 16 17  1  0
 17 18  1  0
 18 19  2  0
 18 23  1  0
 19 20  1  0
 20 21  2  0
 21 22  1  0
 22 23  2  0
M  END
>  <minimizedAffinity>  (315) 
-8.70713

$$$$
data/reference_output_2/data/smiles/110093.pdb
     RDKit          3D

 25 27  0  0  0  0  0  0  0  0999 V2000
   68.5344   42.4445   57.0161 C   0  0  0  0  0  0  0  0  0  0  0  0
   69.7927   42.5697   56.8434 O   0  0  0  0  0  0  0  0  0  0  0  0
   67.7340   43.4078   56.3731 N   0  0  0  0  0  0  0  0  0  0  0  0
   67.0074   39.2091   59.3777 C   0  0  0  0  0  0  0  0  0  0  0  0
   66.5543   40.4976   59.5761 C   0  0  0  0  0  0  0  0  0  0  0  0
   67.0479   41.5470   58.8119 C   0  0  0  0  0  0  0  0  0  0  0  0
   67.9973   41.3564   57.8366 C   0  0  0  0  0  0  0  0  0  0  0  0
   68.4512   40.0699   57.6372 C   0  0  0  0  0  0  0  0  0  0  0  0
   67.9601   39.0216   58.3987 C   0  0  0  0  0  0  0  0  0  0  0  0
   65.7251   38.6045   61.4123 C   0  0  0  0  0  0  0  0  0  0  0  0
   66.4718   38.0881   60.2035 C   0  0  0  0  0  0  0  0  0  0  0  0
   67.6576   37.2751   60.6652 C   0  0  0  0  0  0  0  0  0  0  0  0
   65.5986   37.1761   59.3616 C   0  0  0  0  0  0  0  0  0  0  0  0
   68.3121   44.4382   55.5925 N   0  0  0  0  0  0  0  0  0  0  0  0
   67.7400   44.9305   54.5612 C   0  0  0  0  0  0  0  0  0  0  0  0
   68.2871   45.9826   53.7309 C   0  0  0  0  0  0  0  0  0  0  0  0
   68.1462   45.9482   52.3590 C   0  0  0  0  0  0  0  0  0  0  0  0
   68.6503   46.9276   51.5347 C   0  0  0  0  0  0  0  0  0  0  0  0
   69.3295   48.0024   52.0580 C   0  0  0  0  0  0  0  0  0  0  0  0
   69.9271   49.0909   51.5624 N   0  0  0  0  0  0  0  0  0  0  0  0
   70.4324   49.8043   52.5248 O   0  0  0  0  0  0  0  0  0  0  0  0
   70.1794   49.2075   53.6529 N   0  0  0  0  0  0  0  0  0  0  0  0
   70.5612   49.6735   54.8889 O   0  0  0  0  0  0  0  0  0  0  0  0
   69.4846   48.0617   53.4251 C   0  0  0  0  0  0  0  0  0  0  0  0
   68.9734   47.0724   54.2419 C   0  0  0  0  0  0  0  0  0  0  0  0
 10 11  1  0
 11 12  1  0
 11 13  1  0
 11  4  1  0
  4  5  2  0
  4  9  1  0
  5  6  1  0
  6  7  2  0
  7  1  1  0
  7  8  1  0
  1  2  2  0
  1  3  1  0
  3 14  1  0
 14 15  2  0
 15 16  1  0
 16 17  1  0
 16 25  2  0
 17 18  2  0
 18 19  1  0
 19 20  2  0
 19 24  1  0
 20 21  1  0
 21 22  1  0
 22 23  1  0
 22 24  2  0
 24 25  1  0
  8  9  2  0
M  CHG  2  22   1  23  -1
M  END
>  <minimizedAffinity>  (316) 
-8.70710

$$$$
data/reference_output_2/data/smiles/189271.pdb
     RDKit          3D

 25 26  0  0  0  0  0  0  0  0999 V2000
   68.8103   51.8719   55.2092 C   0  0  0  0  0  0  0  0  0  0  0  0
   70.3271   52.0010   55.2577 C   0  0  0  0  0  0  0  0  0  0  0  0
   70.8408   53.2777   55.6965 C   0  0  0  0  0  0  0  0  0  0  0  0
   71.0599   50.9330   54.8947 C   0  0  0  0  0  0  0  0  0  0  0  0
   70.2385   49.8151   54.5110 N   0  0  0  0  0  0  0  0  0  0  0  0
   70.3634   48.9508   53.4516 C   0  0  0  0  0  0  0  0  0  0  0  0
   71.2969   49.0624   52.6365 O   0  0  0  0  0  0  0  0  0  0  0  0
   69.3933   47.8386   53.2227 C   0  0  0  0  0  0  0  0  0  0  0  0
   68.7145   47.2048   54.2099 C   0  0  0  0  0  0  0  0  0  0  0  0
   67.8148   46.1635   53.9314 C   0  0  0  0  0  0  0  0  0  0  0  0
   67.5915   45.7517   52.6398 C   0  0  0  0  0  0  0  0  0  0  0  0
   68.2908   46.4097   51.6567 C   0  0  0  0  0  0  0  0  0  0  0  0
   69.1695   47.4219   51.9090 C   0  0  0  0  0  0  0  0  0  0  0  0
   72.4920   50.8590   54.8718 C   0  0  0  0  0  0  0  0  0  0  0  0
   73.1912   51.5570   54.0282 O   0  0  0  0  0  0  0  0  0  0  0  0
   73.3692   50.0900   55.6778 N   0  0  0  0  0  0  0  0  0  0  0  0
   74.7934   50.1569   55.4949 N   0  0  0  0  0  0  0  0  0  0  0  0
   75.5960   49.7458   56.3929 C   0  0  0  0  0  0  0  0  0  0  0  0
   77.0505   49.7880   56.2640 C   0  0  0  0  0  0  0  0  0  0  0  0
   77.7138   49.0953   55.2745 C   0  0  0  0  0  0  0  0  0  0  0  0
   79.0894   49.1485   55.1721 C   0  0  0  0  0  0  0  0  0  0  0  0
   79.8603   49.8894   56.0435 C   0  0  0  0  0  0  0  0  0  0  0  0
   81.2473   49.9408   55.9370 O   0  0  0  0  0  0  0  0  0  0  0  0
   79.2016   50.5847   57.0364 C   0  0  0  0  0  0  0  0  0  0  0  0
   77.8140   50.5302   57.1396 C   0  0  0  0  0  0  0  0  0  0  0  0
  1  2  1  0
  2  3  1  0
  2  4  2  0
  4  5  1  0
  4 14  1  0
  5  6  1  0
  6  7  2  0
  6  8  1  0
  8  9  2  0
  8 13  1  0
  9 10  1  0
 10 11  2  0
 11 12  1  0
 12 13  2  0
 14 15  2  0
 14 16  1  0
 16 17  1  0
 17 18  2  0
 18 19  1  0
 19 20  2  0
 19 25  1  0
 20 21  1  0
 21 22  2  0
 22 23  1  0
 22 24  1  0
 24 25  2  0
M  END
>  <minimizedAffinity>  (317) 
-8.70696

$$$$
data/200k_reference_output/data/smiles/25026.pdb
     RDKit          3D

 24 26  0  0  0  0  0  0  0  0999 V2000
   70.0693   49.4204   57.5846 C   0  0  0  0  0  0  0  0  0  0  0  0
   69.5165   50.5783   58.1233 C   0  0  0  0  0  0  0  0  0  0  0  0
   69.0205   51.5937   57.3559 C   0  0  0  0  0  0  0  0  0  0  0  0
   69.0489   51.5065   55.9881 C   0  0  0  0  0  0  0  0  0  0  0  0
   68.6225   52.3777   54.9983 C   0  0  0  0  0  0  0  0  0  0  0  0
   68.9112   51.7558   53.8147 C   0  0  0  0  0  0  0  0  0  0  0  0
   69.4925   50.5501   54.0691 N   0  0  0  0  0  0  0  0  0  0  0  0
   69.5912   50.3673   55.3888 C   0  0  0  0  0  0  0  0  0  0  0  0
   70.0900   49.3490   56.2131 C   0  0  0  0  0  0  0  0  0  0  0  0
   70.0018   49.4421   52.8598 S   0  0  0  0  0  0  0  0  0  0  0  0
   69.8536   50.1118   51.5120 O   0  0  0  0  0  0  0  0  0  0  0  0
   71.4817   49.1676   53.0952 O   0  0  0  0  0  0  0  0  0  0  0  0
   69.1282   47.9317   52.9024 C   0  0  0  0  0  0  0  0  0  0  0  0
   68.7545   47.2500   51.7697 C   0  0  0  0  0  0  0  0  0  0  0  0
   68.0607   46.0386   51.8461 C   0  0  0  0  0  0  0  0  0  0  0  0
   67.7238   45.4811   53.0586 C   0  0  0  0  0  0  0  0  0  0  0  0
   68.0914   46.1519   54.2052 C   0  0  0  0  0  0  0  0  0  0  0  0
   68.7736   47.3436   54.1187 C   0  0  0  0  0  0  0  0  0  0  0  0
   71.5937   48.5210   59.2583 C   0  0  0  0  0  0  0  0  0  0  0  0
   70.5738   48.3905   58.4668 C   0  0  0  0  0  0  0  0  0  0  0  0
   73.0775   47.7190   60.8787 O   0  0  0  0  0  0  0  0  0  0  0  0
   72.0898   47.4674   60.1432 C   0  0  0  0  0  0  0  0  0  0  0  0
   71.5429   46.1704   60.2430 N   0  0  0  0  0  0  0  0  0  0  0  0
   72.0435   45.2228   61.0861 O   0  0  0  0  0  0  0  0  0  0  0  0
 21 22  2  0
 22 19  1  0
 22 23  1  0
 19 20  2  0
 20  1  1  0
  1  2  2  0
  1  9  1  0
  2  3  1  0
  3  4  2  0
  4  5  1  0
  4  8  1  0
  5  6  2  0
  6  7  1  0
  7 10  1  0
  7  8  1  0
 10 11  2  0
 10 12  2  0
 10 13  1  0
 13 14  2  0
 13 18  1  0
 14 15  1  0
 15 16  2  0
 16 17  1  0
 17 18  2  0
  8  9  2  0
 23 24  1  0
M  END
>  <minimizedAffinity>  (318) 
-8.70689

$$$$
data/reference_output_2/data/smiles/115222.pdb
     RDKit          3D

 24 26  0  0  0  0  0  0  0  0999 V2000
   68.1037   43.0319   56.3467 C   0  0  0  0  0  0  0  0  0  0  0  0
   67.0519   42.8642   55.6700 O   0  0  0  0  0  0  0  0  0  0  0  0
   68.6299   44.3542   56.3237 N   0  0  0  0  0  0  0  0  0  0  0  0
   68.0444   40.8333   57.4703 C   0  0  0  0  0  0  0  0  0  0  0  0
   68.6753   41.9065   57.0725 C   0  0  0  0  0  0  0  0  0  0  0  0
   69.6627   37.5151   59.6488 C   0  0  0  0  0  0  0  0  0  0  0  0
   70.4933   38.3188   58.8970 C   0  0  0  0  0  0  0  0  0  0  0  0
   69.9721   39.3930   58.1931 C   0  0  0  0  0  0  0  0  0  0  0  0
   68.6399   39.7142   58.1991 C   0  0  0  0  0  0  0  0  0  0  0  0
   67.8222   38.9033   58.9540 C   0  0  0  0  0  0  0  0  0  0  0  0
   68.3183   37.8258   59.6660 C   0  0  0  0  0  0  0  0  0  0  0  0
   71.1271   35.5486   59.8813 C   0  0  0  0  0  0  0  0  0  0  0  0
   70.1615   36.4203   60.3710 O   0  0  0  0  0  0  0  0  0  0  0  0
   68.0511   45.3937   55.6212 N   0  0  0  0  0  0  0  0  0  0  0  0
   68.1599   45.8607   54.3324 C   0  0  0  0  0  0  0  0  0  0  0  0
   67.6179   45.1067   53.3070 N   0  0  0  0  0  0  0  0  0  0  0  0
   67.6508   45.4217   52.0481 N   0  0  0  0  0  0  0  0  0  0  0  0
   68.2316   46.5386   51.6125 C   0  0  0  0  0  0  0  0  0  0  0  0
   68.8005   47.3488   52.5857 C   0  0  0  0  0  0  0  0  0  0  0  0
   69.4296   48.5254   52.2169 C   0  0  0  0  0  0  0  0  0  0  0  0
   70.0171   49.3657   53.1340 C   0  0  0  0  0  0  0  0  0  0  0  0
   69.9680   49.0107   54.4455 C   0  0  0  0  0  0  0  0  0  0  0  0
   69.3591   47.8562   54.8744 C   0  0  0  0  0  0  0  0  0  0  0  0
   68.7716   47.0214   53.9454 C   0  0  0  0  0  0  0  0  0  0  0  0
 12 13  1  0
 13  6  1  0
  6  7  2  0
  6 11  1  0
  7  8  1  0
  8  9  2  0
  9  4  1  0
  9 10  1  0
  4  5  2  0
  5  1  1  0
  1  2  2  0
  1  3  1  0
  3 14  1  0
 14 15  1  0
 15 16  2  0
 15 24  1  0
 16 17  1  0
 17 18  2  0
 18 19  1  0
 19 20  1  0
 19 24  2  0
 20 21  2  0
 21 22  1  0
 22 23  2  0
 23 24  1  0
 10 11  2  0
M  END
>  <minimizedAffinity>  (319) 
-8.70649

$$$$
data/reference_output_2/data/smiles/128832.pdb
     RDKit          3D

 23 25  0  0  0  0  0  0  0  0999 V2000
   68.6026   42.4242   56.7414 C   0  0  0  0  0  0  0  0  0  0  0  0
   68.7577   43.6466   56.4655 N   0  0  0  0  0  0  0  0  0  0  0  0
   73.0222   40.0073   59.6360 C   0  0  0  0  0  0  0  0  0  0  0  0
   71.8698   40.6045   58.8944 C   0  0  0  0  0  0  0  0  0  0  0  0
   71.9909   41.8123   58.2313 C   0  0  0  0  0  0  0  0  0  0  0  0
   70.9483   42.3823   57.5487 C   0  0  0  0  0  0  0  0  0  0  0  0
   69.6885   41.7671   57.4830 C   0  0  0  0  0  0  0  0  0  0  0  0
   69.5709   40.5736   58.1381 C   0  0  0  0  0  0  0  0  0  0  0  0
   70.6454   39.9923   58.8383 C   0  0  0  0  0  0  0  0  0  0  0  0
   67.3737   41.7896   56.3217 C   0  0  0  0  0  0  0  0  0  0  0  0
   66.2807   42.2204   56.7482 O   0  0  0  0  0  0  0  0  0  0  0  0
   67.3064   40.7102   55.4558 O   0  0  0  0  0  0  0  0  0  0  0  0
   67.9584   44.5457   55.7995 N   0  0  0  0  0  0  0  0  0  0  0  0
   68.5052   45.8743   55.6429 C   0  0  0  0  0  0  0  0  0  0  0  0
   68.9238   46.5688   56.6996 N   0  0  0  0  0  0  0  0  0  0  0  0
   69.4578   47.8069   56.5708 C   0  0  0  0  0  0  0  0  0  0  0  0
   69.5690   48.3567   55.3386 N   0  0  0  0  0  0  0  0  0  0  0  0
   69.1703   47.7191   54.2365 C   0  0  0  0  0  0  0  0  0  0  0  0
   69.2965   48.2788   52.9910 C   0  0  0  0  0  0  0  0  0  0  0  0
   68.8718   47.5648   51.8677 C   0  0  0  0  0  0  0  0  0  0  0  0
   68.3385   46.3201   52.0276 C   0  0  0  0  0  0  0  0  0  0  0  0
   68.2055   45.7392   53.2901 C   0  0  0  0  0  0  0  0  0  0  0  0
   68.6211   46.4376   54.3973 C   0  0  0  0  0  0  0  0  0  0  0  0
  3  4  1  0
  4  5  2  0
  4  9  1  0
  5  6  1  0
  6  7  2  0
  7  1  1  0
  7  8  1  0
  1  2  2  0
  1 10  1  0
  2 13  1  0
 13 14  1  0
 14 15  2  0
 14 23  1  0
 15 16  1  0
 16 17  2  0
 17 18  1  0
 18 19  1  0
 18 23  2  0
 19 20  2  0
 20 21  1  0
 21 22  2  0
 22 23  1  0
 10 11  2  0
 10 12  1  0
  8  9  2  0
M  END
>  <minimizedAffinity>  (320) 
-8.70557

$$$$
data/200k_reference_output/data/smiles/23623.pdb
     RDKit          3D

 22 24  0  0  0  0  0  0  0  0999 V2000
   67.2436   47.5026   56.6513 O   0  0  0  0  0  0  0  0  0  0  0  0
   68.7643   47.5600   56.4998 S   0  0  0  0  0  0  0  0  0  0  0  0
   69.2115   46.1520   56.8030 O   0  0  0  0  0  0  0  0  0  0  0  0
   69.1057   47.9928   54.8457 C   0  0  0  0  0  0  0  0  0  0  0  0
   69.9417   49.0868   54.5840 C   0  0  0  0  0  0  0  0  0  0  0  0
   70.3335   49.4453   53.3213 C   0  0  0  0  0  0  0  0  0  0  0  0
   69.9115   48.7275   52.2259 C   0  0  0  0  0  0  0  0  0  0  0  0
   70.3153   49.0972   50.9420 O   0  0  0  0  0  0  0  0  0  0  0  0
   69.0864   47.6463   52.4512 C   0  0  0  0  0  0  0  0  0  0  0  0
   68.6576   46.9677   51.3756 N   0  0  0  0  0  0  0  0  0  0  0  0
   67.8337   45.9251   51.5060 C   0  0  0  0  0  0  0  0  0  0  0  0
   67.4280   45.5576   52.7744 C   0  0  0  0  0  0  0  0  0  0  0  0
   67.8389   46.2198   53.9116 C   0  0  0  0  0  0  0  0  0  0  0  0
   68.6915   47.2901   53.7418 C   0  0  0  0  0  0  0  0  0  0  0  0
   69.3391   48.7038   57.5665 N   0  0  0  0  0  0  0  0  0  0  0  0
   68.5921   49.7966   57.9896 C   0  0  0  0  0  0  0  0  0  0  0  0
   69.1264   51.0325   57.2896 C   0  0  0  0  0  0  0  0  0  0  0  0
   68.3652   51.7334   56.3815 C   0  0  0  0  0  0  0  0  0  0  0  0
   68.8537   52.8548   55.7467 C   0  0  0  0  0  0  0  0  0  0  0  0
   70.1287   53.3038   56.0112 C   0  0  0  0  0  0  0  0  0  0  0  0
   70.8940   52.6097   56.9167 C   0  0  0  0  0  0  0  0  0  0  0  0
   70.3991   51.4894   57.5471 C   0  0  0  0  0  0  0  0  0  0  0  0
  1  2  2  0
  2  3  2  0
  2 15  1  0
  2  4  1  0
 15 16  1  0
 16 17  1  0
 17 18  2  0
 17 22  1  0
 18 19  1  0
 19 20  2  0
 20 21  1  0
 21 22  2  0
  4  5  2  0
  4 14  1  0
  5  6  1  0
  6  7  2  0
  7  8  1  0
  7  9  1  0
  9 10  1  0
  9 14  2  0
 10 11  2  0
 11 12  1  0
 12 13  2  0
 13 14  1  0
M  END
>  <minimizedAffinity>  (321) 
-8.70522

$$$$
data/200k_reference_output/data/smiles/37792.pdb
     RDKit          3D

 22 23  0  0  0  0  0  0  0  0999 V2000
   68.0917   48.7238   57.1083 N   0  0  0  0  0  0  0  0  0  0  0  0
   68.6526   47.5231   56.6192 C   0  0  0  0  0  0  0  0  0  0  0  0
   69.1100   46.7041   57.5026 N   0  0  0  0  0  0  0  0  0  0  0  0
   68.6953   47.2618   55.1737 C   0  0  0  0  0  0  0  0  0  0  0  0
   68.1543   46.1352   54.6006 C   0  0  0  0  0  0  0  0  0  0  0  0
   68.2327   45.9599   53.2210 C   0  0  0  0  0  0  0  0  0  0  0  0
   68.8392   46.8892   52.4069 C   0  0  0  0  0  0  0  0  0  0  0  0
   69.3837   48.0225   52.9799 C   0  0  0  0  0  0  0  0  0  0  0  0
   69.2987   48.1795   54.3402 C   0  0  0  0  0  0  0  0  0  0  0  0
   70.0168   48.9975   52.1563 N   0  0  0  0  0  0  0  0  0  0  0  0
   70.4590   48.6353   51.0387 O   0  0  0  0  0  0  0  0  0  0  0  0
   70.1587   50.2960   52.5312 O   0  0  0  0  0  0  0  0  0  0  0  0
   69.6897   45.4926   57.2295 O   0  0  0  0  0  0  0  0  0  0  0  0
   70.2738   44.7510   58.2434 C   0  0  0  0  0  0  0  0  0  0  0  0
   69.6840   44.6455   59.3458 O   0  0  0  0  0  0  0  0  0  0  0  0
   71.5574   44.1012   58.0327 C   0  0  0  0  0  0  0  0  0  0  0  0
   72.7301   44.8144   58.2282 C   0  0  0  0  0  0  0  0  0  0  0  0
   73.9809   44.2608   58.0457 C   0  0  0  0  0  0  0  0  0  0  0  0
   74.0872   42.9527   57.6557 C   0  0  0  0  0  0  0  0  0  0  0  0
   72.9313   42.2293   57.4570 C   0  0  0  0  0  0  0  0  0  0  0  0
   71.6772   42.7885   57.6411 C   0  0  0  0  0  0  0  0  0  0  0  0
   70.5568   42.0351   57.4337 F   0  0  0  0  0  0  0  0  0  0  0  0
  1  2  1  0
  2  3  2  0
  2  4  1  0
  3 13  1  0
 13 14  1  0
 14 15  2  0
 14 16  1  0
 16 17  2  0
 16 21  1  0
 17 18  1  0
 18 19  2  0
 19 20  1  0
 20 21  2  0
 21 22  1  0
  4  5  2  0
  4  9  1  0
  5  6  1  0
  6  7  2  0
  7  8  1  0
  8 10  1  0
  8  9  2  0
 10 11  2  0
 10 12  1  0
M  CHG  3   3   1  10   1  12  -1
M  END
>  <minimizedAffinity>  (322) 
-8.70514

$$$$
data/200k_reference_output/data/smiles/4523.pdb
     RDKit          3D

 23 25  0  0  0  0  0  0  0  0999 V2000
   70.1431   49.8930   53.4829 C   0  0  0  0  0  0  0  0  0  0  0  0
   70.9102   50.3152   54.4994 N   0  0  0  0  0  0  0  0  0  0  0  0
   71.2844   51.5965   54.3189 C   0  0  0  0  0  0  0  0  0  0  0  0
   70.7295   51.9741   53.1530 N   0  0  0  0  0  0  0  0  0  0  0  0
   70.0403   50.9410   52.6513 N   0  0  0  0  0  0  0  0  0  0  0  0
   68.6534   46.5079   54.2035 C   0  0  0  0  0  0  0  0  0  0  0  0
   68.3619   46.0377   52.9391 C   0  0  0  0  0  0  0  0  0  0  0  0
   68.6660   46.8523   51.8715 C   0  0  0  0  0  0  0  0  0  0  0  0
   69.2418   48.1005   52.0349 C   0  0  0  0  0  0  0  0  0  0  0  0
   69.5366   48.5800   53.2950 C   0  0  0  0  0  0  0  0  0  0  0  0
   69.2288   47.7551   54.3575 C   0  0  0  0  0  0  0  0  0  0  0  0
   68.4427   46.1099   56.5092 O   0  0  0  0  0  0  0  0  0  0  0  0
   68.3333   45.6522   55.3361 C   0  0  0  0  0  0  0  0  0  0  0  0
   67.8986   44.3062   55.1776 N   0  0  0  0  0  0  0  0  0  0  0  0
   67.6049   43.5222   56.2579 O   0  0  0  0  0  0  0  0  0  0  0  0
   72.1459   52.4190   55.2404 C   0  0  0  0  0  0  0  0  0  0  0  0
   71.0201   53.2658   56.4034 S   0  0  0  0  0  0  0  0  0  0  0  0
   69.7327   52.1295   56.9282 C   0  0  0  0  0  0  0  0  0  0  0  0
   70.0777   51.1604   57.8512 C   0  0  0  0  0  0  0  0  0  0  0  0
   69.1332   50.2397   58.3092 C   0  0  0  0  0  0  0  0  0  0  0  0
   67.8347   50.3002   57.8299 C   0  0  0  0  0  0  0  0  0  0  0  0
   67.4922   51.2806   56.8980 C   0  0  0  0  0  0  0  0  0  0  0  0
   68.4489   52.1868   56.4577 C   0  0  0  0  0  0  0  0  0  0  0  0
 12 13  2  0
 13 14  1  0
 13  6  1  0
 14 15  1  0
  6  7  2  0
  6 11  1  0
  7  8  1  0
  8  9  2  0
  9 10  1  0
 10  1  1  0
 10 11  2  0
  1  2  2  0
  1  5  1  0
  2  3  1  0
  3 16  1  0
  3  4  2  0
 16 17  1  0
 17 18  1  0
 18 19  2  0
 18 23  1  0
 19 20  1  0
 20 21  2  0
 21 22  1  0
 22 23  2  0
  4  5  1  0
M  END
>  <minimizedAffinity>  (323) 
-8.70500

$$$$
data/reference_output_2/data/smiles/124627.pdb
     RDKit          3D

 23 26  0  0  0  0  0  0  0  0999 V2000
   68.1065   45.5907   55.0161 C   0  0  0  0  0  0  0  0  0  0  0  0
   68.4112   46.2354   56.1511 N   0  0  0  0  0  0  0  0  0  0  0  0
   68.9574   47.4601   56.1930 C   0  0  0  0  0  0  0  0  0  0  0  0
   69.2684   48.1210   57.3639 C   0  0  0  0  0  0  0  0  0  0  0  0
   69.8294   49.3790   57.3946 C   0  0  0  0  0  0  0  0  0  0  0  0
   70.1048   49.9600   58.5771 F   0  0  0  0  0  0  0  0  0  0  0  0
   70.0854   49.9956   56.1843 C   0  0  0  0  0  0  0  0  0  0  0  0
   69.7815   49.3541   55.0021 C   0  0  0  0  0  0  0  0  0  0  0  0
   69.2140   48.0789   54.9698 C   0  0  0  0  0  0  0  0  0  0  0  0
   68.9286   47.4783   53.8073 N   0  0  0  0  0  0  0  0  0  0  0  0
   69.0989   47.9024   52.5501 C   0  0  0  0  0  0  0  0  0  0  0  0
   68.6471   46.9183   51.6648 C   0  0  0  0  0  0  0  0  0  0  0  0
   68.2028   45.8918   52.4908 C   0  0  0  0  0  0  0  0  0  0  0  0
   68.3748   46.2335   53.8242 C   0  0  0  0  0  0  0  0  0  0  0  0
   67.5290   44.2971   54.9607 N   0  0  0  0  0  0  0  0  0  0  0  0
   66.3493   41.8436   55.1334 O   0  0  0  0  0  0  0  0  0  0  0  0
   67.2636   42.0492   55.9881 C   0  0  0  0  0  0  0  0  0  0  0  0
   67.8915   43.3328   55.9096 N   0  0  0  0  0  0  0  0  0  0  0  0
   67.6436   41.0553   56.9728 C   0  0  0  0  0  0  0  0  0  0  0  0
   67.7902   41.2385   58.3241 C   0  0  0  0  0  0  0  0  0  0  0  0
   68.1641   40.0214   58.8803 C   0  0  0  0  0  0  0  0  0  0  0  0
   68.2197   39.1546   57.7938 C   0  0  0  0  0  0  0  0  0  0  0  0
   67.9087   39.8063   56.7078 O   0  0  0  0  0  0  0  0  0  0  0  0
 16 17  2  0
 17 18  1  0
 17 19  1  0
 18 15  1  0
 15  1  1  0
  1  2  2  0
  1 14  1  0
  2  3  1  0
  3  4  2  0
  3  9  1  0
  4  5  1  0
  5  6  1  0
  5  7  2  0
  7  8  1  0
  8  9  2  0
  9 10  1  0
 10 11  1  0
 10 14  1  0
 11 12  2  0
 12 13  1  0
 13 14  2  0
 19 20  2  0
 19 23  1  0
 20 21  1  0
 21 22  2  0
 22 23  1  0
M  END
>  <minimizedAffinity>  (324) 
-8.70460

$$$$
data/200k_reference_output/data/smiles/71339.pdb
     RDKit          3D

 25 27  0  0  0  0  0  0  0  0999 V2000
   68.9198   47.1829   55.5182 C   0  0  0  0  0  0  0  0  0  0  0  0
   69.7562   47.9307   56.3340 C   0  0  0  0  0  0  0  0  0  0  0  0
   70.4261   47.3147   57.3797 C   0  0  0  0  0  0  0  0  0  0  0  0
   70.2842   45.9618   57.6361 C   0  0  0  0  0  0  0  0  0  0  0  0
   69.4619   45.2055   56.8396 C   0  0  0  0  0  0  0  0  0  0  0  0
   68.8031   45.8336   55.8035 C   0  0  0  0  0  0  0  0  0  0  0  0
   69.2852   43.7740   57.0764 C   0  0  0  0  0  0  0  0  0  0  0  0
   68.2753   43.0539   56.4688 C   0  0  0  0  0  0  0  0  0  0  0  0
   68.0971   41.7028   56.6840 C   0  0  0  0  0  0  0  0  0  0  0  0
   68.9287   40.9926   57.5275 C   0  0  0  0  0  0  0  0  0  0  0  0
   69.9396   41.7124   58.1359 C   0  0  0  0  0  0  0  0  0  0  0  0
   70.1167   43.0638   57.9199 C   0  0  0  0  0  0  0  0  0  0  0  0
   68.7443   39.5646   57.7576 C   0  0  0  0  0  0  0  0  0  0  0  0
   69.7196   38.8672   58.4905 N   0  0  0  0  0  0  0  0  0  0  0  0
   67.7401   38.9603   57.3146 O   0  0  0  0  0  0  0  0  0  0  0  0
   68.1913   47.7961   54.3830 C   0  0  0  0  0  0  0  0  0  0  0  0
   67.6688   45.5502   52.2470 C   0  0  0  0  0  0  0  0  0  0  0  0
   68.6488   46.6676   52.1654 C   0  0  0  0  0  0  0  0  0  0  0  0
   69.4592   46.8440   51.1130 N   0  0  0  0  0  0  0  0  0  0  0  0
   70.2060   47.8906   51.3165 N   0  0  0  0  0  0  0  0  0  0  0  0
   69.8935   48.4313   52.5302 C   0  0  0  0  0  0  0  0  0  0  0  0
   68.9004   47.6633   53.0870 C   0  0  0  0  0  0  0  0  0  0  0  0
   70.5074   49.6057   53.1195 C   0  0  0  0  0  0  0  0  0  0  0  0
   71.7048   49.5808   53.4546 O   0  0  0  0  0  0  0  0  0  0  0  0
   69.7754   50.7625   53.3172 O   0  0  0  0  0  0  0  0  0  0  0  0
 17 18  1  0
 18 19  2  0
 18 22  1  0
 19 20  1  0
 20 21  1  0
 21 23  1  0
 21 22  2  0
 23 24  2  0
 23 25  1  0
 22 16  1  0
 16  1  1  0
  1  2  2  0
  1  6  1  0
  2  3  1  0
  3  4  2  0
  4  5  1  0
  5  7  1  0
  5  6  2  0
  7  8  2  0
  7 12  1  0
  8  9  1  0
  9 10  2  0
 10 13  1  0
 10 11  1  0
 13 14  1  0
 13 15  2  0
 11 12  2  0
M  END
>  <minimizedAffinity>  (325) 
-8.70225

$$$$
data/200k_reference_output/data/smiles/18792.pdb
     RDKit          3D

 23 25  0  0  0  0  0  0  0  0999 V2000
   73.5893   50.3084   55.7096 N   0  0  0  0  0  0  0  0  0  0  0  0
   72.9196   50.9524   54.6558 C   0  0  0  0  0  0  0  0  0  0  0  0
   73.5746   51.7799   53.9775 O   0  0  0  0  0  0  0  0  0  0  0  0
   71.4828   50.6664   54.3484 C   0  0  0  0  0  0  0  0  0  0  0  0
   70.5594   51.6750   54.4102 C   0  0  0  0  0  0  0  0  0  0  0  0
   69.0194   50.7913   53.9553 S   0  0  0  0  0  0  0  0  0  0  0  0
   69.9217   49.1725   53.7571 C   0  0  0  0  0  0  0  0  0  0  0  0
   71.0487   49.4892   54.0184 N   0  0  0  0  0  0  0  0  0  0  0  0
   69.1661   47.9646   53.3643 C   0  0  0  0  0  0  0  0  0  0  0  0
   68.5749   47.1591   54.3032 C   0  0  0  0  0  0  0  0  0  0  0  0
   67.8648   46.0254   53.9322 C   0  0  0  0  0  0  0  0  0  0  0  0
   67.7466   45.6965   52.6102 C   0  0  0  0  0  0  0  0  0  0  0  0
   68.3417   46.5057   51.6500 C   0  0  0  0  0  0  0  0  0  0  0  0
   69.0482   47.6392   52.0493 C   0  0  0  0  0  0  0  0  0  0  0  0
   75.6629   49.0654   54.4688 O   0  0  0  0  0  0  0  0  0  0  0  0
   75.9997   49.8808   55.3780 C   0  0  0  0  0  0  0  0  0  0  0  0
   74.9324   50.5403   56.0371 N   0  0  0  0  0  0  0  0  0  0  0  0
   77.3997   50.1150   55.7117 C   0  0  0  0  0  0  0  0  0  0  0  0
   78.3348   49.1524   55.4061 C   0  0  0  0  0  0  0  0  0  0  0  0
   79.6754   49.2946   55.6867 C   0  0  0  0  0  0  0  0  0  0  0  0
   80.1071   50.4500   56.3019 C   0  0  0  0  0  0  0  0  0  0  0  0
   79.1594   51.4057   56.6034 C   0  0  0  0  0  0  0  0  0  0  0  0
   77.8402   51.2331   56.3114 N   0  0  0  0  0  0  0  0  0  0  0  0
 15 16  2  0
 16 17  1  0
 16 18  1  0
 17  1  1  0
  1  2  1  0
  2  3  2  0
  2  4  1  0
  4  5  2  0
  4  8  1  0
  5  6  1  0
  6  7  1  0
  7  9  1  0
  7  8  2  0
  9 10  2  0
  9 14  1  0
 10 11  1  0
 11 12  2  0
 12 13  1  0
 13 14  2  0
 18 19  2  0
 18 23  1  0
 19 20  1  0
 20 21  2  0
 21 22  1  0
 22 23  2  0
M  END
>  <minimizedAffinity>  (326) 
-8.70149

$$$$
data/reference_output_2/data/smiles/198425.pdb
     RDKit          3D

 24 26  0  0  0  0  0  0  0  0999 V2000
   67.6063   41.3006   55.4931 O   0  0  0  0  0  0  0  0  0  0  0  0
   67.5805   41.9024   56.5978 C   0  0  0  0  0  0  0  0  0  0  0  0
   67.7384   43.3109   56.5486 N   0  0  0  0  0  0  0  0  0  0  0  0
   67.3964   41.1412   57.8289 C   0  0  0  0  0  0  0  0  0  0  0  0
   67.7962   39.8179   57.8791 C   0  0  0  0  0  0  0  0  0  0  0  0
   67.6543   39.0346   59.0066 C   0  0  0  0  0  0  0  0  0  0  0  0
   67.0938   39.5573   60.1532 C   0  0  0  0  0  0  0  0  0  0  0  0
   66.9574   38.7660   61.2730 C   0  0  0  0  0  0  0  0  0  0  0  0
   66.3950   39.3060   62.4107 C   0  0  0  0  0  0  0  0  0  0  0  0
   65.9787   40.6403   62.3959 C   0  0  0  0  0  0  0  0  0  0  0  0
   66.1292   41.4058   61.2601 C   0  0  0  0  0  0  0  0  0  0  0  0
   66.6909   40.8760   60.1165 C   0  0  0  0  0  0  0  0  0  0  0  0
   66.8392   41.6613   58.9692 C   0  0  0  0  0  0  0  0  0  0  0  0
   67.9146   44.0019   55.3373 N   0  0  0  0  0  0  0  0  0  0  0  0
   68.3049   45.3653   55.2907 C   0  0  0  0  0  0  0  0  0  0  0  0
   68.4892   45.9419   56.3865 O   0  0  0  0  0  0  0  0  0  0  0  0
   68.4910   46.0943   54.0245 C   0  0  0  0  0  0  0  0  0  0  0  0
   67.8786   45.8858   52.8209 C   0  0  0  0  0  0  0  0  0  0  0  0
   68.3547   46.7981   51.9147 C   0  0  0  0  0  0  0  0  0  0  0  0
   69.2741   47.5594   52.6231 C   0  0  0  0  0  0  0  0  0  0  0  0
   69.3093   47.1001   53.8485 O   0  0  0  0  0  0  0  0  0  0  0  0
   70.0327   48.6427   52.0892 N   0  0  0  0  0  0  0  0  0  0  0  0
   69.6039   49.2933   51.1202 O   0  0  0  0  0  0  0  0  0  0  0  0
   71.2458   48.9941   52.6221 O   0  0  0  0  0  0  0  0  0  0  0  0
  1  2  2  0
  2  3  1  0
  2  4  1  0
  3 14  1  0
 14 15  1  0
 15 16  2  0
 15 17  1  0
 17 18  2  0
 17 21  1  0
 18 19  1  0
 19 20  2  0
 20 22  1  0
 20 21  1  0
 22 23  2  0
 22 24  1  0
  4  5  2  0
  4 13  1  0
  5  6  1  0
  6  7  2  0
  7  8  1  0
  7 12  1  0
  8  9  2  0
  9 10  1  0
 10 11  2  0
 11 12  1  0
 12 13  2  0
M  CHG  2  22   1  24  -1
M  END
>  <minimizedAffinity>  (327) 
-8.69950

$$$$
data/200k_reference_output/data/smiles/17545.pdb
     RDKit          3D

 23 26  0  0  0  0  0  0  0  0999 V2000
   69.0890   48.4978   55.5412 O   0  0  0  0  0  0  0  0  0  0  0  0
   68.1086   46.1851   52.8474 C   0  0  0  0  0  0  0  0  0  0  0  0
   68.7492   46.7199   51.7510 C   0  0  0  0  0  0  0  0  0  0  0  0
   69.4971   47.8546   51.9642 C   0  0  0  0  0  0  0  0  0  0  0  0
   69.5929   48.4201   53.2188 C   0  0  0  0  0  0  0  0  0  0  0  0
   68.9362   47.8668   54.3251 C   0  0  0  0  0  0  0  0  0  0  0  0
   68.1876   46.7316   54.1165 C   0  0  0  0  0  0  0  0  0  0  0  0
   70.3925   49.6293   53.4347 C   0  0  0  0  0  0  0  0  0  0  0  0
   71.6264   49.7300   53.9560 N   0  0  0  0  0  0  0  0  0  0  0  0
   71.9977   51.0052   53.9805 N   0  0  0  0  0  0  0  0  0  0  0  0
   71.0119   51.7252   53.4786 N   0  0  0  0  0  0  0  0  0  0  0  0
   70.0397   50.8937   53.1478 N   0  0  0  0  0  0  0  0  0  0  0  0
   68.5304   47.9382   56.6976 C   0  0  0  0  0  0  0  0  0  0  0  0
   69.4951   46.8977   57.2218 C   0  0  0  0  0  0  0  0  0  0  0  0
   70.6288   47.2708   57.8976 C   0  0  0  0  0  0  0  0  0  0  0  0
   71.5105   46.3320   58.3665 C   0  0  0  0  0  0  0  0  0  0  0  0
   71.2338   44.9996   58.1431 C   0  0  0  0  0  0  0  0  0  0  0  0
   72.1006   44.0065   58.6006 C   0  0  0  0  0  0  0  0  0  0  0  0
   71.7977   42.6945   58.3630 C   0  0  0  0  0  0  0  0  0  0  0  0
   70.6638   42.3049   57.6866 C   0  0  0  0  0  0  0  0  0  0  0  0
   69.8103   43.2858   57.2368 C   0  0  0  0  0  0  0  0  0  0  0  0
   70.0913   44.6419   57.4627 C   0  0  0  0  0  0  0  0  0  0  0  0
   69.2540   45.5941   57.0211 N   0  0  0  0  0  0  0  0  0  0  0  0
  2  3  2  0
  2  7  1  0
  3  4  1  0
  4  5  2  0
  5  8  1  0
  5  6  1  0
  8  9  1  0
  8 12  2  0
  9 10  2  0
 10 11  1  0
 11 12  1  0
  6  1  1  0
  6  7  2  0
  1 13  1  0
 13 14  1  0
 14 15  2  0
 14 23  1  0
 15 16  1  0
 16 17  2  0
 17 18  1  0
 17 22  1  0
 18 19  2  0
 19 20  1  0
 20 21  2  0
 21 22  1  0
 22 23  2  0
M  END
>  <minimizedAffinity>  (328) 
-8.69923

$$$$
data/reference_output_2/data/smiles/176756.pdb
     RDKit          3D

 23 24  0  0  0  0  0  0  0  0999 V2000
   69.2253   47.4103   56.9835 S   0  0  0  0  0  0  0  0  0  0  0  0
   69.1794   46.8169   58.3615 O   0  0  0  0  0  0  0  0  0  0  0  0
   70.6822   47.4523   56.5892 O   0  0  0  0  0  0  0  0  0  0  0  0
   68.5638   49.0256   57.0727 C   0  0  0  0  0  0  0  0  0  0  0  0
   67.3935   49.3038   57.7469 C   0  0  0  0  0  0  0  0  0  0  0  0
   66.8416   50.5564   57.8410 C   0  0  0  0  0  0  0  0  0  0  0  0
   67.4831   51.6167   57.2298 C   0  0  0  0  0  0  0  0  0  0  0  0
   68.6659   51.3595   56.5443 C   0  0  0  0  0  0  0  0  0  0  0  0
   69.2033   50.0972   56.4614 C   0  0  0  0  0  0  0  0  0  0  0  0
   69.3192   52.5426   55.9013 C   0  0  0  0  0  0  0  0  0  0  0  0
   68.7966   53.6901   56.5095 F   0  0  0  0  0  0  0  0  0  0  0  0
   69.0390   52.5797   54.5429 F   0  0  0  0  0  0  0  0  0  0  0  0
   70.6828   52.5427   56.1046 F   0  0  0  0  0  0  0  0  0  0  0  0
   68.3182   46.4035   55.9399 N   0  0  0  0  0  0  0  0  0  0  0  0
   69.2340   47.7033   52.6357 C   0  0  0  0  0  0  0  0  0  0  0  0
   68.6172   46.8095   51.7746 C   0  0  0  0  0  0  0  0  0  0  0  0
   67.8847   45.7574   52.2880 C   0  0  0  0  0  0  0  0  0  0  0  0
   67.8037   45.6496   53.6613 C   0  0  0  0  0  0  0  0  0  0  0  0
   68.4007   46.5148   54.5287 C   0  0  0  0  0  0  0  0  0  0  0  0
   69.1341   47.5675   54.0039 C   0  0  0  0  0  0  0  0  0  0  0  0
   70.2539   49.9832   52.8559 N   0  0  0  0  0  0  0  0  0  0  0  0
   70.0055   48.8123   52.0878 C   0  0  0  0  0  0  0  0  0  0  0  0
   70.4708   48.7692   50.9332 O   0  0  0  0  0  0  0  0  0  0  0  0
 21 22  1  0
 22 23  2  0
 22 15  1  0
 15 16  2  0
 15 20  1  0
 16 17  1  0
 17 18  2  0
 18 19  1  0
 19 14  1  0
 19 20  2  0
 14  1  1  0
  1  2  2  0
  1  3  2  0
  1  4  1  0
  4  5  2  0
  4  9  1  0
  5  6  1  0
  6  7  2  0
  7  8  1  0
  8 10  1  0
  8  9  2  0
 10 11  1  0
 10 12  1  0
 10 13  1  0
M  END
>  <minimizedAffinity>  (329) 
-8.69805

$$$$
data/200k_reference_output/data/smiles/36288.pdb
     RDKit          3D

 26 28  0  0  0  0  0  0  0  0999 V2000
   69.9317   42.9874   59.1382 C   0  0  0  0  0  0  0  0  0  0  0  0
   70.6117   42.7040   56.8362 O   0  0  0  0  0  0  0  0  0  0  0  0
   69.8962   43.3018   57.7110 C   0  0  0  0  0  0  0  0  0  0  0  0
   69.0503   44.3161   57.1415 N   0  0  0  0  0  0  0  0  0  0  0  0
   69.0290   44.6037   55.7744 N   0  0  0  0  0  0  0  0  0  0  0  0
   68.4721   45.8271   55.3176 C   0  0  0  0  0  0  0  0  0  0  0  0
   68.0157   46.6033   56.2032 O   0  0  0  0  0  0  0  0  0  0  0  0
   68.4095   46.2058   53.9155 C   0  0  0  0  0  0  0  0  0  0  0  0
   69.1430   47.2611   53.4260 C   0  0  0  0  0  0  0  0  0  0  0  0
   69.0964   47.6359   52.0907 C   0  0  0  0  0  0  0  0  0  0  0  0
   68.3153   46.9478   51.2706 N   0  0  0  0  0  0  0  0  0  0  0  0
   67.5846   45.9097   51.7153 C   0  0  0  0  0  0  0  0  0  0  0  0
   67.6128   45.5118   53.0492 C   0  0  0  0  0  0  0  0  0  0  0  0
   71.0992   42.2689   59.4384 O   0  0  0  0  0  0  0  0  0  0  0  0
   71.3320   40.9372   59.1698 C   0  0  0  0  0  0  0  0  0  0  0  0
   72.6011   40.4079   59.1103 C   0  0  0  0  0  0  0  0  0  0  0  0
   72.7707   39.0546   58.8325 C   0  0  0  0  0  0  0  0  0  0  0  0
   71.6995   38.2166   58.6149 C   0  0  0  0  0  0  0  0  0  0  0  0
   70.4262   38.7262   58.6720 C   0  0  0  0  0  0  0  0  0  0  0  0
   70.2683   40.0576   58.9444 C   0  0  0  0  0  0  0  0  0  0  0  0
   71.9699   36.8089   58.3300 C   0  0  0  0  0  0  0  0  0  0  0  0
   72.7035   36.4344   57.2279 C   0  0  0  0  0  0  0  0  0  0  0  0
   72.9656   35.0978   56.9482 C   0  0  0  0  0  0  0  0  0  0  0  0
   72.4809   34.1370   57.7934 C   0  0  0  0  0  0  0  0  0  0  0  0
   71.7465   34.5242   58.8958 C   0  0  0  0  0  0  0  0  0  0  0  0
   71.4798   35.8454   59.1832 C   0  0  0  0  0  0  0  0  0  0  0  0
  2  3  2  0
  3  1  1  0
  3  4  1  0
  1 14  1  0
 14 15  1  0
 15 16  2  0
 15 20  1  0
 16 17  1  0
 17 18  2  0
 18 21  1  0
 18 19  1  0
 21 22  2  0
 21 26  1  0
 22 23  1  0
 23 24  2  0
 24 25  1  0
 25 26  2  0
 19 20  2  0
  4  5  1  0
  5  6  1  0
  6  7  2  0
  6  8  1  0
  8  9  2  0
  8 13  1  0
  9 10  1  0
 10 11  2  0
 11 12  1  0
 12 13  2  0
M  END
>  <minimizedAffinity>  (330) 
-8.69775

$$$$
data/200k_reference_output/data/smiles/6709.pdb
     RDKit          3D

 24 26  0  0  0  0  0  0  0  0999 V2000
   69.1778   49.0813   57.5394 C   0  0  2  0  0  0  0  0  0  0  0  0
   70.4230   48.5827   58.1556 C   0  0  0  0  0  0  0  0  0  0  0  0
   71.4083   48.9302   58.8304 O   0  0  0  0  0  0  0  0  0  0  0  0
   70.0529   47.2947   57.6080 N   0  0  0  0  0  0  0  0  0  0  0  0
   70.2623   46.0000   58.1215 C   0  0  0  0  0  0  0  0  0  0  0  0
   70.8711   45.8101   59.2335 O   0  0  0  0  0  0  0  0  0  0  0  0
   69.8263   44.8267   57.4656 N   0  0  0  0  0  0  0  0  0  0  0  0
   69.4860   48.0411   56.5052 C   0  0  1  0  0  0  0  0  0  0  0  0
   67.7780   51.1479   57.2106 C   0  0  0  0  0  0  0  0  0  0  0  0
   69.1154   50.4997   57.1829 C   0  0  0  0  0  0  0  0  0  0  0  0
   70.0203   43.4741   57.9550 C   0  0  0  0  0  0  0  0  0  0  0  0
   69.1055   42.4936   57.3555 C   0  0  0  0  0  0  0  0  0  0  0  0
   68.1496   42.7633   56.4053 C   0  0  0  0  0  0  0  0  0  0  0  0
   67.3364   41.7725   55.9109 C   0  0  0  0  0  0  0  0  0  0  0  0
   67.4315   40.5047   56.3246 N   0  0  0  0  0  0  0  0  0  0  0  0
   68.3606   40.1825   57.2634 C   0  0  0  0  0  0  0  0  0  0  0  0
   69.1834   41.1633   57.7692 C   0  0  0  0  0  0  0  0  0  0  0  0
   68.3354   47.3161   55.9141 C   0  0  0  0  0  0  0  0  0  0  0  0
   68.4478   47.0861   54.4550 C   0  0  0  0  0  0  0  0  0  0  0  0
   67.8435   46.0652   53.7890 C   0  0  0  0  0  0  0  0  0  0  0  0
   68.0173   45.9481   52.4290 C   0  0  0  0  0  0  0  0  0  0  0  0
   68.7932   46.8418   51.7138 C   0  0  0  0  0  0  0  0  0  0  0  0
   69.4099   47.8782   52.3720 C   0  0  0  0  0  0  0  0  0  0  0  0
   69.2201   47.9779   53.7452 C   0  0  0  0  0  0  0  0  0  0  0  0
  9 10  1  0
  1 10  1  6
  1  2  1  0
  1  8  1  0
  2  3  2  0
  2  4  1  0
  4  5  1  0
  4  8  1  0
  5  6  2  0
  5  7  1  0
  7 11  1  0
 11 12  1  0
 12 13  2  0
 12 17  1  0
 13 14  1  0
 14 15  2  0
 15 16  1  0
 16 17  2  0
  8 18  1  1
 18 19  1  0
 19 20  2  0
 19 24  1  0
 20 21  1  0
 21 22  2  0
 22 23  1  0
 23 24  2  0
M  END
>  <minimizedAffinity>  (331) 
-8.69773

$$$$
data/200k_reference_output/data/smiles/17082.pdb
     RDKit          3D

 24 26  0  0  0  0  0  0  0  0999 V2000
   68.1058   46.1884   53.9220 C   0  0  0  0  0  0  0  0  0  0  0  0
   68.0621   45.8685   52.5760 C   0  0  0  0  0  0  0  0  0  0  0  0
   68.6993   46.6800   51.6722 C   0  0  0  0  0  0  0  0  0  0  0  0
   69.3781   47.8085   52.1064 C   0  0  0  0  0  0  0  0  0  0  0  0
   69.4402   48.1552   53.4416 C   0  0  0  0  0  0  0  0  0  0  0  0
   68.7921   47.3204   54.3139 C   0  0  0  0  0  0  0  0  0  0  0  0
   70.1764   49.3672   53.8492 C   0  0  0  0  0  0  0  0  0  0  0  0
   71.3493   49.5189   53.4353 O   0  0  0  0  0  0  0  0  0  0  0  0
   69.6346   50.3542   54.6716 N   0  0  0  0  0  0  0  0  0  0  0  0
   70.2259   51.5480   55.1308 C   0  0  0  0  0  0  0  0  0  0  0  0
   71.5290   51.9198   54.9605 C   0  0  0  0  0  0  0  0  0  0  0  0
   72.0390   53.1361   55.4539 C   0  0  0  0  0  0  0  0  0  0  0  0
   71.2377   54.0149   56.1381 C   0  0  0  0  0  0  0  0  0  0  0  0
   69.9204   53.6567   56.3181 C   0  0  0  0  0  0  0  0  0  0  0  0
   69.4326   52.4656   55.8313 C   0  0  0  0  0  0  0  0  0  0  0  0
   67.4561   45.3517   54.7996 O   0  0  0  0  0  0  0  0  0  0  0  0
   68.4369   42.3040   56.6747 C   0  0  0  0  0  0  0  0  0  0  0  0
   67.7831   43.1780   55.8217 C   0  0  0  0  0  0  0  0  0  0  0  0
   68.1437   44.5005   55.6744 C   0  0  0  0  0  0  0  0  0  0  0  0
   69.1813   44.9489   56.3996 N   0  0  0  0  0  0  0  0  0  0  0  0
   69.8254   44.1116   57.2319 C   0  0  0  0  0  0  0  0  0  0  0  0
   69.4673   42.8096   57.3754 N   0  0  0  0  0  0  0  0  0  0  0  0
   67.6608   40.3045   55.5343 N   0  0  0  0  0  0  0  0  0  0  0  0
   68.0229   40.8891   56.8084 C   0  0  0  0  0  0  0  0  0  0  0  0
 23 24  1  0
 24 17  1  0
 17 18  2  0
 17 22  1  0
 18 19  1  0
 19 16  1  0
 19 20  2  0
 16  1  1  0
  1  2  2  0
  1  6  1  0
  2  3  1  0
  3  4  2  0
  4  5  1  0
  5  7  1  0
  5  6  2  0
  7  8  2  0
  7  9  1  0
  9 10  1  0
 10 11  2  0
 10 15  1  0
 11 12  1  0
 12 13  2  0
 13 14  1  0
 14 15  2  0
 20 21  1  0
 21 22  2  0
M  CHG  1  23   1
M  END
>  <minimizedAffinity>  (332) 
-8.69577

$$$$
data/reference_output_2/data/smiles/146697.pdb
     RDKit          3D

 25 27  0  0  0  0  0  0  0  0999 V2000
   70.4561   51.6951   53.1653 O   0  0  0  0  0  0  0  0  0  0  0  0
   70.8299   50.5269   53.5632 C   0  0  0  0  0  0  0  0  0  0  0  0
   71.9917   50.5320   54.3572 N   0  0  0  0  0  0  0  0  0  0  0  0
   70.0516   49.3698   53.1711 C   0  0  0  0  0  0  0  0  0  0  0  0
   69.6787   48.4248   54.1409 C   0  0  0  0  0  0  0  0  0  0  0  0
   68.9401   47.3232   53.7796 C   0  0  0  0  0  0  0  0  0  0  0  0
   68.5584   46.3781   54.7091 C   0  0  0  0  0  0  0  0  0  0  0  0
   67.8131   45.2590   54.3663 C   0  0  0  0  0  0  0  0  0  0  0  0
   67.4321   45.0732   53.0444 C   0  0  0  0  0  0  0  0  0  0  0  0
   67.7983   46.0012   52.0922 C   0  0  0  0  0  0  0  0  0  0  0  0
   67.4183   45.8212   50.7596 O   0  0  0  0  0  0  0  0  0  0  0  0
   68.5463   47.1104   52.4783 C   0  0  0  0  0  0  0  0  0  0  0  0
   68.9081   48.0065   51.5980 O   0  0  0  0  0  0  0  0  0  0  0  0
   69.6261   49.0907   51.9060 C   0  0  0  0  0  0  0  0  0  0  0  0
   69.8967   49.8608   50.9530 O   0  0  0  0  0  0  0  0  0  0  0  0
   72.7025   51.7731   54.6927 C   0  0  0  0  0  0  0  0  0  0  0  0
   72.5390   52.0681   56.1564 C   0  0  0  0  0  0  0  0  0  0  0  0
   71.3811   52.9783   56.4419 C   0  0  0  0  0  0  0  0  0  0  0  0
   70.1866   52.1856   56.8223 C   0  0  0  0  0  0  0  0  0  0  0  0
   68.9697   52.3668   56.2024 C   0  0  0  0  0  0  0  0  0  0  0  0
   67.8629   51.6037   56.5837 C   0  0  0  0  0  0  0  0  0  0  0  0
   67.9579   50.6531   57.5851 C   0  0  0  0  0  0  0  0  0  0  0  0
   66.8537   49.9003   57.9564 O   0  0  0  0  0  0  0  0  0  0  0  0
   69.1709   50.4792   58.1954 C   0  0  0  0  0  0  0  0  0  0  0  0
   70.2715   51.2408   57.8136 C   0  0  0  0  0  0  0  0  0  0  0  0
  1  2  2  0
  2  3  1  0
  2  4  1  0
  3 16  1  0
 16 17  1  0
 17 18  1  0
 18 19  1  0
 19 20  2  0
 19 25  1  0
 20 21  1  0
 21 22  2  0
 22 23  1  0
 22 24  1  0
 24 25  2  0
  4  5  2  0
  4 14  1  0
  5  6  1  0
  6  7  2  0
  6 12  1  0
  7  8  1  0
  8  9  2  0
  9 10  1  0
 10 11  1  0
 10 12  2  0
 12 13  1  0
 13 14  1  0
 14 15  2  0
M  END
>  <minimizedAffinity>  (333) 
-8.69571

$$$$
data/reference_output_2/data/smiles/193000.pdb
     RDKit          3D

 24 26  0  0  0  0  0  0  0  0999 V2000
   68.1682   43.3150   56.2245 C   0  0  0  0  0  0  0  0  0  0  0  0
   68.9376   43.7015   57.1531 O   0  0  0  0  0  0  0  0  0  0  0  0
   67.8060   44.2837   55.2583 N   0  0  0  0  0  0  0  0  0  0  0  0
   68.2943   45.6031   55.3689 N   0  0  0  0  0  0  0  0  0  0  0  0
   68.4128   46.3651   54.3349 C   0  0  0  0  0  0  0  0  0  0  0  0
   68.0873   46.0478   52.9232 C   0  0  0  0  0  0  0  0  0  0  0  0
   68.9463   46.9712   52.1638 C   0  0  0  0  0  0  0  0  0  0  0  0
   69.3834   46.8269   50.9725 O   0  0  0  0  0  0  0  0  0  0  0  0
   69.2208   48.1115   53.0273 C   0  0  0  0  0  0  0  0  0  0  0  0
   69.7131   49.3918   52.7554 C   0  0  0  0  0  0  0  0  0  0  0  0
   69.8828   50.3012   53.7777 C   0  0  0  0  0  0  0  0  0  0  0  0
   69.5631   49.9320   55.0664 C   0  0  0  0  0  0  0  0  0  0  0  0
   69.0734   48.6608   55.3474 C   0  0  0  0  0  0  0  0  0  0  0  0
   68.9009   47.7436   54.3172 C   0  0  0  0  0  0  0  0  0  0  0  0
   67.7428   41.9183   56.2484 C   0  0  0  0  0  0  0  0  0  0  0  0
   67.6635   41.2927   57.4803 O   0  0  0  0  0  0  0  0  0  0  0  0
   70.1603   38.2296   58.9667 C   0  0  0  0  0  0  0  0  0  0  0  0
   68.7929   38.0786   58.8884 C   0  0  0  0  0  0  0  0  0  0  0  0
   67.9743   39.0749   58.4045 C   0  0  0  0  0  0  0  0  0  0  0  0
   68.4816   40.2883   57.9673 C   0  0  0  0  0  0  0  0  0  0  0  0
   69.8556   40.4319   58.0493 C   0  0  0  0  0  0  0  0  0  0  0  0
   70.6735   39.4361   58.5329 C   0  0  0  0  0  0  0  0  0  0  0  0
   71.8967   36.5275   58.4290 C   0  0  0  0  0  0  0  0  0  0  0  0
   71.0137   37.1436   59.4896 C   0  0  0  0  0  0  0  0  0  0  0  0
 23 24  1  0
 24 17  1  0
 17 18  2  0
 17 22  1  0
 18 19  1  0
 19 20  2  0
 20 16  1  0
 20 21  1  0
 16 15  1  0
 15  1  1  0
  1  2  2  0
  1  3  1  0
  3  4  1  0
  4  5  2  0
  5  6  1  0
  5 14  1  0
  6  7  1  0
  7  8  2  0
  7  9  1  0
  9 10  1  0
  9 14  2  0
 10 11  2  0
 11 12  1  0
 12 13  2  0
 13 14  1  0
 21 22  2  0
M  END
>  <minimizedAffinity>  (334) 
-8.69540

$$$$
data/reference_output_2/data/smiles/140753.pdb
     RDKit          3D

 21 23  0  0  0  0  0  0  0  0999 V2000
   69.6993   50.7074   52.5854 N   0  0  0  0  0  0  0  0  0  0  0  0
   69.5432   51.3774   53.8357 C   0  0  0  0  0  0  0  0  0  0  0  0
   68.3581   51.3724   54.5287 C   0  0  0  0  0  0  0  0  0  0  0  0
   68.2639   52.0324   55.7305 C   0  0  0  0  0  0  0  0  0  0  0  0
   69.3348   52.7095   56.2748 C   0  0  0  0  0  0  0  0  0  0  0  0
   70.5490   52.7313   55.5930 C   0  0  0  0  0  0  0  0  0  0  0  0
   71.6153   53.4167   56.1545 C   0  0  0  0  0  0  0  0  0  0  0  0
   72.8010   53.4197   55.4569 C   0  0  0  0  0  0  0  0  0  0  0  0
   72.8354   52.7417   54.2595 C   0  0  0  0  0  0  0  0  0  0  0  0
   71.8008   52.0802   53.7223 N   0  0  0  0  0  0  0  0  0  0  0  0
   70.6122   52.0618   54.3931 C   0  0  0  0  0  0  0  0  0  0  0  0
   71.7300   49.1091   52.9755 O   0  0  0  0  0  0  0  0  0  0  0  0
   70.3199   49.1319   52.4336 S   0  0  0  0  0  0  0  0  0  0  0  0
   70.4261   48.7779   50.9782 O   0  0  0  0  0  0  0  0  0  0  0  0
   69.3549   47.9108   53.1995 C   0  0  0  0  0  0  0  0  0  0  0  0
   69.1842   47.8002   54.5632 C   0  0  0  0  0  0  0  0  0  0  0  0
   68.3831   46.7806   55.0819 C   0  0  0  0  0  0  0  0  0  0  0  0
   67.7477   45.8692   54.2528 C   0  0  0  0  0  0  0  0  0  0  0  0
   67.9216   45.9862   52.8957 C   0  0  0  0  0  0  0  0  0  0  0  0
   68.7158   46.9966   52.3880 C   0  0  0  0  0  0  0  0  0  0  0  0
   68.8421   47.0470   50.9981 O   0  0  0  0  0  0  0  0  0  0  0  0
 12 13  2  0
 13 14  2  0
 13  1  1  0
 13 15  1  0
  1  2  1  0
  2  3  2  0
  2 11  1  0
  3  4  1  0
  4  5  2  0
  5  6  1  0
  6  7  1  0
  6 11  2  0
  7  8  2  0
  8  9  1  0
  9 10  2  0
 10 11  1  0
 15 16  2  0
 15 20  1  0
 16 17  1  0
 17 18  2  0
 18 19  1  0
 19 20  2  0
 20 21  1  0
M  END
>  <minimizedAffinity>  (335) 
-8.69532

$$$$
data/200k_reference_output/data/smiles/68545.pdb
     RDKit          3D

 23 25  0  0  0  0  0  0  0  0999 V2000
   70.6741   46.0465   59.0991 O   0  0  0  0  0  0  0  0  0  0  0  0
   70.0887   46.1535   57.9889 C   0  0  0  0  0  0  0  0  0  0  0  0
   69.5992   44.9589   57.3670 N   0  0  0  0  0  0  0  0  0  0  0  0
   69.7385   43.6946   57.9297 N   0  0  0  0  0  0  0  0  0  0  0  0
   69.0990   42.6527   57.5703 C   0  0  0  0  0  0  0  0  0  0  0  0
   68.1101   42.6203   56.5017 C   0  0  0  0  0  0  0  0  0  0  0  0
   67.7408   43.5832   55.7875 O   0  0  0  0  0  0  0  0  0  0  0  0
   67.6470   41.2677   56.4363 N   0  0  0  0  0  0  0  0  0  0  0  0
   68.3170   40.4848   57.4194 C   0  0  0  0  0  0  0  0  0  0  0  0
   68.2231   39.1415   57.7538 C   0  0  0  0  0  0  0  0  0  0  0  0
   68.9780   38.5762   58.7594 C   0  0  0  0  0  0  0  0  0  0  0  0
   69.8500   39.3939   59.4454 C   0  0  0  0  0  0  0  0  0  0  0  0
   69.9637   40.7438   59.1313 C   0  0  0  0  0  0  0  0  0  0  0  0
   69.1975   41.2854   58.1206 C   0  0  0  0  0  0  0  0  0  0  0  0
   69.8603   47.4018   57.2670 C   0  0  0  0  0  0  0  0  0  0  0  0
   68.5883   47.5892   56.5541 C   0  0  0  0  0  0  0  0  0  0  0  0
   68.6233   47.4139   55.0736 C   0  0  0  0  0  0  0  0  0  0  0  0
   67.9973   46.3637   54.4397 C   0  0  0  0  0  0  0  0  0  0  0  0
   68.0474   46.1901   53.0743 C   0  0  0  0  0  0  0  0  0  0  0  0
   68.7351   47.0726   52.2717 C   0  0  0  0  0  0  0  0  0  0  0  0
   68.7905   46.9058   50.9013 O   0  0  0  0  0  0  0  0  0  0  0  0
   69.3565   48.1182   52.9173 C   0  0  0  0  0  0  0  0  0  0  0  0
   69.3140   48.3009   54.2697 C   0  0  0  0  0  0  0  0  0  0  0  0
  1  2  2  0
  2 15  1  0
  2  3  1  0
 15 16  1  0
 16 17  1  0
 17 18  2  0
 17 23  1  0
 18 19  1  0
 19 20  2  0
 20 21  1  0
 20 22  1  0
 22 23  2  0
  3  4  1  0
  4  5  2  0
  5  6  1  0
  5 14  1  0
  6  7  2  0
  6  8  1  0
  8  9  1  0
  9 10  1  0
  9 14  2  0
 10 11  2  0
 11 12  1  0
 12 13  2  0
 13 14  1  0
M  END
>  <minimizedAffinity>  (336) 
-8.69460

$$$$
data/reference_output_2/data/smiles/183207.pdb
     RDKit          3D

 25 28  0  0  0  0  0  0  0  0999 V2000
   70.0575   50.7325   53.8240 C   0  0  0  0  0  0  0  0  0  0  0  0
   68.6949   50.9023   53.7444 C   0  0  0  0  0  0  0  0  0  0  0  0
   68.0988   51.9098   54.4758 C   0  0  0  0  0  0  0  0  0  0  0  0
   68.8438   52.7432   55.2802 C   0  0  0  0  0  0  0  0  0  0  0  0
   70.2310   52.5912   55.3773 C   0  0  0  0  0  0  0  0  0  0  0  0
   70.8033   51.5773   54.6367 C   0  0  0  0  0  0  0  0  0  0  0  0
   72.2358   51.3899   54.7125 C   0  0  0  0  0  0  0  0  0  0  0  0
   72.7592   50.4738   54.0437 O   0  0  0  0  0  0  0  0  0  0  0  0
   73.0037   52.2856   55.5707 C   0  0  0  0  0  0  0  0  0  0  0  0
   72.4581   53.2581   56.2811 C   0  0  0  0  0  0  0  0  0  0  0  0
   71.0190   53.4789   56.2318 C   0  0  0  0  0  0  0  0  0  0  0  0
   70.4574   54.3911   56.8904 O   0  0  0  0  0  0  0  0  0  0  0  0
   73.2587   54.1029   57.1030 N   0  0  0  0  0  0  0  0  0  0  0  0
   73.6834   54.7319   58.3233 C   0  0  0  0  0  0  0  0  0  0  0  0
   74.4277   55.0614   57.1052 C   0  0  0  0  0  0  0  0  0  0  0  0
   70.6932   49.7254   53.0984 O   0  0  0  0  0  0  0  0  0  0  0  0
   70.1258   49.1608   50.9825 O   0  0  0  0  0  0  0  0  0  0  0  0
   70.0468   48.9016   52.2071 C   0  0  0  0  0  0  0  0  0  0  0  0
   69.2658   47.7274   52.6274 C   0  0  0  0  0  0  0  0  0  0  0  0
   68.6939   46.8872   51.7057 C   0  0  0  0  0  0  0  0  0  0  0  0
   67.9593   45.7830   52.1298 C   0  0  0  0  0  0  0  0  0  0  0  0
   67.7880   45.5059   53.4660 C   0  0  0  0  0  0  0  0  0  0  0  0
   67.0839   44.4460   53.9207 F   0  0  0  0  0  0  0  0  0  0  0  0
   68.3582   46.3429   54.3943 C   0  0  0  0  0  0  0  0  0  0  0  0
   69.0866   47.4388   53.9623 C   0  0  0  0  0  0  0  0  0  0  0  0
 17 18  2  0
 18 16  1  0
 18 19  1  0
 16  1  1  0
  1  2  2  0
  1  6  1  0
  2  3  1  0
  3  4  2  0
  4  5  1  0
  5  6  2  0
  5 11  1  0
  6  7  1  0
  7  8  2  0
  7  9  1  0
  9 10  2  0
 10 13  1  0
 10 11  1  0
 13 14  1  0
 13 15  1  0
 14 15  1  0
 11 12  2  0
 19 20  2  0
 19 25  1  0
 20 21  1  0
 21 22  2  0
 22 23  1  0
 22 24  1  0
 24 25  2  0
M  END
>  <minimizedAffinity>  (337) 
-8.69404

$$$$
data/reference_output_2/data/smiles/139579.pdb
     RDKit          3D

 25 27  0  0  0  0  0  0  0  0999 V2000
   68.2112   43.2374   56.1116 N   0  0  0  0  0  0  0  0  0  0  0  0
   67.4364   42.2014   55.8671 N   0  0  0  0  0  0  0  0  0  0  0  0
   67.7336   41.1469   56.6416 C   0  0  0  0  0  0  0  0  0  0  0  0
   68.7772   41.5122   57.4550 C   0  0  0  0  0  0  0  0  0  0  0  0
   69.0525   42.8286   57.0988 C   0  0  0  0  0  0  0  0  0  0  0  0
   70.0972   43.6715   57.6940 C   0  0  0  0  0  0  0  0  0  0  0  0
   68.8592   48.1017   56.3639 C   0  0  0  0  0  0  0  0  0  0  0  0
   68.5123   46.8709   55.5916 C   0  0  0  0  0  0  0  0  0  0  0  0
   68.1797   46.9741   54.2598 C   0  0  0  0  0  0  0  0  0  0  0  0
   67.8648   45.8221   53.5748 C   0  0  0  0  0  0  0  0  0  0  0  0
   67.5672   45.9426   52.3609 O   0  0  0  0  0  0  0  0  0  0  0  0
   67.8791   44.6262   54.1910 N   0  0  0  0  0  0  0  0  0  0  0  0
   68.2023   44.5242   55.4899 C   0  0  0  0  0  0  0  0  0  0  0  0
   68.5102   45.6475   56.1556 N   0  0  0  0  0  0  0  0  0  0  0  0
   69.5024   40.7636   58.4808 C   0  0  0  0  0  0  0  0  0  0  0  0
   69.0691   40.6777   59.6684 O   0  0  0  0  0  0  0  0  0  0  0  0
   70.7331   40.0940   58.1936 N   0  0  0  0  0  0  0  0  0  0  0  0
   71.5069   39.3340   59.1100 C   0  0  0  0  0  0  0  0  0  0  0  0
   71.6131   37.8976   58.8839 C   0  0  0  0  0  0  0  0  0  0  0  0
   72.3172   37.4305   57.7968 C   0  0  0  0  0  0  0  0  0  0  0  0
   72.4714   36.0911   57.5153 C   0  0  0  0  0  0  0  0  0  0  0  0
   71.8965   35.1828   58.3567 C   0  0  0  0  0  0  0  0  0  0  0  0
   72.0545   33.8517   58.0798 F   0  0  0  0  0  0  0  0  0  0  0  0
   71.1798   35.6317   59.4600 C   0  0  0  0  0  0  0  0  0  0  0  0
   71.0358   36.9863   59.7285 C   0  0  0  0  0  0  0  0  0  0  0  0
  7  8  1  0
  8  9  2  0
  8 14  1  0
  9 10  1  0
 10 11  2  0
 10 12  1  0
 12 13  1  0
 13  1  1  0
 13 14  2  0
  1  2  1  0
  1  5  1  0
  2  3  2  0
  3  4  1  0
  4 15  1  0
  4  5  2  0
 15 16  2  0
 15 17  1  0
 17 18  1  0
 18 19  1  0
 19 20  2  0
 19 25  1  0
 20 21  1  0
 21 22  2  0
 22 23  1  0
 22 24  1  0
 24 25  2  0
  5  6  1  0
M  END
>  <minimizedAffinity>  (338) 
-8.69358

$$$$
data/reference_output_2/data/smiles/181935.pdb
     RDKit          3D

 25 27  0  0  0  0  0  0  0  0999 V2000
   70.9591   45.8581   58.3844 C   0  0  2  0  0  0  0  0  0  0  0  0
   71.5196   46.3782   59.6400 C   0  0  0  0  0  0  0  0  0  0  0  0
   71.6340   45.6581   60.6618 O   0  0  0  0  0  0  0  0  0  0  0  0
   71.9529   47.7540   59.7119 C   0  0  0  0  0  0  0  0  0  0  0  0
   71.6077   48.6104   58.7752 C   0  0  0  0  0  0  0  0  0  0  0  0
   70.7792   48.2289   57.6246 C   0  0  0  0  0  0  0  0  0  0  0  0
   70.0761   46.9252   57.7295 C   0  0  1  0  0  0  0  0  0  0  0  0
   70.1209   44.7286   58.5897 O   0  0  0  0  0  0  0  0  0  0  0  0
   71.5735   43.1411   57.9497 O   0  0  0  0  0  0  0  0  0  0  0  0
   70.3743   43.5223   57.9533 C   0  0  0  0  0  0  0  0  0  0  0  0
   69.3095   42.7361   57.3197 C   0  0  0  0  0  0  0  0  0  0  0  0
   69.1249   41.4000   57.5897 C   0  0  0  0  0  0  0  0  0  0  0  0
   68.1298   40.6476   57.0018 C   0  0  0  0  0  0  0  0  0  0  0  0
   67.2689   41.2371   56.0998 C   0  0  0  0  0  0  0  0  0  0  0  0
   67.4313   42.5760   55.8105 C   0  0  0  0  0  0  0  0  0  0  0  0
   68.4470   43.3184   56.4181 C   0  0  0  0  0  0  0  0  0  0  0  0
   69.6230   46.4119   56.5133 O   0  0  0  0  0  0  0  0  0  0  0  0
   68.5063   46.8878   55.8496 C   0  0  0  0  0  0  0  0  0  0  0  0
   67.5816   47.3602   56.5202 O   0  0  0  0  0  0  0  0  0  0  0  0
   68.4691   46.8108   54.3872 C   0  0  0  0  0  0  0  0  0  0  0  0
   67.7685   45.8244   53.7278 C   0  0  0  0  0  0  0  0  0  0  0  0
   67.7322   45.7507   52.3498 C   0  0  0  0  0  0  0  0  0  0  0  0
   68.4082   46.6781   51.5728 C   0  0  0  0  0  0  0  0  0  0  0  0
   69.1084   47.6636   52.2342 C   0  0  0  0  0  0  0  0  0  0  0  0
   69.1415   47.7324   53.6148 C   0  0  0  0  0  0  0  0  0  0  0  0
  9 10  2  0
 10  8  1  0
 10 11  1  0
  1  8  1  1
  1  2  1  0
  1  7  1  0
  2  3  2  0
  2  4  1  0
  4  5  2  0
  5  6  1  0
  6  7  1  0
  7 17  1  6
 17 18  1  0
 18 19  2  0
 18 20  1  0
 20 21  2  0
 20 25  1  0
 21 22  1  0
 22 23  2  0
 23 24  1  0
 24 25  2  0
 11 12  2  0
 11 16  1  0
 12 13  1  0
 13 14  2  0
 14 15  1  0
 15 16  2  0
M  END
>  <minimizedAffinity>  (339) 
-8.69356

$$$$
data/reference_output_2/data/smiles/160410.pdb
     RDKit          3D

 23 24  0  0  0  0  0  0  0  0999 V2000
   67.3169   42.1986   56.5907 C   0  0  0  0  0  0  0  0  0  0  0  0
   66.9832   41.6128   55.5282 O   0  0  0  0  0  0  0  0  0  0  0  0
   67.8412   43.5145   56.4753 N   0  0  0  0  0  0  0  0  0  0  0  0
   67.9649   44.0994   55.2119 N   0  0  0  0  0  0  0  0  0  0  0  0
   68.1750   45.4849   55.0033 C   0  0  0  0  0  0  0  0  0  0  0  0
   68.2465   46.1856   56.0660 O   0  0  0  0  0  0  0  0  0  0  0  0
   68.3042   46.1030   53.6939 C   0  0  0  0  0  0  0  0  0  0  0  0
   69.1286   47.1708   53.4294 C   0  0  0  0  0  0  0  0  0  0  0  0
   69.2499   47.7566   52.1854 C   0  0  0  0  0  0  0  0  0  0  0  0
   68.5112   47.2405   51.1856 N   0  0  0  0  0  0  0  0  0  0  0  0
   67.6907   46.1951   51.3970 C   0  0  0  0  0  0  0  0  0  0  0  0
   67.5637   45.6015   52.6446 C   0  0  0  0  0  0  0  0  0  0  0  0
   67.1653   41.5272   57.9312 C   0  0  0  0  0  0  0  0  0  0  0  0
   68.3826   41.5459   58.6225 O   0  0  0  0  0  0  0  0  0  0  0  0
   71.2415   38.4762   58.4555 C   0  0  0  0  0  0  0  0  0  0  0  0
   69.8890   38.2116   58.5167 C   0  0  0  0  0  0  0  0  0  0  0  0
   68.9400   39.2116   58.5725 C   0  0  0  0  0  0  0  0  0  0  0  0
   69.3208   40.5364   58.5673 C   0  0  0  0  0  0  0  0  0  0  0  0
   70.6714   40.8156   58.5061 C   0  0  0  0  0  0  0  0  0  0  0  0
   71.6240   39.8023   58.4510 C   0  0  0  0  0  0  0  0  0  0  0  0
   73.4875   37.7312   59.2000 C   0  0  0  0  0  0  0  0  0  0  0  0
   72.2462   37.3765   58.3960 C   0  0  0  0  0  0  0  0  0  0  0  0
   71.5889   36.1293   58.9385 C   0  0  0  0  0  0  0  0  0  0  0  0
 21 22  1  0
 22 23  1  0
 22 15  1  0
 15 16  2  0
 15 20  1  0
 16 17  1  0
 17 18  2  0
 18 14  1  0
 18 19  1  0
 14 13  1  0
 13  1  1  0
  1  2  2  0
  1  3  1  0
  3  4  1  0
  4  5  1  0
  5  6  2  0
  5  7  1  0
  7  8  2  0
  7 12  1  0
  8  9  1  0
  9 10  2  0
 10 11  1  0
 11 12  2  0
 19 20  2  0
M  END
>  <minimizedAffinity>  (340) 
-8.69309

$$$$
data/reference_output_2/data/smiles/88331.pdb
     RDKit          3D

 23 26  0  0  0  0  0  0  0  0999 V2000
   70.4532   47.3062   57.8509 C   0  0  0  0  0  0  0  0  0  0  0  0
   70.6100   45.8114   57.8781 C   0  0  0  0  0  0  0  0  0  0  0  0
   69.6514   44.8930   57.6368 N   0  0  0  0  0  0  0  0  0  0  0  0
   70.1274   43.6425   57.7436 C   0  0  0  0  0  0  0  0  0  0  0  0
   71.4637   43.8094   58.0724 C   0  0  0  0  0  0  0  0  0  0  0  0
   71.7290   45.1227   58.1462 N   0  0  0  0  0  0  0  0  0  0  0  0
   69.4476   42.3681   57.5678 C   0  0  0  0  0  0  0  0  0  0  0  0
   68.3421   42.2667   56.7507 C   0  0  0  0  0  0  0  0  0  0  0  0
   67.7148   41.0339   56.6043 C   0  0  0  0  0  0  0  0  0  0  0  0
   68.1639   39.9014   57.2525 C   0  0  0  0  0  0  0  0  0  0  0  0
   69.2452   40.0387   58.0422 N   0  0  0  0  0  0  0  0  0  0  0  0
   69.8741   41.2225   58.2031 C   0  0  0  0  0  0  0  0  0  0  0  0
   69.0203   47.5749   57.4403 C   0  0  0  0  0  0  0  0  0  0  0  0
   70.0645   48.6564   52.1237 C   0  0  0  0  0  0  0  0  0  0  0  0
   69.1449   47.5591   52.5028 C   0  0  0  0  0  0  0  0  0  0  0  0
   68.5557   46.8155   51.5022 C   0  0  0  0  0  0  0  0  0  0  0  0
   67.7066   45.8021   51.8389 C   0  0  0  0  0  0  0  0  0  0  0  0
   67.4735   45.5656   53.1829 C   0  0  0  0  0  0  0  0  0  0  0  0
   68.0812   46.3325   54.1724 C   0  0  0  0  0  0  0  0  0  0  0  0
   68.0176   46.3005   55.5176 N   0  0  0  0  0  0  0  0  0  0  0  0
   68.8093   47.2722   55.9974 C   0  0  0  0  0  0  0  0  0  0  0  0
   69.3558   47.8956   54.9344 N   0  0  0  0  0  0  0  0  0  0  0  0
   68.9152   47.3265   53.8158 N   0  0  0  0  0  0  0  0  0  0  0  0
 14 15  1  0
 15 16  2  0
 15 23  1  0
 16 17  1  0
 17 18  2  0
 18 19  1  0
 19 20  2  0
 19 23  1  0
 20 21  1  0
 21 13  1  0
 21 22  2  0
 13  1  1  0
  1  2  1  0
  2  3  2  0
  2  6  1  0
  3  4  1  0
  4  7  1  0
  4  5  2  0
  7  8  2  0
  7 12  1  0
  8  9  1  0
  9 10  2  0
 10 11  1  0
 11 12  2  0
  5  6  1  0
 22 23  1  0
M  CHG  1   3   1
M  END
>  <minimizedAffinity>  (341) 
-8.69174

$$$$
data/200k_reference_output/data/smiles/47859.pdb
     RDKit          3D

 25 28  0  0  0  0  0  0  0  0999 V2000
   71.7267   49.9825   53.7712 O   0  0  0  0  0  0  0  0  0  0  0  0
   70.6721   50.6622   53.8420 C   0  0  0  0  0  0  0  0  0  0  0  0
   70.6111   51.8462   54.6180 N   0  0  0  0  0  0  0  0  0  0  0  0
   71.7820   52.2628   55.3290 C   0  0  0  0  0  0  0  0  0  0  0  0
   71.4934   52.9343   56.6376 C   0  0  1  0  0  0  0  0  0  0  0  0
   70.3135   53.8554   56.5031 C   0  0  0  0  0  0  0  0  0  0  0  0
   69.1191   53.0555   56.0803 C   0  0  1  0  0  0  0  0  0  0  0  0
   69.3582   52.5854   54.6555 C   0  0  0  0  0  0  0  0  0  0  0  0
   68.9537   51.8360   56.9424 C   0  0  0  0  0  0  0  0  0  0  0  0
   67.6952   51.2679   56.9426 C   0  0  0  0  0  0  0  0  0  0  0  0
   67.4941   50.1460   57.7189 C   0  0  0  0  0  0  0  0  0  0  0  0
   68.5309   49.6434   58.4507 C   0  0  0  0  0  0  0  0  0  0  0  0
   69.7617   50.2292   58.4269 C   0  0  0  0  0  0  0  0  0  0  0  0
   70.6935   49.7351   59.1157 O   0  0  0  0  0  0  0  0  0  0  0  0
   69.9551   51.3318   57.6624 N   0  0  0  0  0  0  0  0  0  0  0  0
   71.2949   51.8980   57.6910 C   0  0  0  0  0  0  0  0  0  0  0  0
   69.4927   50.1735   53.0792 C   0  0  0  0  0  0  0  0  0  0  0  0
   69.7878   48.9218   52.3139 C   0  0  0  0  0  0  0  0  0  0  0  0
   69.2053   47.7814   53.0809 C   0  0  0  0  0  0  0  0  0  0  0  0
   69.1984   47.7694   54.4612 C   0  0  0  0  0  0  0  0  0  0  0  0
   68.6650   46.7257   55.1514 C   0  0  0  0  0  0  0  0  0  0  0  0
   68.1211   45.6602   54.4578 C   0  0  0  0  0  0  0  0  0  0  0  0
   67.5742   44.5914   55.1554 O   0  0  0  0  0  0  0  0  0  0  0  0
   68.1235   45.6647   53.0894 C   0  0  0  0  0  0  0  0  0  0  0  0
   68.6643   46.7233   52.4004 C   0  0  0  0  0  0  0  0  0  0  0  0
  1  2  2  0
  2 17  1  0
  2  3  1  0
 17 18  1  0
 18 19  1  0
 19 20  2  0
 19 25  1  0
 20 21  1  0
 21 22  2  0
 22 23  1  0
 22 24  1  0
 24 25  2  0
  3  4  1  0
  3  8  1  0
  5  4  1  6
  5  6  1  0
  5 16  1  0
  6  7  1  0
  7  8  1  6
  7  9  1  0
  9 10  2  0
  9 15  1  0
 10 11  1  0
 11 12  2  0
 12 13  1  0
 13 14  2  0
 13 15  1  0
 15 16  1  0
M  END
>  <minimizedAffinity>  (342) 
-8.69042

$$$$
data/reference_output_2/data/smiles/124379.pdb
     RDKit          3D

 24 26  0  0  0  0  0  0  0  0999 V2000
   71.3981   50.8877   55.3500 C   0  0  0  0  0  0  0  0  0  0  0  0
   70.8790   49.7825   54.4985 C   0  0  0  0  0  0  0  0  0  0  0  0
   71.4844   49.5695   53.4352 O   0  0  0  0  0  0  0  0  0  0  0  0
   69.7534   49.0221   54.8922 N   0  0  0  0  0  0  0  0  0  0  0  0
   69.1019   49.2362   56.1720 C   0  0  0  0  0  0  0  0  0  0  0  0
   68.2621   48.0772   56.5775 C   0  0  0  0  0  0  0  0  0  0  0  0
   68.7056   46.7442   56.0429 C   0  0  0  0  0  0  0  0  0  0  0  0
   68.7063   46.8600   54.5618 C   0  0  0  0  0  0  0  0  0  0  0  0
   68.1960   45.8572   53.7534 C   0  0  0  0  0  0  0  0  0  0  0  0
   68.2277   46.0375   52.3901 C   0  0  0  0  0  0  0  0  0  0  0  0
   68.7615   47.2025   51.8239 C   0  0  0  0  0  0  0  0  0  0  0  0
   69.2579   48.1740   52.6544 C   0  0  0  0  0  0  0  0  0  0  0  0
   69.2368   48.0157   54.0379 C   0  0  0  0  0  0  0  0  0  0  0  0
   72.4664   51.6799   54.6795 C   0  0  0  0  0  0  0  0  0  0  0  0
   76.0108   50.8857   55.8633 N   0  0  0  0  0  0  0  0  0  0  0  0
   74.7899   50.8357   55.1495 C   0  0  0  0  0  0  0  0  0  0  0  0
   74.6410   49.9854   54.2621 O   0  0  0  0  0  0  0  0  0  0  0  0
   73.7064   51.7204   55.3956 N   0  0  0  0  0  0  0  0  0  0  0  0
   80.3437   48.3956   56.3668 C   0  0  0  0  0  0  0  0  0  0  0  0
   79.0478   48.8855   55.8272 C   0  0  0  0  0  0  0  0  0  0  0  0
   78.2188   49.8322   56.4493 C   0  0  0  0  0  0  0  0  0  0  0  0
   77.1162   50.0275   55.6527 C   0  0  0  0  0  0  0  0  0  0  0  0
   77.3076   49.2131   54.6005 N   0  0  0  0  0  0  0  0  0  0  0  0
   78.4253   48.5683   54.7248 O   0  0  0  0  0  0  0  0  0  0  0  0
 19 20  1  0
 20 21  2  0
 20 24  1  0
 21 22  1  0
 22 15  1  0
 22 23  2  0
 15 16  1  0
 16 17  2  0
 16 18  1  0
 18 14  1  0
 14  1  1  0
  1  2  1  0
  2  3  2  0
  2  4  1  0
  4  5  1  0
  4 13  1  0
  5  6  1  0
  6  7  1  0
  7  8  1  0
  8  9  2  0
  8 13  1  0
  9 10  1  0
 10 11  2  0
 11 12  1  0
 12 13  2  0
 23 24  1  0
M  END
>  <minimizedAffinity>  (343) 
-8.68907

$$$$
data/reference_output_2/data/smiles/189144.pdb
     RDKit          3D

 24 25  0  0  0  0  0  0  0  0999 V2000
   70.1677   47.4767   57.8287 C   0  0  0  0  0  0  0  0  0  0  0  0
   67.8750   46.8195   56.4870 O   0  0  0  0  0  0  0  0  0  0  0  0
   68.8527   47.0551   55.7401 C   0  0  0  0  0  0  0  0  0  0  0  0
   70.0761   47.4045   56.4174 N   0  0  0  0  0  0  0  0  0  0  0  0
   68.7249   46.9728   54.2965 C   0  0  0  0  0  0  0  0  0  0  0  0
   67.9352   46.0518   53.6481 C   0  0  0  0  0  0  0  0  0  0  0  0
   67.8366   46.0034   52.2662 C   0  0  0  0  0  0  0  0  0  0  0  0
   67.0556   45.0915   51.6422 F   0  0  0  0  0  0  0  0  0  0  0  0
   68.5399   46.8921   51.4811 C   0  0  0  0  0  0  0  0  0  0  0  0
   69.3358   47.8211   52.1124 C   0  0  0  0  0  0  0  0  0  0  0  0
   70.0251   48.6920   51.3373 F   0  0  0  0  0  0  0  0  0  0  0  0
   69.4205   47.8534   53.4950 C   0  0  0  0  0  0  0  0  0  0  0  0
   70.4596   46.2002   58.5166 C   0  0  0  0  0  0  0  0  0  0  0  0
   69.8328   44.9975   58.1648 N   0  0  0  0  0  0  0  0  0  0  0  0
   70.3090   43.7340   57.7988 C   0  0  0  0  0  0  0  0  0  0  0  0
   71.5227   43.5339   57.7311 O   0  0  0  0  0  0  0  0  0  0  0  0
   69.4470   42.5764   57.4753 C   0  0  0  0  0  0  0  0  0  0  0  0
   68.4059   42.6587   56.5966 C   0  0  0  0  0  0  0  0  0  0  0  0
   67.6141   41.5295   56.3194 C   0  0  0  0  0  0  0  0  0  0  0  0
   66.5915   41.6540   55.4423 F   0  0  0  0  0  0  0  0  0  0  0  0
   67.8656   40.3326   56.9193 C   0  0  0  0  0  0  0  0  0  0  0  0
   68.9112   40.2340   57.8072 C   0  0  0  0  0  0  0  0  0  0  0  0
   69.1602   39.0488   58.4005 F   0  0  0  0  0  0  0  0  0  0  0  0
   69.6785   41.3552   58.0656 C   0  0  0  0  0  0  0  0  0  0  0  0
  2  3  2  0
  3  4  1  0
  3  5  1  0
  4  1  1  0
  1 13  1  0
 13 14  1  0
 14 15  1  0
 15 16  2  0
 15 17  1  0
 17 18  2  0
 17 24  1  0
 18 19  1  0
 19 20  1  0
 19 21  2  0
 21 22  1  0
 22 23  1  0
 22 24  2  0
  5  6  2  0
  5 12  1  0
  6  7  1  0
  7  8  1  0
  7  9  2  0
  9 10  1  0
 10 11  1  0
 10 12  2  0
M  END
>  <minimizedAffinity>  (344) 
-8.68812

$$$$
data/200k_reference_output/data/smiles/3220.pdb
     RDKit          3D

 25 27  0  0  0  0  0  0  0  0999 V2000
   69.4272   47.5108   56.2100 N   0  0  0  0  0  0  0  0  0  0  0  0
   69.9900   48.4588   55.5111 N   0  0  0  0  0  0  0  0  0  0  0  0
   69.8605   48.5137   54.1384 C   0  0  0  0  0  0  0  0  0  0  0  0
   69.1370   47.5771   53.4444 C   0  0  0  0  0  0  0  0  0  0  0  0
   68.9914   47.6046   52.0780 C   0  0  0  0  0  0  0  0  0  0  0  0
   68.2371   46.6167   51.4270 C   0  0  0  0  0  0  0  0  0  0  0  0
   67.6563   45.6315   52.1908 C   0  0  0  0  0  0  0  0  0  0  0  0
   67.8000   45.5986   53.5614 C   0  0  0  0  0  0  0  0  0  0  0  0
   68.5376   46.5631   54.2070 C   0  0  0  0  0  0  0  0  0  0  0  0
   68.7118   46.5779   55.5664 C   0  0  0  0  0  0  0  0  0  0  0  0
   68.1672   45.6632   56.2301 O   0  0  0  0  0  0  0  0  0  0  0  0
   70.5255   49.6088   53.4469 C   0  0  0  0  0  0  0  0  0  0  0  0
   71.8134   49.6123   53.4304 O   0  0  0  0  0  0  0  0  0  0  0  0
   69.9757   50.6706   52.7910 O   0  0  0  0  0  0  0  0  0  0  0  0
   69.5395   47.4184   57.6601 C   0  0  0  0  0  0  0  0  0  0  0  0
   70.7787   45.1921   57.4844 N   0  0  0  0  0  0  0  0  0  0  0  0
   70.6433   46.4795   58.0452 C   0  0  0  0  0  0  0  0  0  0  0  0
   71.4515   46.8802   58.8919 O   0  0  0  0  0  0  0  0  0  0  0  0
   69.9712   42.5680   57.5842 C   0  0  0  0  0  0  0  0  0  0  0  0
   71.3894   42.9048   57.8391 C   0  0  0  0  0  0  0  0  0  0  0  0
   72.2638   41.8894   58.1188 C   0  0  0  0  0  0  0  0  0  0  0  0
   73.5906   42.1571   58.3619 C   0  0  0  0  0  0  0  0  0  0  0  0
   74.0088   43.4642   58.3157 C   0  0  0  0  0  0  0  0  0  0  0  0
   73.1030   44.4991   58.0270 C   0  0  0  0  0  0  0  0  0  0  0  0
   71.7786   44.2449   57.7831 C   0  0  0  0  0  0  0  0  0  0  0  0
 19 20  1  0
 20 21  2  0
 20 25  1  0
 21 22  1  0
 22 23  2  0
 23 24  1  0
 24 25  2  0
 25 16  1  0
 16 17  1  0
 17 18  2  0
 17 15  1  0
 15  1  1  0
  1  2  1  0
  1 10  1  0
  2  3  2  0
  3 12  1  0
  3  4  1  0
 12 13  2  0
 12 14  1  0
  4  5  2  0
  4  9  1  0
  5  6  1  0
  6  7  2  0
  7  8  1  0
  8  9  2  0
  9 10  1  0
 10 11  2  0
M  END
>  <minimizedAffinity>  (345) 
-8.68538

$$$$
data/200k_reference_output/data/smiles/18411.pdb
     RDKit          3D

 25 28  0  0  0  0  0  0  0  0999 V2000
   73.3471   35.5197   52.3729 O   0  0  0  0  0  0  0  0  0  0  0  0
   73.7698   35.1245   53.4904 C   0  0  0  0  0  0  0  0  0  0  0  0
   72.9948   35.4421   54.6837 C   0  0  0  0  0  0  0  0  0  0  0  0
   73.3967   35.2472   55.9189 C   0  0  0  0  0  0  0  0  0  0  0  0
   72.6435   35.5568   57.1286 C   0  0  0  0  0  0  0  0  0  0  0  0
   72.2828   36.8634   57.3912 C   0  0  0  0  0  0  0  0  0  0  0  0
   71.5606   37.2235   58.5161 C   0  0  0  0  0  0  0  0  0  0  0  0
   71.1620   36.2868   59.4394 C   0  0  0  0  0  0  0  0  0  0  0  0
   71.5201   34.9559   59.1890 C   0  0  0  0  0  0  0  0  0  0  0  0
   72.2422   34.6220   58.0563 C   0  0  0  0  0  0  0  0  0  0  0  0
   70.9953   34.2465   60.2632 O   0  0  0  0  0  0  0  0  0  0  0  0
   70.7748   35.1272   61.3777 C   0  0  0  0  0  0  0  0  0  0  0  0
   70.4446   36.3128   60.6453 O   0  0  0  0  0  0  0  0  0  0  0  0
   75.0208   34.3697   53.5030 C   0  0  0  0  0  0  0  0  0  0  0  0
   75.7780   34.6967   52.2478 C   0  0  0  0  0  0  0  0  0  0  0  0
   75.5352   34.1116   51.0738 N   0  0  0  0  0  0  0  0  0  0  0  0
   76.2513   34.4588   49.9617 C   0  0  0  0  0  0  0  0  0  0  0  0
   75.9868   33.8524   48.7458 C   0  0  0  0  0  0  0  0  0  0  0  0
   76.7071   34.2130   47.6259 C   0  0  0  0  0  0  0  0  0  0  0  0
   77.6809   35.1763   47.7482 C   0  0  0  0  0  0  0  0  0  0  0  0
   77.9563   35.7898   48.9505 C   0  0  0  0  0  0  0  0  0  0  0  0
   77.2282   35.4201   50.0627 C   0  0  0  0  0  0  0  0  0  0  0  0
   77.5066   36.0424   51.2506 N   0  0  0  0  0  0  0  0  0  0  0  0
   76.7657   35.6556   52.3043 C   0  0  0  0  0  0  0  0  0  0  0  0
   76.9759   36.1997   53.4422 O   0  0  0  0  0  0  0  0  0  0  0  0
  1  2  2  0
  2  3  1  0
  2 14  1  0
  3  4  2  0
  4  5  1  0
  5  6  2  0
  5 10  1  0
  6  7  1  0
  7  8  2  0
  8  9  1  0
  8 13  1  0
  9 10  2  0
  9 11  1  0
 11 12  1  0
 12 13  1  0
 14 15  1  0
 15 16  2  0
 15 24  1  0
 16 17  1  0
 17 18  2  0
 17 22  1  0
 18 19  1  0
 19 20  2  0
 20 21  1  0
 21 22  2  0
 22 23  1  0
 23 24  1  0
 24 25  2  0
M  END
>  <minimizedAffinity>  (346) 
-8.68525

$$$$
data/200k_reference_output/data/smiles/53195.pdb
     RDKit          3D

 22 24  0  0  0  0  0  0  0  0999 V2000
   71.4985   44.2450   57.5168 O   0  0  0  0  0  0  0  0  0  0  0  0
   70.0106   44.3285   57.6964 S   0  0  0  0  0  0  0  0  0  0  0  0
   69.7706   44.7716   59.1190 O   0  0  0  0  0  0  0  0  0  0  0  0
   69.3120   45.5157   56.6616 N   0  0  0  0  0  0  0  0  0  0  0  0
   68.3696   45.2162   55.8127 C   0  0  0  0  0  0  0  0  0  0  0  0
   67.8465   43.9123   55.6642 N   0  0  0  0  0  0  0  0  0  0  0  0
   68.2502   42.7661   56.3923 C   0  0  0  0  0  0  0  0  0  0  0  0
   67.6564   41.5200   56.1576 C   0  0  0  0  0  0  0  0  0  0  0  0
   66.6739   41.4606   55.1978 O   0  0  0  0  0  0  0  0  0  0  0  0
   68.0214   40.3868   56.8454 C   0  0  0  0  0  0  0  0  0  0  0  0
   69.0052   40.4365   57.8085 C   0  0  0  0  0  0  0  0  0  0  0  0
   69.4985   39.0166   58.7046 Cl  0  0  0  0  0  0  0  0  0  0  0  0
   69.5952   41.6826   58.0387 C   0  0  0  0  0  0  0  0  0  0  0  0
   69.2311   42.8025   57.3564 C   0  0  0  0  0  0  0  0  0  0  0  0
   67.9091   46.3144   55.0408 N   0  0  0  0  0  0  0  0  0  0  0  0
   68.6183   46.9404   53.9896 C   0  0  0  0  0  0  0  0  0  0  0  0
   69.3131   48.1086   54.1780 C   0  0  0  0  0  0  0  0  0  0  0  0
   70.0055   48.7499   53.1618 C   0  0  0  0  0  0  0  0  0  0  0  0
   70.0025   48.2058   51.9153 C   0  0  0  0  0  0  0  0  0  0  0  0
   69.3112   47.0262   51.6862 C   0  0  0  0  0  0  0  0  0  0  0  0
   68.6315   46.4100   52.7126 C   0  0  0  0  0  0  0  0  0  0  0  0
   67.9460   45.2568   52.5220 F   0  0  0  0  0  0  0  0  0  0  0  0
  1  2  2  0
  2  3  2  0
  2  4  1  0
  2 14  1  0
  4  5  2  0
  5 15  1  0
  5  6  1  0
 15 16  1  0
 16 17  2  0
 16 21  1  0
 17 18  1  0
 18 19  2  0
 19 20  1  0
 20 21  2  0
 21 22  1  0
  6  7  1  0
  7  8  1  0
  7 14  2  0
  8  9  1  0
  8 10  2  0
 10 11  1  0
 11 12  1  0
 11 13  2  0
 13 14  1  0
M  CHG  1   4   1
M  END
>  <minimizedAffinity>  (347) 
-8.68471

$$$$
data/200k_reference_output/data/smiles/62617.pdb
     RDKit          3D

 24 26  0  0  0  0  0  0  0  0999 V2000
   71.1756   50.7768   54.3281 C   0  0  0  0  0  0  0  0  0  0  0  0
   70.3468   49.5691   54.2707 N   0  0  0  0  0  0  0  0  0  0  0  0
   69.9071   49.0064   55.3699 N   0  0  0  0  0  0  0  0  0  0  0  0
   69.1435   47.8986   55.4245 C   0  0  0  0  0  0  0  0  0  0  0  0
   68.8160   47.3347   54.2080 C   0  0  0  0  0  0  0  0  0  0  0  0
   68.0555   46.2130   54.1917 C   0  0  0  0  0  0  0  0  0  0  0  0
   67.6893   45.5824   53.0034 C   0  0  0  0  0  0  0  0  0  0  0  0
   68.1220   46.1299   51.8271 C   0  0  0  0  0  0  0  0  0  0  0  0
   68.8958   47.2711   51.8359 C   0  0  0  0  0  0  0  0  0  0  0  0
   69.2459   47.8769   53.0343 C   0  0  0  0  0  0  0  0  0  0  0  0
   70.0195   49.0080   53.0889 C   0  0  0  0  0  0  0  0  0  0  0  0
   70.4130   49.5043   52.0019 O   0  0  0  0  0  0  0  0  0  0  0  0
   68.7024   47.3796   56.7163 C   0  0  0  0  0  0  0  0  0  0  0  0
   69.6680   46.3582   57.2679 C   0  0  0  0  0  0  0  0  0  0  0  0
   70.7312   46.7293   57.8262 O   0  0  0  0  0  0  0  0  0  0  0  0
   69.4219   44.9704   57.1811 N   0  0  0  0  0  0  0  0  0  0  0  0
   70.2957   43.9616   57.6769 C   0  0  0  0  0  0  0  0  0  0  0  0
   69.6446   42.6408   57.6407 C   0  0  0  0  0  0  0  0  0  0  0  0
   68.4886   42.4404   56.8899 C   0  0  0  0  0  0  0  0  0  0  0  0
   67.8986   41.1904   56.8408 C   0  0  0  0  0  0  0  0  0  0  0  0
   68.4265   40.1395   57.5196 C   0  0  0  0  0  0  0  0  0  0  0  0
   67.8631   38.9083   57.4827 F   0  0  0  0  0  0  0  0  0  0  0  0
   69.5553   40.3228   58.2570 C   0  0  0  0  0  0  0  0  0  0  0  0
   70.1814   41.5673   58.3305 C   0  0  0  0  0  0  0  0  0  0  0  0
  1  2  1  0
  2  3  1  0
  2 11  1  0
  3  4  2  0
  4 13  1  0
  4  5  1  0
 13 14  1  0
 14 15  2  0
 14 16  1  0
 16 17  1  0
 17 18  1  0
 18 19  2  0
 18 24  1  0
 19 20  1  0
 20 21  2  0
 21 22  1  0
 21 23  1  0
 23 24  2  0
  5  6  1  0
  5 10  2  0
  6  7  2  0
  7  8  1  0
  8  9  2  0
  9 10  1  0
 10 11  1  0
 11 12  2  0
M  END
>  <minimizedAffinity>  (348) 
-8.68448

$$$$
data/200k_reference_output/data/smiles/11110.pdb
     RDKit          3D

 25 29  0  0  0  0  0  0  0  0999 V2000
   70.8289   51.2729   58.9305 O   0  0  0  0  0  0  0  0  0  0  0  0
   71.0802   51.3203   57.6932 C   0  0  0  0  0  0  0  0  0  0  0  0
   71.9152   52.3087   57.2050 C   0  0  0  0  0  0  0  0  0  0  0  0
   72.4857   53.2595   58.0581 C   0  0  0  0  0  0  0  0  0  0  0  0
   73.3147   54.2356   57.5450 C   0  0  0  0  0  0  0  0  0  0  0  0
   73.6134   54.3204   56.2083 C   0  0  0  0  0  0  0  0  0  0  0  0
   73.0332   53.3650   55.3819 C   0  0  0  0  0  0  0  0  0  0  0  0
   72.2022   52.3783   55.8584 C   0  0  0  0  0  0  0  0  0  0  0  0
   71.6295   51.4258   55.0059 C   0  0  0  0  0  0  0  0  0  0  0  0
   71.9067   51.5145   53.8048 O   0  0  0  0  0  0  0  0  0  0  0  0
   70.7982   50.4414   55.4916 C   0  0  0  0  0  0  0  0  0  0  0  0
   70.5131   50.3785   56.8515 C   0  0  0  0  0  0  0  0  0  0  0  0
   69.7210   49.3665   56.9986 O   0  0  0  0  0  0  0  0  0  0  0  0
   69.4501   48.7501   55.8775 C   0  0  0  0  0  0  0  0  0  0  0  0
   68.6706   47.6489   55.5631 C   0  0  0  0  0  0  0  0  0  0  0  0
   68.0434   47.0302   56.4671 O   0  0  0  0  0  0  0  0  0  0  0  0
   68.5700   47.2148   54.2536 C   0  0  0  0  0  0  0  0  0  0  0  0
   67.7956   46.1160   53.9165 C   0  0  0  0  0  0  0  0  0  0  0  0
   67.6731   45.6567   52.6235 C   0  0  0  0  0  0  0  0  0  0  0  0
   68.3653   46.3466   51.6566 C   0  0  0  0  0  0  0  0  0  0  0  0
   69.1463   47.4422   51.9346 C   0  0  0  0  0  0  0  0  0  0  0  0
   69.2461   47.8746   53.2467 C   0  0  0  0  0  0  0  0  0  0  0  0
   70.0276   48.9810   53.5666 C   0  0  0  0  0  0  0  0  0  0  0  0
   70.6210   49.5514   52.6458 O   0  0  0  0  0  0  0  0  0  0  0  0
   70.1247   49.4100   54.8723 C   0  0  0  0  0  0  0  0  0  0  0  0
  1  2  2  0
  2  3  1  0
  2 12  1  0
  3  4  2  0
  3  8  1  0
  4  5  1  0
  5  6  2  0
  6  7  1  0
  7  8  2  0
  8  9  1  0
  9 10  2  0
  9 11  1  0
 11 12  2  0
 11 25  1  0
 12 13  1  0
 13 14  1  0
 14 15  1  0
 14 25  2  0
 15 16  2  0
 15 17  1  0
 17 18  1  0
 17 22  2  0
 18 19  2  0
 19 20  1  0
 20 21  2  0
 21 22  1  0
 22 23  1  0
 23 24  2  0
 23 25  1  0
M  END
>  <minimizedAffinity>  (349) 
-8.68339

$$$$
data/reference_output_2/data/smiles/166394.pdb
     RDKit          3D

 22 24  0  0  0  0  0  0  0  0999 V2000
   68.3748   45.2799   55.8368 C   0  0  0  0  0  0  0  0  0  0  0  0
   69.3103   45.6098   56.6567 N   0  0  0  0  0  0  0  0  0  0  0  0
   70.0286   44.4308   57.6685 S   0  0  0  0  0  0  0  0  0  0  0  0
   71.5188   44.3430   57.4581 O   0  0  0  0  0  0  0  0  0  0  0  0
   69.7595   44.7993   59.1218 O   0  0  0  0  0  0  0  0  0  0  0  0
   69.2699   42.8929   57.3475 C   0  0  0  0  0  0  0  0  0  0  0  0
   69.6342   41.7513   58.0077 C   0  0  0  0  0  0  0  0  0  0  0  0
   69.0605   40.5157   57.7843 C   0  0  0  0  0  0  0  0  0  0  0  0
   69.5913   39.0883   58.6822 Cl  0  0  0  0  0  0  0  0  0  0  0  0
   68.0622   40.4336   56.8378 C   0  0  0  0  0  0  0  0  0  0  0  0
   67.6851   41.5717   56.1674 C   0  0  0  0  0  0  0  0  0  0  0  0
   66.6785   41.4636   55.2204 O   0  0  0  0  0  0  0  0  0  0  0  0
   68.2741   42.8243   56.4013 C   0  0  0  0  0  0  0  0  0  0  0  0
   67.8509   43.9719   55.6817 N   0  0  0  0  0  0  0  0  0  0  0  0
   67.8694   46.3805   55.0537 N   0  0  0  0  0  0  0  0  0  0  0  0
   67.6243   45.4904   52.4332 C   0  0  0  0  0  0  0  0  0  0  0  0
   68.5186   46.6320   52.7634 C   0  0  0  0  0  0  0  0  0  0  0  0
   69.2276   47.2345   51.7326 C   0  0  0  0  0  0  0  0  0  0  0  0
   70.0713   48.2951   51.9718 C   0  0  0  0  0  0  0  0  0  0  0  0
   70.1809   48.7304   53.2762 C   0  0  0  0  0  0  0  0  0  0  0  0
   69.4683   48.1173   54.2864 C   0  0  0  0  0  0  0  0  0  0  0  0
   68.6236   47.0620   54.0701 C   0  0  0  0  0  0  0  0  0  0  0  0
 16 17  1  0
 17 18  2  0
 17 22  1  0
 18 19  1  0
 19 20  2  0
 20 21  1  0
 21 22  2  0
 22 15  1  0
 15  1  1  0
  1  2  2  0
  1 14  1  0
  2  3  1  0
  3  4  2  0
  3  5  2  0
  3  6  1  0
  6  7  2  0
  6 13  1  0
  7  8  1  0
  8  9  1  0
  8 10  2  0
 10 11  1  0
 11 12  1  0
 11 13  2  0
 13 14  1  0
M  CHG  1   2   1
M  END
>  <minimizedAffinity>  (350) 
-8.68240

$$$$
data/200k_reference_output/data/smiles/74793.pdb
     RDKit          3D

 23 24  0  0  0  0  0  0  0  0999 V2000
   69.1400   45.5313   56.5483 C   0  0  0  0  0  0  0  0  0  0  0  0
   68.9467   44.3804   56.6781 N   0  0  0  0  0  0  0  0  0  0  0  0
   68.7483   43.0776   56.8357 C   0  0  0  0  0  0  0  0  0  0  0  0
   69.4782   42.2595   57.7175 C   0  0  0  0  0  0  0  0  0  0  0  0
   69.2815   40.9353   57.9175 C   0  0  0  0  0  0  0  0  0  0  0  0
   68.2693   40.3246   57.1876 C   0  0  0  0  0  0  0  0  0  0  0  0
   68.0554   39.0150   57.3639 F   0  0  0  0  0  0  0  0  0  0  0  0
   67.5149   41.0611   56.3069 C   0  0  0  0  0  0  0  0  0  0  0  0
   67.7396   42.3915   56.1288 C   0  0  0  0  0  0  0  0  0  0  0  0
   66.9506   43.0455   55.2212 F   0  0  0  0  0  0  0  0  0  0  0  0
   71.8139   47.0158   58.8220 C   0  0  0  0  0  0  0  0  0  0  0  0
   70.6501   46.2202   58.3571 C   0  0  0  0  0  0  0  0  0  0  0  0
   70.0168   45.5073   59.1421 O   0  0  0  0  0  0  0  0  0  0  0  0
   70.2844   46.2972   57.0018 N   0  0  0  0  0  0  0  0  0  0  0  0
   68.1508   46.3534   55.8602 N   0  0  0  0  0  0  0  0  0  0  0  0
   68.2305   46.4129   54.4531 C   0  0  0  0  0  0  0  0  0  0  0  0
   67.5722   45.6172   53.6180 N   0  0  0  0  0  0  0  0  0  0  0  0
   67.7426   45.8162   52.2898 C   0  0  0  0  0  0  0  0  0  0  0  0
   67.0510   44.9845   51.2621 C   0  0  0  0  0  0  0  0  0  0  0  0
   68.5709   46.8073   51.8041 C   0  0  0  0  0  0  0  0  0  0  0  0
   69.2509   47.6279   52.6866 C   0  0  0  0  0  0  0  0  0  0  0  0
   70.1453   48.7172   52.2265 C   0  0  0  0  0  0  0  0  0  0  0  0
   69.0523   47.3956   53.9787 N   0  0  0  0  0  0  0  0  0  0  0  0
 11 12  1  0
 12 13  2  0
 12 14  1  0
 14  1  1  0
  1  2  2  3
  1 15  1  0
  2  3  1  0
  3  4  2  0
  3  9  1  0
  4  5  1  0
  5  6  2  0
  6  7  1  0
  6  8  1  0
  8  9  2  0
  9 10  1  0
 15 16  1  0
 16 17  2  0
 16 23  1  0
 17 18  1  0
 18 19  1  0
 18 20  2  0
 20 21  1  0
 21 22  1  0
 21 23  2  0
M  CHG  1   2   1
M  END
>  <minimizedAffinity>  (351) 
-8.68230

$$$$
data/200k_reference_output/data/smiles/75356.pdb
     RDKit          3D

 23 24  0  0  0  0  0  0  0  0999 V2000
   69.4046   48.1376   54.7938 C   0  0  0  0  0  0  0  0  0  0  0  0
   68.7980   47.4310   53.6833 C   0  0  0  0  0  0  0  0  0  0  0  0
   69.0848   47.6960   52.3716 C   0  0  0  0  0  0  0  0  0  0  0  0
   68.4635   47.0440   51.3596 N   0  0  0  0  0  0  0  0  0  0  0  0
   67.5465   46.1164   51.6248 C   0  0  0  0  0  0  0  0  0  0  0  0
   66.9805   45.5220   50.6630 O   0  0  0  0  0  0  0  0  0  0  0  0
   67.2239   45.8118   52.9149 N   0  0  0  0  0  0  0  0  0  0  0  0
   67.8282   46.4470   53.9305 C   0  0  0  0  0  0  0  0  0  0  0  0
   67.4995   46.1352   55.0975 O   0  0  0  0  0  0  0  0  0  0  0  0
   70.0943   48.6747   52.0341 C   0  0  0  0  0  0  0  0  0  0  0  0
   71.2392   48.7744   52.5071 O   0  0  0  0  0  0  0  0  0  0  0  0
   69.7700   49.6420   51.0536 O   0  0  0  0  0  0  0  0  0  0  0  0
   68.7832   47.9027   56.1471 C   0  0  0  0  0  0  0  0  0  0  0  0
   71.7464   46.7102   59.0514 C   0  0  0  0  0  0  0  0  0  0  0  0
   71.0153   45.7827   58.3304 C   0  0  0  0  0  0  0  0  0  0  0  0
   70.0673   46.1481   57.4007 C   0  0  0  0  0  0  0  0  0  0  0  0
   69.8052   47.4789   57.1489 C   0  0  0  0  0  0  0  0  0  0  0  0
   70.5287   48.4116   57.8623 C   0  0  0  0  0  0  0  0  0  0  0  0
   71.4755   48.0357   58.7908 C   0  0  0  0  0  0  0  0  0  0  0  0
   72.9958   47.2599   61.1212 C   0  0  0  0  0  0  0  0  0  0  0  0
   72.7541   46.2404   60.0372 C   0  0  0  0  0  0  0  0  0  0  0  0
   72.2259   44.9703   60.6587 C   0  0  0  0  0  0  0  0  0  0  0  0
   74.0292   45.9271   59.2747 C   0  0  0  0  0  0  0  0  0  0  0  0
 20 21  1  0
 21 22  1  0
 21 23  1  0
 21 14  1  0
 14 15  2  0
 14 19  1  0
 15 16  1  0
 16 17  2  0
 17 13  1  0
 17 18  1  0
 13  1  1  0
  1  2  1  0
  2  3  2  0
  2  8  1  0
  3 10  1  0
  3  4  1  0
 10 11  2  0
 10 12  1  0
  4  5  1  0
  5  6  2  0
  5  7  1  0
  7  8  1  0
  8  9  2  0
 18 19  2  0
M  END
>  <minimizedAffinity>  (352) 
-8.68223

$$$$
data/reference_output_2/data/smiles/182449.pdb
     RDKit          3D

 26 29  0  0  0  0  0  0  0  0999 V2000
   67.8102   39.2566   57.2392 O   0  0  0  0  0  0  0  0  0  0  0  0
   68.3411   40.4064   57.2869 C   0  0  0  0  0  0  0  0  0  0  0  0
   67.7624   41.4759   56.4817 C   0  0  0  0  0  0  0  0  0  0  0  0
   68.4305   42.7525   56.5601 N   0  0  0  0  0  0  0  0  0  0  0  0
   68.1178   43.9042   55.9126 N   0  0  0  0  0  0  0  0  0  0  0  0
   68.9737   44.8753   56.2530 C   0  0  0  0  0  0  0  0  0  0  0  0
   69.8464   44.2919   57.1467 C   0  0  0  0  0  0  0  0  0  0  0  0
   69.4870   42.9525   57.3269 C   0  0  0  0  0  0  0  0  0  0  0  0
   70.0439   41.8777   58.1349 C   0  0  0  0  0  0  0  0  0  0  0  0
   71.0472   42.0770   58.8608 O   0  0  0  0  0  0  0  0  0  0  0  0
   69.4671   40.5695   58.1236 N   0  0  0  0  0  0  0  0  0  0  0  0
   68.9557   46.2424   55.7634 C   0  0  0  0  0  0  0  0  0  0  0  0
   68.6204   46.5047   54.4636 C   0  0  0  0  0  0  0  0  0  0  0  0
   68.6030   47.8254   53.9902 C   0  0  0  0  0  0  0  0  0  0  0  0
   68.9294   48.8471   54.8587 C   0  0  0  0  0  0  0  0  0  0  0  0
   69.2687   48.6036   56.1662 C   0  0  0  0  0  0  0  0  0  0  0  0
   69.2756   47.2773   56.6015 C   0  0  0  0  0  0  0  0  0  0  0  0
   69.9536   39.4557   58.8926 C   0  0  0  0  0  0  0  0  0  0  0  0
   71.2839   38.9896   58.3541 C   0  0  0  0  0  0  0  0  0  0  0  0
   71.4980   37.5404   58.4425 C   0  0  0  0  0  0  0  0  0  0  0  0
   72.3234   36.8482   57.5514 C   0  0  0  0  0  0  0  0  0  0  0  0
   72.5311   35.4923   57.6238 C   0  0  0  0  0  0  0  0  0  0  0  0
   71.9080   34.7561   58.6099 C   0  0  0  0  0  0  0  0  0  0  0  0
   72.0946   33.4062   58.7069 F   0  0  0  0  0  0  0  0  0  0  0  0
   71.0889   35.4211   59.4986 C   0  0  0  0  0  0  0  0  0  0  0  0
   70.8908   36.7789   59.4143 C   0  0  0  0  0  0  0  0  0  0  0  0
  1  2  2  0
  2  3  1  0
  2 11  1  0
  3  4  1  0
  4  5  1  0
  4  8  1  0
  5  6  2  0
  6 12  1  0
  6  7  1  0
 12 13  2  0
 12 17  1  0
 13 14  1  0
 14 15  2  0
 15 16  1  0
 16 17  2  0
  7  8  2  0
  8  9  1  0
  9 10  2  0
  9 11  1  0
 11 18  1  0
 18 19  1  0
 19 20  1  0
 20 21  2  0
 20 26  1  0
 21 22  1  0
 22 23  2  0
 23 24  1  0
 23 25  1  0
 25 26  2  0
M  END
>  <minimizedAffinity>  (353) 
-8.67949

$$$$
data/reference_output_2/data/smiles/162028.pdb
     RDKit          3D

 23 25  0  0  0  0  0  0  0  0999 V2000
   70.4586   49.5697   53.8693 N   0  0  0  0  0  0  0  0  0  0  0  0
   70.0281   48.8769   52.7083 C   0  0  0  0  0  0  0  0  0  0  0  0
   70.3593   49.2656   51.5366 O   0  0  0  0  0  0  0  0  0  0  0  0
   69.1924   47.6914   52.7491 C   0  0  0  0  0  0  0  0  0  0  0  0
   68.7877   47.0348   51.5995 C   0  0  0  0  0  0  0  0  0  0  0  0
   67.9938   45.9153   51.7257 C   0  0  0  0  0  0  0  0  0  0  0  0
   67.5925   45.4304   52.9524 C   0  0  0  0  0  0  0  0  0  0  0  0
   67.9963   46.0842   54.0932 C   0  0  0  0  0  0  0  0  0  0  0  0
   68.8044   47.2265   53.9887 C   0  0  0  0  0  0  0  0  0  0  0  0
   69.2393   47.9237   55.1254 N   0  0  0  0  0  0  0  0  0  0  0  0
   70.0596   49.1050   55.1652 C   0  0  2  0  0  0  0  0  0  0  0  0
   69.3268   50.0876   55.9920 C   0  0  0  0  0  0  0  0  0  0  0  0
   68.3638   49.6311   56.8545 C   0  0  0  0  0  0  0  0  0  0  0  0
   67.6568   50.5209   57.6334 C   0  0  0  0  0  0  0  0  0  0  0  0
   67.9363   51.8741   57.5296 C   0  0  0  0  0  0  0  0  0  0  0  0
   68.9040   52.3362   56.6640 C   0  0  0  0  0  0  0  0  0  0  0  0
   69.1293   53.7092   56.6128 O   0  0  0  0  0  0  0  0  0  0  0  0
   69.5826   51.4288   55.9094 C   0  0  0  0  0  0  0  0  0  0  0  0
   71.2759   50.6573   53.7095 N   0  0  0  0  0  0  0  0  0  0  0  0
   73.3482   52.3016   54.8747 C   0  0  0  0  0  0  0  0  0  0  0  0
   72.7838   50.6396   54.4675 S   0  0  0  0  0  0  0  0  0  0  0  0
   72.9139   49.8417   55.6973 O   0  0  0  0  0  0  0  0  0  0  0  0
   73.7989   50.1417   53.4422 O   0  0  0  0  0  0  0  0  0  0  0  0
 20 21  1  0
 21 22  2  0
 21 23  2  0
 21 19  1  0
 19  1  1  0
  1  2  1  0
  1 11  1  0
  2  3  2  0
  2  4  1  0
  4  5  1  0
  4  9  2  0
  5  6  2  0
  6  7  1  0
  7  8  2  0
  8  9  1  0
  9 10  1  0
 10 11  1  0
 11 12  1  6
 12 13  2  0
 12 18  1  0
 13 14  1  0
 14 15  2  0
 15 16  1  0
 16 17  1  0
 16 18  2  0
M  END
>  <minimizedAffinity>  (354) 
-8.67945

$$$$
data/reference_output_2/data/smiles/112784.pdb
     RDKit          3D

 24 27  0  0  0  0  0  0  0  0999 V2000
   70.4864   45.6022   58.1158 C   0  0  0  0  0  0  0  0  0  0  0  0
   69.8376   46.4717   57.2628 C   0  0  0  0  0  0  0  0  0  0  0  0
   70.1372   47.7858   57.1113 C   0  0  0  0  0  0  0  0  0  0  0  0
   71.1956   48.2752   57.8968 C   0  0  0  0  0  0  0  0  0  0  0  0
   71.8724   47.4465   58.7622 C   0  0  0  0  0  0  0  0  0  0  0  0
   71.5271   46.1176   58.8778 C   0  0  0  0  0  0  0  0  0  0  0  0
   72.2067   45.3101   59.7384 F   0  0  0  0  0  0  0  0  0  0  0  0
   68.9998   43.5361   60.3574 O   0  0  0  0  0  0  0  0  0  0  0  0
   69.6923   43.4130   59.3050 C   0  0  0  0  0  0  0  0  0  0  0  0
   70.4433   42.2965   58.6244 C   0  0  0  0  0  0  0  0  0  0  0  0
   70.0131   43.0679   57.3812 C   0  0  0  0  0  0  0  0  0  0  0  0
   70.1222   44.2342   58.2292 N   0  0  0  0  0  0  0  0  0  0  0  0
   69.4424   48.7321   56.2115 C   0  0  0  0  0  0  0  0  0  0  0  0
   69.7240   48.5362   54.7840 C   0  0  0  0  0  0  0  0  0  0  0  0
   70.7655   49.2144   54.2060 N   0  0  0  0  0  0  0  0  0  0  0  0
   71.0666   49.1271   52.9292 N   0  0  0  0  0  0  0  0  0  0  0  0
   70.3244   48.3349   52.1386 C   0  0  0  0  0  0  0  0  0  0  0  0
   70.5932   48.2369   50.9142 O   0  0  0  0  0  0  0  0  0  0  0  0
   69.2461   47.6183   52.6817 C   0  0  0  0  0  0  0  0  0  0  0  0
   68.9367   47.7128   54.0177 C   0  0  0  0  0  0  0  0  0  0  0  0
   67.8106   46.9046   54.5434 C   0  0  0  0  0  0  0  0  0  0  0  0
   67.8291   45.5327   53.8873 C   0  0  0  0  0  0  0  0  0  0  0  0
   67.8203   45.5952   52.4042 C   0  0  0  0  0  0  0  0  0  0  0  0
   68.4454   46.7802   51.7734 C   0  0  0  0  0  0  0  0  0  0  0  0
  8  9  2  0
  9 10  1  0
  9 12  1  0
 10 11  1  0
 11 12  1  0
 12  1  1  0
  1  2  2  0
  1  6  1  0
  2  3  1  0
  3 13  1  0
  3  4  2  0
 13 14  1  0
 14 15  2  0
 14 20  1  0
 15 16  1  0
 16 17  1  0
 17 18  2  0
 17 19  1  0
 19 20  2  0
 19 24  1  0
 20 21  1  0
 21 22  1  0
 22 23  1  0
 23 24  1  0
  4  5  1  0
  5  6  2  0
  6  7  1  0
M  END
>  <minimizedAffinity>  (355) 
-8.67941

$$$$
data/200k_reference_output/data/smiles/27843.pdb
     RDKit          3D

 24 26  0  0  0  0  0  0  0  0999 V2000
   69.3857   47.9526   56.0626 C   0  0  1  0  0  0  0  0  0  0  0  0
   71.5989   46.1348   59.8966 O   0  0  0  0  0  0  0  0  0  0  0  0
   70.8880   45.9501   58.8833 C   0  0  0  0  0  0  0  0  0  0  0  0
   70.4226   44.6996   58.5427 C   0  0  0  0  0  0  0  0  0  0  0  0
   69.6507   44.5466   57.4297 C   0  0  0  0  0  0  0  0  0  0  0  0
   69.3568   45.5816   56.6938 O   0  0  0  0  0  0  0  0  0  0  0  0
   69.7433   46.7919   56.9290 C   0  0  0  0  0  0  0  0  0  0  0  0
   70.5263   47.0124   58.0389 C   0  0  0  0  0  0  0  0  0  0  0  0
   70.9586   48.2893   58.3218 O   0  0  0  0  0  0  0  0  0  0  0  0
   69.1415   43.1953   57.0548 C   0  0  0  0  0  0  0  0  0  0  0  0
   67.8855   43.3107   56.4560 O   0  0  0  0  0  0  0  0  0  0  0  0
   69.0409   47.5331   54.6981 C   0  0  0  0  0  0  0  0  0  0  0  0
   69.6329   48.2180   53.6330 C   0  0  0  0  0  0  0  0  0  0  0  0
   69.3249   47.8687   52.3279 C   0  0  0  0  0  0  0  0  0  0  0  0
   68.4267   46.8395   52.0507 C   0  0  0  0  0  0  0  0  0  0  0  0
   68.1470   46.5231   50.7249 O   0  0  0  0  0  0  0  0  0  0  0  0
   67.8461   46.1679   53.1053 C   0  0  0  0  0  0  0  0  0  0  0  0
   68.1694   46.5337   54.4218 C   0  0  0  0  0  0  0  0  0  0  0  0
   68.4314   48.8580   56.7107 C   0  0  0  0  0  0  0  0  0  0  0  0
   67.3598   48.4335   57.4747 C   0  0  0  0  0  0  0  0  0  0  0  0
   66.4750   49.3158   58.0574 C   0  0  0  0  0  0  0  0  0  0  0  0
   66.6430   50.6763   57.8864 C   0  0  0  0  0  0  0  0  0  0  0  0
   67.7050   51.1386   57.1273 C   0  0  0  0  0  0  0  0  0  0  0  0
   68.5773   50.2213   56.5554 C   0  0  0  0  0  0  0  0  0  0  0  0
  2  3  2  0
  3  4  1  0
  3  8  1  0
  4  5  2  0
  5 10  1  0
  5  6  1  0
 10 11  1  0
  6  7  1  0
  1  7  1  1
  7  8  2  0
  1 19  1  0
  1 12  1  0
 19 20  2  0
 19 24  1  0
 20 21  1  0
 21 22  2  0
 22 23  1  0
 23 24  2  0
 12 13  2  0
 12 18  1  0
 13 14  1  0
 14 15  2  0
 15 16  1  0
 15 17  1  0
 17 18  2  0
  8  9  1  0
M  END
>  <minimizedAffinity>  (356) 
-8.67869

$$$$
data/200k_reference_output/data/smiles/64871.pdb
     RDKit          3D

 23 25  0  0  0  0  0  0  0  0999 V2000
   68.9817   47.4974   56.4669 O   0  0  0  0  0  0  0  0  0  0  0  0
   69.2938   47.9566   55.2057 C   0  0  0  0  0  0  0  0  0  0  0  0
   70.0629   49.0818   54.9818 C   0  0  0  0  0  0  0  0  0  0  0  0
   70.3277   49.4708   53.6884 C   0  0  0  0  0  0  0  0  0  0  0  0
   71.0264   50.4936   53.4223 O   0  0  0  0  0  0  0  0  0  0  0  0
   69.8590   48.7870   52.6586 O   0  0  0  0  0  0  0  0  0  0  0  0
   69.1203   47.7055   52.7984 C   0  0  0  0  0  0  0  0  0  0  0  0
   68.6460   47.0146   51.6840 C   0  0  0  0  0  0  0  0  0  0  0  0
   67.8730   45.8823   51.8464 C   0  0  0  0  0  0  0  0  0  0  0  0
   67.5822   45.4546   53.1247 C   0  0  0  0  0  0  0  0  0  0  0  0
   68.0586   46.1499   54.2161 C   0  0  0  0  0  0  0  0  0  0  0  0
   68.8404   47.2940   54.0831 C   0  0  0  0  0  0  0  0  0  0  0  0
   69.9490   47.0146   57.3768 C   0  0  0  0  0  0  0  0  0  0  0  0
   69.8823   45.2594   58.9180 O   0  0  0  0  0  0  0  0  0  0  0  0
   69.7125   45.5899   57.7295 C   0  0  0  0  0  0  0  0  0  0  0  0
   69.3154   44.6633   56.7659 N   0  0  0  0  0  0  0  0  0  0  0  0
   69.0603   43.3025   56.9593 C   0  0  0  0  0  0  0  0  0  0  0  0
   67.9528   42.7366   56.2961 C   0  0  0  0  0  0  0  0  0  0  0  0
   67.6278   41.4106   56.4279 C   0  0  0  0  0  0  0  0  0  0  0  0
   68.3784   40.5708   57.2228 C   0  0  0  0  0  0  0  0  0  0  0  0
   68.0235   39.2759   57.3229 F   0  0  0  0  0  0  0  0  0  0  0  0
   69.4578   41.1209   57.8693 C   0  0  0  0  0  0  0  0  0  0  0  0
   69.7928   42.4636   57.7405 C   0  0  0  0  0  0  0  0  0  0  0  0
 14 15  2  0
 15 13  1  0
 15 16  1  0
 13  1  1  0
  1  2  1  0
  2  3  2  0
  2 12  1  0
  3  4  1  0
  4  5  2  0
  4  6  1  0
  6  7  1  0
  7  8  1  0
  7 12  2  0
  8  9  2  0
  9 10  1  0
 10 11  2  0
 11 12  1  0
 16 17  1  0
 17 18  2  0
 17 23  1  0
 18 19  1  0
 19 20  2  0
 20 21  1  0
 20 22  1  0
 22 23  2  0
M  END
>  <minimizedAffinity>  (357) 
-8.67807

$$$$
data/reference_output_2/data/smiles/124765.pdb
     RDKit          3D

 21 23  0  0  0  0  0  0  0  0999 V2000
   70.8004   51.6641   54.4025 C   0  0  0  0  0  0  0  0  0  0  0  0
   69.9721   50.4641   54.3744 N   0  0  0  0  0  0  0  0  0  0  0  0
   69.1560   50.3131   55.5313 C   0  0  0  0  0  0  0  0  0  0  0  0
   68.9179   51.5372   56.1616 C   0  0  0  0  0  0  0  0  0  0  0  0
   68.1392   51.6111   57.3105 C   0  0  0  0  0  0  0  0  0  0  0  0
   67.5842   50.4683   57.8502 C   0  0  0  0  0  0  0  0  0  0  0  0
   67.8301   49.2779   57.2151 C   0  0  0  0  0  0  0  0  0  0  0  0
   68.5987   49.1826   56.0783 C   0  0  0  0  0  0  0  0  0  0  0  0
   68.7092   47.8197   55.6122 N   0  0  0  0  0  0  0  0  0  0  0  0
   68.9110   46.8722   56.6232 C   0  0  0  0  0  0  0  0  0  0  0  0
   69.0980   45.4914   56.2602 N   0  0  0  0  0  0  0  0  0  0  0  0
   68.9525   47.1480   57.8620 O   0  0  0  0  0  0  0  0  0  0  0  0
   68.6428   47.4086   54.2577 C   0  0  0  0  0  0  0  0  0  0  0  0
   67.9226   46.2478   54.1390 C   0  0  0  0  0  0  0  0  0  0  0  0
   67.7593   45.6671   52.9033 C   0  0  0  0  0  0  0  0  0  0  0  0
   68.3103   46.2317   51.7555 C   0  0  0  0  0  0  0  0  0  0  0  0
   69.0317   47.3994   51.8781 C   0  0  0  0  0  0  0  0  0  0  0  0
   69.1963   47.9831   53.1166 C   0  0  0  0  0  0  0  0  0  0  0  0
   70.1064   49.4425   52.9931 S   0  0  0  0  0  0  0  0  0  0  0  0
   71.5733   49.0548   52.8615 O   0  0  0  0  0  0  0  0  0  0  0  0
   69.7422   50.2651   51.7840 O   0  0  0  0  0  0  0  0  0  0  0  0
  1  2  1  0
  2  3  1  0
  2 19  1  0
  3  4  2  0
  3  8  1  0
  4  5  1  0
  5  6  2  0
  6  7  1  0
  7  8  2  0
  8  9  1  0
  9 10  1  0
  9 13  1  0
 10 11  1  0
 10 12  2  0
 13 14  2  0
 13 18  1  0
 14 15  1  0
 15 16  2  0
 16 17  1  0
 17 18  2  0
 18 19  1  0
 19 20  2  0
 19 21  2  0
M  END
>  <minimizedAffinity>  (358) 
-8.67719

$$$$
data/200k_reference_output/data/smiles/13195.pdb
     RDKit          3D

 24 26  0  0  0  0  0  0  0  0999 V2000
   69.2262   49.3030   54.1046 C   0  0  2  0  0  0  0  0  0  0  0  0
   69.1961   50.2501   55.2845 C   0  0  0  0  0  0  0  0  0  0  0  0
   69.7926   49.9145   56.4870 C   0  0  0  0  0  0  0  0  0  0  0  0
   69.7218   50.8386   57.5213 C   0  0  0  0  0  0  0  0  0  0  0  0
   69.0830   52.0554   57.3733 C   0  0  0  0  0  0  0  0  0  0  0  0
   68.4997   52.3583   56.1617 C   0  0  0  0  0  0  0  0  0  0  0  0
   68.5534   51.4566   55.1096 C   0  0  0  0  0  0  0  0  0  0  0  0
   67.9865   51.7298   53.9039 F   0  0  0  0  0  0  0  0  0  0  0  0
   68.9654   47.9171   54.5658 C   0  0  0  0  0  0  0  0  0  0  0  0
   68.4059   46.9674   53.7086 C   0  0  0  0  0  0  0  0  0  0  0  0
   68.1738   45.6725   54.1282 C   0  0  0  0  0  0  0  0  0  0  0  0
   68.4724   45.2372   55.4001 C   0  0  0  0  0  0  0  0  0  0  0  0
   69.0295   46.1875   56.2517 C   0  0  0  0  0  0  0  0  0  0  0  0
   69.2641   47.4821   55.8367 C   0  0  0  0  0  0  0  0  0  0  0  0
   68.2347   43.8736   55.8615 C   0  0  0  0  0  0  0  0  0  0  0  0
   69.0163   43.1872   56.7497 C   0  0  0  0  0  0  0  0  0  0  0  0
   68.7223   41.8902   57.1404 C   0  0  0  0  0  0  0  0  0  0  0  0
   67.6070   41.2716   56.6190 C   0  0  0  0  0  0  0  0  0  0  0  0
   66.8635   41.9762   55.7497 N   0  0  0  0  0  0  0  0  0  0  0  0
   67.1599   43.2137   55.3879 N   0  0  0  0  0  0  0  0  0  0  0  0
   70.8382   49.0698   52.3244 O   0  0  0  0  0  0  0  0  0  0  0  0
   70.5839   49.4464   53.4906 C   0  0  0  0  0  0  0  0  0  0  0  0
   71.6336   50.0283   54.2426 N   0  0  0  0  0  0  0  0  0  0  0  0
   72.8657   50.1556   53.6819 O   0  0  0  0  0  0  0  0  0  0  0  0
 21 22  2  0
 22 23  1  0
  1 22  1  1
 23 24  1  0
  1  9  1  0
  1  2  1  0
  9 10  2  0
  9 14  1  0
 10 11  1  0
 11 12  2  0
 12 15  1  0
 12 13  1  0
 15 16  2  0
 15 20  1  0
 16 17  1  0
 17 18  2  0
 18 19  1  0
 19 20  2  0
 13 14  2  0
  2  3  2  0
  2  7  1  0
  3  4  1  0
  4  5  2  0
  5  6  1  0
  6  7  2  0
  7  8  1  0
M  END
>  <minimizedAffinity>  (359) 
-8.67671

$$$$
data/reference_output_2/data/smiles/160848.pdb
     RDKit          3D

 26 29  0  0  0  0  0  0  0  0999 V2000
   69.0645   43.9377   56.7377 O   0  0  0  0  0  0  0  0  0  0  0  0
   68.1600   43.6333   55.9370 C   0  0  0  0  0  0  0  0  0  0  0  0
   67.5562   42.3217   56.0353 N   0  0  0  0  0  0  0  0  0  0  0  0
   67.7700   44.5699   54.9804 N   0  0  0  0  0  0  0  0  0  0  0  0
   68.2603   45.8728   54.7650 C   0  0  0  0  0  0  0  0  0  0  0  0
   68.4318   46.8335   55.7184 C   0  0  0  0  0  0  0  0  0  0  0  0
   68.9294   48.1168   55.4227 C   0  0  0  0  0  0  0  0  0  0  0  0
   69.2693   48.4638   54.1409 C   0  0  0  0  0  0  0  0  0  0  0  0
   69.7615   49.7106   53.8068 C   0  0  0  0  0  0  0  0  0  0  0  0
   70.0870   50.0204   52.5379 N   0  0  0  0  0  0  0  0  0  0  0  0
   69.9351   49.1036   51.5577 C   0  0  0  0  0  0  0  0  0  0  0  0
   69.4477   47.8597   51.8731 C   0  0  0  0  0  0  0  0  0  0  0  0
   69.0986   47.4981   53.1734 C   0  0  0  0  0  0  0  0  0  0  0  0
   68.6127   46.2421   53.4573 C   0  0  0  0  0  0  0  0  0  0  0  0
   67.9840   41.3821   57.0327 C   0  0  0  0  0  0  0  0  0  0  0  0
   67.2405   41.3060   58.2778 C   0  0  0  0  0  0  0  0  0  0  0  0
   66.5025   42.3604   58.5037 O   0  0  0  0  0  0  0  0  0  0  0  0
   67.1611   40.3339   59.2746 N   0  0  0  0  0  0  0  0  0  0  0  0
   66.2334   40.4101   60.4648 C   0  0  0  0  0  0  0  0  0  0  0  0
   65.6805   39.0146   60.3491 C   0  0  0  0  0  0  0  0  0  0  0  0
   64.4557   38.4760   60.6714 C   0  0  0  0  0  0  0  0  0  0  0  0
   64.1878   37.1390   60.4545 C   0  0  0  0  0  0  0  0  0  0  0  0
   65.1503   36.3210   59.9077 C   0  0  0  0  0  0  0  0  0  0  0  0
   66.3621   36.8816   59.5949 C   0  0  0  0  0  0  0  0  0  0  0  0
   66.6545   38.1984   59.7983 C   0  0  0  0  0  0  0  0  0  0  0  0
   67.8403   39.0974   59.5846 C   0  0  0  0  0  0  0  0  0  0  0  0
  1  2  2  0
  2  3  1  0
  2  4  1  0
  3 15  1  0
 15 16  1  0
 16 17  2  0
 16 18  1  0
 18 19  1  0
 18 26  1  0
 19 20  1  0
 20 21  1  0
 20 25  2  0
 21 22  2  0
 22 23  1  0
 23 24  2  0
 24 25  1  0
 25 26  1  0
  4  5  1  0
  5  6  2  0
  5 14  1  0
  6  7  1  0
  7  8  2  0
  8  9  1  0
  8 13  1  0
  9 10  2  0
 10 11  1  0
 11 12  2  0
 12 13  1  0
 13 14  2  0
M  END
>  <minimizedAffinity>  (360) 
-8.67327

$$$$
data/200k_reference_output/data/smiles/53376.pdb
     RDKit          3D

 24 27  0  0  0  0  0  0  0  0999 V2000
   69.9370   43.9611   58.1589 C   0  0  0  0  0  0  0  0  0  0  0  0
   70.0812   44.8050   59.1964 N   0  0  0  0  0  0  0  0  0  0  0  0
   69.9603   46.0597   58.7772 N   0  0  0  0  0  0  0  0  0  0  0  0
   69.7340   46.0548   57.4504 C   0  0  0  0  0  0  0  0  0  0  0  0
   69.7255   44.7556   57.1035 N   0  0  0  0  0  0  0  0  0  0  0  0
   72.3545   42.6030   58.5114 O   0  0  0  0  0  0  0  0  0  0  0  0
   71.2013   41.8401   58.4015 C   0  0  0  0  0  0  0  0  0  0  0  0
   70.0062   42.5039   58.2280 C   0  0  0  0  0  0  0  0  0  0  0  0
   68.8953   41.7547   58.1229 N   0  0  0  0  0  0  0  0  0  0  0  0
   68.9239   40.4002   58.1835 C   0  0  0  0  0  0  0  0  0  0  0  0
   70.1003   39.7008   58.3572 C   0  0  0  0  0  0  0  0  0  0  0  0
   70.1361   38.3167   58.4188 C   0  0  0  0  0  0  0  0  0  0  0  0
   71.3421   37.6632   58.5943 C   0  0  0  0  0  0  0  0  0  0  0  0
   72.4717   38.4479   58.6992 C   0  0  0  0  0  0  0  0  0  0  0  0
   72.4235   39.7997   58.6366 N   0  0  0  0  0  0  0  0  0  0  0  0
   71.2568   40.4457   58.4667 C   0  0  0  0  0  0  0  0  0  0  0  0
   69.5410   47.2406   56.5883 C   0  0  0  0  0  0  0  0  0  0  0  0
   68.2628   47.1918   55.8005 C   0  0  0  0  0  0  0  0  0  0  0  0
   68.4518   47.0792   54.3580 C   0  0  0  0  0  0  0  0  0  0  0  0
   67.7980   46.0902   53.6716 C   0  0  0  0  0  0  0  0  0  0  0  0
   67.9489   45.9476   52.3097 C   0  0  0  0  0  0  0  0  0  0  0  0
   68.7731   46.8196   51.6334 C   0  0  0  0  0  0  0  0  0  0  0  0
   69.4311   47.8157   52.3218 C   0  0  0  0  0  0  0  0  0  0  0  0
   69.2703   47.9445   53.6829 C   0  0  0  0  0  0  0  0  0  0  0  0
  6  7  1  0
  7  8  2  0
  7 16  1  0
  8  1  1  0
  8  9  1  0
  1  2  2  0
  1  5  1  0
  2  3  1  0
  3  4  2  0
  4 17  1  0
  4  5  1  0
 17 18  1  0
 18 19  1  0
 19 20  2  0
 19 24  1  0
 20 21  1  0
 21 22  2  0
 22 23  1  0
 23 24  2  0
  9 10  2  0
 10 11  1  0
 11 12  1  0
 11 16  2  0
 12 13  2  0
 13 14  1  0
 14 15  2  0
 15 16  1  0
M  END
>  <minimizedAffinity>  (361) 
-8.67233

$$$$
data/200k_reference_output/data/smiles/64867.pdb
     RDKit          3D

 25 28  0  0  0  0  0  0  0  0999 V2000
   70.6162   38.8089   58.4215 C   0  0  0  0  0  0  0  0  0  0  0  0
   71.3112   40.0002   58.3927 C   0  0  0  0  0  0  0  0  0  0  0  0
   70.4538   41.0341   58.3932 N   0  0  0  0  0  0  0  0  0  0  0  0
   69.2127   40.5200   58.4211 C   0  0  0  0  0  0  0  0  0  0  0  0
   69.3225   39.1580   58.4377 N   0  0  0  0  0  0  0  0  0  0  0  0
   68.0302   41.4129   58.4313 C   0  0  0  0  0  0  0  0  0  0  0  0
   68.2639   42.7045   58.0542 O   0  0  0  0  0  0  0  0  0  0  0  0
   69.4529   42.8792   57.3710 C   0  0  2  0  0  0  0  0  0  0  0  0
   70.5405   42.4844   58.3674 C   0  0  0  0  0  0  0  0  0  0  0  0
   72.9371   33.5343   58.4557 C   0  0  0  0  0  0  0  0  0  0  0  0
   72.3254   34.8917   58.4628 C   0  0  0  0  0  0  0  0  0  0  0  0
   71.3611   35.2553   59.3806 C   0  0  0  0  0  0  0  0  0  0  0  0
   70.8116   36.5335   59.3578 C   0  0  0  0  0  0  0  0  0  0  0  0
   71.2045   37.4748   58.4284 C   0  0  0  0  0  0  0  0  0  0  0  0
   72.1646   37.1103   57.5150 C   0  0  0  0  0  0  0  0  0  0  0  0
   72.7102   35.8500   57.5337 C   0  0  0  0  0  0  0  0  0  0  0  0
   69.5991   44.3051   56.9182 C   0  0  0  0  0  0  0  0  0  0  0  0
   68.5197   44.7643   56.1125 N   0  0  0  0  0  0  0  0  0  0  0  0
   68.6239   46.1596   55.7418 C   0  0  0  0  0  0  0  0  0  0  0  0
   68.4677   46.2999   54.2707 C   0  0  0  0  0  0  0  0  0  0  0  0
   67.7037   45.4300   53.5179 C   0  0  0  0  0  0  0  0  0  0  0  0
   67.5780   45.5907   52.1368 C   0  0  0  0  0  0  0  0  0  0  0  0
   68.2241   46.6341   51.5064 C   0  0  0  0  0  0  0  0  0  0  0  0
   68.9618   47.4693   52.2588 N   0  0  0  0  0  0  0  0  0  0  0  0
   69.0926   47.3252   53.5920 C   0  0  0  0  0  0  0  0  0  0  0  0
 10 11  1  0
 11 12  2  0
 11 16  1  0
 12 13  1  0
 13 14  2  0
 14  1  1  0
 14 15  1  0
  1  2  2  0
  1  5  1  0
  2  3  1  0
  3  4  1  0
  3  9  1  0
  4  5  2  0
  4  6  1  0
  6  7  1  0
  7  8  1  0
  8 17  1  1
  8  9  1  0
 17 18  1  0
 18 19  1  0
 19 20  1  0
 20 21  2  0
 20 25  1  0
 21 22  1  0
 22 23  2  0
 23 24  1  0
 24 25  2  0
 15 16  2  0
M  CHG  1  18   1
M  END
>  <minimizedAffinity>  (362) 
-8.67183

$$$$
data/200k_reference_output/data/smiles/6218.pdb
     RDKit          3D

 25 29  0  0  0  0  0  0  0  0999 V2000
   70.9107   51.2563   58.9319 O   0  0  0  0  0  0  0  0  0  0  0  0
   71.1330   51.3156   57.7147 C   0  0  0  0  0  0  0  0  0  0  0  0
   71.9472   52.3126   57.2206 C   0  0  0  0  0  0  0  0  0  0  0  0
   72.5276   53.2605   58.0639 C   0  0  0  0  0  0  0  0  0  0  0  0
   73.3376   54.2481   57.5476 C   0  0  0  0  0  0  0  0  0  0  0  0
   73.5950   54.3259   56.1932 C   0  0  0  0  0  0  0  0  0  0  0  0
   73.0121   53.3798   55.3826 C   0  0  0  0  0  0  0  0  0  0  0  0
   72.1967   52.3786   55.8651 C   0  0  0  0  0  0  0  0  0  0  0  0
   71.6123   51.4258   55.0225 C   0  0  0  0  0  0  0  0  0  0  0  0
   71.8545   51.5117   53.8136 O   0  0  0  0  0  0  0  0  0  0  0  0
   70.8008   50.4314   55.5183 C   0  0  0  0  0  0  0  0  0  0  0  0
   70.5533   50.3681   56.8725 C   0  0  0  0  0  0  0  0  0  0  0  0
   69.7483   49.3241   57.0765 N   0  0  0  0  0  0  0  0  0  0  0  0
   69.4487   48.6911   55.9124 C   0  0  0  0  0  0  0  0  0  0  0  0
   68.6788   47.5935   55.6033 C   0  0  0  0  0  0  0  0  0  0  0  0
   68.0956   46.9903   56.5137 O   0  0  0  0  0  0  0  0  0  0  0  0
   68.5568   47.1677   54.2833 C   0  0  0  0  0  0  0  0  0  0  0  0
   67.7978   46.0809   53.9480 C   0  0  0  0  0  0  0  0  0  0  0  0
   67.6675   45.6475   52.6539 C   0  0  0  0  0  0  0  0  0  0  0  0
   68.3167   46.3225   51.6480 C   0  0  0  0  0  0  0  0  0  0  0  0
   69.0810   47.4158   51.9767 C   0  0  0  0  0  0  0  0  0  0  0  0
   69.2147   47.8530   53.2760 C   0  0  0  0  0  0  0  0  0  0  0  0
   69.9835   48.9539   53.6131 C   0  0  0  0  0  0  0  0  0  0  0  0
   70.5588   49.5460   52.6935 O   0  0  0  0  0  0  0  0  0  0  0  0
   70.1144   49.3896   54.9172 C   0  0  0  0  0  0  0  0  0  0  0  0
  1  2  2  0
  2  3  1  0
  2 12  1  0
  3  4  2  0
  3  8  1  0
  4  5  1  0
  5  6  2  0
  6  7  1  0
  7  8  2  0
  8  9  1  0
  9 10  2  0
  9 11  1  0
 11 12  2  0
 11 25  1  0
 12 13  1  0
 13 14  1  0
 14 15  1  0
 14 25  2  0
 15 16  2  0
 15 17  1  0
 17 18  1  0
 17 22  2  0
 18 19  2  0
 19 20  1  0
 20 21  2  0
 21 22  1  0
 22 23  1  0
 23 24  2  0
 23 25  1  0
M  END
>  <minimizedAffinity>  (363) 
-8.67154

$$$$
data/200k_reference_output/data/smiles/6477.pdb
     RDKit          3D

 26 29  0  0  0  0  0  0  0  0999 V2000
   69.6594   50.4395   57.4748 C   0  0  0  0  0  0  0  0  0  0  0  0
   68.6804   51.2159   57.9740 N   0  0  0  0  0  0  0  0  0  0  0  0
   68.3810   52.1802   57.0801 C   0  0  0  0  0  0  0  0  0  0  0  0
   69.2255   51.9636   55.9944 C   0  0  0  0  0  0  0  0  0  0  0  0
   70.0057   50.8950   56.2438 N   0  0  0  0  0  0  0  0  0  0  0  0
   71.5378   47.0429   59.1997 C   0  0  0  0  0  0  0  0  0  0  0  0
   71.9643   48.3247   59.4700 C   0  0  0  0  0  0  0  0  0  0  0  0
   71.3681   49.4383   58.9201 C   0  0  0  0  0  0  0  0  0  0  0  0
   70.3130   49.2747   58.0739 C   0  0  0  0  0  0  0  0  0  0  0  0
   69.8613   47.9995   57.7827 C   0  0  0  0  0  0  0  0  0  0  0  0
   70.4742   46.8889   58.3456 C   0  0  0  0  0  0  0  0  0  0  0  0
   71.4953   45.1259   60.5346 O   0  0  0  0  0  0  0  0  0  0  0  0
   72.1652   45.8680   59.7776 C   0  0  0  0  0  0  0  0  0  0  0  0
   73.4772   45.5194   59.5356 O   0  0  0  0  0  0  0  0  0  0  0  0
   71.0167   50.3501   55.3583 C   0  0  0  0  0  0  0  0  0  0  0  0
   70.4120   49.4193   54.3592 C   0  0  0  0  0  0  0  0  0  0  0  0
   69.5339   48.4664   54.7187 N   0  0  0  0  0  0  0  0  0  0  0  0
   68.9775   47.6167   53.8283 C   0  0  0  0  0  0  0  0  0  0  0  0
   68.0766   46.6396   54.1983 C   0  0  0  0  0  0  0  0  0  0  0  0
   67.5134   45.7752   53.2824 C   0  0  0  0  0  0  0  0  0  0  0  0
   67.8348   45.8586   51.9430 C   0  0  0  0  0  0  0  0  0  0  0  0
   68.7359   46.8375   51.5782 C   0  0  0  0  0  0  0  0  0  0  0  0
   69.3024   47.7043   52.4909 C   0  0  0  0  0  0  0  0  0  0  0  0
   70.2050   48.6862   52.1288 C   0  0  0  0  0  0  0  0  0  0  0  0
   70.5125   48.7787   50.9056 O   0  0  0  0  0  0  0  0  0  0  0  0
   70.7351   49.5119   53.0555 N   0  0  0  0  0  0  0  0  0  0  0  0
 12 13  2  0
 13 14  1  0
 13  6  1  0
  6  7  2  0
  6 11  1  0
  7  8  1  0
  8  9  2  0
  9  1  1  0
  9 10  1  0
  1  2  2  0
  1  5  1  0
  2  3  1  0
  3  4  2  0
  4  5  1  0
  5 15  1  0
 15 16  1  0
 16 17  2  0
 16 26  1  0
 17 18  1  0
 18 19  2  0
 18 23  1  0
 19 20  1  0
 20 21  2  0
 21 22  1  0
 22 23  2  0
 23 24  1  0
 24 25  2  0
 24 26  1  0
 10 11  2  0
M  END
>  <minimizedAffinity>  (364) 
-8.67144

$$$$
data/200k_reference_output/data/smiles/74002.pdb
     RDKit          3D

 23 25  0  0  0  0  0  0  0  0999 V2000
   70.4291   49.9856   56.0180 C   0  0  0  0  0  0  0  0  0  0  0  0
   69.9979   49.1774   54.8522 C   0  0  0  0  0  0  0  0  0  0  0  0
   70.4234   49.4445   53.5779 C   0  0  0  0  0  0  0  0  0  0  0  0
   70.0298   48.7018   52.4958 C   0  0  0  0  0  0  0  0  0  0  0  0
   70.4147   48.9359   51.3114 O   0  0  0  0  0  0  0  0  0  0  0  0
   69.1668   47.6455   52.7235 C   0  0  0  0  0  0  0  0  0  0  0  0
   68.7381   46.8690   51.6525 C   0  0  0  0  0  0  0  0  0  0  0  0
   67.8752   45.8333   51.9292 C   0  0  0  0  0  0  0  0  0  0  0  0
   67.4415   45.5576   53.2039 C   0  0  0  0  0  0  0  0  0  0  0  0
   67.8708   46.3314   54.2581 C   0  0  0  0  0  0  0  0  0  0  0  0
   68.7405   47.3861   54.0330 C   0  0  0  0  0  0  0  0  0  0  0  0
   69.1443   48.1325   55.0803 N   0  0  0  0  0  0  0  0  0  0  0  0
   68.7559   47.9037   56.4376 C   0  0  0  0  0  0  0  0  0  0  0  0
   69.5995   46.7630   56.9603 C   0  0  0  0  0  0  0  0  0  0  0  0
   70.6831   46.9678   57.5335 O   0  0  0  0  0  0  0  0  0  0  0  0
   69.1613   45.4205   56.8024 N   0  0  0  0  0  0  0  0  0  0  0  0
   69.8847   44.2691   57.2585 C   0  0  0  0  0  0  0  0  0  0  0  0
   69.1625   42.9952   57.1042 C   0  0  0  0  0  0  0  0  0  0  0  0
   69.5891   41.8928   57.8477 C   0  0  0  0  0  0  0  0  0  0  0  0
   68.9602   40.6750   57.7388 C   0  0  0  0  0  0  0  0  0  0  0  0
   67.8943   40.5574   56.8774 C   0  0  0  0  0  0  0  0  0  0  0  0
   67.4386   41.6200   56.1232 C   0  0  0  0  0  0  0  0  0  0  0  0
   68.1010   42.8388   56.2605 C   0  0  0  0  0  0  0  0  0  0  0  0
  1  2  1  0
  2  3  2  0
  2 12  1  0
  3  4  1  0
  4  5  2  0
  4  6  1  0
  6  7  1  0
  6 11  2  0
  7  8  2  0
  8  9  1  0
  9 10  2  0
 10 11  1  0
 11 12  1  0
 12 13  1  0
 13 14  1  0
 14 15  2  0
 14 16  1  0
 16 17  1  0
 17 18  1  0
 18 19  2  0
 18 23  1  0
 19 20  1  0
 20 21  2  0
 21 22  1  0
 22 23  2  0
M  END
>  <minimizedAffinity>  (365) 
-8.67083

$$$$
data/reference_output_2/data/smiles/145719.pdb
     RDKit          3D

 24 25  0  0  0  0  0  0  0  0999 V2000
   68.1049   46.2797   56.1277 O   0  0  0  0  0  0  0  0  0  0  0  0
   69.1281   47.8769   52.9165 C   0  0  0  0  0  0  0  0  0  0  0  0
   68.6757   46.9164   52.0426 C   0  0  0  0  0  0  0  0  0  0  0  0
   68.0369   45.7457   52.4765 C   0  0  0  0  0  0  0  0  0  0  0  0
   67.8553   45.5492   53.8289 C   0  0  0  0  0  0  0  0  0  0  0  0
   68.2925   46.4858   54.7462 C   0  0  0  0  0  0  0  0  0  0  0  0
   68.9126   47.6154   54.2761 C   0  0  0  0  0  0  0  0  0  0  0  0
   69.9110   50.1843   53.3485 N   0  0  0  0  0  0  0  0  0  0  0  0
   69.7881   49.0877   52.4825 C   0  0  0  0  0  0  0  0  0  0  0  0
   70.2589   49.1663   51.3223 O   0  0  0  0  0  0  0  0  0  0  0  0
   71.0382   52.0218   54.0876 C   0  0  0  0  0  0  0  0  0  0  0  0
   70.5156   51.3481   53.0094 O   0  0  0  0  0  0  0  0  0  0  0  0
   69.1780   45.7999   56.8875 C   0  0  0  0  0  0  0  0  0  0  0  0
   69.9442   46.7174   57.5742 C   0  0  0  0  0  0  0  0  0  0  0  0
   71.0214   46.3472   58.3501 C   0  0  0  0  0  0  0  0  0  0  0  0
   71.3132   45.0002   58.4182 C   0  0  0  0  0  0  0  0  0  0  0  0
   70.5488   44.0779   57.7319 C   0  0  0  0  0  0  0  0  0  0  0  0
   69.5001   44.5155   56.9861 N   0  0  0  0  0  0  0  0  0  0  0  0
   70.9046   42.6414   57.8383 C   0  0  0  0  0  0  0  0  0  0  0  0
   71.0318   42.2146   59.1292 F   0  0  0  0  0  0  0  0  0  0  0  0
   69.9701   41.8421   57.1834 F   0  0  0  0  0  0  0  0  0  0  0  0
   72.1089   42.4250   57.1958 F   0  0  0  0  0  0  0  0  0  0  0  0
   71.8559   47.3232   59.0951 C   0  0  0  0  0  0  0  0  0  0  0  0
   71.6253   47.1299   60.5017 N   0  0  0  0  0  0  0  0  0  0  0  0
 11 12  1  0
 12  8  1  0
  8  9  1  0
  9 10  2  0
  9  2  1  0
  2  3  2  0
  2  7  1  0
  3  4  1  0
  4  5  2  0
  5  6  1  0
  6  1  1  0
  6  7  2  0
  1 13  1  0
 13 14  2  0
 13 18  1  0
 14 15  1  0
 15 23  1  0
 15 16  2  0
 23 24  1  0
 16 17  1  0
 17 19  1  0
 17 18  2  0
 19 20  1  0
 19 21  1  0
 19 22  1  0
M  CHG  1  24   1
M  END
>  <minimizedAffinity>  (366) 
-8.67082

$$$$
data/200k_reference_output/data/smiles/70610.pdb
     RDKit          3D

 25 27  0  0  0  0  0  0  0  0999 V2000
   67.9815   42.3925   56.5397 C   0  0  0  0  0  0  0  0  0  0  0  0
   68.9811   41.9987   57.3091 C   0  0  0  0  0  0  0  0  0  0  0  0
   69.9131   43.0099   57.8129 C   0  0  0  0  0  0  0  0  0  0  0  0
   69.7051   44.2257   57.5294 O   0  0  0  0  0  0  0  0  0  0  0  0
   71.0001   42.5647   58.5994 N   0  0  0  0  0  0  0  0  0  0  0  0
   71.2167   41.1915   58.9120 C   0  0  0  0  0  0  0  0  0  0  0  0
   72.1990   40.8426   59.6171 O   0  0  0  0  0  0  0  0  0  0  0  0
   70.3341   40.1715   58.4425 N   0  0  0  0  0  0  0  0  0  0  0  0
   69.2356   40.6077   57.6503 C   0  0  0  0  0  0  0  0  0  0  0  0
   68.4600   39.7221   57.2354 O   0  0  0  0  0  0  0  0  0  0  0  0
   70.5923   38.8082   58.7472 C   0  0  0  0  0  0  0  0  0  0  0  0
   69.9595   38.1032   59.7394 C   0  0  0  0  0  0  0  0  0  0  0  0
   70.2150   36.7612   60.0162 C   0  0  0  0  0  0  0  0  0  0  0  0
   71.1458   36.0821   59.2712 C   0  0  0  0  0  0  0  0  0  0  0  0
   71.8036   36.7445   58.2683 C   0  0  0  0  0  0  0  0  0  0  0  0
   71.5401   38.0757   58.0062 C   0  0  0  0  0  0  0  0  0  0  0  0
   67.7465   43.7435   56.1641 N   0  0  0  0  0  0  0  0  0  0  0  0
   67.4376   44.1402   54.8554 N   0  0  0  0  0  0  0  0  0  0  0  0
   69.6584   48.8529   52.4100 C   0  0  0  0  0  0  0  0  0  0  0  0
   69.0722   47.6165   53.0371 C   0  0  0  0  0  0  0  0  0  0  0  0
   68.5195   46.6237   52.2735 C   0  0  0  0  0  0  0  0  0  0  0  0
   67.9786   45.4873   52.8723 C   0  0  0  0  0  0  0  0  0  0  0  0
   67.9677   45.3003   54.2367 C   0  0  0  0  0  0  0  0  0  0  0  0
   68.5447   46.3478   54.9917 C   0  0  0  0  0  0  0  0  0  0  0  0
   69.0782   47.4677   54.4026 C   0  0  0  0  0  0  0  0  0  0  0  0
 19 20  1  0
 20 21  2  0
 20 25  1  0
 21 22  1  0
 22 23  2  0
 23 18  1  0
 23 24  1  0
 18 17  1  0
 17  1  1  0
  1  2  2  0
  2  3  1  0
  2  9  1  0
  3  4  2  0
  3  5  1  0
  5  6  1  0
  6  7  2  0
  6  8  1  0
  8 11  1  0
  8  9  1  0
 11 12  2  0
 11 16  1  0
 12 13  1  0
 13 14  2  0
 14 15  1  0
 15 16  2  0
  9 10  2  0
 24 25  2  0
M  END
>  <minimizedAffinity>  (367) 
-8.66916

$$$$
data/200k_reference_output/data/smiles/66724.pdb
     RDKit          3D

 21 22  0  0  0  0  0  0  0  0999 V2000
   69.9658   49.2043   52.6448 P   0  0  0  0  0  0  0  0  0  0  0  0
   71.4473   48.9394   52.8223 O   0  0  0  0  0  0  0  0  0  0  0  0
   69.7520   49.9820   51.1676 O   0  0  0  0  0  0  0  0  0  0  0  0
   68.6802   50.5712   56.2032 C   0  0  0  0  0  0  0  0  0  0  0  0
   68.5269   51.9050   55.9854 C   0  0  0  0  0  0  0  0  0  0  0  0
   68.8091   52.4558   54.7409 C   0  0  0  0  0  0  0  0  0  0  0  0
   69.2490   51.6729   53.6967 C   0  0  0  0  0  0  0  0  0  0  0  0
   69.4001   50.3255   53.9269 C   0  0  0  0  0  0  0  0  0  0  0  0
   69.1186   49.7865   55.1611 C   0  0  0  0  0  0  0  0  0  0  0  0
   67.5067   49.1288   57.5898 O   0  0  0  0  0  0  0  0  0  0  0  0
   68.4047   49.9646   57.4559 N   0  0  0  0  0  0  0  0  0  0  0  0
   69.1665   50.3305   58.5325 O   0  0  0  0  0  0  0  0  0  0  0  0
   69.0514   47.6823   52.7295 C   0  0  0  0  0  0  0  0  0  0  0  0
   68.4351   47.0952   51.6464 C   0  0  0  0  0  0  0  0  0  0  0  0
   67.7319   45.9064   51.7598 C   0  0  0  0  0  0  0  0  0  0  0  0
   67.6401   45.2816   52.9855 C   0  0  0  0  0  0  0  0  0  0  0  0
   68.2464   45.8385   54.1073 C   0  0  0  0  0  0  0  0  0  0  0  0
   68.9383   47.0307   53.9378 C   0  0  0  0  0  0  0  0  0  0  0  0
   68.1670   45.2230   55.3633 N   0  0  0  0  0  0  0  0  0  0  0  0
   67.7666   44.0484   55.4383 O   0  0  0  0  0  0  0  0  0  0  0  0
   68.5154   45.8711   56.5095 O   0  0  0  0  0  0  0  0  0  0  0  0
 10 11  2  0
 11 12  1  0
 11  4  1  0
  4  5  2  0
  4  9  1  0
  5  6  1  0
  6  7  2  0
  7  8  1  0
  8  1  1  0
  8  9  2  0
  1  2  2  0
  1  3  1  0
  1 13  1  0
 13 14  2  0
 13 18  1  0
 14 15  1  0
 15 16  2  0
 16 17  1  0
 17 19  1  0
 17 18  2  0
 19 20  2  0
 19 21  1  0
M  CHG  4  11   1  12  -1  19   1  21  -1
M  END
>  <minimizedAffinity>  (368) 
-8.66903

$$$$
data/reference_output_2/data/smiles/163483.pdb
     RDKit          3D

 25 27  0  0  0  0  0  0  0  0999 V2000
   68.1503   43.8271   55.7765 C   0  0  0  0  0  0  0  0  0  0  0  0
   68.9874   43.2314   56.6756 C   0  0  0  0  0  0  0  0  0  0  0  0
   68.7712   41.9804   57.2553 C   0  0  0  0  0  0  0  0  0  0  0  0
   67.6566   41.3328   56.8916 N   0  0  0  0  0  0  0  0  0  0  0  0
   66.7948   41.8937   55.9962 C   0  0  0  0  0  0  0  0  0  0  0  0
   67.0337   43.0893   55.4633 N   0  0  0  0  0  0  0  0  0  0  0  0
   68.7506   46.2105   55.8375 C   0  0  0  0  0  0  0  0  0  0  0  0
   68.9077   47.4420   55.1902 C   0  0  0  0  0  0  0  0  0  0  0  0
   68.6252   47.5185   53.8512 C   0  0  0  0  0  0  0  0  0  0  0  0
   68.1964   46.4418   53.1217 C   0  0  0  0  0  0  0  0  0  0  0  0
   67.9389   46.5972   51.8077 F   0  0  0  0  0  0  0  0  0  0  0  0
   68.0473   45.2399   53.7766 C   0  0  0  0  0  0  0  0  0  0  0  0
   68.3269   45.1226   55.1448 C   0  0  0  0  0  0  0  0  0  0  0  0
   70.1578   46.8849   57.7105 C   0  0  0  0  0  0  0  0  0  0  0  0
   69.0539   46.2152   57.1809 O   0  0  0  0  0  0  0  0  0  0  0  0
   69.6809   41.4136   58.1856 N   0  0  0  0  0  0  0  0  0  0  0  0
   69.7494   40.0125   58.4019 C   0  0  0  0  0  0  0  0  0  0  0  0
   68.9597   39.2955   57.7248 O   0  0  0  0  0  0  0  0  0  0  0  0
   70.7118   39.4169   59.3873 C   0  0  0  0  0  0  0  0  0  0  0  0
   71.1425   38.0701   58.9707 C   0  0  0  0  0  0  0  0  0  0  0  0
   71.9625   37.8117   57.8952 C   0  0  0  0  0  0  0  0  0  0  0  0
   72.3617   36.5529   57.5095 C   0  0  0  0  0  0  0  0  0  0  0  0
   71.9339   35.5012   58.2140 N   0  0  0  0  0  0  0  0  0  0  0  0
   71.1338   35.7089   59.2680 C   0  0  0  0  0  0  0  0  0  0  0  0
   70.7117   36.9499   59.6863 C   0  0  0  0  0  0  0  0  0  0  0  0
 14 15  1  0
 15  7  1  0
  7  8  2  0
  7 13  1  0
  8  9  1  0
  9 10  2  0
 10 11  1  0
 10 12  1  0
 12 13  2  0
 13  1  1  0
  1  2  2  0
  1  6  1  0
  2  3  1  0
  3 16  1  0
  3  4  2  0
 16 17  1  0
 17 18  2  0
 17 19  1  0
 19 20  1  0
 20 21  2  0
 20 25  1  0
 21 22  1  0
 22 23  2  0
 23 24  1  0
 24 25  2  0
  4  5  1  0
  5  6  2  0
M  END
>  <minimizedAffinity>  (369) 
-8.66896

$$$$
data/reference_output_2/data/smiles/113931.pdb
     RDKit          3D

 25 27  0  0  0  0  0  0  0  0999 V2000
   69.5090   47.7194   56.3520 N   0  0  0  0  0  0  0  0  0  0  0  0
   70.0629   48.6824   55.6170 N   0  0  0  0  0  0  0  0  0  0  0  0
   69.9619   48.7517   54.2738 C   0  0  0  0  0  0  0  0  0  0  0  0
   69.2568   47.7980   53.5808 C   0  0  0  0  0  0  0  0  0  0  0  0
   69.1067   47.7993   52.2114 C   0  0  0  0  0  0  0  0  0  0  0  0
   68.3924   46.8263   51.5528 C   0  0  0  0  0  0  0  0  0  0  0  0
   67.8084   45.8180   52.2799 C   0  0  0  0  0  0  0  0  0  0  0  0
   67.9518   45.8006   53.6758 C   0  0  0  0  0  0  0  0  0  0  0  0
   68.6763   46.7931   54.3155 C   0  0  0  0  0  0  0  0  0  0  0  0
   68.8199   46.7779   55.7120 C   0  0  0  0  0  0  0  0  0  0  0  0
   68.2605   45.8205   56.2835 O   0  0  0  0  0  0  0  0  0  0  0  0
   70.6178   49.8606   53.5946 C   0  0  0  0  0  0  0  0  0  0  0  0
   70.0896   50.7692   52.9422 O   0  0  0  0  0  0  0  0  0  0  0  0
   72.0297   49.9466   53.6629 O   0  0  0  0  0  0  0  0  0  0  0  0
   69.6357   47.7491   57.7848 C   0  0  0  0  0  0  0  0  0  0  0  0
   70.4044   48.8420   58.3842 C   0  0  0  0  0  0  0  0  0  0  0  0
   70.0903   50.1345   58.4254 O   0  0  0  0  0  0  0  0  0  0  0  0
   67.6382   50.9415   57.3053 C   0  0  0  0  0  0  0  0  0  0  0  0
   68.9171   51.7035   57.0930 C   0  0  0  0  0  0  0  0  0  0  0  0
   68.9408   52.8625   56.3576 C   0  0  0  0  0  0  0  0  0  0  0  0
   70.1135   53.5870   56.2385 C   0  0  0  0  0  0  0  0  0  0  0  0
   71.2810   53.1547   56.8593 C   0  0  0  0  0  0  0  0  0  0  0  0
   71.2739   52.0009   57.5953 C   0  0  0  0  0  0  0  0  0  0  0  0
   72.4817   51.4740   58.2892 C   0  0  0  0  0  0  0  0  0  0  0  0
   70.0815   51.2624   57.7152 C   0  0  0  0  0  0  0  0  0  0  0  0
 18 19  1  0
 19 20  2  0
 19 25  1  0
 20 21  1  0
 21 22  2  0
 22 23  1  0
 23 24  1  0
 23 25  2  0
 25 17  1  0
 17 16  1  0
 16 15  1  0
 15  1  1  0
  1  2  1  0
  1 10  1  0
  2  3  2  0
  3 12  1  0
  3  4  1  0
 12 13  2  0
 12 14  1  0
  4  5  2  0
  4  9  1  0
  5  6  1  0
  6  7  2  0
  7  8  1  0
  8  9  2  0
  9 10  1  0
 10 11  2  0
M  END
>  <minimizedAffinity>  (370) 
-8.66886

$$$$
data/200k_reference_output/data/smiles/23130.pdb
     RDKit          3D

 24 26  0  0  0  0  0  0  0  0999 V2000
   71.9443   54.0060   56.7200 C   0  0  0  0  0  0  0  0  0  0  0  0
   71.6275   53.0079   55.6335 C   0  0  0  0  0  0  0  0  0  0  0  0
   72.4898   52.5188   54.7648 O   0  0  0  0  0  0  0  0  0  0  0  0
   71.9023   51.6853   53.9622 N   0  0  0  0  0  0  0  0  0  0  0  0
   70.5852   51.5914   54.2844 C   0  0  0  0  0  0  0  0  0  0  0  0
   70.4130   52.4405   55.3571 C   0  0  0  0  0  0  0  0  0  0  0  0
   69.6215   50.7725   53.6416 N   0  0  0  0  0  0  0  0  0  0  0  0
   70.0478   49.3655   52.7583 S   0  0  0  0  0  0  0  0  0  0  0  0
   69.7172   49.5471   51.2820 O   0  0  0  0  0  0  0  0  0  0  0  0
   71.5395   49.1674   52.8165 O   0  0  0  0  0  0  0  0  0  0  0  0
   69.2959   47.9102   53.3638 C   0  0  0  0  0  0  0  0  0  0  0  0
   68.7784   46.9432   52.5432 C   0  0  0  0  0  0  0  0  0  0  0  0
   68.2138   45.8333   53.0946 C   0  0  0  0  0  0  0  0  0  0  0  0
   68.1470   45.6543   54.4517 C   0  0  0  0  0  0  0  0  0  0  0  0
   67.5511   44.4800   54.9749 N   0  0  0  0  0  0  0  0  0  0  0  0
   68.6567   46.6054   55.3030 C   0  0  0  0  0  0  0  0  0  0  0  0
   69.2245   47.7231   54.7250 C   0  0  0  0  0  0  0  0  0  0  0  0
   69.1758   52.6845   56.0910 C   0  0  0  0  0  0  0  0  0  0  0  0
   68.6188   51.5145   56.7679 C   0  0  0  0  0  0  0  0  0  0  0  0
   69.3185   50.4183   57.2173 C   0  0  0  0  0  0  0  0  0  0  0  0
   68.6522   49.3743   57.8432 C   0  0  0  0  0  0  0  0  0  0  0  0
   67.2857   49.3918   58.0368 C   0  0  0  0  0  0  0  0  0  0  0  0
   66.5663   50.4908   57.5893 C   0  0  0  0  0  0  0  0  0  0  0  0
   67.2345   51.5029   56.9790 C   0  0  0  0  0  0  0  0  0  0  0  0
  1  2  1  0
  2  3  1  0
  2  6  2  0
  3  4  1  0
  4  5  2  0
  5  7  1  0
  5  6  1  0
  7  8  1  0
  8  9  2  0
  8 10  2  0
  8 11  1  0
 11 12  2  0
 11 17  1  0
 12 13  1  0
 13 14  2  0
 14 15  1  0
 14 16  1  0
 16 17  2  0
  6 18  1  0
 18 19  1  0
 19 20  2  0
 19 24  1  0
 20 21  1  0
 21 22  2  0
 22 23  1  0
 23 24  2  0
M  END
>  <minimizedAffinity>  (371) 
-8.66823

$$$$
data/reference_output_2/data/smiles/200156.pdb
     RDKit          3D

 25 27  0  0  0  0  0  0  0  0999 V2000
   69.6832   45.9428   57.4301 N   0  0  0  0  0  0  0  0  0  0  0  0
   69.7292   47.3371   57.3280 C   0  0  0  0  0  0  0  0  0  0  0  0
   70.6139   47.9883   57.8878 O   0  0  0  0  0  0  0  0  0  0  0  0
   70.6226   45.1424   58.1875 C   0  0  0  0  0  0  0  0  0  0  0  0
   70.5063   42.6685   57.5844 N   0  0  0  0  0  0  0  0  0  0  0  0
   70.0995   43.7742   58.3984 C   0  0  0  0  0  0  0  0  0  0  0  0
   69.2593   43.5028   59.3105 O   0  0  0  0  0  0  0  0  0  0  0  0
   71.1221   38.0085   59.1713 C   0  0  0  0  0  0  0  0  0  0  0  0
   70.2755   39.0826   58.5870 C   0  0  0  0  0  0  0  0  0  0  0  0
   68.9689   38.8068   58.2766 C   0  0  0  0  0  0  0  0  0  0  0  0
   68.2013   39.8201   57.7417 C   0  0  0  0  0  0  0  0  0  0  0  0
   68.7085   41.0700   57.5198 N   0  0  0  0  0  0  0  0  0  0  0  0
   69.9740   41.3752   57.8100 C   0  0  0  0  0  0  0  0  0  0  0  0
   70.7602   40.3542   58.3529 C   0  0  0  0  0  0  0  0  0  0  0  0
   68.6932   48.0566   56.5196 C   0  0  0  0  0  0  0  0  0  0  0  0
   69.1535   48.2768   55.1450 C   0  0  0  0  0  0  0  0  0  0  0  0
   69.9970   49.3693   54.8628 C   0  0  0  0  0  0  0  0  0  0  0  0
   70.4155   49.6578   53.5919 C   0  0  0  0  0  0  0  0  0  0  0  0
   69.9974   48.8537   52.5570 C   0  0  0  0  0  0  0  0  0  0  0  0
   69.1606   47.7576   52.7869 C   0  0  0  0  0  0  0  0  0  0  0  0
   68.7772   46.9714   51.7303 C   0  0  0  0  0  0  0  0  0  0  0  0
   67.9715   45.8845   51.9270 C   0  0  0  0  0  0  0  0  0  0  0  0
   67.5559   45.5957   53.2066 C   0  0  0  0  0  0  0  0  0  0  0  0
   67.9485   46.3946   54.2603 C   0  0  0  0  0  0  0  0  0  0  0  0
   68.7567   47.4980   54.1060 C   0  0  0  0  0  0  0  0  0  0  0  0
  8  9  1  0
  9 10  2  0
  9 14  1  0
 10 11  1  0
 11 12  2  0
 12 13  1  0
 13  5  1  0
 13 14  2  0
  5  6  1  0
  6  7  2  0
  6  4  1  0
  4  1  1  0
  1  2  1  0
  2  3  2  0
  2 15  1  0
 15 16  1  0
 16 17  2  0
 16 25  1  0
 17 18  1  0
 18 19  2  0
 19 20  1  0
 20 21  1  0
 20 25  2  0
 21 22  2  0
 22 23  1  0
 23 24  2  0
 24 25  1  0
M  END
>  <minimizedAffinity>  (372) 
-8.66804

$$$$
data/reference_output_2/data/smiles/195597.pdb
     RDKit          3D

 24 27  0  0  0  0  0  0  0  0999 V2000
   69.4056   48.0186   52.4375 C   0  0  0  0  0  0  0  0  0  0  0  0
   68.7623   46.8895   51.9847 C   0  0  0  0  0  0  0  0  0  0  0  0
   68.2140   45.9650   52.8469 C   0  0  0  0  0  0  0  0  0  0  0  0
   68.3004   46.1569   54.2240 C   0  0  0  0  0  0  0  0  0  0  0  0
   67.8762   45.4523   55.2873 N   0  0  0  0  0  0  0  0  0  0  0  0
   68.2316   46.1015   56.3823 N   0  0  0  0  0  0  0  0  0  0  0  0
   68.8821   47.2224   56.0650 C   0  0  0  0  0  0  0  0  0  0  0  0
   68.9402   47.2816   54.6929 C   0  0  0  0  0  0  0  0  0  0  0  0
   69.4815   48.1928   53.7928 C   0  0  0  0  0  0  0  0  0  0  0  0
   69.4145   48.1727   57.0269 C   0  0  0  0  0  0  0  0  0  0  0  0
   68.7371   49.3246   57.3683 C   0  0  0  0  0  0  0  0  0  0  0  0
   69.2538   50.2163   58.2798 C   0  0  0  0  0  0  0  0  0  0  0  0
   70.4929   49.9718   58.8889 C   0  0  0  0  0  0  0  0  0  0  0  0
   71.1961   48.8306   58.5718 C   0  0  0  0  0  0  0  0  0  0  0  0
   70.6430   47.9686   57.6570 C   0  0  0  0  0  0  0  0  0  0  0  0
   72.4584   48.5851   59.1944 N   0  0  0  0  0  0  0  0  0  0  0  0
   72.5979   47.7233   60.3132 C   0  0  0  0  0  0  0  0  0  0  0  0
   71.5627   47.1681   60.7556 O   0  0  0  0  0  0  0  0  0  0  0  0
   73.8974   47.4486   60.9817 C   0  0  0  0  0  0  0  0  0  0  0  0
   74.3821   48.5948   61.9178 C   0  0  0  0  0  0  0  0  0  0  0  0
   75.0668   48.3138   60.6409 C   0  0  0  0  0  0  0  0  0  0  0  0
   69.6996   50.3452   51.5763 N   0  0  0  0  0  0  0  0  0  0  0  0
   69.9700   48.9693   51.5135 C   0  0  0  0  0  0  0  0  0  0  0  0
   70.7500   48.5505   50.5964 O   0  0  0  0  0  0  0  0  0  0  0  0
 22 23  1  0
 23 24  2  0
 23  1  1  0
  1  2  2  0
  1  9  1  0
  2  3  1  0
  3  4  2  0
  4  5  1  0
  4  8  1  0
  5  6  1  0
  6  7  2  0
  7 10  1  0
  7  8  1  0
 10 11  2  0
 10 15  1  0
 11 12  1  0
 12 13  2  0
 13 14  1  0
 14 16  1  0
 14 15  2  0
 16 17  1  0
 17 18  2  0
 17 19  1  0
 19 20  1  0
 19 21  1  0
 20 21  1  0
  8  9  2  0
M  END
>  <minimizedAffinity>  (373) 
-8.66652

$$$$
data/reference_output_2/data/smiles/157990.pdb
     RDKit          3D

 25 29  0  0  0  0  0  0  0  0999 V2000
   71.5655   44.7005   58.4068 C   0  0  0  0  0  0  0  0  0  0  0  0
   71.5290   45.2980   59.6017 N   0  0  0  0  0  0  0  0  0  0  0  0
   70.7990   46.4165   59.4682 N   0  0  0  0  0  0  0  0  0  0  0  0
   70.3966   46.4911   58.1902 C   0  0  0  0  0  0  0  0  0  0  0  0
   70.8689   45.4517   57.5747 O   0  0  0  0  0  0  0  0  0  0  0  0
   72.2390   43.4389   58.0177 C   0  0  0  0  0  0  0  0  0  0  0  0
   68.0685   42.2994   56.6438 C   0  0  0  0  0  0  0  0  0  0  0  0
   69.2305   42.8271   57.0342 C   0  0  0  0  0  0  0  0  0  0  0  0
   70.1571   42.0691   57.8359 C   0  0  0  0  0  0  0  0  0  0  0  0
   71.3860   42.2529   58.2689 C   0  0  0  0  0  0  0  0  0  0  0  0
   71.8234   40.9971   59.0003 C   0  0  0  0  0  0  0  0  0  0  0  0
   70.9554   40.0071   58.2624 N   0  0  0  0  0  0  0  0  0  0  0  0
   69.7420   40.7276   58.3503 C   0  0  2  0  0  0  0  0  0  0  0  0
   68.5019   40.2333   57.8305 C   0  0  0  0  0  0  0  0  0  0  0  0
   67.7108   40.9564   57.0459 C   0  0  0  0  0  0  0  0  0  0  0  0
   69.5675   47.5594   57.5879 C   0  0  0  0  0  0  0  0  0  0  0  0
   69.1588   47.1979   56.1871 C   0  0  0  0  0  0  0  0  0  0  0  0
   69.4738   47.8211   55.0450 N   0  0  0  0  0  0  0  0  0  0  0  0
   68.9233   47.2053   53.9828 C   0  0  0  0  0  0  0  0  0  0  0  0
   68.9135   47.4030   52.6148 C   0  0  0  0  0  0  0  0  0  0  0  0
   68.2384   46.5851   51.7360 C   0  0  0  0  0  0  0  0  0  0  0  0
   67.5404   45.5160   52.2613 C   0  0  0  0  0  0  0  0  0  0  0  0
   67.5339   45.2949   53.6270 C   0  0  0  0  0  0  0  0  0  0  0  0
   68.2201   46.1325   54.4938 C   0  0  0  0  0  0  0  0  0  0  0  0
   68.3831   46.1561   55.8359 N   0  0  0  0  0  0  0  0  0  0  0  0
  7  8  2  0
  7 15  1  0
  8  9  1  0
  9 10  2  0
  9 13  1  0
 10  6  1  0
 10 11  1  0
  6  1  1  0
  1  2  2  0
  1  5  1  0
  2  3  1  0
  3  4  2  0
  4 16  1  0
  4  5  1  0
 16 17  1  0
 17 18  2  0
 17 25  1  0
 18 19  1  0
 19 20  2  0
 19 24  1  0
 20 21  1  0
 21 22  2  0
 22 23  1  0
 23 24  2  0
 24 25  1  0
 11 12  1  0
 13 12  1  6
 13 14  1  0
 14 15  2  0
M  CHG  2  12   1  18   1
M  END
>  <minimizedAffinity>  (374) 
-8.66643

$$$$
data/reference_output_2/data/smiles/89732.pdb
     RDKit          3D

 24 26  0  0  0  0  0  0  0  0999 V2000
   69.5793   48.0957   57.3268 C   0  0  0  0  0  0  0  0  0  0  0  0
   68.3904   48.7297   57.6536 C   0  0  0  0  0  0  0  0  0  0  0  0
   68.0489   49.9665   57.1452 C   0  0  0  0  0  0  0  0  0  0  0  0
   68.8855   50.6272   56.2810 C   0  0  0  0  0  0  0  0  0  0  0  0
   70.0713   50.0084   55.9474 C   0  0  0  0  0  0  0  0  0  0  0  0
   70.4212   48.7571   56.4595 C   0  0  0  0  0  0  0  0  0  0  0  0
   70.9834   50.6924   55.0278 C   0  0  0  0  0  0  0  0  0  0  0  0
   70.1535   51.3931   53.9770 C   0  0  2  0  0  0  0  0  0  0  0  0
   69.3864   52.4783   54.7044 C   0  0  0  0  0  0  0  0  0  0  0  0
   68.4770   51.9431   55.7658 C   0  0  0  0  0  0  0  0  0  0  0  0
   69.4861   45.7537   57.3068 O   0  0  0  0  0  0  0  0  0  0  0  0
   69.8959   46.7780   57.8957 C   0  0  0  0  0  0  0  0  0  0  0  0
   70.6395   46.6023   59.0763 N   0  0  0  0  0  0  0  0  0  0  0  0
   70.9279   45.3837   59.5960 O   0  0  0  0  0  0  0  0  0  0  0  0
   69.2126   50.5471   53.3345 N   0  0  0  0  0  0  0  0  0  0  0  0
   69.8498   49.2422   52.4672 S   0  0  0  0  0  0  0  0  0  0  0  0
   71.3009   49.0129   52.8667 O   0  0  0  0  0  0  0  0  0  0  0  0
   69.8697   49.6046   51.0030 O   0  0  0  0  0  0  0  0  0  0  0  0
   69.0111   47.7551   52.6853 C   0  0  0  0  0  0  0  0  0  0  0  0
   68.6777   47.2939   53.9406 C   0  0  0  0  0  0  0  0  0  0  0  0
   68.0055   46.0945   54.0253 C   0  0  0  0  0  0  0  0  0  0  0  0
   67.6631   45.3548   52.9152 C   0  0  0  0  0  0  0  0  0  0  0  0
   68.0059   45.8400   51.7118 N   0  0  0  0  0  0  0  0  0  0  0  0
   68.6529   46.9918   51.5991 C   0  0  0  0  0  0  0  0  0  0  0  0
 11 12  2  0
 12 13  1  0
 12  1  1  0
 13 14  1  0
  1  2  2  0
  1  6  1  0
  2  3  1  0
  3  4  2  0
  4  5  1  0
  4 10  1  0
  5  6  2  0
  5  7  1  0
  7  8  1  0
  8 15  1  1
  8  9  1  0
 15 16  1  0
 16 17  2  0
 16 18  2  0
 16 19  1  0
 19 20  2  0
 19 24  1  0
 20 21  1  0
 21 22  2  0
 22 23  1  0
 23 24  2  0
  9 10  1  0
M  END
>  <minimizedAffinity>  (375) 
-8.66634

$$$$
data/reference_output_2/data/smiles/170261.pdb
     RDKit          3D

 25 27  0  0  0  0  0  0  0  0999 V2000
   68.0926   43.7312   55.7695 C   0  0  0  0  0  0  0  0  0  0  0  0
   68.9486   43.1312   56.6471 C   0  0  0  0  0  0  0  0  0  0  0  0
   68.7136   41.8855   57.2348 C   0  0  0  0  0  0  0  0  0  0  0  0
   67.5925   41.2341   56.9309 N   0  0  0  0  0  0  0  0  0  0  0  0
   66.7300   41.8025   56.0688 C   0  0  0  0  0  0  0  0  0  0  0  0
   66.9627   42.9975   55.5081 N   0  0  0  0  0  0  0  0  0  0  0  0
   68.7738   46.1164   55.7687 C   0  0  0  0  0  0  0  0  0  0  0  0
   68.9201   47.3150   55.0651 C   0  0  0  0  0  0  0  0  0  0  0  0
   68.5695   47.3849   53.7403 C   0  0  0  0  0  0  0  0  0  0  0  0
   68.0752   46.2692   53.1147 C   0  0  0  0  0  0  0  0  0  0  0  0
   67.7357   46.3710   51.7981 F   0  0  0  0  0  0  0  0  0  0  0  0
   67.9230   45.0847   53.7800 C   0  0  0  0  0  0  0  0  0  0  0  0
   68.2817   45.0210   55.1273 C   0  0  0  0  0  0  0  0  0  0  0  0
   70.0192   46.9984   57.6958 C   0  0  0  0  0  0  0  0  0  0  0  0
   69.1400   46.1222   57.0719 O   0  0  0  0  0  0  0  0  0  0  0  0
   69.6754   41.3301   58.1515 N   0  0  0  0  0  0  0  0  0  0  0  0
   69.7595   39.9537   58.3944 C   0  0  0  0  0  0  0  0  0  0  0  0
   68.9915   39.1447   57.8165 O   0  0  0  0  0  0  0  0  0  0  0  0
   70.7577   39.3985   59.3440 C   0  0  0  0  0  0  0  0  0  0  0  0
   71.1505   38.0333   58.9859 C   0  0  0  0  0  0  0  0  0  0  0  0
   72.0670   37.8433   57.9562 C   0  0  0  0  0  0  0  0  0  0  0  0
   72.4556   36.5677   57.5966 C   0  0  0  0  0  0  0  0  0  0  0  0
   71.9057   35.5056   58.2896 C   0  0  0  0  0  0  0  0  0  0  0  0
   71.0257   35.6840   59.2771 N   0  0  0  0  0  0  0  0  0  0  0  0
   70.6307   36.9330   59.6448 C   0  0  0  0  0  0  0  0  0  0  0  0
 14 15  1  0
 15  7  1  0
  7  8  2  0
  7 13  1  0
  8  9  1  0
  9 10  2  0
 10 11  1  0
 10 12  1  0
 12 13  2  0
 13  1  1  0
  1  2  2  0
  1  6  1  0
  2  3  1  0
  3 16  1  0
  3  4  2  0
 16 17  1  0
 17 18  2  0
 17 19  1  0
 19 20  1  0
 20 21  2  0
 20 25  1  0
 21 22  1  0
 22 23  2  0
 23 24  1  0
 24 25  2  0
  4  5  1  0
  5  6  2  0
M  END
>  <minimizedAffinity>  (376) 
-8.66564

$$$$
data/reference_output_2/data/smiles/99289.pdb
     RDKit          3D

 21 22  0  0  0  0  0  0  0  0999 V2000
   71.4844   49.3209   53.2169 N   0  0  0  0  0  0  0  0  0  0  0  0
   69.9424   49.2828   52.4467 S   0  0  0  0  0  0  0  0  0  0  0  0
   69.1033   50.4374   52.8964 O   0  0  0  0  0  0  0  0  0  0  0  0
   70.0883   49.2986   50.9711 O   0  0  0  0  0  0  0  0  0  0  0  0
   68.2644   46.0083   56.0278 N   0  0  0  0  0  0  0  0  0  0  0  0
   68.3686   46.3187   54.6492 C   0  0  0  0  0  0  0  0  0  0  0  0
   67.8247   45.4511   53.6960 C   0  0  0  0  0  0  0  0  0  0  0  0
   67.9334   45.7655   52.3579 C   0  0  0  0  0  0  0  0  0  0  0  0
   68.5799   46.9356   51.9714 C   0  0  0  0  0  0  0  0  0  0  0  0
   69.1164   47.7929   52.9046 C   0  0  0  0  0  0  0  0  0  0  0  0
   68.9955   47.4576   54.2300 C   0  0  0  0  0  0  0  0  0  0  0  0
   71.6018   50.4196   54.0800 N   0  0  0  0  0  0  0  0  0  0  0  0
   72.8500   50.9967   54.3018 C   0  0  0  0  0  0  0  0  0  0  0  0
   73.8448   50.4704   53.6883 O   0  0  0  0  0  0  0  0  0  0  0  0
   73.1094   52.1172   55.1517 C   0  0  0  0  0  0  0  0  0  0  0  0
   72.8606   51.9826   56.5307 C   0  0  0  0  0  0  0  0  0  0  0  0
   73.0919   53.0515   57.3450 C   0  0  0  0  0  0  0  0  0  0  0  0
   73.5569   54.2539   56.8819 C   0  0  0  0  0  0  0  0  0  0  0  0
   73.7907   54.3566   55.5405 C   0  0  0  0  0  0  0  0  0  0  0  0
   73.5744   53.3018   54.6539 C   0  0  0  0  0  0  0  0  0  0  0  0
   73.8566   53.5328   53.3473 F   0  0  0  0  0  0  0  0  0  0  0  0
  5  6  1  0
  6  7  2  0
  6 11  1  0
  7  8  1  0
  8  9  2  0
  9 10  1  0
 10  2  1  0
 10 11  2  0
  2  3  2  0
  2  4  2  0
  2  1  1  0
  1 12  1  0
 12 13  1  0
 13 14  2  0
 13 15  1  0
 15 16  2  0
 15 20  1  0
 16 17  1  0
 17 18  2  0
 18 19  1  0
 19 20  2  0
 20 21  1  0
M  END
>  <minimizedAffinity>  (377) 
-8.66541

$$$$
data/reference_output_2/data/smiles/182409.pdb
     RDKit          3D

 24 26  0  0  0  0  0  0  0  0999 V2000
   68.6741   44.5156   56.2653 C   0  0  0  0  0  0  0  0  0  0  0  0
   69.4540   45.3775   56.9527 N   0  0  0  0  0  0  0  0  0  0  0  0
   70.2909   45.0196   57.9232 C   0  0  0  0  0  0  0  0  0  0  0  0
   70.3575   43.6670   58.2428 C   0  0  0  0  0  0  0  0  0  0  0  0
   69.5799   42.7646   57.5659 C   0  0  0  0  0  0  0  0  0  0  0  0
   68.7751   43.2195   56.6127 N   0  0  0  0  0  0  0  0  0  0  0  0
   69.6478   41.3579   57.8970 C   0  0  0  0  0  0  0  0  0  0  0  0
   70.8643   40.8058   58.3067 C   0  0  0  0  0  0  0  0  0  0  0  0
   71.0317   39.4866   58.6411 C   0  0  0  0  0  0  0  0  0  0  0  0
   69.9388   38.6581   58.5690 C   0  0  0  0  0  0  0  0  0  0  0  0
   68.7080   39.1329   58.1720 C   0  0  0  0  0  0  0  0  0  0  0  0
   68.5842   40.4903   57.8391 C   0  0  0  0  0  0  0  0  0  0  0  0
   71.1260   45.9959   58.6483 C   0  0  0  0  0  0  0  0  0  0  0  0
   71.4289   45.7363   60.0101 N   0  0  0  0  0  0  0  0  0  0  0  0
   71.5392   47.0071   58.0657 O   0  0  0  0  0  0  0  0  0  0  0  0
   67.8111   44.9236   55.2583 O   0  0  0  0  0  0  0  0  0  0  0  0
   69.1326   47.9011   52.7101 C   0  0  0  0  0  0  0  0  0  0  0  0
   68.6346   46.7383   52.1504 C   0  0  0  0  0  0  0  0  0  0  0  0
   68.1877   45.7305   52.9926 C   0  0  0  0  0  0  0  0  0  0  0  0
   68.2423   45.8937   54.3675 C   0  0  0  0  0  0  0  0  0  0  0  0
   68.7502   47.0770   54.8837 C   0  0  0  0  0  0  0  0  0  0  0  0
   69.2020   48.0959   54.0732 C   0  0  0  0  0  0  0  0  0  0  0  0
   69.9572   49.7461   51.0579 N   0  0  0  0  0  0  0  0  0  0  0  0
   69.5899   48.9280   51.8046 C   0  0  0  0  0  0  0  0  0  0  0  0
 23 24  3  0
 24 17  1  0
 17 18  2  0
 17 22  1  0
 18 19  1  0
 19 20  2  0
 20 16  1  0
 20 21  1  0
 16  1  1  0
  1  2  2  0
  1  6  1  0
  2  3  1  0
  3 13  1  0
  3  4  2  0
 13 14  1  0
 13 15  2  0
  4  5  1  0
  5  7  1  0
  5  6  2  0
  7  8  2  0
  7 12  1  0
  8  9  1  0
  9 10  2  0
 10 11  1  0
 11 12  2  0
 21 22  2  0
M  END
>  <minimizedAffinity>  (378) 
-8.66423

$$$$
data/200k_reference_output/data/smiles/27968.pdb
     RDKit          3D

 23 24  0  0  0  0  0  0  0  0999 V2000
   70.9478   51.2063   54.7718 C   0  0  0  0  0  0  0  0  0  0  0  0
   72.0454   51.1315   54.2019 O   0  0  0  0  0  0  0  0  0  0  0  0
   69.8865   50.4220   54.2234 N   0  0  0  0  0  0  0  0  0  0  0  0
   70.1566   49.4346   52.8375 S   0  0  0  0  0  0  0  0  0  0  0  0
   71.6145   49.0032   52.7977 O   0  0  0  0  0  0  0  0  0  0  0  0
   69.8163   50.1854   51.5826 O   0  0  0  0  0  0  0  0  0  0  0  0
   69.2147   47.9687   52.9954 C   0  0  0  0  0  0  0  0  0  0  0  0
   68.8539   47.2036   51.8870 C   0  0  0  0  0  0  0  0  0  0  0  0
   68.1118   46.0508   52.0229 C   0  0  0  0  0  0  0  0  0  0  0  0
   67.7140   45.6368   53.2780 C   0  0  0  0  0  0  0  0  0  0  0  0
   66.9787   44.5012   53.4527 F   0  0  0  0  0  0  0  0  0  0  0  0
   68.0530   46.3683   54.4013 C   0  0  0  0  0  0  0  0  0  0  0  0
   68.7907   47.5095   54.2367 C   0  0  0  0  0  0  0  0  0  0  0  0
   69.7552   53.1752   55.6948 C   0  0  0  0  0  0  0  0  0  0  0  0
   70.7468   52.0476   55.9411 C   0  0  1  0  0  0  0  0  0  0  0  0
   70.5209   51.3521   57.2250 C   0  0  0  0  0  0  0  0  0  0  0  0
   69.2984   50.5854   57.3883 C   0  0  0  0  0  0  0  0  0  0  0  0
   69.2787   49.1851   57.4326 C   0  0  0  0  0  0  0  0  0  0  0  0
   68.1071   48.4766   57.5591 C   0  0  0  0  0  0  0  0  0  0  0  0
   66.8890   49.1371   57.6491 C   0  0  0  0  0  0  0  0  0  0  0  0
   66.9007   50.4912   57.6067 C   0  0  0  0  0  0  0  0  0  0  0  0
   65.7125   51.1525   57.6934 F   0  0  0  0  0  0  0  0  0  0  0  0
   68.0806   51.2126   57.4788 C   0  0  0  0  0  0  0  0  0  0  0  0
 15 14  1  6
 15 16  1  0
 15  1  1  0
 16 17  1  0
 17 18  2  0
 17 23  1  0
 18 19  1  0
 19 20  2  0
 20 21  1  0
 21 22  1  0
 21 23  2  0
  1  2  2  0
  1  3  1  0
  3  4  1  0
  4  5  2  0
  4  6  2  0
  4  7  1  0
  7  8  2  0
  7 13  1  0
  8  9  1  0
  9 10  2  0
 10 11  1  0
 10 12  1  0
 12 13  2  0
M  END
>  <minimizedAffinity>  (379) 
-8.66387

$$$$
data/reference_output_2/data/smiles/184982.pdb
     RDKit          3D

 23 24  0  0  0  0  0  0  0  0999 V2000
   67.7818   42.0890   56.7524 C   0  0  0  0  0  0  0  0  0  0  0  0
   67.6988   41.4030   55.7135 O   0  0  0  0  0  0  0  0  0  0  0  0
   67.9519   43.4885   56.6224 N   0  0  0  0  0  0  0  0  0  0  0  0
   68.0185   44.0276   55.3352 N   0  0  0  0  0  0  0  0  0  0  0  0
   68.1661   45.4039   55.0616 C   0  0  0  0  0  0  0  0  0  0  0  0
   68.2406   46.1741   56.0508 O   0  0  0  0  0  0  0  0  0  0  0  0
   68.2363   45.9800   53.7317 C   0  0  0  0  0  0  0  0  0  0  0  0
   69.0248   47.0780   53.4930 C   0  0  0  0  0  0  0  0  0  0  0  0
   69.1128   47.6572   52.2200 C   0  0  0  0  0  0  0  0  0  0  0  0
   68.4174   47.1428   51.1915 N   0  0  0  0  0  0  0  0  0  0  0  0
   67.6476   46.0700   51.4284 C   0  0  0  0  0  0  0  0  0  0  0  0
   67.5320   45.4690   52.6659 C   0  0  0  0  0  0  0  0  0  0  0  0
   67.7003   41.4212   58.0613 C   0  0  0  0  0  0  0  0  0  0  0  0
   67.9743   39.9304   57.9311 C   0  0  0  0  0  0  0  0  0  0  0  0
   69.1561   39.4641   58.1811 O   0  0  0  0  0  0  0  0  0  0  0  0
   72.2048   35.7446   59.0684 C   0  0  0  0  0  0  0  0  0  0  0  0
   71.8917   37.1978   58.8754 C   0  0  0  0  0  0  0  0  0  0  0  0
   72.9118   38.0861   58.9678 C   0  0  0  0  0  0  0  0  0  0  0  0
   72.6499   39.4287   58.7942 C   0  0  0  0  0  0  0  0  0  0  0  0
   71.4035   39.9121   58.5296 C   0  0  0  0  0  0  0  0  0  0  0  0
   71.1844   41.3744   58.3510 C   0  0  0  0  0  0  0  0  0  0  0  0
   70.3279   39.0025   58.4296 C   0  0  0  0  0  0  0  0  0  0  0  0
   70.6353   37.6516   58.6127 C   0  0  0  0  0  0  0  0  0  0  0  0
 16 17  1  0
 17 18  2  0
 17 23  1  0
 18 19  1  0
 19 20  2  0
 20 21  1  0
 20 22  1  0
 22 15  1  0
 22 23  2  0
 15 14  1  0
 14 13  1  0
 13  1  1  0
  1  2  2  0
  1  3  1  0
  3  4  1  0
  4  5  1  0
  5  6  2  0
  5  7  1  0
  7  8  2  0
  7 12  1  0
  8  9  1  0
  9 10  2  0
 10 11  1  0
 11 12  2  0
M  END
>  <minimizedAffinity>  (380) 
-8.66387

$$$$
data/reference_output_2/data/smiles/162401.pdb
     RDKit          3D

 23 25  0  0  0  0  0  0  0  0999 V2000
   71.0182   50.7365   55.0798 N   0  0  0  0  0  0  0  0  0  0  0  0
   70.4563   49.7292   54.2483 C   0  0  0  0  0  0  0  0  0  0  0  0
   69.6145   48.7894   54.7422 N   0  0  0  0  0  0  0  0  0  0  0  0
   69.0719   47.8280   53.9731 C   0  0  0  0  0  0  0  0  0  0  0  0
   68.2097   46.8682   54.4860 C   0  0  0  0  0  0  0  0  0  0  0  0
   67.6714   45.8926   53.6578 C   0  0  0  0  0  0  0  0  0  0  0  0
   67.9766   45.8515   52.3125 C   0  0  0  0  0  0  0  0  0  0  0  0
   68.8316   46.7983   51.7889 C   0  0  0  0  0  0  0  0  0  0  0  0
   69.3651   47.7708   52.6250 C   0  0  0  0  0  0  0  0  0  0  0  0
   70.2255   48.7413   52.1518 C   0  0  0  0  0  0  0  0  0  0  0  0
   70.5010   48.6998   50.9248 O   0  0  0  0  0  0  0  0  0  0  0  0
   70.7177   49.6506   52.9613 O   0  0  0  0  0  0  0  0  0  0  0  0
   72.7228   50.8009   55.3062 S   0  0  0  0  0  0  0  0  0  0  0  0
   73.1082   49.7068   56.2575 O   0  0  0  0  0  0  0  0  0  0  0  0
   73.4650   50.6730   54.0135 O   0  0  0  0  0  0  0  0  0  0  0  0
   73.1269   52.3243   56.1053 C   0  0  0  0  0  0  0  0  0  0  0  0
   73.0513   52.4438   57.4787 C   0  0  0  0  0  0  0  0  0  0  0  0
   73.3719   53.6405   58.0811 C   0  0  0  0  0  0  0  0  0  0  0  0
   73.7685   54.7291   57.3377 C   0  0  0  0  0  0  0  0  0  0  0  0
   73.8483   54.6210   55.9576 C   0  0  0  0  0  0  0  0  0  0  0  0
   73.5282   53.4257   55.3646 C   0  0  0  0  0  0  0  0  0  0  0  0
   69.2526   52.3460   54.7478 C   0  0  0  0  0  0  0  0  0  0  0  0
   70.2121   51.7299   55.7588 C   0  0  0  0  0  0  0  0  0  0  0  0
 22 23  1  0
 23  1  1  0
  1  2  1  0
  1 13  1  0
  2  3  2  0
  2 12  1  0
  3  4  1  0
  4  5  2  0
  4  9  1  0
  5  6  1  0
  6  7  2  0
  7  8  1  0
  8  9  2  0
  9 10  1  0
 10 11  2  0
 10 12  1  0
 13 14  2  0
 13 15  2  0
 13 16  1  0
 16 17  2  0
 16 21  1  0
 17 18  1  0
 18 19  2  0
 19 20  1  0
 20 21  2  0
M  END
>  <minimizedAffinity>  (381) 
-8.66296

$$$$
data/reference_output_2/data/smiles/155162.pdb
     RDKit          3D

 24 26  0  0  0  0  0  0  0  0999 V2000
   68.1317   47.4896   56.4238 C   0  0  0  0  0  0  0  0  0  0  0  0
   69.4088   47.9481   52.9061 C   0  0  0  0  0  0  0  0  0  0  0  0
   69.1931   48.0963   54.2821 C   0  0  0  0  0  0  0  0  0  0  0  0
   68.3495   47.3348   54.9822 N   0  0  0  0  0  0  0  0  0  0  0  0
   67.6451   46.3474   54.3378 C   0  0  0  0  0  0  0  0  0  0  0  0
   67.8355   46.1794   52.9848 C   0  0  0  0  0  0  0  0  0  0  0  0
   67.1101   45.1694   52.3393 O   0  0  0  0  0  0  0  0  0  0  0  0
   68.6966   46.9531   52.2654 C   0  0  0  0  0  0  0  0  0  0  0  0
   68.8402   46.7656   51.0356 O   0  0  0  0  0  0  0  0  0  0  0  0
   71.4725   49.0268   52.6961 O   0  0  0  0  0  0  0  0  0  0  0  0
   70.3400   48.8131   52.2225 C   0  0  0  0  0  0  0  0  0  0  0  0
   69.9977   49.4239   51.0292 O   0  0  0  0  0  0  0  0  0  0  0  0
   69.4041   47.5317   57.1289 C   0  0  0  0  0  0  0  0  0  0  0  0
   69.9187   46.2906   57.5518 C   0  0  0  0  0  0  0  0  0  0  0  0
   71.1297   46.1614   58.1871 C   0  0  0  0  0  0  0  0  0  0  0  0
   71.9130   47.2651   58.4449 C   0  0  0  0  0  0  0  0  0  0  0  0
   71.4101   48.4836   58.0313 C   0  0  0  0  0  0  0  0  0  0  0  0
   70.1856   48.6171   57.3894 C   0  0  0  0  0  0  0  0  0  0  0  0
   69.7403   49.9694   57.0454 C   0  0  0  0  0  0  0  0  0  0  0  0
   68.6102   50.4790   57.6510 C   0  0  0  0  0  0  0  0  0  0  0  0
   68.0859   51.7232   57.3900 C   0  0  0  0  0  0  0  0  0  0  0  0
   68.7807   52.4655   56.4529 C   0  0  0  0  0  0  0  0  0  0  0  0
   69.9129   51.9943   55.8257 C   0  0  0  0  0  0  0  0  0  0  0  0
   70.3913   50.7412   56.1242 C   0  0  0  0  0  0  0  0  0  0  0  0
 10 11  2  0
 11 12  1  0
 11  2  1  0
  2  3  2  0
  2  8  1  0
  3  4  1  0
  4  1  1  0
  4  5  1  0
  1 13  1  0
 13 14  2  0
 13 18  1  0
 14 15  1  0
 15 16  2  0
 16 17  1  0
 17 18  2  0
 18 19  1  0
 19 20  2  0
 19 24  1  0
 20 21  1  0
 21 22  2  0
 22 23  1  0
 23 24  2  0
  5  6  2  0
  6  7  1  0
  6  8  1  0
  8  9  2  0
M  END
>  <minimizedAffinity>  (382) 
-8.66155

$$$$
data/200k_reference_output/data/smiles/45787.pdb
     RDKit          3D

 25 27  0  0  0  0  0  0  0  0999 V2000
   67.9847   47.0167   56.7498 O   0  0  0  0  0  0  0  0  0  0  0  0
   69.0356   46.8621   56.0566 C   0  0  0  0  0  0  0  0  0  0  0  0
   70.2166   46.5616   56.7705 N   0  0  0  0  0  0  0  0  0  0  0  0
   68.8983   47.0120   54.6193 C   0  0  0  0  0  0  0  0  0  0  0  0
   69.3665   48.1796   53.9913 C   0  0  0  0  0  0  0  0  0  0  0  0
   69.2941   48.4070   52.6453 C   0  0  0  0  0  0  0  0  0  0  0  0
   68.7348   47.4643   51.8118 C   0  0  0  0  0  0  0  0  0  0  0  0
   68.2685   46.3168   52.3948 C   0  0  0  0  0  0  0  0  0  0  0  0
   68.3428   46.0812   53.7790 C   0  0  0  0  0  0  0  0  0  0  0  0
   67.8502   44.9232   54.2812 F   0  0  0  0  0  0  0  0  0  0  0  0
   69.7926   49.6165   52.0881 N   0  0  0  0  0  0  0  0  0  0  0  0
   70.3128   50.4903   52.8077 O   0  0  0  0  0  0  0  0  0  0  0  0
   69.7265   49.8769   50.7423 O   0  0  0  0  0  0  0  0  0  0  0  0
   70.2309   46.4302   58.2218 C   0  0  0  0  0  0  0  0  0  0  0  0
   70.8599   45.1832   58.7299 C   0  0  2  0  0  0  0  0  0  0  0  0
   72.1731   45.0533   58.1997 O   0  0  0  0  0  0  0  0  0  0  0  0
   70.1716   43.9319   58.3083 C   0  0  0  0  0  0  0  0  0  0  0  0
   69.2712   43.8790   57.3031 N   0  0  0  0  0  0  0  0  0  0  0  0
   68.8237   42.6261   57.1601 C   0  0  0  0  0  0  0  0  0  0  0  0
   67.9001   42.0693   56.2758 C   0  0  0  0  0  0  0  0  0  0  0  0
   67.6145   40.7286   56.3428 C   0  0  0  0  0  0  0  0  0  0  0  0
   68.2393   39.9578   57.2771 C   0  0  0  0  0  0  0  0  0  0  0  0
   69.1517   40.5177   58.1476 C   0  0  0  0  0  0  0  0  0  0  0  0
   69.4458   41.8586   58.0895 C   0  0  0  0  0  0  0  0  0  0  0  0
   70.2727   42.6878   58.7866 N   0  0  0  0  0  0  0  0  0  0  0  0
  1  2  2  0
  2  3  1  0
  2  4  1  0
  3 14  1  0
 14 15  1  0
 15 16  1  6
 15 17  1  0
 17 18  2  0
 17 25  1  0
 18 19  1  0
 19 20  2  0
 19 24  1  0
 20 21  1  0
 21 22  2  0
 22 23  1  0
 23 24  2  0
 24 25  1  0
  4  5  2  0
  4  9  1  0
  5  6  1  0
  6 11  1  0
  6  7  2  0
 11 12  2  0
 11 13  1  0
  7  8  1  0
  8  9  2  0
  9 10  1  0
M  CHG  3  11   1  13  -1  18   1
M  END
>  <minimizedAffinity>  (383) 
-8.66089

$$$$
data/200k_reference_output/data/smiles/59433.pdb
     RDKit          3D

 25 27  0  0  0  0  0  0  0  0999 V2000
   71.1323   48.8555   58.5806 C   0  0  0  0  0  0  0  0  0  0  0  0
   70.3899   49.9773   58.8858 C   0  0  0  0  0  0  0  0  0  0  0  0
   69.1527   50.2114   58.2895 C   0  0  0  0  0  0  0  0  0  0  0  0
   68.6578   49.3068   57.3749 C   0  0  0  0  0  0  0  0  0  0  0  0
   69.3812   48.1616   57.0415 C   0  0  0  0  0  0  0  0  0  0  0  0
   70.6036   47.9772   57.6625 C   0  0  0  0  0  0  0  0  0  0  0  0
   68.8707   47.1967   56.0731 C   0  0  0  0  0  0  0  0  0  0  0  0
   68.2235   46.0587   56.3789 N   0  0  0  0  0  0  0  0  0  0  0  0
   67.8953   45.4089   55.2678 N   0  0  0  0  0  0  0  0  0  0  0  0
   68.3200   46.1029   54.1873 C   0  0  0  0  0  0  0  0  0  0  0  0
   68.2568   45.9069   52.8237 C   0  0  0  0  0  0  0  0  0  0  0  0
   68.8141   46.8509   51.9860 C   0  0  0  0  0  0  0  0  0  0  0  0
   69.4298   47.9819   52.5189 C   0  0  0  0  0  0  0  0  0  0  0  0
   69.4947   48.1798   53.8805 C   0  0  0  0  0  0  0  0  0  0  0  0
   68.9389   47.2385   54.7066 C   0  0  0  0  0  0  0  0  0  0  0  0
   70.0155   48.9730   51.6172 C   0  0  0  0  0  0  0  0  0  0  0  0
   69.7637   50.3613   51.7852 N   0  0  0  0  0  0  0  0  0  0  0  0
   70.7522   48.6204   50.6773 O   0  0  0  0  0  0  0  0  0  0  0  0
   72.5520   47.6879   60.2419 C   0  0  0  0  0  0  0  0  0  0  0  0
   71.4799   47.1413   60.6581 O   0  0  0  0  0  0  0  0  0  0  0  0
   72.3990   48.5774   59.1669 N   0  0  0  0  0  0  0  0  0  0  0  0
   73.7830   47.3152   60.9354 C   0  0  0  0  0  0  0  0  0  0  0  0
   74.3311   47.2052   63.2066 C   0  0  0  0  0  0  0  0  0  0  0  0
   74.1107   48.0769   62.0868 N   0  0  0  0  0  0  0  0  0  0  0  0
   75.1782   48.9950   61.8130 C   0  0  0  0  0  0  0  0  0  0  0  0
 23 24  1  0
 24 25  1  0
 24 22  1  0
 22 19  1  0
 19 20  2  0
 19 21  1  0
 21  1  1  0
  1  2  2  0
  1  6  1  0
  2  3  1  0
  3  4  2  0
  4  5  1  0
  5  7  1  0
  5  6  2  0
  7  8  2  0
  7 15  1  0
  8  9  1  0
  9 10  1  0
 10 11  1  0
 10 15  2  0
 11 12  2  0
 12 13  1  0
 13 16  1  0
 13 14  2  0
 16 17  1  0
 16 18  2  0
 14 15  1  0
M  CHG  1  24   1
M  END
>  <minimizedAffinity>  (384) 
-8.66075

$$$$
data/200k_reference_output/data/smiles/2158.pdb
     RDKit          3D

 25 27  0  0  0  0  0  0  0  0999 V2000
   69.7234   46.8787   57.0869 C   0  0  0  0  0  0  0  0  0  0  0  0
   70.6407   47.1537   58.1032 C   0  0  0  0  0  0  0  0  0  0  0  0
   71.2134   46.1656   58.8534 C   0  0  0  0  0  0  0  0  0  0  0  0
   70.8636   44.8647   58.5879 C   0  0  0  0  0  0  0  0  0  0  0  0
   69.9563   44.5801   57.5841 C   0  0  0  0  0  0  0  0  0  0  0  0
   69.4313   45.6006   56.8831 N   0  0  0  0  0  0  0  0  0  0  0  0
   69.5933   43.2439   57.3060 N   0  0  0  0  0  0  0  0  0  0  0  0
   70.2408   42.0325   57.7387 C   0  0  0  0  0  0  0  0  0  0  0  0
   69.0349   41.1979   58.1889 C   0  0  0  0  0  0  0  0  0  0  0  0
   68.0041   41.5504   57.1544 C   0  0  1  0  0  0  0  0  0  0  0  0
   66.7509   41.7948   57.7078 O   0  0  0  0  0  0  0  0  0  0  0  0
   68.4651   42.8382   56.5062 C   0  0  0  0  0  0  0  0  0  0  0  0
   72.1618   46.4480   59.9048 C   0  0  0  0  0  0  0  0  0  0  0  0
   71.7578   47.0471   60.9329 O   0  0  0  0  0  0  0  0  0  0  0  0
   73.4883   46.0916   59.8329 O   0  0  0  0  0  0  0  0  0  0  0  0
   69.1469   47.9489   56.2980 C   0  0  0  0  0  0  0  0  0  0  0  0
   69.4146   47.9647   54.9009 N   0  0  0  0  0  0  0  0  0  0  0  0
   70.1025   48.6587   52.2405 C   0  0  0  0  0  0  0  0  0  0  0  0
   69.1307   47.5971   52.5543 C   0  0  0  0  0  0  0  0  0  0  0  0
   68.5529   46.9205   51.5085 C   0  0  0  0  0  0  0  0  0  0  0  0
   67.6376   45.9181   51.7152 C   0  0  0  0  0  0  0  0  0  0  0  0
   67.0699   45.2519   50.6540 F   0  0  0  0  0  0  0  0  0  0  0  0
   67.3149   45.6084   53.0105 C   0  0  0  0  0  0  0  0  0  0  0  0
   67.8948   46.2880   54.0735 C   0  0  0  0  0  0  0  0  0  0  0  0
   68.8038   47.2849   53.8533 C   0  0  0  0  0  0  0  0  0  0  0  0
 18 19  1  0
 19 20  2  0
 19 25  1  0
 20 21  1  0
 21 22  1  0
 21 23  2  0
 23 24  1  0
 24 25  2  0
 25 17  1  0
 17 16  1  0
 16  1  1  0
  1  2  2  0
  1  6  1  0
  2  3  1  0
  3 13  1  0
  3  4  2  0
 13 14  2  0
 13 15  1  0
  4  5  1  0
  5  7  1  0
  5  6  2  0
  7  8  1  0
  7 12  1  0
  8  9  1  0
  9 10  1  0
 10 11  1  1
 10 12  1  0
M  END
>  <minimizedAffinity>  (385) 
-8.66034

$$$$
data/reference_output_2/data/smiles/129035.pdb
     RDKit          3D

 24 26  0  0  0  0  0  0  0  0999 V2000
   70.8810   44.2198   58.4402 C   0  0  0  0  0  0  0  0  0  0  0  0
   69.9557   43.2076   57.9709 N   0  0  0  0  0  0  0  0  0  0  0  0
   68.9374   43.4198   57.1559 N   0  0  0  0  0  0  0  0  0  0  0  0
   68.2746   42.2935   56.9070 C   0  0  0  0  0  0  0  0  0  0  0  0
   68.9036   41.2756   57.6083 C   0  0  0  0  0  0  0  0  0  0  0  0
   69.9481   41.8902   58.2595 C   0  0  0  0  0  0  0  0  0  0  0  0
   70.7121   40.8921   59.0646 C   0  0  0  0  0  0  0  0  0  0  0  0
   69.6505   39.8011   59.2680 C   0  0  0  0  0  0  0  0  0  0  0  0
   68.9322   39.8305   57.9463 C   0  0  0  0  0  0  0  0  0  0  0  0
   67.0812   42.0666   56.0565 C   0  0  0  0  0  0  0  0  0  0  0  0
   67.2786   40.8638   55.3805 F   0  0  0  0  0  0  0  0  0  0  0  0
   66.9410   43.0917   55.1385 F   0  0  0  0  0  0  0  0  0  0  0  0
   65.9822   41.9914   56.8987 F   0  0  0  0  0  0  0  0  0  0  0  0
   71.1007   46.6048   58.2456 O   0  0  0  0  0  0  0  0  0  0  0  0
   70.4986   45.5669   57.8836 C   0  0  0  0  0  0  0  0  0  0  0  0
   69.4495   45.6961   56.9380 N   0  0  0  0  0  0  0  0  0  0  0  0
   69.0047   46.9326   56.3412 C   0  0  0  0  0  0  0  0  0  0  0  0
   68.7622   46.8340   54.8993 C   0  0  0  0  0  0  0  0  0  0  0  0
   68.0236   45.8066   54.3737 C   0  0  0  0  0  0  0  0  0  0  0  0
   67.7770   45.7028   53.0122 C   0  0  0  0  0  0  0  0  0  0  0  0
   68.2772   46.6473   52.1414 C   0  0  0  0  0  0  0  0  0  0  0  0
   68.0119   46.5046   50.8315 F   0  0  0  0  0  0  0  0  0  0  0  0
   69.0190   47.6812   52.6506 C   0  0  0  0  0  0  0  0  0  0  0  0
   69.2639   47.7812   54.0188 C   0  0  0  0  0  0  0  0  0  0  0  0
 14 15  2  0
 15  1  1  0
 15 16  1  0
  1  2  1  0
  2  3  1  0
  2  6  1  0
  3  4  2  0
  4 10  1  0
  4  5  1  0
 10 11  1  0
 10 12  1  0
 10 13  1  0
  5  6  2  0
  5  9  1  0
  6  7  1  0
  7  8  1  0
  8  9  1  0
 16 17  1  0
 17 18  1  0
 18 19  2  0
 18 24  1  0
 19 20  1  0
 20 21  2  0
 21 22  1  0
 21 23  1  0
 23 24  2  0
M  END
>  <minimizedAffinity>  (386) 
-8.66019

$$$$
data/200k_reference_output/data/smiles/38813.pdb
     RDKit          3D

 21 22  0  0  0  0  0  0  0  0999 V2000
   67.5335   45.3406   51.7087 C   0  0  0  0  0  0  0  0  0  0  0  0
   68.3176   46.4453   52.2775 C   0  0  0  0  0  0  0  0  0  0  0  0
   68.8319   47.3929   51.4751 N   0  0  0  0  0  0  0  0  0  0  0  0
   69.5614   48.4365   51.9292 C   0  0  0  0  0  0  0  0  0  0  0  0
   70.0148   49.2999   51.1177 O   0  0  0  0  0  0  0  0  0  0  0  0
   69.8397   48.6108   53.2651 C   0  0  0  0  0  0  0  0  0  0  0  0
   69.3211   47.6473   54.1186 C   0  0  0  0  0  0  0  0  0  0  0  0
   68.5687   46.5784   53.6289 C   0  0  0  0  0  0  0  0  0  0  0  0
   68.0272   45.5735   54.5238 C   0  0  0  0  0  0  0  0  0  0  0  0
   67.9789   45.8215   55.7548 O   0  0  0  0  0  0  0  0  0  0  0  0
   67.5592   44.3518   54.0910 O   0  0  0  0  0  0  0  0  0  0  0  0
   70.6463   49.6856   53.8211 C   0  0  0  0  0  0  0  0  0  0  0  0
   71.8939   49.7030   53.5339 O   0  0  0  0  0  0  0  0  0  0  0  0
   70.0712   50.7101   54.6709 C   0  0  0  0  0  0  0  0  0  0  0  0
   69.0172   50.5209   55.5316 C   0  0  0  0  0  0  0  0  0  0  0  0
   68.5151   51.5906   56.2848 C   0  0  0  0  0  0  0  0  0  0  0  0
   67.1702   51.3105   57.3725 Cl  0  0  0  0  0  0  0  0  0  0  0  0
   69.0394   52.8620   56.2032 C   0  0  0  0  0  0  0  0  0  0  0  0
   70.0969   53.0580   55.3407 C   0  0  0  0  0  0  0  0  0  0  0  0
   70.5922   51.9990   54.5966 C   0  0  0  0  0  0  0  0  0  0  0  0
   71.6566   52.2042   53.7302 O   0  0  0  0  0  0  0  0  0  0  0  0
  1  2  1  0
  2  3  1  0
  2  8  2  0
  3  4  1  0
  4  5  2  0
  4  6  1  0
  6 12  1  0
  6  7  2  0
 12 13  2  0
 12 14  1  0
 14 15  2  0
 14 20  1  0
 15 16  1  0
 16 17  1  0
 16 18  2  0
 18 19  1  0
 19 20  2  0
 20 21  1  0
  7  8  1  0
  8  9  1  0
  9 10  2  0
  9 11  1  0
M  END
>  <minimizedAffinity>  (387) 
-8.65905

$$$$
data/reference_output_2/data/smiles/142952.pdb
     RDKit          3D

 23 24  0  0  0  0  0  0  0  0999 V2000
   71.1854   46.3554   58.2338 O   0  0  0  0  0  0  0  0  0  0  0  0
   70.4626   45.4050   57.8255 C   0  0  0  0  0  0  0  0  0  0  0  0
   69.3972   45.7066   56.9599 N   0  0  0  0  0  0  0  0  0  0  0  0
   70.7829   44.0446   58.2853 C   0  0  0  0  0  0  0  0  0  0  0  0
   69.6186   43.1852   58.3737 N   0  0  0  0  0  0  0  0  0  0  0  0
   69.0251   42.7101   57.2734 C   0  0  0  0  0  0  0  0  0  0  0  0
   67.9278   41.8837   57.2735 C   0  0  0  0  0  0  0  0  0  0  0  0
   67.4057   41.5247   58.4959 C   0  0  0  0  0  0  0  0  0  0  0  0
   68.0165   42.0153   59.6488 C   0  0  0  0  0  0  0  0  0  0  0  0
   69.1142   42.8386   59.5657 C   0  0  0  0  0  0  0  0  0  0  0  0
   69.6225   43.2504   60.6537 O   0  0  0  0  0  0  0  0  0  0  0  0
   67.3242   41.3895   56.0265 C   0  0  0  0  0  0  0  0  0  0  0  0
   66.4366   42.0667   55.4475 O   0  0  0  0  0  0  0  0  0  0  0  0
   67.6948   40.1921   55.4497 O   0  0  0  0  0  0  0  0  0  0  0  0
   69.0279   47.0135   56.4714 C   0  0  0  0  0  0  0  0  0  0  0  0
   68.7836   46.9116   55.0194 C   0  0  0  0  0  0  0  0  0  0  0  0
   68.0648   45.8637   54.4931 C   0  0  0  0  0  0  0  0  0  0  0  0
   67.8620   45.7728   53.1100 C   0  0  0  0  0  0  0  0  0  0  0  0
   68.4008   46.7590   52.3070 C   0  0  0  0  0  0  0  0  0  0  0  0
   68.2164   46.6929   50.9500 F   0  0  0  0  0  0  0  0  0  0  0  0
   69.1233   47.8149   52.8271 C   0  0  0  0  0  0  0  0  0  0  0  0
   69.8067   49.0619   51.7916 Cl  0  0  0  0  0  0  0  0  0  0  0  0
   69.3095   47.8809   54.1948 C   0  0  0  0  0  0  0  0  0  0  0  0
  1  2  2  0
  2  4  1  0
  2  3  1  0
  4  5  1  0
  5  6  1  0
  5 10  1  0
  6  7  2  0
  7 12  1  0
  7  8  1  0
 12 13  2  0
 12 14  1  0
  8  9  2  0
  9 10  1  0
 10 11  2  0
  3 15  1  0
 15 16  1  0
 16 17  2  0
 16 23  1  0
 17 18  1  0
 18 19  2  0
 19 20  1  0
 19 21  1  0
 21 22  1  0
 21 23  2  0
M  END
>  <minimizedAffinity>  (388) 
-8.65800

$$$$
data/200k_reference_output/data/smiles/20738.pdb
     RDKit          3D

 25 27  0  0  0  0  0  0  0  0999 V2000
   69.5241   46.6677   57.0898 C   0  0  0  0  0  0  0  0  0  0  0  0
   70.4735   47.3493   57.8015 C   0  0  0  0  0  0  0  0  0  0  0  0
   71.4373   46.6289   58.4520 C   0  0  0  0  0  0  0  0  0  0  0  0
   71.4314   45.2577   58.3794 C   0  0  0  0  0  0  0  0  0  0  0  0
   70.4890   44.5480   57.6709 C   0  0  0  0  0  0  0  0  0  0  0  0
   69.5279   45.2935   57.0234 C   0  0  0  0  0  0  0  0  0  0  0  0
   70.5489   43.0804   57.6403 C   0  0  2  0  0  0  0  0  0  0  0  0
   69.6483   42.5024   56.7838 O   0  0  0  0  0  0  0  0  0  0  0  0
   68.7710   41.6217   57.2974 C   0  0  1  0  0  0  0  0  0  0  0  0
   68.1692   41.9744   58.6238 C   0  0  1  0  0  0  0  0  0  0  0  0
   67.5571   40.8260   59.1263 O   0  0  0  0  0  0  0  0  0  0  0  0
   69.1856   42.4152   59.6419 C   0  0  2  0  0  0  0  0  0  0  0  0
   68.7618   43.6071   60.2093 O   0  0  0  0  0  0  0  0  0  0  0  0
   70.5346   42.5656   59.0385 C   0  0  1  0  0  0  0  0  0  0  0  0
   71.2736   41.3679   59.1269 O   0  0  0  0  0  0  0  0  0  0  0  0
   67.6035   41.4864   56.3083 C   0  0  0  0  0  0  0  0  0  0  0  0
   67.6880   40.3162   55.5841 O   0  0  0  0  0  0  0  0  0  0  0  0
   68.4455   47.4039   56.3572 C   0  0  0  0  0  0  0  0  0  0  0  0
   70.1229   48.5660   51.8220 C   0  0  0  0  0  0  0  0  0  0  0  0
   69.3400   47.7105   52.7389 C   0  0  0  0  0  0  0  0  0  0  0  0
   68.6650   46.6290   52.2000 C   0  0  0  0  0  0  0  0  0  0  0  0
   67.9228   45.7995   52.9968 C   0  0  0  0  0  0  0  0  0  0  0  0
   67.8613   46.0710   54.3696 C   0  0  0  0  0  0  0  0  0  0  0  0
   68.5240   47.1384   54.9135 C   0  0  0  0  0  0  0  0  0  0  0  0
   69.2588   47.9537   54.1027 C   0  0  0  0  0  0  0  0  0  0  0  0
 19 20  1  0
 20 21  2  0
 20 25  1  0
 21 22  1  0
 22 23  2  0
 23 24  1  0
 24 18  1  0
 24 25  2  0
 18  1  1  0
  1  2  2  0
  1  6  1  0
  2  3  1  0
  3  4  2  0
  4  5  1  0
  7  5  1  1
  5  6  2  0
  7  8  1  0
  7 14  1  0
  8  9  1  0
  9 16  1  6
  9 10  1  0
 16 17  1  0
 10 11  1  1
 10 12  1  0
 12 13  1  6
 12 14  1  0
 14 15  1  6
M  END
>  <minimizedAffinity>  (389) 
-8.65752

$$$$
data/200k_reference_output/data/smiles/50107.pdb
     RDKit          3D

 24 26  0  0  0  0  0  0  0  0999 V2000
   69.0458   48.0192   56.3859 C   0  0  0  0  0  0  0  0  0  0  0  0
   69.4019   48.2282   55.0000 N   0  0  0  0  0  0  0  0  0  0  0  0
   70.2622   49.2225   54.6325 C   0  0  0  0  0  0  0  0  0  0  0  0
   70.7281   49.9463   55.5485 O   0  0  0  0  0  0  0  0  0  0  0  0
   70.6128   49.4423   53.3531 N   0  0  0  0  0  0  0  0  0  0  0  0
   70.1243   48.6789   52.3602 C   0  0  0  0  0  0  0  0  0  0  0  0
   70.4661   48.9050   51.1871 O   0  0  0  0  0  0  0  0  0  0  0  0
   69.2520   47.6629   52.6928 C   0  0  0  0  0  0  0  0  0  0  0  0
   68.7612   46.8892   51.6638 C   0  0  0  0  0  0  0  0  0  0  0  0
   67.8965   45.8744   51.9547 C   0  0  0  0  0  0  0  0  0  0  0  0
   67.5381   45.6481   53.2586 C   0  0  0  0  0  0  0  0  0  0  0  0
   68.0418   46.4365   54.2728 C   0  0  0  0  0  0  0  0  0  0  0  0
   68.9189   47.4696   54.0028 C   0  0  0  0  0  0  0  0  0  0  0  0
   70.2171   47.4929   57.1927 C   0  0  0  0  0  0  0  0  0  0  0  0
   69.7376   45.7739   58.8073 O   0  0  0  0  0  0  0  0  0  0  0  0
   69.9597   46.0796   57.6001 C   0  0  0  0  0  0  0  0  0  0  0  0
   69.9490   45.0125   56.6657 N   0  0  0  0  0  0  0  0  0  0  0  0
   69.7000   43.6817   57.0884 C   0  0  0  0  0  0  0  0  0  0  0  0
   70.5822   43.0660   57.9793 C   0  0  0  0  0  0  0  0  0  0  0  0
   70.3292   41.7725   58.3827 C   0  0  0  0  0  0  0  0  0  0  0  0
   69.2158   41.1065   57.9043 C   0  0  0  0  0  0  0  0  0  0  0  0
   68.3749   41.7386   57.0345 C   0  0  0  0  0  0  0  0  0  0  0  0
   68.5861   43.0424   56.5972 C   0  0  0  0  0  0  0  0  0  0  0  0
   67.7339   43.6544   55.7280 F   0  0  0  0  0  0  0  0  0  0  0  0
 15 16  2  0
 16 14  1  0
 16 17  1  0
 14  1  1  0
  1  2  1  0
  2  3  1  0
  2 13  1  0
  3  4  2  0
  3  5  1  0
  5  6  1  0
  6  7  2  0
  6  8  1  0
  8  9  1  0
  8 13  2  0
  9 10  2  0
 10 11  1  0
 11 12  2  0
 12 13  1  0
 17 18  1  0
 18 19  2  0
 18 23  1  0
 19 20  1  0
 20 21  2  0
 21 22  1  0
 22 23  2  0
 23 24  1  0
M  END
>  <minimizedAffinity>  (390) 
-8.65640

$$$$
data/reference_output_2/data/smiles/104426.pdb
     RDKit          3D

 24 25  0  0  0  0  0  0  0  0999 V2000
   73.8544   50.2325   53.8844 O   0  0  0  0  0  0  0  0  0  0  0  0
   73.5958   51.2071   54.4525 C   0  0  0  0  0  0  0  0  0  0  0  0
   74.7309   51.6485   55.6895 N   0  0  0  0  0  0  0  0  0  0  0  0
   75.6117   50.4307   55.5094 C   0  0  0  0  0  0  0  0  0  0  0  0
   75.6556   49.6053   54.7124 O   0  0  0  0  0  0  0  0  0  0  0  0
   76.5638   50.4157   56.6605 N   0  0  0  0  0  0  0  0  0  0  0  0
   77.5560   49.4091   56.6712 C   0  0  0  0  0  0  0  0  0  0  0  0
   78.4626   49.4752   55.4986 C   0  0  0  0  0  0  0  0  0  0  0  0
   79.8934   49.1583   55.9342 C   0  0  0  0  0  0  0  0  0  0  0  0
   79.9511   47.9071   56.7650 C   0  0  0  0  0  0  0  0  0  0  0  0
   79.0326   47.9833   57.9444 C   0  0  0  0  0  0  0  0  0  0  0  0
   78.3705   49.3432   57.9673 C   0  0  0  0  0  0  0  0  0  0  0  0
   72.5250   52.1841   54.4088 C   0  0  0  0  0  0  0  0  0  0  0  0
   71.4643   51.8308   53.5730 O   0  0  0  0  0  0  0  0  0  0  0  0
   70.1778   51.6551   54.0417 C   0  0  0  0  0  0  0  0  0  0  0  0
   69.6694   52.5639   54.7421 O   0  0  0  0  0  0  0  0  0  0  0  0
   69.4603   50.4529   53.7272 C   0  0  0  0  0  0  0  0  0  0  0  0
   69.9359   49.2408   53.7210 C   0  0  0  0  0  0  0  0  0  0  0  0
   69.1970   48.0220   53.3970 C   0  0  0  0  0  0  0  0  0  0  0  0
   68.5950   47.2458   54.3568 C   0  0  0  0  0  0  0  0  0  0  0  0
   67.9090   46.1058   54.0082 C   0  0  0  0  0  0  0  0  0  0  0  0
   67.7922   45.6912   52.7099 C   0  0  0  0  0  0  0  0  0  0  0  0
   68.3901   46.4576   51.7251 C   0  0  0  0  0  0  0  0  0  0  0  0
   69.0690   47.5928   52.0969 C   0  0  0  0  0  0  0  0  0  0  0  0
  1  2  2  0
  2 13  1  0
  2  3  1  0
 13 14  1  0
 14 15  1  0
 15 16  2  0
 15 17  1  0
 17 18  2  0
 18 19  1  0
 19 20  2  0
 19 24  1  0
 20 21  1  0
 21 22  2  0
 22 23  1  0
 23 24  2  0
  3  4  1  0
  4  5  2  0
  4  6  1  0
  6  7  1  0
  7  8  1  0
  7 12  1  0
  8  9  1  0
  9 10  1  0
 10 11  1  0
 11 12  1  0
M  END
>  <minimizedAffinity>  (391) 
-8.65606

$$$$
data/200k_reference_output/data/smiles/46904.pdb
     RDKit          3D

 23 25  0  0  0  0  0  0  0  0999 V2000
   69.6414   46.6014   58.0629 O   0  0  0  0  0  0  0  0  0  0  0  0
   69.4238   47.1741   56.8282 C   0  0  0  0  0  0  0  0  0  0  0  0
   69.7475   48.3674   56.6250 O   0  0  0  0  0  0  0  0  0  0  0  0
   68.8211   46.4197   55.7494 C   0  0  0  0  0  0  0  0  0  0  0  0
   68.1534   45.2332   55.8746 N   0  0  0  0  0  0  0  0  0  0  0  0
   67.7541   44.8595   54.6834 N   0  0  0  0  0  0  0  0  0  0  0  0
   68.1085   45.7237   53.7407 C   0  0  0  0  0  0  0  0  0  0  0  0
   67.9529   45.8202   52.3709 C   0  0  0  0  0  0  0  0  0  0  0  0
   68.4733   46.9046   51.6760 C   0  0  0  0  0  0  0  0  0  0  0  0
   69.1569   47.9082   52.3395 C   0  0  0  0  0  0  0  0  0  0  0  0
   69.3146   47.8180   53.7021 C   0  0  0  0  0  0  0  0  0  0  0  0
   68.7900   46.7247   54.3993 C   0  0  0  0  0  0  0  0  0  0  0  0
   70.6741   45.6439   58.2537 C   0  0  0  0  0  0  0  0  0  0  0  0
   69.5684   43.9329   59.3918 O   0  0  0  0  0  0  0  0  0  0  0  0
   70.2273   44.2569   58.3424 C   0  0  0  0  0  0  0  0  0  0  0  0
   70.4339   43.2252   57.4096 N   0  0  0  0  0  0  0  0  0  0  0  0
   69.9167   41.9094   57.6672 C   0  0  0  0  0  0  0  0  0  0  0  0
   70.6544   40.9694   58.3548 C   0  0  0  0  0  0  0  0  0  0  0  0
   70.1586   39.7048   58.6028 C   0  0  0  0  0  0  0  0  0  0  0  0
   68.8954   39.3445   58.1632 C   0  0  0  0  0  0  0  0  0  0  0  0
   68.1538   40.2703   57.4796 C   0  0  0  0  0  0  0  0  0  0  0  0
   68.6597   41.5372   57.2353 C   0  0  0  0  0  0  0  0  0  0  0  0
   67.8686   42.3974   56.5528 F   0  0  0  0  0  0  0  0  0  0  0  0
 14 15  2  0
 15 13  1  0
 15 16  1  0
 13  1  1  0
  1  2  1  0
  2  3  2  0
  2  4  1  0
  4  5  1  0
  4 12  2  0
  5  6  1  0
  6  7  2  0
  7  8  1  0
  7 12  1  0
  8  9  2  0
  9 10  1  0
 10 11  2  0
 11 12  1  0
 16 17  1  0
 17 18  2  0
 17 22  1  0
 18 19  1  0
 19 20  2  0
 20 21  1  0
 21 22  2  0
 22 23  1  0
M  END
>  <minimizedAffinity>  (392) 
-8.65458

$$$$
data/200k_reference_output/data/smiles/16523.pdb
     RDKit          3D

 25 28  0  0  0  0  0  0  0  0999 V2000
   69.7017   43.2368   57.2299 C   0  0  1  0  0  0  0  0  0  0  0  0
   70.5497   42.7494   58.3634 C   0  0  0  0  0  0  0  0  0  0  0  0
   70.4430   41.3127   58.3922 N   0  0  0  0  0  0  0  0  0  0  0  0
   71.2931   40.2736   58.4611 C   0  0  0  0  0  0  0  0  0  0  0  0
   70.5645   39.1025   58.4589 C   0  0  0  0  0  0  0  0  0  0  0  0
   69.2871   39.4995   58.3857 N   0  0  0  0  0  0  0  0  0  0  0  0
   69.1852   40.8194   58.3441 C   0  0  0  0  0  0  0  0  0  0  0  0
   68.1108   41.8644   58.2550 C   0  0  0  0  0  0  0  0  0  0  0  0
   68.4137   42.8047   57.2799 O   0  0  0  0  0  0  0  0  0  0  0  0
   71.0778   37.7493   58.5219 C   0  0  0  0  0  0  0  0  0  0  0  0
   70.6664   36.8439   59.4887 C   0  0  0  0  0  0  0  0  0  0  0  0
   71.1538   35.5499   59.5476 C   0  0  0  0  0  0  0  0  0  0  0  0
   72.0827   35.1049   58.6336 C   0  0  0  0  0  0  0  0  0  0  0  0
   72.5003   36.0021   57.6619 C   0  0  0  0  0  0  0  0  0  0  0  0
   72.0098   37.2949   57.6081 C   0  0  0  0  0  0  0  0  0  0  0  0
   69.6952   44.7304   57.0586 C   0  0  0  0  0  0  0  0  0  0  0  0
   68.5314   45.1998   56.3415 N   0  0  0  0  0  0  0  0  0  0  0  0
   68.7688   46.4977   55.7279 C   0  0  0  0  0  0  0  0  0  0  0  0
   69.7248   48.6844   54.0284 C   0  0  0  0  0  0  0  0  0  0  0  0
   69.0000   47.5247   53.5278 C   0  0  0  0  0  0  0  0  0  0  0  0
   68.7610   47.4762   52.1582 C   0  0  0  0  0  0  0  0  0  0  0  0
   68.0886   46.4318   51.5576 C   0  0  0  0  0  0  0  0  0  0  0  0
   67.6492   45.4114   52.3875 C   0  0  0  0  0  0  0  0  0  0  0  0
   67.8926   45.4849   53.7044 N   0  0  0  0  0  0  0  0  0  0  0  0
   68.5504   46.5048   54.2923 C   0  0  0  0  0  0  0  0  0  0  0  0
 19 20  1  0
 20 21  2  0
 20 25  1  0
 21 22  1  0
 22 23  2  0
 23 24  1  0
 24 25  2  0
 25 18  1  0
 18 17  1  0
 17 16  1  0
  1 16  1  1
  1  2  1  0
  1  9  1  0
  2  3  1  0
  3  4  1  0
  3  7  1  0
  4  5  2  0
  5 10  1  0
  5  6  1  0
 10 11  2  0
 10 15  1  0
 11 12  1  0
 12 13  2  0
 13 14  1  0
 14 15  2  0
  6  7  2  0
  7  8  1  0
  8  9  1  0
M  CHG  1  17   1
M  END
>  <minimizedAffinity>  (393) 
-8.65442

$$$$
data/reference_output_2/data/smiles/130568.pdb
     RDKit          3D

 22 24  0  0  0  0  0  0  0  0999 V2000
   68.9682   45.8597   56.2310 C   0  0  0  0  0  0  0  0  0  0  0  0
   69.9723   45.9452   57.0052 O   0  0  0  0  0  0  0  0  0  0  0  0
   68.3763   44.6087   56.0349 N   0  0  0  0  0  0  0  0  0  0  0  0
   68.8938   43.4380   56.6968 C   0  0  0  0  0  0  0  0  0  0  0  0
   70.2120   43.2627   57.0483 N   0  0  0  0  0  0  0  0  0  0  0  0
   70.6074   42.2010   57.6332 C   0  0  0  0  0  0  0  0  0  0  0  0
   69.6649   41.1777   57.9296 C   0  0  0  0  0  0  0  0  0  0  0  0
   68.1730   42.0204   57.2255 S   0  0  0  0  0  0  0  0  0  0  0  0
   72.0483   41.9764   58.0322 C   0  0  0  0  0  0  0  0  0  0  0  0
   72.4086   40.9846   58.9016 C   0  0  0  0  0  0  0  0  0  0  0  0
   73.7310   40.7803   59.2662 C   0  0  0  0  0  0  0  0  0  0  0  0
   74.6737   41.5985   58.7341 N   0  0  0  0  0  0  0  0  0  0  0  0
   74.3540   42.5763   57.8813 C   0  0  0  0  0  0  0  0  0  0  0  0
   73.0115   42.7773   57.5172 C   0  0  0  0  0  0  0  0  0  0  0  0
   68.5011   47.1148   55.5901 C   0  0  0  0  0  0  0  0  0  0  0  0
   70.3370   48.7831   51.3189 N   0  0  0  0  0  0  0  0  0  0  0  0
   69.5031   47.9078   52.0499 C   0  0  0  0  0  0  0  0  0  0  0  0
   68.7336   46.9689   51.3860 C   0  0  0  0  0  0  0  0  0  0  0  0
   67.8983   46.0847   52.0386 C   0  0  0  0  0  0  0  0  0  0  0  0
   67.8301   46.1412   53.4149 C   0  0  0  0  0  0  0  0  0  0  0  0
   68.5849   47.0668   54.1276 C   0  0  0  0  0  0  0  0  0  0  0  0
   69.4052   47.9302   53.4324 C   0  0  0  0  0  0  0  0  0  0  0  0
 16 17  1  0
 17 18  2  0
 17 22  1  0
 18 19  1  0
 19 20  2  0
 20 21  1  0
 21 15  1  0
 21 22  2  0
 15  1  1  0
  1  2  2  0
  1  3  1  0
  3  4  1  0
  4  5  2  0
  4  8  1  0
  5  6  1  0
  6  9  1  0
  6  7  2  0
  9 10  2  0
  9 14  1  0
 10 11  1  0
 11 12  2  0
 12 13  1  0
 13 14  2  0
  7  8  1  0
M  END
>  <minimizedAffinity>  (394) 
-8.65430

$$$$
data/reference_output_2/data/smiles/134097.pdb
     RDKit          3D

 24 27  0  0  0  0  0  0  0  0999 V2000
   69.5599   50.5517   54.5070 N   0  0  0  0  0  0  0  0  0  0  0  0
   68.8482   51.8040   54.3781 C   0  0  0  0  0  0  0  0  0  0  0  0
   68.7835   52.3979   55.7671 C   0  0  0  0  0  0  0  0  0  0  0  0
   69.3169   51.3325   56.6543 C   0  0  0  0  0  0  0  0  0  0  0  0
   69.4171   51.2707   58.0274 C   0  0  0  0  0  0  0  0  0  0  0  0
   69.9500   50.1815   58.6811 C   0  0  0  0  0  0  0  0  0  0  0  0
   70.3996   49.1110   57.9399 C   0  0  0  0  0  0  0  0  0  0  0  0
   70.2942   49.1843   56.5685 C   0  0  0  0  0  0  0  0  0  0  0  0
   69.7651   50.2635   55.8834 C   0  0  0  0  0  0  0  0  0  0  0  0
   70.9589   47.9460   58.5473 N   0  0  0  0  0  0  0  0  0  0  0  0
   72.0031   48.1397   59.5201 C   0  0  0  0  0  0  0  0  0  0  0  0
   72.2576   46.9849   60.4256 C   0  0  0  0  0  0  0  0  0  0  0  0
   71.5117   45.7970   60.0743 N   0  0  0  0  0  0  0  0  0  0  0  0
   71.4517   45.6143   58.6349 C   0  0  0  0  0  0  0  0  0  0  0  0
   70.4417   46.6585   58.1412 C   0  0  0  0  0  0  0  0  0  0  0  0
   71.5277   49.2623   53.2472 O   0  0  0  0  0  0  0  0  0  0  0  0
   70.0637   49.5911   53.1655 S   0  0  0  0  0  0  0  0  0  0  0  0
   69.8694   50.3455   51.8619 O   0  0  0  0  0  0  0  0  0  0  0  0
   69.1815   48.0865   53.0895 C   0  0  0  0  0  0  0  0  0  0  0  0
   69.0013   47.4589   51.8777 C   0  0  0  0  0  0  0  0  0  0  0  0
   68.3043   46.2699   51.8136 C   0  0  0  0  0  0  0  0  0  0  0  0
   67.7687   45.6696   52.9395 C   0  0  0  0  0  0  0  0  0  0  0  0
   67.9697   46.3267   54.1328 C   0  0  0  0  0  0  0  0  0  0  0  0
   68.6605   47.5135   54.2234 C   0  0  0  0  0  0  0  0  0  0  0  0
 16 17  2  0
 17 18  2  0
 17 19  1  0
 17  1  1  0
 19 20  2  0
 19 24  1  0
 20 21  1  0
 21 22  2  0
 22 23  1  0
 23 24  2  0
  1  2  1  0
  1  9  1  0
  2  3  1  0
  3  4  1  0
  4  5  1  0
  4  9  2  0
  5  6  2  0
  6  7  1  0
  7 10  1  0
  7  8  2  0
 10 11  1  0
 10 15  1  0
 11 12  1  0
 12 13  1  0
 13 14  1  0
 14 15  1  0
  8  9  1  0
M  CHG  1  13   1
M  END
>  <minimizedAffinity>  (395) 
-8.65230

$$$$
data/reference_output_2/data/smiles/96402.pdb
     RDKit          3D

 23 26  0  0  0  0  0  0  0  0999 V2000
   69.9542   43.4788   57.8505 C   0  0  0  0  0  0  0  0  0  0  0  0
   70.9713   43.7298   58.7420 C   0  0  0  0  0  0  0  0  0  0  0  0
   71.4062   45.0287   58.8909 C   0  0  0  0  0  0  0  0  0  0  0  0
   70.7852   45.9958   58.1289 C   0  0  0  0  0  0  0  0  0  0  0  0
   70.9546   47.3146   58.0963 N   0  0  0  0  0  0  0  0  0  0  0  0
   70.1314   47.8412   57.2667 N   0  0  0  0  0  0  0  0  0  0  0  0
   69.3539   46.8546   56.6928 C   0  0  0  0  0  0  0  0  0  0  0  0
   69.7827   45.7252   57.2508 N   0  0  0  0  0  0  0  0  0  0  0  0
   69.4192   44.4822   57.1576 N   0  0  0  0  0  0  0  0  0  0  0  0
   68.2667   39.6002   57.4338 C   0  0  0  0  0  0  0  0  0  0  0  0
   69.3056   39.7745   58.3005 C   0  0  0  0  0  0  0  0  0  0  0  0
   69.8559   41.0442   58.4195 C   0  0  0  0  0  0  0  0  0  0  0  0
   69.3966   42.1368   57.6996 C   0  0  0  0  0  0  0  0  0  0  0  0
   68.3463   41.9529   56.8242 C   0  0  0  0  0  0  0  0  0  0  0  0
   67.8021   40.6774   56.7116 C   0  0  0  0  0  0  0  0  0  0  0  0
   68.2960   47.2264   55.7847 C   0  0  0  0  0  0  0  0  0  0  0  0
   68.1104   46.6066   54.4717 C   0  0  0  0  0  0  0  0  0  0  0  0
   68.8469   47.2013   53.3478 C   0  0  0  0  0  0  0  0  0  0  0  0
   69.3598   48.5022   53.5566 C   0  0  0  0  0  0  0  0  0  0  0  0
   70.0341   49.1347   52.5648 C   0  0  0  0  0  0  0  0  0  0  0  0
   70.2002   48.4888   51.3761 C   0  0  0  0  0  0  0  0  0  0  0  0
   69.7191   47.2615   51.1713 N   0  0  0  0  0  0  0  0  0  0  0  0
   69.0462   46.6304   52.1607 C   0  0  0  0  0  0  0  0  0  0  0  0
 10 11  2  0
 10 15  1  0
 11 12  1  0
 12 13  2  0
 13  1  1  0
 13 14  1  0
  1  2  1  0
  1  9  2  0
  2  3  2  0
  3  4  1  0
  4  5  2  0
  4  8  1  0
  5  6  1  0
  6  7  2  0
  7 16  1  0
  7  8  1  0
 16 17  1  0
 17 18  1  0
 18 19  2  0
 18 23  1  0
 19 20  1  0
 20 21  2  0
 21 22  1  0
 22 23  2  0
  8  9  1  0
 14 15  2  0
M  END
>  <minimizedAffinity>  (396) 
-8.65103

$$$$
data/200k_reference_output/data/smiles/4284.pdb
     RDKit          3D

 23 25  0  0  0  0  0  0  0  0999 V2000
   69.1891   45.3196   56.3311 C   0  0  0  0  0  0  0  0  0  0  0  0
   69.2069   43.9357   56.7925 N   0  0  0  0  0  0  0  0  0  0  0  0
   68.2148   42.9610   56.3565 C   0  0  0  0  0  0  0  0  0  0  0  0
   67.2777   43.2139   55.5485 O   0  0  0  0  0  0  0  0  0  0  0  0
   68.5091   41.6985   57.0106 C   0  0  0  0  0  0  0  0  0  0  0  0
   67.8748   40.4534   56.9418 C   0  0  0  0  0  0  0  0  0  0  0  0
   68.3563   39.4045   57.6671 C   0  0  0  0  0  0  0  0  0  0  0  0
   69.4611   39.5460   58.4724 C   0  0  0  0  0  0  0  0  0  0  0  0
   70.1024   40.7707   58.5532 C   0  0  0  0  0  0  0  0  0  0  0  0
   69.6138   41.8294   57.8193 C   0  0  0  0  0  0  0  0  0  0  0  0
   70.0411   43.2398   57.6726 C   0  0  0  0  0  0  0  0  0  0  0  0
   71.0400   43.6905   58.2927 O   0  0  0  0  0  0  0  0  0  0  0  0
   68.0674   45.5717   55.4838 N   0  0  0  0  0  0  0  0  0  0  0  0
   69.1962   47.5093   52.5177 C   0  0  0  0  0  0  0  0  0  0  0  0
   68.4737   46.9323   51.4969 C   0  0  0  0  0  0  0  0  0  0  0  0
   67.6256   45.9047   51.7678 C   0  0  0  0  0  0  0  0  0  0  0  0
   67.4945   45.4454   53.0750 C   0  0  0  0  0  0  0  0  0  0  0  0
   68.1852   45.9773   54.1349 C   0  0  0  0  0  0  0  0  0  0  0  0
   69.0466   47.0359   53.7952 C   0  0  0  0  0  0  0  0  0  0  0  0
   70.1255   48.6300   52.2408 C   0  0  0  0  0  0  0  0  0  0  0  0
   70.0622   49.2495   51.1600 O   0  0  0  0  0  0  0  0  0  0  0  0
   70.8314   50.1058   54.0661 C   0  0  0  0  0  0  0  0  0  0  0  0
   71.0785   49.0097   53.1735 O   0  0  0  0  0  0  0  0  0  0  0  0
 22 23  1  0
 23 20  1  0
 20 21  2  0
 20 14  1  0
 14 15  2  0
 14 19  1  0
 15 16  1  0
 16 17  2  0
 17 18  1  0
 18 13  1  0
 18 19  2  0
 13  1  1  0
  1  2  1  0
  2  3  1  0
  2 11  1  0
  3  4  2  0
  3  5  1  0
  5  6  1  0
  5 10  2  0
  6  7  2  0
  7  8  1  0
  8  9  2  0
  9 10  1  0
 10 11  1  0
 11 12  2  0
M  END
>  <minimizedAffinity>  (397) 
-8.65089

$$$$
data/reference_output_2/data/smiles/131281.pdb
     RDKit          3D

 23 24  0  0  0  0  0  0  0  0999 V2000
   68.2636   42.5822   56.7355 C   0  0  0  0  0  0  0  0  0  0  0  0
   67.1786   42.5001   56.1283 O   0  0  0  0  0  0  0  0  0  0  0  0
   68.9002   43.8254   56.7771 N   0  0  0  0  0  0  0  0  0  0  0  0
   69.8793   39.0359   58.5954 C   0  0  0  0  0  0  0  0  0  0  0  0
   70.5414   40.2411   58.5934 C   0  0  0  0  0  0  0  0  0  0  0  0
   70.0032   41.3614   57.9921 C   0  0  0  0  0  0  0  0  0  0  0  0
   68.7755   41.3488   57.3562 C   0  0  0  0  0  0  0  0  0  0  0  0
   68.1071   40.1489   57.3536 C   0  0  0  0  0  0  0  0  0  0  0  0
   68.6563   39.0123   57.9650 C   0  0  0  0  0  0  0  0  0  0  0  0
   72.0081   35.8807   59.2254 C   0  0  0  0  0  0  0  0  0  0  0  0
   71.4375   37.1111   58.6019 C   0  0  0  0  0  0  0  0  0  0  0  0
   71.8541   37.5463   57.4793 O   0  0  0  0  0  0  0  0  0  0  0  0
   70.4086   37.8668   59.2071 N   0  0  0  0  0  0  0  0  0  0  0  0
   68.5597   45.0494   56.2583 N   0  0  0  0  0  0  0  0  0  0  0  0
   69.1324   46.3109   56.4247 C   0  0  0  0  0  0  0  0  0  0  0  0
   70.1309   46.4343   57.1572 O   0  0  0  0  0  0  0  0  0  0  0  0
   68.5755   47.5394   55.7409 C   0  0  0  0  0  0  0  0  0  0  0  0
   68.6129   47.2831   54.2839 C   0  0  0  0  0  0  0  0  0  0  0  0
   67.8309   46.3160   53.6898 C   0  0  0  0  0  0  0  0  0  0  0  0
   67.8866   46.0954   52.3104 C   0  0  0  0  0  0  0  0  0  0  0  0
   68.7254   46.8383   51.5011 C   0  0  0  0  0  0  0  0  0  0  0  0
   69.5048   47.8029   52.0959 C   0  0  0  0  0  0  0  0  0  0  0  0
   69.4507   48.0209   53.4563 C   0  0  0  0  0  0  0  0  0  0  0  0
 10 11  1  0
 11 12  2  0
 11 13  1  0
 13  4  1  0
  4  5  2  0
  4  9  1  0
  5  6  1  0
  6  7  2  0
  7  1  1  0
  7  8  1  0
  1  2  2  0
  1  3  1  0
  3 14  1  0
 14 15  1  0
 15 16  2  0
 15 17  1  0
 17 18  1  0
 18 19  2  0
 18 23  1  0
 19 20  1  0
 20 21  2  0
 21 22  1  0
 22 23  2  0
  8  9  2  0
M  END
>  <minimizedAffinity>  (398) 
-8.65070

$$$$
data/reference_output_2/data/smiles/195233.pdb
     RDKit          3D

 22 23  0  0  0  0  0  0  0  0999 V2000
   69.2479   45.9446   56.8330 C   0  0  0  0  0  0  0  0  0  0  0  0
   69.6016   44.5902   56.9138 C   0  0  0  0  0  0  0  0  0  0  0  0
   70.5882   44.1169   57.7401 C   0  0  0  0  0  0  0  0  0  0  0  0
   71.2838   45.0184   58.5491 C   0  0  0  0  0  0  0  0  0  0  0  0
   70.9583   46.3547   58.4909 C   0  0  0  0  0  0  0  0  0  0  0  0
   69.9611   46.7956   57.6471 C   0  0  0  0  0  0  0  0  0  0  0  0
   70.9156   42.7058   57.7867 C   0  0  0  0  0  0  0  0  0  0  0  0
   72.0218   42.2998   57.3731 O   0  0  0  0  0  0  0  0  0  0  0  0
   69.9987   41.8037   58.2923 O   0  0  0  0  0  0  0  0  0  0  0  0
   71.6871   47.2789   59.3343 C   0  0  0  0  0  0  0  0  0  0  0  0
   72.4057   48.1518   58.7998 O   0  0  0  0  0  0  0  0  0  0  0  0
   71.6217   47.2351   60.7150 O   0  0  0  0  0  0  0  0  0  0  0  0
   68.2284   46.3392   55.9338 N   0  0  0  0  0  0  0  0  0  0  0  0
   69.3514   47.7105   52.6594 C   0  0  0  0  0  0  0  0  0  0  0  0
   68.6549   46.8855   51.8022 C   0  0  0  0  0  0  0  0  0  0  0  0
   67.8299   45.8831   52.2907 C   0  0  0  0  0  0  0  0  0  0  0  0
   67.7143   45.7233   53.6559 C   0  0  0  0  0  0  0  0  0  0  0  0
   68.4066   46.5415   54.5561 C   0  0  0  0  0  0  0  0  0  0  0  0
   69.2105   47.5200   54.0257 C   0  0  0  0  0  0  0  0  0  0  0  0
   69.9518   49.3433   51.0658 O   0  0  0  0  0  0  0  0  0  0  0  0
   70.2162   48.7602   52.1422 C   0  0  0  0  0  0  0  0  0  0  0  0
   71.3372   49.1150   52.8427 O   0  0  0  0  0  0  0  0  0  0  0  0
 20 21  2  0
 21 22  1  0
 21 14  1  0
 14 15  2  0
 14 19  1  0
 15 16  1  0
 16 17  2  0
 17 18  1  0
 18 13  1  0
 18 19  2  0
 13  1  1  0
  1  2  2  0
  1  6  1  0
  2  3  1  0
  3  7  1  0
  3  4  2  0
  7  8  2  0
  7  9  1  0
  4  5  1  0
  5 10  1  0
  5  6  2  0
 10 11  2  0
 10 12  1  0
M  END
>  <minimizedAffinity>  (399) 
-8.64876

$$$$
data/reference_output_2/data/smiles/179187.pdb
     RDKit          3D

 23 25  0  0  0  0  0  0  0  0999 V2000
   69.9328   48.2700   53.9780 C   0  0  0  0  0  0  0  0  0  0  0  0
   68.1340   46.5726   53.6914 C   0  0  0  0  0  0  0  0  0  0  0  0
   67.3374   45.8815   52.8252 N   0  0  0  0  0  0  0  0  0  0  0  0
   67.4143   45.9983   51.5092 C   0  0  0  0  0  0  0  0  0  0  0  0
   66.6539   45.3382   50.7192 O   0  0  0  0  0  0  0  0  0  0  0  0
   68.3224   46.8416   50.9920 N   0  0  0  0  0  0  0  0  0  0  0  0
   69.1344   47.5507   51.7913 C   0  0  0  0  0  0  0  0  0  0  0  0
   69.9578   48.3180   51.2218 O   0  0  0  0  0  0  0  0  0  0  0  0
   69.0593   47.4344   53.1609 C   0  0  0  0  0  0  0  0  0  0  0  0
   67.4722   47.1557   55.8666 O   0  0  0  0  0  0  0  0  0  0  0  0
   67.9553   46.3212   55.0889 C   0  0  0  0  0  0  0  0  0  0  0  0
   68.3257   45.1062   55.6321 O   0  0  0  0  0  0  0  0  0  0  0  0
   69.5542   49.7559   53.9396 C   0  0  0  0  0  0  0  0  0  0  0  0
   70.7185   50.6101   54.3203 C   0  0  0  0  0  0  0  0  0  0  0  0
   71.9767   50.2620   53.9839 N   0  0  0  0  0  0  0  0  0  0  0  0
   73.0399   50.9916   54.3523 C   0  0  0  0  0  0  0  0  0  0  0  0
   72.9305   52.1444   55.0977 C   0  0  0  0  0  0  0  0  0  0  0  0
   71.6564   52.5418   55.4671 C   0  0  0  0  0  0  0  0  0  0  0  0
   71.5126   53.7066   56.2095 C   0  0  0  0  0  0  0  0  0  0  0  0
   70.2345   54.0821   56.5493 C   0  0  0  0  0  0  0  0  0  0  0  0
   69.1500   53.3270   56.1624 C   0  0  0  0  0  0  0  0  0  0  0  0
   69.3039   52.1755   55.4287 C   0  0  0  0  0  0  0  0  0  0  0  0
   70.5711   51.7647   55.0694 C   0  0  0  0  0  0  0  0  0  0  0  0
 10 11  2  0
 11 12  1  0
 11  2  1  0
  2  3  1  0
  2  9  2  0
  3  4  1  0
  4  5  2  0
  4  6  1  0
  6  7  1  0
  7  8  2  0
  7  9  1  0
  9  1  1  0
  1 13  1  0
 13 14  1  0
 14 15  2  0
 14 23  1  0
 15 16  1  0
 16 17  2  0
 17 18  1  0
 18 19  1  0
 18 23  2  0
 19 20  2  0
 20 21  1  0
 21 22  2  0
 22 23  1  0
M  END
>  <minimizedAffinity>  (400) 
-8.64750

$$$$
data/reference_output_2/data/smiles/112603.pdb
     RDKit          3D

 23 24  0  0  0  0  0  0  0  0999 V2000
   67.8119   41.8802   56.8178 C   0  0  0  0  0  0  0  0  0  0  0  0
   67.9130   41.1887   55.7413 O   0  0  0  0  0  0  0  0  0  0  0  0
   67.7299   43.2764   56.5961 N   0  0  0  0  0  0  0  0  0  0  0  0
   67.7532   43.8415   55.2971 N   0  0  0  0  0  0  0  0  0  0  0  0
   68.1431   45.1866   55.0647 C   0  0  0  0  0  0  0  0  0  0  0  0
   68.4663   45.8362   56.1086 O   0  0  0  0  0  0  0  0  0  0  0  0
   68.1874   45.8169   53.7664 C   0  0  0  0  0  0  0  0  0  0  0  0
   67.5122   45.3520   52.6665 C   0  0  0  0  0  0  0  0  0  0  0  0
   67.6041   46.0216   51.4339 C   0  0  0  0  0  0  0  0  0  0  0  0
   68.3484   47.1174   51.3163 N   0  0  0  0  0  0  0  0  0  0  0  0
   69.0231   47.6023   52.3680 C   0  0  0  0  0  0  0  0  0  0  0  0
   68.9455   46.9520   53.6059 C   0  0  0  0  0  0  0  0  0  0  0  0
   67.7961   41.1614   58.0757 C   0  0  0  0  0  0  0  0  0  0  0  0
   68.9913   40.7820   58.6418 O   0  0  0  0  0  0  0  0  0  0  0  0
   72.2030   37.1695   57.9662 C   0  0  0  0  0  0  0  0  0  0  0  0
   70.9922   37.7189   58.6488 C   0  0  0  0  0  0  0  0  0  0  0  0
   70.5607   38.9865   58.3275 C   0  0  0  0  0  0  0  0  0  0  0  0
   69.4481   39.5225   58.9393 C   0  0  0  0  0  0  0  0  0  0  0  0
   68.8056   38.7143   59.8798 C   0  0  0  0  0  0  0  0  0  0  0  0
   69.2397   37.4523   60.1970 C   0  0  0  0  0  0  0  0  0  0  0  0
   68.4955   36.6618   61.2116 C   0  0  0  0  0  0  0  0  0  0  0  0
   70.3539   36.9267   59.5792 C   0  0  0  0  0  0  0  0  0  0  0  0
   70.9250   35.3121   59.9709 Cl  0  0  0  0  0  0  0  0  0  0  0  0
 15 16  1  0
 16 17  2  0
 16 22  1  0
 17 18  1  0
 18 14  1  0
 18 19  2  0
 14 13  1  0
 13  1  1  0
  1  2  2  0
  1  3  1  0
  3  4  1  0
  4  5  1  0
  5  6  2  0
  5  7  1  0
  7  8  2  0
  7 12  1  0
  8  9  1  0
  9 10  2  0
 10 11  1  0
 11 12  2  0
 19 20  1  0
 20 21  1  0
 20 22  2  0
 22 23  1  0
M  END
>  <minimizedAffinity>  (401) 
-8.64721

$$$$
data/reference_output_2/data/smiles/91521.pdb
     RDKit          3D

 23 25  0  0  0  0  0  0  0  0999 V2000
   68.2764   45.9982   56.1179 O   0  0  0  0  0  0  0  0  0  0  0  0
   68.1350   45.2885   55.0683 C   0  0  0  0  0  0  0  0  0  0  0  0
   67.8677   43.9172   55.2841 N   0  0  0  0  0  0  0  0  0  0  0  0
   68.2518   45.9033   53.7453 C   0  0  0  0  0  0  0  0  0  0  0  0
   67.5301   45.4587   52.6865 C   0  0  0  0  0  0  0  0  0  0  0  0
   67.6690   46.0716   51.4351 C   0  0  0  0  0  0  0  0  0  0  0  0
   68.5344   47.1247   51.2742 C   0  0  0  0  0  0  0  0  0  0  0  0
   69.2929   47.6069   52.3475 C   0  0  0  0  0  0  0  0  0  0  0  0
   69.1122   46.9667   53.5374 C   0  0  0  0  0  0  0  0  0  0  0  0
   70.1743   48.6906   52.1503 N   0  0  0  0  0  0  0  0  0  0  0  0
   70.0460   49.4176   51.1636 O   0  0  0  0  0  0  0  0  0  0  0  0
   71.1636   48.9289   53.0543 O   0  0  0  0  0  0  0  0  0  0  0  0
   67.7601   43.3494   56.5610 N   0  0  0  0  0  0  0  0  0  0  0  0
   67.5243   42.0843   56.6295 C   0  0  0  0  0  0  0  0  0  0  0  0
   67.3902   41.3718   57.8918 C   0  0  0  0  0  0  0  0  0  0  0  0
   66.4598   41.6183   58.8707 C   0  0  0  0  0  0  0  0  0  0  0  0
   66.6633   40.7496   59.8762 N   0  0  0  0  0  0  0  0  0  0  0  0
   67.7057   39.9422   59.5759 C   0  0  0  0  0  0  0  0  0  0  0  0
   68.2898   38.8935   60.2989 C   0  0  0  0  0  0  0  0  0  0  0  0
   69.3622   38.2177   59.7586 C   0  0  0  0  0  0  0  0  0  0  0  0
   69.8171   38.6027   58.5220 C   0  0  0  0  0  0  0  0  0  0  0  0
   69.2393   39.6337   57.8143 C   0  0  0  0  0  0  0  0  0  0  0  0
   68.1625   40.3266   58.3378 C   0  0  0  0  0  0  0  0  0  0  0  0
  1  2  2  0
  2  3  1  0
  2  4  1  0
  3 13  1  0
 13 14  2  0
 14 15  1  0
 15 16  2  0
 15 23  1  0
 16 17  1  0
 17 18  1  0
 18 19  1  0
 18 23  2  0
 19 20  2  0
 20 21  1  0
 21 22  2  0
 22 23  1  0
  4  5  2  0
  4  9  1  0
  5  6  1  0
  6  7  2  0
  7  8  1  0
  8 10  1  0
  8  9  2  0
 10 11  2  0
 10 12  1  0
M  CHG  2  10   1  12  -1
M  END
>  <minimizedAffinity>  (402) 
-8.64702

$$$$
data/200k_reference_output/data/smiles/18922.pdb
     RDKit          3D

 25 28  0  0  0  0  0  0  0  0999 V2000
   71.1073   45.7083   58.6470 C   0  0  0  0  0  0  0  0  0  0  0  0
   70.6549   44.4134   58.5159 C   0  0  0  0  0  0  0  0  0  0  0  0
   69.6869   44.0551   57.6107 C   0  0  0  0  0  0  0  0  0  0  0  0
   69.1962   45.0601   56.8458 N   0  0  0  0  0  0  0  0  0  0  0  0
   69.5708   46.3361   56.9023 C   0  0  0  0  0  0  0  0  0  0  0  0
   70.5571   46.6702   57.8324 C   0  0  0  0  0  0  0  0  0  0  0  0
   70.7470   48.0265   57.6775 C   0  0  0  0  0  0  0  0  0  0  0  0
   69.9166   48.4669   56.7085 N   0  0  0  0  0  0  0  0  0  0  0  0
   69.2098   47.4680   56.2384 N   0  0  0  0  0  0  0  0  0  0  0  0
   69.2045   42.6893   57.4670 C   0  0  0  0  0  0  0  0  0  0  0  0
   68.2364   42.3795   56.5395 C   0  0  0  0  0  0  0  0  0  0  0  0
   67.7398   41.1070   56.3548 C   0  0  0  0  0  0  0  0  0  0  0  0
   68.2409   40.0915   57.1444 C   0  0  0  0  0  0  0  0  0  0  0  0
   69.2086   40.3567   58.0836 C   0  0  0  0  0  0  0  0  0  0  0  0
   69.6841   41.6588   58.2362 C   0  0  0  0  0  0  0  0  0  0  0  0
   71.7575   46.7403   60.7918 N   0  0  0  0  0  0  0  0  0  0  0  0
   72.1302   46.0387   59.6154 C   0  0  0  0  0  0  0  0  0  0  0  0
   73.3444   45.7342   59.4671 O   0  0  0  0  0  0  0  0  0  0  0  0
   68.2058   47.5162   55.1913 C   0  0  0  0  0  0  0  0  0  0  0  0
   68.7778   47.5172   53.8403 C   0  0  0  0  0  0  0  0  0  0  0  0
   68.4556   46.5279   52.9192 C   0  0  0  0  0  0  0  0  0  0  0  0
   69.0021   46.5412   51.6515 C   0  0  0  0  0  0  0  0  0  0  0  0
   69.8553   47.4942   51.2542 N   0  0  0  0  0  0  0  0  0  0  0  0
   70.1964   48.4745   52.1164 C   0  0  0  0  0  0  0  0  0  0  0  0
   69.6659   48.4856   53.3901 C   0  0  0  0  0  0  0  0  0  0  0  0
 16 17  1  0
 17 18  2  0
 17  1  1  0
  1  2  2  0
  1  6  1  0
  2  3  1  0
  3 10  1  0
  3  4  2  0
 10 11  2  0
 10 15  1  0
 11 12  1  0
 12 13  2  0
 13 14  1  0
 14 15  2  0
  4  5  1  0
  5  6  2  0
  5  9  1  0
  6  7  1  0
  7  8  2  0
  8  9  1  0
  9 19  1  0
 19 20  1  0
 20 21  2  0
 20 25  1  0
 21 22  1  0
 22 23  2  0
 23 24  1  0
 24 25  2  0
M  END
>  <minimizedAffinity>  (403) 
-8.64620

$$$$
data/200k_reference_output/data/smiles/31625.pdb
     RDKit          3D

 24 25  0  0  0  0  0  0  0  0999 V2000
   70.3085   42.5704   57.3318 C   0  0  0  0  0  0  0  0  0  0  0  0
   69.4144   43.7261   57.4472 C   0  0  0  0  0  0  0  0  0  0  0  0
   69.7093   44.6030   58.3300 O   0  0  0  0  0  0  0  0  0  0  0  0
   68.2876   43.9851   56.7118 O   0  0  0  0  0  0  0  0  0  0  0  0
   68.3587   44.4231   55.4067 N   0  0  0  0  0  0  0  0  0  0  0  0
   68.2932   45.6970   55.1234 C   0  0  0  0  0  0  0  0  0  0  0  0
   68.1472   46.5655   56.2314 N   0  0  0  0  0  0  0  0  0  0  0  0
   68.3637   46.2059   53.7673 C   0  0  0  0  0  0  0  0  0  0  0  0
   67.6260   45.5814   52.7844 C   0  0  0  0  0  0  0  0  0  0  0  0
   67.6646   46.0386   51.4608 C   0  0  0  0  0  0  0  0  0  0  0  0
   68.4345   47.1078   51.1392 N   0  0  0  0  0  0  0  0  0  0  0  0
   69.1585   47.7275   52.0866 C   0  0  0  0  0  0  0  0  0  0  0  0
   69.1273   47.2772   53.4141 C   0  0  0  0  0  0  0  0  0  0  0  0
   70.3866   41.7560   58.4510 O   0  0  0  0  0  0  0  0  0  0  0  0
   71.9085   37.8188   58.6211 C   0  0  0  0  0  0  0  0  0  0  0  0
   70.5745   38.0842   58.3466 C   0  0  0  0  0  0  0  0  0  0  0  0
   70.0887   39.3738   58.2941 C   0  0  0  0  0  0  0  0  0  0  0  0
   70.9040   40.4712   58.5119 C   0  0  0  0  0  0  0  0  0  0  0  0
   72.2306   40.2112   58.7841 C   0  0  0  0  0  0  0  0  0  0  0  0
   72.7197   38.9135   58.8375 C   0  0  0  0  0  0  0  0  0  0  0  0
   73.7374   36.3572   59.4503 C   0  0  0  0  0  0  0  0  0  0  0  0
   72.4401   36.4328   58.6805 C   0  0  0  0  0  0  0  0  0  0  0  0
   72.6985   35.8964   57.2763 C   0  0  0  0  0  0  0  0  0  0  0  0
   71.4479   35.4820   59.3285 C   0  0  0  0  0  0  0  0  0  0  0  0
 21 22  1  0
 22 23  1  0
 22 24  1  0
 22 15  1  0
 15 16  2  0
 15 20  1  0
 16 17  1  0
 17 18  2  0
 18 14  1  0
 18 19  1  0
 14  1  1  0
  1  2  1  0
  2  3  2  0
  2  4  1  0
  4  5  1  0
  5  6  2  0
  6  7  1  0
  6  8  1  0
  8  9  2  0
  8 13  1  0
  9 10  1  0
 10 11  2  0
 11 12  1  0
 12 13  2  0
 19 20  2  0
M  CHG  1   5   1
M  END
>  <minimizedAffinity>  (404) 
-8.64615

$$$$
data/200k_reference_output/data/smiles/82423.pdb
     RDKit          3D

 20 22  0  0  0  0  0  0  0  0999 V2000
   71.4260   49.1227   53.1090 O   0  0  0  0  0  0  0  0  0  0  0  0
   70.0473   49.1033   52.4694 S   0  0  0  0  0  0  0  0  0  0  0  0
   70.3313   49.0730   50.9729 O   0  0  0  0  0  0  0  0  0  0  0  0
   69.1604   47.7173   52.9744 C   0  0  0  0  0  0  0  0  0  0  0  0
   68.5818   46.9070   52.0199 C   0  0  0  0  0  0  0  0  0  0  0  0
   67.8776   45.8082   52.4640 C   0  0  0  0  0  0  0  0  0  0  0  0
   67.7492   45.5225   53.7974 C   0  0  0  0  0  0  0  0  0  0  0  0
   68.3696   46.3977   54.7430 C   0  0  0  0  0  0  0  0  0  0  0  0
   68.2585   46.1353   56.1264 N   0  0  0  0  0  0  0  0  0  0  0  0
   69.2016   47.5167   56.8231 S   0  0  0  0  0  0  0  0  0  0  0  0
   69.6074   48.2308   55.3521 N   0  0  0  0  0  0  0  0  0  0  0  0
   69.0287   47.4259   54.3291 C   0  0  0  0  0  0  0  0  0  0  0  0
   69.2758   50.5775   52.8075 N   0  0  0  0  0  0  0  0  0  0  0  0
   69.2836   51.2431   54.0685 C   0  0  0  0  0  0  0  0  0  0  0  0
   70.3343   52.0470   54.4432 C   0  0  0  0  0  0  0  0  0  0  0  0
   70.3267   52.6933   55.6603 C   0  0  0  0  0  0  0  0  0  0  0  0
   69.2700   52.5494   56.5279 C   0  0  0  0  0  0  0  0  0  0  0  0
   68.2190   51.7396   56.1437 C   0  0  0  0  0  0  0  0  0  0  0  0
   67.1696   51.5843   56.9813 F   0  0  0  0  0  0  0  0  0  0  0  0
   68.2130   51.0855   54.9243 C   0  0  0  0  0  0  0  0  0  0  0  0
  1  2  2  0
  2  3  2  0
  2 13  1  0
  2  4  1  0
 13 14  1  0
 14 15  2  0
 14 20  1  0
 15 16  1  0
 16 17  2  0
 17 18  1  0
 18 19  1  0
 18 20  2  0
  4  5  2  0
  4 12  1  0
  5  6  1  0
  6  7  2  0
  7  8  1  0
  8  9  2  0
  8 12  1  0
  9 10  1  0
 10 11  1  0
 11 12  2  0
M  END
>  <minimizedAffinity>  (405) 
-8.64608

$$$$
data/reference_output_2/data/smiles/158550.pdb
     RDKit          3D

 20 21  0  0  0  0  0  0  0  0999 V2000
   70.0658   49.4140   52.7955 S   0  0  0  0  0  0  0  0  0  0  0  0
   69.9491   50.2250   51.5213 O   0  0  0  0  0  0  0  0  0  0  0  0
   71.4995   49.1145   53.0427 O   0  0  0  0  0  0  0  0  0  0  0  0
   66.8775   44.6468   52.1429 O   0  0  0  0  0  0  0  0  0  0  0  0
   67.5735   45.6811   52.3267 C   0  0  0  0  0  0  0  0  0  0  0  0
   67.9736   46.0776   53.5859 C   0  0  0  0  0  0  0  0  0  0  0  0
   68.7357   47.2136   53.7596 C   0  0  0  0  0  0  0  0  0  0  0  0
   69.1077   47.9695   52.6696 C   0  0  0  0  0  0  0  0  0  0  0  0
   68.7008   47.5522   51.4639 N   0  0  0  0  0  0  0  0  0  0  0  0
   67.9700   46.4635   51.2913 N   0  0  0  0  0  0  0  0  0  0  0  0
   69.4176   50.3720   54.1103 C   0  0  0  0  0  0  0  0  0  0  0  0
   69.3583   51.7406   53.9299 C   0  0  0  0  0  0  0  0  0  0  0  0
   68.8569   52.5708   54.9242 C   0  0  0  0  0  0  0  0  0  0  0  0
   68.4157   51.9911   56.1047 C   0  0  0  0  0  0  0  0  0  0  0  0
   68.4723   50.6185   56.2905 C   0  0  0  0  0  0  0  0  0  0  0  0
   68.9782   49.8147   55.2812 C   0  0  0  0  0  0  0  0  0  0  0  0
   67.9915   50.0392   57.5667 C   0  0  0  0  0  0  0  0  0  0  0  0
   67.7761   48.6948   57.4209 F   0  0  0  0  0  0  0  0  0  0  0  0
   66.7786   50.6216   57.8824 F   0  0  0  0  0  0  0  0  0  0  0  0
   68.8893   50.2480   58.6047 F   0  0  0  0  0  0  0  0  0  0  0  0
  4  5  2  0
  5  6  1  0
  5 10  1  0
  6  7  2  0
  7  8  1  0
  8  1  1  0
  8  9  2  0
  1  2  2  0
  1  3  2  0
  1 11  1  0
 11 12  2  0
 11 16  1  0
 12 13  1  0
 13 14  2  0
 14 15  1  0
 15 17  1  0
 15 16  2  0
 17 18  1  0
 17 19  1  0
 17 20  1  0
  9 10  1  0
M  END
>  <minimizedAffinity>  (406) 
-8.64608

$$$$
data/reference_output_2/data/smiles/95687.pdb
     RDKit          3D

 22 23  0  0  0  0  0  0  0  0999 V2000
   67.5631   44.5160   55.1514 N   0  0  0  0  0  0  0  0  0  0  0  0
   69.3406   47.9512   53.4485 C   0  0  0  0  0  0  0  0  0  0  0  0
   68.7587   46.9531   52.6790 C   0  0  0  0  0  0  0  0  0  0  0  0
   68.1614   45.8405   53.2035 C   0  0  0  0  0  0  0  0  0  0  0  0
   68.1169   45.6678   54.6009 C   0  0  0  0  0  0  0  0  0  0  0  0
   68.6985   46.6656   55.3734 C   0  0  0  0  0  0  0  0  0  0  0  0
   69.3034   47.7927   54.8213 C   0  0  0  0  0  0  0  0  0  0  0  0
   69.3593   50.8212   53.1475 N   0  0  0  0  0  0  0  0  0  0  0  0
   70.0878   49.3313   52.6942 S   0  0  0  0  0  0  0  0  0  0  0  0
   71.5465   49.3566   53.1261 O   0  0  0  0  0  0  0  0  0  0  0  0
   70.0275   49.2395   51.1946 O   0  0  0  0  0  0  0  0  0  0  0  0
   68.2316   43.6711   56.0132 N   0  0  0  0  0  0  0  0  0  0  0  0
   67.8146   42.3456   56.2335 C   0  0  0  0  0  0  0  0  0  0  0  0
   66.7720   41.9789   55.5907 O   0  0  0  0  0  0  0  0  0  0  0  0
   68.4561   41.3748   57.1098 C   0  0  0  0  0  0  0  0  0  0  0  0
   67.8461   40.1294   57.3265 C   0  0  0  0  0  0  0  0  0  0  0  0
   68.4105   39.1484   58.1057 C   0  0  0  0  0  0  0  0  0  0  0  0
   69.6144   39.3562   58.7121 C   0  0  0  0  0  0  0  0  0  0  0  0
   70.1663   38.3890   59.4728 F   0  0  0  0  0  0  0  0  0  0  0  0
   70.2397   40.5625   58.5239 C   0  0  0  0  0  0  0  0  0  0  0  0
   69.6641   41.5479   57.7357 C   0  0  0  0  0  0  0  0  0  0  0  0
   70.3244   42.7106   57.6134 F   0  0  0  0  0  0  0  0  0  0  0  0
  8  9  1  0
  9 10  2  0
  9 11  2  0
  9  2  1  0
  2  3  2  0
  2  7  1  0
  3  4  1  0
  4  5  2  0
  5  1  1  0
  5  6  1  0
  1 12  1  0
 12 13  1  0
 13 14  2  0
 13 15  1  0
 15 16  2  0
 15 21  1  0
 16 17  1  0
 17 18  2  0
 18 19  1  0
 18 20  1  0
 20 21  2  0
 21 22  1  0
  6  7  2  0
M  END
>  <minimizedAffinity>  (407) 
-8.64566

$$$$
data/200k_reference_output/data/smiles/67966.pdb
     RDKit          3D

 24 27  0  0  0  0  0  0  0  0999 V2000
   71.6441   47.9523   59.1428 N   0  0  0  0  0  0  0  0  0  0  0  0
   70.8095   47.0301   58.3821 C   0  0  0  0  0  0  0  0  0  0  0  0
   71.0915   45.8859   58.2575 N   0  0  0  0  0  0  0  0  0  0  0  0
   71.3427   44.6037   58.0786 C   0  0  0  0  0  0  0  0  0  0  0  0
   70.3758   43.6164   57.8031 C   0  0  0  0  0  0  0  0  0  0  0  0
   70.7156   42.3117   57.6372 C   0  0  0  0  0  0  0  0  0  0  0  0
   72.0259   41.8851   57.7294 C   0  0  0  0  0  0  0  0  0  0  0  0
   72.9861   42.8457   57.9986 C   0  0  0  0  0  0  0  0  0  0  0  0
   74.2981   42.4211   58.0888 C   0  0  0  0  0  0  0  0  0  0  0  0
   75.3035   43.3298   58.3542 C   0  0  0  0  0  0  0  0  0  0  0  0
   74.9887   44.6533   58.5257 C   0  0  0  0  0  0  0  0  0  0  0  0
   73.6883   45.0605   58.4341 C   0  0  0  0  0  0  0  0  0  0  0  0
   72.6686   44.1447   58.1672 C   0  0  0  0  0  0  0  0  0  0  0  0
   69.6072   47.5611   57.7714 N   0  0  0  0  0  0  0  0  0  0  0  0
   69.2075   47.1381   56.4770 C   0  0  0  0  0  0  0  0  0  0  0  0
   69.4235   47.8918   55.3776 N   0  0  0  0  0  0  0  0  0  0  0  0
   69.0680   47.5422   54.1347 C   0  0  0  0  0  0  0  0  0  0  0  0
   68.4359   46.3325   53.9564 C   0  0  0  0  0  0  0  0  0  0  0  0
   68.2015   45.5414   55.0598 C   0  0  0  0  0  0  0  0  0  0  0  0
   67.6186   44.4124   54.9440 O   0  0  0  0  0  0  0  0  0  0  0  0
   68.5909   45.9618   56.2845 N   0  0  0  0  0  0  0  0  0  0  0  0
   68.1361   46.1537   52.5058 C   0  0  0  0  0  0  0  0  0  0  0  0
   69.2335   47.0127   51.8741 C   0  0  0  0  0  0  0  0  0  0  0  0
   69.2096   48.2190   52.7929 C   0  0  0  0  0  0  0  0  0  0  0  0
  1  2  1  0
  2  3  2  0
  2 14  1  0
  3  4  1  0
  4  5  2  0
  4 13  1  0
  5  6  1  0
  6  7  2  0
  7  8  1  0
  8  9  1  0
  8 13  2  0
  9 10  2  0
 10 11  1  0
 11 12  2  0
 12 13  1  0
 14 15  1  0
 15 16  2  0
 15 21  1  0
 16 17  1  0
 17 18  2  0
 17 24  1  0
 18 19  1  0
 18 22  1  0
 19 20  2  0
 19 21  1  0
 22 23  1  0
 23 24  1  0
M  CHG  1   3   1
M  END
>  <minimizedAffinity>  (408) 
-8.64553

$$$$
data/200k_reference_output/data/smiles/44915.pdb
     RDKit          3D

 25 27  0  0  0  0  0  0  0  0999 V2000
   73.4668   50.6356   56.1427 C   0  0  1  0  0  0  0  0  0  0  0  0
   74.5134   49.7222   56.7322 C   0  0  0  0  0  0  0  0  0  0  0  0
   75.5975   49.9238   55.7385 C   0  0  0  0  0  0  0  0  0  0  0  0
   75.0289   50.2078   54.6248 N   0  0  0  0  0  0  0  0  0  0  0  0
   73.6349   50.2188   54.7725 O   0  0  0  0  0  0  0  0  0  0  0  0
   77.0251   49.8071   56.0330 C   0  0  0  0  0  0  0  0  0  0  0  0
   77.8944   49.1904   55.1574 C   0  0  0  0  0  0  0  0  0  0  0  0
   79.2424   49.0786   55.4324 C   0  0  0  0  0  0  0  0  0  0  0  0
   79.7859   49.5793   56.5955 C   0  0  0  0  0  0  0  0  0  0  0  0
   81.1456   49.4751   56.8901 O   0  0  0  0  0  0  0  0  0  0  0  0
   78.9272   50.1980   57.4794 C   0  0  0  0  0  0  0  0  0  0  0  0
   79.4632   50.6902   58.6230 F   0  0  0  0  0  0  0  0  0  0  0  0
   77.5732   50.3066   57.1948 C   0  0  0  0  0  0  0  0  0  0  0  0
   72.0960   50.4687   56.6500 C   0  0  0  0  0  0  0  0  0  0  0  0
   70.9989   50.8348   55.7050 C   0  0  0  0  0  0  0  0  0  0  0  0
   71.2751   49.6310   53.1960 O   0  0  0  0  0  0  0  0  0  0  0  0
   70.3784   49.1938   53.9508 C   0  0  0  0  0  0  0  0  0  0  0  0
   70.1921   49.7601   55.2249 N   0  0  0  0  0  0  0  0  0  0  0  0
   69.5385   48.1031   53.4966 C   0  0  0  0  0  0  0  0  0  0  0  0
   69.3793   47.7192   52.1912 C   0  0  0  0  0  0  0  0  0  0  0  0
   68.5644   46.6674   51.7970 C   0  0  0  0  0  0  0  0  0  0  0  0
   67.8680   45.9542   52.7325 C   0  0  0  0  0  0  0  0  0  0  0  0
   67.0828   44.9367   52.3239 F   0  0  0  0  0  0  0  0  0  0  0  0
   67.9946   46.2983   54.0446 C   0  0  0  0  0  0  0  0  0  0  0  0
   68.8055   47.3425   54.4235 C   0  0  0  0  0  0  0  0  0  0  0  0
 16 17  2  0
 17 18  1  0
 17 19  1  0
 18 15  1  0
 15 14  1  0
  1 14  1  1
  1  2  1  0
  1  5  1  0
  2  3  1  0
  3  6  1  0
  3  4  2  0
  6  7  2  0
  6 13  1  0
  7  8  1  0
  8  9  2  0
  9 10  1  0
  9 11  1  0
 11 12  1  0
 11 13  2  0
  4  5  1  0
 19 20  2  0
 19 25  1  0
 20 21  1  0
 21 22  2  0
 22 23  1  0
 22 24  1  0
 24 25  2  0
M  END
>  <minimizedAffinity>  (409) 
-8.64333

$$$$
data/reference_output_2/data/smiles/152146.pdb
     RDKit          3D

 24 26  0  0  0  0  0  0  0  0999 V2000
   68.9155   47.9183   55.0164 N   0  0  0  0  0  0  0  0  0  0  0  0
   69.7841   48.9655   54.8862 C   0  0  0  0  0  0  0  0  0  0  0  0
   70.3238   49.3703   53.7054 C   0  0  0  0  0  0  0  0  0  0  0  0
   69.9785   48.6885   52.5618 C   0  0  0  0  0  0  0  0  0  0  0  0
   70.4353   49.0067   51.4501 O   0  0  0  0  0  0  0  0  0  0  0  0
   69.1007   47.6217   52.6456 C   0  0  0  0  0  0  0  0  0  0  0  0
   68.7160   46.9076   51.5304 C   0  0  0  0  0  0  0  0  0  0  0  0
   67.8393   45.8468   51.5835 C   0  0  0  0  0  0  0  0  0  0  0  0
   67.3493   45.5235   52.8505 C   0  0  0  0  0  0  0  0  0  0  0  0
   67.7321   46.2347   53.9692 C   0  0  0  0  0  0  0  0  0  0  0  0
   68.5985   47.2771   53.8941 C   0  0  0  0  0  0  0  0  0  0  0  0
   71.2502   50.5022   53.6323 C   0  0  0  0  0  0  0  0  0  0  0  0
   70.8567   51.6572   53.3457 O   0  0  0  0  0  0  0  0  0  0  0  0
   72.5879   50.2621   53.8892 O   0  0  0  0  0  0  0  0  0  0  0  0
   68.4710   47.6135   56.3335 C   0  0  0  0  0  0  0  0  0  0  0  0
   71.2130   46.7595   58.8393 C   0  0  0  0  0  0  0  0  0  0  0  0
   71.3600   45.4061   58.6326 C   0  0  0  0  0  0  0  0  0  0  0  0
   70.5831   44.7810   57.6979 C   0  0  0  0  0  0  0  0  0  0  0  0
   69.6754   45.5138   56.9882 C   0  0  0  0  0  0  0  0  0  0  0  0
   69.4826   46.8854   57.1549 C   0  0  0  0  0  0  0  0  0  0  0  0
   70.2772   47.4834   58.0995 C   0  0  0  0  0  0  0  0  0  0  0  0
   73.0355   48.3719   59.4645 N   0  0  0  0  0  0  0  0  0  0  0  0
   72.0323   47.4545   59.8339 C   0  0  0  0  0  0  0  0  0  0  0  0
   71.8332   47.2245   61.0407 O   0  0  0  0  0  0  0  0  0  0  0  0
 22 23  1  0
 23 24  2  0
 23 16  1  0
 16 17  2  0
 16 21  1  0
 17 18  1  0
 18 19  2  0
 19 20  1  0
 20 15  1  0
 20 21  2  0
 15  1  1  0
  1  2  1  0
  1 11  1  0
  2  3  2  0
  3 12  1  0
  3  4  1  0
 12 13  2  0
 12 14  1  0
  4  5  2  0
  4  6  1  0
  6  7  1  0
  6 11  2  0
  7  8  2  0
  8  9  1  0
  9 10  2  0
 10 11  1  0
M  END
>  <minimizedAffinity>  (410) 
-8.64309

$$$$
data/reference_output_2/data/smiles/90800.pdb
     RDKit          3D

 25 27  0  0  0  0  0  0  0  0999 V2000
   69.1996   43.7678   56.8838 N   0  0  0  0  0  0  0  0  0  0  0  0
   68.7411   42.5758   56.9352 C   0  0  0  0  0  0  0  0  0  0  0  0
   67.4943   42.0904   56.3831 C   0  0  0  0  0  0  0  0  0  0  0  0
   66.6591   42.7496   55.7071 O   0  0  0  0  0  0  0  0  0  0  0  0
   67.3994   40.7069   56.7552 N   0  0  0  0  0  0  0  0  0  0  0  0
   68.5191   40.3104   57.5043 C   0  0  0  0  0  0  0  0  0  0  0  0
   68.8449   39.0971   58.0648 C   0  0  0  0  0  0  0  0  0  0  0  0
   70.0467   38.9650   58.7789 C   0  0  0  0  0  0  0  0  0  0  0  0
   70.8729   40.0630   58.8997 C   0  0  0  0  0  0  0  0  0  0  0  0
   70.5310   41.2607   58.3375 C   0  0  0  0  0  0  0  0  0  0  0  0
   69.3296   41.4170   57.6185 C   0  0  0  0  0  0  0  0  0  0  0  0
   70.0459   46.4588   57.1063 O   0  0  0  0  0  0  0  0  0  0  0  0
   69.0401   46.1957   56.4070 C   0  0  0  0  0  0  0  0  0  0  0  0
   68.5957   44.8600   56.2851 N   0  0  0  0  0  0  0  0  0  0  0  0
   68.2758   47.2487   55.6905 C   0  0  0  0  0  0  0  0  0  0  0  0
   68.8950   47.5583   54.3725 C   0  0  0  0  0  0  0  0  0  0  0  0
   68.7122   46.8018   53.2469 C   0  0  0  0  0  0  0  0  0  0  0  0
   69.2933   47.1515   52.0472 C   0  0  0  0  0  0  0  0  0  0  0  0
   70.0589   48.2595   51.9699 C   0  0  0  0  0  0  0  0  0  0  0  0
   70.6285   48.5904   50.7486 O   0  0  0  0  0  0  0  0  0  0  0  0
   70.2614   49.0521   53.1041 C   0  0  0  0  0  0  0  0  0  0  0  0
   69.6964   48.7249   54.3035 C   0  0  0  0  0  0  0  0  0  0  0  0
   72.1314   39.8790   59.6107 C   0  0  0  0  0  0  0  0  0  0  0  0
   72.3055   40.4007   60.7721 O   0  0  0  0  0  0  0  0  0  0  0  0
   73.1895   39.1558   59.1061 O   0  0  0  0  0  0  0  0  0  0  0  0
 12 13  2  0
 13 15  1  0
 13 14  1  0
 15 16  1  0
 16 17  2  0
 16 22  1  0
 17 18  1  0
 18 19  2  0
 19 20  1  0
 19 21  1  0
 21 22  2  0
 14  1  1  0
  1  2  2  0
  2  3  1  0
  2 11  1  0
  3  4  2  0
  3  5  1  0
  5  6  1  0
  6  7  1  0
  6 11  2  0
  7  8  2  0
  8  9  1  0
  9 23  1  0
  9 10  2  0
 23 24  2  0
 23 25  1  0
 10 11  1  0
M  END
>  <minimizedAffinity>  (411) 
-8.64228

$$$$
data/reference_output_2/data/smiles/157290.pdb
     RDKit          3D

 25 26  0  0  0  0  0  0  0  0999 V2000
   69.0800   43.6927   56.9161 N   0  0  0  0  0  0  0  0  0  0  0  0
   68.5497   42.3845   56.9048 C   0  0  0  0  0  0  0  0  0  0  0  0
   67.4914   42.2069   56.2455 O   0  0  0  0  0  0  0  0  0  0  0  0
   69.1332   41.2352   57.5936 C   0  0  0  0  0  0  0  0  0  0  0  0
   70.4087   41.2443   58.1141 C   0  0  0  0  0  0  0  0  0  0  0  0
   70.9347   40.1437   58.7602 C   0  0  0  0  0  0  0  0  0  0  0  0
   70.2247   38.9725   58.9258 C   0  0  0  0  0  0  0  0  0  0  0  0
   68.9474   38.9635   58.4036 C   0  0  0  0  0  0  0  0  0  0  0  0
   68.4177   40.0596   57.7576 C   0  0  0  0  0  0  0  0  0  0  0  0
   70.7969   37.7903   59.6241 C   0  0  0  0  0  0  0  0  0  0  0  0
   71.4936   36.8509   58.6452 C   0  0  0  0  0  0  0  0  0  0  0  0
   71.8478   38.1989   60.6363 C   0  0  0  0  0  0  0  0  0  0  0  0
   69.7297   36.9854   60.3275 C   0  0  0  0  0  0  0  0  0  0  0  0
   69.0430   46.0488   56.3421 C   0  0  0  0  0  0  0  0  0  0  0  0
   70.0718   46.1698   57.0490 O   0  0  0  0  0  0  0  0  0  0  0  0
   68.4650   44.7626   56.2274 N   0  0  0  0  0  0  0  0  0  0  0  0
   68.4653   47.2260   55.6549 C   0  0  0  0  0  0  0  0  0  0  0  0
   69.3449   47.9425   53.4552 C   0  0  0  0  0  0  0  0  0  0  0  0
   69.4210   47.8506   52.0816 C   0  0  0  0  0  0  0  0  0  0  0  0
   68.6815   46.9174   51.3756 C   0  0  0  0  0  0  0  0  0  0  0  0
   67.8567   46.0714   52.1039 C   0  0  0  0  0  0  0  0  0  0  0  0
   67.7867   46.1705   53.4782 C   0  0  0  0  0  0  0  0  0  0  0  0
   68.5281   47.1067   54.1845 C   0  0  0  0  0  0  0  0  0  0  0  0
   70.0368   50.2361   53.7576 C   0  0  0  0  0  0  0  0  0  0  0  0
   70.0904   48.8814   54.1520 O   0  0  0  0  0  0  0  0  0  0  0  0
 24 25  1  0
 25 18  1  0
 18 19  2  0
 18 23  1  0
 19 20  1  0
 20 21  2  0
 21 22  1  0
 22 23  2  0
 23 17  1  0
 17 14  1  0
 14 15  2  0
 14 16  1  0
 16  1  1  0
  1  2  1  0
  2  3  2  0
  2  4  1  0
  4  5  2  0
  4  9  1  0
  5  6  1  0
  6  7  2  0
  7 10  1  0
  7  8  1  0
 10 11  1  0
 10 12  1  0
 10 13  1  0
  8  9  2  0
M  END
>  <minimizedAffinity>  (412) 
-8.64220

$$$$
data/200k_reference_output/data/smiles/28533.pdb
     RDKit          3D

 21 23  0  0  0  0  0  0  0  0999 V2000
   69.0741   47.7017   52.8541 C   0  0  0  0  0  0  0  0  0  0  0  0
   68.5609   46.9631   51.8065 C   0  0  0  0  0  0  0  0  0  0  0  0
   67.8947   45.7992   52.0723 C   0  0  0  0  0  0  0  0  0  0  0  0
   67.7305   45.3578   53.3571 C   0  0  0  0  0  0  0  0  0  0  0  0
   68.2326   46.0723   54.4436 C   0  0  0  0  0  0  0  0  0  0  0  0
   68.9058   47.2528   54.1437 C   0  0  0  0  0  0  0  0  0  0  0  0
   69.9401   49.1994   52.6054 S   0  0  0  0  0  0  0  0  0  0  0  0
   71.3823   49.0680   53.0053 O   0  0  0  0  0  0  0  0  0  0  0  0
   69.9254   49.4914   51.1311 O   0  0  0  0  0  0  0  0  0  0  0  0
   70.1060   51.4837   53.9102 C   0  0  0  0  0  0  0  0  0  0  0  0
   69.1788   50.5200   53.4052 N   0  0  0  0  0  0  0  0  0  0  0  0
   68.0806   45.6592   55.7051 O   0  0  0  0  0  0  0  0  0  0  0  0
   68.7627   44.7120   56.3863 C   0  0  0  0  0  0  0  0  0  0  0  0
   69.8629   45.0696   57.1184 N   0  0  0  0  0  0  0  0  0  0  0  0
   70.5665   44.1938   57.8011 C   0  0  0  0  0  0  0  0  0  0  0  0
   70.2469   42.8990   57.8207 N   0  0  0  0  0  0  0  0  0  0  0  0
   69.1716   42.4861   57.1179 C   0  0  0  0  0  0  0  0  0  0  0  0
   68.6756   41.2532   56.9962 N   0  0  0  0  0  0  0  0  0  0  0  0
   67.6051   41.3176   56.2035 C   0  0  0  0  0  0  0  0  0  0  0  0
   67.4177   42.6325   55.8112 C   0  0  0  0  0  0  0  0  0  0  0  0
   68.4184   43.3772   56.3955 C   0  0  0  0  0  0  0  0  0  0  0  0
 10 11  1  0
 11  7  1  0
  7  8  2  0
  7  9  2  0
  7  1  1  0
  1  2  2  0
  1  6  1  0
  2  3  1  0
  3  4  2  0
  4  5  1  0
  5 12  1  0
  5  6  2  0
 12 13  1  0
 13 14  2  0
 13 21  1  0
 14 15  1  0
 15 16  2  0
 16 17  1  0
 17 18  1  0
 17 21  2  0
 18 19  1  0
 19 20  2  0
 20 21  1  0
M  END
>  <minimizedAffinity>  (413) 
-8.64180

$$$$
data/200k_reference_output/data/smiles/49409.pdb
     RDKit          3D

 25 27  0  0  0  0  0  0  0  0999 V2000
   68.6407   42.9072   56.6347 C   0  0  0  0  0  0  0  0  0  0  0  0
   67.6245   42.0346   56.2984 C   0  0  0  0  0  0  0  0  0  0  0  0
   67.6455   40.7500   56.7802 C   0  0  0  0  0  0  0  0  0  0  0  0
   68.6677   40.2737   57.6115 C   0  0  0  0  0  0  0  0  0  0  0  0
   69.6240   41.1452   57.9099 N   0  0  0  0  0  0  0  0  0  0  0  0
   69.6281   42.4316   57.4433 C   0  0  0  0  0  0  0  0  0  0  0  0
   70.0160   47.5871   57.2954 C   0  0  0  0  0  0  0  0  0  0  0  0
   69.3280   46.5243   56.4873 C   0  0  0  0  0  0  0  0  0  0  0  0
   69.2827   45.2478   56.8893 N   0  0  0  0  0  0  0  0  0  0  0  0
   68.6543   44.2808   56.1454 C   0  0  0  0  0  0  0  0  0  0  0  0
   68.0928   44.6869   55.0003 N   0  0  0  0  0  0  0  0  0  0  0  0
   68.1083   45.9647   54.5447 C   0  0  0  0  0  0  0  0  0  0  0  0
   67.5712   46.3016   53.4705 O   0  0  0  0  0  0  0  0  0  0  0  0
   68.7428   46.9252   55.3033 C   0  0  0  0  0  0  0  0  0  0  0  0
   68.8143   48.3482   54.8930 C   0  0  0  0  0  0  0  0  0  0  0  0
   68.6603   38.9315   58.0574 N   0  0  0  0  0  0  0  0  0  0  0  0
   68.8617   38.5534   59.4044 C   0  0  0  0  0  0  0  0  0  0  0  0
   70.2749   38.3740   59.8434 C   0  0  0  0  0  0  0  0  0  0  0  0
   71.0308   37.3456   59.1141 C   0  0  0  0  0  0  0  0  0  0  0  0
   70.8996   36.0203   59.5478 C   0  0  0  0  0  0  0  0  0  0  0  0
   71.5950   35.0370   58.8675 C   0  0  0  0  0  0  0  0  0  0  0  0
   72.4045   35.3000   57.7905 C   0  0  0  0  0  0  0  0  0  0  0  0
   73.0878   34.3168   57.1247 O   0  0  0  0  0  0  0  0  0  0  0  0
   72.5098   36.6284   57.3889 C   0  0  0  0  0  0  0  0  0  0  0  0
   71.8333   37.6274   58.0418 C   0  0  0  0  0  0  0  0  0  0  0  0
  7  8  1  0
  8  9  1  0
  8 14  2  0
  9 10  2  0
 10  1  1  0
 10 11  1  0
  1  2  2  0
  1  6  1  0
  2  3  1  0
  3  4  2  0
  4 16  1  0
  4  5  1  0
 16 17  1  0
 17 18  1  0
 18 19  1  0
 19 20  2  0
 19 25  1  0
 20 21  1  0
 21 22  2  0
 22 23  1  0
 22 24  1  0
 24 25  2  0
  5  6  2  0
 11 12  1  0
 12 13  2  0
 12 14  1  0
 14 15  1  0
M  END
>  <minimizedAffinity>  (414) 
-8.64141

$$$$
data/200k_reference_output/data/smiles/18596.pdb
     RDKit          3D

 22 24  0  0  0  0  0  0  0  0999 V2000
   67.5743   44.3694   55.2290 N   0  0  0  0  0  0  0  0  0  0  0  0
   68.4273   43.6994   56.1068 N   0  0  0  0  0  0  0  0  0  0  0  0
   68.3255   42.4767   56.4589 C   0  0  0  0  0  0  0  0  0  0  0  0
   67.2908   41.5692   56.0012 C   0  0  0  0  0  0  0  0  0  0  0  0
   66.3524   41.8292   55.1976 O   0  0  0  0  0  0  0  0  0  0  0  0
   67.5765   40.3244   56.6634 N   0  0  0  0  0  0  0  0  0  0  0  0
   68.7282   40.4679   57.4833 C   0  0  0  0  0  0  0  0  0  0  0  0
   69.3956   39.5816   58.3051 C   0  0  0  0  0  0  0  0  0  0  0  0
   70.5101   39.9775   59.0076 C   0  0  0  0  0  0  0  0  0  0  0  0
   71.0044   41.2696   58.9188 C   0  0  0  0  0  0  0  0  0  0  0  0
   70.3391   42.1526   58.0986 C   0  0  0  0  0  0  0  0  0  0  0  0
   69.2232   41.7507   57.3984 C   0  0  0  0  0  0  0  0  0  0  0  0
   69.2498   47.8997   53.5184 C   0  0  0  0  0  0  0  0  0  0  0  0
   69.1936   47.6932   54.8858 C   0  0  0  0  0  0  0  0  0  0  0  0
   68.6548   46.5577   55.4242 C   0  0  0  0  0  0  0  0  0  0  0  0
   68.1298   45.5428   54.6247 C   0  0  0  0  0  0  0  0  0  0  0  0
   68.1887   45.7520   53.2656 C   0  0  0  0  0  0  0  0  0  0  0  0
   68.7347   46.9049   52.7134 C   0  0  0  0  0  0  0  0  0  0  0  0
   70.0899   49.2007   51.1242 N   0  0  0  0  0  0  0  0  0  0  0  0
   69.9803   49.3614   52.8569 S   0  0  0  0  0  0  0  0  0  0  0  0
   71.4145   49.4869   53.3479 O   0  0  0  0  0  0  0  0  0  0  0  0
   69.1777   50.5364   53.2700 O   0  0  0  0  0  0  0  0  0  0  0  0
 19 20  1  0
 20 21  2  0
 20 22  2  0
 20 13  1  0
 13 14  2  0
 13 18  1  0
 14 15  1  0
 15 16  2  0
 16  1  1  0
 16 17  1  0
  1  2  1  0
  2  3  2  0
  3  4  1  0
  3 12  1  0
  4  5  2  0
  4  6  1  0
  6  7  1  0
  7  8  1  0
  7 12  2  0
  8  9  2  0
  9 10  1  0
 10 11  2  0
 11 12  1  0
 17 18  2  0
M  END
>  <minimizedAffinity>  (415) 
-8.64129

$$$$
data/reference_output_2/data/smiles/190058.pdb
     RDKit          3D

 25 27  0  0  0  0  0  0  0  0999 V2000
   69.5471   42.8848   57.9880 C   0  0  0  0  0  0  0  0  0  0  0  0
   69.0573   43.9185   57.0388 C   0  0  0  0  0  0  0  0  0  0  0  0
   68.1575   43.7455   56.0255 N   0  0  0  0  0  0  0  0  0  0  0  0
   67.9811   44.8786   55.4133 O   0  0  0  0  0  0  0  0  0  0  0  0
   68.7160   45.8256   55.9576 C   0  0  0  0  0  0  0  0  0  0  0  0
   69.3755   45.2207   56.9594 N   0  0  0  0  0  0  0  0  0  0  0  0
   68.7855   47.2697   55.5308 C   0  0  0  0  0  0  0  0  0  0  0  0
   68.9672   47.3703   54.0704 C   0  0  0  0  0  0  0  0  0  0  0  0
   68.2855   46.4956   53.2507 C   0  0  0  0  0  0  0  0  0  0  0  0
   68.4037   46.5277   51.8707 C   0  0  0  0  0  0  0  0  0  0  0  0
   69.2306   47.4674   51.2996 C   0  0  0  0  0  0  0  0  0  0  0  0
   69.9358   48.3673   52.0915 C   0  0  0  0  0  0  0  0  0  0  0  0
   69.7867   48.2985   53.4614 C   0  0  0  0  0  0  0  0  0  0  0  0
   67.6179   41.7104   59.1342 C   0  0  0  0  0  0  0  0  0  0  0  0
   67.5521   40.9596   58.1276 O   0  0  0  0  0  0  0  0  0  0  0  0
   68.6274   42.7075   59.0940 N   0  0  0  0  0  0  0  0  0  0  0  0
   69.4685   41.7638   64.0676 N   0  0  0  0  0  0  0  0  0  0  0  0
   68.7831   42.3731   63.0012 C   0  0  0  0  0  0  0  0  0  0  0  0
   69.2762   43.4223   62.5103 O   0  0  0  0  0  0  0  0  0  0  0  0
   67.5735   41.8264   62.4945 N   0  0  0  0  0  0  0  0  0  0  0  0
   67.0393   40.6315   63.0790 C   0  0  0  0  0  0  0  0  0  0  0  0
   66.1172   39.9891   62.0423 C   0  0  0  0  0  0  0  0  0  0  0  0
   66.8542   40.0632   60.7174 C   0  0  0  0  0  0  0  0  0  0  0  0
   66.6837   41.5111   60.2330 C   0  0  1  0  0  0  0  0  0  0  0  0
   66.8564   42.4505   61.3862 C   0  0  0  0  0  0  0  0  0  0  0  0
 17 18  1  0
 18 19  2  0
 18 20  1  0
 20 21  1  0
 20 25  1  0
 21 22  1  0
 22 23  1  0
 23 24  1  0
 24 14  1  6
 24 25  1  0
 14 15  2  0
 14 16  1  0
 16  1  1  0
  1  2  1  0
  2  3  2  0
  2  6  1  0
  3  4  1  0
  4  5  1  0
  5  7  1  0
  5  6  2  0
  7  8  1  0
  8  9  2  0
  8 13  1  0
  9 10  1  0
 10 11  2  0
 11 12  1  0
 12 13  2  0
M  END
>  <minimizedAffinity>  (416) 
-8.64110

$$$$
data/reference_output_2/data/smiles/130919.pdb
     RDKit          3D

 22 23  0  0  0  0  0  0  0  0999 V2000
   66.8478   42.1954   55.7403 C   0  0  0  0  0  0  0  0  0  0  0  0
   68.1216   42.5040   56.4572 C   0  0  0  0  0  0  0  0  0  0  0  0
   68.6829   43.6635   56.4217 N   0  0  0  0  0  0  0  0  0  0  0  0
   68.7257   41.3963   57.2263 C   0  0  0  0  0  0  0  0  0  0  0  0
   68.0348   40.2081   57.3901 C   0  0  0  0  0  0  0  0  0  0  0  0
   68.5759   39.1601   58.1018 C   0  0  0  0  0  0  0  0  0  0  0  0
   69.8219   39.2459   58.6803 C   0  0  0  0  0  0  0  0  0  0  0  0
   70.4910   37.8989   59.5824 Cl  0  0  0  0  0  0  0  0  0  0  0  0
   70.5144   40.4323   58.5170 C   0  0  0  0  0  0  0  0  0  0  0  0
   72.0940   40.5443   59.2464 Cl  0  0  0  0  0  0  0  0  0  0  0  0
   69.9731   41.4939   57.7994 C   0  0  0  0  0  0  0  0  0  0  0  0
   68.0622   44.6703   55.6743 N   0  0  0  0  0  0  0  0  0  0  0  0
   68.5846   45.9794   55.5593 C   0  0  0  0  0  0  0  0  0  0  0  0
   69.6778   46.1971   56.1844 O   0  0  0  0  0  0  0  0  0  0  0  0
   67.9352   47.0443   54.7758 C   0  0  0  0  0  0  0  0  0  0  0  0
   68.4012   47.1112   53.3878 C   0  0  0  0  0  0  0  0  0  0  0  0
   69.3152   47.9914   52.8478 C   0  0  0  0  0  0  0  0  0  0  0  0
   70.0550   49.0876   53.5762 C   0  0  0  0  0  0  0  0  0  0  0  0
   69.4107   47.6704   51.5466 N   0  0  0  0  0  0  0  0  0  0  0  0
   68.6277   46.6566   51.2266 N   0  0  0  0  0  0  0  0  0  0  0  0
   67.9821   46.2871   52.3683 C   0  0  0  0  0  0  0  0  0  0  0  0
   67.0707   45.2358   52.3831 O   0  0  0  0  0  0  0  0  0  0  0  0
  1  2  1  0
  2  3  2  0
  2  4  1  0
  3 12  1  0
 12 13  1  0
 13 14  2  0
 13 15  1  0
 15 16  1  0
 16 17  1  0
 16 21  2  0
 17 18  1  0
 17 19  2  0
 19 20  1  0
 20 21  1  0
 21 22  1  0
  4  5  2  0
  4 11  1  0
  5  6  1  0
  6  7  2  0
  7  8  1  0
  7  9  1  0
  9 10  1  0
  9 11  2  0
M  END
>  <minimizedAffinity>  (417) 
-8.64069

$$$$
data/200k_reference_output/data/smiles/6973.pdb
     RDKit          3D

 24 26  0  0  0  0  0  0  0  0999 V2000
   67.7312   44.0860   55.9048 O   0  0  0  0  0  0  0  0  0  0  0  0
   68.8081   44.0515   56.5426 C   0  0  0  0  0  0  0  0  0  0  0  0
   69.4852   45.2859   56.7050 N   0  0  0  0  0  0  0  0  0  0  0  0
   69.2805   42.7749   57.0636 C   0  0  0  0  0  0  0  0  0  0  0  0
   70.5393   42.5757   57.5874 C   0  0  0  0  0  0  0  0  0  0  0  0
   70.9310   41.3201   58.0720 C   0  0  0  0  0  0  0  0  0  0  0  0
   70.0643   40.2593   58.0330 C   0  0  0  0  0  0  0  0  0  0  0  0
   68.8391   40.4726   57.5172 N   0  0  0  0  0  0  0  0  0  0  0  0
   68.4495   41.6735   57.0486 C   0  0  0  0  0  0  0  0  0  0  0  0
   70.4105   38.9030   58.5265 C   0  0  0  0  0  0  0  0  0  0  0  0
   69.6987   38.2985   59.5269 C   0  0  0  0  0  0  0  0  0  0  0  0
   70.0339   37.0250   59.9807 C   0  0  0  0  0  0  0  0  0  0  0  0
   71.1035   36.4057   59.3824 C   0  0  0  0  0  0  0  0  0  0  0  0
   71.8143   37.0231   58.3750 C   0  0  0  0  0  0  0  0  0  0  0  0
   71.4460   38.2413   57.9842 N   0  0  0  0  0  0  0  0  0  0  0  0
   68.9053   46.7788   56.0808 S   0  0  0  0  0  0  0  0  0  0  0  0
   67.6147   47.1530   56.7588 O   0  0  0  0  0  0  0  0  0  0  0  0
   69.9075   47.8441   56.4310 O   0  0  0  0  0  0  0  0  0  0  0  0
   68.7165   46.7606   54.3563 C   0  0  0  0  0  0  0  0  0  0  0  0
   69.3960   47.6721   53.5754 C   0  0  0  0  0  0  0  0  0  0  0  0
   69.2578   47.6727   52.1950 C   0  0  0  0  0  0  0  0  0  0  0  0
   68.4402   46.7669   51.5548 C   0  0  0  0  0  0  0  0  0  0  0  0
   67.7535   45.8473   52.3180 C   0  0  0  0  0  0  0  0  0  0  0  0
   67.9103   45.8712   53.6869 C   0  0  0  0  0  0  0  0  0  0  0  0
  1  2  2  0
  2  3  1  0
  2  4  1  0
  3 16  1  0
 16 17  2  0
 16 18  2  0
 16 19  1  0
 19 20  2  0
 19 24  1  0
 20 21  1  0
 21 22  2  0
 22 23  1  0
 23 24  2  0
  4  5  2  0
  4  9  1  0
  5  6  1  0
  6  7  2  0
  7 10  1  0
  7  8  1  0
 10 11  2  0
 10 15  1  0
 11 12  1  0
 12 13  2  0
 13 14  1  0
 14 15  2  0
  8  9  2  0
M  END
>  <minimizedAffinity>  (418) 
-8.64053

$$$$
data/reference_output_2/data/smiles/145592.pdb
     RDKit          3D

 24 26  0  0  0  0  0  0  0  0999 V2000
   70.3415   51.6192   53.2234 O   0  0  0  0  0  0  0  0  0  0  0  0
   70.7545   50.4391   53.5572 C   0  0  0  0  0  0  0  0  0  0  0  0
   71.9119   50.4130   54.3549 N   0  0  0  0  0  0  0  0  0  0  0  0
   70.0136   49.2864   53.0936 C   0  0  0  0  0  0  0  0  0  0  0  0
   69.5671   48.3292   54.0215 C   0  0  0  0  0  0  0  0  0  0  0  0
   68.8630   47.2109   53.6763 C   0  0  0  0  0  0  0  0  0  0  0  0
   68.4231   46.2732   54.5790 C   0  0  0  0  0  0  0  0  0  0  0  0
   67.7204   45.1707   54.1665 C   0  0  0  0  0  0  0  0  0  0  0  0
   67.4324   44.9757   52.8204 C   0  0  0  0  0  0  0  0  0  0  0  0
   67.8829   45.9293   51.9334 C   0  0  0  0  0  0  0  0  0  0  0  0
   68.5964   47.0536   52.3236 C   0  0  0  0  0  0  0  0  0  0  0  0
   69.0041   47.9326   51.4503 O   0  0  0  0  0  0  0  0  0  0  0  0
   69.6968   49.0295   51.7982 C   0  0  0  0  0  0  0  0  0  0  0  0
   70.0299   49.7935   50.8722 O   0  0  0  0  0  0  0  0  0  0  0  0
   72.6095   51.6370   54.7925 C   0  0  0  0  0  0  0  0  0  0  0  0
   72.3644   51.9536   56.2403 C   0  0  0  0  0  0  0  0  0  0  0  0
   71.2173   52.9284   56.4145 C   0  0  0  0  0  0  0  0  0  0  0  0
   70.0300   52.1265   56.8159 C   0  0  0  0  0  0  0  0  0  0  0  0
   68.7883   52.3119   56.2277 C   0  0  0  0  0  0  0  0  0  0  0  0
   67.7200   51.5326   56.6442 C   0  0  0  0  0  0  0  0  0  0  0  0
   67.8953   50.5890   57.6294 C   0  0  0  0  0  0  0  0  0  0  0  0
   66.8293   49.7852   58.0710 O   0  0  0  0  0  0  0  0  0  0  0  0
   69.1258   50.4068   58.2105 C   0  0  0  0  0  0  0  0  0  0  0  0
   70.1623   51.1827   57.7859 C   0  0  0  0  0  0  0  0  0  0  0  0
  1  2  2  0
  2  3  1  0
  2  4  1  0
  3 15  1  0
 15 16  1  0
 16 17  1  0
 17 18  1  0
 18 19  2  0
 18 24  1  0
 19 20  1  0
 20 21  2  0
 21 22  1  0
 21 23  1  0
 23 24  2  0
  4  5  2  0
  4 13  1  0
  5  6  1  0
  6  7  2  0
  6 11  1  0
  7  8  1  0
  8  9  2  0
  9 10  1  0
 10 11  2  0
 11 12  1  0
 12 13  1  0
 13 14  2  0
M  END
>  <minimizedAffinity>  (419) 
-8.64039

$$$$
data/200k_reference_output/data/smiles/28726.pdb
     RDKit          3D

 25 27  0  0  0  0  0  0  0  0999 V2000
   70.9544   50.3000   53.7961 C   0  0  0  0  0  0  0  0  0  0  0  0
   70.7722   51.4205   53.2562 O   0  0  0  0  0  0  0  0  0  0  0  0
   71.9926   50.2220   54.7593 N   0  0  0  0  0  0  0  0  0  0  0  0
   69.6752   48.4003   55.7794 C   0  0  0  0  0  0  0  0  0  0  0  0
   69.5662   48.3057   54.3234 N   0  0  0  0  0  0  0  0  0  0  0  0
   70.1291   49.1424   53.4407 C   0  0  0  0  0  0  0  0  0  0  0  0
   69.7725   48.6878   52.2045 C   0  0  0  0  0  0  0  0  0  0  0  0
   68.9852   47.5645   52.3483 C   0  0  0  0  0  0  0  0  0  0  0  0
   68.3543   46.7057   51.4640 C   0  0  0  0  0  0  0  0  0  0  0  0
   67.6102   45.6306   51.9232 C   0  0  0  0  0  0  0  0  0  0  0  0
   66.9855   44.7781   51.0599 F   0  0  0  0  0  0  0  0  0  0  0  0
   67.4838   45.3936   53.2744 C   0  0  0  0  0  0  0  0  0  0  0  0
   68.1149   46.2534   54.1391 C   0  0  0  0  0  0  0  0  0  0  0  0
   68.8608   47.3309   53.7017 C   0  0  0  0  0  0  0  0  0  0  0  0
   72.8305   51.3119   55.1497 C   0  0  2  0  0  0  0  0  0  0  0  0
   74.2718   51.0299   54.9278 C   0  0  0  0  0  0  0  0  0  0  0  0
   75.1942   51.7230   55.4402 O   0  0  0  0  0  0  0  0  0  0  0  0
   74.6673   49.9667   54.1300 O   0  0  0  0  0  0  0  0  0  0  0  0
   72.5622   51.5621   56.6407 C   0  0  0  0  0  0  0  0  0  0  0  0
   71.1138   51.7807   56.8738 C   0  0  0  0  0  0  0  0  0  0  0  0
   70.3910   52.7524   56.2142 C   0  0  0  0  0  0  0  0  0  0  0  0
   69.0400   52.9528   56.4353 C   0  0  0  0  0  0  0  0  0  0  0  0
   68.3704   52.1586   57.3487 C   0  0  0  0  0  0  0  0  0  0  0  0
   69.0747   51.1682   58.0319 C   0  0  0  0  0  0  0  0  0  0  0  0
   70.4148   51.0031   57.7816 C   0  0  0  0  0  0  0  0  0  0  0  0
  4  5  1  0
  5  6  1  0
  5 14  1  0
  6  1  1  0
  6  7  2  0
  1  2  2  0
  1  3  1  0
  3 15  1  0
 15 19  1  1
 15 16  1  0
 19 20  1  0
 20 21  2  0
 20 25  1  0
 21 22  1  0
 22 23  2  0
 23 24  1  0
 24 25  2  0
 16 17  2  0
 16 18  1  0
  7  8  1  0
  8  9  1  0
  8 14  2  0
  9 10  2  0
 10 11  1  0
 10 12  1  0
 12 13  2  0
 13 14  1  0
M  END
>  <minimizedAffinity>  (420) 
-8.63886

$$$$
data/reference_output_2/data/smiles/163551.pdb
     RDKit          3D

 24 27  0  0  0  0  0  0  0  0999 V2000
   72.5181   35.4787   52.1493 O   0  0  0  0  0  0  0  0  0  0  0  0
   73.2210   35.4191   53.2026 C   0  0  0  0  0  0  0  0  0  0  0  0
   72.5734   35.5258   54.4342 C   0  0  0  0  0  0  0  0  0  0  0  0
   73.3036   35.4657   55.5998 C   0  0  0  0  0  0  0  0  0  0  0  0
   74.6295   35.3018   55.4427 N   0  0  0  0  0  0  0  0  0  0  0  0
   75.2428   35.1987   54.2334 C   0  0  0  0  0  0  0  0  0  0  0  0
   76.5314   35.0348   53.8625 N   0  0  0  0  0  0  0  0  0  0  0  0
   76.6373   34.9910   52.5242 C   0  0  0  0  0  0  0  0  0  0  0  0
   75.3850   35.1307   52.0559 N   0  0  0  0  0  0  0  0  0  0  0  0
   74.5448   35.2568   53.0928 N   0  0  0  0  0  0  0  0  0  0  0  0
   72.6945   35.5703   56.9305 C   0  0  0  0  0  0  0  0  0  0  0  0
   72.2764   36.7770   57.4181 C   0  0  0  0  0  0  0  0  0  0  0  0
   71.6925   36.8860   58.6910 C   0  0  0  0  0  0  0  0  0  0  0  0
   71.5179   35.7898   59.4967 C   0  0  0  0  0  0  0  0  0  0  0  0
   71.9329   34.5710   59.0221 C   0  0  0  0  0  0  0  0  0  0  0  0
   72.5121   34.4808   57.7521 C   0  0  0  0  0  0  0  0  0  0  0  0
   77.8898   34.8198   51.7111 C   0  0  0  0  0  0  0  0  0  0  0  0
   77.5629   34.7341   50.2730 C   0  0  0  0  0  0  0  0  0  0  0  0
   76.7688   33.7400   49.7650 C   0  0  0  0  0  0  0  0  0  0  0  0
   76.4718   33.6755   48.4126 C   0  0  0  0  0  0  0  0  0  0  0  0
   76.9834   34.6293   47.5498 C   0  0  0  0  0  0  0  0  0  0  0  0
   76.6787   34.5431   46.2328 F   0  0  0  0  0  0  0  0  0  0  0  0
   77.7847   35.6305   48.0704 C   0  0  0  0  0  0  0  0  0  0  0  0
   78.0682   35.6776   49.4184 C   0  0  0  0  0  0  0  0  0  0  0  0
  1  2  2  0
  2  3  1  0
  2 10  1  0
  3  4  2  0
  4 11  1  0
  4  5  1  0
 11 12  2  0
 11 16  1  0
 12 13  1  0
 13 14  2  0
 14 15  1  0
 15 16  2  0
  5  6  1  0
  6  7  2  0
  6 10  1  0
  7  8  1  0
  8 17  1  0
  8  9  2  0
 17 18  1  0
 18 19  2  0
 18 24  1  0
 19 20  1  0
 20 21  2  0
 21 22  1  0
 21 23  1  0
 23 24  2  0
  9 10  1  0
M  END
>  <minimizedAffinity>  (421) 
-8.63818

$$$$
data/reference_output_2/data/smiles/184464.pdb
     RDKit          3D

 24 26  0  0  0  0  0  0  0  0999 V2000
   72.2328   52.6178   55.3491 C   0  0  0  0  0  0  0  0  0  0  0  0
   71.5007   53.6839   55.8126 C   0  0  0  0  0  0  0  0  0  0  0  0
   70.2655   53.4990   56.3940 C   0  0  0  0  0  0  0  0  0  0  0  0
   69.7752   52.2008   56.5009 C   0  0  0  0  0  0  0  0  0  0  0  0
   68.5595   51.9744   57.0696 C   0  0  0  0  0  0  0  0  0  0  0  0
   68.0646   50.6962   57.1817 C   0  0  0  0  0  0  0  0  0  0  0  0
   68.7908   49.5840   56.7153 C   0  0  0  0  0  0  0  0  0  0  0  0
   69.9652   49.8757   56.1734 N   0  0  0  0  0  0  0  0  0  0  0  0
   70.4838   51.1075   56.0460 C   0  0  0  0  0  0  0  0  0  0  0  0
   71.7129   51.3434   55.4717 C   0  0  0  0  0  0  0  0  0  0  0  0
   72.4845   50.2906   54.9906 O   0  0  0  0  0  0  0  0  0  0  0  0
   74.5746   53.0314   55.4011 O   0  0  0  0  0  0  0  0  0  0  0  0
   73.5438   52.7998   54.7301 C   0  0  0  0  0  0  0  0  0  0  0  0
   73.6504   52.7135   53.3518 O   0  0  0  0  0  0  0  0  0  0  0  0
   68.1939   48.2545   56.8711 C   0  0  0  0  0  0  0  0  0  0  0  0
   68.9378   47.1024   56.2822 C   0  0  0  0  0  0  0  0  0  0  0  0
   68.8109   47.0484   54.8108 C   0  0  0  0  0  0  0  0  0  0  0  0
   69.4152   47.9162   53.9325 C   0  0  0  0  0  0  0  0  0  0  0  0
   69.2019   47.7948   52.5727 C   0  0  0  0  0  0  0  0  0  0  0  0
   68.3861   46.8050   52.0748 C   0  0  0  0  0  0  0  0  0  0  0  0
   68.1769   46.6894   50.7099 O   0  0  0  0  0  0  0  0  0  0  0  0
   67.7691   45.9222   52.9190 C   0  0  0  0  0  0  0  0  0  0  0  0
   66.9462   44.9248   52.4126 O   0  0  0  0  0  0  0  0  0  0  0  0
   67.9859   46.0516   54.2687 C   0  0  0  0  0  0  0  0  0  0  0  0
 12 13  2  0
 13 14  1  0
 13  1  1  0
  1  2  2  0
  1 10  1  0
  2  3  1  0
  3  4  2  0
  4  5  1  0
  4  9  1  0
  5  6  2  0
  6  7  1  0
  7 15  1  0
  7  8  2  0
 15 16  1  0
 16 17  1  0
 17 18  2  0
 17 24  1  0
 18 19  1  0
 19 20  2  0
 20 21  1  0
 20 22  1  0
 22 23  1  0
 22 24  2  0
  8  9  1  0
  9 10  2  0
 10 11  1  0
M  END
>  <minimizedAffinity>  (422) 
-8.63805

$$$$
data/reference_output_2/data/smiles/195892.pdb
     RDKit          3D

 21 22  0  0  0  0  0  0  0  0999 V2000
   69.0735   45.8220   56.6185 C   0  0  0  0  0  0  0  0  0  0  0  0
   69.9908   46.3497   57.5038 C   0  0  0  0  0  0  0  0  0  0  0  0
   70.7703   45.5086   58.2638 C   0  0  0  0  0  0  0  0  0  0  0  0
   71.9577   46.1441   59.4115 Cl  0  0  0  0  0  0  0  0  0  0  0  0
   70.6150   44.1821   58.1225 N   0  0  0  0  0  0  0  0  0  0  0  0
   69.7276   43.6252   57.2652 C   0  0  0  0  0  0  0  0  0  0  0  0
   68.9885   44.4829   56.5439 N   0  0  0  0  0  0  0  0  0  0  0  0
   68.2477   46.6739   55.8070 N   0  0  0  0  0  0  0  0  0  0  0  0
   69.9275   48.9101   51.8040 C   0  0  0  0  0  0  0  0  0  0  0  0
   69.1702   47.7965   52.4271 C   0  0  0  0  0  0  0  0  0  0  0  0
   68.5848   46.8201   51.6513 C   0  0  0  0  0  0  0  0  0  0  0  0
   67.8758   45.7761   52.2086 C   0  0  0  0  0  0  0  0  0  0  0  0
   67.7758   45.7469   53.5829 C   0  0  0  0  0  0  0  0  0  0  0  0
   68.3507   46.7105   54.4048 C   0  0  0  0  0  0  0  0  0  0  0  0
   69.0507   47.7373   53.8063 C   0  0  0  0  0  0  0  0  0  0  0  0
   69.7011   48.8018   54.5901 C   0  0  0  0  0  0  0  0  0  0  0  0
   69.5957   42.2138   57.1451 N   0  0  0  0  0  0  0  0  0  0  0  0
   68.3234   41.5777   57.4008 C   0  0  0  0  0  0  0  0  0  0  0  0
   67.5373   41.3941   56.1601 C   0  0  0  0  0  0  0  0  0  0  0  0
   66.7866   42.3047   55.7342 O   0  0  0  0  0  0  0  0  0  0  0  0
   67.6091   40.2203   55.4368 O   0  0  0  0  0  0  0  0  0  0  0  0
  9 10  1  0
 10 11  2  0
 10 15  1  0
 11 12  1  0
 12 13  2  0
 13 14  1  0
 14  8  1  0
 14 15  2  0
  8  1  1  0
  1  2  2  0
  1  7  1  0
  2  3  1  0
  3  4  1  0
  3  5  2  0
  5  6  1  0
  6 17  1  0
  6  7  2  0
 17 18  1  0
 18 19  1  0
 19 20  2  0
 19 21  1  0
 15 16  1  0
M  END
>  <minimizedAffinity>  (423) 
-8.63786

$$$$
data/reference_output_2/data/smiles/195424.pdb
     RDKit          3D

 21 22  0  0  0  0  0  0  0  0999 V2000
   69.2065   46.7612   56.9204 C   0  0  0  0  0  0  0  0  0  0  0  0
   69.6036   48.1940   57.5589 S   0  0  0  0  0  0  0  0  0  0  0  0
   68.2260   46.5930   55.9610 N   0  0  0  0  0  0  0  0  0  0  0  0
   69.3033   47.7373   52.6125 C   0  0  0  0  0  0  0  0  0  0  0  0
   68.6323   46.8829   51.7572 C   0  0  0  0  0  0  0  0  0  0  0  0
   67.8139   45.9288   52.2935 C   0  0  0  0  0  0  0  0  0  0  0  0
   67.6545   45.8124   53.6814 C   0  0  0  0  0  0  0  0  0  0  0  0
   68.3004   46.6362   54.5515 C   0  0  0  0  0  0  0  0  0  0  0  0
   69.1231   47.5946   53.9676 C   0  0  0  0  0  0  0  0  0  0  0  0
   69.8979   49.3449   51.0222 O   0  0  0  0  0  0  0  0  0  0  0  0
   70.1878   48.7715   52.0931 C   0  0  0  0  0  0  0  0  0  0  0  0
   71.3200   49.0947   52.7886 O   0  0  0  0  0  0  0  0  0  0  0  0
   69.9245   45.6031   57.4054 N   0  0  0  0  0  0  0  0  0  0  0  0
   69.3462   44.3318   57.3470 N   0  0  0  0  0  0  0  0  0  0  0  0
   69.9746   43.2709   57.7273 C   0  0  0  0  0  0  0  0  0  0  0  0
   69.4497   41.9376   57.6973 C   0  0  0  0  0  0  0  0  0  0  0  0
   69.9112   40.8752   58.4427 C   0  0  0  0  0  0  0  0  0  0  0  0
   69.3767   39.6127   58.3913 C   0  0  0  0  0  0  0  0  0  0  0  0
   68.3058   39.3857   57.5379 C   0  0  0  0  0  0  0  0  0  0  0  0
   67.8456   40.4447   56.7929 C   0  0  0  0  0  0  0  0  0  0  0  0
   68.4029   41.6518   56.8826 N   0  0  0  0  0  0  0  0  0  0  0  0
 10 11  2  0
 11 12  1  0
 11  4  1  0
  4  5  2  0
  4  9  1  0
  5  6  1  0
  6  7  2  0
  7  8  1  0
  8  3  1  0
  8  9  2  0
  3  1  1  0
  1  2  2  0
  1 13  1  0
 13 14  1  0
 14 15  2  0
 15 16  1  0
 16 17  2  0
 16 21  1  0
 17 18  1  0
 18 19  2  0
 19 20  1  0
 20 21  2  0
M  END
>  <minimizedAffinity>  (424) 
-8.63735

$$$$
data/200k_reference_output/data/smiles/26034.pdb
     RDKit          3D

 23 25  0  0  0  0  0  0  0  0999 V2000
   69.7845   46.4191   57.9806 O   0  0  0  0  0  0  0  0  0  0  0  0
   69.0705   46.3039   56.9479 C   0  0  0  0  0  0  0  0  0  0  0  0
   68.7645   45.0067   56.4510 N   0  0  0  0  0  0  0  0  0  0  0  0
   69.2826   43.9094   57.1515 N   0  0  0  0  0  0  0  0  0  0  0  0
   68.8132   42.7272   57.0745 C   0  0  0  0  0  0  0  0  0  0  0  0
   67.6747   42.3523   56.2508 C   0  0  0  0  0  0  0  0  0  0  0  0
   67.0195   43.1448   55.5169 O   0  0  0  0  0  0  0  0  0  0  0  0
   67.4861   40.9623   56.4546 N   0  0  0  0  0  0  0  0  0  0  0  0
   68.4515   40.4424   57.3679 C   0  0  0  0  0  0  0  0  0  0  0  0
   68.6933   39.1809   57.8877 C   0  0  0  0  0  0  0  0  0  0  0  0
   69.7105   38.9127   58.7781 C   0  0  0  0  0  0  0  0  0  0  0  0
   70.5136   39.9870   59.1528 C   0  0  0  0  0  0  0  0  0  0  0  0
   70.2676   41.2379   58.6339 C   0  0  0  0  0  0  0  0  0  0  0  0
   69.2531   41.5017   57.7450 C   0  0  0  0  0  0  0  0  0  0  0  0
   68.5628   47.5528   56.2718 C   0  0  0  0  0  0  0  0  0  0  0  0
   68.7672   47.4396   54.8057 C   0  0  0  0  0  0  0  0  0  0  0  0
   69.7143   48.2619   54.2086 C   0  0  0  0  0  0  0  0  0  0  0  0
   69.9547   48.2080   52.8443 C   0  0  0  0  0  0  0  0  0  0  0  0
   69.2362   47.3180   52.0670 C   0  0  0  0  0  0  0  0  0  0  0  0
   69.5014   47.2865   50.6950 O   0  0  0  0  0  0  0  0  0  0  0  0
   68.2950   46.4990   52.6525 C   0  0  0  0  0  0  0  0  0  0  0  0
   67.3963   45.3754   51.6292 Cl  0  0  0  0  0  0  0  0  0  0  0  0
   68.0635   46.5631   54.0231 C   0  0  0  0  0  0  0  0  0  0  0  0
  1  2  2  0
  2 15  1  0
  2  3  1  0
 15 16  1  0
 16 17  2  0
 16 23  1  0
 17 18  1  0
 18 19  2  0
 19 20  1  0
 19 21  1  0
 21 22  1  0
 21 23  2  0
  3  4  1  0
  4  5  2  0
  5  6  1  0
  5 14  1  0
  6  7  2  0
  6  8  1  0
  8  9  1  0
  9 10  1  0
  9 14  2  0
 10 11  2  0
 11 12  1  0
 12 13  2  0
 13 14  1  0
M  END
>  <minimizedAffinity>  (425) 
-8.63703

$$$$
data/reference_output_2/data/smiles/195000.pdb
     RDKit          3D

 22 23  0  0  0  0  0  0  0  0999 V2000
   70.6724   51.6557   54.2877 N   0  0  0  0  0  0  0  0  0  0  0  0
   69.6358   50.9876   54.4159 C   0  0  0  0  0  0  0  0  0  0  0  0
   68.8695   50.6717   55.6082 C   0  0  0  0  0  0  0  0  0  0  0  0
   69.0115   49.4709   56.2479 C   0  0  0  0  0  0  0  0  0  0  0  0
   68.2690   49.1385   57.3912 C   0  0  0  0  0  0  0  0  0  0  0  0
   67.3568   50.0179   57.9215 C   0  0  0  0  0  0  0  0  0  0  0  0
   67.2013   51.2302   57.2892 C   0  0  0  0  0  0  0  0  0  0  0  0
   67.9400   51.5372   56.1679 C   0  0  0  0  0  0  0  0  0  0  0  0
   71.5873   52.3785   55.0370 C   0  0  0  0  0  0  0  0  0  0  0  0
   72.7574   51.5287   55.5728 C   0  0  0  0  0  0  0  0  0  0  0  0
   74.1274   50.3460   53.7200 N   0  0  0  0  0  0  0  0  0  0  0  0
   73.5146   50.8744   54.5446 C   0  0  0  0  0  0  0  0  0  0  0  0
   69.1310   50.4554   53.1554 N   0  0  0  0  0  0  0  0  0  0  0  0
   69.9209   49.1284   52.4098 S   0  0  0  0  0  0  0  0  0  0  0  0
   70.1264   49.3380   50.9433 O   0  0  0  0  0  0  0  0  0  0  0  0
   71.3102   48.9863   53.0005 O   0  0  0  0  0  0  0  0  0  0  0  0
   69.0449   47.6713   52.7551 C   0  0  0  0  0  0  0  0  0  0  0  0
   68.9185   47.2687   54.0667 C   0  0  0  0  0  0  0  0  0  0  0  0
   68.2352   46.1290   54.4297 C   0  0  0  0  0  0  0  0  0  0  0  0
   67.6401   45.3341   53.4479 C   0  0  0  0  0  0  0  0  0  0  0  0
   67.7768   45.7488   52.1609 C   0  0  0  0  0  0  0  0  0  0  0  0
   68.4586   46.8859   51.8000 C   0  0  0  0  0  0  0  0  0  0  0  0
 11 12  3  0
 12 10  1  0
 10  9  1  0
  9  1  1  0
  1  2  2  0
  2 13  1  0
  2  3  1  0
 13 14  1  0
 14 15  2  0
 14 16  2  0
 14 17  1  0
 17 18  2  0
 17 22  1  0
 18 19  1  0
 19 20  2  0
 20 21  1  0
 21 22  2  0
  3  4  2  0
  3  8  1  0
  4  5  1  0
  5  6  2  0
  6  7  1  0
  7  8  2  0
M  CHG  1   1   1
M  END
>  <minimizedAffinity>  (426) 
-8.63682

$$$$
data/200k_reference_output/data/smiles/30482.pdb
     RDKit          3D

 23 25  0  0  0  0  0  0  0  0999 V2000
   69.3484   46.9469   57.6400 O   0  0  0  0  0  0  0  0  0  0  0  0
   69.1540   47.0191   56.2721 C   0  0  0  0  0  0  0  0  0  0  0  0
   69.7041   48.0968   55.5643 C   0  0  0  0  0  0  0  0  0  0  0  0
   69.5376   48.2082   54.2000 C   0  0  0  0  0  0  0  0  0  0  0  0
   68.8309   47.2793   53.4666 C   0  0  0  0  0  0  0  0  0  0  0  0
   68.6642   47.3906   52.1032 C   0  0  0  0  0  0  0  0  0  0  0  0
   67.9476   46.4374   51.3985 C   0  0  0  0  0  0  0  0  0  0  0  0
   67.4309   45.3986   52.1573 C   0  0  0  0  0  0  0  0  0  0  0  0
   66.7724   44.5191   51.5193 O   0  0  0  0  0  0  0  0  0  0  0  0
   67.6122   45.3295   53.4544 O   0  0  0  0  0  0  0  0  0  0  0  0
   68.2854   46.2156   54.1469 C   0  0  0  0  0  0  0  0  0  0  0  0
   68.4529   46.1027   55.5220 C   0  0  0  0  0  0  0  0  0  0  0  0
   70.4921   46.5878   58.3210 C   0  0  0  0  0  0  0  0  0  0  0  0
   71.7139   44.6278   57.8615 O   0  0  0  0  0  0  0  0  0  0  0  0
   70.7042   45.1427   58.3647 C   0  0  0  0  0  0  0  0  0  0  0  0
   69.7146   44.3270   59.0059 N   0  0  0  0  0  0  0  0  0  0  0  0
   69.9433   42.8971   59.0402 C   0  0  0  0  0  0  0  0  0  0  0  0
   69.1068   42.2113   58.0249 C   0  0  0  0  0  0  0  0  0  0  0  0
   68.9518   40.8540   57.9664 C   0  0  0  0  0  0  0  0  0  0  0  0
   68.1700   40.2411   57.0115 C   0  0  0  0  0  0  0  0  0  0  0  0
   67.5357   41.0716   56.0964 C   0  0  0  0  0  0  0  0  0  0  0  0
   67.6813   42.4445   56.1411 C   0  0  0  0  0  0  0  0  0  0  0  0
   68.4569   42.9668   57.0988 N   0  0  0  0  0  0  0  0  0  0  0  0
 14 15  2  0
 15 13  1  0
 15 16  1  0
 13  1  1  0
  1  2  1  0
  2  3  2  0
  2 12  1  0
  3  4  1  0
  4  5  2  0
  5  6  1  0
  5 11  1  0
  6  7  2  0
  7  8  1  0
  8  9  2  0
  8 10  1  0
 10 11  1  0
 11 12  2  0
 16 17  1  0
 17 18  1  0
 18 19  2  0
 18 23  1  0
 19 20  1  0
 20 21  2  0
 21 22  1  0
 22 23  2  0
M  END
>  <minimizedAffinity>  (427) 
-8.63660

$$$$
data/reference_output_2/data/smiles/104441.pdb
     RDKit          3D

 25 27  0  0  0  0  0  0  0  0999 V2000
   70.0834   46.4829   56.8170 N   0  0  0  0  0  0  0  0  0  0  0  0
   68.9972   47.1762   56.2529 C   0  0  0  0  0  0  0  0  0  0  0  0
   67.9267   47.2766   56.8288 O   0  0  0  0  0  0  0  0  0  0  0  0
   69.2446   47.7653   54.9147 C   0  0  0  0  0  0  0  0  0  0  0  0
   69.9602   48.9210   54.7225 C   0  0  0  0  0  0  0  0  0  0  0  0
   70.1548   49.3848   53.4856 O   0  0  0  0  0  0  0  0  0  0  0  0
   69.6938   48.7897   52.4144 C   0  0  0  0  0  0  0  0  0  0  0  0
   69.9230   49.2969   51.2627 O   0  0  0  0  0  0  0  0  0  0  0  0
   68.9650   47.6256   52.5202 C   0  0  0  0  0  0  0  0  0  0  0  0
   68.4769   46.9998   51.3963 C   0  0  0  0  0  0  0  0  0  0  0  0
   67.7546   45.8385   51.5782 C   0  0  0  0  0  0  0  0  0  0  0  0
   67.5351   45.3326   52.8472 C   0  0  0  0  0  0  0  0  0  0  0  0
   68.0338   45.9769   53.9540 C   0  0  0  0  0  0  0  0  0  0  0  0
   68.7506   47.1249   53.7999 C   0  0  0  0  0  0  0  0  0  0  0  0
   70.2089   45.7941   58.0454 C   0  0  0  0  0  0  0  0  0  0  0  0
   71.5442   41.6957   58.1498 C   0  0  0  0  0  0  0  0  0  0  0  0
   72.2935   42.7275   58.6723 C   0  0  0  0  0  0  0  0  0  0  0  0
   71.8643   44.0306   58.6336 C   0  0  0  0  0  0  0  0  0  0  0  0
   70.6268   44.3908   58.0527 C   0  0  0  0  0  0  0  0  0  0  0  0
   69.8879   43.3738   57.5361 C   0  0  0  0  0  0  0  0  0  0  0  0
   70.3437   42.0412   57.5857 C   0  0  0  0  0  0  0  0  0  0  0  0
   71.2078   39.4117   58.8783 C   0  0  0  0  0  0  0  0  0  0  0  0
   71.9759   40.3732   58.1899 O   0  0  0  0  0  0  0  0  0  0  0  0
   68.6553   43.6155   56.9427 O   0  0  0  0  0  0  0  0  0  0  0  0
   67.8945   42.6623   56.2769 C   0  0  0  0  0  0  0  0  0  0  0  0
 22 23  1  0
 23 16  1  0
 16 17  2  0
 16 21  1  0
 17 18  1  0
 18 19  2  0
 19 15  1  0
 19 20  1  0
 15  1  1  0
  1  2  1  0
  2  3  2  0
  2  4  1  0
  4  5  2  0
  4 14  1  0
  5  6  1  0
  6  7  1  0
  7  8  2  0
  7  9  1  0
  9 10  1  0
  9 14  2  0
 10 11  2  0
 11 12  1  0
 12 13  2  0
 13 14  1  0
 20 24  1  0
 20 21  2  0
 24 25  1  0
M  END
>  <minimizedAffinity>  (428) 
-8.63628

$$$$
data/reference_output_2/data/smiles/198637.pdb
     RDKit          3D

 25 27  0  0  0  0  0  0  0  0999 V2000
   70.9208   46.7401   58.4355 C   0  0  0  0  0  0  0  0  0  0  0  0
   70.9968   45.3671   58.5788 C   0  0  0  0  0  0  0  0  0  0  0  0
   70.2201   44.5264   57.7889 C   0  0  0  0  0  0  0  0  0  0  0  0
   69.4026   45.0862   56.8933 N   0  0  0  0  0  0  0  0  0  0  0  0
   69.2584   46.4031   56.6800 C   0  0  0  0  0  0  0  0  0  0  0  0
   70.0586   47.2274   57.4949 C   0  0  0  0  0  0  0  0  0  0  0  0
   71.7452   47.5659   59.2912 C   0  0  0  0  0  0  0  0  0  0  0  0
   71.7309   47.1987   60.5635 N   0  0  0  0  0  0  0  0  0  0  0  0
   72.4658   47.8670   61.4820 O   0  0  0  0  0  0  0  0  0  0  0  0
   74.4962   49.9765   58.8030 C   0  0  1  0  0  0  0  0  0  0  0  0
   73.3352   50.8782   58.5585 C   0  0  0  0  0  0  0  0  0  0  0  0
   72.1081   50.0575   58.7660 C   0  0  0  0  0  0  0  0  0  0  0  0
   72.5335   48.6679   58.8861 N   0  0  0  0  0  0  0  0  0  0  0  0
   73.9280   48.6070   58.5239 C   0  0  0  0  0  0  0  0  0  0  0  0
   76.8816   50.1549   58.7410 C   0  0  0  0  0  0  0  0  0  0  0  0
   75.6527   50.2914   58.0119 N   0  0  0  0  0  0  0  0  0  0  0  0
   75.7074   49.6189   56.7501 C   0  0  0  0  0  0  0  0  0  0  0  0
   68.4225   46.9782   55.7641 O   0  0  0  0  0  0  0  0  0  0  0  0
   68.5109   46.9725   54.4036 C   0  0  0  0  0  0  0  0  0  0  0  0
   69.2372   47.8309   53.6174 C   0  0  0  0  0  0  0  0  0  0  0  0
   69.2428   47.7177   52.2459 C   0  0  0  0  0  0  0  0  0  0  0  0
   68.5273   46.7491   51.6005 C   0  0  0  0  0  0  0  0  0  0  0  0
   67.7801   45.8626   52.3552 C   0  0  0  0  0  0  0  0  0  0  0  0
   67.0794   44.9118   51.6922 F   0  0  0  0  0  0  0  0  0  0  0  0
   67.7807   45.9821   53.7206 C   0  0  0  0  0  0  0  0  0  0  0  0
 15 16  1  0
 16 17  1  0
 10 16  1  6
 10 11  1  0
 10 14  1  0
 11 12  1  0
 12 13  1  0
 13  7  1  0
 13 14  1  0
  7  8  2  0
  7  1  1  0
  8  9  1  0
  1  2  2  0
  1  6  1  0
  2  3  1  0
  3  4  2  0
  4  5  1  0
  5 18  1  0
  5  6  2  0
 18 19  1  0
 19 20  2  0
 19 25  1  0
 20 21  1  0
 21 22  2  0
 22 23  1  0
 23 24  1  0
 23 25  2  0
M  CHG  2   8   1  16   1
M  END
>  <minimizedAffinity>  (429) 
-8.63581

$$$$
data/reference_output_2/data/smiles/200280.pdb
     RDKit          3D

 25 27  0  0  0  0  0  0  0  0999 V2000
   68.8354   48.2867   56.3353 C   0  0  0  0  0  0  0  0  0  0  0  0
   68.0420   49.1432   56.8669 O   0  0  0  0  0  0  0  0  0  0  0  0
   69.5204   48.5997   55.0943 C   0  0  0  0  0  0  0  0  0  0  0  0
   70.5422   49.4998   54.8910 C   0  0  0  0  0  0  0  0  0  0  0  0
   70.8742   49.4590   53.5702 N   0  0  0  0  0  0  0  0  0  0  0  0
   70.0870   48.5636   52.9666 C   0  0  0  0  0  0  0  0  0  0  0  0
   70.0071   48.1389   51.6486 C   0  0  0  0  0  0  0  0  0  0  0  0
   69.0872   47.1831   51.2812 C   0  0  0  0  0  0  0  0  0  0  0  0
   68.2109   46.6008   52.1760 C   0  0  0  0  0  0  0  0  0  0  0  0
   68.2959   47.0324   53.5017 C   0  0  0  0  0  0  0  0  0  0  0  0
   69.2168   47.9874   53.8611 C   0  0  0  0  0  0  0  0  0  0  0  0
   67.2617   45.6151   51.7817 N   0  0  0  0  0  0  0  0  0  0  0  0
   66.9990   44.6881   52.5400 O   0  0  0  0  0  0  0  0  0  0  0  0
   66.6358   45.6849   50.5629 O   0  0  0  0  0  0  0  0  0  0  0  0
   69.7130   46.9042   58.2474 N   0  0  0  0  0  0  0  0  0  0  0  0
   69.0469   47.0008   56.9775 C   0  0  0  0  0  0  0  0  0  0  0  0
   68.6740   45.9194   56.4830 O   0  0  0  0  0  0  0  0  0  0  0  0
   69.9453   45.7015   58.9146 N   0  0  0  0  0  0  0  0  0  0  0  0
   74.4671   42.3734   57.7483 C   0  0  0  0  0  0  0  0  0  0  0  0
   73.3001   43.2660   58.0573 C   0  0  0  0  0  0  0  0  0  0  0  0
   73.4454   44.6146   58.2322 C   0  0  0  0  0  0  0  0  0  0  0  0
   72.3505   45.4044   58.5143 C   0  0  0  0  0  0  0  0  0  0  0  0
   71.0626   44.8721   58.6326 C   0  0  0  0  0  0  0  0  0  0  0  0
   70.9646   43.5139   58.4491 C   0  0  0  0  0  0  0  0  0  0  0  0
   72.0512   42.7209   58.1679 C   0  0  0  0  0  0  0  0  0  0  0  0
 19 20  1  0
 20 21  2  0
 20 25  1  0
 21 22  1  0
 22 23  2  0
 23 18  1  0
 23 24  1  0
 18 15  1  0
 15 16  1  0
 16 17  2  0
 16  1  1  0
  1  2  2  0
  1  3  1  0
  3  4  2  0
  3 11  1  0
  4  5  1  0
  5  6  1  0
  6  7  1  0
  6 11  2  0
  7  8  2  0
  8  9  1  0
  9 12  1  0
  9 10  2  0
 12 13  2  0
 12 14  1  0
 10 11  1  0
 24 25  2  0
M  CHG  2  12   1  14  -1
M  END
>  <minimizedAffinity>  (430) 
-8.63512

$$$$
data/reference_output_2/data/smiles/109645.pdb
     RDKit          3D

 24 26  0  0  0  0  0  0  0  0999 V2000
   69.9019   48.6826   54.0852 C   0  0  0  0  0  0  0  0  0  0  0  0
   69.9884   48.6750   55.4468 N   0  0  0  0  0  0  0  0  0  0  0  0
   69.4138   47.7517   56.1892 N   0  0  0  0  0  0  0  0  0  0  0  0
   68.7018   46.7555   55.6137 C   0  0  0  0  0  0  0  0  0  0  0  0
   68.1598   45.8841   56.3153 O   0  0  0  0  0  0  0  0  0  0  0  0
   68.5920   46.7309   54.2445 C   0  0  0  0  0  0  0  0  0  0  0  0
   67.8624   45.7117   53.6508 C   0  0  0  0  0  0  0  0  0  0  0  0
   67.7167   45.6309   52.2951 C   0  0  0  0  0  0  0  0  0  0  0  0
   68.3083   46.5847   51.5088 C   0  0  0  0  0  0  0  0  0  0  0  0
   69.0441   47.6133   52.1024 C   0  0  0  0  0  0  0  0  0  0  0  0
   69.2000   47.7077   53.4532 C   0  0  0  0  0  0  0  0  0  0  0  0
   70.0595   50.5646   52.5889 O   0  0  0  0  0  0  0  0  0  0  0  0
   70.5602   49.7291   53.3583 C   0  0  0  0  0  0  0  0  0  0  0  0
   71.9598   49.8501   53.5169 O   0  0  0  0  0  0  0  0  0  0  0  0
   69.4790   47.7536   57.6157 C   0  0  0  0  0  0  0  0  0  0  0  0
   70.6910   47.1254   58.2412 C   0  0  0  0  0  0  0  0  0  0  0  0
   70.6901   45.8281   58.5453 O   0  0  0  0  0  0  0  0  0  0  0  0
   71.1512   44.6279   58.2283 C   0  0  0  0  0  0  0  0  0  0  0  0
   70.1820   43.6428   57.9207 C   0  0  0  0  0  0  0  0  0  0  0  0
   70.5679   42.3740   57.5784 C   0  0  0  0  0  0  0  0  0  0  0  0
   71.8888   41.9918   57.5144 C   0  0  0  0  0  0  0  0  0  0  0  0
   72.8330   42.9416   57.8104 C   0  0  0  0  0  0  0  0  0  0  0  0
   74.5500   42.5554   57.7577 Cl  0  0  0  0  0  0  0  0  0  0  0  0
   72.4580   44.2242   58.1567 C   0  0  0  0  0  0  0  0  0  0  0  0
 12 13  2  0
 13 14  1  0
 13  1  1  0
  1  2  2  0
  1 11  1  0
  2  3  1  0
  3 15  1  0
  3  4  1  0
 15 16  1  0
 16 17  1  0
 17 18  1  0
 18 19  2  0
 18 24  1  0
 19 20  1  0
 20 21  2  0
 21 22  1  0
 22 23  1  0
 22 24  2  0
  4  5  2  0
  4  6  1  0
  6  7  1  0
  6 11  2  0
  7  8  2  0
  8  9  1  0
  9 10  2  0
 10 11  1  0
M  END
>  <minimizedAffinity>  (431) 
-8.63469

$$$$
data/reference_output_2/data/smiles/160636.pdb
     RDKit          3D

 25 28  0  0  0  0  0  0  0  0999 V2000
   76.4089   35.4597   52.6112 C   0  0  0  0  0  0  0  0  0  0  0  0
   76.5103   35.0717   53.8941 N   0  0  0  0  0  0  0  0  0  0  0  0
   75.2643   34.9971   54.4420 C   0  0  0  0  0  0  0  0  0  0  0  0
   74.8139   34.6655   55.6655 N   0  0  0  0  0  0  0  0  0  0  0  0
   73.5067   34.6646   55.9810 C   0  0  0  0  0  0  0  0  0  0  0  0
   72.5836   35.0136   55.0221 C   0  0  0  0  0  0  0  0  0  0  0  0
   73.0704   35.3481   53.7782 C   0  0  0  0  0  0  0  0  0  0  0  0
   72.2371   35.6689   52.8950 O   0  0  0  0  0  0  0  0  0  0  0  0
   74.3837   35.3436   53.4816 N   0  0  0  0  0  0  0  0  0  0  0  0
   75.0929   35.6187   52.3866 N   0  0  0  0  0  0  0  0  0  0  0  0
   77.5384   35.6642   51.6519 C   0  0  0  0  0  0  0  0  0  0  0  0
   76.3353   33.7651   46.3983 C   0  0  0  0  0  0  0  0  0  0  0  0
   76.6253   34.2348   47.7688 C   0  0  0  0  0  0  0  0  0  0  0  0
   77.5317   35.2710   47.9459 C   0  0  0  0  0  0  0  0  0  0  0  0
   77.8163   35.7224   49.2160 C   0  0  0  0  0  0  0  0  0  0  0  0
   77.2079   35.1535   50.3154 C   0  0  0  0  0  0  0  0  0  0  0  0
   76.3010   34.1199   50.1745 C   0  0  0  0  0  0  0  0  0  0  0  0
   76.0219   33.6739   48.8993 C   0  0  0  0  0  0  0  0  0  0  0  0
   73.0456   34.2877   57.3615 C   0  0  0  0  0  0  0  0  0  0  0  0
   72.3326   35.4586   57.9730 C   0  0  0  0  0  0  0  0  0  0  0  0
   71.4503   35.2818   59.0177 C   0  0  0  0  0  0  0  0  0  0  0  0
   70.7853   36.3375   59.5934 C   0  0  0  0  0  0  0  0  0  0  0  0
   70.9841   37.6194   59.1385 C   0  0  0  0  0  0  0  0  0  0  0  0
   71.8697   37.7883   58.0931 C   0  0  0  0  0  0  0  0  0  0  0  0
   72.5389   36.7381   57.5122 C   0  0  0  0  0  0  0  0  0  0  0  0
 12 13  1  0
 13 14  2  0
 13 18  1  0
 14 15  1  0
 15 16  2  0
 16 11  1  0
 16 17  1  0
 11  1  1  0
  1  2  1  0
  1 10  2  0
  2  3  2  0
  3  4  1  0
  3  9  1  0
  4  5  1  0
  5 19  1  0
  5  6  2  0
 19 20  1  0
 20 21  2  0
 20 25  1  0
 21 22  1  0
 22 23  2  0
 23 24  1  0
 24 25  2  0
  6  7  1  0
  7  8  2  0
  7  9  1  0
  9 10  1  0
 17 18  2  0
M  END
>  <minimizedAffinity>  (432) 
-8.63464

$$$$
data/reference_output_2/data/smiles/131664.pdb
     RDKit          3D

 22 23  0  0  0  0  0  0  0  0999 V2000
   67.3239   42.8311   56.0814 N   0  0  0  0  0  0  0  0  0  0  0  0
   68.0023   43.8507   55.6757 C   0  0  0  0  0  0  0  0  0  0  0  0
   67.7651   40.1558   55.6786 O   0  0  0  0  0  0  0  0  0  0  0  0
   67.9975   40.5794   56.8563 C   0  0  0  0  0  0  0  0  0  0  0  0
   67.7742   41.9492   57.0716 N   0  0  0  0  0  0  0  0  0  0  0  0
   68.4640   39.6360   57.8591 C   0  0  0  0  0  0  0  0  0  0  0  0
   67.5604   38.9392   58.6319 C   0  0  0  0  0  0  0  0  0  0  0  0
   67.9560   38.0283   59.6023 C   0  0  0  0  0  0  0  0  0  0  0  0
   69.2719   37.8206   59.7925 N   0  0  0  0  0  0  0  0  0  0  0  0
   70.1872   38.4790   59.0616 C   0  0  0  0  0  0  0  0  0  0  0  0
   69.8003   39.3997   58.0802 C   0  0  0  0  0  0  0  0  0  0  0  0
   67.4758   44.6945   54.6694 N   0  0  0  0  0  0  0  0  0  0  0  0
   68.1772   45.8022   54.1368 C   0  0  0  0  0  0  0  0  0  0  0  0
   68.5155   46.8463   55.0049 C   0  0  0  0  0  0  0  0  0  0  0  0
   69.1955   47.9344   54.5206 C   0  0  0  0  0  0  0  0  0  0  0  0
   69.5546   48.0313   53.2063 C   0  0  0  0  0  0  0  0  0  0  0  0
   69.2266   47.0130   52.3535 C   0  0  0  0  0  0  0  0  0  0  0  0
   69.5985   47.1216   51.0116 O   0  0  0  0  0  0  0  0  0  0  0  0
   68.5401   45.9007   52.8128 C   0  0  0  0  0  0  0  0  0  0  0  0
   70.2855   49.2148   52.7166 C   0  0  0  0  0  0  0  0  0  0  0  0
   71.4121   49.5219   53.1843 O   0  0  0  0  0  0  0  0  0  0  0  0
   69.7559   50.0187   51.7327 O   0  0  0  0  0  0  0  0  0  0  0  0
  3  4  2  0
  4  5  1  0
  4  6  1  0
  5  1  1  0
  1  2  2  0
  2 12  1  0
 12 13  1  0
 13 14  2  0
 13 19  1  0
 14 15  1  0
 15 16  2  0
 16 20  1  0
 16 17  1  0
 20 21  2  0
 20 22  1  0
 17 18  1  0
 17 19  2  0
  6  7  2  0
  6 11  1  0
  7  8  1  0
  8  9  2  0
  9 10  1  0
 10 11  2  0
M  END
>  <minimizedAffinity>  (433) 
-8.63308

$$$$
data/reference_output_2/data/smiles/120280.pdb
     RDKit          3D

 25 27  0  0  0  0  0  0  0  0999 V2000
   70.3769   46.5130   57.8390 C   0  0  0  0  0  0  0  0  0  0  0  0
   70.8735   44.0446   57.4322 N   0  0  0  0  0  0  0  0  0  0  0  0
   70.3244   45.0989   58.2023 C   0  0  0  0  0  0  0  0  0  0  0  0
   69.7570   44.7454   59.2762 O   0  0  0  0  0  0  0  0  0  0  0  0
   69.5884   40.5811   57.9244 C   0  0  0  0  0  0  0  0  0  0  0  0
   70.7007   39.9688   58.5102 C   0  0  0  0  0  0  0  0  0  0  0  0
   71.8372   40.7088   58.7264 C   0  0  0  0  0  0  0  0  0  0  0  0
   71.9075   42.0423   58.3780 C   0  0  0  0  0  0  0  0  0  0  0  0
   70.8165   42.6730   57.7953 C   0  0  0  0  0  0  0  0  0  0  0  0
   69.6902   41.9017   57.5920 C   0  0  0  0  0  0  0  0  0  0  0  0
   67.8585   38.9980   58.8372 C   0  0  0  0  0  0  0  0  0  0  0  0
   68.3824   39.7944   57.6956 C   0  0  0  0  0  0  0  0  0  0  0  0
   67.8246   39.7963   56.5893 O   0  0  0  0  0  0  0  0  0  0  0  0
   69.0776   47.0600   57.8928 O   0  0  0  0  0  0  0  0  0  0  0  0
   68.4467   47.6417   56.8037 C   0  0  0  0  0  0  0  0  0  0  0  0
   67.8928   48.7662   57.0057 O   0  0  0  0  0  0  0  0  0  0  0  0
   68.4050   47.0270   55.4938 C   0  0  0  0  0  0  0  0  0  0  0  0
   67.8391   45.8562   55.1725 N   0  0  0  0  0  0  0  0  0  0  0  0
   68.0022   45.6218   53.8708 N   0  0  0  0  0  0  0  0  0  0  0  0
   68.6873   46.6442   53.2969 C   0  0  0  0  0  0  0  0  0  0  0  0
   69.1043   46.8802   52.0062 C   0  0  0  0  0  0  0  0  0  0  0  0
   69.7905   48.0380   51.7575 C   0  0  0  0  0  0  0  0  0  0  0  0
   70.0441   48.9223   52.7742 C   0  0  0  0  0  0  0  0  0  0  0  0
   69.6253   48.6846   54.0716 C   0  0  0  0  0  0  0  0  0  0  0  0
   68.9373   47.5352   54.3482 C   0  0  0  0  0  0  0  0  0  0  0  0
 11 12  1  0
 12 13  2  0
 12  5  1  0
  5  6  2  0
  5 10  1  0
  6  7  1  0
  7  8  2  0
  8  9  1  0
  9  2  1  0
  9 10  2  0
  2  3  1  0
  3  4  2  0
  3  1  1  0
  1 14  1  0
 14 15  1  0
 15 16  2  0
 15 17  1  0
 17 18  1  0
 17 25  2  0
 18 19  1  0
 19 20  2  0
 20 21  1  0
 20 25  1  0
 21 22  2  0
 22 23  1  0
 23 24  2  0
 24 25  1  0
M  END
>  <minimizedAffinity>  (434) 
-8.63270

$$$$
data/reference_output_2/data/smiles/176918.pdb
     RDKit          3D

 22 23  0  0  0  0  0  0  0  0999 V2000
   70.0600   51.4400   54.0255 C   0  0  0  0  0  0  0  0  0  0  0  0
   70.8472   51.9230   53.1851 O   0  0  0  0  0  0  0  0  0  0  0  0
   69.5413   50.1313   53.8369 N   0  0  0  0  0  0  0  0  0  0  0  0
   69.9614   49.1715   52.4700 S   0  0  0  0  0  0  0  0  0  0  0  0
   69.5503   49.9259   51.2483 O   0  0  0  0  0  0  0  0  0  0  0  0
   71.4276   48.8672   52.4316 O   0  0  0  0  0  0  0  0  0  0  0  0
   69.0154   47.6942   52.5700 C   0  0  0  0  0  0  0  0  0  0  0  0
   68.8910   47.0064   53.7722 C   0  0  0  0  0  0  0  0  0  0  0  0
   68.1414   45.8382   53.8679 C   0  0  0  0  0  0  0  0  0  0  0  0
   67.5061   45.3444   52.7588 C   0  0  0  0  0  0  0  0  0  0  0  0
   66.7605   44.2050   52.8074 F   0  0  0  0  0  0  0  0  0  0  0  0
   67.6326   46.0350   51.5614 C   0  0  0  0  0  0  0  0  0  0  0  0
   66.9983   45.5388   50.4675 F   0  0  0  0  0  0  0  0  0  0  0  0
   68.3838   47.2082   51.4563 C   0  0  0  0  0  0  0  0  0  0  0  0
   69.6602   52.2509   55.2291 C   0  0  0  0  0  0  0  0  0  0  0  0
   69.4417   47.6674   57.2385 C   0  0  0  0  0  0  0  0  0  0  0  0
   68.8499   49.0367   57.0729 C   0  0  0  0  0  0  0  0  0  0  0  0
   67.6559   49.3520   57.7091 C   0  0  0  0  0  0  0  0  0  0  0  0
   67.1322   50.6152   57.5328 C   0  0  0  0  0  0  0  0  0  0  0  0
   67.7611   51.5629   56.7480 C   0  0  0  0  0  0  0  0  0  0  0  0
   68.9454   51.2775   56.1066 C   0  0  0  0  0  0  0  0  0  0  0  0
   69.4570   49.9973   56.2977 C   0  0  0  0  0  0  0  0  0  0  0  0
 16 17  1  0
 17 18  2  0
 17 22  1  0
 18 19  1  0
 19 20  2  0
 20 21  1  0
 21 15  1  0
 21 22  2  0
 15  1  1  0
  1  2  2  0
  1  3  1  0
  3  4  1  0
  4  5  2  0
  4  6  2  0
  4  7  1  0
  7  8  2  0
  7 14  1  0
  8  9  1  0
  9 10  2  0
 10 11  1  0
 10 12  1  0
 12 13  1  0
 12 14  2  0
M  END
>  <minimizedAffinity>  (435) 
-8.63177

$$$$
data/200k_reference_output/data/smiles/66252.pdb
     RDKit          3D

 25 27  0  0  0  0  0  0  0  0999 V2000
   68.6370   43.0651   56.6409 C   0  0  0  0  0  0  0  0  0  0  0  0
   69.8110   43.4050   56.9139 O   0  0  0  0  0  0  0  0  0  0  0  0
   67.8382   43.9288   55.8490 N   0  0  0  0  0  0  0  0  0  0  0  0
   66.9146   41.5289   57.2111 O   0  0  0  0  0  0  0  0  0  0  0  0
   68.1456   41.7860   57.1550 C   0  0  0  0  0  0  0  0  0  0  0  0
   69.0365   40.7833   57.6095 N   0  0  0  0  0  0  0  0  0  0  0  0
   68.5423   39.5400   58.1090 C   0  0  0  0  0  0  0  0  0  0  0  0
   69.2843   39.0459   59.3063 C   0  0  0  0  0  0  0  0  0  0  0  0
   70.2767   37.9914   59.0473 C   0  0  0  0  0  0  0  0  0  0  0  0
   70.2746   36.8098   59.7304 C   0  0  0  0  0  0  0  0  0  0  0  0
   71.1948   35.8052   59.4913 C   0  0  0  0  0  0  0  0  0  0  0  0
   72.1616   35.9822   58.5279 C   0  0  0  0  0  0  0  0  0  0  0  0
   72.1712   37.1722   57.8327 C   0  0  0  0  0  0  0  0  0  0  0  0
   71.2565   38.1676   58.0729 C   0  0  0  0  0  0  0  0  0  0  0  0
   68.3355   45.1625   55.3634 N   0  0  0  0  0  0  0  0  0  0  0  0
   68.1481   45.5584   54.1676 C   0  0  0  0  0  0  0  0  0  0  0  0
   68.6544   46.8313   53.6442 C   0  0  0  0  0  0  0  0  0  0  0  0
   69.1319   46.9304   52.3498 C   0  0  0  0  0  0  0  0  0  0  0  0
   69.6111   48.1434   51.8618 C   0  0  0  0  0  0  0  0  0  0  0  0
   69.6142   49.2596   52.6710 C   0  0  0  0  0  0  0  0  0  0  0  0
   69.1433   49.1938   53.9725 C   0  0  0  0  0  0  0  0  0  0  0  0
   68.6766   47.9726   54.4168 C   0  0  0  0  0  0  0  0  0  0  0  0
   69.2555   50.4600   54.5766 O   0  0  0  0  0  0  0  0  0  0  0  0
   70.1241   51.2178   53.7553 C   0  0  0  0  0  0  0  0  0  0  0  0
   70.0155   50.5698   52.4807 O   0  0  0  0  0  0  0  0  0  0  0  0
  4  5  2  0
  5  6  1  0
  5  1  1  0
  6  7  1  0
  7  8  1  0
  8  9  1  0
  9 10  2  0
  9 14  1  0
 10 11  1  0
 11 12  2  0
 12 13  1  0
 13 14  2  0
  1  2  2  0
  1  3  1  0
  3 15  1  0
 15 16  2  0
 16 17  1  0
 17 18  2  0
 17 22  1  0
 18 19  1  0
 19 20  2  0
 20 21  1  0
 20 25  1  0
 21 22  2  0
 21 23  1  0
 23 24  1  0
 24 25  1  0
M  END
>  <minimizedAffinity>  (436) 
-8.63123

$$$$
data/reference_output_2/data/smiles/175321.pdb
     RDKit          3D

 23 24  0  0  0  0  0  0  0  0999 V2000
   70.3143   46.0407   57.7816 C   0  0  0  0  0  0  0  0  0  0  0  0
   71.3078   47.0981   58.5420 S   0  0  0  0  0  0  0  0  0  0  0  0
   70.2422   43.7053   58.6227 C   0  0  0  0  0  0  0  0  0  0  0  0
   69.4449   44.0664   59.5124 O   0  0  0  0  0  0  0  0  0  0  0  0
   70.7200   44.6611   57.7002 N   0  0  0  0  0  0  0  0  0  0  0  0
   71.7156   38.1435   58.4364 C   0  0  0  0  0  0  0  0  0  0  0  0
   71.3687   39.6094   58.5002 C   0  0  0  0  0  0  0  0  0  0  0  0
   72.3209   40.5716   58.7084 C   0  0  0  0  0  0  0  0  0  0  0  0
   71.9545   41.9167   58.7575 C   0  0  0  0  0  0  0  0  0  0  0  0
   70.6325   42.2974   58.5989 C   0  0  0  0  0  0  0  0  0  0  0  0
   69.7018   41.3080   58.3930 C   0  0  0  0  0  0  0  0  0  0  0  0
   70.0471   39.9868   58.3420 C   0  0  0  0  0  0  0  0  0  0  0  0
   69.0799   46.4961   57.2390 N   0  0  0  0  0  0  0  0  0  0  0  0
   68.7992   46.4995   55.8633 C   0  0  0  0  0  0  0  0  0  0  0  0
   69.0083   47.6039   55.0730 C   0  0  0  0  0  0  0  0  0  0  0  0
   68.7019   47.5752   53.7067 C   0  0  0  0  0  0  0  0  0  0  0  0
   68.1806   46.4381   53.1115 C   0  0  0  0  0  0  0  0  0  0  0  0
   67.9773   45.3417   53.9224 C   0  0  0  0  0  0  0  0  0  0  0  0
   68.2695   45.3348   55.2772 C   0  0  0  0  0  0  0  0  0  0  0  0
   68.0728   44.2497   56.0986 O   0  0  0  0  0  0  0  0  0  0  0  0
   67.8553   46.3605   51.7310 N   0  0  0  0  0  0  0  0  0  0  0  0
   68.5256   47.0336   50.9202 O   0  0  0  0  0  0  0  0  0  0  0  0
   66.8431   45.5788   51.2280 O   0  0  0  0  0  0  0  0  0  0  0  0
  6  7  1  0
  7  8  2  0
  7 12  1  0
  8  9  1  0
  9 10  2  0
 10  3  1  0
 10 11  1  0
  3  4  2  0
  3  5  1  0
  5  1  1  0
  1  2  2  0
  1 13  1  0
 13 14  1  0
 14 15  2  0
 14 19  1  0
 15 16  1  0
 16 17  2  0
 17 21  1  0
 17 18  1  0
 21 22  2  0
 21 23  1  0
 18 19  2  0
 19 20  1  0
 11 12  2  0
M  CHG  2  21   1  23  -1
M  END
>  <minimizedAffinity>  (437) 
-8.62920

$$$$
data/reference_output_2/data/smiles/107383.pdb
     RDKit          3D

 21 23  0  0  0  0  0  0  0  0999 V2000
   70.9382   50.9379   53.7922 S   0  0  0  0  0  0  0  0  0  0  0  0
   72.2416   51.6881   53.9716 O   0  0  0  0  0  0  0  0  0  0  0  0
   70.2073   51.7915   52.7296 O   0  0  0  0  0  0  0  0  0  0  0  0
   69.7421   50.6140   57.5694 C   0  0  0  0  0  0  0  0  0  0  0  0
   68.4444   51.1080   57.5003 C   0  0  0  0  0  0  0  0  0  0  0  0
   67.9313   51.5181   56.3049 C   0  0  0  0  0  0  0  0  0  0  0  0
   68.6848   51.4451   55.1740 C   0  0  0  0  0  0  0  0  0  0  0  0
   69.9920   50.9473   55.2433 C   0  0  0  0  0  0  0  0  0  0  0  0
   70.5102   50.5373   56.4317 C   0  0  0  0  0  0  0  0  0  0  0  0
   71.0935   49.1207   58.8781 C   0  0  0  0  0  0  0  0  0  0  0  0
   70.2114   50.2112   58.8133 O   0  0  0  0  0  0  0  0  0  0  0  0
   71.2357   49.4124   53.1459 N   0  0  0  0  0  0  0  0  0  0  0  0
   70.3900   48.4427   52.5975 C   0  0  0  0  0  0  0  0  0  0  0  0
   70.4140   48.0818   51.2485 N   0  0  0  0  0  0  0  0  0  0  0  0
   69.5548   47.1598   51.0241 O   0  0  0  0  0  0  0  0  0  0  0  0
   68.9165   46.8277   52.0951 C   0  0  0  0  0  0  0  0  0  0  0  0
   67.9120   45.9019   52.3796 C   0  0  0  0  0  0  0  0  0  0  0  0
   67.4321   45.7816   53.6663 C   0  0  0  0  0  0  0  0  0  0  0  0
   67.9218   46.5576   54.6834 C   0  0  0  0  0  0  0  0  0  0  0  0
   68.9287   47.4791   54.3749 C   0  0  0  0  0  0  0  0  0  0  0  0
   69.4228   47.6209   53.1091 C   0  0  0  0  0  0  0  0  0  0  0  0
 10 11  1  0
 11  4  1  0
  4  5  2  0
  4  9  1  0
  5  6  1  0
  6  7  2  0
  7  8  1  0
  8  1  1  0
  8  9  2  0
  1  2  2  0
  1  3  2  0
  1 12  1  0
 12 13  1  0
 13 14  2  0
 13 21  1  0
 14 15  1  0
 15 16  1  0
 16 17  1  0
 16 21  2  0
 17 18  2  0
 18 19  1  0
 19 20  2  0
 20 21  1  0
M  END
>  <minimizedAffinity>  (438) 
-8.62865

$$$$
data/reference_output_2/data/smiles/154716.pdb
     RDKit          3D

 25 28  0  0  0  0  0  0  0  0999 V2000
   70.1263   50.1896   52.2130 O   0  0  0  0  0  0  0  0  0  0  0  0
   70.1007   49.9164   53.4416 C   0  0  0  0  0  0  0  0  0  0  0  0
   70.6188   50.7062   54.5503 C   0  0  0  0  0  0  0  0  0  0  0  0
   71.2560   51.9428   54.5373 C   0  0  0  0  0  0  0  0  0  0  0  0
   71.6443   52.4789   55.7457 C   0  0  0  0  0  0  0  0  0  0  0  0
   71.4072   51.8071   56.9304 C   0  0  0  0  0  0  0  0  0  0  0  0
   70.7668   50.5674   56.9255 C   0  0  0  0  0  0  0  0  0  0  0  0
   70.3701   50.0114   55.7452 C   0  0  0  0  0  0  0  0  0  0  0  0
   69.6880   48.7658   55.4067 C   0  0  0  0  0  0  0  0  0  0  0  0
   69.5329   48.7241   54.0245 C   0  0  0  0  0  0  0  0  0  0  0  0
   68.8974   47.6479   53.4220 C   0  0  0  0  0  0  0  0  0  0  0  0
   68.7167   47.5577   52.0381 C   0  0  0  0  0  0  0  0  0  0  0  0
   68.0857   46.4906   51.4405 C   0  0  0  0  0  0  0  0  0  0  0  0
   67.6236   45.4884   52.2562 C   0  0  0  0  0  0  0  0  0  0  0  0
   66.9895   44.4113   51.6822 F   0  0  0  0  0  0  0  0  0  0  0  0
   67.7951   45.5661   53.6193 C   0  0  0  0  0  0  0  0  0  0  0  0
   68.4334   46.6471   54.2100 C   0  0  0  0  0  0  0  0  0  0  0  0
   68.6172   46.7477   55.5558 C   0  0  0  0  0  0  0  0  0  0  0  0
   68.1717   45.7940   56.2661 O   0  0  0  0  0  0  0  0  0  0  0  0
   69.2355   47.7846   56.1918 N   0  0  0  0  0  0  0  0  0  0  0  0
   69.3089   47.7097   57.6228 C   0  0  0  0  0  0  0  0  0  0  0  0
   70.3829   46.8278   58.1561 C   0  0  2  0  0  0  0  0  0  0  0  0
   69.9389   45.6348   58.7258 O   0  0  0  0  0  0  0  0  0  0  0  0
   71.4923   47.4353   58.9268 C   0  0  0  0  0  0  0  0  0  0  0  0
   71.4144   47.3269   60.3054 O   0  0  0  0  0  0  0  0  0  0  0  0
  1  2  2  0
  2  3  1  0
  2 10  1  0
  3  4  2  0
  3  8  1  0
  4  5  1  0
  5  6  2  0
  6  7  1  0
  7  8  2  0
  8  9  1  0
  9 10  2  0
  9 20  1  0
 10 11  1  0
 11 12  2  0
 11 17  1  0
 12 13  1  0
 13 14  2  0
 14 15  1  0
 14 16  1  0
 16 17  2  0
 17 18  1  0
 18 19  2  0
 18 20  1  0
 20 21  1  0
 21 22  1  0
 22 23  1  1
 22 24  1  0
 24 25  1  0
M  END
>  <minimizedAffinity>  (439) 
-8.62865

$$$$
data/200k_reference_output/data/smiles/50929.pdb
     RDKit          3D

 22 23  0  0  0  0  0  0  0  0999 V2000
   69.2324   47.5820   54.3042 C   0  0  0  0  0  0  0  0  0  0  0  0
   68.3793   46.5403   54.7297 C   0  0  0  0  0  0  0  0  0  0  0  0
   67.6756   45.7987   53.8161 C   0  0  0  0  0  0  0  0  0  0  0  0
   67.7501   46.0128   52.4597 C   0  0  0  0  0  0  0  0  0  0  0  0
   68.5758   47.0229   52.0481 C   0  0  0  0  0  0  0  0  0  0  0  0
   69.3160   47.8101   52.9583 C   0  0  0  0  0  0  0  0  0  0  0  0
   70.2848   49.1040   52.3353 S   0  0  0  0  0  0  0  0  0  0  0  0
   69.5877   50.6412   52.3451 N   0  0  0  0  0  0  0  0  0  0  0  0
   71.6070   49.1805   53.0568 O   0  0  0  0  0  0  0  0  0  0  0  0
   70.5754   48.7527   50.8763 O   0  0  0  0  0  0  0  0  0  0  0  0
   67.0017   45.2177   51.5462 N   0  0  0  0  0  0  0  0  0  0  0  0
   66.6793   45.6697   50.4341 O   0  0  0  0  0  0  0  0  0  0  0  0
   66.6052   43.9354   51.8391 O   0  0  0  0  0  0  0  0  0  0  0  0
   69.9105   48.3580   55.2652 N   0  0  0  0  0  0  0  0  0  0  0  0
   66.3864   49.8274   58.4188 C   0  0  0  0  0  0  0  0  0  0  0  0
   67.5281   50.1633   57.4977 C   0  0  0  0  0  0  0  0  0  0  0  0
   67.9238   51.4682   57.2993 C   0  0  0  0  0  0  0  0  0  0  0  0
   68.9717   51.7670   56.4544 C   0  0  0  0  0  0  0  0  0  0  0  0
   69.3589   53.1974   56.2754 C   0  0  0  0  0  0  0  0  0  0  0  0
   69.6251   50.7418   55.8049 C   0  0  0  0  0  0  0  0  0  0  0  0
   69.2707   49.4042   55.9654 C   0  0  0  0  0  0  0  0  0  0  0  0
   68.2039   49.1637   56.8322 C   0  0  0  0  0  0  0  0  0  0  0  0
 15 16  1  0
 16 17  2  0
 16 22  1  0
 17 18  1  0
 18 19  1  0
 18 20  2  0
 20 21  1  0
 21 14  1  0
 21 22  2  0
 14  1  1  0
  1  2  2  0
  1  6  1  0
  2  3  1  0
  3  4  2  0
  4 11  1  0
  4  5  1  0
 11 12  2  0
 11 13  1  0
  5  6  2  0
  6  7  1  0
  7  8  1  0
  7  9  2  0
  7 10  2  0
M  CHG  2  11   1  13  -1
M  END
>  <minimizedAffinity>  (440) 
-8.62840

$$$$
data/200k_reference_output/data/smiles/66066.pdb
     RDKit          3D

 24 27  0  0  0  0  0  0  0  0999 V2000
   70.0266   45.2731   58.9532 O   0  0  0  0  0  0  0  0  0  0  0  0
   70.1400   46.3829   58.3584 C   0  0  0  0  0  0  0  0  0  0  0  0
   69.2883   46.6801   57.2760 N   0  0  0  0  0  0  0  0  0  0  0  0
   69.4209   47.7833   56.7026 C   0  0  0  0  0  0  0  0  0  0  0  0
   70.7559   48.7181   57.4902 S   0  0  0  0  0  0  0  0  0  0  0  0
   71.0890   47.4001   58.6947 C   0  0  0  0  0  0  0  0  0  0  0  0
   72.0080   47.4574   59.6297 C   0  0  0  0  0  0  0  0  0  0  0  0
   72.2594   46.3962   60.5907 C   0  0  0  0  0  0  0  0  0  0  0  0
   71.7201   45.3083   60.7330 O   0  0  0  0  0  0  0  0  0  0  0  0
   73.3419   46.8761   61.4184 N   0  0  0  0  0  0  0  0  0  0  0  0
   73.7310   48.1727   60.9801 C   0  0  0  0  0  0  0  0  0  0  0  0
   74.7128   49.0069   61.4717 C   0  0  0  0  0  0  0  0  0  0  0  0
   74.9369   50.2459   60.8966 C   0  0  0  0  0  0  0  0  0  0  0  0
   74.1539   50.6161   59.8283 C   0  0  0  0  0  0  0  0  0  0  0  0
   73.1636   49.7725   59.3343 C   0  0  0  0  0  0  0  0  0  0  0  0
   72.9468   48.5451   59.9079 C   0  0  0  0  0  0  0  0  0  0  0  0
   68.6224   48.1958   55.6014 N   0  0  0  0  0  0  0  0  0  0  0  0
   68.6614   47.5955   54.3274 C   0  0  0  0  0  0  0  0  0  0  0  0
   67.8276   46.5106   54.0678 C   0  0  0  0  0  0  0  0  0  0  0  0
   67.7952   45.8543   52.8544 C   0  0  0  0  0  0  0  0  0  0  0  0
   68.6155   46.2629   51.8238 C   0  0  0  0  0  0  0  0  0  0  0  0
   69.4559   47.3327   52.0408 C   0  0  0  0  0  0  0  0  0  0  0  0
   70.2983   47.7673   51.0125 O   0  0  0  0  0  0  0  0  0  0  0  0
   69.4650   47.9776   53.2842 C   0  0  0  0  0  0  0  0  0  0  0  0
  1  2  2  0
  2  3  1  0
  2  6  1  0
  3  4  2  0
  4 17  1  0
  4  5  1  0
 17 18  1  0
 18 19  2  0
 18 24  1  0
 19 20  1  0
 20 21  2  0
 21 22  1  0
 22 23  1  0
 22 24  2  0
  5  6  1  0
  6  7  2  0
  7  8  1  0
  7 16  1  0
  8  9  2  0
  8 10  1  0
 10 11  1  0
 11 12  1  0
 11 16  2  0
 12 13  2  0
 13 14  1  0
 14 15  2  0
 15 16  1  0
M  CHG  1   3   1
M  END
>  <minimizedAffinity>  (441) 
-8.62758

$$$$
data/200k_reference_output/data/smiles/58057.pdb
     RDKit          3D

 23 25  0  0  0  0  0  0  0  0999 V2000
   68.0770   44.6605   55.2834 C   0  0  0  0  0  0  0  0  0  0  0  0
   67.1088   43.8628   54.7897 N   0  0  0  0  0  0  0  0  0  0  0  0
   67.0419   42.7496   55.5005 N   0  0  0  0  0  0  0  0  0  0  0  0
   67.9736   42.7977   56.4796 C   0  0  0  0  0  0  0  0  0  0  0  0
   68.5952   43.9829   56.3222 N   0  0  0  0  0  0  0  0  0  0  0  0
   69.5865   49.8588   53.2602 C   0  0  0  0  0  0  0  0  0  0  0  0
   69.1939   48.5111   53.7640 C   0  0  0  0  0  0  0  0  0  0  0  0
   69.2222   48.2348   55.1157 C   0  0  0  0  0  0  0  0  0  0  0  0
   68.8614   46.9899   55.6238 C   0  0  0  0  0  0  0  0  0  0  0  0
   68.4606   45.9795   54.7744 C   0  0  0  0  0  0  0  0  0  0  0  0
   68.4321   46.2519   53.4269 C   0  0  0  0  0  0  0  0  0  0  0  0
   68.7916   47.4969   52.9204 C   0  0  0  0  0  0  0  0  0  0  0  0
   68.2419   41.8094   57.4650 N   0  0  0  0  0  0  0  0  0  0  0  0
   68.1614   40.4413   57.1295 C   0  0  0  0  0  0  0  0  0  0  0  0
   67.8458   40.1917   55.9125 O   0  0  0  0  0  0  0  0  0  0  0  0
   68.4061   39.3066   58.0411 C   0  0  0  0  0  0  0  0  0  0  0  0
   69.6766   39.2004   58.5574 O   0  0  0  0  0  0  0  0  0  0  0  0
   70.5147   38.1306   58.6314 C   0  0  0  0  0  0  0  0  0  0  0  0
   71.6599   37.9460   57.8865 C   0  0  0  0  0  0  0  0  0  0  0  0
   72.4314   36.8344   58.0384 C   0  0  0  0  0  0  0  0  0  0  0  0
   72.1277   35.8341   58.9308 C   0  0  0  0  0  0  0  0  0  0  0  0
   70.9912   35.9903   59.6879 C   0  0  0  0  0  0  0  0  0  0  0  0
   70.2043   37.1117   59.5407 C   0  0  0  0  0  0  0  0  0  0  0  0
  6  7  1  0
  7  8  2  0
  7 12  1  0
  8  9  1  0
  9 10  2  0
 10  1  1  0
 10 11  1  0
  1  2  2  0
  1  5  1  0
  2  3  1  0
  3  4  1  0
  4 13  1  0
  4  5  2  0
 13 14  1  0
 14 15  2  0
 14 16  1  0
 16 17  1  0
 17 18  1  0
 18 19  2  0
 18 23  1  0
 19 20  1  0
 20 21  2  0
 21 22  1  0
 22 23  2  0
 11 12  2  0
M  END
>  <minimizedAffinity>  (442) 
-8.62624

$$$$
data/reference_output_2/data/smiles/99132.pdb
     RDKit          3D

 23 25  0  0  0  0  0  0  0  0999 V2000
   69.0145   48.1788   55.2112 C   0  0  0  0  0  0  0  0  0  0  0  0
   69.4885   47.6301   56.3822 C   0  0  0  0  0  0  0  0  0  0  0  0
   69.3423   46.2797   56.6926 C   0  0  0  0  0  0  0  0  0  0  0  0
   68.7084   45.4176   55.8351 C   0  0  0  0  0  0  0  0  0  0  0  0
   68.2227   45.9649   54.6425 C   0  0  0  0  0  0  0  0  0  0  0  0
   67.5972   45.0962   53.8020 F   0  0  0  0  0  0  0  0  0  0  0  0
   68.3709   47.2968   54.3427 C   0  0  0  0  0  0  0  0  0  0  0  0
   68.5287   43.9957   56.1128 C   0  0  0  0  0  0  0  0  0  0  0  0
   69.3934   43.2732   56.8897 C   0  0  0  0  0  0  0  0  0  0  0  0
   69.1833   41.9420   57.1232 N   0  0  0  0  0  0  0  0  0  0  0  0
   68.1280   41.2994   56.5993 C   0  0  0  0  0  0  0  0  0  0  0  0
   67.8936   39.9096   56.8323 N   0  0  0  0  0  0  0  0  0  0  0  0
   67.2522   42.0187   55.8159 C   0  0  0  0  0  0  0  0  0  0  0  0
   67.4618   43.3255   55.5898 N   0  0  0  0  0  0  0  0  0  0  0  0
   69.6722   49.9875   53.6942 C   0  0  0  0  0  0  0  0  0  0  0  0
   69.7344   51.3567   53.3886 C   0  0  0  0  0  0  0  0  0  0  0  0
   69.2853   52.3060   54.2721 C   0  0  0  0  0  0  0  0  0  0  0  0
   68.7656   51.8940   55.4794 C   0  0  0  0  0  0  0  0  0  0  0  0
   68.6958   50.5590   55.7962 C   0  0  0  0  0  0  0  0  0  0  0  0
   69.1586   49.5878   54.8818 C   0  0  0  0  0  0  0  0  0  0  0  0
   69.5060   48.3985   51.6993 N   0  0  0  0  0  0  0  0  0  0  0  0
   70.1980   49.0674   52.7191 C   0  0  0  0  0  0  0  0  0  0  0  0
   71.4543   48.8029   52.7641 O   0  0  0  0  0  0  0  0  0  0  0  0
 21 22  1  0
 22 23  2  0
 22 15  1  0
 15 16  2  0
 15 20  1  0
 16 17  1  0
 17 18  2  0
 18 19  1  0
 19 20  2  0
 20  1  1  0
  1  2  2  0
  1  7  1  0
  2  3  1  0
  3  4  2  0
  4  8  1  0
  4  5  1  0
  8  9  2  0
  8 14  1  0
  9 10  1  0
 10 11  2  0
 11 12  1  0
 11 13  1  0
 13 14  2  0
  5  6  1  0
  5  7  2  0
M  END
>  <minimizedAffinity>  (443) 
-8.62601

$$$$
data/reference_output_2/data/smiles/105454.pdb
     RDKit          3D

 25 27  0  0  0  0  0  0  0  0999 V2000
   72.1308   50.8649   54.6367 C   0  0  2  0  0  0  0  0  0  0  0  0
   70.1184   50.5638   52.8681 O   0  0  0  0  0  0  0  0  0  0  0  0
   70.3412   49.5327   53.5652 C   0  0  0  0  0  0  0  0  0  0  0  0
   71.3906   49.6855   54.4898 N   0  0  0  0  0  0  0  0  0  0  0  0
   69.5498   48.3110   53.3880 C   0  0  0  0  0  0  0  0  0  0  0  0
   69.1915   47.5230   54.4663 C   0  0  0  0  0  0  0  0  0  0  0  0
   68.4459   46.3762   54.2917 C   0  0  0  0  0  0  0  0  0  0  0  0
   68.0970   45.6068   55.3476 F   0  0  0  0  0  0  0  0  0  0  0  0
   68.0342   45.9796   53.0467 C   0  0  0  0  0  0  0  0  0  0  0  0
   68.3791   46.7495   51.9546 C   0  0  0  0  0  0  0  0  0  0  0  0
   67.9982   46.3989   50.7042 F   0  0  0  0  0  0  0  0  0  0  0  0
   69.1244   47.8903   52.1536 C   0  0  0  0  0  0  0  0  0  0  0  0
   73.5779   50.5166   54.4829 C   0  0  0  0  0  0  0  0  0  0  0  0
   74.0506   50.0805   53.3977 O   0  0  0  0  0  0  0  0  0  0  0  0
   74.4908   50.6561   55.5362 O   0  0  0  0  0  0  0  0  0  0  0  0
   72.0137   51.6964   55.8572 C   0  0  0  0  0  0  0  0  0  0  0  0
   70.6193   52.1042   56.1687 C   0  0  0  0  0  0  0  0  0  0  0  0
   70.0282   53.3356   55.9856 C   0  0  0  0  0  0  0  0  0  0  0  0
   68.7594   53.2773   56.4114 N   0  0  0  0  0  0  0  0  0  0  0  0
   68.5054   52.0400   56.8670 C   0  0  0  0  0  0  0  0  0  0  0  0
   67.3566   51.4471   57.4105 C   0  0  0  0  0  0  0  0  0  0  0  0
   67.3516   50.1260   57.8042 C   0  0  0  0  0  0  0  0  0  0  0  0
   68.5036   49.3812   57.6589 C   0  0  0  0  0  0  0  0  0  0  0  0
   69.6259   49.9640   57.1280 C   0  0  0  0  0  0  0  0  0  0  0  0
   69.6467   51.2916   56.7263 C   0  0  0  0  0  0  0  0  0  0  0  0
  2  3  2  0
  3  4  1  0
  3  5  1  0
  4  1  1  0
  1 16  1  1
  1 13  1  0
 16 17  1  0
 17 18  2  0
 17 25  1  0
 18 19  1  0
 19 20  1  0
 20 21  1  0
 20 25  2  0
 21 22  2  0
 22 23  1  0
 23 24  2  0
 24 25  1  0
 13 14  2  0
 13 15  1  0
  5  6  2  0
  5 12  1  0
  6  7  1  0
  7  8  1  0
  7  9  2  0
  9 10  1  0
 10 11  1  0
 10 12  2  0
M  END
>  <minimizedAffinity>  (444) 
-8.62575

$$$$
data/reference_output_2/data/smiles/142729.pdb
     RDKit          3D

 24 26  0  0  0  0  0  0  0  0999 V2000
   69.5586   44.0510   59.4987 N   0  0  0  0  0  0  0  0  0  0  0  0
   70.3619   44.5570   58.6005 C   0  0  0  0  0  0  0  0  0  0  0  0
   71.6677   43.9649   58.3944 C   0  0  0  0  0  0  0  0  0  0  0  0
   72.8122   44.6492   58.8106 C   0  0  0  0  0  0  0  0  0  0  0  0
   74.0631   44.1006   58.6184 C   0  0  0  0  0  0  0  0  0  0  0  0
   75.2219   44.7383   59.0135 C   0  0  0  0  0  0  0  0  0  0  0  0
   76.4801   44.2028   58.8282 C   0  0  0  0  0  0  0  0  0  0  0  0
   76.6153   42.9713   58.2212 C   0  0  0  0  0  0  0  0  0  0  0  0
   75.4788   42.3055   57.8143 C   0  0  0  0  0  0  0  0  0  0  0  0
   74.2148   42.8700   58.0139 C   0  0  0  0  0  0  0  0  0  0  0  0
   73.1260   42.2530   57.6334 O   0  0  0  0  0  0  0  0  0  0  0  0
   71.9037   42.7483   57.8021 C   0  0  0  0  0  0  0  0  0  0  0  0
   70.8961   42.0776   57.3997 O   0  0  0  0  0  0  0  0  0  0  0  0
   69.8597   45.6597   57.8985 N   0  0  0  0  0  0  0  0  0  0  0  0
   69.6423   45.7454   56.5400 N   0  0  0  0  0  0  0  0  0  0  0  0
   68.6528   46.5008   55.8649 C   0  0  0  0  0  0  0  0  0  0  0  0
   67.8668   47.1753   56.5843 O   0  0  0  0  0  0  0  0  0  0  0  0
   68.5175   46.5214   54.4053 C   0  0  0  0  0  0  0  0  0  0  0  0
   67.7869   45.6217   53.6731 C   0  0  0  0  0  0  0  0  0  0  0  0
   67.7070   45.7070   52.2803 C   0  0  0  0  0  0  0  0  0  0  0  0
   68.3693   46.7103   51.6083 C   0  0  0  0  0  0  0  0  0  0  0  0
   69.1045   47.6154   52.3393 C   0  0  0  0  0  0  0  0  0  0  0  0
   69.7609   48.6075   51.6936 F   0  0  0  0  0  0  0  0  0  0  0  0
   69.1724   47.5165   53.7143 C   0  0  0  0  0  0  0  0  0  0  0  0
  1  2  2  0
  2 14  1  0
  2  3  1  0
 14 15  1  0
 15 16  1  0
 16 17  2  0
 16 18  1  0
 18 19  2  0
 18 24  1  0
 19 20  1  0
 20 21  2  0
 21 22  1  0
 22 23  1  0
 22 24  2  0
  3  4  2  0
  3 12  1  0
  4  5  1  0
  5  6  2  0
  5 10  1  0
  6  7  1  0
  7  8  2  0
  8  9  1  0
  9 10  2  0
 10 11  1  0
 11 12  1  0
 12 13  2  0
M  CHG  1   1   1
M  END
>  <minimizedAffinity>  (445) 
-8.62541

$$$$
data/200k_reference_output/data/smiles/25107.pdb
     RDKit          3D

 23 26  0  0  0  0  0  0  0  0999 V2000
   66.9488   41.6249   55.9794 O   0  0  0  0  0  0  0  0  0  0  0  0
   67.9907   41.9783   56.6096 C   0  0  0  0  0  0  0  0  0  0  0  0
   68.7213   41.0051   57.4282 C   0  0  0  0  0  0  0  0  0  0  0  0
   68.2892   39.6905   57.5268 C   0  0  0  0  0  0  0  0  0  0  0  0
   68.9723   38.7619   58.2978 C   0  0  0  0  0  0  0  0  0  0  0  0
   70.1067   39.1184   58.9937 C   0  0  0  0  0  0  0  0  0  0  0  0
   70.5333   40.4305   58.8911 C   0  0  0  0  0  0  0  0  0  0  0  0
   69.8556   41.3665   58.1216 C   0  0  0  0  0  0  0  0  0  0  0  0
   70.3005   42.7508   58.0118 C   0  0  0  0  0  0  0  0  0  0  0  0
   71.3471   43.0996   58.6466 O   0  0  0  0  0  0  0  0  0  0  0  0
   69.5918   43.7417   57.2030 C   0  0  0  0  0  0  0  0  0  0  0  0
   69.7749   45.0483   56.9292 N   0  0  0  0  0  0  0  0  0  0  0  0
   68.8149   45.5074   56.1063 C   0  0  0  0  0  0  0  0  0  0  0  0
   68.0137   44.4584   55.8609 N   0  0  0  0  0  0  0  0  0  0  0  0
   68.4447   43.3595   56.5063 C   0  0  0  0  0  0  0  0  0  0  0  0
   68.6719   46.9079   55.5714 C   0  0  0  0  0  0  0  0  0  0  0  0
   68.5964   46.8521   54.1003 C   0  0  0  0  0  0  0  0  0  0  0  0
   67.7633   45.9511   53.4872 C   0  0  0  0  0  0  0  0  0  0  0  0
   67.6632   45.8682   52.1150 C   0  0  0  0  0  0  0  0  0  0  0  0
   68.4497   46.7468   51.3603 C   0  0  0  0  0  0  0  0  0  0  0  0
   69.2959   47.6637   51.9405 C   0  0  0  0  0  0  0  0  0  0  0  0
   69.3563   47.7021   53.3292 C   0  0  0  0  0  0  0  0  0  0  0  0
   70.1901   48.6043   53.9320 F   0  0  0  0  0  0  0  0  0  0  0  0
  1  2  2  0
  2  3  1  0
  2 15  1  0
  3  4  1  0
  3  8  2  0
  4  5  2  0
  5  6  1  0
  6  7  2  0
  7  8  1  0
  8  9  1  0
  9 10  2  0
  9 11  1  0
 11 12  1  0
 11 15  2  0
 12 13  1  0
 13 16  1  0
 13 14  2  0
 16 17  1  0
 17 18  2  0
 17 22  1  0
 18 19  1  0
 19 20  2  0
 20 21  1  0
 21 22  2  0
 22 23  1  0
 14 15  1  0
M  CHG  1  14   1
M  END
>  <minimizedAffinity>  (446) 
-8.62314

$$$$
data/reference_output_2/data/smiles/122291.pdb
     RDKit          3D

 23 25  0  0  0  0  0  0  0  0999 V2000
   72.2004   50.8673   54.8048 S   0  0  0  0  0  0  0  0  0  0  0  0
   72.7715   52.2216   54.5741 O   0  0  0  0  0  0  0  0  0  0  0  0
   73.0971   50.0112   55.6395 O   0  0  0  0  0  0  0  0  0  0  0  0
   70.6249   50.9578   55.5858 C   0  0  0  0  0  0  0  0  0  0  0  0
   69.9472   52.1546   55.6917 C   0  0  0  0  0  0  0  0  0  0  0  0
   68.7085   52.2054   56.3101 C   0  0  0  0  0  0  0  0  0  0  0  0
   68.1058   51.0829   56.8400 C   0  0  0  0  0  0  0  0  0  0  0  0
   66.8695   51.1445   57.4550 C   0  0  0  0  0  0  0  0  0  0  0  0
   66.2727   50.0069   57.9848 C   0  0  0  0  0  0  0  0  0  0  0  0
   66.9786   48.8328   57.8601 C   0  0  0  0  0  0  0  0  0  0  0  0
   68.2088   48.7383   57.2542 C   0  0  0  0  0  0  0  0  0  0  0  0
   68.7886   49.8900   56.7308 C   0  0  0  0  0  0  0  0  0  0  0  0
   70.0231   49.8396   56.1137 C   0  0  0  0  0  0  0  0  0  0  0  0
   71.9901   50.0556   53.2734 N   0  0  0  0  0  0  0  0  0  0  0  0
   70.0618   49.3778   51.4198 O   0  0  0  0  0  0  0  0  0  0  0  0
   70.1298   48.6611   52.4790 C   0  0  0  0  0  0  0  0  0  0  0  0
   71.0926   48.9599   53.4588 N   0  0  0  0  0  0  0  0  0  0  0  0
   69.2092   47.5525   52.6475 C   0  0  0  0  0  0  0  0  0  0  0  0
   68.8705   47.1184   53.9407 C   0  0  0  0  0  0  0  0  0  0  0  0
   68.0098   46.0803   54.1883 C   0  0  0  0  0  0  0  0  0  0  0  0
   67.4522   45.4332   53.0995 C   0  0  0  0  0  0  0  0  0  0  0  0
   67.7450   45.8120   51.8122 C   0  0  0  0  0  0  0  0  0  0  0  0
   68.6315   46.8819   51.6022 C   0  0  0  0  0  0  0  0  0  0  0  0
 15 16  2  0
 16 17  1  0
 16 18  1  0
 17 14  1  0
 14  1  1  0
  1  2  2  0
  1  3  2  0
  1  4  1  0
  4  5  2  0
  4 13  1  0
  5  6  1  0
  6  7  2  0
  7  8  1  0
  7 12  1  0
  8  9  2  0
  9 10  1  0
 10 11  2  0
 11 12  1  0
 12 13  2  0
 18 19  2  0
 18 23  1  0
 19 20  1  0
 20 21  2  0
 21 22  1  0
 22 23  2  0
M  END
>  <minimizedAffinity>  (447) 
-8.62259

$$$$
data/200k_reference_output/data/smiles/52018.pdb
     RDKit          3D

 21 22  0  0  0  0  0  0  0  0999 V2000
   69.0860   45.8567   56.6348 C   0  0  0  0  0  0  0  0  0  0  0  0
   69.9848   46.3873   57.5268 C   0  0  0  0  0  0  0  0  0  0  0  0
   70.7561   45.5111   58.2806 C   0  0  0  0  0  0  0  0  0  0  0  0
   71.9044   46.2243   59.4195 Cl  0  0  0  0  0  0  0  0  0  0  0  0
   70.6273   44.1795   58.1417 N   0  0  0  0  0  0  0  0  0  0  0  0
   69.7403   43.6694   57.2619 C   0  0  0  0  0  0  0  0  0  0  0  0
   68.9988   44.5184   56.5373 N   0  0  0  0  0  0  0  0  0  0  0  0
   68.2668   46.7179   55.8175 N   0  0  0  0  0  0  0  0  0  0  0  0
   69.9264   48.8830   51.8106 C   0  0  0  0  0  0  0  0  0  0  0  0
   69.1510   47.7709   52.4315 C   0  0  0  0  0  0  0  0  0  0  0  0
   68.5520   46.7950   51.6434 C   0  0  0  0  0  0  0  0  0  0  0  0
   67.8382   45.7728   52.2363 C   0  0  0  0  0  0  0  0  0  0  0  0
   67.7455   45.7607   53.6129 C   0  0  0  0  0  0  0  0  0  0  0  0
   68.3441   46.7361   54.4125 C   0  0  0  0  0  0  0  0  0  0  0  0
   69.0540   47.7498   53.8087 C   0  0  0  0  0  0  0  0  0  0  0  0
   69.7185   48.7908   54.5930 C   0  0  0  0  0  0  0  0  0  0  0  0
   69.6176   42.2774   57.1296 O   0  0  0  0  0  0  0  0  0  0  0  0
   68.4305   41.5937   57.3700 C   0  0  0  0  0  0  0  0  0  0  0  0
   67.5736   41.3923   56.2018 C   0  0  0  0  0  0  0  0  0  0  0  0
   66.7389   42.2687   55.8765 O   0  0  0  0  0  0  0  0  0  0  0  0
   67.6438   40.2513   55.4195 O   0  0  0  0  0  0  0  0  0  0  0  0
  9 10  1  0
 10 11  2  0
 10 15  1  0
 11 12  1  0
 12 13  2  0
 13 14  1  0
 14  8  1  0
 14 15  2  0
  8  1  1  0
  1  2  2  0
  1  7  1  0
  2  3  1  0
  3  4  1  0
  3  5  2  0
  5  6  1  0
  6 17  1  0
  6  7  2  0
 17 18  1  0
 18 19  1  0
 19 20  2  0
 19 21  1  0
 15 16  1  0
M  END
>  <minimizedAffinity>  (448) 
-8.62243

$$$$
data/200k_reference_output/data/smiles/57237.pdb
     RDKit          3D

 23 24  0  0  0  0  0  0  0  0999 V2000
   68.7059   47.2006   56.4950 O   0  0  0  0  0  0  0  0  0  0  0  0
   68.6503   47.0586   55.1244 C   0  0  0  0  0  0  0  0  0  0  0  0
   67.9308   46.0054   54.6040 C   0  0  0  0  0  0  0  0  0  0  0  0
   67.8220   45.7872   53.2448 C   0  0  0  0  0  0  0  0  0  0  0  0
   68.4635   46.6685   52.4045 C   0  0  0  0  0  0  0  0  0  0  0  0
   68.3594   46.4578   51.0500 F   0  0  0  0  0  0  0  0  0  0  0  0
   69.1934   47.7350   52.8712 C   0  0  0  0  0  0  0  0  0  0  0  0
   69.2720   47.9099   54.2434 C   0  0  0  0  0  0  0  0  0  0  0  0
   69.9848   48.9524   54.7118 F   0  0  0  0  0  0  0  0  0  0  0  0
   69.8534   48.6392   51.9417 C   0  0  0  0  0  0  0  0  0  0  0  0
   69.8005   50.0505   52.0950 N   0  0  0  0  0  0  0  0  0  0  0  0
   70.4888   48.1030   50.9722 O   0  0  0  0  0  0  0  0  0  0  0  0
   69.8499   47.0156   57.2655 C   0  0  0  0  0  0  0  0  0  0  0  0
   69.9928   45.6328   57.7658 C   0  0  0  0  0  0  0  0  0  0  0  0
   69.8647   45.4474   59.0043 O   0  0  0  0  0  0  0  0  0  0  0  0
   70.2538   44.5374   56.9818 O   0  0  0  0  0  0  0  0  0  0  0  0
   68.0370   39.3580   57.9399 C   0  0  0  0  0  0  0  0  0  0  0  0
   68.6296   40.7030   57.6999 C   0  0  0  0  0  0  0  0  0  0  0  0
   69.8377   41.0852   58.2409 C   0  0  0  0  0  0  0  0  0  0  0  0
   70.3701   42.3376   58.0081 C   0  0  0  0  0  0  0  0  0  0  0  0
   69.7275   43.2725   57.2244 C   0  0  0  0  0  0  0  0  0  0  0  0
   68.5174   42.8815   56.6864 C   0  0  0  0  0  0  0  0  0  0  0  0
   67.9781   41.6308   56.9152 C   0  0  0  0  0  0  0  0  0  0  0  0
 17 18  1  0
 18 19  2  0
 18 23  1  0
 19 20  1  0
 20 21  2  0
 21 16  1  0
 21 22  1  0
 16 14  1  0
 14 15  2  0
 14 13  1  0
 13  1  1  0
  1  2  1  0
  2  3  2  0
  2  8  1  0
  3  4  1  0
  4  5  2  0
  5  6  1  0
  5  7  1  0
  7 10  1  0
  7  8  2  0
 10 11  1  0
 10 12  2  0
  8  9  1  0
 22 23  2  0
M  END
>  <minimizedAffinity>  (449) 
-8.62164

$$$$
data/reference_output_2/data/smiles/92509.pdb
     RDKit          3D

 21 22  0  0  0  0  0  0  0  0999 V2000
   67.9299   44.6371   55.3979 O   0  0  0  0  0  0  0  0  0  0  0  0
   68.1705   45.5577   54.4820 C   0  0  0  0  0  0  0  0  0  0  0  0
   67.7232   45.3961   53.1586 C   0  0  0  0  0  0  0  0  0  0  0  0
   67.0348   44.2504   52.8932 F   0  0  0  0  0  0  0  0  0  0  0  0
   67.9613   46.3304   52.1879 C   0  0  0  0  0  0  0  0  0  0  0  0
   67.5093   46.1376   50.9038 F   0  0  0  0  0  0  0  0  0  0  0  0
   68.6599   47.4866   52.4678 C   0  0  0  0  0  0  0  0  0  0  0  0
   69.1123   47.6747   53.7547 C   0  0  0  0  0  0  0  0  0  0  0  0
   69.7980   48.8346   53.9838 F   0  0  0  0  0  0  0  0  0  0  0  0
   68.8782   46.7468   54.7275 C   0  0  0  0  0  0  0  0  0  0  0  0
   69.3257   46.9444   55.9845 F   0  0  0  0  0  0  0  0  0  0  0  0
   68.1559   42.5061   56.4518 C   0  0  0  0  0  0  0  0  0  0  0  0
   68.8314   41.7677   57.4445 C   0  0  0  0  0  0  0  0  0  0  0  0
   69.7860   42.3649   58.2221 C   0  0  0  0  0  0  0  0  0  0  0  0
   70.1065   43.6935   58.0519 C   0  0  0  0  0  0  0  0  0  0  0  0
   69.4734   44.3766   57.1232 N   0  0  0  0  0  0  0  0  0  0  0  0
   68.4882   43.8203   56.2984 C   0  0  0  0  0  0  0  0  0  0  0  0
   67.4321   40.4225   55.3254 N   0  0  0  0  0  0  0  0  0  0  0  0
   67.1790   41.8109   55.6508 C   0  0  0  0  0  0  0  0  0  0  0  0
   66.0818   42.2601   55.1772 N   0  0  0  0  0  0  0  0  0  0  0  0
   65.2165   41.4816   54.4199 O   0  0  0  0  0  0  0  0  0  0  0  0
 18 19  1  0
 19 20  2  0
 19 12  1  0
 20 21  1  0
 12 13  2  0
 12 17  1  0
 13 14  1  0
 14 15  2  0
 15 16  1  0
 16 17  2  0
 17  1  1  0
  1  2  1  0
  2  3  2  0
  2 10  1  0
  3  4  1  0
  3  5  1  0
  5  6  1  0
  5  7  2  0
  7  8  1  0
  8  9  1  0
  8 10  2  0
 10 11  1  0
M  CHG  1  20   1
M  END
>  <minimizedAffinity>  (450) 
-8.62028

$$$$
data/reference_output_2/data/smiles/161019.pdb
     RDKit          3D

 23 25  0  0  0  0  0  0  0  0999 V2000
   69.9981   50.5707   54.0724 C   0  0  0  0  0  0  0  0  0  0  0  0
   68.7054   51.0350   54.1249 C   0  0  0  0  0  0  0  0  0  0  0  0
   68.4046   52.2158   54.8118 C   0  0  0  0  0  0  0  0  0  0  0  0
   69.4073   52.9226   55.4373 C   0  0  0  0  0  0  0  0  0  0  0  0
   70.7221   52.4968   55.4115 C   0  0  0  0  0  0  0  0  0  0  0  0
   70.9794   51.3323   54.7298 C   0  0  0  0  0  0  0  0  0  0  0  0
   71.7891   53.2521   56.0521 C   0  0  0  0  0  0  0  0  0  0  0  0
   71.8643   53.4083   57.4315 C   0  0  0  0  0  0  0  0  0  0  0  0
   72.8481   54.1153   58.0491 C   0  0  0  0  0  0  0  0  0  0  0  0
   73.8372   54.7209   57.2971 C   0  0  0  0  0  0  0  0  0  0  0  0
   73.7827   54.5790   55.9221 C   0  0  0  0  0  0  0  0  0  0  0  0
   72.7716   53.8540   55.3138 C   0  0  0  0  0  0  0  0  0  0  0  0
   71.6433   49.2218   53.0259 O   0  0  0  0  0  0  0  0  0  0  0  0
   70.4302   49.3613   53.4151 C   0  0  0  0  0  0  0  0  0  0  0  0
   69.5570   48.2409   53.1476 C   0  0  0  0  0  0  0  0  0  0  0  0
   69.0730   47.4460   54.2003 C   0  0  0  0  0  0  0  0  0  0  0  0
   68.2182   46.3905   54.0263 C   0  0  0  0  0  0  0  0  0  0  0  0
   67.8092   45.7015   55.0163 O   0  0  0  0  0  0  0  0  0  0  0  0
   67.7996   46.0741   52.7868 N   0  0  0  0  0  0  0  0  0  0  0  0
   66.9344   45.0064   52.6133 O   0  0  0  0  0  0  0  0  0  0  0  0
   68.2456   46.8149   51.7753 C   0  0  0  0  0  0  0  0  0  0  0  0
   67.8678   46.5344   50.6094 O   0  0  0  0  0  0  0  0  0  0  0  0
   69.0972   47.8679   51.9394 N   0  0  0  0  0  0  0  0  0  0  0  0
 13 14  2  0
 14  1  1  0
 14 15  1  0
  1  2  2  0
  1  6  1  0
  2  3  1  0
  3  4  2  0
  4  5  1  0
  5  7  1  0
  5  6  2  0
  7  8  2  0
  7 12  1  0
  8  9  1  0
  9 10  2  0
 10 11  1  0
 11 12  2  0
 15 16  2  0
 15 23  1  0
 16 17  1  0
 17 18  2  0
 17 19  1  0
 19 20  1  0
 19 21  1  0
 21 22  2  0
 21 23  1  0
M  END
>  <minimizedAffinity>  (451) 
-8.61959

$$$$
data/200k_reference_output/data/smiles/59012.pdb
     RDKit          3D

 26 29  0  0  0  0  0  0  0  0999 V2000
   69.2294   47.6241   56.0533 N   0  0  0  0  0  0  0  0  0  0  0  0
   69.6675   48.6157   55.2660 C   0  0  0  0  0  0  0  0  0  0  0  0
   69.4774   48.5424   53.8979 C   0  0  0  0  0  0  0  0  0  0  0  0
   68.8456   47.4799   53.2753 C   0  0  0  0  0  0  0  0  0  0  0  0
   68.6486   47.3925   51.9156 C   0  0  0  0  0  0  0  0  0  0  0  0
   68.0078   46.2937   51.3892 C   0  0  0  0  0  0  0  0  0  0  0  0
   67.5630   45.2856   52.1889 C   0  0  0  0  0  0  0  0  0  0  0  0
   67.7625   45.3795   53.5360 C   0  0  0  0  0  0  0  0  0  0  0  0
   68.4057   46.4785   54.0891 C   0  0  0  0  0  0  0  0  0  0  0  0
   68.6056   46.5779   55.4258 C   0  0  0  0  0  0  0  0  0  0  0  0
   68.1694   45.6050   56.1327 O   0  0  0  0  0  0  0  0  0  0  0  0
   70.0653   49.7276   53.3064 C   0  0  0  0  0  0  0  0  0  0  0  0
   70.1032   50.0425   52.0787 O   0  0  0  0  0  0  0  0  0  0  0  0
   70.6240   50.5259   54.3872 C   0  0  0  0  0  0  0  0  0  0  0  0
   71.2921   51.7364   54.3694 C   0  0  0  0  0  0  0  0  0  0  0  0
   71.7323   52.2994   55.5245 C   0  0  0  0  0  0  0  0  0  0  0  0
   71.4833   51.6147   56.6961 C   0  0  0  0  0  0  0  0  0  0  0  0
   70.8157   50.4029   56.7214 C   0  0  0  0  0  0  0  0  0  0  0  0
   70.3701   49.8335   55.5513 C   0  0  0  0  0  0  0  0  0  0  0  0
   69.3072   47.5652   57.4636 C   0  0  0  0  0  0  0  0  0  0  0  0
   70.4422   46.7596   57.9628 C   0  0  0  0  0  0  0  0  0  0  0  0
   70.6453   44.3611   58.6496 C   0  0  0  0  0  0  0  0  0  0  0  0
   71.4711   44.1758   57.7334 O   0  0  0  0  0  0  0  0  0  0  0  0
   70.0715   45.6729   58.8272 N   0  0  0  0  0  0  0  0  0  0  0  0
   68.9506   43.6083   60.1699 N   0  0  0  0  0  0  0  0  0  0  0  0
   70.2293   43.2813   59.5671 C   0  0  0  0  0  0  0  0  0  0  0  0
 25 26  1  0
 26 22  1  0
 22 23  2  0
 22 24  1  0
 24 21  1  0
 21 20  1  0
 20  1  1  0
  1  2  1  0
  1 10  1  0
  2  3  2  0
  2 19  1  0
  3  4  1  0
  3 12  1  0
  4  5  1  0
  4  9  2  0
  5  6  2  0
  6  7  1  0
  7  8  2  0
  8  9  1  0
  9 10  1  0
 10 11  2  0
 12 13  2  0
 12 14  1  0
 14 15  1  0
 14 19  2  0
 15 16  2  0
 16 17  1  0
 17 18  2  0
 18 19  1  0
M  CHG  1  25   1
M  END
>  <minimizedAffinity>  (452) 
-8.61950

$$$$
data/reference_output_2/data/smiles/147495.pdb
     RDKit          3D

 24 26  0  0  0  0  0  0  0  0999 V2000
   66.7303   42.0012   55.9076 C   0  0  0  0  0  0  0  0  0  0  0  0
   67.5771   43.1836   55.9371 N   0  0  0  0  0  0  0  0  0  0  0  0
   68.5229   43.4417   56.8087 N   0  0  0  0  0  0  0  0  0  0  0  0
   69.0861   44.6202   56.5183 N   0  0  0  0  0  0  0  0  0  0  0  0
   68.4898   45.1352   55.4366 C   0  0  0  0  0  0  0  0  0  0  0  0
   67.5454   44.2125   55.0897 N   0  0  0  0  0  0  0  0  0  0  0  0
   68.7250   46.3885   54.7180 C   0  0  0  0  0  0  0  0  0  0  0  0
   68.7054   46.4442   53.3499 C   0  0  0  0  0  0  0  0  0  0  0  0
   68.9309   47.6531   52.6768 C   0  0  0  0  0  0  0  0  0  0  0  0
   69.1786   48.8196   53.3727 C   0  0  0  0  0  0  0  0  0  0  0  0
   69.1979   48.7601   54.7464 C   0  0  0  0  0  0  0  0  0  0  0  0
   68.9748   47.5658   55.4130 C   0  0  0  0  0  0  0  0  0  0  0  0
   68.9930   47.5107   56.7487 F   0  0  0  0  0  0  0  0  0  0  0  0
   67.6635   40.6884   57.8767 N   0  0  0  0  0  0  0  0  0  0  0  0
   67.4989   40.8265   56.4576 C   0  0  0  0  0  0  0  0  0  0  0  0
   67.9927   39.9750   55.6900 O   0  0  0  0  0  0  0  0  0  0  0  0
   67.6764   36.8525   60.9484 C   0  0  0  0  0  0  0  0  0  0  0  0
   68.3847   37.7410   59.9741 C   0  0  0  0  0  0  0  0  0  0  0  0
   69.7130   37.5140   59.6688 C   0  0  0  0  0  0  0  0  0  0  0  0
   70.3656   38.3315   58.7724 C   0  0  0  0  0  0  0  0  0  0  0  0
   71.8197   38.0839   58.4438 C   0  0  0  0  0  0  0  0  0  0  0  0
   69.6942   39.3722   58.1836 C   0  0  0  0  0  0  0  0  0  0  0  0
   68.3798   39.6120   58.4742 C   0  0  0  0  0  0  0  0  0  0  0  0
   67.7292   38.7971   59.3688 C   0  0  0  0  0  0  0  0  0  0  0  0
 17 18  1  0
 18 19  2  0
 18 24  1  0
 19 20  1  0
 20 21  1  0
 20 22  2  0
 22 23  1  0
 23 14  1  0
 23 24  2  0
 14 15  1  0
 15 16  2  0
 15  1  1  0
  1  2  1  0
  2  3  1  0
  2  6  1  0
  3  4  2  0
  4  5  1  0
  5  7  1  0
  5  6  2  0
  7  8  2  0
  7 12  1  0
  8  9  1  0
  9 10  2  0
 10 11  1  0
 11 12  2  0
 12 13  1  0
M  END
>  <minimizedAffinity>  (453) 
-8.61935

$$$$
data/200k_reference_output/data/smiles/12003.pdb
     RDKit          3D

 23 25  0  0  0  0  0  0  0  0999 V2000
   69.3404   47.4406   56.4531 C   0  0  2  0  0  0  0  0  0  0  0  0
   69.6156   45.7989   58.0307 O   0  0  0  0  0  0  0  0  0  0  0  0
   70.1293   46.9260   57.5264 C   0  0  0  0  0  0  0  0  0  0  0  0
   71.2736   47.3097   58.1524 N   0  0  0  0  0  0  0  0  0  0  0  0
   72.1483   48.4026   57.8980 C   0  0  0  0  0  0  0  0  0  0  0  0
   72.0221   49.4015   59.0456 C   0  0  0  0  0  0  0  0  0  0  0  0
   71.8513   48.7331   60.2583 O   0  0  0  0  0  0  0  0  0  0  0  0
   72.4366   47.4706   60.2560 C   0  0  0  0  0  0  0  0  0  0  0  0
   71.7533   46.4943   59.3384 C   0  0  0  0  0  0  0  0  0  0  0  0
   68.5579   48.6747   56.8536 C   0  0  0  0  0  0  0  0  0  0  0  0
   68.9718   49.9167   56.4636 C   0  0  0  0  0  0  0  0  0  0  0  0
   68.2573   51.0663   56.8289 C   0  0  0  0  0  0  0  0  0  0  0  0
   67.1257   50.9047   57.5929 C   0  0  0  0  0  0  0  0  0  0  0  0
   66.7106   49.6386   57.9849 C   0  0  0  0  0  0  0  0  0  0  0  0
   67.4113   48.5233   57.6259 C   0  0  0  0  0  0  0  0  0  0  0  0
   68.4738   46.6165   55.6037 C   0  0  2  0  0  0  0  0  0  0  0  0
   68.3014   45.3283   56.0421 O   0  0  0  0  0  0  0  0  0  0  0  0
   68.5231   46.7182   54.1638 C   0  0  0  0  0  0  0  0  0  0  0  0
   67.7414   45.8131   53.4460 C   0  0  0  0  0  0  0  0  0  0  0  0
   67.6908   45.8331   52.0892 C   0  0  0  0  0  0  0  0  0  0  0  0
   68.4110   46.7475   51.3690 C   0  0  0  0  0  0  0  0  0  0  0  0
   69.2039   47.6694   52.0345 C   0  0  0  0  0  0  0  0  0  0  0  0
   69.2314   47.6210   53.4012 C   0  0  0  0  0  0  0  0  0  0  0  0
  2  3  2  0
  1  3  1  1
  3  4  1  0
  1 10  1  0
  1 16  1  0
 10 11  2  0
 10 15  1  0
 11 12  1  0
 12 13  2  0
 13 14  1  0
 14 15  2  0
 16 17  1  6
 16 18  1  0
 18 19  2  0
 18 23  1  0
 19 20  1  0
 20 21  2  0
 21 22  1  0
 22 23  2  0
  4  5  1  0
  4  9  1  0
  5  6  1  0
  6  7  1  0
  7  8  1  0
  8  9  1  0
M  END
>  <minimizedAffinity>  (454) 
-8.61923

$$$$
data/reference_output_2/data/smiles/118328.pdb
     RDKit          3D

 22 24  0  0  0  0  0  0  0  0999 V2000
   70.2576   50.7688   52.8655 N   0  0  0  0  0  0  0  0  0  0  0  0
   69.7338   49.4620   52.9918 C   0  0  0  0  0  0  0  0  0  0  0  0
   69.5069   48.9063   54.1923 N   0  0  0  0  0  0  0  0  0  0  0  0
   69.0180   47.6821   54.4054 C   0  0  0  0  0  0  0  0  0  0  0  0
   68.7116   46.9261   55.5247 C   0  0  0  0  0  0  0  0  0  0  0  0
   68.2364   45.7279   55.0370 C   0  0  0  0  0  0  0  0  0  0  0  0
   68.2479   45.7466   53.6950 N   0  0  0  0  0  0  0  0  0  0  0  0
   68.7206   46.9271   53.2633 C   0  0  0  0  0  0  0  0  0  0  0  0
   68.9462   47.4803   52.0260 C   0  0  0  0  0  0  0  0  0  0  0  0
   68.6933   46.8372   50.9799 O   0  0  0  0  0  0  0  0  0  0  0  0
   69.4418   48.7207   51.8984 N   0  0  0  0  0  0  0  0  0  0  0  0
   68.8937   47.3967   56.9201 C   0  0  2  0  0  0  0  0  0  0  0  0
   68.1647   48.6802   57.1659 C   0  0  0  0  0  0  0  0  0  0  0  0
   66.8869   48.7644   57.6432 C   0  0  0  0  0  0  0  0  0  0  0  0
   66.3139   50.0221   57.8307 C   0  0  0  0  0  0  0  0  0  0  0  0
   66.9852   51.1805   57.5540 C   0  0  0  0  0  0  0  0  0  0  0  0
   68.2741   51.0954   57.0733 C   0  0  0  0  0  0  0  0  0  0  0  0
   69.1722   52.5411   56.7053 Cl  0  0  0  0  0  0  0  0  0  0  0  0
   68.8506   49.8446   56.8833 C   0  0  0  0  0  0  0  0  0  0  0  0
   70.3706   47.5443   57.1698 C   0  0  0  0  0  0  0  0  0  0  0  0
   70.7949   46.4372   58.1104 C   0  0  0  0  0  0  0  0  0  0  0  0
   69.7384   45.8887   58.7984 O   0  0  0  0  0  0  0  0  0  0  0  0
  1  2  1  0
  2  3  2  0
  2 11  1  0
  3  4  1  0
  4  5  1  0
  4  8  2  0
  5 12  1  0
  5  6  2  0
 12 20  1  6
 12 13  1  0
 20 21  1  0
 21 22  1  0
 13 14  2  0
 13 19  1  0
 14 15  1  0
 15 16  2  0
 16 17  1  0
 17 18  1  0
 17 19  2  0
  6  7  1  0
  7  8  1  0
  8  9  1  0
  9 10  2  0
  9 11  1  0
M  END
>  <minimizedAffinity>  (455) 
-8.61747

$$$$
data/reference_output_2/data/smiles/131885.pdb
     RDKit          3D

 23 25  0  0  0  0  0  0  0  0999 V2000
   68.2997   47.0672   56.0907 C   0  0  0  0  0  0  0  0  0  0  0  0
   68.4060   46.8957   54.6159 C   0  0  0  0  0  0  0  0  0  0  0  0
   67.6868   45.9338   53.9358 C   0  0  0  0  0  0  0  0  0  0  0  0
   67.8108   45.8020   52.5660 C   0  0  0  0  0  0  0  0  0  0  0  0
   67.1042   44.8604   51.9161 F   0  0  0  0  0  0  0  0  0  0  0  0
   68.6637   46.6352   51.8390 C   0  0  0  0  0  0  0  0  0  0  0  0
   69.3813   47.5953   52.5092 C   0  0  0  0  0  0  0  0  0  0  0  0
   69.2381   47.7030   53.8731 C   0  0  0  0  0  0  0  0  0  0  0  0
   69.9802   48.6832   54.5009 O   0  0  0  0  0  0  0  0  0  0  0  0
   70.6402   49.6438   53.6999 C   0  0  0  0  0  0  0  0  0  0  0  0
   71.1844   49.1563   52.5428 O   0  0  0  0  0  0  0  0  0  0  0  0
   70.2860   48.4755   51.7297 C   0  0  0  0  0  0  0  0  0  0  0  0
   68.6439   44.5500   56.3372 N   0  0  0  0  0  0  0  0  0  0  0  0
   68.9042   45.8735   56.7280 C   0  0  0  0  0  0  0  0  0  0  0  0
   69.7266   45.9890   57.7047 O   0  0  0  0  0  0  0  0  0  0  0  0
   68.7933   42.1021   56.9873 C   0  0  0  0  0  0  0  0  0  0  0  0
   69.4864   41.1884   57.6555 C   0  0  0  0  0  0  0  0  0  0  0  0
   70.6367   41.5589   58.3417 C   0  0  0  0  0  0  0  0  0  0  0  0
   70.6562   43.3469   57.9513 S   0  0  0  0  0  0  0  0  0  0  0  0
   69.2898   43.4045   57.0248 C   0  0  0  0  0  0  0  0  0  0  0  0
   67.5005   40.6064   55.4625 N   0  0  0  0  0  0  0  0  0  0  0  0
   67.5543   41.7843   56.2263 C   0  0  0  0  0  0  0  0  0  0  0  0
   66.5863   42.5500   56.2683 O   0  0  0  0  0  0  0  0  0  0  0  0
 21 22  1  0
 22 23  2  0
 22 16  1  0
 16 17  1  0
 16 20  2  0
 17 18  2  0
 18 19  1  0
 19 20  1  0
 20 13  1  0
 13 14  1  0
 14 15  2  0
 14  1  1  0
  1  2  1  0
  2  3  2  0
  2  8  1  0
  3  4  1  0
  4  5  1  0
  4  6  2  0
  6  7  1  0
  7  8  2  0
  7 12  1  0
  8  9  1  0
  9 10  1  0
 10 11  1  0
 11 12  1  0
M  END
>  <minimizedAffinity>  (456) 
-8.61738

$$$$
data/reference_output_2/data/smiles/176844.pdb
     RDKit          3D

 26 29  0  0  0  0  0  0  0  0999 V2000
   71.7887   49.6529   55.1553 N   0  0  0  0  0  0  0  0  0  0  0  0
   70.8955   49.8963   54.0852 C   0  0  0  0  0  0  0  0  0  0  0  0
   70.8389   51.0790   53.6371 O   0  0  0  0  0  0  0  0  0  0  0  0
   70.0419   48.8521   53.4757 C   0  0  0  0  0  0  0  0  0  0  0  0
   70.0602   48.5423   52.1414 C   0  0  0  0  0  0  0  0  0  0  0  0
   69.2466   47.5576   51.6027 C   0  0  0  0  0  0  0  0  0  0  0  0
   68.3761   46.8404   52.3966 C   0  0  0  0  0  0  0  0  0  0  0  0
   68.3573   47.1518   53.7412 C   0  0  0  0  0  0  0  0  0  0  0  0
   69.1655   48.1306   54.2796 C   0  0  0  0  0  0  0  0  0  0  0  0
   67.5197   45.8044   51.8323 C   0  0  0  0  0  0  0  0  0  0  0  0
   66.9408   45.8473   50.6233 N   0  0  0  0  0  0  0  0  0  0  0  0
   66.2343   44.7435   50.4351 N   0  0  0  0  0  0  0  0  0  0  0  0
   66.3542   43.9920   51.5155 N   0  0  0  0  0  0  0  0  0  0  0  0
   67.1338   44.6355   52.3626 N   0  0  0  0  0  0  0  0  0  0  0  0
   72.6223   50.5815   55.8157 C   0  0  0  0  0  0  0  0  0  0  0  0
   72.0979   51.4381   56.8929 C   0  0  0  0  0  0  0  0  0  0  0  0
   71.1707   54.2399   56.1192 C   0  0  0  0  0  0  0  0  0  0  0  0
   70.2857   53.1045   56.5523 C   0  0  0  0  0  0  0  0  0  0  0  0
   68.9293   53.1689   56.6616 C   0  0  0  0  0  0  0  0  0  0  0  0
   68.5371   51.9128   57.0848 C   0  0  0  0  0  0  0  0  0  0  0  0
   67.2702   51.4374   57.3517 C   0  0  0  0  0  0  0  0  0  0  0  0
   67.1447   50.1308   57.7642 C   0  0  0  0  0  0  0  0  0  0  0  0
   68.2607   49.3452   57.8992 C   0  0  0  0  0  0  0  0  0  0  0  0
   69.5157   49.8378   57.6277 C   0  0  0  0  0  0  0  0  0  0  0  0
   69.6587   51.1576   57.2091 C   0  0  0  0  0  0  0  0  0  0  0  0
   70.7605   51.8945   56.8784 N   0  0  0  0  0  0  0  0  0  0  0  0
 17 18  1  0
 18 19  2  0
 18 26  1  0
 19 20  1  0
 20 21  2  0
 20 25  1  0
 21 22  1  0
 22 23  2  0
 23 24  1  0
 24 25  2  0
 25 26  1  0
 26 16  1  0
 16 15  1  0
 15  1  1  0
  1  2  1  0
  2  3  2  0
  2  4  1  0
  4  5  2  0
  4  9  1  0
  5  6  1  0
  6  7  2  0
  7 10  1  0
  7  8  1  0
 10 11  2  0
 10 14  1  0
 11 12  1  0
 12 13  2  0
 13 14  1  0
  8  9  2  0
M  END
>  <minimizedAffinity>  (457) 
-8.61552

$$$$
data/200k_reference_output/data/smiles/14786.pdb
     RDKit          3D

 23 25  0  0  0  0  0  0  0  0999 V2000
   68.2773   42.3245   56.8838 C   0  0  0  0  0  0  0  0  0  0  0  0
   68.7828   43.5405   56.6008 N   0  0  0  0  0  0  0  0  0  0  0  0
   68.1121   44.1135   55.5854 C   0  0  0  0  0  0  0  0  0  0  0  0
   67.1681   43.2201   55.2370 N   0  0  0  0  0  0  0  0  0  0  0  0
   67.2523   42.1450   56.0034 N   0  0  0  0  0  0  0  0  0  0  0  0
   68.3424   45.4202   54.9756 C   0  0  0  0  0  0  0  0  0  0  0  0
   68.8563   46.4740   55.7042 C   0  0  0  0  0  0  0  0  0  0  0  0
   69.0702   47.7139   55.1089 C   0  0  0  0  0  0  0  0  0  0  0  0
   68.7807   47.9427   53.7803 C   0  0  0  0  0  0  0  0  0  0  0  0
   68.9983   49.1654   53.2208 F   0  0  0  0  0  0  0  0  0  0  0  0
   68.2671   46.8888   53.0555 C   0  0  0  0  0  0  0  0  0  0  0  0
   68.0529   45.6476   53.6467 C   0  0  0  0  0  0  0  0  0  0  0  0
   67.8793   39.6155   56.7438 O   0  0  0  0  0  0  0  0  0  0  0  0
   68.4958   40.0352   57.7725 C   0  0  0  0  0  0  0  0  0  0  0  0
   68.7239   41.4321   57.8856 N   0  0  0  0  0  0  0  0  0  0  0  0
   68.9368   39.0632   58.7828 C   0  0  0  0  0  0  0  0  0  0  0  0
   70.3342   38.9706   58.7895 O   0  0  0  0  0  0  0  0  0  0  0  0
   70.9570   37.7606   58.6384 C   0  0  0  0  0  0  0  0  0  0  0  0
   71.8708   37.5454   57.6575 C   0  0  0  0  0  0  0  0  0  0  0  0
   72.4789   36.3098   57.5421 C   0  0  0  0  0  0  0  0  0  0  0  0
   72.1814   35.2684   58.4077 C   0  0  0  0  0  0  0  0  0  0  0  0
   71.2505   35.5055   59.3970 C   0  0  0  0  0  0  0  0  0  0  0  0
   70.6454   36.7384   59.5099 C   0  0  0  0  0  0  0  0  0  0  0  0
 13 14  2  0
 14 16  1  0
 14 15  1  0
 16 17  1  0
 17 18  1  0
 18 19  2  0
 18 23  1  0
 19 20  1  0
 20 21  2  0
 21 22  1  0
 22 23  2  0
 15  1  1  0
  1  2  2  0
  1  5  1  0
  2  3  1  0
  3  6  1  0
  3  4  2  0
  6  7  2  0
  6 12  1  0
  7  8  1  0
  8  9  2  0
  9 10  1  0
  9 11  1  0
 11 12  2  0
  4  5  1  0
M  END
>  <minimizedAffinity>  (458) 
-8.61519

$$$$
data/reference_output_2/data/smiles/139978.pdb
     RDKit          3D

 25 27  0  0  0  0  0  0  0  0999 V2000
   69.1445   47.2032   53.1832 C   0  0  0  0  0  0  0  0  0  0  0  0
   69.1168   47.9213   54.3550 C   0  0  0  0  0  0  0  0  0  0  0  0
   69.6299   49.1715   54.3850 N   0  0  0  0  0  0  0  0  0  0  0  0
   70.1678   49.6572   53.2234 C   0  0  0  0  0  0  0  0  0  0  0  0
   70.6726   50.8325   53.2126 O   0  0  0  0  0  0  0  0  0  0  0  0
   70.2161   48.9990   52.0759 N   0  0  0  0  0  0  0  0  0  0  0  0
   69.7081   47.7635   52.0293 C   0  0  0  0  0  0  0  0  0  0  0  0
   69.7306   47.1081   50.9735 O   0  0  0  0  0  0  0  0  0  0  0  0
   67.3962   45.8771   52.1434 C   0  0  0  0  0  0  0  0  0  0  0  0
   68.5625   45.8611   53.1038 C   0  0  0  0  0  0  0  0  0  0  0  0
   68.5149   47.3291   55.5048 C   0  0  0  0  0  0  0  0  0  0  0  0
   67.2762   47.3990   55.7776 O   0  0  0  0  0  0  0  0  0  0  0  0
   69.2851   46.5580   56.4944 C   0  0  0  0  0  0  0  0  0  0  0  0
   70.0555   47.2672   57.4137 C   0  0  0  0  0  0  0  0  0  0  0  0
   70.7774   46.5517   58.3433 C   0  0  0  0  0  0  0  0  0  0  0  0
   71.5928   47.3121   59.3225 C   0  0  0  0  0  0  0  0  0  0  0  0
   70.7501   45.1500   58.3788 C   0  0  0  0  0  0  0  0  0  0  0  0
   69.9838   44.4610   57.4636 C   0  0  0  0  0  0  0  0  0  0  0  0
   69.9678   42.9777   57.5145 C   0  0  0  0  0  0  0  0  0  0  0  0
   69.2611   45.1781   56.5325 C   0  0  0  0  0  0  0  0  0  0  0  0
   69.5636   49.9625   55.5629 C   0  0  0  0  0  0  0  0  0  0  0  0
   68.4574   50.9895   55.5982 C   0  0  0  0  0  0  0  0  0  0  0  0
   67.8503   51.1341   57.0080 C   0  0  0  0  0  0  0  0  0  0  0  0
   68.9074   52.1814   57.2749 C   0  0  0  0  0  0  0  0  0  0  0  0
   68.8910   52.4075   55.7558 C   0  0  0  0  0  0  0  0  0  0  0  0
  9 10  1  0
 10  1  1  0
  1  2  2  0
  1  7  1  0
  2 11  1  0
  2  3  1  0
 11 12  2  0
 11 13  1  0
 13 14  2  0
 13 20  1  0
 14 15  1  0
 15 16  1  0
 15 17  2  0
 17 18  1  0
 18 19  1  0
 18 20  2  0
  3 21  1  0
  3  4  1  0
 21 22  1  0
 22 23  1  0
 22 25  1  0
 23 24  1  0
 24 25  1  0
  4  5  2  0
  4  6  1  0
  6  7  1  0
  7  8  2  0
M  END
>  <minimizedAffinity>  (459) 
-8.61448

$$$$
data/200k_reference_output/data/smiles/2642.pdb
     RDKit          3D

 26 29  0  0  0  0  0  0  0  0999 V2000
   70.5914   41.9138   59.4019 C   0  0  0  0  0  0  0  0  0  0  0  0
   69.5560   41.4203   58.5048 C   0  0  0  0  0  0  0  0  0  0  0  0
   69.0778   42.2776   57.5247 C   0  0  0  0  0  0  0  0  0  0  0  0
   69.3563   43.5942   57.1758 C   0  0  0  0  0  0  0  0  0  0  0  0
   70.1838   44.3349   57.7433 O   0  0  0  0  0  0  0  0  0  0  0  0
   68.5961   43.9669   56.1203 N   0  0  0  0  0  0  0  0  0  0  0  0
   67.8543   42.9239   55.8030 N   0  0  0  0  0  0  0  0  0  0  0  0
   68.1125   41.8759   56.6282 C   0  0  0  0  0  0  0  0  0  0  0  0
   67.6531   40.5987   56.7523 C   0  0  0  0  0  0  0  0  0  0  0  0
   68.1469   39.7760   57.7333 C   0  0  0  0  0  0  0  0  0  0  0  0
   67.6881   38.6009   57.7995 O   0  0  0  0  0  0  0  0  0  0  0  0
   69.1042   40.1547   58.6324 N   0  0  0  0  0  0  0  0  0  0  0  0
   68.5928   45.2408   55.4712 C   0  0  0  0  0  0  0  0  0  0  0  0
   69.0365   46.3931   56.0847 C   0  0  0  0  0  0  0  0  0  0  0  0
   69.0207   47.6206   55.4266 C   0  0  0  0  0  0  0  0  0  0  0  0
   68.5553   47.7158   54.1281 C   0  0  0  0  0  0  0  0  0  0  0  0
   68.5477   48.9261   53.4981 F   0  0  0  0  0  0  0  0  0  0  0  0
   68.1121   46.5624   53.5153 C   0  0  0  0  0  0  0  0  0  0  0  0
   68.1305   45.3443   54.1794 C   0  0  0  0  0  0  0  0  0  0  0  0
   69.5368   39.2151   59.6097 C   0  0  0  0  0  0  0  0  0  0  0  0
   70.4324   38.1484   59.1139 C   0  0  0  0  0  0  0  0  0  0  0  0
   70.3846   36.8717   59.6252 C   0  0  0  0  0  0  0  0  0  0  0  0
   71.2225   35.8431   59.1686 C   0  0  0  0  0  0  0  0  0  0  0  0
   72.1409   36.0765   58.1739 C   0  0  0  0  0  0  0  0  0  0  0  0
   72.1898   37.3479   57.6623 C   0  0  0  0  0  0  0  0  0  0  0  0
   71.3616   38.3838   58.1066 C   0  0  0  0  0  0  0  0  0  0  0  0
  1  2  1  0
  2  3  2  0
  2 12  1  0
  3  4  1  0
  3  8  1  0
  4  5  2  0
  4  6  1  0
  6 13  1  0
  6  7  1  0
 13 14  2  0
 13 19  1  0
 14 15  1  0
 15 16  2  0
 16 17  1  0
 16 18  1  0
 18 19  2  0
  7  8  1  0
  8  9  2  0
  9 10  1  0
 10 11  2  0
 10 12  1  0
 12 20  1  0
 20 21  1  0
 21 22  2  0
 21 26  1  0
 22 23  1  0
 23 24  2  0
 24 25  1  0
 25 26  2  0
M  END
>  <minimizedAffinity>  (460) 
-8.61349

$$$$
data/reference_output_2/data/smiles/162813.pdb
     RDKit          3D

 25 28  0  0  0  0  0  0  0  0999 V2000
   69.3751   45.4963   56.9570 N   0  0  0  0  0  0  0  0  0  0  0  0
   69.6440   46.8743   57.0551 C   0  0  0  0  0  0  0  0  0  0  0  0
   70.7081   47.2630   57.5780 O   0  0  0  0  0  0  0  0  0  0  0  0
   67.5426   40.7535   57.2193 N   0  0  0  0  0  0  0  0  0  0  0  0
   68.6918   41.5529   57.4816 C   0  0  0  0  0  0  0  0  0  0  0  0
   68.7224   42.8295   57.2544 N   0  0  0  0  0  0  0  0  0  0  0  0
   70.0044   43.3500   57.6169 C   0  0  0  0  0  0  0  0  0  0  0  0
   70.3439   44.6005   57.4904 N   0  0  0  0  0  0  0  0  0  0  0  0
   70.7797   42.2266   58.1036 C   0  0  0  0  0  0  0  0  0  0  0  0
   72.0594   42.0999   58.5779 C   0  0  0  0  0  0  0  0  0  0  0  0
   72.5392   40.8693   58.9708 C   0  0  0  0  0  0  0  0  0  0  0  0
   71.7304   39.7469   58.8905 C   0  0  0  0  0  0  0  0  0  0  0  0
   70.4347   39.8842   58.4089 C   0  0  0  0  0  0  0  0  0  0  0  0
   69.9556   41.1039   58.0175 C   0  0  0  0  0  0  0  0  0  0  0  0
   68.6465   47.8551   56.5395 C   0  0  0  0  0  0  0  0  0  0  0  0
   69.0521   48.2062   55.1669 C   0  0  0  0  0  0  0  0  0  0  0  0
   69.8987   49.2907   54.9927 C   0  0  0  0  0  0  0  0  0  0  0  0
   70.4098   49.6653   53.7690 C   0  0  0  0  0  0  0  0  0  0  0  0
   70.0693   48.9375   52.6670 C   0  0  0  0  0  0  0  0  0  0  0  0
   69.2363   47.8596   52.7906 C   0  0  0  0  0  0  0  0  0  0  0  0
   68.8511   47.1019   51.7162 C   0  0  0  0  0  0  0  0  0  0  0  0
   67.9995   46.0159   51.7926 C   0  0  0  0  0  0  0  0  0  0  0  0
   67.5121   45.6816   53.0415 C   0  0  0  0  0  0  0  0  0  0  0  0
   67.8874   46.4307   54.1423 C   0  0  0  0  0  0  0  0  0  0  0  0
   68.7256   47.4914   54.0388 C   0  0  0  0  0  0  0  0  0  0  0  0
  4  5  1  0
  5  6  2  0
  5 14  1  0
  6  7  1  0
  7  8  2  0
  7  9  1  0
  8  1  1  0
  1  2  1  0
  2  3  2  0
  2 15  1  0
 15 16  1  0
 16 17  2  0
 16 25  1  0
 17 18  1  0
 18 19  2  0
 19 20  1  0
 20 21  1  0
 20 25  2  0
 21 22  2  0
 22 23  1  0
 23 24  2  0
 24 25  1  0
  9 10  2  0
  9 14  1  0
 10 11  1  0
 11 12  2  0
 12 13  1  0
 13 14  2  0
M  CHG  2   6   1   8   1
M  END
>  <minimizedAffinity>  (461) 
-8.61336

$$$$
data/200k_reference_output/data/smiles/18175.pdb
     RDKit          3D

 24 26  0  0  0  0  0  0  0  0999 V2000
   72.2160   51.1194   54.8102 C   0  0  2  0  0  0  0  0  0  0  0  0
   70.1902   50.9122   52.9824 O   0  0  0  0  0  0  0  0  0  0  0  0
   70.4928   49.8008   53.5620 C   0  0  0  0  0  0  0  0  0  0  0  0
   71.5317   49.8722   54.5028 N   0  0  0  0  0  0  0  0  0  0  0  0
   69.7833   48.5998   53.2272 C   0  0  0  0  0  0  0  0  0  0  0  0
   68.9502   48.0001   54.2053 C   0  0  0  0  0  0  0  0  0  0  0  0
   68.2468   46.8566   53.9378 C   0  0  0  0  0  0  0  0  0  0  0  0
   68.3327   46.2594   52.7052 C   0  0  0  0  0  0  0  0  0  0  0  0
   69.1377   46.8107   51.7138 C   0  0  0  0  0  0  0  0  0  0  0  0
   69.8430   47.9824   52.0272 C   0  0  0  0  0  0  0  0  0  0  0  0
   70.6198   48.4564   51.0016 F   0  0  0  0  0  0  0  0  0  0  0  0
   73.7003   50.8859   54.7248 C   0  0  0  0  0  0  0  0  0  0  0  0
   74.4545   51.3732   55.5992 O   0  0  0  0  0  0  0  0  0  0  0  0
   74.2686   50.1464   53.7035 O   0  0  0  0  0  0  0  0  0  0  0  0
   71.9376   51.6827   56.1543 C   0  0  0  0  0  0  0  0  0  0  0  0
   70.5453   51.9865   56.4687 C   0  0  0  0  0  0  0  0  0  0  0  0
   69.9611   53.2287   56.3427 C   0  0  0  0  0  0  0  0  0  0  0  0
   68.6699   53.1242   56.6972 N   0  0  0  0  0  0  0  0  0  0  0  0
   68.3880   51.8644   57.0487 C   0  0  0  0  0  0  0  0  0  0  0  0
   67.2080   51.2839   57.4856 C   0  0  0  0  0  0  0  0  0  0  0  0
   67.1661   49.9540   57.7993 C   0  0  0  0  0  0  0  0  0  0  0  0
   68.3276   49.2052   57.6695 C   0  0  0  0  0  0  0  0  0  0  0  0
   69.4935   49.7899   57.2350 C   0  0  0  0  0  0  0  0  0  0  0  0
   69.5583   51.1438   56.9098 C   0  0  0  0  0  0  0  0  0  0  0  0
  2  3  2  0
  3  4  1  0
  3  5  1  0
  4  1  1  0
  1 15  1  1
  1 12  1  0
 15 16  1  0
 16 17  2  0
 16 24  1  0
 17 18  1  0
 18 19  1  0
 19 20  1  0
 19 24  2  0
 20 21  2  0
 21 22  1  0
 22 23  2  0
 23 24  1  0
 12 13  2  0
 12 14  1  0
  5  6  2  0
  5 10  1  0
  6  7  1  0
  7  8  2  0
  8  9  1  0
  9 10  2  0
 10 11  1  0
M  END
>  <minimizedAffinity>  (462) 
-8.61194

$$$$
data/200k_reference_output/data/smiles/76769.pdb
     RDKit          3D

 23 25  0  0  0  0  0  0  0  0999 V2000
   69.7002   47.7891   57.3096 C   0  0  0  0  0  0  0  0  0  0  0  0
   70.0898   46.1603   58.9390 O   0  0  0  0  0  0  0  0  0  0  0  0
   69.7534   46.3836   57.7462 C   0  0  0  0  0  0  0  0  0  0  0  0
   69.4589   45.2732   56.9373 N   0  0  0  0  0  0  0  0  0  0  0  0
   69.5117   43.9440   57.3582 N   0  0  0  0  0  0  0  0  0  0  0  0
   68.6463   42.9545   56.8433 C   0  0  0  0  0  0  0  0  0  0  0  0
   67.8153   43.3052   55.9830 O   0  0  0  0  0  0  0  0  0  0  0  0
   68.7271   41.5485   57.3112 C   0  0  0  0  0  0  0  0  0  0  0  0
   67.9044   40.5082   57.0825 C   0  0  0  0  0  0  0  0  0  0  0  0
   68.2059   39.3252   57.6289 C   0  0  0  0  0  0  0  0  0  0  0  0
   69.3345   39.2131   58.3980 C   0  0  0  0  0  0  0  0  0  0  0  0
   69.9827   40.9223   58.3157 S   0  0  0  0  0  0  0  0  0  0  0  0
   68.8419   48.0050   56.2228 O   0  0  0  0  0  0  0  0  0  0  0  0
   69.2121   48.2729   54.9395 C   0  0  0  0  0  0  0  0  0  0  0  0
   70.0245   49.3328   54.5933 C   0  0  0  0  0  0  0  0  0  0  0  0
   70.3770   49.5682   53.2727 C   0  0  0  0  0  0  0  0  0  0  0  0
   69.9154   48.7352   52.2762 C   0  0  0  0  0  0  0  0  0  0  0  0
   69.1016   47.6681   52.5933 C   0  0  0  0  0  0  0  0  0  0  0  0
   68.6361   46.8284   51.5913 C   0  0  0  0  0  0  0  0  0  0  0  0
   67.8217   45.7601   51.9124 C   0  0  0  0  0  0  0  0  0  0  0  0
   67.4772   45.5357   53.2299 C   0  0  0  0  0  0  0  0  0  0  0  0
   67.9485   46.3805   54.2178 C   0  0  0  0  0  0  0  0  0  0  0  0
   68.7651   47.4562   53.9237 C   0  0  0  0  0  0  0  0  0  0  0  0
  2  3  2  0
  3  1  1  0
  3  4  1  0
  1 13  1  0
 13 14  1  0
 14 15  2  0
 14 23  1  0
 15 16  1  0
 16 17  2  0
 17 18  1  0
 18 19  1  0
 18 23  2  0
 19 20  2  0
 20 21  1  0
 21 22  2  0
 22 23  1  0
  4  5  1  0
  5  6  1  0
  6  7  2  0
  6  8  1  0
  8  9  2  0
  8 12  1  0
  9 10  1  0
 10 11  2  0
 11 12  1  0
M  END
>  <minimizedAffinity>  (463) 
-8.61173

$$$$
data/reference_output_2/data/smiles/164099.pdb
     RDKit          3D

 24 27  0  0  0  0  0  0  0  0999 V2000
   69.6652   42.9800   56.8308 O   0  0  0  0  0  0  0  0  0  0  0  0
   68.4859   42.8145   56.4121 C   0  0  0  0  0  0  0  0  0  0  0  0
   67.9573   41.4927   56.4839 N   0  0  0  0  0  0  0  0  0  0  0  0
   67.7474   43.9158   55.8971 N   0  0  0  0  0  0  0  0  0  0  0  0
   68.7237   40.4414   56.9995 N   0  0  0  0  0  0  0  0  0  0  0  0
   68.3961   39.8674   58.1085 C   0  0  0  0  0  0  0  0  0  0  0  0
   67.2133   40.2571   58.9127 C   0  0  0  0  0  0  0  0  0  0  0  0
   66.9011   39.0109   59.7242 C   0  0  0  0  0  0  0  0  0  0  0  0
   68.1927   38.2615   59.7536 C   0  0  0  0  0  0  0  0  0  0  0  0
   68.6258   37.2070   60.5319 C   0  0  0  0  0  0  0  0  0  0  0  0
   69.8896   36.6751   60.3675 C   0  0  0  0  0  0  0  0  0  0  0  0
   70.7507   37.1867   59.4199 C   0  0  0  0  0  0  0  0  0  0  0  0
   70.3052   38.2465   58.6434 C   0  0  0  0  0  0  0  0  0  0  0  0
   69.0468   38.7739   58.8089 C   0  0  0  0  0  0  0  0  0  0  0  0
   68.3588   45.1767   55.8689 N   0  0  0  0  0  0  0  0  0  0  0  0
   68.3304   45.8963   54.7921 C   0  0  0  0  0  0  0  0  0  0  0  0
   67.6796   45.4709   53.5486 C   0  0  0  0  0  0  0  0  0  0  0  0
   68.4038   46.2715   52.4839 C   0  0  0  0  0  0  0  0  0  0  0  0
   68.9456   47.4622   53.1864 C   0  0  0  0  0  0  0  0  0  0  0  0
   69.4425   48.6524   52.7222 C   0  0  0  0  0  0  0  0  0  0  0  0
   69.9068   49.6529   53.5796 C   0  0  0  0  0  0  0  0  0  0  0  0
   69.8392   49.3774   54.9301 C   0  0  0  0  0  0  0  0  0  0  0  0
   69.3414   48.1833   55.4184 C   0  0  0  0  0  0  0  0  0  0  0  0
   68.8900   47.2160   54.5413 C   0  0  0  0  0  0  0  0  0  0  0  0
  1  2  2  0
  2  3  1  0
  2  4  1  0
  3  5  1  0
  5  6  2  0
  6  7  1  0
  6 14  1  0
  7  8  1  0
  8  9  1  0
  9 10  1  0
  9 14  2  0
 10 11  2  0
 11 12  1  0
 12 13  2  0
 13 14  1  0
  4 15  1  0
 15 16  2  0
 16 17  1  0
 16 24  1  0
 17 18  1  0
 18 19  1  0
 19 20  1  0
 19 24  2  0
 20 21  2  0
 21 22  1  0
 22 23  2  0
 23 24  1  0
M  END
>  <minimizedAffinity>  (464) 
-8.61082

$$$$
data/200k_reference_output/data/smiles/79301.pdb
     RDKit          3D

 23 25  0  0  0  0  0  0  0  0999 V2000
   71.9063   50.2781   53.7921 O   0  0  0  0  0  0  0  0  0  0  0  0
   70.6279   50.3771   53.7165 C   0  0  0  0  0  0  0  0  0  0  0  0
   69.8951   49.1960   53.2801 C   0  0  0  0  0  0  0  0  0  0  0  0
   69.4230   48.2211   54.1307 C   0  0  0  0  0  0  0  0  0  0  0  0
   68.7370   47.1072   53.6671 C   0  0  0  0  0  0  0  0  0  0  0  0
   68.2559   46.1171   54.4943 C   0  0  0  0  0  0  0  0  0  0  0  0
   67.5718   45.0143   53.9901 C   0  0  0  0  0  0  0  0  0  0  0  0
   67.3625   44.8924   52.6335 C   0  0  0  0  0  0  0  0  0  0  0  0
   67.8474   45.8859   51.8143 C   0  0  0  0  0  0  0  0  0  0  0  0
   68.5336   46.9963   52.3087 C   0  0  0  0  0  0  0  0  0  0  0  0
   68.9873   47.9316   51.5013 O   0  0  0  0  0  0  0  0  0  0  0  0
   69.6444   48.9989   51.9382 C   0  0  0  0  0  0  0  0  0  0  0  0
   70.0572   49.8678   51.1098 O   0  0  0  0  0  0  0  0  0  0  0  0
   69.9976   51.6726   54.0757 C   0  0  0  0  0  0  0  0  0  0  0  0
   70.0195   51.9327   55.8362 S   0  0  0  0  0  0  0  0  0  0  0  0
   71.3741   51.5461   56.3614 O   0  0  0  0  0  0  0  0  0  0  0  0
   69.8422   53.4205   56.0948 O   0  0  0  0  0  0  0  0  0  0  0  0
   68.7729   51.0032   56.6291 C   0  0  0  0  0  0  0  0  0  0  0  0
   67.5353   51.5084   56.9617 C   0  0  0  0  0  0  0  0  0  0  0  0
   66.5860   50.7394   57.5874 C   0  0  0  0  0  0  0  0  0  0  0  0
   66.8285   49.4174   57.9143 C   0  0  0  0  0  0  0  0  0  0  0  0
   68.0677   48.8796   57.5913 C   0  0  0  0  0  0  0  0  0  0  0  0
   68.9943   49.6771   56.9664 C   0  0  0  0  0  0  0  0  0  0  0  0
  1  2  2  0
  2 14  1  0
  2  3  1  0
 14 15  1  0
 15 16  2  0
 15 17  2  0
 15 18  1  0
 18 19  2  0
 18 23  1  0
 19 20  1  0
 20 21  2  0
 21 22  1  0
 22 23  2  0
  3  4  2  0
  3 12  1  0
  4  5  1  0
  5  6  2  0
  5 10  1  0
  6  7  1  0
  7  8  2  0
  8  9  1  0
  9 10  2  0
 10 11  1  0
 11 12  1  0
 12 13  2  0
M  END
>  <minimizedAffinity>  (465) 
-8.60926

$$$$
data/reference_output_2/data/smiles/197441.pdb
     RDKit          3D

 25 28  0  0  0  0  0  0  0  0999 V2000
   68.4582   43.0440   56.4849 C   0  0  0  0  0  0  0  0  0  0  0  0
   69.3891   42.6347   57.4124 C   0  0  0  0  0  0  0  0  0  0  0  0
   69.3310   41.3629   57.9886 C   0  0  0  0  0  0  0  0  0  0  0  0
   68.3297   40.4747   57.6396 C   0  0  0  0  0  0  0  0  0  0  0  0
   67.3983   40.8850   56.7108 C   0  0  0  0  0  0  0  0  0  0  0  0
   67.4643   42.1557   56.1413 C   0  0  0  0  0  0  0  0  0  0  0  0
   66.5551   42.5441   55.2393 F   0  0  0  0  0  0  0  0  0  0  0  0
   68.4285   46.9600   53.4290 C   0  0  0  0  0  0  0  0  0  0  0  0
   68.6754   48.3046   53.5945 C   0  0  0  0  0  0  0  0  0  0  0  0
   69.0196   48.8033   54.8415 C   0  0  0  0  0  0  0  0  0  0  0  0
   69.1048   47.9318   55.8927 C   0  0  0  0  0  0  0  0  0  0  0  0
   68.8532   46.5799   55.7102 C   0  0  0  0  0  0  0  0  0  0  0  0
   68.8622   45.5138   56.5516 N   0  0  0  0  0  0  0  0  0  0  0  0
   68.5457   44.3828   55.8983 C   0  0  0  0  0  0  0  0  0  0  0  0
   68.3318   44.7440   54.6207 N   0  0  0  0  0  0  0  0  0  0  0  0
   68.5092   46.0683   54.4749 C   0  0  0  0  0  0  0  0  0  0  0  0
   67.0476   45.5228   51.8958 N   0  0  0  0  0  0  0  0  0  0  0  0
   68.0716   46.4873   52.1027 C   0  0  0  0  0  0  0  0  0  0  0  0
   68.6681   46.9283   51.0915 O   0  0  0  0  0  0  0  0  0  0  0  0
   68.2472   39.1107   58.2428 C   0  0  2  0  0  0  0  0  0  0  0  0
   67.2149   39.0218   59.3134 C   0  0  0  0  0  0  0  0  0  0  0  0
   67.8385   38.7385   60.6551 C   0  0  0  0  0  0  0  0  0  0  0  0
   68.6181   37.4456   60.5390 C   0  0  0  0  0  0  0  0  0  0  0  0
   69.6226   37.5157   59.5044 N   0  0  0  0  0  0  0  0  0  0  0  0
   69.6105   38.7722   58.8014 C   0  0  0  0  0  0  0  0  0  0  0  0
 17 18  1  0
 18 19  2  0
 18  8  1  0
  8  9  2  0
  8 16  1  0
  9 10  1  0
 10 11  2  0
 11 12  1  0
 12 13  1  0
 12 16  2  0
 13 14  1  0
 14  1  1  0
 14 15  2  0
  1  2  2  0
  1  6  1  0
  2  3  1  0
  3  4  2  0
 20  4  1  1
  4  5  1  0
 20 21  1  0
 20 25  1  0
 21 22  1  0
 22 23  1  0
 23 24  1  0
 24 25  1  0
  5  6  2  0
  6  7  1  0
 15 16  1  0
M  CHG  2  15   1  24   1
M  END
>  <minimizedAffinity>  (466) 
-8.60917

$$$$
data/reference_output_2/data/smiles/125098.pdb
     RDKit          3D

 26 29  0  0  0  0  0  0  0  0999 V2000
   70.9254   38.9419   58.2965 C   0  0  0  0  0  0  0  0  0  0  0  0
   69.6009   39.3266   58.3305 C   0  0  0  0  0  0  0  0  0  0  0  0
   69.5590   40.6987   58.2672 C   0  0  0  0  0  0  0  0  0  0  0  0
   70.8364   41.1340   58.1976 C   0  0  0  0  0  0  0  0  0  0  0  0
   71.6750   40.0509   58.2154 N   0  0  0  0  0  0  0  0  0  0  0  0
   71.2012   42.5663   58.1100 C   0  0  0  0  0  0  0  0  0  0  0  0
   70.1201   43.4018   57.5712 C   0  0  1  0  0  0  0  0  0  0  0  0
   68.8334   43.0660   58.1974 N   0  0  0  0  0  0  0  0  0  0  0  0
   68.4768   41.7091   58.2689 C   0  0  0  0  0  0  0  0  0  0  0  0
   67.2997   41.2745   58.3351 O   0  0  0  0  0  0  0  0  0  0  0  0
   73.5115   35.2962   56.3987 N   0  0  0  0  0  0  0  0  0  0  0  0
   72.6656   35.8043   57.4066 C   0  0  0  0  0  0  0  0  0  0  0  0
   72.3085   34.9827   58.4177 N   0  0  0  0  0  0  0  0  0  0  0  0
   71.5006   35.4018   59.4196 C   0  0  0  0  0  0  0  0  0  0  0  0
   71.0488   36.7168   59.3675 C   0  0  0  0  0  0  0  0  0  0  0  0
   71.4031   37.5667   58.3423 C   0  0  0  0  0  0  0  0  0  0  0  0
   72.2065   37.0874   57.3827 N   0  0  0  0  0  0  0  0  0  0  0  0
   70.2765   44.8778   57.5257 C   0  0  0  0  0  0  0  0  0  0  0  0
   69.2306   45.6060   57.1567 O   0  0  0  0  0  0  0  0  0  0  0  0
   69.2818   46.7801   56.5228 C   0  0  0  0  0  0  0  0  0  0  0  0
   68.8793   46.6563   55.0800 C   0  0  0  0  0  0  0  0  0  0  0  0
   68.1667   45.5598   54.6294 C   0  0  0  0  0  0  0  0  0  0  0  0
   67.7907   45.4453   53.2949 C   0  0  0  0  0  0  0  0  0  0  0  0
   68.1279   46.4403   52.3891 C   0  0  0  0  0  0  0  0  0  0  0  0
   68.8321   47.5239   52.8382 C   0  0  0  0  0  0  0  0  0  0  0  0
   69.2000   47.6211   54.1754 C   0  0  0  0  0  0  0  0  0  0  0  0
 11 12  1  0
 12 13  2  0
 12 17  1  0
 13 14  1  0
 14 15  2  0
 15 16  1  0
 16  1  1  0
 16 17  2  0
  1  2  2  0
  1  5  1  0
  2  3  1  0
  3  4  2  0
  3  9  1  0
  4  5  1  0
  4  6  1  0
  6  7  1  0
  7 18  1  1
  7  8  1  0
 18 19  1  0
 19 20  1  0
 20 21  1  0
 21 22  2  0
 21 26  1  0
 22 23  1  0
 23 24  2  0
 24 25  1  0
 25 26  2  0
  8  9  1  0
  9 10  2  0
M  END
>  <minimizedAffinity>  (467) 
-8.60783

$$$$
data/reference_output_2/data/smiles/192653.pdb
     RDKit          3D

 25 27  0  0  0  0  0  0  0  0999 V2000
   73.8909   34.9893   53.6234 C   0  0  0  0  0  0  0  0  0  0  0  0
   73.6552   36.0710   52.9838 O   0  0  0  0  0  0  0  0  0  0  0  0
   74.9786   34.1834   53.2030 N   0  0  0  0  0  0  0  0  0  0  0  0
   75.7633   34.5693   52.1200 N   0  0  0  0  0  0  0  0  0  0  0  0
   76.8165   35.4150   52.2779 C   0  0  0  0  0  0  0  0  0  0  0  0
   77.0723   35.8944   53.6660 C   0  0  0  0  0  0  0  0  0  0  0  0
   77.5726   35.7856   51.2287 N   0  0  0  0  0  0  0  0  0  0  0  0
   77.3444   35.3547   49.9714 C   0  0  0  0  0  0  0  0  0  0  0  0
   78.1321   35.7449   48.9023 C   0  0  0  0  0  0  0  0  0  0  0  0
   77.8696   35.2831   47.6244 C   0  0  0  0  0  0  0  0  0  0  0  0
   76.8086   34.4215   47.4205 C   0  0  0  0  0  0  0  0  0  0  0  0
   76.0346   34.0438   48.4994 C   0  0  0  0  0  0  0  0  0  0  0  0
   76.2917   34.5028   49.7818 C   0  0  0  0  0  0  0  0  0  0  0  0
   75.5286   34.1347   50.8682 C   0  0  0  0  0  0  0  0  0  0  0  0
   74.5676   33.3512   50.6652 O   0  0  0  0  0  0  0  0  0  0  0  0
   73.0214   34.6420   54.7595 C   0  0  0  0  0  0  0  0  0  0  0  0
   73.5263   34.9960   56.0168 O   0  0  0  0  0  0  0  0  0  0  0  0
   71.1848   38.6009   58.4593 C   0  0  0  0  0  0  0  0  0  0  0  0
   71.6201   37.1883   58.3135 C   0  0  0  0  0  0  0  0  0  0  0  0
   71.2983   36.2308   59.2524 C   0  0  0  0  0  0  0  0  0  0  0  0
   71.7062   34.9201   59.1103 C   0  0  0  0  0  0  0  0  0  0  0  0
   72.4488   34.4857   58.0413 C   0  0  0  0  0  0  0  0  0  0  0  0
   72.8808   33.0701   57.9014 C   0  0  0  0  0  0  0  0  0  0  0  0
   72.7827   35.4475   57.0824 C   0  0  0  0  0  0  0  0  0  0  0  0
   72.3687   36.7568   57.2343 C   0  0  0  0  0  0  0  0  0  0  0  0
 18 19  1  0
 19 20  2  0
 19 25  1  0
 20 21  1  0
 21 22  2  0
 22 23  1  0
 22 24  1  0
 24 17  1  0
 24 25  2  0
 17 16  1  0
 16  1  1  0
  1  2  2  0
  1  3  1  0
  3  4  1  0
  4  5  1  0
  4 14  1  0
  5  6  1  0
  5  7  2  0
  7  8  1  0
  8  9  2  0
  8 13  1  0
  9 10  1  0
 10 11  2  0
 11 12  1  0
 12 13  2  0
 13 14  1  0
 14 15  2  0
M  END
>  <minimizedAffinity>  (468) 
-8.60678

$$$$
data/200k_reference_output/data/smiles/39862.pdb
     RDKit          3D

 23 25  0  0  0  0  0  0  0  0999 V2000
   68.8297   48.5024   56.2891 C   0  0  0  0  0  0  0  0  0  0  0  0
   69.2577   48.4493   54.9019 C   0  0  0  0  0  0  0  0  0  0  0  0
   70.1698   49.3773   54.4766 N   0  0  0  0  0  0  0  0  0  0  0  0
   70.6038   49.4701   53.2512 N   0  0  0  0  0  0  0  0  0  0  0  0
   70.1796   48.6418   52.2876 C   0  0  0  0  0  0  0  0  0  0  0  0
   70.6180   48.7521   51.0911 O   0  0  0  0  0  0  0  0  0  0  0  0
   69.2595   47.6700   52.6127 C   0  0  0  0  0  0  0  0  0  0  0  0
   68.8263   46.8046   51.6243 C   0  0  0  0  0  0  0  0  0  0  0  0
   67.9172   45.8439   52.0081 C   0  0  0  0  0  0  0  0  0  0  0  0
   67.4628   45.7465   53.3023 C   0  0  0  0  0  0  0  0  0  0  0  0
   67.8993   46.6124   54.2777 C   0  0  0  0  0  0  0  0  0  0  0  0
   68.8051   47.5859   53.9340 C   0  0  0  0  0  0  0  0  0  0  0  0
   70.8440   45.7868   58.0200 C   0  0  0  0  0  0  0  0  0  0  0  0
   71.7283   46.6154   58.7255 C   0  0  0  0  0  0  0  0  0  0  0  0
   71.6426   47.9794   58.6234 C   0  0  0  0  0  0  0  0  0  0  0  0
   70.6927   48.5605   57.8330 C   0  0  0  0  0  0  0  0  0  0  0  0
   69.8027   47.7465   57.1241 C   0  0  0  0  0  0  0  0  0  0  0  0
   69.9093   46.4046   57.2412 C   0  0  0  0  0  0  0  0  0  0  0  0
   70.2503   43.5506   59.0413 C   0  0  0  0  0  0  0  0  0  0  0  0
   69.3503   44.0150   59.7680 O   0  0  0  0  0  0  0  0  0  0  0  0
   70.9950   44.3847   58.1795 N   0  0  0  0  0  0  0  0  0  0  0  0
   71.5316   41.7383   58.0526 C   0  0  0  0  0  0  0  0  0  0  0  0
   70.5140   42.0777   59.1149 C   0  0  0  0  0  0  0  0  0  0  0  0
 22 23  1  0
 23 19  1  0
 19 20  2  0
 19 21  1  0
 21 13  1  0
 13 14  2  0
 13 18  1  0
 14 15  1  0
 15 16  2  0
 16 17  1  0
 17  1  1  0
 17 18  2  0
  1  2  1  0
  2  3  2  0
  2 12  1  0
  3  4  1  0
  4  5  1  0
  5  6  2  0
  5  7  1  0
  7  8  1  0
  7 12  2  0
  8  9  2  0
  9 10  1  0
 10 11  2  0
 11 12  1  0
M  END
>  <minimizedAffinity>  (469) 
-8.60633

$$$$
data/reference_output_2/data/smiles/99455.pdb
     RDKit          3D

 23 24  0  0  0  0  0  0  0  0999 V2000
   71.4981   49.5510   53.6991 N   0  0  0  0  0  0  0  0  0  0  0  0
   70.4239   49.4916   53.0670 C   0  0  0  0  0  0  0  0  0  0  0  0
   69.9594   50.5990   52.3236 N   0  0  0  0  0  0  0  0  0  0  0  0
   69.5984   48.2476   53.0554 C   0  0  0  0  0  0  0  0  0  0  0  0
   69.1676   47.7350   51.8621 C   0  0  0  0  0  0  0  0  0  0  0  0
   68.3950   46.5768   51.8496 C   0  0  0  0  0  0  0  0  0  0  0  0
   68.0389   45.9086   53.0196 C   0  0  0  0  0  0  0  0  0  0  0  0
   68.4895   46.4507   54.2095 C   0  0  0  0  0  0  0  0  0  0  0  0
   69.2572   47.6048   54.2177 C   0  0  0  0  0  0  0  0  0  0  0  0
   68.1356   45.7824   55.4149 N   0  0  0  0  0  0  0  0  0  0  0  0
   68.0870   46.3701   56.5082 O   0  0  0  0  0  0  0  0  0  0  0  0
   67.8411   44.4373   55.3635 O   0  0  0  0  0  0  0  0  0  0  0  0
   72.4051   50.4627   53.8758 O   0  0  0  0  0  0  0  0  0  0  0  0
   72.7714   51.3263   54.8445 C   0  0  0  0  0  0  0  0  0  0  0  0
   73.8240   51.1746   55.4535 O   0  0  0  0  0  0  0  0  0  0  0  0
   71.8663   52.4957   55.1760 C   0  0  0  0  0  0  0  0  0  0  0  0
   67.0145   50.4823   57.6528 C   0  0  0  0  0  0  0  0  0  0  0  0
   68.2340   51.0191   56.9968 C   0  0  0  0  0  0  0  0  0  0  0  0
   68.1959   51.9059   55.9439 C   0  0  0  0  0  0  0  0  0  0  0  0
   69.3411   52.3984   55.3403 C   0  0  0  0  0  0  0  0  0  0  0  0
   70.5948   52.0265   55.7622 C   0  0  0  0  0  0  0  0  0  0  0  0
   70.6282   51.1214   56.8380 C   0  0  0  0  0  0  0  0  0  0  0  0
   69.4954   50.6332   57.4365 C   0  0  0  0  0  0  0  0  0  0  0  0
 17 18  1  0
 18 19  2  0
 18 23  1  0
 19 20  1  0
 20 21  2  0
 21 16  1  0
 21 22  1  0
 16 14  1  0
 14 15  2  0
 14 13  1  0
 13  1  1  0
  1  2  2  0
  2  3  1  0
  2  4  1  0
  4  5  2  0
  4  9  1  0
  5  6  1  0
  6  7  2  0
  7  8  1  0
  8 10  1  0
  8  9  2  0
 10 11  2  0
 10 12  1  0
 22 23  2  0
M  CHG  3   1   1  10   1  12  -1
M  END
>  <minimizedAffinity>  (470) 
-8.60545

$$$$
data/200k_reference_output/data/smiles/57723.pdb
     RDKit          3D

 23 25  0  0  0  0  0  0  0  0999 V2000
   69.1887   50.6527   52.9926 N   0  0  0  0  0  0  0  0  0  0  0  0
   69.4118   51.4150   54.1293 C   0  0  0  0  0  0  0  0  0  0  0  0
   68.3930   51.5416   55.0585 C   0  0  0  0  0  0  0  0  0  0  0  0
   68.5630   52.2430   56.2268 C   0  0  0  0  0  0  0  0  0  0  0  0
   69.7622   52.8274   56.4784 C   0  0  0  0  0  0  0  0  0  0  0  0
   70.7904   52.7241   55.5856 C   0  0  0  0  0  0  0  0  0  0  0  0
   70.6233   52.0321   54.4311 C   0  0  0  0  0  0  0  0  0  0  0  0
   72.0817   53.3727   55.8898 C   0  0  0  0  0  0  0  0  0  0  0  0
   73.0594   52.9111   56.6631 N   0  0  0  0  0  0  0  0  0  0  0  0
   74.0387   53.8123   56.6601 N   0  0  0  0  0  0  0  0  0  0  0  0
   73.6698   54.8403   55.8825 C   0  0  0  0  0  0  0  0  0  0  0  0
   72.4773   54.5306   55.4367 O   0  0  0  0  0  0  0  0  0  0  0  0
   71.4596   49.2670   53.0762 O   0  0  0  0  0  0  0  0  0  0  0  0
   70.0185   49.2340   52.5483 S   0  0  0  0  0  0  0  0  0  0  0  0
   70.1256   49.1132   51.0331 O   0  0  0  0  0  0  0  0  0  0  0  0
   69.2489   47.8153   53.1916 C   0  0  0  0  0  0  0  0  0  0  0  0
   68.7515   46.8729   52.2909 C   0  0  0  0  0  0  0  0  0  0  0  0
   68.1079   45.7234   52.6971 C   0  0  0  0  0  0  0  0  0  0  0  0
   67.9511   45.4996   54.0591 C   0  0  0  0  0  0  0  0  0  0  0  0
   67.3184   44.3693   54.4449 F   0  0  0  0  0  0  0  0  0  0  0  0
   68.4269   46.4023   54.9789 C   0  0  0  0  0  0  0  0  0  0  0  0
   69.0729   47.5540   54.5212 C   0  0  0  0  0  0  0  0  0  0  0  0
   69.5421   48.4060   55.4525 F   0  0  0  0  0  0  0  0  0  0  0  0
 13 14  2  0
 14 15  2  0
 14  1  1  0
 14 16  1  0
  1  2  1  0
  2  3  2  0
  2  7  1  0
  3  4  1  0
  4  5  2  0
  5  6  1  0
  6  8  1  0
  6  7  2  0
  8  9  2  0
  8 12  1  0
  9 10  1  0
 10 11  2  0
 11 12  1  0
 16 17  2  0
 16 22  1  0
 17 18  1  0
 18 19  2  0
 19 20  1  0
 19 21  1  0
 21 22  2  0
 22 23  1  0
M  END
>  <minimizedAffinity>  (471) 
-8.60511

$$$$
data/reference_output_2/data/smiles/199801.pdb
     RDKit          3D

 25 27  0  0  0  0  0  0  0  0999 V2000
   69.6377   46.7016   56.5834 C   0  0  0  0  0  0  0  0  0  0  0  0
   68.7099   46.1928   55.5741 C   0  0  0  0  0  0  0  0  0  0  0  0
   68.0650   45.1220   55.8900 O   0  0  0  0  0  0  0  0  0  0  0  0
   68.4752   46.7581   54.3300 N   0  0  0  0  0  0  0  0  0  0  0  0
   67.8183   46.0006   53.2609 C   0  0  0  0  0  0  0  0  0  0  0  0
   68.3136   46.3712   51.9166 C   0  0  0  0  0  0  0  0  0  0  0  0
   69.5627   47.2206   51.8817 C   0  0  0  0  0  0  0  0  0  0  0  0
   69.4646   48.3713   52.8153 C   0  0  0  0  0  0  0  0  0  0  0  0
   69.8843   49.6376   52.4837 C   0  0  0  0  0  0  0  0  0  0  0  0
   69.7293   50.6512   53.4176 C   0  0  0  0  0  0  0  0  0  0  0  0
   69.1647   50.3653   54.6399 C   0  0  0  0  0  0  0  0  0  0  0  0
   68.7454   49.1013   54.9736 C   0  0  0  0  0  0  0  0  0  0  0  0
   68.8980   48.0790   54.0423 C   0  0  0  0  0  0  0  0  0  0  0  0
   69.5602   46.1461   57.8666 O   0  0  0  0  0  0  0  0  0  0  0  0
   70.9750   46.5289   59.5934 O   0  0  0  0  0  0  0  0  0  0  0  0
   70.7014   45.8135   58.6165 C   0  0  0  0  0  0  0  0  0  0  0  0
   71.4933   44.6664   58.2161 C   0  0  0  0  0  0  0  0  0  0  0  0
   72.8802   44.8605   58.0936 C   0  0  0  0  0  0  0  0  0  0  0  0
   73.7037   43.8290   57.7451 C   0  0  0  0  0  0  0  0  0  0  0  0
   73.2110   42.5664   57.5020 C   0  0  0  0  0  0  0  0  0  0  0  0
   71.8771   42.3762   57.6189 C   0  0  0  0  0  0  0  0  0  0  0  0
   71.0162   43.4201   57.9744 C   0  0  0  0  0  0  0  0  0  0  0  0
   69.6714   43.0780   58.0747 N   0  0  0  0  0  0  0  0  0  0  0  0
   68.9802   43.2451   59.0602 O   0  0  0  0  0  0  0  0  0  0  0  0
   69.0130   42.5472   56.9608 O   0  0  0  0  0  0  0  0  0  0  0  0
 15 16  2  0
 16 14  1  0
 16 17  1  0
 14  1  1  0
  1  2  1  0
  2  3  2  0
  2  4  1  0
  4  5  1  0
  4 13  1  0
  5  6  1  0
  6  7  1  0
  7  8  1  0
  8  9  2  0
  8 13  1  0
  9 10  1  0
 10 11  2  0
 11 12  1  0
 12 13  2  0
 17 18  2  0
 17 22  1  0
 18 19  1  0
 19 20  2  0
 20 21  1  0
 21 22  2  0
 22 23  1  0
 23 24  2  0
 23 25  1  0
M  CHG  2  23   1  25  -1
M  END
>  <minimizedAffinity>  (472) 
-8.60475

$$$$
data/200k_reference_output/data/smiles/32240.pdb
     RDKit          3D

 24 26  0  0  0  0  0  0  0  0999 V2000
   69.9964   48.9947   53.7162 C   0  0  1  0  0  0  0  0  0  0  0  0
   71.3010   49.1620   53.2437 O   0  0  0  0  0  0  0  0  0  0  0  0
   69.2505   47.9232   53.0328 C   0  0  0  0  0  0  0  0  0  0  0  0
   68.9586   47.6310   51.7042 C   0  0  0  0  0  0  0  0  0  0  0  0
   68.1785   46.5465   51.3807 C   0  0  0  0  0  0  0  0  0  0  0  0
   67.6539   45.7082   52.3353 C   0  0  0  0  0  0  0  0  0  0  0  0
   67.9382   45.9880   53.6581 C   0  0  0  0  0  0  0  0  0  0  0  0
   68.7355   47.0947   53.9836 C   0  0  0  0  0  0  0  0  0  0  0  0
   69.1836   47.5300   55.2998 C   0  0  0  0  0  0  0  0  0  0  0  0
   68.9936   47.0210   56.5820 C   0  0  0  0  0  0  0  0  0  0  0  0
   69.5936   47.6085   57.6801 C   0  0  0  0  0  0  0  0  0  0  0  0
   70.3925   48.7117   57.5214 C   0  0  0  0  0  0  0  0  0  0  0  0
   70.5812   49.2165   56.2616 C   0  0  0  0  0  0  0  0  0  0  0  0
   69.9773   48.6314   55.1404 C   0  0  0  0  0  0  0  0  0  0  0  0
   71.0216   49.3320   58.6720 C   0  0  0  0  0  0  0  0  0  0  0  0
   71.3263   50.5616   58.6528 O   0  0  0  0  0  0  0  0  0  0  0  0
   71.3253   48.6269   59.8536 N   0  0  0  0  0  0  0  0  0  0  0  0
   72.4591   48.0632   60.1012 C   0  0  0  0  0  0  0  0  0  0  0  0
   72.5803   47.3957   61.3467 N   0  0  0  0  0  0  0  0  0  0  0  0
   73.5606   48.0798   59.2035 N   0  0  0  0  0  0  0  0  0  0  0  0
   69.1774   50.2501   53.5209 C   0  0  0  0  0  0  0  0  0  0  0  0
   69.8360   51.5201   53.9213 C   0  0  0  0  0  0  0  0  0  0  0  0
   69.3832   52.7680   56.0652 C   0  0  0  0  0  0  0  0  0  0  0  0
   68.8800   52.4312   54.6991 C   0  0  0  0  0  0  0  0  0  0  0  0
 23 24  1  0
 24 22  1  0
 22 21  1  0
 21  1  1  0
  1  2  1  6
  1  3  1  0
  1 14  1  0
  3  4  2  0
  3  8  1  0
  4  5  1  0
  5  6  2  0
  6  7  1  0
  7  8  2  0
  8  9  1  0
  9 10  2  0
  9 14  1  0
 10 11  1  0
 11 12  2  0
 12 15  1  0
 12 13  1  0
 15 16  2  0
 15 17  1  0
 17 18  2  0
 18 19  1  0
 18 20  1  0
 13 14  2  0
M  CHG  1  17   1
M  END
>  <minimizedAffinity>  (473) 
-8.60448

$$$$
data/200k_reference_output/data/smiles/26553.pdb
     RDKit          3D

 25 28  0  0  0  0  0  0  0  0999 V2000
   74.0840   35.6121   53.6644 C   0  0  0  0  0  0  0  0  0  0  0  0
   72.3128   34.7951   52.2639 O   0  0  0  0  0  0  0  0  0  0  0  0
   73.5342   34.9138   52.5134 C   0  0  0  0  0  0  0  0  0  0  0  0
   74.4123   34.2861   51.5461 N   0  0  0  0  0  0  0  0  0  0  0  0
   73.8426   33.6121   50.4214 C   0  0  0  0  0  0  0  0  0  0  0  0
   74.8514   33.2181   49.3910 C   0  0  0  0  0  0  0  0  0  0  0  0
   76.0028   34.1480   49.3181 C   0  0  0  0  0  0  0  0  0  0  0  0
   76.5821   34.4435   48.0787 C   0  0  0  0  0  0  0  0  0  0  0  0
   77.6580   35.3059   47.9809 C   0  0  0  0  0  0  0  0  0  0  0  0
   78.1391   35.8645   49.1492 C   0  0  0  0  0  0  0  0  0  0  0  0
   77.5715   35.5790   50.3840 C   0  0  0  0  0  0  0  0  0  0  0  0
   76.4987   34.7162   50.4680 C   0  0  0  0  0  0  0  0  0  0  0  0
   75.8476   34.3743   51.7747 C   0  0  0  0  0  0  0  0  0  0  0  0
   74.5129   34.8005   54.8436 C   0  0  0  0  0  0  0  0  0  0  0  0
   73.6403   34.8846   56.0175 C   0  0  0  0  0  0  0  0  0  0  0  0
   73.1411   36.0824   56.3740 N   0  0  0  0  0  0  0  0  0  0  0  0
   72.3671   36.2789   57.4524 C   0  0  0  0  0  0  0  0  0  0  0  0
   71.8807   37.5312   57.7715 C   0  0  0  0  0  0  0  0  0  0  0  0
   71.0900   37.7006   58.8822 C   0  0  0  0  0  0  0  0  0  0  0  0
   70.7793   36.6178   59.6841 C   0  0  0  0  0  0  0  0  0  0  0  0
   71.2724   35.3765   59.3498 C   0  0  0  0  0  0  0  0  0  0  0  0
   72.0731   35.1755   58.2348 C   0  0  0  0  0  0  0  0  0  0  0  0
   72.5718   33.9385   57.8926 C   0  0  0  0  0  0  0  0  0  0  0  0
   72.3064   32.9433   58.5984 O   0  0  0  0  0  0  0  0  0  0  0  0
   73.3574   33.8245   56.7724 N   0  0  0  0  0  0  0  0  0  0  0  0
  2  3  2  0
  3  1  1  0
  3  4  1  0
  1 14  1  0
 14 15  1  0
 15 16  2  0
 15 25  1  0
 16 17  1  0
 17 18  2  0
 17 22  1  0
 18 19  1  0
 19 20  2  0
 20 21  1  0
 21 22  2  0
 22 23  1  0
 23 24  2  0
 23 25  1  0
  4  5  1  0
  4 13  1  0
  5  6  1  0
  6  7  1  0
  7  8  2  0
  7 12  1  0
  8  9  1  0
  9 10  2  0
 10 11  1  0
 11 12  2  0
 12 13  1  0
M  END
>  <minimizedAffinity>  (474) 
-8.60370

$$$$
data/200k_reference_output/data/smiles/31753.pdb
     RDKit          3D

 25 28  0  0  0  0  0  0  0  0999 V2000
   68.4809   46.9844   55.5432 C   0  0  0  0  0  0  0  0  0  0  0  0
   67.2471   47.3180   56.1170 O   0  0  0  0  0  0  0  0  0  0  0  0
   68.3948   46.8183   54.0930 C   0  0  0  0  0  0  0  0  0  0  0  0
   67.7254   45.9362   53.2828 C   0  0  0  0  0  0  0  0  0  0  0  0
   67.8104   45.9890   51.9017 C   0  0  0  0  0  0  0  0  0  0  0  0
   68.5964   46.9638   51.3209 C   0  0  0  0  0  0  0  0  0  0  0  0
   69.2641   47.8450   52.1442 C   0  0  0  0  0  0  0  0  0  0  0  0
   69.1822   47.7965   53.5352 C   0  0  0  0  0  0  0  0  0  0  0  0
   69.7907   48.6097   54.5783 C   0  0  0  0  0  0  0  0  0  0  0  0
   70.6583   49.7093   54.5281 C   0  0  0  0  0  0  0  0  0  0  0  0
   71.0868   50.3003   55.6968 C   0  0  0  0  0  0  0  0  0  0  0  0
   70.6547   49.7986   56.9052 C   0  0  0  0  0  0  0  0  0  0  0  0
   69.8064   48.7234   56.9348 C   0  0  0  0  0  0  0  0  0  0  0  0
   69.3742   48.1282   55.7825 C   0  0  0  0  0  0  0  0  0  0  0  0
   68.3372   44.5132   56.1827 N   0  0  0  0  0  0  0  0  0  0  0  0
   68.9865   45.7747   56.2331 C   0  0  0  0  0  0  0  0  0  0  0  0
   70.0405   45.8514   56.9002 O   0  0  0  0  0  0  0  0  0  0  0  0
   68.2564   42.2308   56.7961 C   0  0  0  0  0  0  0  0  0  0  0  0
   68.8049   43.3714   56.8276 N   0  0  0  0  0  0  0  0  0  0  0  0
   71.3741   39.1509   59.1342 C   0  0  0  0  0  0  0  0  0  0  0  0
   70.1291   39.6993   58.4998 C   0  0  0  0  0  0  0  0  0  0  0  0
   68.9373   39.0082   58.4255 C   0  0  0  0  0  0  0  0  0  0  0  0
   68.0793   39.8751   57.7739 C   0  0  0  0  0  0  0  0  0  0  0  0
   68.7576   41.0383   57.4776 C   0  0  0  0  0  0  0  0  0  0  0  0
   69.9742   40.8699   57.9370 O   0  0  0  0  0  0  0  0  0  0  0  0
 20 21  1  0
 21 22  2  0
 21 25  1  0
 22 23  1  0
 23 24  2  0
 24 18  1  0
 24 25  1  0
 18 19  2  0
 19 15  1  0
 15 16  1  0
 16 17  2  0
 16  1  1  0
  1  2  1  0
  1  3  1  0
  1 14  1  0
  3  4  2  0
  3  8  1  0
  4  5  1  0
  5  6  2  0
  6  7  1  0
  7  8  2  0
  8  9  1  0
  9 10  2  0
  9 14  1  0
 10 11  1  0
 11 12  2  0
 12 13  1  0
 13 14  2  0
M  END
>  <minimizedAffinity>  (475) 
-8.60366

$$$$
data/200k_reference_output/data/smiles/32932.pdb
     RDKit          3D

 26 28  0  0  0  0  0  0  0  0999 V2000
   71.0810   38.9361   59.8319 C   0  0  0  0  0  0  0  0  0  0  0  0
   70.2424   39.6432   58.8401 C   0  0  0  0  0  0  0  0  0  0  0  0
   69.0261   39.0722   58.4548 C   0  0  0  0  0  0  0  0  0  0  0  0
   68.1531   39.7845   57.6486 C   0  0  0  0  0  0  0  0  0  0  0  0
   68.4471   41.0382   57.2151 C   0  0  0  0  0  0  0  0  0  0  0  0
   67.5994   41.8277   56.3067 C   0  0  0  0  0  0  0  0  0  0  0  0
   69.6437   41.6190   57.5987 C   0  0  0  0  0  0  0  0  0  0  0  0
   70.5582   40.9273   58.4065 C   0  0  0  0  0  0  0  0  0  0  0  0
   71.6987   41.8016   58.5708 N   0  0  0  0  0  0  0  0  0  0  0  0
   71.5295   43.0311   57.9148 C   0  0  0  0  0  0  0  0  0  0  0  0
   72.2104   44.0957   57.7789 O   0  0  0  0  0  0  0  0  0  0  0  0
   70.1676   42.9231   57.2838 C   0  0  0  0  0  0  0  0  0  0  0  0
   69.6259   44.0099   57.2069 N   0  0  0  0  0  0  0  0  0  0  0  0
   69.1869   45.1921   57.0910 N   0  0  0  0  0  0  0  0  0  0  0  0
   69.7083   46.4411   57.3514 C   0  0  0  0  0  0  0  0  0  0  0  0
   70.7908   46.6272   57.8401 O   0  0  0  0  0  0  0  0  0  0  0  0
   68.7602   47.6172   56.8956 C   0  0  0  0  0  0  0  0  0  0  0  0
   69.0232   47.6093   55.3911 C   0  0  0  0  0  0  0  0  0  0  0  0
   69.7975   48.5416   54.8422 C   0  0  0  0  0  0  0  0  0  0  0  0
   69.8513   48.5619   53.4496 C   0  0  0  0  0  0  0  0  0  0  0  0
   69.1624   47.6922   52.7124 C   0  0  0  0  0  0  0  0  0  0  0  0
   69.2408   47.7673   51.2821 O   0  0  0  0  0  0  0  0  0  0  0  0
   68.3712   46.7142   53.2488 C   0  0  0  0  0  0  0  0  0  0  0  0
   68.3114   46.7033   54.6789 C   0  0  0  0  0  0  0  0  0  0  0  0
   67.6581   45.8311   52.5455 C   0  0  0  0  0  0  0  0  0  0  0  0
   66.9583   44.9343   51.8278 N   0  0  0  0  0  0  0  0  0  0  0  0
  1  2  1  0
  2  3  2  0
  2  8  1  0
  3  4  1  0
  4  5  2  0
  5  6  1  0
  5  7  1  0
  7  8  2  0
  7 12  1  0
  8  9  1  0
  9 10  1  0
 10 11  2  0
 10 12  1  0
 12 13  2  0
 13 14  1  0
 14 15  1  0
 15 16  2  0
 15 17  1  0
 17 18  1  0
 18 19  2  0
 18 24  1  0
 19 20  1  0
 20 21  2  0
 21 22  1  0
 21 23  1  0
 23 25  1  0
 23 24  2  0
 25 26  3  0
M  END
>  <minimizedAffinity>  (476) 
-8.60253

$$$$
data/200k_reference_output/data/smiles/43845.pdb
     RDKit          3D

 22 24  0  0  0  0  0  0  0  0999 V2000
   68.2929   44.5661   55.8695 N   0  0  0  0  0  0  0  0  0  0  0  0
   67.9455   45.0099   54.7338 C   0  0  0  0  0  0  0  0  0  0  0  0
   68.4573   46.2221   54.1138 C   0  0  0  0  0  0  0  0  0  0  0  0
   68.4856   47.4119   54.8055 C   0  0  0  0  0  0  0  0  0  0  0  0
   68.9605   48.5867   54.2593 C   0  0  0  0  0  0  0  0  0  0  0  0
   69.4371   48.6043   52.9667 C   0  0  0  0  0  0  0  0  0  0  0  0
   69.4180   47.4212   52.2530 C   0  0  0  0  0  0  0  0  0  0  0  0
   68.9371   46.2483   52.8143 C   0  0  0  0  0  0  0  0  0  0  0  0
   69.9324   47.7325   51.0436 N   0  0  0  0  0  0  0  0  0  0  0  0
   70.2360   48.9955   51.0281 O   0  0  0  0  0  0  0  0  0  0  0  0
   69.9521   49.5563   52.1665 N   0  0  0  0  0  0  0  0  0  0  0  0
   70.1430   50.8940   52.5084 O   0  0  0  0  0  0  0  0  0  0  0  0
   69.8495   42.8104   57.2197 O   0  0  0  0  0  0  0  0  0  0  0  0
   68.6120   42.4825   57.1744 C   0  0  0  0  0  0  0  0  0  0  0  0
   67.8033   43.4034   56.4663 N   0  0  0  0  0  0  0  0  0  0  0  0
   68.1344   41.2672   57.8060 C   0  0  0  0  0  0  0  0  0  0  0  0
   67.1924   41.3566   58.8046 C   0  0  0  0  0  0  0  0  0  0  0  0
   66.6980   40.2131   59.4468 C   0  0  0  0  0  0  0  0  0  0  0  0
   67.1695   38.9843   59.0648 C   0  0  0  0  0  0  0  0  0  0  0  0
   66.6790   37.8713   59.7000 F   0  0  0  0  0  0  0  0  0  0  0  0
   68.1018   38.8760   58.0789 C   0  0  0  0  0  0  0  0  0  0  0  0
   68.5885   40.0322   57.4437 C   0  0  0  0  0  0  0  0  0  0  0  0
 13 14  2  0
 14 15  1  0
 14 16  1  0
 15  1  1  0
  1  2  2  0
  2  3  1  0
  3  4  1  0
  3  8  2  0
  4  5  2  0
  5  6  1  0
  6  7  1  0
  6 11  2  0
  7  8  1  0
  7  9  2  0
  9 10  1  0
 10 11  1  0
 11 12  1  0
 16 17  2  0
 16 22  1  0
 17 18  1  0
 18 19  2  0
 19 20  1  0
 19 21  1  0
 21 22  2  0
M  CHG  2  11   1  12  -1
M  END
>  <minimizedAffinity>  (477) 
-8.60158

$$$$
data/reference_output_2/data/smiles/123715.pdb
     RDKit          3D

 24 26  0  0  0  0  0  0  0  0999 V2000
   70.5575   47.3733   58.1664 C   0  0  0  0  0  0  0  0  0  0  0  0
   69.8011   48.3122   57.2879 C   0  0  2  0  0  0  0  0  0  0  0  0
   70.7709   49.3056   56.6668 C   0  0  0  0  0  0  0  0  0  0  0  0
   70.0655   50.4486   56.0381 C   0  0  0  0  0  0  0  0  0  0  0  0
   70.6861   51.1632   55.0428 C   0  0  0  0  0  0  0  0  0  0  0  0
   70.0483   52.2357   54.4408 C   0  0  0  0  0  0  0  0  0  0  0  0
   68.7950   52.6156   54.8099 C   0  0  0  0  0  0  0  0  0  0  0  0
   68.1755   51.8884   55.8143 C   0  0  0  0  0  0  0  0  0  0  0  0
   68.7946   50.8198   56.4246 C   0  0  0  0  0  0  0  0  0  0  0  0
   68.1150   50.0772   57.4787 C   0  0  0  0  0  0  0  0  0  0  0  0
   66.9568   50.3944   57.8500 O   0  0  0  0  0  0  0  0  0  0  0  0
   68.8269   49.0097   58.0353 O   0  0  0  0  0  0  0  0  0  0  0  0
   69.0578   47.5790   56.1887 C   0  0  0  0  0  0  0  0  0  0  0  0
   68.0963   46.8406   56.4643 O   0  0  0  0  0  0  0  0  0  0  0  0
   69.4544   47.7301   54.8332 N   0  0  0  0  0  0  0  0  0  0  0  0
   68.8615   47.1188   53.7059 C   0  0  0  0  0  0  0  0  0  0  0  0
   67.9698   46.0718   53.7953 C   0  0  0  0  0  0  0  0  0  0  0  0
   67.3815   45.4494   52.6919 C   0  0  0  0  0  0  0  0  0  0  0  0
   67.6907   45.8856   51.4327 C   0  0  0  0  0  0  0  0  0  0  0  0
   68.5693   46.9179   51.3115 C   0  0  0  0  0  0  0  0  0  0  0  0
   69.1647   47.5466   52.4322 C   0  0  0  0  0  0  0  0  0  0  0  0
   70.0956   48.6275   52.1591 C   0  0  0  0  0  0  0  0  0  0  0  0
   71.1868   48.8360   52.7025 O   0  0  0  0  0  0  0  0  0  0  0  0
   69.7595   49.5792   51.1635 O   0  0  0  0  0  0  0  0  0  0  0  0
  2  1  1  1
  2 13  1  0
  2  3  1  0
  2 12  1  0
 13 14  2  0
 13 15  1  0
 15 16  1  0
 16 17  2  0
 16 21  1  0
 17 18  1  0
 18 19  2  0
 19 20  1  0
 20 21  2  0
 21 22  1  0
 22 23  2  0
 22 24  1  0
  3  4  1  0
  4  5  2  0
  4  9  1  0
  5  6  1  0
  6  7  2  0
  7  8  1  0
  8  9  2  0
  9 10  1  0
 10 11  2  0
 10 12  1  0
M  END
>  <minimizedAffinity>  (478) 
-8.60069

$$$$
data/200k_reference_output/data/smiles/46230.pdb
     RDKit          3D

 26 28  0  0  0  0  0  0  0  0999 V2000
   69.9317   42.9252   57.1335 O   0  0  0  0  0  0  0  0  0  0  0  0
   68.6998   42.6868   57.0828 C   0  0  0  0  0  0  0  0  0  0  0  0
   67.8904   43.6275   56.4020 N   0  0  0  0  0  0  0  0  0  0  0  0
   68.2135   41.4734   57.7245 C   0  0  0  0  0  0  0  0  0  0  0  0
   67.2698   41.5515   58.7269 C   0  0  0  0  0  0  0  0  0  0  0  0
   66.7713   40.4389   59.3723 C   0  0  0  0  0  0  0  0  0  0  0  0
   67.2130   39.1789   59.0255 C   0  0  0  0  0  0  0  0  0  0  0  0
   68.1573   39.0855   58.0253 C   0  0  0  0  0  0  0  0  0  0  0  0
   68.6550   40.2148   57.3789 C   0  0  0  0  0  0  0  0  0  0  0  0
   66.7114   37.9513   59.6874 C   0  0  0  0  0  0  0  0  0  0  0  0
   65.4308   37.5088   59.4810 C   0  0  0  0  0  0  0  0  0  0  0  0
   64.9842   36.3748   60.1018 C   0  0  0  0  0  0  0  0  0  0  0  0
   65.7889   35.6383   60.9473 C   0  0  0  0  0  0  0  0  0  0  0  0
   67.0708   36.1021   61.1395 C   0  0  0  0  0  0  0  0  0  0  0  0
   67.5359   37.2366   60.5276 C   0  0  0  0  0  0  0  0  0  0  0  0
   68.4245   44.7856   55.7999 N   0  0  0  0  0  0  0  0  0  0  0  0
   68.0446   45.2078   54.5032 C   0  0  0  0  0  0  0  0  0  0  0  0
   67.1981   44.4810   53.9188 O   0  0  0  0  0  0  0  0  0  0  0  0
   68.5572   46.3928   53.8243 C   0  0  0  0  0  0  0  0  0  0  0  0
   68.8496   46.4121   52.4795 C   0  0  0  0  0  0  0  0  0  0  0  0
   69.3324   47.5705   51.9061 C   0  0  0  0  0  0  0  0  0  0  0  0
   69.5233   48.6970   52.6604 C   0  0  0  0  0  0  0  0  0  0  0  0
   70.0104   49.8648   52.0782 O   0  0  0  0  0  0  0  0  0  0  0  0
   69.2296   48.6760   54.0045 C   0  0  0  0  0  0  0  0  0  0  0  0
   68.7529   47.5380   54.5797 C   0  0  0  0  0  0  0  0  0  0  0  0
   68.4573   47.5245   55.9500 O   0  0  0  0  0  0  0  0  0  0  0  0
  1  2  2  0
  2  3  1  0
  2  4  1  0
  3 16  1  0
 16 17  1  0
 17 18  2  0
 17 19  1  0
 19 20  2  0
 19 25  1  0
 20 21  1  0
 21 22  2  0
 22 23  1  0
 22 24  1  0
 24 25  2  0
 25 26  1  0
  4  5  2  0
  4  9  1  0
  5  6  1  0
  6  7  2  0
  7 10  1  0
  7  8  1  0
 10 11  2  0
 10 15  1  0
 11 12  1  0
 12 13  2  0
 13 14  1  0
 14 15  2  0
  8  9  2  0
M  END
>  <minimizedAffinity>  (479) 
-8.60033

$$$$
data/200k_reference_output/data/smiles/73226.pdb
     RDKit          3D

 24 26  0  0  0  0  0  0  0  0999 V2000
   70.5528   44.8254   58.0772 C   0  0  0  0  0  0  0  0  0  0  0  0
   71.8379   45.1058   58.4722 C   0  0  0  0  0  0  0  0  0  0  0  0
   72.3424   46.3992   58.5440 C   0  0  0  0  0  0  0  0  0  0  0  0
   71.4612   47.4169   58.1878 C   0  0  0  0  0  0  0  0  0  0  0  0
   70.2059   47.1470   57.8012 N   0  0  0  0  0  0  0  0  0  0  0  0
   69.7848   45.8950   57.7539 N   0  0  0  0  0  0  0  0  0  0  0  0
   68.2360   39.5512   57.6458 C   0  0  0  0  0  0  0  0  0  0  0  0
   68.8491   40.9119   57.7759 C   0  0  0  0  0  0  0  0  0  0  0  0
   68.4952   41.9178   56.9024 C   0  0  0  0  0  0  0  0  0  0  0  0
   69.0527   43.1731   57.0106 C   0  0  0  0  0  0  0  0  0  0  0  0
   69.9819   43.4877   57.9868 C   0  0  0  0  0  0  0  0  0  0  0  0
   70.3330   42.4851   58.8559 C   0  0  0  0  0  0  0  0  0  0  0  0
   69.7698   41.2070   58.7507 C   0  0  0  0  0  0  0  0  0  0  0  0
   69.3248   48.2605   57.4421 C   0  0  0  0  0  0  0  0  0  0  0  0
   68.3601   47.7822   56.4276 C   0  0  0  0  0  0  0  0  0  0  0  0
   67.1660   47.5494   56.8320 O   0  0  0  0  0  0  0  0  0  0  0  0
   68.6608   47.5587   55.0210 C   0  0  0  0  0  0  0  0  0  0  0  0
   68.1783   46.5059   54.2914 C   0  0  0  0  0  0  0  0  0  0  0  0
   68.5028   46.3456   52.9728 C   0  0  0  0  0  0  0  0  0  0  0  0
   69.3316   47.2225   52.2880 C   0  0  0  0  0  0  0  0  0  0  0  0
   69.6488   47.0421   50.9525 O   0  0  0  0  0  0  0  0  0  0  0  0
   69.8162   48.2838   53.0318 C   0  0  0  0  0  0  0  0  0  0  0  0
   70.6508   49.1870   52.3804 O   0  0  0  0  0  0  0  0  0  0  0  0
   69.4982   48.4586   54.3587 C   0  0  0  0  0  0  0  0  0  0  0  0
  7  8  1  0
  8  9  2  0
  8 13  1  0
  9 10  1  0
 10 11  2  0
 11  1  1  0
 11 12  1  0
  1  2  2  0
  1  6  1  0
  2  3  1  0
  3  4  2  0
  4  5  1  0
  5 14  1  0
  5  6  2  0
 14 15  1  0
 15 16  2  0
 15 17  1  0
 17 18  2  0
 17 24  1  0
 18 19  1  0
 19 20  2  0
 20 21  1  0
 20 22  1  0
 22 23  1  0
 22 24  2  0
 12 13  2  0
M  CHG  1   5   1
M  END
>  <minimizedAffinity>  (480) 
-8.60006

$$$$
data/200k_reference_output/data/smiles/73495.pdb
     RDKit          3D

 24 26  0  0  0  0  0  0  0  0999 V2000
   72.1875   50.9666   54.7827 S   0  0  0  0  0  0  0  0  0  0  0  0
   73.2071   50.2538   55.6168 O   0  0  0  0  0  0  0  0  0  0  0  0
   72.6625   52.3664   54.4607 O   0  0  0  0  0  0  0  0  0  0  0  0
   70.6258   51.0070   55.5856 C   0  0  0  0  0  0  0  0  0  0  0  0
   69.9362   52.1890   55.7555 C   0  0  0  0  0  0  0  0  0  0  0  0
   68.7091   52.2136   56.3883 C   0  0  0  0  0  0  0  0  0  0  0  0
   68.1175   51.0664   56.8779 C   0  0  0  0  0  0  0  0  0  0  0  0
   66.8881   51.0792   57.5144 C   0  0  0  0  0  0  0  0  0  0  0  0
   66.2941   49.9344   58.0054 C   0  0  0  0  0  0  0  0  0  0  0  0
   66.9819   48.7504   57.8373 C   0  0  0  0  0  0  0  0  0  0  0  0
   68.2082   48.7351   57.2030 C   0  0  0  0  0  0  0  0  0  0  0  0
   68.8021   49.8807   56.7127 C   0  0  0  0  0  0  0  0  0  0  0  0
   70.0328   49.8621   56.0769 C   0  0  0  0  0  0  0  0  0  0  0  0
   72.0764   50.1188   53.2753 N   0  0  0  0  0  0  0  0  0  0  0  0
   69.8852   49.6980   51.6249 O   0  0  0  0  0  0  0  0  0  0  0  0
   70.1346   48.8194   52.5211 C   0  0  0  0  0  0  0  0  0  0  0  0
   71.2422   48.9865   53.3908 N   0  0  0  0  0  0  0  0  0  0  0  0
   69.2333   47.6711   52.5885 C   0  0  0  0  0  0  0  0  0  0  0  0
   68.6494   47.1281   51.4636 C   0  0  0  0  0  0  0  0  0  0  0  0
   67.8075   46.0446   51.5901 C   0  0  0  0  0  0  0  0  0  0  0  0
   67.5095   45.4628   52.7971 C   0  0  0  0  0  0  0  0  0  0  0  0
   68.1013   46.0169   53.9117 C   0  0  0  0  0  0  0  0  0  0  0  0
   67.8380   45.4745   55.1356 F   0  0  0  0  0  0  0  0  0  0  0  0
   68.9395   47.0921   53.8019 C   0  0  0  0  0  0  0  0  0  0  0  0
 15 16  2  0
 16 17  1  0
 16 18  1  0
 17 14  1  0
 14  1  1  0
  1  2  2  0
  1  3  2  0
  1  4  1  0
  4  5  2  0
  4 13  1  0
  5  6  1  0
  6  7  2  0
  7  8  1  0
  7 12  1  0
  8  9  2  0
  9 10  1  0
 10 11  2  0
 11 12  1  0
 12 13  2  0
 18 19  2  0
 18 24  1  0
 19 20  1  0
 20 21  2  0
 21 22  1  0
 22 23  1  0
 22 24  2  0
M  END
>  <minimizedAffinity>  (481) 
-8.59977

$$$$
data/reference_output_2/data/smiles/162790.pdb
     RDKit          3D

 22 23  0  0  0  0  0  0  0  0999 V2000
   68.8333   46.0818   56.2285 C   0  0  0  0  0  0  0  0  0  0  0  0
   69.5788   46.2154   57.2243 O   0  0  0  0  0  0  0  0  0  0  0  0
   68.4214   44.7479   55.8896 N   0  0  0  0  0  0  0  0  0  0  0  0
   68.8295   43.6320   56.6314 N   0  0  0  0  0  0  0  0  0  0  0  0
   68.2154   42.5035   56.5808 C   0  0  0  0  0  0  0  0  0  0  0  0
   67.0303   42.3867   55.6998 C   0  0  0  0  0  0  0  0  0  0  0  0
   68.6222   41.3320   57.3419 C   0  0  0  0  0  0  0  0  0  0  0  0
   69.7815   41.2948   58.0869 C   0  0  0  0  0  0  0  0  0  0  0  0
   70.1946   40.2178   58.8105 C   0  0  0  0  0  0  0  0  0  0  0  0
   69.4285   39.0757   58.8216 C   0  0  0  0  0  0  0  0  0  0  0  0
   69.9152   37.6741   59.7312 Cl  0  0  0  0  0  0  0  0  0  0  0  0
   68.2572   39.0686   58.0870 C   0  0  0  0  0  0  0  0  0  0  0  0
   67.8532   40.1710   57.3580 C   0  0  0  0  0  0  0  0  0  0  0  0
   68.4049   47.2635   55.4484 C   0  0  0  0  0  0  0  0  0  0  0  0
   69.4617   47.5089   54.4141 C   0  0  0  0  0  0  0  0  0  0  0  0
   67.8365   45.7274   52.4584 C   0  0  0  0  0  0  0  0  0  0  0  0
   68.7489   46.8630   52.2080 C   0  0  0  0  0  0  0  0  0  0  0  0
   69.5009   46.9594   51.1684 N   0  0  0  0  0  0  0  0  0  0  0  0
   70.2491   48.1414   51.2126 N   0  0  0  0  0  0  0  0  0  0  0  0
   69.9253   48.8379   52.3930 C   0  0  0  0  0  0  0  0  0  0  0  0
   70.4141   49.9338   52.7445 O   0  0  0  0  0  0  0  0  0  0  0  0
   68.9192   48.0313   53.1112 C   0  0  2  0  0  0  0  0  0  0  0  0
 16 17  1  0
 17 18  2  0
 17 22  1  0
 18 19  1  0
 19 20  1  0
 20 21  2  0
 20 22  1  0
 22 15  1  1
 15 14  1  0
 14  1  1  0
  1  2  2  0
  1  3  1  0
  3  4  1  0
  4  5  2  0
  5  6  1  0
  5  7  1  0
  7  8  2  0
  7 13  1  0
  8  9  1  0
  9 10  2  0
 10 11  1  0
 10 12  1  0
 12 13  2  0
M  END
>  <minimizedAffinity>  (482) 
-8.59971

$$$$
data/reference_output_2/data/smiles/125183.pdb
     RDKit          3D

 23 24  0  0  0  0  0  0  0  0999 V2000
   69.3915   47.9922   56.0744 C   0  0  0  0  0  0  0  0  0  0  0  0
   68.9899   47.4585   54.7596 C   0  0  0  0  0  0  0  0  0  0  0  0
   68.1458   46.3632   54.6397 C   0  0  0  0  0  0  0  0  0  0  0  0
   67.7686   45.8372   53.4235 C   0  0  0  0  0  0  0  0  0  0  0  0
   68.2369   46.4029   52.2445 C   0  0  0  0  0  0  0  0  0  0  0  0
   69.0772   47.4906   52.3344 C   0  0  0  0  0  0  0  0  0  0  0  0
   69.4388   47.9981   53.5743 C   0  0  0  0  0  0  0  0  0  0  0  0
   68.5059   49.0591   56.5967 C   0  0  0  0  0  0  0  0  0  0  0  0
   67.4356   48.7550   57.4504 C   0  0  0  0  0  0  0  0  0  0  0  0
   66.5865   49.7042   57.9658 C   0  0  0  0  0  0  0  0  0  0  0  0
   66.8143   51.0166   57.6126 C   0  0  0  0  0  0  0  0  0  0  0  0
   67.8622   51.3362   56.7737 C   0  0  0  0  0  0  0  0  0  0  0  0
   68.7141   50.3762   56.2576 C   0  0  0  0  0  0  0  0  0  0  0  0
   69.4524   45.6393   57.1218 N   0  0  0  0  0  0  0  0  0  0  0  0
   69.7660   47.0220   57.0848 C   0  0  0  0  0  0  0  0  0  0  0  0
   70.4712   47.4137   58.0906 O   0  0  0  0  0  0  0  0  0  0  0  0
   69.8901   44.8163   58.1802 N   0  0  0  0  0  0  0  0  0  0  0  0
   70.2106   43.4522   57.9923 C   0  0  0  0  0  0  0  0  0  0  0  0
   71.3273   42.7373   58.9207 S   0  0  0  0  0  0  0  0  0  0  0  0
   67.5511   41.3676   56.1842 C   0  0  0  0  0  0  0  0  0  0  0  0
   68.2541   42.1514   57.2453 C   0  0  0  0  0  0  0  0  0  0  0  0
   67.7502   42.3386   58.3609 O   0  0  0  0  0  0  0  0  0  0  0  0
   69.5510   42.7140   56.9887 N   0  0  0  0  0  0  0  0  0  0  0  0
 20 21  1  0
 21 22  2  0
 21 23  1  0
 23 18  1  0
 18 19  2  0
 18 17  1  0
 17 14  1  0
 14 15  1  0
 15 16  2  0
 15  1  1  0
  1  2  1  0
  1  8  1  0
  2  3  2  0
  2  7  1  0
  3  4  1  0
  4  5  2  0
  5  6  1  0
  6  7  2  0
  8  9  2  0
  8 13  1  0
  9 10  1  0
 10 11  2  0
 11 12  1  0
 12 13  2  0
M  END
>  <minimizedAffinity>  (483) 
-8.59921

$$$$
data/200k_reference_output/data/smiles/44497.pdb
     RDKit          3D

 22 24  0  0  0  0  0  0  0  0999 V2000
   70.0928   49.3605   53.0398 S   0  0  0  0  0  0  0  0  0  0  0  0
   69.3183   49.7694   51.7955 O   0  0  0  0  0  0  0  0  0  0  0  0
   71.4774   48.9738   52.6522 O   0  0  0  0  0  0  0  0  0  0  0  0
   70.1077   50.7816   54.0465 C   0  0  0  0  0  0  0  0  0  0  0  0
   68.9141   51.3844   54.3595 C   0  0  0  0  0  0  0  0  0  0  0  0
   68.8846   52.5387   55.1564 C   0  0  0  0  0  0  0  0  0  0  0  0
   70.0547   53.0726   55.6282 C   0  0  0  0  0  0  0  0  0  0  0  0
   71.2623   52.4781   55.3212 C   0  0  0  0  0  0  0  0  0  0  0  0
   71.2686   51.3334   54.5289 C   0  0  0  0  0  0  0  0  0  0  0  0
   72.5426   50.7527   54.2559 N   0  0  0  0  0  0  0  0  0  0  0  0
   73.7839   51.3421   54.6997 C   0  0  0  0  0  0  0  0  0  0  0  0
   73.5913   52.8477   54.7769 C   0  0  0  0  0  0  0  0  0  0  0  0
   72.5166   53.0728   55.8434 C   0  0  0  0  0  0  0  0  0  0  0  0
   68.7758   47.0117   53.0259 C   0  0  0  0  0  0  0  0  0  0  0  0
   68.1247   45.9277   53.6206 C   0  0  0  0  0  0  0  0  0  0  0  0
   67.9924   45.8502   54.9714 C   0  0  0  0  0  0  0  0  0  0  0  0
   68.5149   46.8636   55.7304 C   0  0  0  0  0  0  0  0  0  0  0  0
   69.1592   47.9385   55.1614 C   0  0  0  0  0  0  0  0  0  0  0  0
   69.2932   48.0186   53.7962 C   0  0  0  0  0  0  0  0  0  0  0  0
   67.8712   46.7982   50.9212 O   0  0  0  0  0  0  0  0  0  0  0  0
   68.8645   46.9536   51.6205 N   0  0  0  0  0  0  0  0  0  0  0  0
   70.0794   47.0660   50.9871 O   0  0  0  0  0  0  0  0  0  0  0  0
 20 21  2  0
 21 22  1  0
 21 14  1  0
 14 15  2  0
 14 19  1  0
 15 16  1  0
 16 17  2  0
 17 18  1  0
 18 19  2  0
 19  1  1  0
  1  2  2  0
  1  3  2  0
  1  4  1  0
  4  5  2  0
  4  9  1  0
  5  6  1  0
  6  7  2  0
  7  8  1  0
  8  9  2  0
  8 13  1  0
  9 10  1  0
 10 11  1  0
 11 12  1  0
 12 13  1  0
M  CHG  2  21   1  22  -1
M  END
>  <minimizedAffinity>  (484) 
-8.59869

$$$$
data/reference_output_2/data/smiles/198827.pdb
     RDKit          3D

 23 26  0  0  0  0  0  0  0  0999 V2000
   71.4533   48.8745   58.9034 C   0  0  0  0  0  0  0  0  0  0  0  0
   70.8135   47.5893   58.5386 C   0  0  0  0  0  0  0  0  0  0  0  0
   70.8162   46.5239   59.3508 N   0  0  0  0  0  0  0  0  0  0  0  0
   70.1932   45.5015   58.8156 N   0  0  0  0  0  0  0  0  0  0  0  0
   69.7537   45.8984   57.5945 C   0  0  0  0  0  0  0  0  0  0  0  0
   70.1362   47.2044   57.4111 C   0  0  0  0  0  0  0  0  0  0  0  0
   69.8330   47.9908   56.1901 C   0  0  1  0  0  0  0  0  0  0  0  0
   69.0770   47.1890   55.1951 C   0  0  0  0  0  0  0  0  0  0  0  0
   68.7135   45.8797   55.4213 C   0  0  0  0  0  0  0  0  0  0  0  0
   68.0157   45.1942   54.4719 N   0  0  0  0  0  0  0  0  0  0  0  0
   67.6717   45.7657   53.3124 C   0  0  0  0  0  0  0  0  0  0  0  0
   67.0300   45.1036   52.4644 O   0  0  0  0  0  0  0  0  0  0  0  0
   68.0114   47.0411   53.0621 N   0  0  0  0  0  0  0  0  0  0  0  0
   68.7041   47.7375   53.9929 C   0  0  0  0  0  0  0  0  0  0  0  0
   69.0021   48.9355   53.7139 O   0  0  0  0  0  0  0  0  0  0  0  0
   69.0415   45.2507   56.5872 O   0  0  0  0  0  0  0  0  0  0  0  0
   68.9988   49.1581   56.5818 C   0  0  0  0  0  0  0  0  0  0  0  0
   69.2423   50.4446   56.1787 C   0  0  0  0  0  0  0  0  0  0  0  0
   68.3984   51.4600   56.6073 C   0  0  0  0  0  0  0  0  0  0  0  0
   67.3151   51.2256   57.4285 C   0  0  0  0  0  0  0  0  0  0  0  0
   67.0699   49.9489   57.8305 C   0  0  0  0  0  0  0  0  0  0  0  0
   65.9981   49.6910   58.6479 F   0  0  0  0  0  0  0  0  0  0  0  0
   67.9033   48.9352   57.4093 C   0  0  0  0  0  0  0  0  0  0  0  0
  1  2  1  0
  2  3  2  0
  2  6  1  0
  3  4  1  0
  4  5  1  0
  5  6  2  0
  5 16  1  0
  6  7  1  0
  7 17  1  1
  7  8  1  0
 17 18  2  0
 17 23  1  0
 18 19  1  0
 19 20  2  0
 20 21  1  0
 21 22  1  0
 21 23  2  0
  8  9  2  0
  8 14  1  0
  9 10  1  0
  9 16  1  0
 10 11  1  0
 11 12  2  0
 11 13  1  0
 13 14  1  0
 14 15  2  0
M  END
>  <minimizedAffinity>  (485) 
-8.59709

$$$$
data/200k_reference_output/data/smiles/54830.pdb
     RDKit          3D

 23 25  0  0  0  0  0  0  0  0999 V2000
   69.2731   43.7706   56.9245 N   0  0  0  0  0  0  0  0  0  0  0  0
   68.8325   42.5543   57.0184 C   0  0  0  0  0  0  0  0  0  0  0  0
   67.5703   42.0677   56.4795 C   0  0  0  0  0  0  0  0  0  0  0  0
   66.7538   42.7772   55.8562 O   0  0  0  0  0  0  0  0  0  0  0  0
   67.5049   40.7002   56.8126 N   0  0  0  0  0  0  0  0  0  0  0  0
   68.6563   40.2823   57.5356 C   0  0  0  0  0  0  0  0  0  0  0  0
   69.0439   39.0652   58.0678 C   0  0  0  0  0  0  0  0  0  0  0  0
   70.2384   38.9170   58.7416 C   0  0  0  0  0  0  0  0  0  0  0  0
   71.0366   40.0357   58.8642 C   0  0  0  0  0  0  0  0  0  0  0  0
   72.2254   39.9362   59.5218 F   0  0  0  0  0  0  0  0  0  0  0  0
   70.6497   41.2495   58.3329 C   0  0  0  0  0  0  0  0  0  0  0  0
   69.4531   41.4022   57.6569 C   0  0  0  0  0  0  0  0  0  0  0  0
   70.0033   46.4268   56.9620 O   0  0  0  0  0  0  0  0  0  0  0  0
   68.9638   46.1170   56.3241 C   0  0  0  0  0  0  0  0  0  0  0  0
   68.5288   44.7651   56.2629 N   0  0  0  0  0  0  0  0  0  0  0  0
   68.2251   47.2202   55.6482 C   0  0  0  0  0  0  0  0  0  0  0  0
   68.8711   47.5953   54.3658 C   0  0  0  0  0  0  0  0  0  0  0  0
   69.6625   48.7158   54.2237 C   0  0  0  0  0  0  0  0  0  0  0  0
   70.2575   49.0541   53.0302 C   0  0  0  0  0  0  0  0  0  0  0  0
   70.0804   48.2697   51.9089 C   0  0  0  0  0  0  0  0  0  0  0  0
   70.6729   48.5913   50.6853 O   0  0  0  0  0  0  0  0  0  0  0  0
   69.2893   47.1473   52.0437 C   0  0  0  0  0  0  0  0  0  0  0  0
   68.6928   46.8069   53.2383 C   0  0  0  0  0  0  0  0  0  0  0  0
 13 14  2  0
 14 16  1  0
 14 15  1  0
 16 17  1  0
 17 18  2  0
 17 23  1  0
 18 19  1  0
 19 20  2  0
 20 21  1  0
 20 22  1  0
 22 23  2  0
 15  1  1  0
  1  2  2  0
  2  3  1  0
  2 12  1  0
  3  4  2  0
  3  5  1  0
  5  6  1  0
  6  7  1  0
  6 12  2  0
  7  8  2  0
  8  9  1  0
  9 10  1  0
  9 11  2  0
 11 12  1  0
M  END
>  <minimizedAffinity>  (486) 
-8.59706

$$$$
data/200k_reference_output/data/smiles/61153.pdb
     RDKit          3D

 23 25  0  0  0  0  0  0  0  0999 V2000
   70.3082   49.4999   52.6962 S   0  0  0  0  0  0  0  0  0  0  0  0
   71.7787   49.3728   53.1104 O   0  0  0  0  0  0  0  0  0  0  0  0
   70.2192   49.0859   51.2454 O   0  0  0  0  0  0  0  0  0  0  0  0
   68.9227   47.1927   53.2360 C   0  0  0  0  0  0  0  0  0  0  0  0
   68.2312   46.3277   54.0743 C   0  0  0  0  0  0  0  0  0  0  0  0
   67.9884   46.6010   55.3955 C   0  0  0  0  0  0  0  0  0  0  0  0
   68.4704   47.7925   55.8694 C   0  0  0  0  0  0  0  0  0  0  0  0
   69.1602   48.6660   55.0558 C   0  0  0  0  0  0  0  0  0  0  0  0
   69.4147   48.4103   53.7180 C   0  0  0  0  0  0  0  0  0  0  0  0
   70.1866   46.4321   51.4463 O   0  0  0  0  0  0  0  0  0  0  0  0
   69.1141   46.8372   51.8926 N   0  0  0  0  0  0  0  0  0  0  0  0
   68.0724   46.9106   50.9652 O   0  0  0  0  0  0  0  0  0  0  0  0
   69.8538   51.1143   52.9285 N   0  0  0  0  0  0  0  0  0  0  0  0
   69.8725   51.8719   54.1109 C   0  0  0  0  0  0  0  0  0  0  0  0
   68.7973   52.0880   54.9311 C   0  0  0  0  0  0  0  0  0  0  0  0
   68.8844   52.8074   56.1023 C   0  0  0  0  0  0  0  0  0  0  0  0
   70.0744   53.3508   56.5118 C   0  0  0  0  0  0  0  0  0  0  0  0
   71.2014   53.1559   55.7051 C   0  0  0  0  0  0  0  0  0  0  0  0
   72.4104   53.6999   56.1077 C   0  0  0  0  0  0  0  0  0  0  0  0
   73.5028   53.4923   55.2969 C   0  0  0  0  0  0  0  0  0  0  0  0
   73.3311   52.7596   54.1380 C   0  0  0  0  0  0  0  0  0  0  0  0
   72.1482   52.2432   53.7710 N   0  0  0  0  0  0  0  0  0  0  0  0
   71.0727   52.4329   54.5444 C   0  0  0  0  0  0  0  0  0  0  0  0
 10 11  2  0
 11 12  1  0
 11  4  1  0
  4  5  2  0
  4  9  1  0
  5  6  1  0
  6  7  2  0
  7  8  1  0
  8  9  2  0
  9  1  1  0
  1  2  2  0
  1  3  2  0
  1 13  1  0
 13 14  1  0
 14 15  2  0
 14 23  1  0
 15 16  1  0
 16 17  2  0
 17 18  1  0
 18 19  1  0
 18 23  2  0
 19 20  2  0
 20 21  1  0
 21 22  2  0
 22 23  1  0
M  CHG  2  11   1  12  -1
M  END
>  <minimizedAffinity>  (487) 
-8.59609

$$$$
data/reference_output_2/data/smiles/182032.pdb
     RDKit          3D

 23 24  0  0  0  0  0  0  0  0999 V2000
   69.4325   46.3475   57.0961 C   0  0  0  0  0  0  0  0  0  0  0  0
   69.9976   47.4534   57.7450 C   0  0  0  0  0  0  0  0  0  0  0  0
   71.0227   47.2510   58.5870 N   0  0  0  0  0  0  0  0  0  0  0  0
   71.5301   46.0305   58.8321 C   0  0  0  0  0  0  0  0  0  0  0  0
   70.9515   44.9365   58.1748 C   0  0  0  0  0  0  0  0  0  0  0  0
   69.8971   45.0832   57.3008 C   0  0  0  0  0  0  0  0  0  0  0  0
   68.3692   46.6148   56.2393 N   0  0  0  0  0  0  0  0  0  0  0  0
   69.0449   47.4303   52.6782 C   0  0  0  0  0  0  0  0  0  0  0  0
   68.3727   46.4142   52.0151 C   0  0  0  0  0  0  0  0  0  0  0  0
   67.6954   45.4600   52.7558 C   0  0  0  0  0  0  0  0  0  0  0  0
   67.6824   45.5066   54.1330 C   0  0  0  0  0  0  0  0  0  0  0  0
   68.3506   46.5169   54.8259 C   0  0  0  0  0  0  0  0  0  0  0  0
   69.0078   47.4414   54.0393 C   0  0  0  0  0  0  0  0  0  0  0  0
   70.3122   49.2345   51.2772 N   0  0  0  0  0  0  0  0  0  0  0  0
   69.7524   48.4280   51.9017 C   0  0  0  0  0  0  0  0  0  0  0  0
   69.3162   43.9896   56.6685 N   0  0  0  0  0  0  0  0  0  0  0  0
   68.8127   42.5435   57.4503 S   0  0  0  0  0  0  0  0  0  0  0  0
   68.4784   42.8424   58.9058 O   0  0  0  0  0  0  0  0  0  0  0  0
   69.9792   41.6015   57.4984 O   0  0  0  0  0  0  0  0  0  0  0  0
   67.4841   41.7214   56.6646 C   0  0  0  0  0  0  0  0  0  0  0  0
   67.0998   42.5205   55.5789 F   0  0  0  0  0  0  0  0  0  0  0  0
   66.3487   41.7118   57.4872 F   0  0  0  0  0  0  0  0  0  0  0  0
   67.7593   40.4892   56.1697 F   0  0  0  0  0  0  0  0  0  0  0  0
 14 15  3  0
 15  8  1  0
  8  9  2  0
  8 13  1  0
  9 10  1  0
 10 11  2  0
 11 12  1  0
 12  7  1  0
 12 13  2  0
  7  1  1  0
  1  2  2  0
  1  6  1  0
  2  3  1  0
  3  4  2  0
  4  5  1  0
  5  6  2  0
  6 16  1  0
 16 17  1  0
 17 18  2  0
 17 19  2  0
 17 20  1  0
 20 21  1  0
 20 22  1  0
 20 23  1  0
M  END
>  <minimizedAffinity>  (488) 
-8.59609

$$$$
data/200k_reference_output/data/smiles/52758.pdb
     RDKit          3D

 25 28  0  0  0  0  0  0  0  0999 V2000
   70.2379   42.1291   57.8965 N   0  0  0  0  0  0  0  0  0  0  0  0
   69.3016   42.6424   57.0790 C   0  0  0  0  0  0  0  0  0  0  0  0
   69.3853   44.0144   57.0108 C   0  0  0  0  0  0  0  0  0  0  0  0
   68.7490   45.0213   56.3899 N   0  0  0  0  0  0  0  0  0  0  0  0
   69.0650   46.3167   56.5204 C   0  0  0  0  0  0  0  0  0  0  0  0
   70.1031   46.6085   57.3411 N   0  0  0  0  0  0  0  0  0  0  0  0
   70.7871   45.6645   57.9953 C   0  0  0  0  0  0  0  0  0  0  0  0
   71.7388   45.9708   58.7445 O   0  0  0  0  0  0  0  0  0  0  0  0
   70.4521   44.3348   57.8529 C   0  0  0  0  0  0  0  0  0  0  0  0
   70.9120   43.1740   58.3442 N   0  0  0  0  0  0  0  0  0  0  0  0
   70.7658   38.0029   58.8268 C   0  0  0  0  0  0  0  0  0  0  0  0
   69.5208   38.5589   58.6237 C   0  0  0  0  0  0  0  0  0  0  0  0
   69.3695   39.9038   58.3211 C   0  0  0  0  0  0  0  0  0  0  0  0
   70.4526   40.7450   58.2103 C   0  0  0  0  0  0  0  0  0  0  0  0
   71.6990   40.1928   58.4141 C   0  0  0  0  0  0  0  0  0  0  0  0
   71.8522   38.8424   58.7177 C   0  0  0  0  0  0  0  0  0  0  0  0
   71.9147   35.8541   58.5081 C   0  0  0  0  0  0  0  0  0  0  0  0
   70.9251   36.6443   59.1331 O   0  0  0  0  0  0  0  0  0  0  0  0
   68.3345   47.4030   55.8142 C   0  0  0  0  0  0  0  0  0  0  0  0
   68.5197   47.1967   54.3342 C   0  0  0  0  0  0  0  0  0  0  0  0
   67.8435   46.2199   53.6571 C   0  0  0  0  0  0  0  0  0  0  0  0
   68.0331   46.0545   52.3038 C   0  0  0  0  0  0  0  0  0  0  0  0
   68.8952   46.8552   51.6045 C   0  0  0  0  0  0  0  0  0  0  0  0
   69.5911   47.8519   52.2765 C   0  0  0  0  0  0  0  0  0  0  0  0
   69.3904   48.0047   53.6331 C   0  0  0  0  0  0  0  0  0  0  0  0
 17 18  1  0
 18 11  1  0
 11 12  2  0
 11 16  1  0
 12 13  1  0
 13 14  2  0
 14  1  1  0
 14 15  1  0
  1  2  1  0
  1 10  1  0
  2  3  2  0
  3  4  1  0
  3  9  1  0
  4  5  2  0
  5 19  1  0
  5  6  1  0
 19 20  1  0
 20 21  2  0
 20 25  1  0
 21 22  1  0
 22 23  2  0
 23 24  1  0
 24 25  2  0
  6  7  1  0
  7  8  2  0
  7  9  1  0
  9 10  2  0
 15 16  2  0
M  END
>  <minimizedAffinity>  (489) 
-8.59500

$$$$
data/reference_output_2/data/smiles/99581.pdb
     RDKit          3D

 24 26  0  0  0  0  0  0  0  0999 V2000
   72.3620   50.7400   54.8157 C   0  0  0  0  0  0  0  0  0  0  0  0
   72.4078   50.0673   53.7563 O   0  0  0  0  0  0  0  0  0  0  0  0
   71.1982   51.4495   55.1328 N   0  0  0  0  0  0  0  0  0  0  0  0
   71.0436   52.2557   56.3300 C   0  0  0  0  0  0  0  0  0  0  0  0
   69.8145   51.7390   57.0482 C   0  0  0  0  0  0  0  0  0  0  0  0
   68.6151   52.0264   56.2059 C   0  0  0  0  0  0  0  0  0  0  0  0
   68.8964   52.2031   54.7525 C   0  0  0  0  0  0  0  0  0  0  0  0
   70.0600   51.4045   54.2449 C   0  0  2  0  0  0  0  0  0  0  0  0
   69.5886   49.9883   54.0709 C   0  0  0  0  0  0  0  0  0  0  0  0
   69.2868   49.1143   55.0471 N   0  0  0  0  0  0  0  0  0  0  0  0
   68.9013   47.9418   54.5131 C   0  0  0  0  0  0  0  0  0  0  0  0
   68.4961   46.7435   55.0426 C   0  0  0  0  0  0  0  0  0  0  0  0
   68.1560   45.6994   54.1988 C   0  0  0  0  0  0  0  0  0  0  0  0
   67.7623   44.5364   54.7648 F   0  0  0  0  0  0  0  0  0  0  0  0
   68.2076   45.8108   52.8251 C   0  0  0  0  0  0  0  0  0  0  0  0
   68.6164   47.0201   52.3048 C   0  0  0  0  0  0  0  0  0  0  0  0
   68.9609   48.0776   53.1388 C   0  0  0  0  0  0  0  0  0  0  0  0
   69.3837   49.3388   52.9167 N   0  0  0  0  0  0  0  0  0  0  0  0
   73.5810   50.7341   55.6781 C   0  0  0  0  0  0  0  0  0  0  0  0
   76.0009   50.0455   55.6038 C   0  0  0  0  0  0  0  0  0  0  0  0
   76.1755   50.5487   56.7465 O   0  0  0  0  0  0  0  0  0  0  0  0
   74.6979   50.1141   55.0157 N   0  0  0  0  0  0  0  0  0  0  0  0
   78.2877   49.1702   55.5520 C   0  0  0  0  0  0  0  0  0  0  0  0
   77.0573   49.4461   54.9507 O   0  0  0  0  0  0  0  0  0  0  0  0
 23 24  1  0
 24 20  1  0
 20 21  2  0
 20 22  1  0
 22 19  1  0
 19  1  1  0
  1  2  2  0
  1  3  1  0
  3  4  1  0
  3  8  1  0
  4  5  1  0
  5  6  1  0
  6  7  1  0
  7  8  1  0
  8  9  1  1
  9 10  2  0
  9 18  1  0
 10 11  1  0
 11 12  2  0
 11 17  1  0
 12 13  1  0
 13 14  1  0
 13 15  2  0
 15 16  1  0
 16 17  2  0
 17 18  1  0
M  CHG  1  10   1
M  END
>  <minimizedAffinity>  (490) 
-8.59406

$$$$
data/200k_reference_output/data/smiles/15379.pdb
     RDKit          3D

 23 25  0  0  0  0  0  0  0  0999 V2000
   70.2094   49.1533   53.6310 C   0  0  0  0  0  0  0  0  0  0  0  0
   69.6332   48.2583   54.3994 C   0  0  0  0  0  0  0  0  0  0  0  0
   68.8620   47.1378   53.9203 C   0  0  0  0  0  0  0  0  0  0  0  0
   68.2892   46.2013   54.7750 C   0  0  0  0  0  0  0  0  0  0  0  0
   67.5723   45.1262   54.3133 C   0  0  0  0  0  0  0  0  0  0  0  0
   67.4118   44.9667   52.9388 C   0  0  0  0  0  0  0  0  0  0  0  0
   67.9641   45.8712   52.0668 C   0  0  0  0  0  0  0  0  0  0  0  0
   68.6954   46.9672   52.5737 C   0  0  0  0  0  0  0  0  0  0  0  0
   69.2683   47.9481   51.6351 C   0  0  0  0  0  0  0  0  0  0  0  0
   70.1004   49.0245   52.1711 C   0  0  0  0  0  0  0  0  0  0  0  0
   72.2423   50.4151   53.9488 N   0  0  0  0  0  0  0  0  0  0  0  0
   70.9830   50.2804   54.1689 C   0  0  0  0  0  0  0  0  0  0  0  0
   73.0010   51.4781   54.4490 N   0  0  0  0  0  0  0  0  0  0  0  0
   75.0400   52.2269   55.2570 N   0  0  0  0  0  0  0  0  0  0  0  0
   74.3514   51.2164   54.8163 C   0  0  0  0  0  0  0  0  0  0  0  0
   74.9373   49.9230   54.7155 N   0  0  0  0  0  0  0  0  0  0  0  0
   69.7792   48.4057   55.7728 O   0  0  0  0  0  0  0  0  0  0  0  0
   68.7533   49.0299   56.4845 C   0  0  0  0  0  0  0  0  0  0  0  0
   67.8437   48.3008   57.2128 C   0  0  0  0  0  0  0  0  0  0  0  0
   66.8187   48.9006   57.9268 C   0  0  0  0  0  0  0  0  0  0  0  0
   66.6775   50.2723   57.9275 C   0  0  0  0  0  0  0  0  0  0  0  0
   67.5815   51.0128   57.2022 C   0  0  0  0  0  0  0  0  0  0  0  0
   68.6034   50.4032   56.4923 C   0  0  0  0  0  0  0  0  0  0  0  0
 14 15  2  0
 15 16  1  0
 15 13  1  0
 13 11  1  0
 11 12  2  0
 12  1  1  0
  1  2  2  0
  1 10  1  0
  2 17  1  0
  2  3  1  0
 17 18  1  0
 18 19  2  0
 18 23  1  0
 19 20  1  0
 20 21  2  0
 21 22  1  0
 22 23  2  0
  3  4  1  0
  3  8  2  0
  4  5  2  0
  5  6  1  0
  6  7  2  0
  7  8  1  0
  8  9  1  0
  9 10  1  0
M  CHG  1  14   1
M  END
>  <minimizedAffinity>  (491) 
-8.59398

$$$$
data/200k_reference_output/data/smiles/44279.pdb
     RDKit          3D

 26 29  0  0  0  0  0  0  0  0999 V2000
   69.2433   47.5762   56.0176 N   0  0  0  0  0  0  0  0  0  0  0  0
   69.6622   48.5580   55.2028 C   0  0  0  0  0  0  0  0  0  0  0  0
   69.4484   48.4973   53.8187 C   0  0  0  0  0  0  0  0  0  0  0  0
   68.7986   47.4258   53.2364 C   0  0  0  0  0  0  0  0  0  0  0  0
   68.5766   47.3439   51.8706 C   0  0  0  0  0  0  0  0  0  0  0  0
   67.9269   46.2704   51.2975 C   0  0  0  0  0  0  0  0  0  0  0  0
   67.5037   45.2709   52.1495 C   0  0  0  0  0  0  0  0  0  0  0  0
   67.7239   45.3511   53.5099 C   0  0  0  0  0  0  0  0  0  0  0  0
   68.3734   46.4260   54.0830 C   0  0  0  0  0  0  0  0  0  0  0  0
   68.6017   46.5217   55.4372 C   0  0  0  0  0  0  0  0  0  0  0  0
   68.2001   45.5979   56.1934 O   0  0  0  0  0  0  0  0  0  0  0  0
   69.9948   49.6804   53.1695 C   0  0  0  0  0  0  0  0  0  0  0  0
   70.0105   50.0062   51.9619 O   0  0  0  0  0  0  0  0  0  0  0  0
   70.5584   50.4733   54.2448 C   0  0  0  0  0  0  0  0  0  0  0  0
   71.2056   51.6869   54.2429 C   0  0  0  0  0  0  0  0  0  0  0  0
   71.6607   52.2559   55.4113 C   0  0  0  0  0  0  0  0  0  0  0  0
   71.4845   51.6258   56.6261 C   0  0  0  0  0  0  0  0  0  0  0  0
   70.8300   50.3976   56.6261 C   0  0  0  0  0  0  0  0  0  0  0  0
   70.3711   49.8188   55.4783 C   0  0  0  0  0  0  0  0  0  0  0  0
   69.4100   47.5982   57.4624 C   0  0  0  0  0  0  0  0  0  0  0  0
   70.4340   46.6846   58.0075 C   0  0  0  0  0  0  0  0  0  0  0  0
   70.4694   44.3381   58.6254 C   0  0  0  0  0  0  0  0  0  0  0  0
   71.1492   44.1032   57.5959 O   0  0  0  0  0  0  0  0  0  0  0  0
   70.0360   45.6899   58.9355 N   0  0  0  0  0  0  0  0  0  0  0  0
   68.9236   43.4967   60.2547 N   0  0  0  0  0  0  0  0  0  0  0  0
   70.1193   43.2142   59.5108 C   0  0  0  0  0  0  0  0  0  0  0  0
 25 26  1  0
 26 22  1  0
 22 23  2  0
 22 24  1  0
 24 21  1  0
 21 20  1  0
 20  1  1  0
  1  2  1  0
  1 10  1  0
  2  3  2  0
  2 19  1  0
  3  4  1  0
  3 12  1  0
  4  5  1  0
  4  9  2  0
  5  6  2  0
  6  7  1  0
  7  8  2  0
  8  9  1  0
  9 10  1  0
 10 11  2  0
 12 13  2  0
 12 14  1  0
 14 15  1  0
 14 19  2  0
 15 16  2  0
 16 17  1  0
 17 18  2  0
 18 19  1  0
M  CHG  1  25   1
M  END
>  <minimizedAffinity>  (492) 
-8.59365

$$$$
data/reference_output_2/data/smiles/134680.pdb
     RDKit          3D

 23 25  0  0  0  0  0  0  0  0999 V2000
   69.2317   46.5273   57.2194 N   0  0  0  0  0  0  0  0  0  0  0  0
   68.7594   47.2762   56.3153 C   0  0  0  0  0  0  0  0  0  0  0  0
   68.6494   46.8865   54.9244 C   0  0  0  0  0  0  0  0  0  0  0  0
   67.9507   45.8478   54.3884 C   0  0  0  0  0  0  0  0  0  0  0  0
   67.7977   45.6403   53.0222 C   0  0  0  0  0  0  0  0  0  0  0  0
   68.3860   46.5315   52.1627 C   0  0  0  0  0  0  0  0  0  0  0  0
   69.1098   47.6042   52.6481 C   0  0  0  0  0  0  0  0  0  0  0  0
   69.2317   47.7675   54.0035 C   0  0  0  0  0  0  0  0  0  0  0  0
   68.3286   48.6159   56.7488 C   0  0  0  0  0  0  0  0  0  0  0  0
   68.8096   49.8101   56.3479 C   0  0  0  0  0  0  0  0  0  0  0  0
   68.2386   51.0314   56.7322 C   0  0  0  0  0  0  0  0  0  0  0  0
   67.1500   51.0692   57.5511 C   0  0  0  0  0  0  0  0  0  0  0  0
   66.6369   49.8690   57.9816 C   0  0  0  0  0  0  0  0  0  0  0  0
   67.2045   48.6729   57.5966 C   0  0  0  0  0  0  0  0  0  0  0  0
   70.8237   46.0654   59.2785 O   0  0  0  0  0  0  0  0  0  0  0  0
   70.6111   45.0820   58.5182 C   0  0  0  0  0  0  0  0  0  0  0  0
   69.7492   45.3146   57.3998 N   0  0  0  0  0  0  0  0  0  0  0  0
   71.2487   43.8272   58.8336 C   0  0  0  0  0  0  0  0  0  0  0  0
   71.7592   43.0171   57.7902 N   0  0  0  0  0  0  0  0  0  0  0  0
   73.1566   43.3732   57.5125 C   0  0  0  0  0  0  0  0  0  0  0  0
   74.0305   42.4448   58.2852 C   0  0  0  0  0  0  0  0  0  0  0  0
   73.0528   41.5256   58.9764 C   0  0  0  0  0  0  0  0  0  0  0  0
   71.8634   41.6062   58.0646 C   0  0  0  0  0  0  0  0  0  0  0  0
 15 16  2  0
 16 18  1  0
 16 17  1  0
 18 19  1  0
 19 20  1  0
 19 23  1  0
 20 21  1  0
 21 22  1  0
 22 23  1  0
 17  1  1  0
  1  2  2  0
  2  3  1  0
  2  9  1  0
  3  4  2  0
  3  8  1  0
  4  5  1  0
  5  6  2  0
  6  7  1  0
  7  8  2  0
  9 10  2  0
  9 14  1  0
 10 11  1  0
 11 12  2  0
 12 13  1  0
 13 14  2  0
M  CHG  1  19   1
M  END
>  <minimizedAffinity>  (493) 
-8.59352

$$$$
data/200k_reference_output/data/smiles/48496.pdb
     RDKit          3D

 24 26  0  0  0  0  0  0  0  0999 V2000
   71.4237   46.4087   58.8989 S   0  0  0  0  0  0  0  0  0  0  0  0
   71.4919   46.8400   60.3526 O   0  0  0  0  0  0  0  0  0  0  0  0
   71.7270   47.6001   58.0722 O   0  0  0  0  0  0  0  0  0  0  0  0
   72.5992   45.1790   58.6055 C   0  0  0  0  0  0  0  0  0  0  0  0
   72.1913   43.9567   58.1054 C   0  0  0  0  0  0  0  0  0  0  0  0
   73.1187   42.9553   57.8623 C   0  0  0  0  0  0  0  0  0  0  0  0
   74.4627   43.1867   58.1248 C   0  0  0  0  0  0  0  0  0  0  0  0
   75.4231   42.2158   57.8978 C   0  0  0  0  0  0  0  0  0  0  0  0
   76.7578   42.4339   58.1547 C   0  0  0  0  0  0  0  0  0  0  0  0
   77.1871   43.6556   58.6585 C   0  0  0  0  0  0  0  0  0  0  0  0
   76.2351   44.6278   58.8875 C   0  0  0  0  0  0  0  0  0  0  0  0
   74.9003   44.4039   58.6279 C   0  0  0  0  0  0  0  0  0  0  0  0
   73.9296   45.3662   58.8504 C   0  0  0  0  0  0  0  0  0  0  0  0
   69.8192   45.9061   58.5883 N   0  0  0  0  0  0  0  0  0  0  0  0
   68.6177   47.7998   57.0605 O   0  0  0  0  0  0  0  0  0  0  0  0
   68.9636   46.7647   56.4281 C   0  0  0  0  0  0  0  0  0  0  0  0
   69.5941   45.7552   57.1948 N   0  0  0  0  0  0  0  0  0  0  0  0
   68.7070   46.6665   54.9961 C   0  0  0  0  0  0  0  0  0  0  0  0
   68.0509   45.6170   54.4028 C   0  0  0  0  0  0  0  0  0  0  0  0
   67.8180   45.5483   53.0331 C   0  0  0  0  0  0  0  0  0  0  0  0
   68.2567   46.5690   52.2142 C   0  0  0  0  0  0  0  0  0  0  0  0
   68.0368   46.5141   50.8726 F   0  0  0  0  0  0  0  0  0  0  0  0
   68.9217   47.6370   52.7962 C   0  0  0  0  0  0  0  0  0  0  0  0
   69.1375   47.6768   54.1607 C   0  0  0  0  0  0  0  0  0  0  0  0
 15 16  2  0
 16 17  1  0
 16 18  1  0
 17 14  1  0
 14  1  1  0
  1  2  2  0
  1  3  2  0
  1  4  1  0
  4  5  2  0
  4 13  1  0
  5  6  1  0
  6  7  2  0
  7  8  1  0
  7 12  1  0
  8  9  2  0
  9 10  1  0
 10 11  2  0
 11 12  1  0
 12 13  2  0
 18 19  2  0
 18 24  1  0
 19 20  1  0
 20 21  2  0
 21 22  1  0
 21 23  1  0
 23 24  2  0
M  END
>  <minimizedAffinity>  (494) 
-8.59316

$$$$
data/reference_output_2/data/smiles/126825.pdb
     RDKit          3D

 23 25  0  0  0  0  0  0  0  0999 V2000
   72.1135   50.1520   53.8620 N   0  0  0  0  0  0  0  0  0  0  0  0
   72.6008   51.0563   54.8362 C   0  0  0  0  0  0  0  0  0  0  0  0
   74.1323   50.9597   55.3976 S   0  0  0  0  0  0  0  0  0  0  0  0
   71.7778   52.0919   55.3808 N   0  0  0  0  0  0  0  0  0  0  0  0
   67.9507   51.2732   57.1031 C   0  0  0  0  0  0  0  0  0  0  0  0
   68.0762   51.8993   55.8868 C   0  0  0  0  0  0  0  0  0  0  0  0
   69.3209   52.1751   55.3100 C   0  0  0  0  0  0  0  0  0  0  0  0
   70.4966   51.8308   55.9396 C   0  0  0  0  0  0  0  0  0  0  0  0
   70.3816   51.2005   57.1679 C   0  0  0  0  0  0  0  0  0  0  0  0
   69.1581   50.9282   57.7357 C   0  0  0  0  0  0  0  0  0  0  0  0
   66.4958   49.6885   58.2314 C   0  0  0  0  0  0  0  0  0  0  0  0
   66.7556   50.9705   57.7273 O   0  0  0  0  0  0  0  0  0  0  0  0
   70.8332   50.2281   53.3219 N   0  0  0  0  0  0  0  0  0  0  0  0
   70.2725   49.0089   52.7871 C   0  0  0  0  0  0  0  0  0  0  0  0
   70.4558   48.6530   51.5175 N   0  0  0  0  0  0  0  0  0  0  0  0
   69.9268   47.5365   51.0460 N   0  0  0  0  0  0  0  0  0  0  0  0
   69.1884   46.7064   51.7883 C   0  0  0  0  0  0  0  0  0  0  0  0
   68.9619   47.0175   53.1048 C   0  0  0  0  0  0  0  0  0  0  0  0
   68.1946   46.1915   53.9069 C   0  0  0  0  0  0  0  0  0  0  0  0
   67.9569   46.5042   55.2258 C   0  0  0  0  0  0  0  0  0  0  0  0
   68.5195   47.6719   55.6924 C   0  0  0  0  0  0  0  0  0  0  0  0
   69.2863   48.5091   54.9136 C   0  0  0  0  0  0  0  0  0  0  0  0
   69.5195   48.1945   53.6030 C   0  0  0  0  0  0  0  0  0  0  0  0
 11 12  1  0
 12  5  1  0
  5  6  2  0
  5 10  1  0
  6  7  1  0
  7  8  2  0
  8  4  1  0
  8  9  1  0
  4  2  1  0
  2  3  2  0
  2  1  1  0
  1 13  1  0
 13 14  1  0
 14 15  2  0
 14 23  1  0
 15 16  1  0
 16 17  2  0
 17 18  1  0
 18 19  1  0
 18 23  2  0
 19 20  2  0
 20 21  1  0
 21 22  2  0
 22 23  1  0
  9 10  2  0
M  END
>  <minimizedAffinity>  (495) 
-8.59296

$$$$
data/200k_reference_output/data/smiles/24573.pdb
     RDKit          3D

 25 27  0  0  0  0  0  0  0  0999 V2000
   70.1172   44.2947   57.7357 N   0  0  0  0  0  0  0  0  0  0  0  0
   69.7029   43.1193   57.4319 C   0  0  0  0  0  0  0  0  0  0  0  0
   70.3707   41.8944   57.8456 C   0  0  0  0  0  0  0  0  0  0  0  0
   71.7505   41.8202   57.9736 C   0  0  0  0  0  0  0  0  0  0  0  0
   72.3652   40.7206   58.3469 O   0  0  0  0  0  0  0  0  0  0  0  0
   71.7425   39.6007   58.6315 C   0  0  0  0  0  0  0  0  0  0  0  0
   72.4228   38.4577   59.0239 C   0  0  0  0  0  0  0  0  0  0  0  0
   71.7683   37.2808   59.3234 C   0  0  0  0  0  0  0  0  0  0  0  0
   70.3931   37.2759   59.2190 C   0  0  0  0  0  0  0  0  0  0  0  0
   69.7161   38.4186   58.8275 C   0  0  0  0  0  0  0  0  0  0  0  0
   70.3656   39.5975   58.5273 C   0  0  0  0  0  0  0  0  0  0  0  0
   69.6779   40.7381   58.1363 C   0  0  0  0  0  0  0  0  0  0  0  0
   68.4365   40.7120   58.0490 O   0  0  0  0  0  0  0  0  0  0  0  0
   71.1496   46.7865   58.2659 O   0  0  0  0  0  0  0  0  0  0  0  0
   70.0602   46.7759   57.6424 C   0  0  0  0  0  0  0  0  0  0  0  0
   69.4926   45.4715   57.3492 N   0  0  0  0  0  0  0  0  0  0  0  0
   69.3146   47.9569   57.1865 C   0  0  0  0  0  0  0  0  0  0  0  0
   68.1218   47.6478   56.3488 C   0  0  0  0  0  0  0  0  0  0  0  0
   68.4852   47.4642   54.9420 C   0  0  0  0  0  0  0  0  0  0  0  0
   69.3498   48.4126   54.3971 C   0  0  0  0  0  0  0  0  0  0  0  0
   69.7691   48.3008   53.1044 C   0  0  0  0  0  0  0  0  0  0  0  0
   69.3678   47.2585   52.2762 C   0  0  0  0  0  0  0  0  0  0  0  0
   69.8073   47.1656   50.9636 O   0  0  0  0  0  0  0  0  0  0  0  0
   68.5156   46.3311   52.8322 C   0  0  0  0  0  0  0  0  0  0  0  0
   68.0751   46.4283   54.1520 C   0  0  0  0  0  0  0  0  0  0  0  0
 14 15  2  0
 15 17  1  0
 15 16  1  0
 17 18  1  0
 18 19  1  0
 19 20  2  0
 19 25  1  0
 20 21  1  0
 21 22  2  0
 22 23  1  0
 22 24  1  0
 24 25  2  0
 16  1  1  0
  1  2  2  0
  2  3  1  0
  3  4  2  0
  3 12  1  0
  4  5  1  0
  5  6  1  0
  6  7  2  0
  6 11  1  0
  7  8  1  0
  8  9  2  0
  9 10  1  0
 10 11  2  0
 11 12  1  0
 12 13  2  0
M  END
>  <minimizedAffinity>  (496) 
-8.59263

$$$$
data/200k_reference_output/data/smiles/19649.pdb
     RDKit          3D

 23 25  0  0  0  0  0  0  0  0999 V2000
   68.0496   44.4708   55.6999 N   0  0  0  0  0  0  0  0  0  0  0  0
   67.8463   45.0240   54.4226 C   0  0  0  0  0  0  0  0  0  0  0  0
   67.0653   44.4185   53.6490 O   0  0  0  0  0  0  0  0  0  0  0  0
   68.4875   46.2496   53.9528 C   0  0  0  0  0  0  0  0  0  0  0  0
   68.6678   47.3600   54.7502 C   0  0  0  0  0  0  0  0  0  0  0  0
   69.2796   48.5044   54.2711 C   0  0  0  0  0  0  0  0  0  0  0  0
   69.7347   48.5888   52.9858 C   0  0  0  0  0  0  0  0  0  0  0  0
   70.3496   49.5029   52.2183 N   0  0  0  0  0  0  0  0  0  0  0  0
   70.5354   49.0070   51.0470 O   0  0  0  0  0  0  0  0  0  0  0  0
   70.0773   47.7895   50.9661 N   0  0  0  0  0  0  0  0  0  0  0  0
   69.5621   47.4876   52.1731 C   0  0  0  0  0  0  0  0  0  0  0  0
   68.9519   46.3497   52.6576 C   0  0  0  0  0  0  0  0  0  0  0  0
   69.4363   42.5031   56.9776 O   0  0  0  0  0  0  0  0  0  0  0  0
   68.1980   42.2887   56.8313 C   0  0  0  0  0  0  0  0  0  0  0  0
   67.4427   43.2977   56.1668 N   0  0  0  0  0  0  0  0  0  0  0  0
   67.6472   41.0887   57.3242 N   0  0  0  0  0  0  0  0  0  0  0  0
   68.4100   40.0865   57.9864 C   0  0  0  0  0  0  0  0  0  0  0  0
   69.7728   39.9801   57.8968 C   0  0  0  0  0  0  0  0  0  0  0  0
   70.4440   38.9806   58.5695 C   0  0  0  0  0  0  0  0  0  0  0  0
   69.7540   38.0704   59.3436 C   0  0  0  0  0  0  0  0  0  0  0  0
   70.5943   36.7849   60.2130 Cl  0  0  0  0  0  0  0  0  0  0  0  0
   68.3781   38.1668   59.4442 C   0  0  0  0  0  0  0  0  0  0  0  0
   67.7233   39.1745   58.7637 C   0  0  0  0  0  0  0  0  0  0  0  0
 13 14  2  0
 14 15  1  0
 14 16  1  0
 15  1  1  0
  1  2  1  0
  2  3  2  0
  2  4  1  0
  4  5  1  0
  4 12  2  0
  5  6  2  0
  6  7  1  0
  7  8  2  0
  7 11  1  0
  8  9  1  0
  9 10  1  0
 10 11  2  0
 11 12  1  0
 16 17  1  0
 17 18  2  0
 17 23  1  0
 18 19  1  0
 19 20  2  0
 20 21  1  0
 20 22  1  0
 22 23  2  0
M  END
>  <minimizedAffinity>  (497) 
-8.59189

$$$$
data/reference_output_2/data/smiles/151596.pdb
     RDKit          3D

 24 26  0  0  0  0  0  0  0  0999 V2000
   69.4445   43.0580   56.8231 O   0  0  0  0  0  0  0  0  0  0  0  0
   68.3591   42.5014   56.5464 C   0  0  0  0  0  0  0  0  0  0  0  0
   67.5113   43.2977   55.6631 N   0  0  0  0  0  0  0  0  0  0  0  0
   67.9442   44.5710   55.2002 C   0  0  0  0  0  0  0  0  0  0  0  0
   68.3675   45.6140   55.9379 N   0  0  0  0  0  0  0  0  0  0  0  0
   68.7002   46.6641   55.1679 C   0  0  0  0  0  0  0  0  0  0  0  0
   69.1815   47.9475   55.4404 C   0  0  0  0  0  0  0  0  0  0  0  0
   69.4374   48.8287   54.4114 C   0  0  0  0  0  0  0  0  0  0  0  0
   69.2188   48.4458   53.1050 C   0  0  0  0  0  0  0  0  0  0  0  0
   68.7420   47.1744   52.8569 C   0  0  0  0  0  0  0  0  0  0  0  0
   68.4761   46.2688   53.8654 C   0  0  0  0  0  0  0  0  0  0  0  0
   68.0217   45.0048   53.9193 N   0  0  0  0  0  0  0  0  0  0  0  0
   67.9744   41.2209   57.0346 C   0  0  0  0  0  0  0  0  0  0  0  0
   68.2549   40.6523   58.3315 C   0  0  0  0  0  0  0  0  0  0  0  0
   68.9509   39.4316   58.4281 N   0  0  0  0  0  0  0  0  0  0  0  0
   70.3101   39.1917   58.5705 C   0  0  0  0  0  0  0  0  0  0  0  0
   71.1059   40.1537   58.6428 O   0  0  0  0  0  0  0  0  0  0  0  0
   70.8727   37.8070   58.6420 C   0  0  0  0  0  0  0  0  0  0  0  0
   71.8081   37.4642   57.7052 C   0  0  0  0  0  0  0  0  0  0  0  0
   72.3650   36.2038   57.7172 C   0  0  0  0  0  0  0  0  0  0  0  0
   72.0113   35.2549   58.6515 C   0  0  0  0  0  0  0  0  0  0  0  0
   72.7447   33.6577   58.6336 Cl  0  0  0  0  0  0  0  0  0  0  0  0
   71.0716   35.6185   59.5838 C   0  0  0  0  0  0  0  0  0  0  0  0
   70.4970   36.8940   59.5859 C   0  0  0  0  0  0  0  0  0  0  0  0
  1  2  2  0
  2 13  1  0
  2  3  1  0
 13 14  1  0
 14 15  1  0
 15 16  1  0
 16 17  2  0
 16 18  1  0
 18 19  2  0
 18 24  1  0
 19 20  1  0
 20 21  2  0
 21 22  1  0
 21 23  1  0
 23 24  2  0
  3  4  1  0
  4  5  2  0
  4 12  1  0
  5  6  1  0
  6  7  2  0
  6 11  1  0
  7  8  1  0
  8  9  2  0
  9 10  1  0
 10 11  2  0
 11 12  1  0
M  CHG  1   5   1
M  END
>  <minimizedAffinity>  (498) 
-8.59136

$$$$
data/200k_reference_output/data/smiles/15103.pdb
     RDKit          3D

 25 30  0  0  0  0  0  0  0  0999 V2000
   73.4657   50.5554   53.9039 O   0  0  0  0  0  0  0  0  0  0  0  0
   73.1089   51.6086   54.5086 C   0  0  0  0  0  0  0  0  0  0  0  0
   74.1302   52.6252   54.7904 C   0  0  0  0  0  0  0  0  0  0  0  0
   73.4897   53.9814   54.9727 C   0  0  0  0  0  0  0  0  0  0  0  0
   72.3173   53.9112   55.9172 C   0  0  0  0  0  0  0  0  0  0  0  0
   71.3560   52.8411   55.5524 C   0  0  0  0  0  0  0  0  0  0  0  0
   71.7084   51.7368   54.8826 C   0  0  0  0  0  0  0  0  0  0  0  0
   70.6945   50.6813   54.5356 C   0  0  0  0  0  0  0  0  0  0  0  0
   70.5694   49.7280   55.5708 O   0  0  0  0  0  0  0  0  0  0  0  0
   69.7554   48.6313   55.3290 C   0  0  0  0  0  0  0  0  0  0  0  0
   69.1127   47.9350   56.3286 C   0  0  0  0  0  0  0  0  0  0  0  0
   68.3115   46.8500   56.0550 C   0  0  0  0  0  0  0  0  0  0  0  0
   68.1385   46.4364   54.7504 C   0  0  0  0  0  0  0  0  0  0  0  0
   68.7629   47.1050   53.7186 C   0  0  0  0  0  0  0  0  0  0  0  0
   68.5945   46.6976   52.4146 C   0  0  0  0  0  0  0  0  0  0  0  0
   69.2404   47.3991   51.4203 C   0  0  0  0  0  0  0  0  0  0  0  0
   70.0352   48.4822   51.7334 C   0  0  0  0  0  0  0  0  0  0  0  0
   70.2229   48.9124   53.0308 C   0  0  0  0  0  0  0  0  0  0  0  0
   69.5560   48.1846   54.0246 C   0  0  0  0  0  0  0  0  0  0  0  0
   71.0289   50.0102   53.3388 O   0  0  0  0  0  0  0  0  0  0  0  0
   69.4193   51.3903   54.3704 C   0  0  1  0  0  0  0  0  0  0  0  0
   68.2600   51.3619   54.9709 O   0  0  0  0  0  0  0  0  0  0  0  0
   69.1319   51.8049   55.8409 C   0  0  2  0  0  0  0  0  0  0  0  0
   69.9473   53.0102   55.9518 C   0  0  0  0  0  0  0  0  0  0  0  0
   69.4597   54.0764   56.3544 O   0  0  0  0  0  0  0  0  0  0  0  0
  1  2  2  0
  2  3  1  0
  2  7  1  0
  3  4  1  0
  4  5  1  0
  5  6  1  0
  6  7  2  0
  6 24  1  0
  7  8  1  0
  8  9  1  0
  8 20  1  0
  8 21  1  0
  9 10  1  0
 10 11  2  0
 10 19  1  0
 11 12  1  0
 12 13  2  0
 13 14  1  0
 14 15  1  0
 14 19  2  0
 15 16  2  0
 16 17  1  0
 17 18  2  0
 18 19  1  0
 18 20  1  0
 21 22  1  1
 21 23  1  0
 23 22  1  6
 23 24  1  0
 24 25  2  0
M  END
>  <minimizedAffinity>  (499) 
-8.59083

$$$$
data/reference_output_2/data/smiles/175974.pdb
     RDKit          3D

 25 27  0  0  0  0  0  0  0  0999 V2000
   69.5799   43.5391   57.3190 C   0  0  0  0  0  0  0  0  0  0  0  0
   68.7525   42.4697   56.9947 C   0  0  0  0  0  0  0  0  0  0  0  0
   69.1570   41.3128   57.6251 C   0  0  0  0  0  0  0  0  0  0  0  0
   70.2849   41.7308   58.3607 C   0  0  0  0  0  0  0  0  0  0  0  0
   70.4973   43.0317   58.1550 N   0  0  0  0  0  0  0  0  0  0  0  0
   70.3188   45.7528   57.2999 O   0  0  0  0  0  0  0  0  0  0  0  0
   69.4968   44.9230   56.8643 C   0  0  0  0  0  0  0  0  0  0  0  0
   68.5162   45.3695   55.9425 N   0  0  0  0  0  0  0  0  0  0  0  0
   68.3689   46.7166   55.4494 C   0  0  0  0  0  0  0  0  0  0  0  0
   68.4914   46.8199   53.9691 C   0  0  0  0  0  0  0  0  0  0  0  0
   69.3067   47.7577   53.4059 C   0  0  0  0  0  0  0  0  0  0  0  0
   69.4035   47.8457   52.0365 C   0  0  0  0  0  0  0  0  0  0  0  0
   68.7217   47.0379   51.2092 N   0  0  0  0  0  0  0  0  0  0  0  0
   67.9219   46.1189   51.7650 C   0  0  0  0  0  0  0  0  0  0  0  0
   67.7828   45.9809   53.1246 C   0  0  0  0  0  0  0  0  0  0  0  0
   68.6272   39.9716   57.5690 C   0  0  0  0  0  0  0  0  0  0  0  0
   67.8621   39.6538   56.5893 O   0  0  0  0  0  0  0  0  0  0  0  0
   68.8844   38.9191   58.5410 C   0  0  0  0  0  0  0  0  0  0  0  0
   67.8780   38.5655   59.4510 C   0  0  0  0  0  0  0  0  0  0  0  0
   66.6808   39.2270   59.3332 F   0  0  0  0  0  0  0  0  0  0  0  0
   68.0606   37.6172   60.4110 C   0  0  0  0  0  0  0  0  0  0  0  0
   69.2633   36.9668   60.5132 C   0  0  0  0  0  0  0  0  0  0  0  0
   70.2466   37.3059   59.6330 C   0  0  0  0  0  0  0  0  0  0  0  0
   70.0789   38.2644   58.6566 C   0  0  0  0  0  0  0  0  0  0  0  0
   71.1217   38.5871   57.8272 F   0  0  0  0  0  0  0  0  0  0  0  0
  6  7  2  0
  7  8  1  0
  7  1  1  0
  8  9  1  0
  9 10  1  0
 10 11  2  0
 10 15  1  0
 11 12  1  0
 12 13  2  0
 13 14  1  0
 14 15  2  0
  1  2  2  0
  1  5  1  0
  2  3  1  0
  3 16  1  0
  3  4  2  0
 16 17  2  0
 16 18  1  0
 18 19  2  0
 18 24  1  0
 19 20  1  0
 19 21  1  0
 21 22  2  0
 22 23  1  0
 23 24  2  0
 24 25  1  0
  4  5  1  0
M  END
>  <minimizedAffinity>  (500) 
-8.59074

$$$$
data/reference_output_2/data/smiles/110675.pdb
     RDKit          3D

 24 26  0  0  0  0  0  0  0  0999 V2000
   70.5447   44.4394   58.0782 C   0  0  0  0  0  0  0  0  0  0  0  0
   71.7416   44.5752   57.7060 O   0  0  0  0  0  0  0  0  0  0  0  0
   69.8523   45.5892   58.4720 N   0  0  0  0  0  0  0  0  0  0  0  0
   68.1811   39.1484   58.0019 C   0  0  0  0  0  0  0  0  0  0  0  0
   68.7893   40.5130   58.0184 C   0  0  0  0  0  0  0  0  0  0  0  0
   69.7487   40.8680   58.9426 C   0  0  0  0  0  0  0  0  0  0  0  0
   70.3237   42.1218   58.9790 C   0  0  0  0  0  0  0  0  0  0  0  0
   69.9602   43.0957   58.0750 C   0  0  0  0  0  0  0  0  0  0  0  0
   68.9972   42.7481   57.1426 C   0  0  0  0  0  0  0  0  0  0  0  0
   68.4224   41.4848   57.1120 C   0  0  0  0  0  0  0  0  0  0  0  0
   67.4369   41.1493   56.1479 N   0  0  0  0  0  0  0  0  0  0  0  0
   67.6750   40.2224   55.3629 O   0  0  0  0  0  0  0  0  0  0  0  0
   66.2582   41.8360   56.0937 O   0  0  0  0  0  0  0  0  0  0  0  0
   70.4796   46.8867   58.4564 C   0  0  0  0  0  0  0  0  0  0  0  0
   69.7461   47.9239   57.6847 C   0  0  0  0  0  0  0  0  0  0  0  0
   69.3334   47.5048   56.3364 C   0  0  0  0  0  0  0  0  0  0  0  0
   68.5594   46.4247   56.0972 N   0  0  0  0  0  0  0  0  0  0  0  0
   68.3522   46.3000   54.7837 C   0  0  0  0  0  0  0  0  0  0  0  0
   67.6612   45.4129   53.9739 C   0  0  0  0  0  0  0  0  0  0  0  0
   67.6235   45.5401   52.6016 C   0  0  0  0  0  0  0  0  0  0  0  0
   68.3008   46.5942   51.9810 C   0  0  0  0  0  0  0  0  0  0  0  0
   68.9870   47.4742   52.7867 C   0  0  0  0  0  0  0  0  0  0  0  0
   69.0095   47.3276   54.1522 C   0  0  0  0  0  0  0  0  0  0  0  0
   69.5961   48.0388   55.1485 N   0  0  0  0  0  0  0  0  0  0  0  0
  4  5  1  0
  5  6  2  0
  5 10  1  0
  6  7  1  0
  7  8  2  0
  8  1  1  0
  8  9  1  0
  1  2  2  0
  1  3  1  0
  3 14  1  0
 14 15  1  0
 15 16  1  0
 16 17  2  0
 16 24  1  0
 17 18  1  0
 18 19  2  0
 18 23  1  0
 19 20  1  0
 20 21  2  0
 21 22  1  0
 22 23  2  0
 23 24  1  0
  9 10  2  0
 10 11  1  0
 11 12  2  0
 11 13  1  0
M  CHG  3  11   1  13  -1  17   1
M  END
>  <minimizedAffinity>  (501) 
-8.58938

$$$$
data/200k_reference_output/data/smiles/81045.pdb
     RDKit          3D

 23 25  0  0  0  0  0  0  0  0999 V2000
   68.7816   47.3107   56.7644 S   0  0  0  0  0  0  0  0  0  0  0  0
   69.2422   45.9708   57.3310 O   0  0  0  0  0  0  0  0  0  0  0  0
   67.3762   47.4913   57.3276 O   0  0  0  0  0  0  0  0  0  0  0  0
   69.3028   47.9522   52.8199 C   0  0  0  0  0  0  0  0  0  0  0  0
   69.3584   48.0443   54.1907 C   0  0  0  0  0  0  0  0  0  0  0  0
   68.7272   47.1624   55.0394 C   0  0  0  0  0  0  0  0  0  0  0  0
   68.0029   46.1337   54.4471 C   0  0  0  0  0  0  0  0  0  0  0  0
   67.9246   46.0100   53.0818 C   0  0  0  0  0  0  0  0  0  0  0  0
   68.5713   46.9151   52.2807 C   0  0  0  0  0  0  0  0  0  0  0  0
   68.5238   46.8346   50.8941 O   0  0  0  0  0  0  0  0  0  0  0  0
   69.9411   50.1287   52.2757 O   0  0  0  0  0  0  0  0  0  0  0  0
   69.9987   48.9253   51.9543 C   0  0  0  0  0  0  0  0  0  0  0  0
   70.6910   48.5542   50.8348 O   0  0  0  0  0  0  0  0  0  0  0  0
   69.8019   48.5446   57.3573 N   0  0  0  0  0  0  0  0  0  0  0  0
   69.6491   49.9256   57.1409 C   0  0  0  0  0  0  0  0  0  0  0  0
   68.4597   50.5304   57.4749 C   0  0  0  0  0  0  0  0  0  0  0  0
   68.3542   51.8965   57.2638 C   0  0  0  0  0  0  0  0  0  0  0  0
   69.4083   52.6124   56.7385 C   0  0  0  0  0  0  0  0  0  0  0  0
   69.5698   53.9581   56.4316 C   0  0  0  0  0  0  0  0  0  0  0  0
   70.8060   54.1430   55.9364 N   0  0  0  0  0  0  0  0  0  0  0  0
   71.4182   52.9713   55.9218 N   0  0  0  0  0  0  0  0  0  0  0  0
   70.6072   52.0116   56.4008 C   0  0  0  0  0  0  0  0  0  0  0  0
   70.7235   50.6593   56.6047 C   0  0  0  0  0  0  0  0  0  0  0  0
 11 12  2  0
 12 13  1  0
 12  4  1  0
  4  5  2  0
  4  9  1  0
  5  6  1  0
  6  1  1  0
  6  7  2  0
  1  2  2  0
  1  3  2  0
  1 14  1  0
 14 15  1  0
 15 16  1  0
 15 23  2  0
 16 17  2  0
 17 18  1  0
 18 19  2  0
 18 22  1  0
 19 20  1  0
 20 21  1  0
 21 22  2  0
 22 23  1  0
  7  8  1  0
  8  9  2  0
  9 10  1  0
M  END
>  <minimizedAffinity>  (502) 
-8.58927

$$$$
data/reference_output_2/data/smiles/188288.pdb
     RDKit          3D

 24 26  0  0  0  0  0  0  0  0999 V2000
   70.8306   46.3809   59.2770 O   0  0  0  0  0  0  0  0  0  0  0  0
   70.6992   45.6645   58.2751 C   0  0  0  0  0  0  0  0  0  0  0  0
   69.9713   46.3462   57.1971 N   0  0  0  0  0  0  0  0  0  0  0  0
   71.1448   44.3407   58.0655 C   0  0  0  0  0  0  0  0  0  0  0  0
   72.4515   44.2232   58.0332 O   0  0  0  0  0  0  0  0  0  0  0  0
   70.4606   43.0956   57.8809 C   0  0  0  0  0  0  0  0  0  0  0  0
   70.8749   41.8751   58.4774 C   0  0  0  0  0  0  0  0  0  0  0  0
   70.0489   40.8939   58.1253 N   0  0  0  0  0  0  0  0  0  0  0  0
   69.0897   41.3418   57.3272 C   0  0  0  0  0  0  0  0  0  0  0  0
   68.0326   40.6916   56.7276 C   0  0  0  0  0  0  0  0  0  0  0  0
   67.1626   41.4129   55.9274 C   0  0  0  0  0  0  0  0  0  0  0  0
   67.4006   42.7735   55.7641 C   0  0  0  0  0  0  0  0  0  0  0  0
   68.4617   43.3914   56.3741 C   0  0  0  0  0  0  0  0  0  0  0  0
   69.3434   42.7119   57.1735 C   0  0  0  0  0  0  0  0  0  0  0  0
   69.5041   47.6844   57.3686 C   0  0  0  0  0  0  0  0  0  0  0  0
   68.3811   47.9676   56.4100 C   0  0  0  0  0  0  0  0  0  0  0  0
   68.7062   47.7098   54.9916 C   0  0  0  0  0  0  0  0  0  0  0  0
   68.1692   46.6287   54.3285 C   0  0  0  0  0  0  0  0  0  0  0  0
   68.4425   46.3861   53.0117 C   0  0  0  0  0  0  0  0  0  0  0  0
   69.2738   47.2197   52.2933 C   0  0  0  0  0  0  0  0  0  0  0  0
   69.5798   47.0133   50.9596 O   0  0  0  0  0  0  0  0  0  0  0  0
   69.8159   48.3091   52.9568 C   0  0  0  0  0  0  0  0  0  0  0  0
   70.6511   49.1661   52.2715 O   0  0  0  0  0  0  0  0  0  0  0  0
   69.5371   48.5538   54.2915 C   0  0  0  0  0  0  0  0  0  0  0  0
  1  2  2  0
  2  3  1  0
  2  4  1  0
  3 15  1  0
 15 16  1  0
 16 17  1  0
 17 18  2  0
 17 24  1  0
 18 19  1  0
 19 20  2  0
 20 21  1  0
 20 22  1  0
 22 23  1  0
 22 24  2  0
  4  5  2  0
  4  6  1  0
  6  7  2  0
  6 14  1  0
  7  8  1  0
  8  9  1  0
  9 10  1  0
  9 14  2  0
 10 11  2  0
 11 12  1  0
 12 13  2  0
 13 14  1  0
M  END
>  <minimizedAffinity>  (503) 
-8.58915

$$$$
data/reference_output_2/data/smiles/127740.pdb
     RDKit          3D

 24 25  0  0  0  0  0  0  0  0999 V2000
   68.1586   43.6338   55.8187 C   0  0  0  0  0  0  0  0  0  0  0  0
   69.2031   44.1201   56.3411 O   0  0  0  0  0  0  0  0  0  0  0  0
   67.5926   44.4136   54.8065 N   0  0  0  0  0  0  0  0  0  0  0  0
   68.1652   45.6780   54.3931 C   0  0  0  0  0  0  0  0  0  0  0  0
   68.3951   45.9470   53.0637 C   0  0  0  0  0  0  0  0  0  0  0  0
   68.9370   47.1599   52.6507 C   0  0  0  0  0  0  0  0  0  0  0  0
   69.2645   48.1382   53.5615 C   0  0  0  0  0  0  0  0  0  0  0  0
   69.0384   47.8772   54.8915 C   0  0  0  0  0  0  0  0  0  0  0  0
   68.4954   46.6607   55.3007 C   0  0  0  0  0  0  0  0  0  0  0  0
   69.9354   49.6502   52.9887 S   0  0  0  0  0  0  0  0  0  0  0  0
   69.8395   49.7315   51.2724 N   0  0  0  0  0  0  0  0  0  0  0  0
   69.2581   50.8180   53.6435 O   0  0  0  0  0  0  0  0  0  0  0  0
   71.4077   49.7493   53.3446 O   0  0  0  0  0  0  0  0  0  0  0  0
   67.6730   42.3278   56.3277 C   0  0  0  0  0  0  0  0  0  0  0  0
   68.0313   42.0255   57.5473 C   0  0  0  0  0  0  0  0  0  0  0  0
   67.7010   40.8350   58.2741 C   0  0  0  0  0  0  0  0  0  0  0  0
   68.3419   39.6169   58.1949 C   0  0  0  0  0  0  0  0  0  0  0  0
   67.9606   38.5019   58.9166 C   0  0  0  0  0  0  0  0  0  0  0  0
   66.8909   38.5631   59.7715 C   0  0  0  0  0  0  0  0  0  0  0  0
   66.2192   39.7664   59.8814 C   0  0  0  0  0  0  0  0  0  0  0  0
   66.6076   40.8724   59.1580 C   0  0  0  0  0  0  0  0  0  0  0  0
   65.5197   41.5546   54.9983 C   0  0  0  0  0  0  0  0  0  0  0  0
   66.8769   41.4482   55.5408 C   0  0  0  0  0  0  0  0  0  0  0  0
   67.4368   40.3190   55.2333 O   0  0  0  0  0  0  0  0  0  0  0  0
 22 23  1  0
 23 24  2  0
 23 14  1  0
 14 15  2  0
 14  1  1  0
 15 16  1  0
 16 17  2  0
 16 21  1  0
 17 18  1  0
 18 19  2  0
 19 20  1  0
 20 21  2  0
  1  2  2  0
  1  3  1  0
  3  4  1  0
  4  5  2  0
  4  9  1  0
  5  6  1  0
  6  7  2  0
  7 10  1  0
  7  8  1  0
 10 11  1  0
 10 12  2  0
 10 13  2  0
  8  9  2  0
M  END
>  <minimizedAffinity>  (504) 
-8.58881

$$$$
data/200k_reference_output/data/smiles/35658.pdb
     RDKit          3D

 23 25  0  0  0  0  0  0  0  0999 V2000
   70.9860   47.1955   58.7033 S   0  0  0  0  0  0  0  0  0  0  0  0
   69.6958   47.2006   57.4350 C   0  0  0  0  0  0  0  0  0  0  0  0
   68.3759   47.3659   57.5575 N   0  0  0  0  0  0  0  0  0  0  0  0
   67.8155   47.2973   56.3635 N   0  0  0  0  0  0  0  0  0  0  0  0
   68.7493   47.0841   55.4264 C   0  0  0  0  0  0  0  0  0  0  0  0
   69.9091   47.0263   56.0981 N   0  0  0  0  0  0  0  0  0  0  0  0
   68.5959   46.9389   53.9876 C   0  0  0  0  0  0  0  0  0  0  0  0
   69.2672   47.7668   53.1017 C   0  0  0  0  0  0  0  0  0  0  0  0
   69.1102   47.6157   51.7386 C   0  0  0  0  0  0  0  0  0  0  0  0
   68.3056   46.6683   51.2232 N   0  0  0  0  0  0  0  0  0  0  0  0
   67.6346   45.8426   52.0570 C   0  0  0  0  0  0  0  0  0  0  0  0
   67.7827   45.9815   53.4243 C   0  0  0  0  0  0  0  0  0  0  0  0
   71.4653   45.4810   59.0411 C   0  0  0  0  0  0  0  0  0  0  0  0
   70.2814   43.9033   57.4406 N   0  0  0  0  0  0  0  0  0  0  0  0
   70.4078   44.5007   58.6967 C   0  0  0  0  0  0  0  0  0  0  0  0
   69.5883   44.2166   59.6204 O   0  0  0  0  0  0  0  0  0  0  0  0
   68.3638   39.3719   57.8881 C   0  0  0  0  0  0  0  0  0  0  0  0
   68.3124   40.7347   57.2949 C   0  0  0  0  0  0  0  0  0  0  0  0
   67.3084   41.0751   56.4093 C   0  0  0  0  0  0  0  0  0  0  0  0
   67.2979   42.3538   55.8744 C   0  0  0  0  0  0  0  0  0  0  0  0
   68.2660   43.2759   56.2118 C   0  0  0  0  0  0  0  0  0  0  0  0
   69.2693   42.9524   57.0909 C   0  0  0  0  0  0  0  0  0  0  0  0
   69.2693   41.6753   57.6168 C   0  0  0  0  0  0  0  0  0  0  0  0
 17 18  1  0
 18 19  2  0
 18 23  1  0
 19 20  1  0
 20 21  2  0
 21 22  1  0
 22 14  1  0
 22 23  2  0
 14 15  1  0
 15 16  2  0
 15 13  1  0
 13  1  1  0
  1  2  1  0
  2  3  2  0
  2  6  1  0
  3  4  1  0
  4  5  1  0
  5  7  1  0
  5  6  2  0
  7  8  2  0
  7 12  1  0
  8  9  1  0
  9 10  2  0
 10 11  1  0
 11 12  2  0
M  END
>  <minimizedAffinity>  (505) 
-8.58764

$$$$
data/reference_output_2/data/smiles/152928.pdb
     RDKit          3D

 24 26  0  0  0  0  0  0  0  0999 V2000
   70.2926   49.2441   53.6821 C   0  0  0  0  0  0  0  0  0  0  0  0
   69.9270   48.6322   54.8433 C   0  0  0  0  0  0  0  0  0  0  0  0
   69.1595   47.5292   54.9486 N   0  0  0  0  0  0  0  0  0  0  0  0
   68.7284   47.0105   53.7666 C   0  0  0  0  0  0  0  0  0  0  0  0
   67.9333   45.8883   53.7875 C   0  0  0  0  0  0  0  0  0  0  0  0
   67.5648   45.2977   54.9110 F   0  0  0  0  0  0  0  0  0  0  0  0
   67.4901   45.3626   52.5908 C   0  0  0  0  0  0  0  0  0  0  0  0
   67.8327   45.9436   51.3831 C   0  0  0  0  0  0  0  0  0  0  0  0
   68.6268   47.0651   51.3507 C   0  0  0  0  0  0  0  0  0  0  0  0
   69.0682   47.5876   52.5557 C   0  0  0  0  0  0  0  0  0  0  0  0
   69.8615   48.7222   52.4959 C   0  0  0  0  0  0  0  0  0  0  0  0
   70.1492   49.2193   51.3900 O   0  0  0  0  0  0  0  0  0  0  0  0
   72.3466   50.3681   54.0147 O   0  0  0  0  0  0  0  0  0  0  0  0
   71.1355   50.4448   53.6915 C   0  0  0  0  0  0  0  0  0  0  0  0
   70.6083   51.6827   53.3430 O   0  0  0  0  0  0  0  0  0  0  0  0
   68.8456   46.9426   56.2344 C   0  0  0  0  0  0  0  0  0  0  0  0
   69.7789   47.3421   57.3107 C   0  0  0  0  0  0  0  0  0  0  0  0
   70.4560   46.4969   58.0393 C   0  0  0  0  0  0  0  0  0  0  0  0
   71.3812   46.8575   59.1046 C   0  0  0  0  0  0  0  0  0  0  0  0
   72.0110   48.0804   59.1692 C   0  0  0  0  0  0  0  0  0  0  0  0
   72.8980   48.4054   60.2039 C   0  0  0  0  0  0  0  0  0  0  0  0
   73.1461   47.4841   61.1785 C   0  0  0  0  0  0  0  0  0  0  0  0
   72.5172   46.2672   61.1102 C   0  0  0  0  0  0  0  0  0  0  0  0
   71.6723   45.9870   60.1047 N   0  0  0  0  0  0  0  0  0  0  0  0
 13 14  2  0
 14 15  1  0
 14  1  1  0
  1  2  2  0
  1 11  1  0
  2  3  1  0
  3 16  1  0
  3  4  1  0
 16 17  1  0
 17 18  2  0
 18 19  1  0
 19 20  2  0
 19 24  1  0
 20 21  1  0
 21 22  2  0
 22 23  1  0
 23 24  2  0
  4  5  1  0
  4 10  2  0
  5  6  1  0
  5  7  2  0
  7  8  1  0
  8  9  2  0
  9 10  1  0
 10 11  1  0
 11 12  2  0
M  END
>  <minimizedAffinity>  (506) 
-8.58761

$$$$
data/reference_output_2/data/smiles/88374.pdb
     RDKit          3D

 23 25  0  0  0  0  0  0  0  0999 V2000
   72.1209   51.1716   54.5428 N   0  0  0  0  0  0  0  0  0  0  0  0
   71.3809   51.8448   53.6518 N   0  0  0  0  0  0  0  0  0  0  0  0
   70.4620   51.0496   53.1310 N   0  0  0  0  0  0  0  0  0  0  0  0
   70.5976   49.8214   53.6904 C   0  0  0  0  0  0  0  0  0  0  0  0
   71.6289   49.9463   54.5505 N   0  0  0  0  0  0  0  0  0  0  0  0
   69.7976   48.6320   53.4144 C   0  0  0  0  0  0  0  0  0  0  0  0
   69.0721   48.0408   54.4039 C   0  0  0  0  0  0  0  0  0  0  0  0
   68.3187   46.9101   54.1159 C   0  0  0  0  0  0  0  0  0  0  0  0
   68.2976   46.3780   52.8399 C   0  0  0  0  0  0  0  0  0  0  0  0
   67.3573   44.9571   52.4597 Cl  0  0  0  0  0  0  0  0  0  0  0  0
   69.0207   46.9590   51.8330 C   0  0  0  0  0  0  0  0  0  0  0  0
   69.7651   48.0885   52.1483 C   0  0  0  0  0  0  0  0  0  0  0  0
   73.2249   51.6850   55.3283 C   0  0  0  0  0  0  0  0  0  0  0  0
   75.2265   50.5766   56.4024 N   0  0  0  0  0  0  0  0  0  0  0  0
   74.3603   50.7317   55.3010 C   0  0  0  0  0  0  0  0  0  0  0  0
   74.5401   50.0629   54.2810 O   0  0  0  0  0  0  0  0  0  0  0  0
   75.2273   48.9141   58.4873 C   0  0  0  0  0  0  0  0  0  0  0  0
   76.5711   49.0406   57.7811 C   0  0  2  0  0  0  0  0  0  0  0  0
   77.4832   49.8075   58.6897 C   0  0  0  0  0  0  0  0  0  0  0  0
   78.7319   50.2634   58.0170 C   0  0  0  0  0  0  0  0  0  0  0  0
   78.5308   50.9259   56.6955 C   0  0  0  0  0  0  0  0  0  0  0  0
   77.5774   50.2261   55.7890 C   0  0  0  0  0  0  0  0  0  0  0  0
   76.3537   49.6592   56.4345 C   0  0  2  0  0  0  0  0  0  0  0  0
 18 17  1  1
 18 19  1  0
 18 23  1  0
 19 20  1  0
 20 21  1  0
 21 22  1  0
 22 23  1  0
 23 14  1  1
 14 15  1  0
 15 16  2  0
 15 13  1  0
 13  1  1  0
  1  2  1  0
  1  5  1  0
  2  3  2  0
  3  4  1  0
  4  6  1  0
  4  5  2  0
  6  7  2  0
  6 12  1  0
  7  8  1  0
  8  9  2  0
  9 10  1  0
  9 11  1  0
 11 12  2  0
M  END
>  <minimizedAffinity>  (507) 
-8.58721

$$$$
data/reference_output_2/data/smiles/142761.pdb
     RDKit          3D

 24 26  0  0  0  0  0  0  0  0999 V2000
   68.1069   43.8615   55.7965 C   0  0  0  0  0  0  0  0  0  0  0  0
   68.9074   43.2237   56.7179 C   0  0  0  0  0  0  0  0  0  0  0  0
   68.3294   42.0210   57.0714 C   0  0  0  0  0  0  0  0  0  0  0  0
   67.1972   41.9843   56.3440 N   0  0  0  0  0  0  0  0  0  0  0  0
   67.0878   43.0561   55.6147 O   0  0  0  0  0  0  0  0  0  0  0  0
   68.7011   47.6330   53.8475 C   0  0  0  0  0  0  0  0  0  0  0  0
   69.0193   47.4504   55.2047 C   0  0  0  0  0  0  0  0  0  0  0  0
   68.8257   46.2353   55.8239 C   0  0  0  0  0  0  0  0  0  0  0  0
   68.3128   45.1502   55.1425 C   0  0  0  0  0  0  0  0  0  0  0  0
   68.0153   45.3712   53.8168 C   0  0  0  0  0  0  0  0  0  0  0  0
   68.1927   46.5684   53.1571 C   0  0  0  0  0  0  0  0  0  0  0  0
   68.9309   48.9060   53.2594 N   0  0  0  0  0  0  0  0  0  0  0  0
   71.1978   49.0772   52.8738 N   0  0  0  0  0  0  0  0  0  0  0  0
   70.0020   49.1826   52.4028 C   0  0  0  0  0  0  0  0  0  0  0  0
   69.8558   49.5693   51.0474 N   0  0  0  0  0  0  0  0  0  0  0  0
   68.8318   41.0213   58.0167 C   0  0  0  0  0  0  0  0  0  0  0  0
   69.3023   41.4092   59.1133 O   0  0  0  0  0  0  0  0  0  0  0  0
   68.8079   39.6365   57.7393 N   0  0  0  0  0  0  0  0  0  0  0  0
   69.2756   38.6317   58.6072 C   0  0  0  0  0  0  0  0  0  0  0  0
   68.5150   38.1321   59.6352 C   0  0  0  0  0  0  0  0  0  0  0  0
   68.9764   37.1453   60.4857 C   0  0  0  0  0  0  0  0  0  0  0  0
   70.2266   36.6407   60.3114 C   0  0  0  0  0  0  0  0  0  0  0  0
   71.0220   37.1179   59.2890 C   0  0  0  0  0  0  0  0  0  0  0  0
   70.5383   38.1208   58.4340 C   0  0  0  0  0  0  0  0  0  0  0  0
 13 14  2  0
 14 15  1  0
 14 12  1  0
 12  6  1  0
  6  7  2  0
  6 11  1  0
  7  8  1  0
  8  9  2  0
  9  1  1  0
  9 10  1  0
  1  2  2  0
  1  5  1  0
  2  3  1  0
  3 16  1  0
  3  4  2  0
 16 17  2  0
 16 18  1  0
 18 19  1  0
 19 20  2  0
 19 24  1  0
 20 21  1  0
 21 22  2  0
 22 23  1  0
 23 24  2  0
  4  5  1  0
 10 11  2  0
M  CHG  1  13   1
M  END
>  <minimizedAffinity>  (508) 
-8.58675

$$$$
data/reference_output_2/data/smiles/106455.pdb
     RDKit          3D

 24 26  0  0  0  0  0  0  0  0999 V2000
   68.2885   46.9028   56.3945 O   0  0  0  0  0  0  0  0  0  0  0  0
   69.3807   47.7976   52.9994 C   0  0  0  0  0  0  0  0  0  0  0  0
   68.7884   46.8287   52.2203 C   0  0  0  0  0  0  0  0  0  0  0  0
   68.9652   46.8226   50.8603 F   0  0  0  0  0  0  0  0  0  0  0  0
   68.0203   45.8724   52.8302 C   0  0  0  0  0  0  0  0  0  0  0  0
   67.8414   45.8788   54.2118 C   0  0  0  0  0  0  0  0  0  0  0  0
   68.4078   46.8235   55.0323 C   0  0  0  0  0  0  0  0  0  0  0  0
   69.1887   47.7824   54.3499 C   0  0  0  0  0  0  0  0  0  0  0  0
   69.7686   48.7368   55.1427 F   0  0  0  0  0  0  0  0  0  0  0  0
   69.7029   49.5744   51.2838 N   0  0  0  0  0  0  0  0  0  0  0  0
   70.1932   48.8103   52.3625 C   0  0  0  0  0  0  0  0  0  0  0  0
   71.3532   49.0150   52.7723 O   0  0  0  0  0  0  0  0  0  0  0  0
   69.3230   46.7977   57.2960 C   0  0  0  0  0  0  0  0  0  0  0  0
   70.0558   45.4918   57.2284 C   0  0  1  0  0  0  0  0  0  0  0  0
   70.8947   45.2382   58.4569 C   0  0  0  0  0  0  0  0  0  0  0  0
   71.0854   43.8901   58.7448 O   0  0  0  0  0  0  0  0  0  0  0  0
   70.3080   42.8526   58.2843 C   0  0  0  0  0  0  0  0  0  0  0  0
   70.5472   41.5559   58.7040 C   0  0  0  0  0  0  0  0  0  0  0  0
   69.7481   40.5631   58.2175 C   0  0  0  0  0  0  0  0  0  0  0  0
   68.7147   40.8115   57.3258 C   0  0  0  0  0  0  0  0  0  0  0  0
   67.9301   39.8041   56.8540 F   0  0  0  0  0  0  0  0  0  0  0  0
   68.4967   42.1102   56.9236 C   0  0  0  0  0  0  0  0  0  0  0  0
   69.2981   43.1459   57.4035 C   0  0  0  0  0  0  0  0  0  0  0  0
   69.1053   44.4441   57.0223 O   0  0  0  0  0  0  0  0  0  0  0  0
 10 11  1  0
 11 12  2  0
 11  2  1  0
  2  3  2  0
  2  8  1  0
  3  4  1  0
  3  5  1  0
  5  6  2  0
  6  7  1  0
  7  1  1  0
  7  8  2  0
  1 13  1  0
 14 13  1  1
 14 15  1  0
 14 24  1  0
 15 16  1  0
 16 17  1  0
 17 18  2  0
 17 23  1  0
 18 19  1  0
 19 20  2  0
 20 21  1  0
 20 22  1  0
 22 23  2  0
 23 24  1  0
  8  9  1  0
M  END
>  <minimizedAffinity>  (509) 
-8.58646

$$$$
data/200k_reference_output/data/smiles/28337.pdb
     RDKit          3D

 24 26  0  0  0  0  0  0  0  0999 V2000
   70.3789   44.8151   57.9027 C   0  0  0  0  0  0  0  0  0  0  0  0
   71.5727   45.1391   58.5138 C   0  0  0  0  0  0  0  0  0  0  0  0
   72.0126   46.4495   58.5813 C   0  0  0  0  0  0  0  0  0  0  0  0
   71.2379   47.3996   58.0317 N   0  0  0  0  0  0  0  0  0  0  0  0
   70.0550   47.1123   57.4226 C   0  0  0  0  0  0  0  0  0  0  0  0
   69.6662   45.8258   57.3796 N   0  0  0  0  0  0  0  0  0  0  0  0
   68.5151   41.7071   56.9375 C   0  0  0  0  0  0  0  0  0  0  0  0
   69.1458   40.8090   57.7714 C   0  0  0  0  0  0  0  0  0  0  0  0
   70.1506   41.2089   58.6229 C   0  0  0  0  0  0  0  0  0  0  0  0
   70.5148   42.5105   58.6312 N   0  0  0  0  0  0  0  0  0  0  0  0
   69.9399   43.4287   57.8457 C   0  0  0  0  0  0  0  0  0  0  0  0
   68.9369   43.0339   56.9948 C   0  0  0  0  0  0  0  0  0  0  0  0
   67.5405   40.2570   55.3261 O   0  0  0  0  0  0  0  0  0  0  0  0
   67.4493   41.2875   56.0339 C   0  0  0  0  0  0  0  0  0  0  0  0
   66.2943   42.0455   55.9487 O   0  0  0  0  0  0  0  0  0  0  0  0
   69.2492   48.2157   56.8355 C   0  0  0  0  0  0  0  0  0  0  0  0
   68.1788   47.6823   56.0436 O   0  0  0  0  0  0  0  0  0  0  0  0
   68.4071   47.3900   54.7062 C   0  0  0  0  0  0  0  0  0  0  0  0
   69.2439   48.1623   53.9558 C   0  0  0  0  0  0  0  0  0  0  0  0
   69.4957   47.8953   52.6075 C   0  0  0  0  0  0  0  0  0  0  0  0
   68.8691   46.8097   52.0254 C   0  0  0  0  0  0  0  0  0  0  0  0
   68.0218   46.0183   52.7616 C   0  0  0  0  0  0  0  0  0  0  0  0
   67.4220   44.9598   52.1618 F   0  0  0  0  0  0  0  0  0  0  0  0
   67.7916   46.3115   54.1075 C   0  0  0  0  0  0  0  0  0  0  0  0
 13 14  2  0
 14 15  1  0
 14  7  1  0
  7  8  2  0
  7 12  1  0
  8  9  1  0
  9 10  2  0
 10 11  1  0
 11  1  1  0
 11 12  2  0
  1  2  2  0
  1  6  1  0
  2  3  1  0
  3  4  2  0
  4  5  1  0
  5 16  1  0
  5  6  2  0
 16 17  1  0
 17 18  1  0
 18 19  2  0
 18 24  1  0
 19 20  1  0
 20 21  2  0
 21 22  1  0
 22 23  1  0
 22 24  2  0
M  END
>  <minimizedAffinity>  (510) 
-8.58618

$$$$
data/200k_reference_output/data/smiles/84038.pdb
     RDKit          3D

 24 26  0  0  0  0  0  0  0  0999 V2000
   69.3724   43.0632   56.9239 O   0  0  0  0  0  0  0  0  0  0  0  0
   68.2409   42.6749   56.5395 C   0  0  0  0  0  0  0  0  0  0  0  0
   67.5303   43.4960   55.6304 N   0  0  0  0  0  0  0  0  0  0  0  0
   68.1129   44.6881   55.2054 N   0  0  0  0  0  0  0  0  0  0  0  0
   67.8420   45.1912   54.0493 C   0  0  0  0  0  0  0  0  0  0  0  0
   68.4743   46.4451   53.6377 C   0  0  0  0  0  0  0  0  0  0  0  0
   68.8792   46.6327   52.3328 C   0  0  0  0  0  0  0  0  0  0  0  0
   69.4746   47.8031   51.9268 C   0  0  0  0  0  0  0  0  0  0  0  0
   69.6822   48.8365   52.8411 C   0  0  0  0  0  0  0  0  0  0  0  0
   70.2778   49.9897   52.4072 O   0  0  0  0  0  0  0  0  0  0  0  0
   69.2848   48.6657   54.1447 C   0  0  0  0  0  0  0  0  0  0  0  0
   68.6843   47.4713   54.5311 C   0  0  0  0  0  0  0  0  0  0  0  0
   67.7106   41.3893   57.0516 C   0  0  0  0  0  0  0  0  0  0  0  0
   68.7508   40.5507   57.4838 O   0  0  0  0  0  0  0  0  0  0  0  0
   68.5556   39.5408   58.4234 C   0  0  0  0  0  0  0  0  0  0  0  0
   67.3943   39.3591   59.1398 C   0  0  0  0  0  0  0  0  0  0  0  0
   67.2878   38.3193   60.0645 C   0  0  0  0  0  0  0  0  0  0  0  0
   68.3150   37.4384   60.3052 C   0  0  0  0  0  0  0  0  0  0  0  0
   69.4869   37.6048   59.5974 C   0  0  0  0  0  0  0  0  0  0  0  0
   70.5426   36.7396   59.8133 C   0  0  0  0  0  0  0  0  0  0  0  0
   71.7055   36.9169   59.0997 C   0  0  0  0  0  0  0  0  0  0  0  0
   71.7680   37.9564   58.1965 C   0  0  0  0  0  0  0  0  0  0  0  0
   70.7407   38.7987   57.9874 N   0  0  0  0  0  0  0  0  0  0  0  0
   69.5868   38.6308   58.6876 C   0  0  0  0  0  0  0  0  0  0  0  0
  1  2  2  0
  2 13  1  0
  2  3  1  0
 13 14  1  0
 14 15  1  0
 15 16  2  0
 15 24  1  0
 16 17  1  0
 17 18  2  0
 18 19  1  0
 19 20  1  0
 19 24  2  0
 20 21  2  0
 21 22  1  0
 22 23  2  0
 23 24  1  0
  3  4  1  0
  4  5  2  0
  5  6  1  0
  6  7  2  0
  6 12  1  0
  7  8  1  0
  8  9  2  0
  9 10  1  0
  9 11  1  0
 11 12  2  0
M  END
>  <minimizedAffinity>  (511) 
-8.58585

$$$$
data/reference_output_2/data/smiles/156725.pdb
     RDKit          3D

 22 23  0  0  0  0  0  0  0  0999 V2000
   68.8463   46.4771   56.2412 C   0  0  0  0  0  0  0  0  0  0  0  0
   69.6110   46.4473   57.2395 O   0  0  0  0  0  0  0  0  0  0  0  0
   68.2836   45.2039   55.8751 N   0  0  0  0  0  0  0  0  0  0  0  0
   68.5935   44.0542   56.6011 N   0  0  0  0  0  0  0  0  0  0  0  0
   68.3140   42.8684   56.2418 C   0  0  0  0  0  0  0  0  0  0  0  0
   68.6529   41.6818   57.0276 C   0  0  0  0  0  0  0  0  0  0  0  0
   67.8069   40.5979   57.0620 C   0  0  0  0  0  0  0  0  0  0  0  0
   68.0818   39.4564   57.7885 C   0  0  0  0  0  0  0  0  0  0  0  0
   69.2635   39.4258   58.5022 C   0  0  0  0  0  0  0  0  0  0  0  0
   69.6486   37.9948   59.4364 Cl  0  0  0  0  0  0  0  0  0  0  0  0
   70.1394   40.4719   58.5045 C   0  0  0  0  0  0  0  0  0  0  0  0
   69.8149   41.6026   57.7540 C   0  0  0  0  0  0  0  0  0  0  0  0
   70.9408   42.9474   57.7563 Cl  0  0  0  0  0  0  0  0  0  0  0  0
   68.5374   47.7078   55.4920 C   0  0  0  0  0  0  0  0  0  0  0  0
   69.5546   48.1091   54.4887 C   0  0  0  0  0  0  0  0  0  0  0  0
   68.1859   45.9669   52.3854 C   0  0  0  0  0  0  0  0  0  0  0  0
   68.9854   47.2346   52.2306 C   0  0  0  0  0  0  0  0  0  0  0  0
   69.7566   47.4206   51.2234 N   0  0  0  0  0  0  0  0  0  0  0  0
   70.3994   48.6492   51.2693 N   0  0  0  0  0  0  0  0  0  0  0  0
   69.9853   49.3199   52.4476 C   0  0  0  0  0  0  0  0  0  0  0  0
   70.3814   50.4640   52.7931 O   0  0  0  0  0  0  0  0  0  0  0  0
   69.0383   48.3940   53.1102 C   0  0  2  0  0  0  0  0  0  0  0  0
 16 17  1  0
 17 18  2  0
 17 22  1  0
 18 19  1  0
 19 20  1  0
 20 21  2  0
 20 22  1  0
 22 15  1  1
 15 14  1  0
 14  1  1  0
  1  2  2  0
  1  3  1  0
  3  4  1  0
  4  5  2  0
  5  6  1  0
  6  7  2  0
  6 12  1  0
  7  8  1  0
  8  9  2  0
  9 10  1  0
  9 11  1  0
 11 12  2  0
 12 13  1  0
M  END
>  <minimizedAffinity>  (512) 
-8.58583

$$$$
data/200k_reference_output/data/smiles/70044.pdb
     RDKit          3D

 24 26  0  0  0  0  0  0  0  0999 V2000
   70.2684   49.2120   53.6702 C   0  0  0  0  0  0  0  0  0  0  0  0
   69.9352   48.5795   54.8418 C   0  0  0  0  0  0  0  0  0  0  0  0
   69.1675   47.4668   54.9348 N   0  0  0  0  0  0  0  0  0  0  0  0
   68.7183   46.9769   53.7525 C   0  0  0  0  0  0  0  0  0  0  0  0
   67.9462   45.8575   53.7218 C   0  0  0  0  0  0  0  0  0  0  0  0
   67.6319   45.2274   54.8724 F   0  0  0  0  0  0  0  0  0  0  0  0
   67.4729   45.3251   52.5279 C   0  0  0  0  0  0  0  0  0  0  0  0
   67.7722   45.9164   51.3294 C   0  0  0  0  0  0  0  0  0  0  0  0
   68.5561   47.0512   51.3541 C   0  0  0  0  0  0  0  0  0  0  0  0
   69.0151   47.5638   52.5469 C   0  0  0  0  0  0  0  0  0  0  0  0
   69.7970   48.6911   52.4998 C   0  0  0  0  0  0  0  0  0  0  0  0
   70.1049   49.2770   51.4231 O   0  0  0  0  0  0  0  0  0  0  0  0
   72.3167   50.2830   53.9624 O   0  0  0  0  0  0  0  0  0  0  0  0
   71.1104   50.4204   53.6666 C   0  0  0  0  0  0  0  0  0  0  0  0
   70.6145   51.6609   53.3545 O   0  0  0  0  0  0  0  0  0  0  0  0
   68.8452   46.8768   56.2191 C   0  0  0  0  0  0  0  0  0  0  0  0
   69.7877   47.2638   57.2928 C   0  0  0  0  0  0  0  0  0  0  0  0
   70.3604   46.3515   58.0248 C   0  0  0  0  0  0  0  0  0  0  0  0
   71.2963   46.6411   59.0978 C   0  0  0  0  0  0  0  0  0  0  0  0
   72.0307   45.6927   59.7459 C   0  0  0  0  0  0  0  0  0  0  0  0
   72.9006   46.0624   60.7585 C   0  0  0  0  0  0  0  0  0  0  0  0
   73.0452   47.3804   61.1334 C   0  0  0  0  0  0  0  0  0  0  0  0
   72.3199   48.3013   60.4905 N   0  0  0  0  0  0  0  0  0  0  0  0
   71.4824   47.9528   59.5161 C   0  0  0  0  0  0  0  0  0  0  0  0
 13 14  2  0
 14 15  1  0
 14  1  1  0
  1  2  2  0
  1 11  1  0
  2  3  1  0
  3 16  1  0
  3  4  1  0
 16 17  1  0
 17 18  2  0
 18 19  1  0
 19 20  2  0
 19 24  1  0
 20 21  1  0
 21 22  2  0
 22 23  1  0
 23 24  2  0
  4  5  1  0
  4 10  2  0
  5  6  1  0
  5  7  2  0
  7  8  1  0
  8  9  2  0
  9 10  1  0
 10 11  1  0
 11 12  2  0
M  END
>  <minimizedAffinity>  (513) 
-8.58491

$$$$
data/reference_output_2/data/smiles/106433.pdb
     RDKit          3D

 24 26  0  0  0  0  0  0  0  0999 V2000
   69.5237   47.0533   56.5550 N   0  0  0  0  0  0  0  0  0  0  0  0
   68.7962   46.1190   55.7542 C   0  0  0  0  0  0  0  0  0  0  0  0
   68.3079   45.0768   56.2555 O   0  0  0  0  0  0  0  0  0  0  0  0
   68.5927   46.3389   54.3176 C   0  0  0  0  0  0  0  0  0  0  0  0
   67.9017   45.4696   53.5028 C   0  0  0  0  0  0  0  0  0  0  0  0
   67.7167   45.6852   52.1563 C   0  0  0  0  0  0  0  0  0  0  0  0
   68.2512   46.8319   51.5948 C   0  0  0  0  0  0  0  0  0  0  0  0
   68.9467   47.7125   52.4011 C   0  0  0  0  0  0  0  0  0  0  0  0
   69.1258   47.4811   53.7581 C   0  0  0  0  0  0  0  0  0  0  0  0
   69.8546   48.4109   54.5879 N   0  0  0  0  0  0  0  0  0  0  0  0
   69.7724   48.3762   56.0277 C   0  0  1  0  0  0  0  0  0  0  0  0
   68.7352   49.3165   56.5635 C   0  0  0  0  0  0  0  0  0  0  0  0
   68.7414   50.6320   56.1703 C   0  0  0  0  0  0  0  0  0  0  0  0
   67.7923   51.5421   56.6432 C   0  0  0  0  0  0  0  0  0  0  0  0
   66.8145   51.1436   57.5247 C   0  0  0  0  0  0  0  0  0  0  0  0
   66.7999   49.8233   57.9250 C   0  0  0  0  0  0  0  0  0  0  0  0
   67.7525   48.9210   57.4473 C   0  0  0  0  0  0  0  0  0  0  0  0
   69.9346   46.7108   57.8690 C   0  0  0  0  0  0  0  0  0  0  0  0
   71.2877   46.2053   58.1396 C   0  0  0  0  0  0  0  0  0  0  0  0
   71.4379   44.9746   58.9618 C   0  0  0  0  0  0  0  0  0  0  0  0
   68.3746   42.8407   59.6572 N   0  0  0  0  0  0  0  0  0  0  0  0
   69.3827   43.8005   59.7455 N   0  0  0  0  0  0  0  0  0  0  0  0
   70.4208   43.9262   58.7727 C   0  0  0  0  0  0  0  0  0  0  0  0
   70.3765   43.1208   57.8240 O   0  0  0  0  0  0  0  0  0  0  0  0
 21 22  1  0
 22 23  1  0
 23 24  2  0
 23 20  1  0
 20 19  1  0
 19 18  1  0
 18  1  1  0
  1  2  1  0
  1 11  1  0
  2  3  2  0
  2  4  1  0
  4  5  1  0
  4  9  2  0
  5  6  2  0
  6  7  1  0
  7  8  2  0
  8  9  1  0
  9 10  1  0
 10 11  1  0
 11 12  1  6
 12 13  2  0
 12 17  1  0
 13 14  1  0
 14 15  2  0
 15 16  1  0
 16 17  2  0
M  END
>  <minimizedAffinity>  (514) 
-8.58415

$$$$
data/reference_output_2/data/smiles/165327.pdb
     RDKit          3D

 24 25  0  0  0  0  0  0  0  0999 V2000
   71.8802   51.3215   54.8851 C   0  0  0  0  0  0  0  0  0  0  0  0
   73.3485   51.3550   55.1151 C   0  0  0  0  0  0  0  0  0  0  0  0
   74.0442   52.1118   54.4052 O   0  0  0  0  0  0  0  0  0  0  0  0
   74.0004   50.5761   56.0943 N   0  0  0  0  0  0  0  0  0  0  0  0
   75.3938   50.6092   56.3095 N   0  0  0  0  0  0  0  0  0  0  0  0
   76.3065   49.8845   55.5203 C   0  0  0  0  0  0  0  0  0  0  0  0
   75.8413   49.1838   54.5877 O   0  0  0  0  0  0  0  0  0  0  0  0
   77.7477   49.9230   55.7479 C   0  0  0  0  0  0  0  0  0  0  0  0
   78.3189   51.0130   56.3738 C   0  0  0  0  0  0  0  0  0  0  0  0
   79.6773   51.0772   56.6014 C   0  0  0  0  0  0  0  0  0  0  0  0
   80.5052   50.0554   56.2113 C   0  0  0  0  0  0  0  0  0  0  0  0
   79.9381   48.9681   55.5869 C   0  0  0  0  0  0  0  0  0  0  0  0
   78.5763   48.9097   55.3617 C   0  0  0  0  0  0  0  0  0  0  0  0
   71.5115   50.1478   54.1890 O   0  0  0  0  0  0  0  0  0  0  0  0
   70.4169   50.0727   53.3433 C   0  0  0  0  0  0  0  0  0  0  0  0
   70.0492   51.0985   52.7326 O   0  0  0  0  0  0  0  0  0  0  0  0
   67.5465   45.1611   52.6937 C   0  0  0  0  0  0  0  0  0  0  0  0
   68.3160   46.4370   52.8073 C   0  0  0  0  0  0  0  0  0  0  0  0
   68.2388   47.1106   54.0078 C   0  0  0  0  0  0  0  0  0  0  0  0
   68.9217   48.2863   54.1741 C   0  0  0  0  0  0  0  0  0  0  0  0
   69.6833   48.8029   53.1561 C   0  0  0  0  0  0  0  0  0  0  0  0
   69.7555   48.1284   51.9616 C   0  0  0  0  0  0  0  0  0  0  0  0
   70.5410   48.6656   50.9182 O   0  0  0  0  0  0  0  0  0  0  0  0
   69.0694   46.9511   51.8029 C   0  0  0  0  0  0  0  0  0  0  0  0
 17 18  1  0
 18 19  2  0
 18 24  1  0
 19 20  1  0
 20 21  2  0
 21 15  1  0
 21 22  1  0
 15 16  2  0
 15 14  1  0
 14  1  1  0
  1  2  1  0
  2  3  2  0
  2  4  1  0
  4  5  1  0
  5  6  1  0
  6  7  2  0
  6  8  1  0
  8  9  2  0
  8 13  1  0
  9 10  1  0
 10 11  2  0
 11 12  1  0
 12 13  2  0
 22 23  1  0
 22 24  2  0
M  END
>  <minimizedAffinity>  (515) 
-8.58368

$$$$
data/200k_reference_output/data/smiles/18927.pdb
     RDKit          3D

 25 27  0  0  0  0  0  0  0  0999 V2000
   69.0385   41.9370   59.9068 C   0  0  0  0  0  0  0  0  0  0  0  0
   68.5574   41.0366   58.8347 C   0  0  0  0  0  0  0  0  0  0  0  0
   68.4800   41.3578   57.4953 C   0  0  0  0  0  0  0  0  0  0  0  0
   68.0083   40.2924   56.8641 N   0  0  0  0  0  0  0  0  0  0  0  0
   67.7755   40.1847   55.5141 O   0  0  0  0  0  0  0  0  0  0  0  0
   67.7970   39.3277   57.7857 C   0  0  0  0  0  0  0  0  0  0  0  0
   68.1371   39.7857   59.0185 N   0  0  0  0  0  0  0  0  0  0  0  0
   68.8653   42.6696   56.9391 C   0  0  0  0  0  0  0  0  0  0  0  0
   70.0674   43.0334   56.9850 O   0  0  0  0  0  0  0  0  0  0  0  0
   67.9641   43.5781   56.3411 N   0  0  0  0  0  0  0  0  0  0  0  0
   68.4103   44.8286   55.8243 N   0  0  0  0  0  0  0  0  0  0  0  0
   68.1322   45.1939   54.6178 C   0  0  0  0  0  0  0  0  0  0  0  0
   68.5516   46.4480   54.0274 C   0  0  0  0  0  0  0  0  0  0  0  0
   68.7763   46.6198   52.6888 C   0  0  0  0  0  0  0  0  0  0  0  0
   69.1745   47.8321   52.1679 C   0  0  0  0  0  0  0  0  0  0  0  0
   69.3615   48.9295   53.0107 C   0  0  0  0  0  0  0  0  0  0  0  0
   69.1391   48.7711   54.3563 C   0  0  0  0  0  0  0  0  0  0  0  0
   68.7421   47.5433   54.8391 C   0  0  0  0  0  0  0  0  0  0  0  0
   68.0364   39.0142   60.2702 C   0  0  0  0  0  0  0  0  0  0  0  0
   66.7420   38.2913   60.3154 C   0  0  0  0  0  0  0  0  0  0  0  0
   66.6921   36.9065   60.3353 C   0  0  0  0  0  0  0  0  0  0  0  0
   65.5072   36.2003   60.3788 C   0  0  0  0  0  0  0  0  0  0  0  0
   64.3178   36.8635   60.4034 C   0  0  0  0  0  0  0  0  0  0  0  0
   64.3378   38.2422   60.3845 C   0  0  0  0  0  0  0  0  0  0  0  0
   65.5387   38.9603   60.3405 C   0  0  0  0  0  0  0  0  0  0  0  0
  1  2  1  0
  2  3  2  0
  2  7  1  0
  3  8  1  0
  3  4  1  0
  8  9  2  0
  8 10  1  0
 10 11  1  0
 11 12  2  0
 12 13  1  0
 13 14  2  0
 13 18  1  0
 14 15  1  0
 15 16  2  0
 16 17  1  0
 17 18  2  0
  4  5  1  0
  4  6  2  0
  6  7  1  0
  7 19  1  0
 19 20  1  0
 20 21  2  0
 20 25  1  0
 21 22  1  0
 22 23  2  0
 23 24  1  0
 24 25  2  0
M  CHG  2   4   1   5  -1
M  END
>  <minimizedAffinity>  (516) 
-8.58347

$$$$
data/200k_reference_output/data/smiles/3076.pdb
     RDKit          3D

 23 25  0  0  0  0  0  0  0  0999 V2000
   71.1819   50.8570   55.4840 S   0  0  0  0  0  0  0  0  0  0  0  0
   70.4563   49.6345   54.3680 C   0  0  0  0  0  0  0  0  0  0  0  0
   69.6414   48.6760   54.8386 N   0  0  0  0  0  0  0  0  0  0  0  0
   69.0983   47.7552   54.0063 C   0  0  0  0  0  0  0  0  0  0  0  0
   68.2537   46.7743   54.5430 C   0  0  0  0  0  0  0  0  0  0  0  0
   67.6857   45.8242   53.7243 C   0  0  0  0  0  0  0  0  0  0  0  0
   67.9873   45.8942   52.3815 C   0  0  0  0  0  0  0  0  0  0  0  0
   68.8113   46.8471   51.8424 C   0  0  0  0  0  0  0  0  0  0  0  0
   69.3837   47.8017   52.6581 C   0  0  0  0  0  0  0  0  0  0  0  0
   70.2196   48.7838   52.1680 C   0  0  0  0  0  0  0  0  0  0  0  0
   70.4719   48.8150   50.9366 O   0  0  0  0  0  0  0  0  0  0  0  0
   70.7230   49.6641   53.0520 N   0  0  0  0  0  0  0  0  0  0  0  0
   72.3091   50.0679   56.6490 C   0  0  0  0  0  0  0  0  0  0  0  0
   73.9928   51.6910   56.7455 O   0  0  0  0  0  0  0  0  0  0  0  0
   73.7091   50.5550   56.3528 C   0  0  0  0  0  0  0  0  0  0  0  0
   74.6298   49.7595   55.6716 N   0  0  0  0  0  0  0  0  0  0  0  0
   75.9609   50.1273   55.3369 C   0  0  0  0  0  0  0  0  0  0  0  0
   77.0894   49.5682   56.1257 C   0  0  0  0  0  0  0  0  0  0  0  0
   78.1914   49.0960   55.2000 C   0  0  0  0  0  0  0  0  0  0  0  0
   79.5123   48.9830   55.8848 C   0  0  0  0  0  0  0  0  0  0  0  0
   79.8302   50.3530   56.4479 C   0  0  0  0  0  0  0  0  0  0  0  0
   78.8462   50.7876   57.4947 C   0  0  0  0  0  0  0  0  0  0  0  0
   77.4907   50.1641   57.3951 C   0  0  0  0  0  0  0  0  0  0  0  0
 14 15  2  0
 15 13  1  0
 15 16  1  0
 13  1  1  0
  1  2  1  0
  2  3  2  0
  2 12  1  0
  3  4  1  0
  4  5  2  0
  4  9  1  0
  5  6  1  0
  6  7  2  0
  7  8  1  0
  8  9  2  0
  9 10  1  0
 10 11  2  0
 10 12  1  0
 16 17  1  0
 17 18  1  0
 18 19  1  0
 18 23  1  0
 19 20  1  0
 20 21  1  0
 21 22  1  0
 22 23  1  0
M  END
>  <minimizedAffinity>  (517) 
-8.58289

$$$$
data/200k_reference_output/data/smiles/38646.pdb
     RDKit          3D

 21 22  0  0  0  0  0  0  0  0999 V2000
   67.7172   42.1038   56.4495 C   0  0  0  0  0  0  0  0  0  0  0  0
   67.1504   41.5693   55.4696 O   0  0  0  0  0  0  0  0  0  0  0  0
   68.0620   41.2687   57.6201 C   0  0  0  0  0  0  0  0  0  0  0  0
   68.0731   39.9724   57.5723 C   0  0  0  0  0  0  0  0  0  0  0  0
   68.3738   38.9934   58.5745 C   0  0  0  0  0  0  0  0  0  0  0  0
   67.2820   38.4328   59.2651 C   0  0  0  0  0  0  0  0  0  0  0  0
   67.4775   37.4857   60.2433 C   0  0  0  0  0  0  0  0  0  0  0  0
   68.7287   37.0357   60.6018 C   0  0  0  0  0  0  0  0  0  0  0  0
   69.8036   37.5697   59.9413 C   0  0  0  0  0  0  0  0  0  0  0  0
   69.6040   38.5368   58.9418 C   0  0  0  0  0  0  0  0  0  0  0  0
   71.0322   39.1626   58.1532 Cl  0  0  0  0  0  0  0  0  0  0  0  0
   67.9769   43.4441   56.3544 O   0  0  0  0  0  0  0  0  0  0  0  0
   67.7303   44.2031   55.2340 N   0  0  0  0  0  0  0  0  0  0  0  0
   68.4575   46.1750   56.1823 N   0  0  0  0  0  0  0  0  0  0  0  0
   68.1809   45.5302   55.0823 C   0  0  0  0  0  0  0  0  0  0  0  0
   68.3377   46.1703   53.7637 C   0  0  0  0  0  0  0  0  0  0  0  0
   67.6972   45.6589   52.6587 C   0  0  0  0  0  0  0  0  0  0  0  0
   67.8203   46.2253   51.4302 C   0  0  0  0  0  0  0  0  0  0  0  0
   68.5872   47.3143   51.2740 N   0  0  0  0  0  0  0  0  0  0  0  0
   69.2244   47.8325   52.3372 C   0  0  0  0  0  0  0  0  0  0  0  0
   69.1209   47.2859   53.5926 C   0  0  0  0  0  0  0  0  0  0  0  0
 14 15  2  0
 15 13  1  0
 15 16  1  0
 13 12  1  0
 12  1  1  0
  1  2  2  0
  1  3  1  0
  3  4  2  0
  4  5  1  0
  5  6  2  0
  5 10  1  0
  6  7  1  0
  7  8  2  0
  8  9  1  0
  9 10  2  0
 10 11  1  0
 16 17  2  0
 16 21  1  0
 17 18  1  0
 18 19  2  0
 19 20  1  0
 20 21  2  0
M  CHG  1  14   1
M  END
>  <minimizedAffinity>  (518) 
-8.58288

$$$$
data/reference_output_2/data/smiles/123782.pdb
     RDKit          3D

 25 28  0  0  0  0  0  0  0  0999 V2000
   69.2606   39.7912   58.0295 C   0  0  0  0  0  0  0  0  0  0  0  0
   68.1702   39.8994   57.1990 C   0  0  0  0  0  0  0  0  0  0  0  0
   68.0496   41.1654   56.7849 N   0  0  0  0  0  0  0  0  0  0  0  0
   67.0365   41.6999   55.9065 C   0  0  0  0  0  0  0  0  0  0  0  0
   69.0386   41.9387   57.3133 C   0  0  0  0  0  0  0  0  0  0  0  0
   69.7949   41.0861   58.0879 C   0  0  0  0  0  0  0  0  0  0  0  0
   70.9671   41.5717   58.8211 C   0  0  0  0  0  0  0  0  0  0  0  0
   71.2942   43.0028   58.7098 C   0  0  0  0  0  0  0  0  0  0  0  0
   70.4296   43.8257   57.8741 C   0  0  0  0  0  0  0  0  0  0  0  0
   70.7352   45.1908   57.7776 C   0  0  0  0  0  0  0  0  0  0  0  0
   69.9551   45.9524   57.0217 N   0  0  0  0  0  0  0  0  0  0  0  0
   68.8718   45.5159   56.3261 C   0  0  0  0  0  0  0  0  0  0  0  0
   68.6071   44.2120   56.4378 N   0  0  0  0  0  0  0  0  0  0  0  0
   69.3355   43.3612   57.1772 C   0  0  0  0  0  0  0  0  0  0  0  0
   71.4726   36.7855   59.0510 C   0  0  0  0  0  0  0  0  0  0  0  0
   70.9697   37.9538   58.3455 N   0  0  0  0  0  0  0  0  0  0  0  0
   69.7787   38.6225   58.7252 C   0  0  0  0  0  0  0  0  0  0  0  0
   69.1353   38.1809   59.7196 O   0  0  0  0  0  0  0  0  0  0  0  0
   68.1187   46.4594   55.5902 N   0  0  0  0  0  0  0  0  0  0  0  0
   68.2743   46.6072   54.1979 C   0  0  0  0  0  0  0  0  0  0  0  0
   69.1183   47.6216   53.7805 C   0  0  0  0  0  0  0  0  0  0  0  0
   69.3324   47.8130   52.4535 C   0  0  0  0  0  0  0  0  0  0  0  0
   68.7217   47.0124   51.4937 C   0  0  0  0  0  0  0  0  0  0  0  0
   67.8904   46.0132   51.9224 C   0  0  0  0  0  0  0  0  0  0  0  0
   67.6604   45.8020   53.2733 C   0  0  0  0  0  0  0  0  0  0  0  0
 15 16  1  0
 16 17  1  0
 17 18  2  0
 17  1  1  0
  1  2  2  0
  1  6  1  0
  2  3  1  0
  3  4  1  0
  3  5  1  0
  5  6  2  0
  5 14  1  0
  6  7  1  0
  7  8  1  0
  8  9  1  0
  9 10  1  0
  9 14  2  0
 10 11  2  0
 11 12  1  0
 12 19  1  0
 12 13  2  0
 19 20  1  0
 20 21  2  0
 20 25  1  0
 21 22  1  0
 22 23  2  0
 23 24  1  0
 24 25  2  0
 13 14  1  0
M  END
>  <minimizedAffinity>  (519) 
-8.58222

$$$$
data/200k_reference_output/data/smiles/58847.pdb
     RDKit          3D

 23 25  0  0  0  0  0  0  0  0999 V2000
   69.4670   42.7594   57.8758 C   0  0  0  0  0  0  0  0  0  0  0  0
   68.8908   43.1241   59.0025 O   0  0  0  0  0  0  0  0  0  0  0  0
   70.7763   42.1994   58.0322 C   0  0  0  0  0  0  0  0  0  0  0  0
   71.0274   40.8130   58.2092 C   0  0  0  0  0  0  0  0  0  0  0  0
   72.3236   40.6050   58.3796 N   0  0  0  0  0  0  0  0  0  0  0  0
   72.9924   41.7650   58.3308 C   0  0  0  0  0  0  0  0  0  0  0  0
   74.3287   42.0776   58.4401 C   0  0  0  0  0  0  0  0  0  0  0  0
   74.7046   43.3800   58.3304 C   0  0  0  0  0  0  0  0  0  0  0  0
   73.8227   44.3960   58.1174 C   0  0  0  0  0  0  0  0  0  0  0  0
   74.2889   46.0786   57.9729 Cl  0  0  0  0  0  0  0  0  0  0  0  0
   72.4716   44.0611   58.0097 C   0  0  0  0  0  0  0  0  0  0  0  0
   72.0195   42.7621   58.1118 C   0  0  0  0  0  0  0  0  0  0  0  0
   67.9340   42.2412   56.0681 O   0  0  0  0  0  0  0  0  0  0  0  0
   68.6344   43.0168   56.7432 C   0  0  0  0  0  0  0  0  0  0  0  0
   68.5303   44.3923   56.2275 N   0  0  0  0  0  0  0  0  0  0  0  0
   67.7370   44.6941   55.1339 N   0  0  0  0  0  0  0  0  0  0  0  0
   68.1508   45.6643   54.2024 C   0  0  0  0  0  0  0  0  0  0  0  0
   67.8736   45.5012   52.8611 C   0  0  0  0  0  0  0  0  0  0  0  0
   68.2639   46.4336   51.9233 C   0  0  0  0  0  0  0  0  0  0  0  0
   68.9455   47.5617   52.2876 C   0  0  0  0  0  0  0  0  0  0  0  0
   69.3669   48.5351   51.4063 O   0  0  0  0  0  0  0  0  0  0  0  0
   69.2312   47.7396   53.6380 C   0  0  0  0  0  0  0  0  0  0  0  0
   68.8407   46.8066   54.5715 C   0  0  0  0  0  0  0  0  0  0  0  0
 13 14  2  0
 14 15  1  0
 14  1  1  0
 15 16  1  0
 16 17  1  0
 17 18  2  0
 17 23  1  0
 18 19  1  0
 19 20  2  0
 20 21  1  0
 20 22  1  0
 22 23  2  0
  1  2  2  0
  1  3  1  0
  3  4  2  0
  3 12  1  0
  4  5  1  0
  5  6  1  0
  6  7  1  0
  6 12  2  0
  7  8  2  0
  8  9  1  0
  9 10  1  0
  9 11  2  0
 11 12  1  0
M  END
>  <minimizedAffinity>  (520) 
-8.58202

$$$$
data/reference_output_2/data/smiles/114581.pdb
     RDKit          3D

 21 22  0  0  0  0  0  0  0  0999 V2000
   69.2956   50.4603   53.3469 C   0  0  0  0  0  0  0  0  0  0  0  0
   70.0465   51.3889   53.8822 C   0  0  0  0  0  0  0  0  0  0  0  0
   71.4673   48.9882   52.8726 O   0  0  0  0  0  0  0  0  0  0  0  0
   70.0286   49.1587   52.4604 S   0  0  0  0  0  0  0  0  0  0  0  0
   69.9653   49.4138   50.9680 O   0  0  0  0  0  0  0  0  0  0  0  0
   69.1220   47.7087   52.8217 C   0  0  0  0  0  0  0  0  0  0  0  0
   68.5956   46.9133   51.8302 C   0  0  0  0  0  0  0  0  0  0  0  0
   67.8784   45.7634   52.1506 C   0  0  0  0  0  0  0  0  0  0  0  0
   67.6839   45.4056   53.4780 C   0  0  0  0  0  0  0  0  0  0  0  0
   68.2075   46.1953   54.4703 C   0  0  0  0  0  0  0  0  0  0  0  0
   68.9112   47.3246   54.1285 C   0  0  0  0  0  0  0  0  0  0  0  0
   69.4098   52.4864   54.6321 C   0  0  0  0  0  0  0  0  0  0  0  0
   69.5063   52.2801   56.3870 S   0  0  0  0  0  0  0  0  0  0  0  0
   68.9953   53.5681   57.0069 O   0  0  0  0  0  0  0  0  0  0  0  0
   70.9108   52.0664   56.8214 O   0  0  0  0  0  0  0  0  0  0  0  0
   68.4899   50.9953   56.9569 C   0  0  0  0  0  0  0  0  0  0  0  0
   68.9355   49.6939   56.9736 C   0  0  0  0  0  0  0  0  0  0  0  0
   68.1528   48.6576   57.4201 C   0  0  0  0  0  0  0  0  0  0  0  0
   66.8786   48.9009   57.8709 C   0  0  0  0  0  0  0  0  0  0  0  0
   66.4384   50.2127   57.8507 C   0  0  0  0  0  0  0  0  0  0  0  0
   67.2170   51.2567   57.4047 C   0  0  0  0  0  0  0  0  0  0  0  0
  3  4  2  0
  4  5  2  0
  4  1  1  0
  4  6  1  0
  1  2  2  0
  2 12  1  0
 12 13  1  0
 13 14  2  0
 13 15  2  0
 13 16  1  0
 16 17  2  0
 16 21  1  0
 17 18  1  0
 18 19  2  0
 19 20  1  0
 20 21  2  0
  6  7  2  0
  6 11  1  0
  7  8  1  0
  8  9  2  0
  9 10  1  0
 10 11  2  0
M  END
>  <minimizedAffinity>  (521) 
-8.58176

$$$$
data/reference_output_2/data/smiles/92191.pdb
     RDKit          3D

 20 21  0  0  0  0  0  0  0  0999 V2000
   70.0862   49.5667   53.0610 S   0  0  0  0  0  0  0  0  0  0  0  0
   69.8064   50.1937   51.7162 O   0  0  0  0  0  0  0  0  0  0  0  0
   71.5456   49.2977   53.2288 O   0  0  0  0  0  0  0  0  0  0  0  0
   70.0101   47.4380   50.9415 N   0  0  0  0  0  0  0  0  0  0  0  0
   69.2563   47.1340   52.0906 C   0  0  0  0  0  0  0  0  0  0  0  0
   68.5485   45.9511   52.2116 C   0  0  0  0  0  0  0  0  0  0  0  0
   67.8229   45.6856   53.3453 C   0  0  0  0  0  0  0  0  0  0  0  0
   67.8085   46.6222   54.3706 C   0  0  0  0  0  0  0  0  0  0  0  0
   68.5108   47.7574   54.2092 N   0  0  0  0  0  0  0  0  0  0  0  0
   69.2282   48.0476   53.1170 C   0  0  0  0  0  0  0  0  0  0  0  0
   69.5437   50.6687   54.3083 C   0  0  0  0  0  0  0  0  0  0  0  0
   69.7612   52.0409   54.2230 C   0  0  0  0  0  0  0  0  0  0  0  0
   69.3105   52.8612   55.2391 C   0  0  0  0  0  0  0  0  0  0  0  0
   68.6506   52.3296   56.3296 C   0  0  0  0  0  0  0  0  0  0  0  0
   68.4206   50.9649   56.4399 C   0  0  0  0  0  0  0  0  0  0  0  0
   68.8809   50.1715   55.4126 C   0  0  0  0  0  0  0  0  0  0  0  0
   67.7092   50.4391   57.6269 C   0  0  0  0  0  0  0  0  0  0  0  0
   66.5338   51.1576   57.8282 F   0  0  0  0  0  0  0  0  0  0  0  0
   67.3333   49.1170   57.4200 F   0  0  0  0  0  0  0  0  0  0  0  0
   68.4647   50.5560   58.7747 F   0  0  0  0  0  0  0  0  0  0  0  0
  4  5  1  0
  5  6  2  0
  5 10  1  0
  6  7  1  0
  7  8  2  0
  8  9  1  0
  9 10  2  0
 10  1  1  0
  1  2  2  0
  1  3  2  0
  1 11  1  0
 11 12  2  0
 11 16  1  0
 12 13  1  0
 13 14  2  0
 14 15  1  0
 15 17  1  0
 15 16  2  0
 17 18  1  0
 17 19  1  0
 17 20  1  0
M  END
>  <minimizedAffinity>  (522) 
-8.58088

$$$$
data/reference_output_2/data/smiles/177421.pdb
     RDKit          3D

 22 24  0  0  0  0  0  0  0  0999 V2000
   67.4811   44.3180   54.7561 N   0  0  0  0  0  0  0  0  0  0  0  0
   69.2053   47.9144   53.3293 C   0  0  0  0  0  0  0  0  0  0  0  0
   69.0692   47.6730   54.6722 C   0  0  0  0  0  0  0  0  0  0  0  0
   68.5021   46.5022   55.1770 C   0  0  0  0  0  0  0  0  0  0  0  0
   68.0514   45.5292   54.3223 C   0  0  0  0  0  0  0  0  0  0  0  0
   68.1926   45.7796   52.9496 C   0  0  0  0  0  0  0  0  0  0  0  0
   68.7496   46.9304   52.4781 C   0  0  0  0  0  0  0  0  0  0  0  0
   71.5158   49.5423   53.3896 N   0  0  0  0  0  0  0  0  0  0  0  0
   69.9181   49.3852   52.7050 S   0  0  0  0  0  0  0  0  0  0  0  0
   69.1447   50.5946   53.0791 O   0  0  0  0  0  0  0  0  0  0  0  0
   70.1210   49.2778   51.2037 O   0  0  0  0  0  0  0  0  0  0  0  0
   67.9460   43.5444   55.8467 C   0  0  0  0  0  0  0  0  0  0  0  0
   69.0346   43.7040   56.6137 N   0  0  0  0  0  0  0  0  0  0  0  0
   69.0756   42.7295   57.5326 C   0  0  0  0  0  0  0  0  0  0  0  0
   67.9742   41.9425   57.3243 C   0  0  0  0  0  0  0  0  0  0  0  0
   67.3398   42.4623   56.3215 O   0  0  0  0  0  0  0  0  0  0  0  0
   67.6428   40.7600   58.1209 C   0  0  0  0  0  0  0  0  0  0  0  0
   68.2437   39.5431   57.8770 C   0  0  0  0  0  0  0  0  0  0  0  0
   67.9324   38.4220   58.6274 C   0  0  0  0  0  0  0  0  0  0  0  0
   67.0085   38.4694   59.6499 C   0  0  0  0  0  0  0  0  0  0  0  0
   66.4061   39.6965   59.8919 C   0  0  0  0  0  0  0  0  0  0  0  0
   66.7189   40.8110   59.1433 C   0  0  0  0  0  0  0  0  0  0  0  0
  8  9  1  0
  9 10  2  0
  9 11  2  0
  9  2  1  0
  2  3  2  0
  2  7  1  0
  3  4  1  0
  4  5  2  0
  5  1  1  0
  5  6  1  0
  1 12  1  0
 12 13  2  0
 12 16  1  0
 13 14  1  0
 14 15  2  0
 15 17  1  0
 15 16  1  0
 17 18  2  0
 17 22  1  0
 18 19  1  0
 19 20  2  0
 20 21  1  0
 21 22  2  0
  6  7  2  0
M  END
>  <minimizedAffinity>  (523) 
-8.58082

$$$$
data/200k_reference_output/data/smiles/68395.pdb
     RDKit          3D

 23 25  0  0  0  0  0  0  0  0999 V2000
   68.9441   46.7856   56.5500 C   0  0  0  0  0  0  0  0  0  0  0  0
   68.8924   47.1101   57.8135 O   0  0  0  0  0  0  0  0  0  0  0  0
   68.6674   47.7624   55.6044 N   0  0  0  0  0  0  0  0  0  0  0  0
   68.4675   49.1137   56.0864 C   0  0  0  0  0  0  0  0  0  0  0  0
   67.7130   49.1470   57.2247 C   0  0  0  0  0  0  0  0  0  0  0  0
   67.4168   50.3386   57.8438 C   0  0  0  0  0  0  0  0  0  0  0  0
   67.8807   51.5196   57.3169 C   0  0  0  0  0  0  0  0  0  0  0  0
   68.6408   51.5070   56.1717 C   0  0  0  0  0  0  0  0  0  0  0  0
   68.9461   50.2934   55.5382 C   0  0  0  0  0  0  0  0  0  0  0  0
   69.7507   50.5059   54.3940 N   0  0  0  0  0  0  0  0  0  0  0  0
   70.3852   51.8532   54.3402 C   0  0  0  0  0  0  0  0  0  0  0  0
   70.1261   49.4753   53.0779 S   0  0  0  0  0  0  0  0  0  0  0  0
   71.6043   49.1782   53.0166 O   0  0  0  0  0  0  0  0  0  0  0  0
   69.7091   50.1739   51.7744 O   0  0  0  0  0  0  0  0  0  0  0  0
   69.1877   48.0235   53.1419 C   0  0  0  0  0  0  0  0  0  0  0  0
   68.9977   47.4472   51.8714 C   0  0  0  0  0  0  0  0  0  0  0  0
   68.2527   46.3057   51.6906 C   0  0  0  0  0  0  0  0  0  0  0  0
   67.6759   45.7121   52.7900 C   0  0  0  0  0  0  0  0  0  0  0  0
   67.8552   46.2685   54.0301 C   0  0  0  0  0  0  0  0  0  0  0  0
   68.6042   47.4095   54.2152 C   0  0  0  0  0  0  0  0  0  0  0  0
   69.3212   45.3885   56.2787 C   0  0  0  0  0  0  0  0  0  0  0  0
   69.6855   43.2765   57.3772 C   0  0  0  0  0  0  0  0  0  0  0  0
   69.6557   44.6981   57.5489 N   0  0  0  0  0  0  0  0  0  0  0  0
 22 23  1  0
 23 21  1  0
 21  1  1  0
  1  2  2  0
  1  3  1  0
  3  4  1  0
  3 20  1  0
  4  5  2  0
  4  9  1  0
  5  6  1  0
  6  7  2  0
  7  8  1  0
  8  9  2  0
  9 10  1  0
 10 11  1  0
 10 12  1  0
 12 13  2  0
 12 14  2  0
 12 15  1  0
 15 16  2  0
 15 20  1  0
 16 17  1  0
 17 18  2  0
 18 19  1  0
 19 20  2  0
M  CHG  1  23   1
M  END
>  <minimizedAffinity>  (524) 
-8.57920

$$$$
data/200k_reference_output/data/smiles/61596.pdb
     RDKit          3D

 23 25  0  0  0  0  0  0  0  0999 V2000
   71.5375   50.6087   55.0878 N   0  0  0  0  0  0  0  0  0  0  0  0
   70.8138   49.6664   54.2781 C   0  0  0  0  0  0  0  0  0  0  0  0
   69.9623   48.7827   54.8155 N   0  0  0  0  0  0  0  0  0  0  0  0
   69.2686   47.8875   54.0883 C   0  0  0  0  0  0  0  0  0  0  0  0
   68.3943   46.9782   54.6353 C   0  0  0  0  0  0  0  0  0  0  0  0
   67.6948   46.0690   53.8624 C   0  0  0  0  0  0  0  0  0  0  0  0
   67.8590   46.0487   52.4930 C   0  0  0  0  0  0  0  0  0  0  0  0
   68.7459   46.9697   51.9393 C   0  0  0  0  0  0  0  0  0  0  0  0
   69.4407   47.8761   52.7210 C   0  0  0  0  0  0  0  0  0  0  0  0
   70.3248   48.7985   52.1916 C   0  0  0  0  0  0  0  0  0  0  0  0
   70.4787   48.7840   50.9425 O   0  0  0  0  0  0  0  0  0  0  0  0
   70.9682   49.6455   52.9736 O   0  0  0  0  0  0  0  0  0  0  0  0
   71.5379   52.0130   54.7887 C   0  0  2  0  0  0  0  0  0  0  0  0
   73.8548   52.6292   55.5640 N   0  0  0  0  0  0  0  0  0  0  0  0
   72.9200   52.4843   54.5181 C   0  0  0  0  0  0  0  0  0  0  0  0
   73.2534   52.7533   53.3488 O   0  0  0  0  0  0  0  0  0  0  0  0
   70.9135   52.7871   55.9189 C   0  0  0  0  0  0  0  0  0  0  0  0
   69.7875   52.0428   56.5046 C   0  0  0  0  0  0  0  0  0  0  0  0
   68.5169   52.0401   55.9887 C   0  0  0  0  0  0  0  0  0  0  0  0
   67.4859   51.3268   56.6043 C   0  0  0  0  0  0  0  0  0  0  0  0
   67.7213   50.6063   57.7472 C   0  0  0  0  0  0  0  0  0  0  0  0
   68.9877   50.5933   58.2832 C   0  0  0  0  0  0  0  0  0  0  0  0
   70.0140   51.3032   57.6708 C   0  0  0  0  0  0  0  0  0  0  0  0
 14 15  1  0
 15 16  2  0
 15 13  1  0
 13 17  1  1
 13  1  1  0
 17 18  1  0
 18 19  2  0
 18 23  1  0
 19 20  1  0
 20 21  2  0
 21 22  1  0
 22 23  2  0
  1  2  1  0
  2  3  2  0
  2 12  1  0
  3  4  1  0
  4  5  2  0
  4  9  1  0
  5  6  1  0
  6  7  2  0
  7  8  1  0
  8  9  2  0
  9 10  1  0
 10 11  2  0
 10 12  1  0
M  END
>  <minimizedAffinity>  (525) 
-8.57871

$$$$
data/reference_output_2/data/smiles/142993.pdb
     RDKit          3D

 24 26  0  0  0  0  0  0  0  0999 V2000
   70.4518   52.0078   55.8773 C   0  0  0  0  0  0  0  0  0  0  0  0
   70.0466   51.4103   57.0577 C   0  0  0  0  0  0  0  0  0  0  0  0
   69.5018   50.1429   57.0801 C   0  0  0  0  0  0  0  0  0  0  0  0
   69.3313   49.3991   55.9206 C   0  0  0  0  0  0  0  0  0  0  0  0
   69.7351   49.9933   54.7437 C   0  0  0  0  0  0  0  0  0  0  0  0
   70.2864   51.2767   54.7232 C   0  0  0  0  0  0  0  0  0  0  0  0
   70.6768   51.8304   53.5161 O   0  0  0  0  0  0  0  0  0  0  0  0
   69.5781   49.2558   53.5102 C   0  0  0  0  0  0  0  0  0  0  0  0
   69.9528   49.8098   52.4279 O   0  0  0  0  0  0  0  0  0  0  0  0
   69.0076   47.9254   53.5420 C   0  0  0  0  0  0  0  0  0  0  0  0
   68.8687   47.2370   52.3472 C   0  0  0  0  0  0  0  0  0  0  0  0
   69.2835   47.8587   51.1788 O   0  0  0  0  0  0  0  0  0  0  0  0
   68.3292   45.9743   52.3703 C   0  0  0  0  0  0  0  0  0  0  0  0
   67.9357   45.4068   53.5548 C   0  0  0  0  0  0  0  0  0  0  0  0
   68.0687   46.0821   54.7492 C   0  0  0  0  0  0  0  0  0  0  0  0
   68.6168   47.3674   54.7349 C   0  0  0  0  0  0  0  0  0  0  0  0
   68.7416   48.0503   56.0171 C   0  0  0  0  0  0  0  0  0  0  0  0
   71.0381   53.3679   55.8383 C   0  0  0  0  0  0  0  0  0  0  0  0
   72.5026   53.3759   56.1318 C   0  0  0  0  0  0  0  0  0  0  0  0
   73.3605   53.8045   54.9971 C   0  0  0  0  0  0  0  0  0  0  0  0
   73.9560   52.9839   52.8172 O   0  0  0  0  0  0  0  0  0  0  0  0
   73.6638   52.7357   54.0202 C   0  0  0  0  0  0  0  0  0  0  0  0
   73.6390   51.3666   54.4010 N   0  0  0  0  0  0  0  0  0  0  0  0
   73.9239   50.4130   53.4785 O   0  0  0  0  0  0  0  0  0  0  0  0
 21 22  2  0
 22 20  1  0
 22 23  1  0
 20 19  1  0
 19 18  1  0
 18  1  1  0
  1  2  2  0
  1  6  1  0
  2  3  1  0
  3  4  2  0
  4  5  1  0
  4 17  1  0
  5  6  2  0
  5  8  1  0
  6  7  1  0
  8  9  2  0
  8 10  1  0
 10 11  2  0
 10 16  1  0
 11 12  1  0
 11 13  1  0
 13 14  2  0
 14 15  1  0
 15 16  2  0
 16 17  1  0
 23 24  1  0
M  END
>  <minimizedAffinity>  (526) 
-8.57823

$$$$
data/reference_output_2/data/smiles/108139.pdb
     RDKit          3D

 25 27  0  0  0  0  0  0  0  0999 V2000
   67.7710   41.4327   57.2395 C   0  0  0  0  0  0  0  0  0  0  0  0
   68.2149   40.1320   57.1701 C   0  0  0  0  0  0  0  0  0  0  0  0
   67.8539   39.2153   58.1342 C   0  0  0  0  0  0  0  0  0  0  0  0
   67.0293   39.6192   59.1895 C   0  0  0  0  0  0  0  0  0  0  0  0
   66.5739   40.9187   59.2762 C   0  0  0  0  0  0  0  0  0  0  0  0
   66.9614   41.8077   58.2848 C   0  0  0  0  0  0  0  0  0  0  0  0
   67.5319   43.4479   55.9400 N   0  0  0  0  0  0  0  0  0  0  0  0
   68.1788   42.3764   56.1927 C   0  0  0  0  0  0  0  0  0  0  0  0
   68.4618   46.0196   56.4115 O   0  0  0  0  0  0  0  0  0  0  0  0
   68.3527   45.6658   55.2041 C   0  0  0  0  0  0  0  0  0  0  0  0
   67.8861   44.3726   54.9509 N   0  0  0  0  0  0  0  0  0  0  0  0
   68.7216   46.6317   54.1781 C   0  0  0  0  0  0  0  0  0  0  0  0
   69.2461   47.8743   54.4663 C   0  0  0  0  0  0  0  0  0  0  0  0
   69.5931   48.7830   53.5050 C   0  0  0  0  0  0  0  0  0  0  0  0
   69.4349   48.4948   52.2226 N   0  0  0  0  0  0  0  0  0  0  0  0
   69.7856   49.4141   51.2405 O   0  0  0  0  0  0  0  0  0  0  0  0
   68.9245   47.2885   51.8846 C   0  0  0  0  0  0  0  0  0  0  0  0
   68.5666   46.3561   52.8333 C   0  0  0  0  0  0  0  0  0  0  0  0
   65.7562   41.3013   60.3303 O   0  0  0  0  0  0  0  0  0  0  0  0
   66.3484   41.5763   61.5414 C   0  0  0  0  0  0  0  0  0  0  0  0
   66.0768   40.8263   62.6579 C   0  0  0  0  0  0  0  0  0  0  0  0
   66.6697   41.0975   63.8839 C   0  0  0  0  0  0  0  0  0  0  0  0
   67.5500   42.1352   64.0002 C   0  0  0  0  0  0  0  0  0  0  0  0
   67.8403   42.9023   62.9012 C   0  0  0  0  0  0  0  0  0  0  0  0
   67.2355   42.6169   61.6772 C   0  0  0  0  0  0  0  0  0  0  0  0
  9 10  2  0
 10 11  1  0
 10 12  1  0
 11  7  1  0
  7  8  2  0
  8  1  1  0
  1  2  2  0
  1  6  1  0
  2  3  1  0
  3  4  2  0
  4  5  1  0
  5 19  1  0
  5  6  2  0
 19 20  1  0
 20 21  2  0
 20 25  1  0
 21 22  1  0
 22 23  2  0
 23 24  1  0
 24 25  2  0
 12 13  2  0
 12 18  1  0
 13 14  1  0
 14 15  2  0
 15 16  1  0
 15 17  1  0
 17 18  2  0
M  CHG  2  15   1  16  -1
M  END
>  <minimizedAffinity>  (527) 
-8.57648

$$$$
data/reference_output_2/data/smiles/94408.pdb
     RDKit          3D

 23 25  0  0  0  0  0  0  0  0999 V2000
   71.9488   51.0120   54.3447 N   0  0  0  0  0  0  0  0  0  0  0  0
   70.8763   51.7642   54.0425 C   0  0  0  0  0  0  0  0  0  0  0  0
   69.8783   50.9515   53.6293 C   0  0  0  0  0  0  0  0  0  0  0  0
   70.3363   49.6599   53.6725 C   0  0  0  0  0  0  0  0  0  0  0  0
   71.5873   49.7450   54.1101 N   0  0  0  0  0  0  0  0  0  0  0  0
   69.5967   48.4538   53.3134 C   0  0  0  0  0  0  0  0  0  0  0  0
   69.4419   48.0650   51.9988 C   0  0  0  0  0  0  0  0  0  0  0  0
   68.7464   46.9280   51.6422 C   0  0  0  0  0  0  0  0  0  0  0  0
   68.1699   46.1230   52.5995 C   0  0  0  0  0  0  0  0  0  0  0  0
   67.4777   44.9947   52.2805 F   0  0  0  0  0  0  0  0  0  0  0  0
   68.3238   46.5100   53.9234 C   0  0  0  0  0  0  0  0  0  0  0  0
   67.7600   45.7241   54.8712 F   0  0  0  0  0  0  0  0  0  0  0  0
   69.0200   47.6477   54.2727 C   0  0  0  0  0  0  0  0  0  0  0  0
   73.1929   51.5079   54.8149 C   0  0  0  0  0  0  0  0  0  0  0  0
   73.8065   50.9840   56.0403 C   0  0  0  0  0  0  0  0  0  0  0  0
   75.5766   49.1713   54.6643 O   0  0  0  0  0  0  0  0  0  0  0  0
   76.0636   49.9775   55.4855 C   0  0  0  0  0  0  0  0  0  0  0  0
   75.2118   50.8768   56.1584 N   0  0  0  0  0  0  0  0  0  0  0  0
   77.4642   49.9596   55.7155 N   0  0  0  0  0  0  0  0  0  0  0  0
   78.3904   49.0653   55.0603 C   0  0  0  0  0  0  0  0  0  0  0  0
   79.7522   49.4268   55.6185 C   0  0  0  0  0  0  0  0  0  0  0  0
   79.3739   49.9316   57.0000 C   0  0  0  0  0  0  0  0  0  0  0  0
   78.1890   50.8390   56.6460 C   0  0  0  0  0  0  0  0  0  0  0  0
 16 17  2  0
 17 18  1  0
 17 19  1  0
 18 15  1  0
 15 14  1  0
 14  1  1  0
  1  2  1  0
  1  5  1  0
  2  3  2  0
  3  4  1  0
  4  6  1  0
  4  5  2  0
  6  7  2  0
  6 13  1  0
  7  8  1  0
  8  9  2  0
  9 10  1  0
  9 11  1  0
 11 12  1  0
 11 13  2  0
 19 20  1  0
 19 23  1  0
 20 21  1  0
 21 22  1  0
 22 23  1  0
M  END
>  <minimizedAffinity>  (528) 
-8.57561

$$$$
data/reference_output_2/data/smiles/108436.pdb
     RDKit          3D

 23 24  0  0  0  0  0  0  0  0999 V2000
   70.7264   44.6137   58.5270 S   0  0  0  0  0  0  0  0  0  0  0  0
   72.0604   44.5451   57.8147 O   0  0  0  0  0  0  0  0  0  0  0  0
   70.9826   44.8453   59.9888 O   0  0  0  0  0  0  0  0  0  0  0  0
   68.0728   39.1916   57.9576 C   0  0  0  0  0  0  0  0  0  0  0  0
   68.7260   40.5190   58.1019 C   0  0  0  0  0  0  0  0  0  0  0  0
   69.6544   40.7716   59.1023 C   0  0  0  0  0  0  0  0  0  0  0  0
   70.2478   42.0118   59.2169 C   0  0  0  0  0  0  0  0  0  0  0  0
   69.9540   43.0518   58.3543 C   0  0  0  0  0  0  0  0  0  0  0  0
   69.0333   42.8053   57.3595 C   0  0  0  0  0  0  0  0  0  0  0  0
   68.4269   41.5506   57.2378 C   0  0  0  0  0  0  0  0  0  0  0  0
   67.4727   41.3229   56.1931 N   0  0  0  0  0  0  0  0  0  0  0  0
   66.4553   42.0147   56.0425 O   0  0  0  0  0  0  0  0  0  0  0  0
   67.6958   40.2880   55.3184 O   0  0  0  0  0  0  0  0  0  0  0  0
   69.7397   45.8652   57.8656 N   0  0  0  0  0  0  0  0  0  0  0  0
   69.5881   45.9122   56.4768 N   0  0  0  0  0  0  0  0  0  0  0  0
   68.7650   46.6885   55.8683 C   0  0  0  0  0  0  0  0  0  0  0  0
   68.6401   46.7030   54.4067 C   0  0  0  0  0  0  0  0  0  0  0  0
   69.1321   47.7378   53.6436 C   0  0  0  0  0  0  0  0  0  0  0  0
   69.0135   47.7496   52.2665 C   0  0  0  0  0  0  0  0  0  0  0  0
   68.3888   46.7107   51.6069 C   0  0  0  0  0  0  0  0  0  0  0  0
   67.8925   45.6702   52.3650 C   0  0  0  0  0  0  0  0  0  0  0  0
   68.0152   45.6634   53.7541 C   0  0  0  0  0  0  0  0  0  0  0  0
   67.5232   44.6365   54.4785 F   0  0  0  0  0  0  0  0  0  0  0  0
  4  5  1  0
  5  6  2  0
  5 10  1  0
  6  7  1  0
  7  8  2  0
  8  1  1  0
  8  9  1  0
  1  2  2  0
  1  3  2  0
  1 14  1  0
 14 15  1  0
 15 16  2  0
 16 17  1  0
 17 18  2  0
 17 22  1  0
 18 19  1  0
 19 20  2  0
 20 21  1  0
 21 22  2  0
 22 23  1  0
  9 10  2  0
 10 11  1  0
 11 12  2  0
 11 13  1  0
M  CHG  2  11   1  13  -1
M  END
>  <minimizedAffinity>  (529) 
-8.57484

$$$$
data/reference_output_2/data/smiles/140790.pdb
     RDKit          3D

 23 25  0  0  0  0  0  0  0  0999 V2000
   70.1654   45.4919   57.1356 O   0  0  0  0  0  0  0  0  0  0  0  0
   69.8229   44.2896   57.2332 C   0  0  0  0  0  0  0  0  0  0  0  0
   70.3401   43.2460   58.0364 N   0  0  0  0  0  0  0  0  0  0  0  0
   69.6392   42.0258   57.8239 C   0  0  0  0  0  0  0  0  0  0  0  0
   69.7667   40.7461   58.3618 C   0  0  0  0  0  0  0  0  0  0  0  0
   68.9370   39.7160   57.9718 C   0  0  0  0  0  0  0  0  0  0  0  0
   69.0652   38.4651   58.5011 F   0  0  0  0  0  0  0  0  0  0  0  0
   67.9733   40.0041   57.0263 C   0  0  0  0  0  0  0  0  0  0  0  0
   67.8486   41.2711   56.4938 C   0  0  0  0  0  0  0  0  0  0  0  0
   68.6757   42.3116   56.8778 C   0  0  0  0  0  0  0  0  0  0  0  0
   68.7319   43.7096   56.4636 C   0  0  0  0  0  0  0  0  0  0  0  0
   67.9957   44.3353   55.6050 N   0  0  0  0  0  0  0  0  0  0  0  0
   68.1728   45.6862   55.3119 N   0  0  0  0  0  0  0  0  0  0  0  0
   68.2791   46.1896   53.9972 C   0  0  0  0  0  0  0  0  0  0  0  0
   67.6376   45.6110   52.9238 C   0  0  0  0  0  0  0  0  0  0  0  0
   66.8801   44.5275   53.1244 F   0  0  0  0  0  0  0  0  0  0  0  0
   67.7644   46.1334   51.6379 C   0  0  0  0  0  0  0  0  0  0  0  0
   67.1364   45.5721   50.5763 F   0  0  0  0  0  0  0  0  0  0  0  0
   68.5282   47.2227   51.4503 N   0  0  0  0  0  0  0  0  0  0  0  0
   69.1787   47.8213   52.4919 C   0  0  0  0  0  0  0  0  0  0  0  0
   69.9429   48.9147   52.2830 F   0  0  0  0  0  0  0  0  0  0  0  0
   69.0527   47.3028   53.7641 C   0  0  0  0  0  0  0  0  0  0  0  0
   69.6970   47.8965   54.7953 F   0  0  0  0  0  0  0  0  0  0  0  0
  1  2  2  0
  2  3  1  0
  2 11  1  0
  3  4  1  0
  4  5  2  0
  4 10  1  0
  5  6  1  0
  6  7  1  0
  6  8  2  0
  8  9  1  0
  9 10  2  0
 10 11  1  0
 11 12  2  0
 12 13  1  0
 13 14  1  0
 14 15  2  0
 14 22  1  0
 15 16  1  0
 15 17  1  0
 17 18  1  0
 17 19  2  0
 19 20  1  0
 20 21  1  0
 20 22  2  0
 22 23  1  0
M  END
>  <minimizedAffinity>  (530) 
-8.57427

$$$$
data/200k_reference_output/data/smiles/17969.pdb
     RDKit          3D

 24 27  0  0  0  0  0  0  0  0999 V2000
   69.2247   47.6657   52.4730 C   0  0  0  0  0  0  0  0  0  0  0  0
   68.6719   46.9195   51.4549 C   0  0  0  0  0  0  0  0  0  0  0  0
   67.8263   45.8749   51.7602 C   0  0  0  0  0  0  0  0  0  0  0  0
   67.5442   45.5909   53.0789 C   0  0  0  0  0  0  0  0  0  0  0  0
   68.0761   46.3116   54.1103 C   0  0  0  0  0  0  0  0  0  0  0  0
   67.9705   46.2501   55.4683 N   0  0  0  0  0  0  0  0  0  0  0  0
   68.7177   47.2155   55.9957 C   0  0  0  0  0  0  0  0  0  0  0  0
   69.2925   47.8819   54.9741 N   0  0  0  0  0  0  0  0  0  0  0  0
   68.9303   47.3643   53.7845 C   0  0  0  0  0  0  0  0  0  0  0  0
   68.9296   47.5557   57.4382 C   0  0  1  0  0  0  0  0  0  0  0  0
   70.3364   47.1428   57.8045 C   0  0  0  0  0  0  0  0  0  0  0  0
   71.0852   48.4471   57.6261 C   0  0  0  0  0  0  0  0  0  0  0  0
   70.1880   49.3781   58.2702 N   0  0  2  0  0  0  0  0  0  0  0  0
   68.9209   49.0495   57.6761 C   0  0  0  0  0  0  0  0  0  0  0  0
   70.5759   50.7479   58.1659 C   0  0  0  0  0  0  0  0  0  0  0  0
   70.1631   51.3942   56.8784 C   0  0  0  0  0  0  0  0  0  0  0  0
   69.1248   52.3011   56.8579 C   0  0  0  0  0  0  0  0  0  0  0  0
   68.7692   52.8718   55.6768 C   0  0  0  0  0  0  0  0  0  0  0  0
   69.4330   52.5562   54.5021 C   0  0  0  0  0  0  0  0  0  0  0  0
   70.4703   51.6493   54.5321 C   0  0  0  0  0  0  0  0  0  0  0  0
   70.7918   51.1067   55.7181 N   0  0  0  0  0  0  0  0  0  0  0  0
   69.7768   49.7038   51.1120 N   0  0  0  0  0  0  0  0  0  0  0  0
   70.1111   48.7580   52.1197 C   0  0  0  0  0  0  0  0  0  0  0  0
   71.2216   48.8819   52.7223 O   0  0  0  0  0  0  0  0  0  0  0  0
 22 23  1  0
 23 24  2  0
 23  1  1  0
  1  2  2  0
  1  9  1  0
  2  3  1  0
  3  4  2  0
  4  5  1  0
  5  6  1  0
  5  9  2  0
  6  7  2  0
 10  7  1  6
  7  8  1  0
 10 11  1  0
 10 14  1  0
 11 12  1  0
 12 13  1  0
 13 15  1  6
 13 14  1  0
 15 16  1  0
 16 17  2  0
 16 21  1  0
 17 18  1  0
 18 19  2  0
 19 20  1  0
 20 21  2  0
  8  9  1  0
M  CHG  2   6   1  13   1
M  END
>  <minimizedAffinity>  (531) 
-8.57423

$$$$
data/200k_reference_output/data/smiles/67570.pdb
     RDKit          3D

 24 26  0  0  0  0  0  0  0  0999 V2000
   68.6189   47.5654   53.6554 C   0  0  0  0  0  0  0  0  0  0  0  0
   67.9574   47.0117   52.5745 C   0  0  0  0  0  0  0  0  0  0  0  0
   67.5441   45.6966   52.5811 C   0  0  0  0  0  0  0  0  0  0  0  0
   66.9344   45.2175   51.5626 O   0  0  0  0  0  0  0  0  0  0  0  0
   67.7760   44.9429   53.6270 O   0  0  0  0  0  0  0  0  0  0  0  0
   68.4039   45.4335   54.6779 C   0  0  0  0  0  0  0  0  0  0  0  0
   68.6548   44.6363   55.7987 C   0  0  0  0  0  0  0  0  0  0  0  0
   69.2949   45.0839   56.9077 C   0  0  0  0  0  0  0  0  0  0  0  0
   69.7122   46.4268   56.8910 C   0  0  0  0  0  0  0  0  0  0  0  0
   69.4954   47.2539   55.8237 C   0  0  0  0  0  0  0  0  0  0  0  0
   68.8401   46.7339   54.7315 C   0  0  0  0  0  0  0  0  0  0  0  0
   69.0351   48.9641   53.5951 C   0  0  0  0  0  0  0  0  0  0  0  0
   69.8408   49.4873   51.2870 N   0  0  0  0  0  0  0  0  0  0  0  0
   70.1578   49.1611   52.6286 C   0  0  0  0  0  0  0  0  0  0  0  0
   71.3699   49.0538   52.9337 O   0  0  0  0  0  0  0  0  0  0  0  0
   69.5486   44.3543   57.9924 O   0  0  0  0  0  0  0  0  0  0  0  0
   70.1755   43.2181   58.3604 C   0  0  0  0  0  0  0  0  0  0  0  0
   69.4041   41.9440   58.2402 C   0  0  0  0  0  0  0  0  0  0  0  0
   69.2016   41.0704   59.2732 C   0  0  0  0  0  0  0  0  0  0  0  0
   68.4868   39.9207   59.0631 C   0  0  0  0  0  0  0  0  0  0  0  0
   67.9457   39.5814   57.8386 C   0  0  0  0  0  0  0  0  0  0  0  0
   68.1505   40.4633   56.8006 C   0  0  0  0  0  0  0  0  0  0  0  0
   67.6255   40.1779   55.5292 O   0  0  0  0  0  0  0  0  0  0  0  0
   68.8647   41.6204   56.9960 C   0  0  0  0  0  0  0  0  0  0  0  0
 13 14  1  0
 14 15  2  0
 14 12  1  0
 12  1  1  0
  1  2  2  0
  1 11  1  0
  2  3  1  0
  3  4  2  0
  3  5  1  0
  5  6  1  0
  6  7  1  0
  6 11  2  0
  7  8  2  0
  8 16  1  0
  8  9  1  0
 16 17  1  0
 17 18  1  0
 18 19  2  0
 18 24  1  0
 19 20  1  0
 20 21  2  0
 21 22  1  0
 22 23  1  0
 22 24  2  0
  9 10  2  0
 10 11  1  0
M  END
>  <minimizedAffinity>  (532) 
-8.57363

$$$$
data/200k_reference_output/data/smiles/57643.pdb
     RDKit          3D

 24 26  0  0  0  0  0  0  0  0999 V2000
   70.7533   51.4382   53.4252 O   0  0  0  0  0  0  0  0  0  0  0  0
   70.9668   50.2661   53.8456 C   0  0  0  0  0  0  0  0  0  0  0  0
   71.9554   50.1054   54.8159 N   0  0  0  0  0  0  0  0  0  0  0  0
   70.1877   49.1569   53.3109 C   0  0  0  0  0  0  0  0  0  0  0  0
   69.9983   48.9906   51.9479 C   0  0  0  0  0  0  0  0  0  0  0  0
   69.2800   47.9657   51.4617 N   0  0  0  0  0  0  0  0  0  0  0  0
   68.7095   47.0532   52.2680 C   0  0  0  0  0  0  0  0  0  0  0  0
   67.9595   45.9837   51.7855 C   0  0  0  0  0  0  0  0  0  0  0  0
   67.3784   45.0526   52.6235 C   0  0  0  0  0  0  0  0  0  0  0  0
   67.5231   45.1521   53.9957 C   0  0  0  0  0  0  0  0  0  0  0  0
   68.2648   46.2110   54.4648 C   0  0  0  0  0  0  0  0  0  0  0  0
   68.8482   47.1444   53.6365 C   0  0  0  0  0  0  0  0  0  0  0  0
   69.6005   48.2182   54.1262 C   0  0  0  0  0  0  0  0  0  0  0  0
   72.7494   51.1811   55.3720 C   0  0  2  0  0  0  0  0  0  0  0  0
   74.1754   51.0511   55.1126 C   0  0  0  0  0  0  0  0  0  0  0  0
   74.9512   51.9694   55.4761 O   0  0  0  0  0  0  0  0  0  0  0  0
   74.7441   49.9603   54.4766 O   0  0  0  0  0  0  0  0  0  0  0  0
   72.3978   51.2814   56.8401 C   0  0  0  0  0  0  0  0  0  0  0  0
   70.9266   51.3540   57.0324 C   0  0  0  0  0  0  0  0  0  0  0  0
   70.2607   52.5072   56.6536 C   0  0  0  0  0  0  0  0  0  0  0  0
   68.8946   52.6255   56.8103 C   0  0  0  0  0  0  0  0  0  0  0  0
   68.1700   51.5696   57.3590 C   0  0  0  0  0  0  0  0  0  0  0  0
   68.8327   50.4236   57.7366 C   0  0  0  0  0  0  0  0  0  0  0  0
   70.1960   50.3124   57.5765 C   0  0  0  0  0  0  0  0  0  0  0  0
  1  2  2  0
  2  3  1  0
  2  4  1  0
  3 14  1  0
 14 18  1  1
 14 15  1  0
 18 19  1  0
 19 20  2  0
 19 24  1  0
 20 21  1  0
 21 22  2  0
 22 23  1  0
 23 24  2  0
 15 16  2  0
 15 17  1  0
  4  5  2  0
  4 13  1  0
  5  6  1  0
  6  7  2  0
  7  8  1  0
  7 12  1  0
  8  9  2  0
  9 10  1  0
 10 11  2  0
 11 12  1  0
 12 13  2  0
M  END
>  <minimizedAffinity>  (533) 
-8.57333

$$$$
data/reference_output_2/data/smiles/126648.pdb
     RDKit          3D

 24 26  0  0  0  0  0  0  0  0999 V2000
   69.4993   44.9116   56.7887 N   0  0  0  0  0  0  0  0  0  0  0  0
   69.7482   45.9855   57.6653 C   0  0  0  0  0  0  0  0  0  0  0  0
   69.8706   45.7195   58.9003 O   0  0  0  0  0  0  0  0  0  0  0  0
   68.9470   40.7663   57.6724 C   0  0  0  0  0  0  0  0  0  0  0  0
   68.0765   41.4935   56.8998 C   0  0  0  0  0  0  0  0  0  0  0  0
   68.2761   42.8267   56.6299 C   0  0  0  0  0  0  0  0  0  0  0  0
   69.3771   43.5451   57.1182 C   0  0  0  0  0  0  0  0  0  0  0  0
   70.2473   42.8139   57.8916 C   0  0  0  0  0  0  0  0  0  0  0  0
   70.0306   41.4516   58.1594 C   0  0  0  0  0  0  0  0  0  0  0  0
   69.5892   38.5197   58.6611 N   0  0  0  0  0  0  0  0  0  0  0  0
   68.7063   39.3582   57.9380 C   0  0  0  0  0  0  0  0  0  0  0  0
   67.6490   38.8459   57.5014 O   0  0  0  0  0  0  0  0  0  0  0  0
   69.8708   47.4077   57.2222 C   0  0  0  0  0  0  0  0  0  0  0  0
   69.0362   47.8085   56.2108 O   0  0  0  0  0  0  0  0  0  0  0  0
   69.2922   48.1057   54.9079 C   0  0  0  0  0  0  0  0  0  0  0  0
   70.0496   49.1879   54.5383 C   0  0  0  0  0  0  0  0  0  0  0  0
   70.3008   49.4840   53.1965 C   0  0  0  0  0  0  0  0  0  0  0  0
   69.7814   48.6785   52.2170 C   0  0  0  0  0  0  0  0  0  0  0  0
   69.0186   47.5874   52.5643 C   0  0  0  0  0  0  0  0  0  0  0  0
   68.5019   46.7835   51.5850 C   0  0  0  0  0  0  0  0  0  0  0  0
   67.7304   45.6787   51.8820 C   0  0  0  0  0  0  0  0  0  0  0  0
   67.4914   45.3998   53.2058 C   0  0  0  0  0  0  0  0  0  0  0  0
   68.0041   46.1979   54.2036 C   0  0  0  0  0  0  0  0  0  0  0  0
   68.7757   47.3037   53.9133 C   0  0  0  0  0  0  0  0  0  0  0  0
 10 11  1  0
 11 12  2  0
 11  4  1  0
  4  5  2  0
  4  9  1  0
  5  6  1  0
  6  7  2  0
  7  1  1  0
  7  8  1  0
  1  2  1  0
  2  3  2  0
  2 13  1  0
 13 14  1  0
 14 15  1  0
 15 16  2  0
 15 24  1  0
 16 17  1  0
 17 18  2  0
 18 19  1  0
 19 20  1  0
 19 24  2  0
 20 21  2  0
 21 22  1  0
 22 23  2  0
 23 24  1  0
  8  9  2  0
M  END
>  <minimizedAffinity>  (534) 
-8.57333

$$$$
data/reference_output_2/data/smiles/109010.pdb
     RDKit          3D

 22 23  0  0  0  0  0  0  0  0999 V2000
   68.2846   42.5732   56.7652 C   0  0  0  0  0  0  0  0  0  0  0  0
   68.9446   43.6813   56.7377 N   0  0  0  0  0  0  0  0  0  0  0  0
   70.0372   41.3555   57.9345 C   0  0  0  0  0  0  0  0  0  0  0  0
   70.5478   40.2085   58.5553 C   0  0  0  0  0  0  0  0  0  0  0  0
   69.7867   39.0511   58.6443 C   0  0  0  0  0  0  0  0  0  0  0  0
   70.2558   37.8997   59.2487 O   0  0  0  0  0  0  0  0  0  0  0  0
   68.5151   39.0537   58.1085 C   0  0  0  0  0  0  0  0  0  0  0  0
   68.0141   40.2062   57.4890 C   0  0  0  0  0  0  0  0  0  0  0  0
   68.7678   41.3548   57.4006 C   0  0  0  0  0  0  0  0  0  0  0  0
   72.1837   42.5469   57.7075 C   0  0  0  0  0  0  0  0  0  0  0  0
   70.7872   42.4963   57.8466 O   0  0  0  0  0  0  0  0  0  0  0  0
   68.5003   44.8464   56.1379 N   0  0  0  0  0  0  0  0  0  0  0  0
   69.0968   46.1203   56.3217 C   0  0  0  0  0  0  0  0  0  0  0  0
   70.0975   46.1218   57.0977 O   0  0  0  0  0  0  0  0  0  0  0  0
   68.5899   47.3509   55.6595 C   0  0  0  0  0  0  0  0  0  0  0  0
   68.6728   47.2525   54.1801 C   0  0  0  0  0  0  0  0  0  0  0  0
   67.9220   46.3308   53.4757 C   0  0  0  0  0  0  0  0  0  0  0  0
   67.9681   46.2060   52.1076 C   0  0  0  0  0  0  0  0  0  0  0  0
   68.8000   47.0368   51.4051 C   0  0  0  0  0  0  0  0  0  0  0  0
   69.5816   47.9850   52.0587 C   0  0  0  0  0  0  0  0  0  0  0  0
   70.4083   48.8030   51.3005 O   0  0  0  0  0  0  0  0  0  0  0  0
   69.4998   48.0713   53.4240 C   0  0  0  0  0  0  0  0  0  0  0  0
 10 11  1  0
 11  3  1  0
  3  4  2  0
  3  9  1  0
  4  5  1  0
  5  6  1  0
  5  7  2  0
  7  8  1  0
  8  9  2  0
  9  1  1  0
  1  2  2  0
  2 12  1  0
 12 13  1  0
 13 14  2  0
 13 15  1  0
 15 16  1  0
 16 17  2  0
 16 22  1  0
 17 18  1  0
 18 19  2  0
 19 20  1  0
 20 21  1  0
 20 22  2  0
M  END
>  <minimizedAffinity>  (535) 
-8.57312

$$$$
data/200k_reference_output/data/smiles/11251.pdb
     RDKit          3D

 21 23  0  0  0  0  0  0  0  0999 V2000
   66.8059   42.8604   55.5058 O   0  0  0  0  0  0  0  0  0  0  0  0
   67.8298   42.7061   56.1933 C   0  0  0  0  0  0  0  0  0  0  0  0
   68.6720   43.8716   56.3606 N   0  0  0  0  0  0  0  0  0  0  0  0
   68.1324   41.4249   56.7787 C   0  0  0  0  0  0  0  0  0  0  0  0
   69.0205   41.1672   57.7968 C   0  0  0  0  0  0  0  0  0  0  0  0
   69.0315   39.8226   58.0741 C   0  0  0  0  0  0  0  0  0  0  0  0
   68.1432   39.2706   57.2153 N   0  0  0  0  0  0  0  0  0  0  0  0
   67.6130   40.2057   56.4529 N   0  0  0  0  0  0  0  0  0  0  0  0
   69.8447   39.1061   59.1164 C   0  0  0  0  0  0  0  0  0  0  0  0
   70.6905   38.0020   58.6653 C   0  0  0  0  0  0  0  0  0  0  0  0
   71.3242   39.3051   59.1158 C   0  0  0  0  0  0  0  0  0  0  0  0
   68.4895   45.0522   55.8892 N   0  0  0  0  0  0  0  0  0  0  0  0
   68.3248   46.1390   55.4503 C   0  0  0  0  0  0  0  0  0  0  0  0
   68.7366   46.8635   54.2605 C   0  0  0  0  0  0  0  0  0  0  0  0
   68.5017   46.4011   52.9766 C   0  0  0  0  0  0  0  0  0  0  0  0
   67.8516   45.2089   52.8634 F   0  0  0  0  0  0  0  0  0  0  0  0
   68.8872   47.0788   51.8524 C   0  0  0  0  0  0  0  0  0  0  0  0
   69.5473   48.2893   51.9313 C   0  0  0  0  0  0  0  0  0  0  0  0
   69.7964   48.7741   53.1974 C   0  0  0  0  0  0  0  0  0  0  0  0
   69.3965   48.0717   54.3282 C   0  0  0  0  0  0  0  0  0  0  0  0
   69.7338   48.7193   55.9273 Cl  0  0  0  0  0  0  0  0  0  0  0  0
  1  2  2  0
  2  3  1  0
  2  4  1  0
  3 12  1  0
 12 13  2  3
 13 14  1  0
 14 15  2  0
 14 20  1  0
 15 16  1  0
 15 17  1  0
 17 18  2  0
 18 19  1  0
 19 20  2  0
 20 21  1  0
  4  5  1  0
  4  8  2  0
  5  6  2  0
  6  9  1  0
  6  7  1  0
  9 10  1  0
  9 11  1  0
 10 11  1  0
  7  8  1  0
M  END
>  <minimizedAffinity>  (536) 
-8.57280

$$$$
data/200k_reference_output/data/smiles/11038.pdb
     RDKit          3D

 24 26  0  0  0  0  0  0  0  0999 V2000
   70.8639   51.1581   54.3485 C   0  0  0  0  0  0  0  0  0  0  0  0
   69.8067   49.1279   56.3604 O   0  0  0  0  0  0  0  0  0  0  0  0
   69.7258   48.9656   55.1109 C   0  0  0  0  0  0  0  0  0  0  0  0
   69.1263   47.7980   54.4590 C   0  0  0  0  0  0  0  0  0  0  0  0
   68.5358   46.6477   54.9324 C   0  0  0  0  0  0  0  0  0  0  0  0
   68.0384   45.6747   54.0915 C   0  0  0  0  0  0  0  0  0  0  0  0
   68.1395   45.8667   52.7311 C   0  0  0  0  0  0  0  0  0  0  0  0
   68.7274   47.0128   52.2507 C   0  0  0  0  0  0  0  0  0  0  0  0
   69.2257   47.9894   53.0871 C   0  0  0  0  0  0  0  0  0  0  0  0
   69.8952   49.2903   52.8768 C   0  0  0  0  0  0  0  0  0  0  0  0
   70.1517   49.7884   51.7512 O   0  0  0  0  0  0  0  0  0  0  0  0
   70.1954   49.8785   54.1367 N   0  0  0  0  0  0  0  0  0  0  0  0
   72.3028   50.9181   54.7316 C   0  0  0  0  0  0  0  0  0  0  0  0
   73.1222   50.3535   53.9480 N   0  0  0  0  0  0  0  0  0  0  0  0
   74.4622   50.1003   54.2358 N   0  0  0  0  0  0  0  0  0  0  0  0
   75.0391   50.2690   55.5059 C   0  0  0  0  0  0  0  0  0  0  0  0
   74.3916   49.4722   56.7769 S   0  0  0  0  0  0  0  0  0  0  0  0
   76.1625   51.1074   55.7145 N   0  0  0  0  0  0  0  0  0  0  0  0
   77.4713   50.5696   55.7977 C   0  0  0  0  0  0  0  0  0  0  0  0
   78.5279   51.2342   56.3962 C   0  0  0  0  0  0  0  0  0  0  0  0
   79.8072   50.6941   56.4717 C   0  0  0  0  0  0  0  0  0  0  0  0
   80.0536   49.4512   55.9363 C   0  0  0  0  0  0  0  0  0  0  0  0
   79.0166   48.7609   55.3314 C   0  0  0  0  0  0  0  0  0  0  0  0
   77.7536   49.3177   55.2685 C   0  0  0  0  0  0  0  0  0  0  0  0
  2  3  2  0
  3  4  1  0
  3 12  1  0
  4  5  2  0
  4  9  1  0
  5  6  1  0
  6  7  2  0
  7  8  1  0
  8  9  2  0
  9 10  1  0
 10 11  2  0
 10 12  1  0
 12  1  1  0
  1 13  1  0
 13 14  2  0
 14 15  1  0
 15 16  1  0
 16 17  2  0
 16 18  1  0
 18 19  1  0
 19 20  2  0
 19 24  1  0
 20 21  1  0
 21 22  2  0
 22 23  1  0
 23 24  2  0
M  END
>  <minimizedAffinity>  (537) 
-8.57279

$$$$
data/reference_output_2/data/smiles/143953.pdb
     RDKit          3D

 24 26  0  0  0  0  0  0  0  0999 V2000
   69.6706   48.8934   51.8308 C   0  0  0  0  0  0  0  0  0  0  0  0
   68.9727   47.7010   52.3922 C   0  0  0  0  0  0  0  0  0  0  0  0
   68.2749   46.8179   51.5953 C   0  0  0  0  0  0  0  0  0  0  0  0
   67.6653   45.7465   52.2118 C   0  0  0  0  0  0  0  0  0  0  0  0
   67.0320   44.9434   51.5001 O   0  0  0  0  0  0  0  0  0  0  0  0
   67.7174   45.5330   53.5023 O   0  0  0  0  0  0  0  0  0  0  0  0
   68.3688   46.3402   54.3171 C   0  0  0  0  0  0  0  0  0  0  0  0
   68.4255   46.1164   55.6759 C   0  0  0  0  0  0  0  0  0  0  0  0
   69.1183   46.9862   56.4883 C   0  0  0  0  0  0  0  0  0  0  0  0
   69.7538   48.0895   55.9048 C   0  0  0  0  0  0  0  0  0  0  0  0
   69.7069   48.3283   54.5474 C   0  0  0  0  0  0  0  0  0  0  0  0
   69.0022   47.4349   53.7507 C   0  0  0  0  0  0  0  0  0  0  0  0
   69.2334   46.8456   57.8722 O   0  0  0  0  0  0  0  0  0  0  0  0
   70.4730   46.5728   58.4344 C   0  0  0  0  0  0  0  0  0  0  0  0
   70.6816   45.1347   58.7184 C   0  0  0  0  0  0  0  0  0  0  0  0
   71.1319   44.8455   59.8726 O   0  0  0  0  0  0  0  0  0  0  0  0
   70.4075   44.1148   57.8006 N   0  0  0  0  0  0  0  0  0  0  0  0
   70.6376   42.7303   58.1180 C   0  0  0  0  0  0  0  0  0  0  0  0
   69.5350   41.9024   57.6076 C   0  0  0  0  0  0  0  0  0  0  0  0
   69.3560   40.5964   57.9694 C   0  0  0  0  0  0  0  0  0  0  0  0
   68.2958   39.8406   57.4484 C   0  0  0  0  0  0  0  0  0  0  0  0
   67.4435   40.4198   56.5767 N   0  0  0  0  0  0  0  0  0  0  0  0
   67.5863   41.6887   56.2027 C   0  0  0  0  0  0  0  0  0  0  0  0
   68.6352   42.4436   56.7141 C   0  0  0  0  0  0  0  0  0  0  0  0
  1  2  1  0
  2  3  2  0
  2 12  1  0
  3  4  1  0
  4  5  2  0
  4  6  1  0
  6  7  1  0
  7  8  1  0
  7 12  2  0
  8  9  2  0
  9 13  1  0
  9 10  1  0
 13 14  1  0
 14 15  1  0
 15 16  2  0
 15 17  1  0
 17 18  1  0
 18 19  1  0
 19 20  2  0
 19 24  1  0
 20 21  1  0
 21 22  2  0
 22 23  1  0
 23 24  2  0
 10 11  2  0
 11 12  1  0
M  END
>  <minimizedAffinity>  (538) 
-8.57128

$$$$
data/reference_output_2/data/smiles/147076.pdb
     RDKit          3D

 24 26  0  0  0  0  0  0  0  0999 V2000
   69.3388   45.0574   57.1784 O   0  0  0  0  0  0  0  0  0  0  0  0
   69.1423   41.4200   57.3431 C   0  0  0  0  0  0  0  0  0  0  0  0
   70.3499   41.0971   57.9219 C   0  0  0  0  0  0  0  0  0  0  0  0
   70.7120   39.8188   58.1764 F   0  0  0  0  0  0  0  0  0  0  0  0
   71.2370   42.1033   58.2615 C   0  0  0  0  0  0  0  0  0  0  0  0
   70.9156   43.4171   58.0230 C   0  0  0  0  0  0  0  0  0  0  0  0
   69.7258   43.8045   57.4489 C   0  0  0  0  0  0  0  0  0  0  0  0
   68.8592   42.7310   57.1218 C   0  0  0  0  0  0  0  0  0  0  0  0
   67.6795   43.0711   56.5542 F   0  0  0  0  0  0  0  0  0  0  0  0
   67.8081   40.2152   55.6544 N   0  0  0  0  0  0  0  0  0  0  0  0
   68.2174   40.3588   56.9879 C   0  0  0  0  0  0  0  0  0  0  0  0
   67.7746   39.5618   57.8510 O   0  0  0  0  0  0  0  0  0  0  0  0
   69.7311   46.3054   56.9256 C   0  0  0  0  0  0  0  0  0  0  0  0
   68.7486   47.3988   56.6397 C   0  0  1  0  0  0  0  0  0  0  0  0
   69.2769   48.6626   56.0518 C   0  0  0  0  0  0  0  0  0  0  0  0
   69.7561   48.4649   54.7263 O   0  0  0  0  0  0  0  0  0  0  0  0
   69.0644   47.6246   53.8535 C   0  0  0  0  0  0  0  0  0  0  0  0
   69.3510   47.5543   52.5019 C   0  0  0  0  0  0  0  0  0  0  0  0
   68.6496   46.7122   51.6551 C   0  0  0  0  0  0  0  0  0  0  0  0
   67.6361   45.9150   52.1444 C   0  0  0  0  0  0  0  0  0  0  0  0
   66.9021   45.0393   51.2820 N   0  0  0  0  0  0  0  0  0  0  0  0
   67.3650   46.0010   53.4963 C   0  0  0  0  0  0  0  0  0  0  0  0
   68.0595   46.8370   54.3512 C   0  0  0  0  0  0  0  0  0  0  0  0
   67.7539   46.8968   55.7251 O   0  0  0  0  0  0  0  0  0  0  0  0
 10 11  1  0
 11 12  2  0
 11  2  1  0
  2  3  2  0
  2  8  1  0
  3  4  1  0
  3  5  1  0
  5  6  2  0
  6  7  1  0
  7  1  1  0
  7  8  2  0
  1 13  1  0
 14 13  1  6
 14 15  1  0
 14 24  1  0
 15 16  1  0
 16 17  1  0
 17 18  2  0
 17 23  1  0
 18 19  1  0
 19 20  2  0
 20 21  1  0
 20 22  1  0
 22 23  2  0
 23 24  1  0
  8  9  1  0
M  END
>  <minimizedAffinity>  (539) 
-8.57072

$$$$
data/reference_output_2/data/smiles/131578.pdb
     RDKit          3D

 24 26  0  0  0  0  0  0  0  0999 V2000
   69.3708   47.5715   56.1422 N   0  0  0  0  0  0  0  0  0  0  0  0
   69.9508   48.5414   55.4607 N   0  0  0  0  0  0  0  0  0  0  0  0
   69.8867   48.6370   54.0924 C   0  0  0  0  0  0  0  0  0  0  0  0
   69.1795   47.6630   53.4439 C   0  0  0  0  0  0  0  0  0  0  0  0
   69.0627   47.6767   52.0851 C   0  0  0  0  0  0  0  0  0  0  0  0
   68.3252   46.6512   51.4749 C   0  0  0  0  0  0  0  0  0  0  0  0
   67.7230   45.6438   52.1932 C   0  0  0  0  0  0  0  0  0  0  0  0
   67.8377   45.6228   53.5741 C   0  0  0  0  0  0  0  0  0  0  0  0
   68.5545   46.6222   54.1511 C   0  0  0  0  0  0  0  0  0  0  0  0
   68.6737   46.6076   55.5266 C   0  0  0  0  0  0  0  0  0  0  0  0
   68.1736   45.7480   56.2850 O   0  0  0  0  0  0  0  0  0  0  0  0
   70.5635   49.7480   53.4365 C   0  0  0  0  0  0  0  0  0  0  0  0
   71.8347   49.8666   53.5779 O   0  0  0  0  0  0  0  0  0  0  0  0
   70.0192   50.7311   52.6549 O   0  0  0  0  0  0  0  0  0  0  0  0
   69.5053   47.5752   57.5481 C   0  0  0  0  0  0  0  0  0  0  0  0
   70.6627   46.8618   58.1415 C   0  0  0  0  0  0  0  0  0  0  0  0
   70.3920   45.5172   58.4611 O   0  0  0  0  0  0  0  0  0  0  0  0
   74.9618   43.8440   58.4054 C   0  0  0  0  0  0  0  0  0  0  0  0
   73.5003   43.6124   58.1961 C   0  0  0  0  0  0  0  0  0  0  0  0
   73.0540   42.3748   57.7851 C   0  0  0  0  0  0  0  0  0  0  0  0
   71.6818   42.1934   57.5983 C   0  0  0  0  0  0  0  0  0  0  0  0
   70.7884   43.2099   57.8146 C   0  0  0  0  0  0  0  0  0  0  0  0
   71.2191   44.4474   58.2233 C   0  0  0  0  0  0  0  0  0  0  0  0
   72.5849   44.6034   58.4020 C   0  0  0  0  0  0  0  0  0  0  0  0
 18 19  1  0
 19 20  2  0
 19 24  1  0
 20 21  1  0
 21 22  2  0
 22 23  1  0
 23 17  1  0
 23 24  2  0
 17 16  1  0
 16 15  1  0
 15  1  1  0
  1  2  1  0
  1 10  1  0
  2  3  2  0
  3 12  1  0
  3  4  1  0
 12 13  2  0
 12 14  1  0
  4  5  2  0
  4  9  1  0
  5  6  1  0
  6  7  2  0
  7  8  1  0
  8  9  2  0
  9 10  1  0
 10 11  2  0
M  END
>  <minimizedAffinity>  (540) 
-8.57067

$$$$
data/200k_reference_output/data/smiles/36146.pdb
     RDKit          3D

 22 24  0  0  0  0  0  0  0  0999 V2000
   68.9354   47.2156   56.2091 S   0  0  0  0  0  0  0  0  0  0  0  0
   67.4760   47.2192   56.4943 O   0  0  0  0  0  0  0  0  0  0  0  0
   69.5297   45.8350   56.3708 O   0  0  0  0  0  0  0  0  0  0  0  0
   69.3274   47.8520   54.6396 C   0  0  0  0  0  0  0  0  0  0  0  0
   70.1449   48.9462   54.4868 C   0  0  0  0  0  0  0  0  0  0  0  0
   70.4102   49.3871   53.2134 C   0  0  0  0  0  0  0  0  0  0  0  0
   69.8962   48.7844   52.0885 C   0  0  0  0  0  0  0  0  0  0  0  0
   70.1732   49.2418   50.7941 O   0  0  0  0  0  0  0  0  0  0  0  0
   69.0779   47.6893   52.2394 C   0  0  0  0  0  0  0  0  0  0  0  0
   68.5432   47.0587   51.1642 N   0  0  0  0  0  0  0  0  0  0  0  0
   67.7498   45.9941   51.3742 C   0  0  0  0  0  0  0  0  0  0  0  0
   67.4469   45.5079   52.6118 C   0  0  0  0  0  0  0  0  0  0  0  0
   67.9749   46.1262   53.7172 C   0  0  0  0  0  0  0  0  0  0  0  0
   68.7875   47.2145   53.5203 C   0  0  0  0  0  0  0  0  0  0  0  0
   70.5805   47.8087   58.3949 C   0  0  0  0  0  0  0  0  0  0  0  0
   69.6501   48.2508   57.3789 N   0  0  0  0  0  0  0  0  0  0  0  0
   69.3179   49.6247   57.3591 C   0  0  0  0  0  0  0  0  0  0  0  0
   70.2843   50.6230   57.3750 C   0  0  0  0  0  0  0  0  0  0  0  0
   69.9066   51.9331   57.3552 C   0  0  0  0  0  0  0  0  0  0  0  0
   68.5848   52.3127   57.3196 C   0  0  0  0  0  0  0  0  0  0  0  0
   67.6283   51.3314   57.3035 C   0  0  0  0  0  0  0  0  0  0  0  0
   67.9830   49.9940   57.3231 C   0  0  0  0  0  0  0  0  0  0  0  0
 15 16  1  0
 16 17  1  0
 16  1  1  0
 17 18  2  0
 17 22  1  0
 18 19  1  0
 19 20  2  0
 20 21  1  0
 21 22  2  0
  1  2  2  0
  1  3  2  0
  1  4  1  0
  4  5  2  0
  4 14  1  0
  5  6  1  0
  6  7  2  0
  7  8  1  0
  7  9  1  0
  9 10  1  0
  9 14  2  0
 10 11  2  0
 11 12  1  0
 12 13  2  0
 13 14  1  0
M  END
>  <minimizedAffinity>  (541) 
-8.57053

$$$$
data/200k_reference_output/data/smiles/47085.pdb
     RDKit          3D

 24 26  0  0  0  0  0  0  0  0999 V2000
   72.2572   51.0118   54.9064 C   0  0  2  0  0  0  0  0  0  0  0  0
   70.3331   50.8192   52.9387 O   0  0  0  0  0  0  0  0  0  0  0  0
   70.4997   49.7764   53.6314 C   0  0  0  0  0  0  0  0  0  0  0  0
   71.4667   49.8375   54.6358 N   0  0  0  0  0  0  0  0  0  0  0  0
   69.7316   48.5622   53.4071 C   0  0  0  0  0  0  0  0  0  0  0  0
   69.6215   48.0643   52.1122 C   0  0  0  0  0  0  0  0  0  0  0  0
   68.9024   46.9188   51.8402 C   0  0  0  0  0  0  0  0  0  0  0  0
   68.2680   46.2262   52.8477 C   0  0  0  0  0  0  0  0  0  0  0  0
   68.3806   46.7145   54.0941 N   0  0  0  0  0  0  0  0  0  0  0  0
   67.7428   46.0172   55.0959 O   0  0  0  0  0  0  0  0  0  0  0  0
   69.0859   47.8472   54.3846 C   0  0  0  0  0  0  0  0  0  0  0  0
   73.6702   50.9397   54.6661 C   0  0  0  0  0  0  0  0  0  0  0  0
   74.6086   51.4482   55.3124 O   0  0  0  0  0  0  0  0  0  0  0  0
   74.0725   50.1820   53.5431 O   0  0  0  0  0  0  0  0  0  0  0  0
   71.9466   51.3645   56.3422 C   0  0  0  0  0  0  0  0  0  0  0  0
   70.5328   51.7303   56.5776 C   0  0  0  0  0  0  0  0  0  0  0  0
   69.9887   53.0132   56.3406 C   0  0  0  0  0  0  0  0  0  0  0  0
   68.6864   52.9903   56.6106 N   0  0  0  0  0  0  0  0  0  0  0  0
   68.3010   51.7642   57.0213 C   0  0  0  0  0  0  0  0  0  0  0  0
   67.0847   51.2526   57.4168 C   0  0  0  0  0  0  0  0  0  0  0  0
   67.0408   49.9280   57.7969 C   0  0  0  0  0  0  0  0  0  0  0  0
   68.1723   49.1422   57.7837 C   0  0  0  0  0  0  0  0  0  0  0  0
   69.3715   49.6640   57.3889 C   0  0  0  0  0  0  0  0  0  0  0  0
   69.4633   50.9844   56.9977 C   0  0  0  0  0  0  0  0  0  0  0  0
  2  3  2  0
  3  4  1  0
  3  5  1  0
  4  1  1  0
  1 15  1  1
  1 12  1  0
 15 16  1  0
 16 17  2  0
 16 24  1  0
 17 18  1  0
 18 19  1  0
 19 20  1  0
 19 24  2  0
 20 21  2  0
 21 22  1  0
 22 23  2  0
 23 24  1  0
 12 13  2  0
 12 14  1  0
  5  6  2  0
  5 11  1  0
  6  7  1  0
  7  8  2  0
  8  9  1  0
  9 10  1  0
  9 11  2  0
M  CHG  2   9   1  10  -1
M  END
>  <minimizedAffinity>  (542) 
-8.56960

$$$$
data/reference_output_2/data/smiles/153767.pdb
     RDKit          3D

 23 24  0  0  0  0  0  0  0  0999 V2000
   70.2241   45.6631   59.0199 O   0  0  0  0  0  0  0  0  0  0  0  0
   70.0649   44.9402   58.0058 C   0  0  0  0  0  0  0  0  0  0  0  0
   69.3083   45.4608   56.8856 N   0  0  0  0  0  0  0  0  0  0  0  0
   68.8035   46.7186   56.9910 N   0  0  0  0  0  0  0  0  0  0  0  0
   68.4934   47.5241   56.0975 C   0  0  0  0  0  0  0  0  0  0  0  0
   68.6002   47.3034   54.6817 C   0  0  0  0  0  0  0  0  0  0  0  0
   69.3545   48.0513   53.8240 C   0  0  0  0  0  0  0  0  0  0  0  0
   69.4112   47.7761   52.4432 C   0  0  0  0  0  0  0  0  0  0  0  0
   68.7058   46.7359   51.9024 C   0  0  0  0  0  0  0  0  0  0  0  0
   67.9463   45.9800   52.7625 C   0  0  0  0  0  0  0  0  0  0  0  0
   67.2407   44.9409   52.2294 F   0  0  0  0  0  0  0  0  0  0  0  0
   67.8861   46.2408   54.1000 C   0  0  0  0  0  0  0  0  0  0  0  0
   70.6504   43.5687   57.9665 C   0  0  0  0  0  0  0  0  0  0  0  0
   69.8884   42.7925   59.0336 C   0  0  0  0  0  0  0  0  0  0  0  0
   69.9796   41.5430   59.0607 O   0  0  0  0  0  0  0  0  0  0  0  0
   69.0935   43.4545   59.9784 N   0  0  0  0  0  0  0  0  0  0  0  0
   68.3446   42.8466   61.0093 C   0  0  0  0  0  0  0  0  0  0  0  0
   67.0769   42.3457   60.9290 C   0  0  0  0  0  0  0  0  0  0  0  0
   66.4010   41.7561   62.0022 C   0  0  0  0  0  0  0  0  0  0  0  0
   67.0106   41.6510   63.2295 C   0  0  0  0  0  0  0  0  0  0  0  0
   66.1684   40.9124   64.5766 Cl  0  0  0  0  0  0  0  0  0  0  0  0
   68.2875   42.1463   63.3411 C   0  0  0  0  0  0  0  0  0  0  0  0
   68.9387   42.7232   62.2768 C   0  0  0  0  0  0  0  0  0  0  0  0
  1  2  2  0
  2 13  1  0
  2  3  1  0
 13 14  1  0
 14 15  2  0
 14 16  1  0
 16 17  1  0
 17 18  2  0
 17 23  1  0
 18 19  1  0
 19 20  2  0
 20 21  1  0
 20 22  1  0
 22 23  2  0
  3  4  1  0
  4  5  2  0
  5  6  1  0
  6  7  2  0
  6 12  1  0
  7  8  1  0
  8  9  2  0
  9 10  1  0
 10 11  1  0
 10 12  2  0
M  END
>  <minimizedAffinity>  (543) 
-8.56858

$$$$
data/200k_reference_output/data/smiles/77069.pdb
     RDKit          3D

 23 25  0  0  0  0  0  0  0  0999 V2000
   70.2061   44.1077   57.9582 S   0  0  0  0  0  0  0  0  0  0  0  0
   71.6153   44.5667   57.7570 O   0  0  0  0  0  0  0  0  0  0  0  0
   69.7301   44.6852   59.2642 O   0  0  0  0  0  0  0  0  0  0  0  0
   70.1495   42.3563   58.1117 C   0  0  0  0  0  0  0  0  0  0  0  0
   68.9982   41.6379   57.9877 C   0  0  0  0  0  0  0  0  0  0  0  0
   69.0060   40.2664   58.1161 C   0  0  0  0  0  0  0  0  0  0  0  0
   70.1978   39.5834   58.3780 C   0  0  0  0  0  0  0  0  0  0  0  0
   70.2446   38.2139   58.5124 C   0  0  0  0  0  0  0  0  0  0  0  0
   71.4291   37.5517   58.7706 C   0  0  0  0  0  0  0  0  0  0  0  0
   72.6241   38.2624   58.9024 C   0  0  0  0  0  0  0  0  0  0  0  0
   72.5646   39.6243   58.7668 C   0  0  0  0  0  0  0  0  0  0  0  0
   71.3902   40.2983   58.5089 C   0  0  0  0  0  0  0  0  0  0  0  0
   71.3169   41.6683   58.3694 C   0  0  0  0  0  0  0  0  0  0  0  0
   69.1709   44.6148   56.7658 O   0  0  0  0  0  0  0  0  0  0  0  0
   69.4084   45.8468   56.3177 N   0  0  0  0  0  0  0  0  0  0  0  0
   67.5517   47.2510   56.2556 N   0  0  0  0  0  0  0  0  0  0  0  0
   68.4693   46.6439   55.6077 C   0  0  0  0  0  0  0  0  0  0  0  0
   68.5374   46.7773   54.1566 C   0  0  0  0  0  0  0  0  0  0  0  0
   69.3021   47.7528   53.5304 C   0  0  0  0  0  0  0  0  0  0  0  0
   69.3568   47.8683   52.1567 C   0  0  0  0  0  0  0  0  0  0  0  0
   68.6627   47.0274   51.3699 N   0  0  0  0  0  0  0  0  0  0  0  0
   67.9184   46.0780   51.9579 C   0  0  0  0  0  0  0  0  0  0  0  0
   67.8307   45.9235   53.3261 C   0  0  0  0  0  0  0  0  0  0  0  0
 16 17  2  0
 17 15  1  0
 17 18  1  0
 15 14  1  0
 14  1  1  0
  1  2  2  0
  1  3  2  0
  1  4  1  0
  4  5  2  0
  4 13  1  0
  5  6  1  0
  6  7  2  0
  7  8  1  0
  7 12  1  0
  8  9  2  0
  9 10  1  0
 10 11  2  0
 11 12  1  0
 12 13  2  0
 18 19  2  0
 18 23  1  0
 19 20  1  0
 20 21  2  0
 21 22  1  0
 22 23  2  0
M  CHG  1  16   1
M  END
>  <minimizedAffinity>  (544) 
-8.56845

$$$$
data/reference_output_2/data/smiles/188188.pdb
     RDKit          3D

 25 26  0  0  0  0  0  0  0  0999 V2000
   68.6145   42.5673   57.8862 C   0  0  0  0  0  0  0  0  0  0  0  0
   69.4544   43.5110   58.1788 O   0  0  0  0  0  0  0  0  0  0  0  0
   67.9902   42.6927   56.6268 N   0  0  0  0  0  0  0  0  0  0  0  0
   67.0226   41.7524   56.1015 C   0  0  0  0  0  0  0  0  0  0  0  0
   68.3327   42.0218   60.3094 C   0  0  0  0  0  0  0  0  0  0  0  0
   68.4624   41.5336   58.9042 C   0  0  2  0  0  0  0  0  0  0  0  0
   69.5678   40.5577   58.8371 N   0  0  0  0  0  0  0  0  0  0  0  0
   69.3101   39.1701   58.7475 C   0  0  0  0  0  0  0  0  0  0  0  0
   68.0950   38.8107   58.7049 O   0  0  0  0  0  0  0  0  0  0  0  0
   70.3308   38.1466   58.7055 C   0  0  0  0  0  0  0  0  0  0  0  0
   70.2006   37.0424   59.5195 C   0  0  0  0  0  0  0  0  0  0  0  0
   71.1282   35.9925   59.5733 C   0  0  0  0  0  0  0  0  0  0  0  0
   72.2486   36.0600   58.7615 C   0  0  0  0  0  0  0  0  0  0  0  0
   72.3939   37.1561   57.9434 C   0  0  0  0  0  0  0  0  0  0  0  0
   71.4604   38.1672   57.9186 C   0  0  0  0  0  0  0  0  0  0  0  0
   68.3245   43.7540   55.8074 N   0  0  0  0  0  0  0  0  0  0  0  0
   67.4617   44.2676   55.0114 N   0  0  0  0  0  0  0  0  0  0  0  0
   67.9415   45.3810   54.2051 C   0  0  0  0  0  0  0  0  0  0  0  0
   67.8402   45.4344   52.8673 C   0  0  0  0  0  0  0  0  0  0  0  0
   68.3727   46.4850   52.1285 C   0  0  0  0  0  0  0  0  0  0  0  0
   69.0200   47.5131   52.7214 C   0  0  0  0  0  0  0  0  0  0  0  0
   69.1387   47.4865   54.1431 C   0  0  0  0  0  0  0  0  0  0  0  0
   68.6115   46.4422   54.8669 C   0  0  0  0  0  0  0  0  0  0  0  0
   69.5954   48.5839   52.0197 C   0  0  0  0  0  0  0  0  0  0  0  0
   70.0832   49.5065   51.3953 N   0  0  0  0  0  0  0  0  0  0  0  0
  6  5  1  1
  6  7  1  0
  6  1  1  0
  7  8  1  0
  8  9  2  0
  8 10  1  0
 10 11  2  0
 10 15  1  0
 11 12  1  0
 12 13  2  0
 13 14  1  0
 14 15  2  0
  1  2  2  0
  1  3  1  0
  3  4  1  0
  3 16  1  0
 16 17  2  0
 17 18  1  0
 18 19  2  0
 18 23  1  0
 19 20  1  0
 20 21  2  0
 21 24  1  0
 21 22  1  0
 24 25  3  0
 22 23  2  0
M  END
>  <minimizedAffinity>  (545) 
-8.56844

$$$$
data/reference_output_2/data/smiles/102325.pdb
     RDKit          3D

 24 27  0  0  0  0  0  0  0  0999 V2000
   71.6517   50.8179   54.0008 N   0  0  0  0  0  0  0  0  0  0  0  0
   68.6338   47.8532   56.5321 C   0  0  0  0  0  0  0  0  0  0  0  0
   69.2520   48.2824   55.2521 C   0  0  0  0  0  0  0  0  0  0  0  0
   70.1424   49.3298   55.2015 C   0  0  0  0  0  0  0  0  0  0  0  0
   70.7170   49.7441   53.9953 C   0  0  0  0  0  0  0  0  0  0  0  0
   70.3657   49.0793   52.8945 N   0  0  0  0  0  0  0  0  0  0  0  0
   69.5006   48.0444   52.8717 C   0  0  0  0  0  0  0  0  0  0  0  0
   69.1723   47.3858   51.7114 C   0  0  0  0  0  0  0  0  0  0  0  0
   68.2920   46.3309   51.7116 C   0  0  0  0  0  0  0  0  0  0  0  0
   67.7272   45.9230   52.8940 C   0  0  0  0  0  0  0  0  0  0  0  0
   68.0487   46.5749   54.0594 C   0  0  0  0  0  0  0  0  0  0  0  0
   68.9345   47.6418   54.0790 C   0  0  0  0  0  0  0  0  0  0  0  0
   73.0291   50.5995   54.0394 N   0  0  0  0  0  0  0  0  0  0  0  0
   73.8661   50.9298   55.1126 C   0  0  0  0  0  0  0  0  0  0  0  0
   73.3859   51.4780   56.1210 O   0  0  0  0  0  0  0  0  0  0  0  0
   75.3501   50.6412   55.1011 C   0  0  2  0  0  0  0  0  0  0  0  0
   75.8083   49.4055   54.7515 O   0  0  0  0  0  0  0  0  0  0  0  0
   75.8581   49.7131   56.1154 C   0  0  1  0  0  0  0  0  0  0  0  0
   77.1863   49.9190   56.7192 C   0  0  0  0  0  0  0  0  0  0  0  0
   78.3522   49.6588   55.9956 C   0  0  0  0  0  0  0  0  0  0  0  0
   79.5764   49.8942   56.5760 C   0  0  0  0  0  0  0  0  0  0  0  0
   79.7063   50.3716   57.8382 N   0  0  0  0  0  0  0  0  0  0  0  0
   78.5785   50.6280   58.5558 C   0  0  0  0  0  0  0  0  0  0  0  0
   77.3664   50.4008   57.9912 C   0  0  0  0  0  0  0  0  0  0  0  0
  2  3  1  0
  3  4  2  0
  3 12  1  0
  4  5  1  0
  5  1  1  0
  5  6  2  0
  1 13  1  0
 13 14  1  0
 14 15  2  0
 16 14  1  1
 16 17  1  0
 16 18  1  0
 17 18  1  0
 18 19  1  6
 19 20  2  0
 19 24  1  0
 20 21  1  0
 21 22  2  0
 22 23  1  0
 23 24  2  0
  6  7  1  0
  7  8  1  0
  7 12  2  0
  8  9  2  0
  9 10  1  0
 10 11  2  0
 11 12  1  0
M  END
>  <minimizedAffinity>  (546) 
-8.56819

$$$$
data/200k_reference_output/data/smiles/33426.pdb
     RDKit          3D

 24 26  0  0  0  0  0  0  0  0999 V2000
   68.8869   41.9624   57.3416 C   0  0  0  0  0  0  0  0  0  0  0  0
   67.9587   42.0205   56.3270 C   0  0  0  0  0  0  0  0  0  0  0  0
   67.6438   43.2215   55.7565 N   0  0  0  0  0  0  0  0  0  0  0  0
   68.2307   44.3203   56.1803 N   0  0  0  0  0  0  0  0  0  0  0  0
   69.1407   44.3056   57.1662 C   0  0  0  0  0  0  0  0  0  0  0  0
   69.4461   43.1238   57.7214 N   0  0  0  0  0  0  0  0  0  0  0  0
   70.3648   36.9569   59.7963 C   0  0  0  0  0  0  0  0  0  0  0  0
   69.9975   38.2525   59.1644 C   0  0  0  0  0  0  0  0  0  0  0  0
   68.6899   38.4885   58.7983 C   0  0  0  0  0  0  0  0  0  0  0  0
   68.3255   39.6908   58.2063 C   0  0  0  0  0  0  0  0  0  0  0  0
   69.2339   40.6899   57.9595 C   0  0  0  0  0  0  0  0  0  0  0  0
   70.5437   40.4466   58.3286 C   0  0  0  0  0  0  0  0  0  0  0  0
   70.9169   39.2501   58.9196 C   0  0  0  0  0  0  0  0  0  0  0  0
   69.7502   45.5297   57.5898 N   0  0  0  0  0  0  0  0  0  0  0  0
   69.8853   46.5523   56.6691 N   0  0  0  0  0  0  0  0  0  0  0  0
   68.8730   47.5174   56.5294 C   0  0  0  0  0  0  0  0  0  0  0  0
   67.8514   47.4276   57.2565 O   0  0  0  0  0  0  0  0  0  0  0  0
   68.9937   48.6427   55.5343 C   0  0  0  0  0  0  0  0  0  0  0  0
   69.0976   48.1161   54.1591 C   0  0  0  0  0  0  0  0  0  0  0  0
   69.9153   48.6756   53.1965 C   0  0  0  0  0  0  0  0  0  0  0  0
   69.9811   48.1464   51.9141 C   0  0  0  0  0  0  0  0  0  0  0  0
   69.2260   47.0348   51.5548 C   0  0  0  0  0  0  0  0  0  0  0  0
   68.3987   46.4638   52.5187 C   0  0  0  0  0  0  0  0  0  0  0  0
   68.3592   47.0164   53.7804 C   0  0  0  0  0  0  0  0  0  0  0  0
  7  8  1  0
  8  9  2  0
  8 13  1  0
  9 10  1  0
 10 11  2  0
 11  1  1  0
 11 12  1  0
  1  2  2  0
  1  6  1  0
  2  3  1  0
  3  4  2  0
  4  5  1  0
  5 14  1  0
  5  6  2  0
 14 15  1  0
 15 16  1  0
 16 17  2  0
 16 18  1  0
 18 19  1  0
 19 20  2  0
 19 24  1  0
 20 21  1  0
 21 22  2  0
 22 23  1  0
 23 24  2  0
 12 13  2  0
M  END
>  <minimizedAffinity>  (547) 
-8.56719

$$$$
data/200k_reference_output/data/smiles/1553.pdb
     RDKit          3D

 24 26  0  0  0  0  0  0  0  0999 V2000
   67.4536   42.0671   56.4975 C   0  0  0  0  0  0  0  0  0  0  0  0
   67.3171   41.3503   55.5101 O   0  0  0  0  0  0  0  0  0  0  0  0
   67.7913   43.4153   56.4222 N   0  0  0  0  0  0  0  0  0  0  0  0
   68.0267   44.1696   55.2916 N   0  0  0  0  0  0  0  0  0  0  0  0
   68.1593   45.5355   55.0915 C   0  0  0  0  0  0  0  0  0  0  0  0
   68.0481   46.2631   56.1349 O   0  0  0  0  0  0  0  0  0  0  0  0
   68.4093   46.2602   53.8551 C   0  0  0  0  0  0  0  0  0  0  0  0
   69.2406   47.3893   53.8840 C   0  0  0  0  0  0  0  0  0  0  0  0
   69.5388   48.1404   52.7696 C   0  0  0  0  0  0  0  0  0  0  0  0
   69.0186   47.8067   51.5414 C   0  0  0  0  0  0  0  0  0  0  0  0
   68.2027   46.7082   51.4765 C   0  0  0  0  0  0  0  0  0  0  0  0
   67.9040   45.9452   52.6260 C   0  0  0  0  0  0  0  0  0  0  0  0
   67.0696   44.8452   52.4874 O   0  0  0  0  0  0  0  0  0  0  0  0
   67.2424   41.4471   57.8662 C   0  0  0  0  0  0  0  0  0  0  0  0
   73.7167   40.5665   59.2136 C   0  0  0  0  0  0  0  0  0  0  0  0
   72.2570   40.5542   58.9187 C   0  0  0  0  0  0  0  0  0  0  0  0
   71.6281   41.7882   58.7416 C   0  0  0  0  0  0  0  0  0  0  0  0
   70.2912   41.8146   58.4704 C   0  0  0  0  0  0  0  0  0  0  0  0
   69.6030   40.6300   58.3786 C   0  0  0  0  0  0  0  0  0  0  0  0
   68.2633   40.4045   58.1164 C   0  0  0  0  0  0  0  0  0  0  0  0
   68.1179   39.0317   58.1418 C   0  0  0  0  0  0  0  0  0  0  0  0
   69.2900   38.4939   58.4016 O   0  0  0  0  0  0  0  0  0  0  0  0
   70.2081   39.4023   58.5504 C   0  0  0  0  0  0  0  0  0  0  0  0
   71.5567   39.3726   58.8249 C   0  0  0  0  0  0  0  0  0  0  0  0
 15 16  1  0
 16 17  2  0
 16 24  1  0
 17 18  1  0
 18 19  2  0
 19 20  1  0
 19 23  1  0
 20 14  1  0
 20 21  2  0
 14  1  1  0
  1  2  2  0
  1  3  1  0
  3  4  1  0
  4  5  1  0
  5  6  2  0
  5  7  1  0
  7  8  2  0
  7 12  1  0
  8  9  1  0
  9 10  2  0
 10 11  1  0
 11 12  2  0
 12 13  1  0
 21 22  1  0
 22 23  1  0
 23 24  2  0
M  END
>  <minimizedAffinity>  (548) 
-8.56591

$$$$
data/reference_output_2/data/smiles/124307.pdb
     RDKit          3D

 25 27  0  0  0  0  0  0  0  0999 V2000
   69.8532   47.6694   57.3971 C   0  0  0  0  0  0  0  0  0  0  0  0
   69.2184   46.6237   56.9296 C   0  0  0  0  0  0  0  0  0  0  0  0
   69.8030   45.3906   57.4222 C   0  0  0  0  0  0  0  0  0  0  0  0
   69.4454   44.2181   57.1779 O   0  0  0  0  0  0  0  0  0  0  0  0
   70.8920   45.7375   58.2681 N   0  0  0  0  0  0  0  0  0  0  0  0
   70.9384   47.1390   58.2642 C   0  0  0  0  0  0  0  0  0  0  0  0
   71.7419   47.8640   58.8705 O   0  0  0  0  0  0  0  0  0  0  0  0
   69.1092   51.8544   56.7343 C   0  0  0  0  0  0  0  0  0  0  0  0
   68.2566   51.0667   57.4775 C   0  0  0  0  0  0  0  0  0  0  0  0
   68.4847   49.7197   57.6737 C   0  0  0  0  0  0  0  0  0  0  0  0
   69.5881   49.0690   57.1341 C   0  0  0  0  0  0  0  0  0  0  0  0
   70.4356   49.8900   56.3816 C   0  0  0  0  0  0  0  0  0  0  0  0
   70.2253   51.2198   56.1808 C   0  0  0  0  0  0  0  0  0  0  0  0
   69.9738   54.1381   56.5033 C   0  0  0  0  0  0  0  0  0  0  0  0
   68.8824   53.2142   56.5386 O   0  0  0  0  0  0  0  0  0  0  0  0
   68.0946   46.6432   56.0381 N   0  0  0  0  0  0  0  0  0  0  0  0
   68.3416   46.7725   54.6331 C   0  0  0  0  0  0  0  0  0  0  0  0
   67.6992   45.8980   53.7479 C   0  0  0  0  0  0  0  0  0  0  0  0
   67.9021   45.9903   52.3936 C   0  0  0  0  0  0  0  0  0  0  0  0
   68.7327   46.9324   51.8357 C   0  0  0  0  0  0  0  0  0  0  0  0
   69.3742   47.8059   52.7050 C   0  0  0  0  0  0  0  0  0  0  0  0
   69.1681   47.7098   54.0791 C   0  0  0  0  0  0  0  0  0  0  0  0
   70.2418   48.8181   52.1258 C   0  0  0  0  0  0  0  0  0  0  0  0
   71.3145   49.0916   52.7456 O   0  0  0  0  0  0  0  0  0  0  0  0
   69.9288   49.4651   50.9489 O   0  0  0  0  0  0  0  0  0  0  0  0
 14 15  1  0
 15  8  1  0
  8  9  2  0
  8 13  1  0
  9 10  1  0
 10 11  2  0
 11  1  1  0
 11 12  1  0
  1  2  2  0
  1  6  1  0
  2 16  1  0
  2  3  1  0
 16 17  1  0
 17 18  2  0
 17 22  1  0
 18 19  1  0
 19 20  2  0
 20 21  1  0
 21 23  1  0
 21 22  2  0
 23 24  2  0
 23 25  1  0
  3  4  2  0
  3  5  1  0
  5  6  1  0
  6  7  2  0
 12 13  2  0
M  END
>  <minimizedAffinity>  (549) 
-8.56423

$$$$
data/200k_reference_output/data/smiles/78351.pdb
     RDKit          3D

 24 26  0  0  0  0  0  0  0  0999 V2000
   69.3096   44.1850   57.1333 O   0  0  0  0  0  0  0  0  0  0  0  0
   69.7579   45.3252   57.3938 C   0  0  0  0  0  0  0  0  0  0  0  0
   70.9221   45.5854   58.1962 N   0  0  0  0  0  0  0  0  0  0  0  0
   71.1036   47.0071   58.2549 C   0  0  0  0  0  0  0  0  0  0  0  0
   72.0112   47.6399   58.8585 O   0  0  0  0  0  0  0  0  0  0  0  0
   70.0253   47.5770   57.4761 C   0  0  0  0  0  0  0  0  0  0  0  0
   69.2524   46.6188   56.9794 C   0  0  0  0  0  0  0  0  0  0  0  0
   69.7487   49.0092   57.2643 C   0  0  0  0  0  0  0  0  0  0  0  0
   68.6250   49.6035   57.7773 C   0  0  0  0  0  0  0  0  0  0  0  0
   68.3620   50.9377   57.5698 C   0  0  0  0  0  0  0  0  0  0  0  0
   69.2523   51.7072   56.8251 C   0  0  0  0  0  0  0  0  0  0  0  0
   68.9981   53.4106   56.5198 Cl  0  0  0  0  0  0  0  0  0  0  0  0
   70.3982   51.1029   56.3012 C   0  0  0  0  0  0  0  0  0  0  0  0
   70.6207   49.7748   56.5298 C   0  0  0  0  0  0  0  0  0  0  0  0
   68.1069   46.8183   56.1366 N   0  0  0  0  0  0  0  0  0  0  0  0
   68.3341   46.8108   54.7060 C   0  0  0  0  0  0  0  0  0  0  0  0
   67.7173   45.9080   53.8649 C   0  0  0  0  0  0  0  0  0  0  0  0
   67.9215   45.9088   52.4990 C   0  0  0  0  0  0  0  0  0  0  0  0
   68.7745   46.8453   51.9440 C   0  0  0  0  0  0  0  0  0  0  0  0
   69.4093   47.7620   52.7471 C   0  0  0  0  0  0  0  0  0  0  0  0
   69.1774   47.7307   54.1263 C   0  0  0  0  0  0  0  0  0  0  0  0
   70.3052   48.7209   52.1417 C   0  0  0  0  0  0  0  0  0  0  0  0
   70.0315   49.2317   51.0386 O   0  0  0  0  0  0  0  0  0  0  0  0
   71.4659   49.0758   52.7857 O   0  0  0  0  0  0  0  0  0  0  0  0
  1  2  2  0
  2  3  1  0
  2  7  1  0
  3  4  1  0
  4  5  2  0
  4  6  1  0
  6  8  1  0
  6  7  2  0
  8  9  2  0
  8 14  1  0
  9 10  1  0
 10 11  2  0
 11 12  1  0
 11 13  1  0
 13 14  2  0
  7 15  1  0
 15 16  1  0
 16 17  2  0
 16 21  1  0
 17 18  1  0
 18 19  2  0
 19 20  1  0
 20 22  1  0
 20 21  2  0
 22 23  2  0
 22 24  1  0
M  END
>  <minimizedAffinity>  (550) 
-8.56327

$$$$
data/200k_reference_output/data/smiles/55606.pdb
     RDKit          3D

 25 28  0  0  0  0  0  0  0  0999 V2000
   70.7706   44.8972   57.4573 O   0  0  0  0  0  0  0  0  0  0  0  0
   70.0715   43.8670   57.3646 C   0  0  0  0  0  0  0  0  0  0  0  0
   70.4294   42.6489   58.0560 C   0  0  0  0  0  0  0  0  0  0  0  0
   71.5728   42.5837   58.8383 C   0  0  0  0  0  0  0  0  0  0  0  0
   71.9234   41.4014   59.4966 C   0  0  0  0  0  0  0  0  0  0  0  0
   71.1400   40.2750   59.3818 C   0  0  0  0  0  0  0  0  0  0  0  0
   70.0005   40.3475   58.5995 C   0  0  0  0  0  0  0  0  0  0  0  0
   69.2324   39.1880   58.4960 C   0  0  0  0  0  0  0  0  0  0  0  0
   68.1046   39.2770   57.7028 C   0  0  0  0  0  0  0  0  0  0  0  0
   67.7627   40.4373   57.0560 C   0  0  0  0  0  0  0  0  0  0  0  0
   68.5340   41.5780   57.1674 C   0  0  0  0  0  0  0  0  0  0  0  0
   69.6562   41.5168   57.9494 C   0  0  0  0  0  0  0  0  0  0  0  0
   68.1013   42.7650   56.4382 C   0  0  0  0  0  0  0  0  0  0  0  0
   67.0714   42.7508   55.7450 O   0  0  0  0  0  0  0  0  0  0  0  0
   68.8715   43.9496   56.5208 N   0  0  0  0  0  0  0  0  0  0  0  0
   68.6441   45.0557   55.8922 N   0  0  0  0  0  0  0  0  0  0  0  0
   68.4446   46.0437   55.3272 C   0  0  0  0  0  0  0  0  0  0  0  0
   68.8037   46.9286   54.2716 C   0  0  0  0  0  0  0  0  0  0  0  0
   69.3486   48.1819   54.4964 C   0  0  0  0  0  0  0  0  0  0  0  0
   69.6836   49.0242   53.4623 C   0  0  0  0  0  0  0  0  0  0  0  0
   69.4907   48.6534   52.1479 C   0  0  0  0  0  0  0  0  0  0  0  0
   69.8535   49.5569   51.1380 O   0  0  0  0  0  0  0  0  0  0  0  0
   68.9528   47.4208   51.8884 C   0  0  0  0  0  0  0  0  0  0  0  0
   68.6165   46.5757   52.9552 C   0  0  0  0  0  0  0  0  0  0  0  0
   68.0789   45.3515   52.5953 O   0  0  0  0  0  0  0  0  0  0  0  0
  1  2  2  0
  2  3  1  0
  2 15  1  0
  3  4  1  0
  3 12  2  0
  4  5  2  0
  5  6  1  0
  6  7  2  0
  7  8  1  0
  7 12  1  0
  8  9  2  0
  9 10  1  0
 10 11  2  0
 11 12  1  0
 11 13  1  0
 13 14  2  0
 13 15  1  0
 15 16  1  0
 16 17  2  3
 17 18  1  0
 18 19  2  0
 18 24  1  0
 19 20  1  0
 20 21  2  0
 21 22  1  0
 21 23  1  0
 23 24  2  0
 24 25  1  0
M  END
>  <minimizedAffinity>  (551) 
-8.56262

$$$$
data/200k_reference_output/data/smiles/58867.pdb
     RDKit          3D

 24 25  0  0  0  0  0  0  0  0999 V2000
   68.1202   44.5320   55.6531 N   0  0  0  0  0  0  0  0  0  0  0  0
   68.0405   45.3087   54.5019 C   0  0  0  0  0  0  0  0  0  0  0  0
   67.4679   44.8007   53.5025 O   0  0  0  0  0  0  0  0  0  0  0  0
   68.5697   46.6641   54.3617 C   0  0  0  0  0  0  0  0  0  0  0  0
   68.6625   47.5158   55.4213 C   0  0  0  0  0  0  0  0  0  0  0  0
   69.1651   48.8117   55.3096 C   0  0  0  0  0  0  0  0  0  0  0  0
   69.5879   49.2491   54.0645 C   0  0  0  0  0  0  0  0  0  0  0  0
   70.1262   50.6422   53.9581 C   0  0  0  0  0  0  0  0  0  0  0  0
   69.5079   48.4136   52.9732 C   0  0  0  0  0  0  0  0  0  0  0  0
   68.9981   47.1341   53.1449 C   0  0  0  0  0  0  0  0  0  0  0  0
   69.9520   48.9022   51.7172 N   0  0  0  0  0  0  0  0  0  0  0  0
   70.6033   48.2201   50.9039 O   0  0  0  0  0  0  0  0  0  0  0  0
   69.6560   50.1956   51.3602 O   0  0  0  0  0  0  0  0  0  0  0  0
   67.5720   41.0024   57.0053 N   0  0  0  0  0  0  0  0  0  0  0  0
   68.1559   42.2990   56.8252 C   0  0  0  0  0  0  0  0  0  0  0  0
   69.1523   42.5386   57.5292 O   0  0  0  0  0  0  0  0  0  0  0  0
   67.6786   43.2596   55.9361 N   0  0  0  0  0  0  0  0  0  0  0  0
   71.1929   38.0383   58.5194 C   0  0  0  0  0  0  0  0  0  0  0  0
   69.8336   38.5924   58.6803 C   0  0  0  0  0  0  0  0  0  0  0  0
   69.0409   38.1830   59.7285 C   0  0  0  0  0  0  0  0  0  0  0  0
   67.7641   38.7021   59.8817 C   0  0  0  0  0  0  0  0  0  0  0  0
   67.3074   39.6354   58.9614 C   0  0  0  0  0  0  0  0  0  0  0  0
   68.0784   40.0572   57.9102 C   0  0  0  0  0  0  0  0  0  0  0  0
   69.3377   39.5381   57.7691 C   0  0  0  0  0  0  0  0  0  0  0  0
 18 19  1  0
 19 20  2  0
 19 24  1  0
 20 21  1  0
 21 22  2  0
 22 23  1  0
 23 14  1  0
 23 24  2  0
 14 15  1  0
 15 16  2  0
 15 17  1  0
 17  1  1  0
  1  2  1  0
  2  3  2  0
  2  4  1  0
  4  5  2  0
  4 10  1  0
  5  6  1  0
  6  7  2  0
  7  8  1  0
  7  9  1  0
  9 11  1  0
  9 10  2  0
 11 12  2  0
 11 13  1  0
M  CHG  2  11   1  13  -1
M  END
>  <minimizedAffinity>  (552) 
-8.56255

$$$$
data/reference_output_2/data/smiles/96857.pdb
     RDKit          3D

 26 29  0  0  0  0  0  0  0  0999 V2000
   69.0394   51.1780   56.1668 C   0  0  0  0  0  0  0  0  0  0  0  0
   68.7884   50.1744   55.2208 C   0  0  0  0  0  0  0  0  0  0  0  0
   69.1180   48.9021   55.4021 C   0  0  0  0  0  0  0  0  0  0  0  0
   69.7667   48.4829   56.5731 C   0  0  0  0  0  0  0  0  0  0  0  0
   70.0644   49.4006   57.5517 C   0  0  0  0  0  0  0  0  0  0  0  0
   70.7656   49.2955   58.7833 C   0  0  0  0  0  0  0  0  0  0  0  0
   70.6947   50.5910   59.2429 N   0  0  0  0  0  0  0  0  0  0  0  0
   70.0935   51.3892   58.4255 N   0  0  0  0  0  0  0  0  0  0  0  0
   69.6768   50.7266   57.3271 C   0  0  0  0  0  0  0  0  0  0  0  0
   68.8086   47.9141   54.3392 C   0  0  0  0  0  0  0  0  0  0  0  0
   67.9119   46.8635   54.6128 C   0  0  0  0  0  0  0  0  0  0  0  0
   67.8220   45.9507   53.5720 C   0  0  0  0  0  0  0  0  0  0  0  0
   68.4066   45.9065   52.4324 C   0  0  0  0  0  0  0  0  0  0  0  0
   69.3337   47.0238   52.1063 C   0  0  0  0  0  0  0  0  0  0  0  0
   69.9453   47.3613   50.9564 N   0  0  0  0  0  0  0  0  0  0  0  0
   70.4549   48.5728   51.2289 N   0  0  0  0  0  0  0  0  0  0  0  0
   70.2443   48.9803   52.4475 C   0  0  0  0  0  0  0  0  0  0  0  0
   69.4569   47.9345   53.1032 C   0  0  0  0  0  0  0  0  0  0  0  0
   68.6880   52.9115   54.4246 N   0  0  0  0  0  0  0  0  0  0  0  0
   68.9539   52.6207   55.8123 C   0  0  0  0  0  0  0  0  0  0  0  0
   69.0778   53.5015   56.6292 O   0  0  0  0  0  0  0  0  0  0  0  0
   71.6117   48.3420   59.1732 C   0  0  0  0  0  0  0  0  0  0  0  0
   72.4595   47.4213   59.5553 C   0  0  0  0  0  0  0  0  0  0  0  0
   73.4428   46.3337   59.9822 C   0  0  0  0  0  0  0  0  0  0  0  0
   72.7165   45.3252   60.8163 C   0  0  0  0  0  0  0  0  0  0  0  0
   71.3992   45.1838   60.3851 O   0  0  0  0  0  0  0  0  0  0  0  0
 19 20  1  0
 20 21  2  0
 20  1  1  0
  1  2  2  0
  1  9  1  0
  2  3  1  0
  3 10  1  0
  3  4  2  0
 10 11  2  0
 10 18  1  0
 11 12  1  0
 12 13  2  0
 13 14  1  0
 14 15  1  0
 14 18  2  0
 15 16  1  0
 16 17  2  0
 17 18  1  0
  4  5  1  0
  5  6  1  0
  5  9  2  0
  6 22  1  0
  6  7  2  0
 22 23  3  0
 23 24  1  0
 24 25  1  0
 25 26  1  0
  7  8  1  0
  8  9  1  0
M  END
>  <minimizedAffinity>  (553) 
-8.56109

$$$$
data/reference_output_2/data/smiles/157463.pdb
     RDKit          3D

 24 25  0  0  0  0  0  0  0  0999 V2000
   69.3507   43.3883   56.9959 C   0  0  0  0  0  0  0  0  0  0  0  0
   68.1388   42.9912   56.2936 C   0  0  0  0  0  0  0  0  0  0  0  0
   67.6123   43.8311   55.4769 N   0  0  0  0  0  0  0  0  0  0  0  0
   68.2308   45.0708   55.3088 N   0  0  0  0  0  0  0  0  0  0  0  0
   68.1511   45.6958   54.0363 C   0  0  0  0  0  0  0  0  0  0  0  0
   67.5171   45.0914   53.1099 O   0  0  0  0  0  0  0  0  0  0  0  0
   68.7501   46.9923   53.7158 C   0  0  0  0  0  0  0  0  0  0  0  0
   68.7567   48.0069   54.6477 C   0  0  0  0  0  0  0  0  0  0  0  0
   69.3107   49.2402   54.3834 C   0  0  0  0  0  0  0  0  0  0  0  0
   69.8955   49.5205   53.1505 C   0  0  0  0  0  0  0  0  0  0  0  0
   69.8899   48.5086   52.2177 C   0  0  0  0  0  0  0  0  0  0  0  0
   70.4610   48.7236   50.9570 O   0  0  0  0  0  0  0  0  0  0  0  0
   69.3294   47.2737   52.4989 C   0  0  0  0  0  0  0  0  0  0  0  0
   67.5294   41.6323   56.5292 C   0  0  0  0  0  0  0  0  0  0  0  0
   67.4837   41.3472   57.9895 C   0  0  0  0  0  0  0  0  0  0  0  0
   68.1081   40.3668   58.4260 O   0  0  0  0  0  0  0  0  0  0  0  0
   66.7513   42.1594   58.8964 N   0  0  0  0  0  0  0  0  0  0  0  0
   66.7306   41.8542   60.2936 C   0  0  0  0  0  0  0  0  0  0  0  0
   65.9831   40.8158   60.8123 C   0  0  0  0  0  0  0  0  0  0  0  0
   65.9938   40.5585   62.1679 C   0  0  0  0  0  0  0  0  0  0  0  0
   66.7319   41.3068   63.0587 C   0  0  0  0  0  0  0  0  0  0  0  0
   67.4847   42.3523   62.5483 C   0  0  0  0  0  0  0  0  0  0  0  0
   68.2250   43.1102   63.4016 F   0  0  0  0  0  0  0  0  0  0  0  0
   67.4705   42.6036   61.1894 C   0  0  0  0  0  0  0  0  0  0  0  0
  1  2  1  0
  2 14  1  0
  2  3  2  0
 14 15  1  0
 15 16  2  0
 15 17  1  0
 17 18  1  0
 18 19  2  0
 18 24  1  0
 19 20  1  0
 20 21  2  0
 21 22  1  0
 22 23  1  0
 22 24  2  0
  3  4  1  0
  4  5  1  0
  5  6  2  0
  5  7  1  0
  7  8  2  0
  7 13  1  0
  8  9  1  0
  9 10  2  0
 10 11  1  0
 11 12  1  0
 11 13  2  0
M  END
>  <minimizedAffinity>  (554) 
-8.56096

$$$$
data/reference_output_2/data/smiles/103211.pdb
     RDKit          3D

 22 23  0  0  0  0  0  0  0  0999 V2000
   69.0152   44.4273   56.5170 O   0  0  0  0  0  0  0  0  0  0  0  0
   68.0823   44.0563   55.7537 C   0  0  0  0  0  0  0  0  0  0  0  0
   67.5083   42.7952   55.9788 N   0  0  0  0  0  0  0  0  0  0  0  0
   67.6908   44.9553   54.7265 N   0  0  0  0  0  0  0  0  0  0  0  0
   68.2878   46.2191   54.5259 C   0  0  0  0  0  0  0  0  0  0  0  0
   68.3782   47.1144   55.5656 C   0  0  0  0  0  0  0  0  0  0  0  0
   68.9691   48.3729   55.3807 C   0  0  0  0  0  0  0  0  0  0  0  0
   69.4696   48.7397   54.1602 C   0  0  0  0  0  0  0  0  0  0  0  0
   69.3866   47.8544   53.1113 C   0  0  0  0  0  0  0  0  0  0  0  0
   68.7938   46.6009   53.3130 C   0  0  0  0  0  0  0  0  0  0  0  0
   69.8979   48.2111   51.8363 N   0  0  0  0  0  0  0  0  0  0  0  0
   70.1305   47.3658   50.9637 O   0  0  0  0  0  0  0  0  0  0  0  0
   70.1408   49.5268   51.5665 O   0  0  0  0  0  0  0  0  0  0  0  0
   67.9037   41.9188   56.9955 N   0  0  0  0  0  0  0  0  0  0  0  0
   68.0193   40.5176   56.8288 C   0  0  0  0  0  0  0  0  0  0  0  0
   67.7402   40.0750   55.6806 O   0  0  0  0  0  0  0  0  0  0  0  0
   68.4274   39.6061   57.8759 C   0  0  0  0  0  0  0  0  0  0  0  0
   69.7630   39.3659   58.0918 C   0  0  0  0  0  0  0  0  0  0  0  0
   70.1966   38.4918   59.0940 C   0  0  0  0  0  0  0  0  0  0  0  0
   69.2790   37.8640   59.8735 N   0  0  0  0  0  0  0  0  0  0  0  0
   67.9704   38.0796   59.6848 C   0  0  0  0  0  0  0  0  0  0  0  0
   67.5343   38.9476   58.6902 C   0  0  0  0  0  0  0  0  0  0  0  0
  1  2  2  0
  2  3  1  0
  2  4  1  0
  3 14  1  0
 14 15  1  0
 15 16  2  0
 15 17  1  0
 17 18  2  0
 17 22  1  0
 18 19  1  0
 19 20  2  0
 20 21  1  0
 21 22  2  0
  4  5  1  0
  5  6  2  0
  5 10  1  0
  6  7  1  0
  7  8  2  0
  8  9  1  0
  9 11  1  0
  9 10  2  0
 11 12  2  0
 11 13  1  0
M  CHG  2  11   1  13  -1
M  END
>  <minimizedAffinity>  (555) 
-8.55974

$$$$
data/reference_output_2/data/smiles/174968.pdb
     RDKit          3D

 24 27  0  0  0  0  0  0  0  0999 V2000
   66.2958   48.0918   58.4763 N   0  0  0  0  0  0  0  0  0  0  0  0
   67.0159   49.1762   57.8623 C   0  0  0  0  0  0  0  0  0  0  0  0
   66.4038   50.3813   57.6226 C   0  0  0  0  0  0  0  0  0  0  0  0
   67.1175   51.3894   57.0387 C   0  0  0  0  0  0  0  0  0  0  0  0
   68.4599   51.2310   56.6741 C   0  0  0  0  0  0  0  0  0  0  0  0
   69.0693   50.0534   56.9053 C   0  0  0  0  0  0  0  0  0  0  0  0
   68.3271   49.0264   57.5058 C   0  0  0  0  0  0  0  0  0  0  0  0
   70.4127   49.5719   56.6561 C   0  0  0  0  0  0  0  0  0  0  0  0
   71.3353   50.3937   55.8589 C   0  0  2  0  0  0  0  0  0  0  0  0
   72.0588   51.3433   56.7924 C   0  0  0  0  0  0  0  0  0  0  0  0
   71.3025   52.6459   56.6769 C   0  0  0  0  0  0  0  0  0  0  0  0
   70.3180   52.4669   55.5684 C   0  0  2  0  0  0  0  0  0  0  0  0
   68.9398   52.4648   56.0820 C   0  0  0  0  0  0  0  0  0  0  0  0
   70.7125   51.2287   54.7954 C   0  0  2  0  0  0  0  0  0  0  0  0
   69.6396   50.5326   54.1786 N   0  0  0  0  0  0  0  0  0  0  0  0
   70.1453   49.4764   52.9113 S   0  0  0  0  0  0  0  0  0  0  0  0
   71.6138   49.1834   52.9843 O   0  0  0  0  0  0  0  0  0  0  0  0
   69.8743   50.1255   51.5859 O   0  0  0  0  0  0  0  0  0  0  0  0
   69.2145   47.9997   52.9815 C   0  0  0  0  0  0  0  0  0  0  0  0
   68.8913   47.2502   51.8749 C   0  0  0  0  0  0  0  0  0  0  0  0
   68.1482   46.0933   52.0524 C   0  0  0  0  0  0  0  0  0  0  0  0
   67.7249   45.6716   53.2919 C   0  0  0  0  0  0  0  0  0  0  0  0
   68.0490   46.4211   54.3935 C   0  0  0  0  0  0  0  0  0  0  0  0
   68.7862   47.5675   54.2194 C   0  0  0  0  0  0  0  0  0  0  0  0
  1  2  1  0
  2  3  2  0
  2  7  1  0
  3  4  1  0
  4  5  2  0
  5  6  1  0
  5 13  1  0
  6  7  2  0
  6  8  1  0
  9  8  1  1
  9 10  1  0
  9 14  1  0
 10 11  1  0
 12 11  1  1
 12 13  1  0
 12 14  1  0
 14 15  1  1
 15 16  1  0
 16 17  2  0
 16 18  2  0
 16 19  1  0
 19 20  2  0
 19 24  1  0
 20 21  1  0
 21 22  2  0
 22 23  1  0
 23 24  2  0
M  END
>  <minimizedAffinity>  (556) 
-8.55883

$$$$
data/reference_output_2/data/smiles/133211.pdb
     RDKit          3D

 23 25  0  0  0  0  0  0  0  0999 V2000
   69.3859   43.0044   57.3091 C   0  0  0  0  0  0  0  0  0  0  0  0
   70.5334   42.3921   57.7557 C   0  0  0  0  0  0  0  0  0  0  0  0
   70.5666   41.0423   58.0826 C   0  0  0  0  0  0  0  0  0  0  0  0
   71.7174   40.4297   58.5274 C   0  0  0  0  0  0  0  0  0  0  0  0
   71.7514   39.0730   58.8565 C   0  0  0  0  0  0  0  0  0  0  0  0
   70.6175   38.2909   58.7427 C   0  0  0  0  0  0  0  0  0  0  0  0
   70.6515   36.9394   59.0691 O   0  0  0  0  0  0  0  0  0  0  0  0
   69.4655   38.9094   58.2948 C   0  0  0  0  0  0  0  0  0  0  0  0
   69.4430   40.2565   57.9723 C   0  0  0  0  0  0  0  0  0  0  0  0
   68.2898   40.8675   57.5245 C   0  0  0  0  0  0  0  0  0  0  0  0
   68.2592   42.2137   57.1989 C   0  0  0  0  0  0  0  0  0  0  0  0
   67.0939   42.8075   56.7516 O   0  0  0  0  0  0  0  0  0  0  0  0
   70.0252   45.2252   57.6585 O   0  0  0  0  0  0  0  0  0  0  0  0
   69.3359   44.4430   56.9502 C   0  0  0  0  0  0  0  0  0  0  0  0
   68.5766   44.9339   55.8919 N   0  0  0  0  0  0  0  0  0  0  0  0
   68.5288   46.3373   55.5573 C   0  0  0  0  0  0  0  0  0  0  0  0
   68.4497   46.4843   54.0884 C   0  0  0  0  0  0  0  0  0  0  0  0
   67.6270   45.6026   53.3655 C   0  0  0  0  0  0  0  0  0  0  0  0
   67.5657   45.7115   51.9865 C   0  0  0  0  0  0  0  0  0  0  0  0
   68.3091   46.6833   51.3240 C   0  0  0  0  0  0  0  0  0  0  0  0
   69.1170   47.5516   52.0221 C   0  0  0  0  0  0  0  0  0  0  0  0
   69.8815   48.5449   51.3844 O   0  0  0  0  0  0  0  0  0  0  0  0
   69.1670   47.4277   53.4012 C   0  0  0  0  0  0  0  0  0  0  0  0
 13 14  2  0
 14 15  1  0
 14  1  1  0
 15 16  1  0
 16 17  1  0
 17 18  2  0
 17 23  1  0
 18 19  1  0
 19 20  2  0
 20 21  1  0
 21 22  1  0
 21 23  2  0
  1  2  2  0
  1 11  1  0
  2  3  1  0
  3  4  2  0
  3  9  1  0
  4  5  1  0
  5  6  2  0
  6  7  1  0
  6  8  1  0
  8  9  2  0
  9 10  1  0
 10 11  2  0
 11 12  1  0
M  END
>  <minimizedAffinity>  (557) 
-8.55879

$$$$
data/200k_reference_output/data/smiles/57754.pdb
     RDKit          3D

 25 27  0  0  0  0  0  0  0  0999 V2000
   69.6289   47.9893   57.4928 C   0  0  0  0  0  0  0  0  0  0  0  0
   69.2228   46.8178   56.9588 C   0  0  0  0  0  0  0  0  0  0  0  0
   70.0887   45.7573   57.4110 C   0  0  0  0  0  0  0  0  0  0  0  0
   69.9838   44.5480   57.0993 O   0  0  0  0  0  0  0  0  0  0  0  0
   71.0707   46.3637   58.2725 N   0  0  0  0  0  0  0  0  0  0  0  0
   70.7944   47.7704   58.3338 C   0  0  0  0  0  0  0  0  0  0  0  0
   71.4515   48.6216   58.9959 O   0  0  0  0  0  0  0  0  0  0  0  0
   69.1081   51.4778   56.1727 C   0  0  0  0  0  0  0  0  0  0  0  0
   67.8621   51.7996   56.6982 C   0  0  0  0  0  0  0  0  0  0  0  0
   67.2028   50.8703   57.4812 C   0  0  0  0  0  0  0  0  0  0  0  0
   67.7480   49.6324   57.7547 C   0  0  0  0  0  0  0  0  0  0  0  0
   68.9753   49.2869   57.2507 C   0  0  0  0  0  0  0  0  0  0  0  0
   69.6305   50.2341   56.4617 C   0  0  0  0  0  0  0  0  0  0  0  0
   70.9906   52.9969   55.7265 C   0  0  0  0  0  0  0  0  0  0  0  0
   69.7664   52.4041   55.3898 O   0  0  0  0  0  0  0  0  0  0  0  0
   68.0875   46.7498   56.0889 N   0  0  0  0  0  0  0  0  0  0  0  0
   68.2661   46.7205   54.6766 C   0  0  0  0  0  0  0  0  0  0  0  0
   67.6846   45.7645   53.8771 C   0  0  0  0  0  0  0  0  0  0  0  0
   67.8691   45.7462   52.4993 C   0  0  0  0  0  0  0  0  0  0  0  0
   68.6584   46.7115   51.9063 C   0  0  0  0  0  0  0  0  0  0  0  0
   69.2576   47.6859   52.6879 C   0  0  0  0  0  0  0  0  0  0  0  0
   69.0468   47.6685   54.0570 C   0  0  0  0  0  0  0  0  0  0  0  0
   70.0893   48.6992   52.0488 C   0  0  0  0  0  0  0  0  0  0  0  0
   70.5871   48.4844   50.9151 O   0  0  0  0  0  0  0  0  0  0  0  0
   70.3463   49.8961   52.6583 O   0  0  0  0  0  0  0  0  0  0  0  0
 14 15  1  0
 15  8  1  0
  8  9  2  0
  8 13  1  0
  9 10  1  0
 10 11  2  0
 11 12  1  0
 12  1  1  0
 12 13  2  0
  1  2  2  0
  1  6  1  0
  2 16  1  0
  2  3  1  0
 16 17  1  0
 17 18  2  0
 17 22  1  0
 18 19  1  0
 19 20  2  0
 20 21  1  0
 21 23  1  0
 21 22  2  0
 23 24  2  0
 23 25  1  0
  3  4  2  0
  3  5  1  0
  5  6  1  0
  6  7  2  0
M  END
>  <minimizedAffinity>  (558) 
-8.55826

$$$$
data/reference_output_2/data/smiles/106594.pdb
     RDKit          3D

 23 24  0  0  0  0  0  0  0  0999 V2000
   68.2913   46.0430   56.2266 O   0  0  0  0  0  0  0  0  0  0  0  0
   68.1541   45.3655   55.1748 C   0  0  0  0  0  0  0  0  0  0  0  0
   67.8593   43.9995   55.3516 N   0  0  0  0  0  0  0  0  0  0  0  0
   68.3027   46.0096   53.8717 C   0  0  0  0  0  0  0  0  0  0  0  0
   67.6292   45.4955   52.7816 C   0  0  0  0  0  0  0  0  0  0  0  0
   67.7307   46.0626   51.5178 C   0  0  0  0  0  0  0  0  0  0  0  0
   68.5108   47.1636   51.3142 C   0  0  0  0  0  0  0  0  0  0  0  0
   69.1927   47.6916   52.3997 C   0  0  0  0  0  0  0  0  0  0  0  0
   69.0796   47.1128   53.6511 C   0  0  0  0  0  0  0  0  0  0  0  0
   70.0326   48.8907   52.1393 C   0  0  0  0  0  0  0  0  0  0  0  0
   69.2741   50.0169   51.8941 F   0  0  0  0  0  0  0  0  0  0  0  0
   70.9349   49.0765   53.1517 F   0  0  0  0  0  0  0  0  0  0  0  0
   70.7847   48.5847   50.9955 F   0  0  0  0  0  0  0  0  0  0  0  0
   67.7174   43.3841   56.6012 N   0  0  0  0  0  0  0  0  0  0  0  0
   67.2439   42.0469   56.7118 C   0  0  0  0  0  0  0  0  0  0  0  0
   66.9727   41.4778   55.6379 O   0  0  0  0  0  0  0  0  0  0  0  0
   67.0904   41.3876   58.0153 C   0  0  0  0  0  0  0  0  0  0  0  0
   66.5528   42.0174   59.0487 N   0  0  0  0  0  0  0  0  0  0  0  0
   66.3840   41.4688   60.2694 C   0  0  0  0  0  0  0  0  0  0  0  0
   66.8031   40.1646   60.4359 C   0  0  0  0  0  0  0  0  0  0  0  0
   67.3666   39.4617   59.4014 C   0  0  0  0  0  0  0  0  0  0  0  0
   67.5127   40.0900   58.1634 C   0  0  0  0  0  0  0  0  0  0  0  0
   68.0806   39.4054   57.0916 O   0  0  0  0  0  0  0  0  0  0  0  0
  1  2  2  0
  2  3  1  0
  2  4  1  0
  3 14  1  0
 14 15  1  0
 15 16  2  0
 15 17  1  0
 17 18  2  0
 17 22  1  0
 18 19  1  0
 19 20  2  0
 20 21  1  0
 21 22  2  0
 22 23  1  0
  4  5  2  0
  4  9  1  0
  5  6  1  0
  6  7  2  0
  7  8  1  0
  8 10  1  0
  8  9  2  0
 10 11  1  0
 10 12  1  0
 10 13  1  0
M  END
>  <minimizedAffinity>  (559) 
-8.55793

$$$$
data/reference_output_2/data/smiles/128431.pdb
     RDKit          3D

 24 26  0  0  0  0  0  0  0  0999 V2000
   70.1623   43.6945   57.7793 C   0  0  0  0  0  0  0  0  0  0  0  0
   69.5922   44.8150   57.6383 N   0  0  0  0  0  0  0  0  0  0  0  0
   70.4155   45.8966   57.8727 N   0  0  0  0  0  0  0  0  0  0  0  0
   70.2175   47.2788   57.5377 C   0  0  0  0  0  0  0  0  0  0  0  0
   71.1145   48.0999   57.8546 O   0  0  0  0  0  0  0  0  0  0  0  0
   71.5775   45.3620   58.5509 C   0  0  0  0  0  0  0  0  0  0  0  0
   71.5659   43.9162   58.1596 C   0  0  0  0  0  0  0  0  0  0  0  0
   69.2476   40.0595   58.0155 C   0  0  0  0  0  0  0  0  0  0  0  0
   68.1627   40.0252   57.1883 C   0  0  0  0  0  0  0  0  0  0  0  0
   67.7234   41.1707   56.5519 C   0  0  0  0  0  0  0  0  0  0  0  0
   68.3712   42.3834   56.7380 C   0  0  0  0  0  0  0  0  0  0  0  0
   67.9268   43.5653   56.0889 N   0  0  0  0  0  0  0  0  0  0  0  0
   69.4669   42.4035   57.5783 C   0  0  0  0  0  0  0  0  0  0  0  0
   69.8964   41.2550   58.2072 C   0  0  0  0  0  0  0  0  0  0  0  0
   70.9943   38.3798   58.4221 C   0  0  0  0  0  0  0  0  0  0  0  0
   69.7475   38.9537   58.6876 O   0  0  0  0  0  0  0  0  0  0  0  0
   69.0454   47.7786   56.8583 C   0  0  0  0  0  0  0  0  0  0  0  0
   69.1495   48.4262   55.5482 C   0  0  0  0  0  0  0  0  0  0  0  0
   68.8579   47.6570   54.3547 C   0  0  0  0  0  0  0  0  0  0  0  0
   69.4188   48.0632   53.1372 C   0  0  0  0  0  0  0  0  0  0  0  0
   69.1585   47.3806   51.9676 C   0  0  0  0  0  0  0  0  0  0  0  0
   68.3318   46.2719   51.9659 C   0  0  0  0  0  0  0  0  0  0  0  0
   67.7757   45.8637   53.1491 C   0  0  0  0  0  0  0  0  0  0  0  0
   68.0483   46.5668   54.3301 C   0  0  0  0  0  0  0  0  0  0  0  0
 15 16  1  0
 16  8  1  0
  8  9  2  0
  8 14  1  0
  9 10  1  0
 10 11  2  0
 11 12  1  0
 11 13  1  0
 13  1  1  0
 13 14  2  0
  1  2  2  0
  1  7  1  0
  2  3  1  0
  3  4  1  0
  3  6  1  0
  4  5  2  0
  4 17  1  0
 17 18  1  0
 18 19  1  0
 19 20  2  0
 19 24  1  0
 20 21  1  0
 21 22  2  0
 22 23  1  0
 23 24  2  0
  6  7  1  0
M  END
>  <minimizedAffinity>  (560) 
-8.55687

$$$$
data/200k_reference_output/data/smiles/57069.pdb
     RDKit          3D

 23 24  0  0  0  0  0  0  0  0999 V2000
   68.8516   47.3792   56.7183 S   0  0  0  0  0  0  0  0  0  0  0  0
   67.4564   47.5445   57.2652 O   0  0  0  0  0  0  0  0  0  0  0  0
   69.3311   46.0465   57.2422 O   0  0  0  0  0  0  0  0  0  0  0  0
   69.3164   47.9835   52.7601 C   0  0  0  0  0  0  0  0  0  0  0  0
   69.4033   48.1171   54.1258 C   0  0  0  0  0  0  0  0  0  0  0  0
   68.7547   47.2296   54.9898 C   0  0  0  0  0  0  0  0  0  0  0  0
   68.0132   46.2007   54.4512 C   0  0  0  0  0  0  0  0  0  0  0  0
   67.9141   46.0506   53.1009 C   0  0  0  0  0  0  0  0  0  0  0  0
   68.5617   46.9368   52.2668 C   0  0  0  0  0  0  0  0  0  0  0  0
   68.4454   46.7638   50.9068 O   0  0  0  0  0  0  0  0  0  0  0  0
   70.6482   48.4737   50.8704 O   0  0  0  0  0  0  0  0  0  0  0  0
   69.9877   48.9034   51.8469 C   0  0  0  0  0  0  0  0  0  0  0  0
   69.8977   50.2654   52.0602 O   0  0  0  0  0  0  0  0  0  0  0  0
   69.8691   48.6508   57.2512 N   0  0  0  0  0  0  0  0  0  0  0  0
   69.6322   50.0205   56.9884 C   0  0  0  0  0  0  0  0  0  0  0  0
   68.4328   50.6154   57.3557 C   0  0  0  0  0  0  0  0  0  0  0  0
   68.1889   51.9418   57.1350 C   0  0  0  0  0  0  0  0  0  0  0  0
   69.1330   52.7304   56.5399 C   0  0  0  0  0  0  0  0  0  0  0  0
   70.3153   52.1460   56.1784 C   0  0  0  0  0  0  0  0  0  0  0  0
   70.5975   50.8183   56.3818 C   0  0  0  0  0  0  0  0  0  0  0  0
   71.8697   50.2646   55.9653 C   0  0  0  0  0  0  0  0  0  0  0  0
   72.0857   50.0120   54.7582 O   0  0  0  0  0  0  0  0  0  0  0  0
   72.8976   49.9897   56.8623 O   0  0  0  0  0  0  0  0  0  0  0  0
 11 12  2  0
 12 13  1  0
 12  4  1  0
  4  5  2  0
  4  9  1  0
  5  6  1  0
  6  1  1  0
  6  7  2  0
  1  2  2  0
  1  3  2  0
  1 14  1  0
 14 15  1  0
 15 16  2  0
 15 20  1  0
 16 17  1  0
 17 18  2  0
 18 19  1  0
 19 20  2  0
 20 21  1  0
 21 22  2  0
 21 23  1  0
  7  8  1  0
  8  9  2  0
  9 10  1  0
M  END
>  <minimizedAffinity>  (561) 
-8.55631

$$$$
data/200k_reference_output/data/smiles/46058.pdb
     RDKit          3D

 26 29  0  0  0  0  0  0  0  0999 V2000
   68.5128   47.0193   55.5173 C   0  0  0  0  0  0  0  0  0  0  0  0
   67.1995   47.2845   55.9741 O   0  0  0  0  0  0  0  0  0  0  0  0
   68.4746   46.9037   54.0875 C   0  0  0  0  0  0  0  0  0  0  0  0
   67.8097   46.0294   53.2159 C   0  0  0  0  0  0  0  0  0  0  0  0
   67.9558   46.1463   51.8502 C   0  0  0  0  0  0  0  0  0  0  0  0
   68.7536   47.1179   51.2930 C   0  0  0  0  0  0  0  0  0  0  0  0
   69.4124   47.9820   52.1365 C   0  0  0  0  0  0  0  0  0  0  0  0
   69.2662   47.8669   53.5255 C   0  0  0  0  0  0  0  0  0  0  0  0
   69.8490   48.6471   54.6093 C   0  0  0  0  0  0  0  0  0  0  0  0
   70.7169   49.7355   54.6476 C   0  0  0  0  0  0  0  0  0  0  0  0
   71.1371   50.3168   55.8242 C   0  0  0  0  0  0  0  0  0  0  0  0
   70.6897   49.8154   57.0396 C   0  0  0  0  0  0  0  0  0  0  0  0
   69.8301   48.7390   57.0107 C   0  0  0  0  0  0  0  0  0  0  0  0
   69.4076   48.1524   55.8097 C   0  0  0  0  0  0  0  0  0  0  0  0
   70.0371   45.9764   56.9503 O   0  0  0  0  0  0  0  0  0  0  0  0
   69.0023   45.8366   56.2526 C   0  0  0  0  0  0  0  0  0  0  0  0
   68.3960   44.5563   56.2328 N   0  0  0  0  0  0  0  0  0  0  0  0
   68.9608   43.5375   56.9685 N   0  0  0  0  0  0  0  0  0  0  0  0
   68.5910   42.3243   57.0015 C   0  0  0  0  0  0  0  0  0  0  0  0
   69.2342   41.2935   57.8044 C   0  0  0  0  0  0  0  0  0  0  0  0
   70.2279   41.5558   58.7147 C   0  0  0  0  0  0  0  0  0  0  0  0
   70.8050   40.5376   59.4527 C   0  0  0  0  0  0  0  0  0  0  0  0
   70.3606   39.2376   59.2565 C   0  0  0  0  0  0  0  0  0  0  0  0
   69.3606   38.9385   58.3467 C   0  0  0  0  0  0  0  0  0  0  0  0
   68.8139   39.9947   57.6322 C   0  0  0  0  0  0  0  0  0  0  0  0
   67.8047   39.7105   56.7117 O   0  0  0  0  0  0  0  0  0  0  0  0
 15 16  2  0
 16 17  1  0
 16  1  1  0
 17 18  1  0
 18 19  2  0
 19 20  1  0
 20 21  2  0
 20 25  1  0
 21 22  1  0
 22 23  2  0
 23 24  1  0
 24 25  2  0
 25 26  1  0
  1  2  1  0
  1  3  1  0
  1 14  1  0
  3  4  2  0
  3  8  1  0
  4  5  1  0
  5  6  2  0
  6  7  1  0
  7  8  2  0
  8  9  1  0
  9 10  2  0
  9 14  1  0
 10 11  1  0
 11 12  2  0
 12 13  1  0
 13 14  2  0
M  END
>  <minimizedAffinity>  (562) 
-8.55566

$$$$
data/reference_output_2/data/smiles/97849.pdb
     RDKit          3D

 24 26  0  0  0  0  0  0  0  0999 V2000
   72.2380   51.0236   55.0458 C   0  0  1  0  0  0  0  0  0  0  0  0
   73.6693   50.9336   54.7682 C   0  0  0  0  0  0  0  0  0  0  0  0
   74.1423   50.3493   53.7335 O   0  0  0  0  0  0  0  0  0  0  0  0
   74.6208   51.5057   55.6478 N   0  0  0  0  0  0  0  0  0  0  0  0
   75.9579   51.4464   55.4192 O   0  0  0  0  0  0  0  0  0  0  0  0
   70.5461   49.9013   53.5431 C   0  0  0  0  0  0  0  0  0  0  0  0
   70.2332   51.0184   53.0745 O   0  0  0  0  0  0  0  0  0  0  0  0
   71.5526   49.8450   54.5421 N   0  0  0  0  0  0  0  0  0  0  0  0
   67.7672   45.8339   53.6479 C   0  0  0  0  0  0  0  0  0  0  0  0
   68.6816   46.8645   53.0977 C   0  0  0  0  0  0  0  0  0  0  0  0
   69.2367   46.9307   51.8334 C   0  0  0  0  0  0  0  0  0  0  0  0
   69.9996   48.0729   51.8474 C   0  0  0  0  0  0  0  0  0  0  0  0
   69.8971   48.6627   53.0841 C   0  0  0  0  0  0  0  0  0  0  0  0
   69.0975   47.9054   53.8029 O   0  0  0  0  0  0  0  0  0  0  0  0
   71.8402   51.3585   56.4353 C   0  0  0  0  0  0  0  0  0  0  0  0
   70.4437   51.6657   56.6904 C   0  0  0  0  0  0  0  0  0  0  0  0
   69.9559   52.9652   56.5853 C   0  0  0  0  0  0  0  0  0  0  0  0
   68.6440   52.9073   56.8451 N   0  0  0  0  0  0  0  0  0  0  0  0
   68.2693   51.6567   57.1091 C   0  0  0  0  0  0  0  0  0  0  0  0
   67.0469   51.1435   57.4317 C   0  0  0  0  0  0  0  0  0  0  0  0
   66.9091   49.7938   57.6760 C   0  0  0  0  0  0  0  0  0  0  0  0
   68.0194   48.9872   57.5880 C   0  0  0  0  0  0  0  0  0  0  0  0
   69.2605   49.4855   57.2638 C   0  0  0  0  0  0  0  0  0  0  0  0
   69.4073   50.8426   57.0163 C   0  0  0  0  0  0  0  0  0  0  0  0
  9 10  1  0
 10 11  2  0
 10 14  1  0
 11 12  1  0
 12 13  2  0
 13  6  1  0
 13 14  1  0
  6  7  2  0
  6  8  1  0
  8  1  1  0
  1 15  1  1
  1  2  1  0
 15 16  1  0
 16 17  2  0
 16 24  1  0
 17 18  1  0
 18 19  1  0
 19 20  1  0
 19 24  2  0
 20 21  2  0
 21 22  1  0
 22 23  2  0
 23 24  1  0
  2  3  2  0
  2  4  1  0
  4  5  1  0
M  END
>  <minimizedAffinity>  (563) 
-8.55558

$$$$
data/reference_output_2/data/smiles/119891.pdb
     RDKit          3D

 25 27  0  0  0  0  0  0  0  0999 V2000
   69.2053   47.8645   55.2244 N   0  0  0  0  0  0  0  0  0  0  0  0
   70.0425   48.9553   55.0972 C   0  0  0  0  0  0  0  0  0  0  0  0
   70.4850   49.4568   53.9249 C   0  0  0  0  0  0  0  0  0  0  0  0
   70.0789   48.8420   52.7691 C   0  0  0  0  0  0  0  0  0  0  0  0
   70.4706   49.2822   51.6552 O   0  0  0  0  0  0  0  0  0  0  0  0
   69.2431   47.7460   52.8469 C   0  0  0  0  0  0  0  0  0  0  0  0
   68.8547   47.1210   51.6808 C   0  0  0  0  0  0  0  0  0  0  0  0
   68.0402   46.0111   51.6838 C   0  0  0  0  0  0  0  0  0  0  0  0
   67.6263   45.5446   52.9016 C   0  0  0  0  0  0  0  0  0  0  0  0
   67.9993   46.1504   54.1074 C   0  0  0  0  0  0  0  0  0  0  0  0
   67.6027   45.6312   55.2669 F   0  0  0  0  0  0  0  0  0  0  0  0
   68.8174   47.2707   54.0988 C   0  0  0  0  0  0  0  0  0  0  0  0
   71.3753   50.6204   53.8241 C   0  0  0  0  0  0  0  0  0  0  0  0
   70.9120   51.7622   53.6174 O   0  0  0  0  0  0  0  0  0  0  0  0
   72.7424   50.4892   53.9533 O   0  0  0  0  0  0  0  0  0  0  0  0
   68.7473   47.4997   56.5347 C   0  0  0  0  0  0  0  0  0  0  0  0
   71.5379   47.0276   59.1013 C   0  0  0  0  0  0  0  0  0  0  0  0
   71.7516   45.6790   58.9344 C   0  0  0  0  0  0  0  0  0  0  0  0
   71.0309   44.9343   58.0347 C   0  0  0  0  0  0  0  0  0  0  0  0
   70.0730   45.5561   57.2818 C   0  0  0  0  0  0  0  0  0  0  0  0
   69.8147   46.9125   57.4067 C   0  0  0  0  0  0  0  0  0  0  0  0
   70.5420   47.6144   58.3020 C   0  0  0  0  0  0  0  0  0  0  0  0
   73.0750   48.9059   59.6009 N   0  0  0  0  0  0  0  0  0  0  0  0
   72.2896   47.8301   60.0470 C   0  0  0  0  0  0  0  0  0  0  0  0
   72.2426   47.5687   61.2702 O   0  0  0  0  0  0  0  0  0  0  0  0
 23 24  1  0
 24 25  2  0
 24 17  1  0
 17 18  2  0
 17 22  1  0
 18 19  1  0
 19 20  2  0
 20 21  1  0
 21 16  1  0
 21 22  2  0
 16  1  1  0
  1  2  1  0
  1 12  1  0
  2  3  2  0
  3 13  1  0
  3  4  1  0
 13 14  2  0
 13 15  1  0
  4  5  2  0
  4  6  1  0
  6  7  1  0
  6 12  2  0
  7  8  2  0
  8  9  1  0
  9 10  2  0
 10 11  1  0
 10 12  1  0
M  END
>  <minimizedAffinity>  (564) 
-8.55446

$$$$
data/reference_output_2/data/smiles/188008.pdb
     RDKit          3D

 23 25  0  0  0  0  0  0  0  0999 V2000
   72.3250   51.0501   54.9178 C   0  0  2  0  0  0  0  0  0  0  0  0
   70.2489   51.0339   53.0672 O   0  0  0  0  0  0  0  0  0  0  0  0
   70.5698   49.8784   53.5089 C   0  0  0  0  0  0  0  0  0  0  0  0
   71.6282   49.8520   54.4544 N   0  0  0  0  0  0  0  0  0  0  0  0
   69.8704   48.6839   53.0500 C   0  0  0  0  0  0  0  0  0  0  0  0
   68.9508   47.9850   53.7967 C   0  0  0  0  0  0  0  0  0  0  0  0
   68.3048   46.8448   53.3055 C   0  0  0  0  0  0  0  0  0  0  0  0
   68.5985   46.4070   52.0328 C   0  0  0  0  0  0  0  0  0  0  0  0
   69.4963   47.0860   51.2959 N   0  0  0  0  0  0  0  0  0  0  0  0
   70.1281   48.2007   51.7752 C   0  0  0  0  0  0  0  0  0  0  0  0
   73.7674   50.9811   54.6310 C   0  0  0  0  0  0  0  0  0  0  0  0
   74.1546   50.2832   53.6602 O   0  0  0  0  0  0  0  0  0  0  0  0
   74.7405   51.6413   55.3681 O   0  0  0  0  0  0  0  0  0  0  0  0
   71.9728   51.3659   56.3321 C   0  0  0  0  0  0  0  0  0  0  0  0
   70.6024   51.8262   56.5555 C   0  0  0  0  0  0  0  0  0  0  0  0
   70.0115   53.0629   56.4747 C   0  0  0  0  0  0  0  0  0  0  0  0
   68.7104   53.0199   56.7656 N   0  0  0  0  0  0  0  0  0  0  0  0
   68.4223   51.7360   57.0467 C   0  0  0  0  0  0  0  0  0  0  0  0
   67.1981   51.1912   57.4052 C   0  0  0  0  0  0  0  0  0  0  0  0
   67.0790   49.8295   57.6613 C   0  0  0  0  0  0  0  0  0  0  0  0
   68.2312   49.0852   57.5383 C   0  0  0  0  0  0  0  0  0  0  0  0
   69.4472   49.6180   57.1837 C   0  0  0  0  0  0  0  0  0  0  0  0
   69.5630   50.9674   56.9281 C   0  0  0  0  0  0  0  0  0  0  0  0
  2  3  2  0
  3  4  1  0
  3  5  1  0
  4  1  1  0
  1 14  1  1
  1 11  1  0
 14 15  1  0
 15 16  2  0
 15 23  1  0
 16 17  1  0
 17 18  1  0
 18 19  1  0
 18 23  2  0
 19 20  2  0
 20 21  1  0
 21 22  2  0
 22 23  1  0
 11 12  2  0
 11 13  1  0
  5  6  2  0
  5 10  1  0
  6  7  1  0
  7  8  2  0
  8  9  1  0
  9 10  2  0
M  END
>  <minimizedAffinity>  (565) 
-8.55417

$$$$
data/200k_reference_output/data/smiles/39578.pdb
     RDKit          3D

 22 24  0  0  0  0  0  0  0  0999 V2000
   68.4535   46.7820   56.7640 N   0  0  0  0  0  0  0  0  0  0  0  0
   67.0351   45.1873   52.6214 O   0  0  0  0  0  0  0  0  0  0  0  0
   67.7677   45.9522   53.2862 C   0  0  0  0  0  0  0  0  0  0  0  0
   67.6968   45.9302   54.6305 N   0  0  0  0  0  0  0  0  0  0  0  0
   68.4717   46.7422   55.3574 C   0  0  0  0  0  0  0  0  0  0  0  0
   69.3017   47.5609   54.6952 N   0  0  0  0  0  0  0  0  0  0  0  0
   69.4138   47.6262   53.3716 C   0  0  0  0  0  0  0  0  0  0  0  0
   70.1865   48.3831   52.5615 N   0  0  0  0  0  0  0  0  0  0  0  0
   69.8836   48.0325   51.3315 N   0  0  0  0  0  0  0  0  0  0  0  0
   68.9377   47.0699   51.3058 C   0  0  0  0  0  0  0  0  0  0  0  0
   68.6202   46.7937   52.6126 C   0  0  0  0  0  0  0  0  0  0  0  0
   69.2189   47.7907   57.4593 C   0  0  0  0  0  0  0  0  0  0  0  0
   68.4660   49.0858   57.3684 C   0  0  0  0  0  0  0  0  0  0  0  0
   67.2112   49.2117   57.9198 C   0  0  0  0  0  0  0  0  0  0  0  0
   66.5394   50.3985   57.8161 C   0  0  0  0  0  0  0  0  0  0  0  0
   67.1236   51.4602   57.1610 C   0  0  0  0  0  0  0  0  0  0  0  0
   68.3777   51.3281   56.6132 C   0  0  0  0  0  0  0  0  0  0  0  0
   69.0752   50.1474   56.7021 C   0  0  0  0  0  0  0  0  0  0  0  0
   69.0341   52.4791   55.8974 C   0  0  0  0  0  0  0  0  0  0  0  0
   68.3947   52.7145   54.7103 F   0  0  0  0  0  0  0  0  0  0  0  0
   70.3636   52.1702   55.6795 F   0  0  0  0  0  0  0  0  0  0  0  0
   68.9542   53.5776   56.7286 F   0  0  0  0  0  0  0  0  0  0  0  0
  2  3  2  0
  3  4  1  0
  3 11  1  0
  4  5  1  0
  5  1  1  0
  5  6  2  0
  1 12  1  0
 12 13  1  0
 13 14  2  0
 13 18  1  0
 14 15  1  0
 15 16  2  0
 16 17  1  0
 17 19  1  0
 17 18  2  0
 19 20  1  0
 19 21  1  0
 19 22  1  0
  6  7  1  0
  7  8  1  0
  7 11  2  0
  8  9  1  0
  9 10  2  0
 10 11  1  0
M  END
>  <minimizedAffinity>  (566) 
-8.55392

$$$$
data/reference_output_2/data/smiles/142246.pdb
     RDKit          3D

 23 25  0  0  0  0  0  0  0  0999 V2000
   69.8521   47.1070   57.5919 C   0  0  0  0  0  0  0  0  0  0  0  0
   70.0197   46.8516   56.2881 N   0  0  0  0  0  0  0  0  0  0  0  0
   68.8394   46.9084   55.6445 C   0  0  0  0  0  0  0  0  0  0  0  0
   67.9399   47.2084   56.5981 N   0  0  0  0  0  0  0  0  0  0  0  0
   68.5591   47.3231   57.7483 O   0  0  0  0  0  0  0  0  0  0  0  0
   68.5644   46.6962   54.2280 C   0  0  0  0  0  0  0  0  0  0  0  0
   67.7695   45.6593   53.7890 C   0  0  0  0  0  0  0  0  0  0  0  0
   67.5120   45.4644   52.4308 C   0  0  0  0  0  0  0  0  0  0  0  0
   68.0453   46.3048   51.4763 C   0  0  0  0  0  0  0  0  0  0  0  0
   68.8392   47.3391   51.9260 C   0  0  0  0  0  0  0  0  0  0  0  0
   69.0981   47.5370   53.2748 C   0  0  0  0  0  0  0  0  0  0  0  0
   69.8872   48.5666   53.7041 F   0  0  0  0  0  0  0  0  0  0  0  0
   70.9324   47.1275   58.5845 C   0  0  0  0  0  0  0  0  0  0  0  0
   71.4886   45.7578   58.8771 C   0  0  0  0  0  0  0  0  0  0  0  0
   69.6152   44.4555   59.4549 O   0  0  0  0  0  0  0  0  0  0  0  0
   70.5200   44.6805   58.6300 C   0  0  0  0  0  0  0  0  0  0  0  0
   70.6012   43.8936   57.4643 N   0  0  0  0  0  0  0  0  0  0  0  0
   69.6457   42.8643   57.2659 C   0  0  0  0  0  0  0  0  0  0  0  0
   68.5124   43.0256   56.5066 C   0  0  0  0  0  0  0  0  0  0  0  0
   67.5888   42.0164   56.3208 C   0  0  0  0  0  0  0  0  0  0  0  0
   67.8233   40.7861   56.9309 C   0  0  0  0  0  0  0  0  0  0  0  0
   68.9311   40.6251   57.6741 N   0  0  0  0  0  0  0  0  0  0  0  0
   69.8181   41.6075   57.8485 C   0  0  0  0  0  0  0  0  0  0  0  0
 15 16  2  0
 16 14  1  0
 16 17  1  0
 14 13  1  0
 13  1  1  0
  1  2  2  0
  1  5  1  0
  2  3  1  0
  3  6  1  0
  3  4  2  0
  6  7  2  0
  6 11  1  0
  7  8  1  0
  8  9  2  0
  9 10  1  0
 10 11  2  0
 11 12  1  0
  4  5  1  0
 17 18  1  0
 18 19  2  0
 18 23  1  0
 19 20  1  0
 20 21  2  0
 21 22  1  0
 22 23  2  0
M  END
>  <minimizedAffinity>  (567) 
-8.55307

$$$$
data/reference_output_2/data/smiles/183426.pdb
     RDKit          3D

 23 24  0  0  0  0  0  0  0  0999 V2000
   69.5493   45.3021   57.2565 N   0  0  0  0  0  0  0  0  0  0  0  0
   70.0156   46.6359   57.5611 C   0  0  0  0  0  0  0  0  0  0  0  0
   70.7767   46.7113   58.5354 O   0  0  0  0  0  0  0  0  0  0  0  0
   70.0516   43.9585   58.2151 S   0  0  0  0  0  0  0  0  0  0  0  0
   71.5260   43.7245   57.9720 O   0  0  0  0  0  0  0  0  0  0  0  0
   69.7844   44.1800   59.6737 O   0  0  0  0  0  0  0  0  0  0  0  0
   69.1034   38.8316   58.6724 C   0  0  0  0  0  0  0  0  0  0  0  0
   68.8412   40.1213   57.9752 C   0  0  0  0  0  0  0  0  0  0  0  0
   67.9582   40.2025   56.9208 C   0  0  0  0  0  0  0  0  0  0  0  0
   67.6859   41.3762   56.2466 C   0  0  0  0  0  0  0  0  0  0  0  0
   66.8128   41.3735   55.2304 F   0  0  0  0  0  0  0  0  0  0  0  0
   68.3320   42.5174   56.6518 C   0  0  0  0  0  0  0  0  0  0  0  0
   69.2232   42.4921   57.6975 C   0  0  0  0  0  0  0  0  0  0  0  0
   69.4722   41.3028   58.3491 C   0  0  0  0  0  0  0  0  0  0  0  0
   69.6236   47.7966   56.7877 C   0  0  0  0  0  0  0  0  0  0  0  0
   68.3760   47.6788   55.9925 C   0  0  0  0  0  0  0  0  0  0  0  0
   68.5160   47.3600   54.5715 C   0  0  0  0  0  0  0  0  0  0  0  0
   69.3293   48.0689   53.7194 C   0  0  0  0  0  0  0  0  0  0  0  0
   69.4707   47.7550   52.4224 N   0  0  0  0  0  0  0  0  0  0  0  0
   68.8029   46.7137   51.9047 C   0  0  0  0  0  0  0  0  0  0  0  0
   67.9644   45.9449   52.6770 C   0  0  0  0  0  0  0  0  0  0  0  0
   67.3262   44.9136   52.0870 F   0  0  0  0  0  0  0  0  0  0  0  0
   67.8310   46.2768   53.9991 C   0  0  0  0  0  0  0  0  0  0  0  0
  7  8  1  0
  8  9  2  0
  8 14  1  0
  9 10  1  0
 10 11  1  0
 10 12  2  0
 12 13  1  0
 13  4  1  0
 13 14  2  0
  4  5  2  0
  4  6  2  0
  4  1  1  0
  1  2  1  0
  2  3  2  0
  2 15  1  0
 15 16  1  0
 16 17  1  0
 17 18  2  0
 17 23  1  0
 18 19  1  0
 19 20  2  0
 20 21  1  0
 21 22  1  0
 21 23  2  0
M  END
>  <minimizedAffinity>  (568) 
-8.55212

$$$$
data/reference_output_2/data/smiles/102436.pdb
     RDKit          3D

 22 24  0  0  0  0  0  0  0  0999 V2000
   68.4916   44.6780   55.9636 N   0  0  0  0  0  0  0  0  0  0  0  0
   67.9896   45.1686   54.8809 C   0  0  0  0  0  0  0  0  0  0  0  0
   68.4908   46.3944   54.2629 C   0  0  0  0  0  0  0  0  0  0  0  0
   68.5274   47.5826   54.9197 C   0  0  0  0  0  0  0  0  0  0  0  0
   69.0045   48.7550   54.3369 C   0  0  0  0  0  0  0  0  0  0  0  0
   69.4536   48.6870   53.0379 C   0  0  0  0  0  0  0  0  0  0  0  0
   69.4267   47.4969   52.3524 C   0  0  0  0  0  0  0  0  0  0  0  0
   68.9423   46.3411   52.9658 C   0  0  0  0  0  0  0  0  0  0  0  0
   69.9210   47.7543   51.1345 N   0  0  0  0  0  0  0  0  0  0  0  0
   70.2307   49.0158   51.0757 O   0  0  0  0  0  0  0  0  0  0  0  0
   69.9603   49.6023   52.2065 N   0  0  0  0  0  0  0  0  0  0  0  0
   70.1555   50.9433   52.5194 O   0  0  0  0  0  0  0  0  0  0  0  0
   69.9555   42.8430   57.3871 O   0  0  0  0  0  0  0  0  0  0  0  0
   68.7428   42.5644   57.2388 C   0  0  0  0  0  0  0  0  0  0  0  0
   67.9644   43.4970   56.5067 N   0  0  0  0  0  0  0  0  0  0  0  0
   68.2263   41.3290   57.8142 C   0  0  0  0  0  0  0  0  0  0  0  0
   68.7184   40.0783   57.5089 C   0  0  0  0  0  0  0  0  0  0  0  0
   68.1785   38.9313   58.0956 C   0  0  0  0  0  0  0  0  0  0  0  0
   67.1390   38.9987   58.9981 C   0  0  0  0  0  0  0  0  0  0  0  0
   66.4604   37.5524   59.7358 Cl  0  0  0  0  0  0  0  0  0  0  0  0
   66.6478   40.2516   59.3028 C   0  0  0  0  0  0  0  0  0  0  0  0
   67.1863   41.3790   58.7192 C   0  0  0  0  0  0  0  0  0  0  0  0
 13 14  2  0
 14 15  1  0
 14 16  1  0
 15  1  1  0
  1  2  2  0
  2  3  1  0
  3  4  1  0
  3  8  2  0
  4  5  2  0
  5  6  1  0
  6  7  1  0
  6 11  2  0
  7  8  1  0
  7  9  2  0
  9 10  1  0
 10 11  1  0
 11 12  1  0
 16 17  2  0
 16 22  1  0
 17 18  1  0
 18 19  2  0
 19 20  1  0
 19 21  1  0
 21 22  2  0
M  CHG  2  11   1  12  -1
M  END
>  <minimizedAffinity>  (569) 
-8.55173

$$$$
data/200k_reference_output/data/smiles/79795.pdb
     RDKit          3D

 25 28  0  0  0  0  0  0  0  0999 V2000
   69.3371   47.6410   56.5133 C   0  0  0  0  0  0  0  0  0  0  0  0
   69.3273   48.1901   57.6840 O   0  0  0  0  0  0  0  0  0  0  0  0
   69.4828   48.4622   55.3984 N   0  0  0  0  0  0  0  0  0  0  0  0
   69.8600   49.8828   55.5789 C   0  0  0  0  0  0  0  0  0  0  0  0
   70.9876   50.1565   54.6197 C   0  0  0  0  0  0  0  0  0  0  0  0
   71.9872   50.7778   54.9918 O   0  0  0  0  0  0  0  0  0  0  0  0
   70.8864   49.6922   53.2802 N   0  0  0  0  0  0  0  0  0  0  0  0
   70.0407   48.5802   53.0235 C   0  0  0  0  0  0  0  0  0  0  0  0
   69.9203   48.1441   51.7342 C   0  0  0  0  0  0  0  0  0  0  0  0
   69.0910   47.0787   51.4388 C   0  0  0  0  0  0  0  0  0  0  0  0
   68.4167   46.5027   52.4696 C   0  0  0  0  0  0  0  0  0  0  0  0
   68.5167   46.9195   53.7805 C   0  0  0  0  0  0  0  0  0  0  0  0
   69.3547   47.9913   54.0759 C   0  0  0  0  0  0  0  0  0  0  0  0
   69.5960   44.0044   57.0213 C   0  0  0  0  0  0  0  0  0  0  0  0
   70.0591   45.2972   57.1843 C   0  0  0  0  0  0  0  0  0  0  0  0
   69.1950   46.1989   56.5486 C   0  0  0  0  0  0  0  0  0  0  0  0
   68.2296   45.4069   56.0192 N   0  0  0  0  0  0  0  0  0  0  0  0
   68.4712   44.1420   56.2981 N   0  0  0  0  0  0  0  0  0  0  0  0
   72.0472   39.1932   58.9981 C   0  0  0  0  0  0  0  0  0  0  0  0
   71.3639   40.4147   58.4899 C   0  0  0  0  0  0  0  0  0  0  0  0
   70.0053   40.5156   58.3163 C   0  0  0  0  0  0  0  0  0  0  0  0
   69.4101   41.6863   57.8354 C   0  0  0  0  0  0  0  0  0  0  0  0
   70.1983   42.7704   57.5246 C   0  0  0  0  0  0  0  0  0  0  0  0
   71.5608   42.6606   57.7022 C   0  0  0  0  0  0  0  0  0  0  0  0
   72.1543   41.4991   58.1801 C   0  0  0  0  0  0  0  0  0  0  0  0
 19 20  1  0
 20 21  2  0
 20 25  1  0
 21 22  1  0
 22 23  2  0
 23 14  1  0
 23 24  1  0
 14 15  1  0
 14 18  2  0
 15 16  2  0
 16  1  1  0
 16 17  1  0
  1  2  2  0
  1  3  1  0
  3  4  1  0
  3 13  1  0
  4  5  1  0
  5  6  2  0
  5  7  1  0
  7  8  1  0
  8  9  2  0
  8 13  1  0
  9 10  1  0
 10 11  2  0
 11 12  1  0
 12 13  2  0
 17 18  1  0
 24 25  2  0
M  END
>  <minimizedAffinity>  (570) 
-8.55098

$$$$
data/200k_reference_output/data/smiles/32554.pdb
     RDKit          3D

 22 23  0  0  0  0  0  0  0  0999 V2000
   74.0196   50.2751   53.7140 O   0  0  0  0  0  0  0  0  0  0  0  0
   73.4791   50.8562   54.7075 C   0  0  0  0  0  0  0  0  0  0  0  0
   74.3921   51.2987   55.7096 N   0  0  0  0  0  0  0  0  0  0  0  0
   75.7665   51.1000   55.5896 N   0  0  0  0  0  0  0  0  0  0  0  0
   76.4469   50.2716   56.2690 C   0  0  0  0  0  0  0  0  0  0  0  0
   77.8855   50.0761   56.1312 C   0  0  0  0  0  0  0  0  0  0  0  0
   78.4211   48.9884   55.4740 C   0  0  0  0  0  0  0  0  0  0  0  0
   79.7946   48.8502   55.3724 C   0  0  0  0  0  0  0  0  0  0  0  0
   80.6687   49.7740   55.9106 C   0  0  0  0  0  0  0  0  0  0  0  0
   80.1188   50.8266   56.5457 N   0  0  0  0  0  0  0  0  0  0  0  0
   78.7746   50.9855   56.6605 C   0  0  0  0  0  0  0  0  0  0  0  0
   72.0150   51.0630   54.8265 C   0  0  0  0  0  0  0  0  0  0  0  0
   71.3382   49.7680   54.6847 N   0  0  0  0  0  0  0  0  0  0  0  0
   70.4158   49.6587   53.6223 C   0  0  0  0  0  0  0  0  0  0  0  0
   70.2113   50.6738   52.8514 O   0  0  0  0  0  0  0  0  0  0  0  0
   69.6472   48.4692   53.3070 C   0  0  0  0  0  0  0  0  0  0  0  0
   68.8004   47.9070   54.2711 C   0  0  0  0  0  0  0  0  0  0  0  0
   68.0601   46.7740   54.0353 C   0  0  0  0  0  0  0  0  0  0  0  0
   68.1042   46.1180   52.8302 C   0  0  0  0  0  0  0  0  0  0  0  0
   68.9263   46.6500   51.8697 C   0  0  0  0  0  0  0  0  0  0  0  0
   69.6832   47.8066   52.1105 C   0  0  0  0  0  0  0  0  0  0  0  0
   70.4590   48.2707   51.1096 F   0  0  0  0  0  0  0  0  0  0  0  0
  1  2  2  0
  2 12  1  0
  2  3  1  0
 12 13  1  0
 13 14  1  0
 14 15  2  0
 14 16  1  0
 16 17  2  0
 16 21  1  0
 17 18  1  0
 18 19  2  0
 19 20  1  0
 20 21  2  0
 21 22  1  0
  3  4  1  0
  4  5  2  0
  5  6  1  0
  6  7  2  0
  6 11  1  0
  7  8  1  0
  8  9  2  0
  9 10  1  0
 10 11  2  0
M  END
>  <minimizedAffinity>  (571) 
-8.55086

$$$$
data/reference_output_2/data/smiles/169195.pdb
     RDKit          3D

 26 29  0  0  0  0  0  0  0  0999 V2000
   74.0449   35.2356   55.9487 C   0  0  0  0  0  0  0  0  0  0  0  0
   73.8176   35.2617   54.6543 C   0  0  0  0  0  0  0  0  0  0  0  0
   72.5575   35.3797   54.0635 O   0  0  0  0  0  0  0  0  0  0  0  0
   75.0385   35.1525   53.8674 C   0  0  0  0  0  0  0  0  0  0  0  0
   75.2988   35.1354   52.4972 C   0  0  0  0  0  0  0  0  0  0  0  0
   76.5666   35.0249   51.9730 C   0  0  0  0  0  0  0  0  0  0  0  0
   77.6077   34.9273   52.8728 C   0  0  0  0  0  0  0  0  0  0  0  0
   77.3793   34.9419   54.2522 C   0  0  0  0  0  0  0  0  0  0  0  0
   76.0909   35.0549   54.7486 C   0  0  0  0  0  0  0  0  0  0  0  0
   75.4987   35.1033   56.0810 C   0  0  0  0  0  0  0  0  0  0  0  0
   76.1267   35.0430   57.1790 O   0  0  0  0  0  0  0  0  0  0  0  0
   71.2784   35.6098   59.1989 C   0  0  0  0  0  0  0  0  0  0  0  0
   71.8198   34.3725   58.8832 C   0  0  0  0  0  0  0  0  0  0  0  0
   72.7059   34.2584   57.8349 C   0  0  0  0  0  0  0  0  0  0  0  0
   73.0992   35.3197   57.0586 C   0  0  0  0  0  0  0  0  0  0  0  0
   72.5550   36.5616   57.3763 C   0  0  0  0  0  0  0  0  0  0  0  0
   71.6638   36.6874   58.4291 C   0  0  0  0  0  0  0  0  0  0  0  0
   70.0964   34.7003   61.2253 C   0  0  0  0  0  0  0  0  0  0  0  0
   70.3587   35.7645   60.2751 N   0  0  0  0  0  0  0  0  0  0  0  0
   69.6434   37.0138   60.4650 C   0  0  0  0  0  0  0  0  0  0  0  0
   76.8074   35.0150   50.5637 N   0  0  0  0  0  0  0  0  0  0  0  0
   76.1126   34.2342   49.6973 C   0  0  0  0  0  0  0  0  0  0  0  0
   76.3533   34.2483   48.3454 C   0  0  0  0  0  0  0  0  0  0  0  0
   77.3257   35.0699   47.8130 C   0  0  0  0  0  0  0  0  0  0  0  0
   78.0287   35.8605   48.6936 C   0  0  0  0  0  0  0  0  0  0  0  0
   77.7460   35.8078   50.0444 C   0  0  0  0  0  0  0  0  0  0  0  0
 18 19  1  0
 19 20  1  0
 19 12  1  0
 12 13  2  0
 12 17  1  0
 13 14  1  0
 14 15  2  0
 15  1  1  0
 15 16  1  0
  1  2  2  0
  1 10  1  0
  2  3  1  0
  2  4  1  0
  4  5  1  0
  4  9  2  0
  5  6  2  0
  6 21  1  0
  6  7  1  0
 21 22  2  0
 21 26  1  0
 22 23  1  0
 23 24  2  0
 24 25  1  0
 25 26  2  0
  7  8  2  0
  8  9  1  0
  9 10  1  0
 10 11  2  0
 16 17  2  0
M  CHG  2   3  -1  21   1
M  END
>  <minimizedAffinity>  (572) 
-8.55051

$$$$
data/reference_output_2/data/smiles/134939.pdb
     RDKit          3D

 26 29  0  0  0  0  0  0  0  0999 V2000
   69.3458   48.7557   53.0993 C   0  0  0  0  0  0  0  0  0  0  0  0
   69.3555   48.4215   51.7770 N   0  0  0  0  0  0  0  0  0  0  0  0
   68.9318   47.1786   51.6209 N   0  0  0  0  0  0  0  0  0  0  0  0
   68.6231   46.6305   52.8118 C   0  0  0  0  0  0  0  0  0  0  0  0
   68.1493   45.3998   53.2253 C   0  0  0  0  0  0  0  0  0  0  0  0
   67.9173   45.1059   54.5619 C   0  0  0  0  0  0  0  0  0  0  0  0
   68.1806   46.0895   55.4418 N   0  0  0  0  0  0  0  0  0  0  0  0
   68.6477   47.3101   55.0603 C   0  0  0  0  0  0  0  0  0  0  0  0
   68.8844   47.6233   53.7370 C   0  0  0  0  0  0  0  0  0  0  0  0
   72.9191   51.6316   54.9448 C   0  0  0  0  0  0  0  0  0  0  0  0
   71.4958   51.3942   54.5782 C   0  0  0  0  0  0  0  0  0  0  0  0
   71.0693   50.2023   54.0159 C   0  0  0  0  0  0  0  0  0  0  0  0
   69.7381   50.0285   53.6924 C   0  0  0  0  0  0  0  0  0  0  0  0
   68.7885   51.0050   53.9056 C   0  0  0  0  0  0  0  0  0  0  0  0
   69.2594   52.1876   54.4719 C   0  0  0  0  0  0  0  0  0  0  0  0
   70.5602   52.3375   54.7810 N   0  0  0  0  0  0  0  0  0  0  0  0
   67.4278   43.8383   54.9816 N   0  0  0  0  0  0  0  0  0  0  0  0
   67.9269   43.0994   56.0815 C   0  0  0  0  0  0  0  0  0  0  0  0
   68.8732   43.6033   56.7389 O   0  0  0  0  0  0  0  0  0  0  0  0
   67.4114   41.8321   56.4685 N   0  0  0  0  0  0  0  0  0  0  0  0
   67.9235   41.0839   57.5896 C   0  0  0  0  0  0  0  0  0  0  0  0
   67.2500   41.4367   58.8595 C   0  0  0  0  0  0  0  0  0  0  0  0
   66.3570   40.7041   59.5996 C   0  0  0  0  0  0  0  0  0  0  0  0
   66.0159   41.4587   60.6911 C   0  0  0  0  0  0  0  0  0  0  0  0
   66.6841   42.6086   60.6079 N   0  0  0  0  0  0  0  0  0  0  0  0
   67.4111   42.5854   59.5194 N   0  0  0  0  0  0  0  0  0  0  0  0
 10 11  1  0
 11 12  2  0
 11 16  1  0
 12 13  1  0
 13  1  1  0
 13 14  2  0
  1  2  2  0
  1  9  1  0
  2  3  1  0
  3  4  1  0
  4  5  1  0
  4  9  2  0
  5  6  2  0
  6 17  1  0
  6  7  1  0
 17 18  1  0
 18 19  2  0
 18 20  1  0
 20 21  1  0
 21 22  1  0
 22 23  1  0
 22 26  2  0
 23 24  2  0
 24 25  1  0
 25 26  1  0
  7  8  2  0
  8  9  1  0
 14 15  1  0
 15 16  2  0
M  END
>  <minimizedAffinity>  (573) 
-8.54935

$$$$
data/reference_output_2/data/smiles/187242.pdb
     RDKit          3D

 21 23  0  0  0  0  0  0  0  0999 V2000
   69.9486   49.3916   52.7408 S   0  0  0  0  0  0  0  0  0  0  0  0
   71.4291   49.0758   52.8356 O   0  0  0  0  0  0  0  0  0  0  0  0
   69.7756   49.6743   51.2433 O   0  0  0  0  0  0  0  0  0  0  0  0
   69.1510   47.8705   53.0199 C   0  0  0  0  0  0  0  0  0  0  0  0
   68.6140   47.1836   51.9188 C   0  0  0  0  0  0  0  0  0  0  0  0
   67.9415   45.9990   52.1116 C   0  0  0  0  0  0  0  0  0  0  0  0
   67.7883   45.4763   53.3666 C   0  0  0  0  0  0  0  0  0  0  0  0
   68.3335   46.1743   54.4791 C   0  0  0  0  0  0  0  0  0  0  0  0
   68.2134   45.6648   55.7626 N   0  0  0  0  0  0  0  0  0  0  0  0
   69.0669   46.8731   56.7348 S   0  0  0  0  0  0  0  0  0  0  0  0
   69.4958   47.9095   55.4327 N   0  0  0  0  0  0  0  0  0  0  0  0
   68.9582   47.2832   54.2584 C   0  0  0  0  0  0  0  0  0  0  0  0
   69.4097   50.6639   53.5680 N   0  0  0  0  0  0  0  0  0  0  0  0
   67.4916   51.1281   57.1387 C   0  0  0  0  0  0  0  0  0  0  0  0
   68.7635   51.0238   56.3377 C   0  0  2  0  0  0  0  0  0  0  0  0
   69.9961   51.0246   57.2085 C   0  0  0  0  0  0  0  0  0  0  0  0
   71.1998   50.7391   56.3924 C   0  0  0  0  0  0  0  0  0  0  0  0
   71.2675   51.3376   55.0477 C   0  0  0  0  0  0  0  0  0  0  0  0
   69.9870   51.6228   54.3485 C   0  0  2  0  0  0  0  0  0  0  0  0
   68.9269   52.1282   55.3562 C   0  0  2  0  0  0  0  0  0  0  0  0
   69.3773   53.4224   55.9814 C   0  0  0  0  0  0  0  0  0  0  0  0
 15 14  1  1
 15 16  1  0
 15 20  1  0
 16 17  1  0
 17 18  1  0
 18 19  1  0
 19 13  1  1
 19 20  1  0
 13  1  1  0
  1  2  2  0
  1  3  2  0
  1  4  1  0
  4  5  2  0
  4 12  1  0
  5  6  1  0
  6  7  2  0
  7  8  1  0
  8  9  2  0
  8 12  1  0
  9 10  1  0
 10 11  1  0
 11 12  2  0
 20 21  1  1
M  END
>  <minimizedAffinity>  (574) 
-8.54862

$$$$
data/reference_output_2/data/smiles/173937.pdb
     RDKit          3D

 24 27  0  0  0  0  0  0  0  0999 V2000
   66.4659   42.1869   56.3524 O   0  0  0  0  0  0  0  0  0  0  0  0
   67.5399   41.7584   56.8455 C   0  0  0  0  0  0  0  0  0  0  0  0
   67.7530   40.4137   57.3580 N   0  0  0  0  0  0  0  0  0  0  0  0
   69.0835   40.2832   57.8383 C   0  0  0  0  0  0  0  0  0  0  0  0
   69.7200   39.1786   58.4058 C   0  0  0  0  0  0  0  0  0  0  0  0
   71.0275   39.2641   58.8068 C   0  0  0  0  0  0  0  0  0  0  0  0
   71.7282   40.4523   58.6496 C   0  0  0  0  0  0  0  0  0  0  0  0
   73.3948   40.5247   59.1682 Cl  0  0  0  0  0  0  0  0  0  0  0  0
   71.0555   41.5332   58.0757 C   0  0  0  0  0  0  0  0  0  0  0  0
   69.7467   41.4739   57.6672 C   0  0  0  0  0  0  0  0  0  0  0  0
   68.8180   42.4262   57.0472 C   0  0  0  0  0  0  0  0  0  0  0  0
   69.0556   43.6583   56.7236 N   0  0  0  0  0  0  0  0  0  0  0  0
   68.0850   44.4935   56.1286 N   0  0  0  0  0  0  0  0  0  0  0  0
   68.4810   45.6500   55.4237 C   0  0  0  0  0  0  0  0  0  0  0  0
   68.5260   45.7442   54.0810 N   0  0  0  0  0  0  0  0  0  0  0  0
   68.9319   46.8477   53.4375 C   0  0  0  0  0  0  0  0  0  0  0  0
   68.9853   46.8963   52.0610 C   0  0  0  0  0  0  0  0  0  0  0  0
   69.4294   48.0415   51.4003 C   0  0  0  0  0  0  0  0  0  0  0  0
   69.8256   49.1529   52.0865 C   0  0  0  0  0  0  0  0  0  0  0  0
   69.7799   49.1282   53.4760 C   0  0  0  0  0  0  0  0  0  0  0  0
   69.3365   47.9851   54.1267 C   0  0  0  0  0  0  0  0  0  0  0  0
   69.2940   47.9052   55.4665 N   0  0  0  0  0  0  0  0  0  0  0  0
   68.8900   46.8037   56.1083 C   0  0  0  0  0  0  0  0  0  0  0  0
   68.8495   46.7305   57.3608 O   0  0  0  0  0  0  0  0  0  0  0  0
  1  2  2  0
  2  3  1  0
  2 11  1  0
  3  4  1  0
  4  5  2  0
  4 10  1  0
  5  6  1  0
  6  7  2  0
  7  8  1  0
  7  9  1  0
  9 10  2  0
 10 11  1  0
 11 12  2  0
 12 13  1  0
 13 14  1  0
 14 15  2  0
 14 23  1  0
 15 16  1  0
 16 17  2  0
 16 21  1  0
 17 18  1  0
 18 19  2  0
 19 20  1  0
 20 21  2  0
 21 22  1  0
 22 23  1  0
 23 24  2  0
M  END
>  <minimizedAffinity>  (575) 
-8.54784

$$$$
data/reference_output_2/data/smiles/189129.pdb
     RDKit          3D

 25 27  0  0  0  0  0  0  0  0999 V2000
   68.4814   43.8028   56.2134 C   0  0  0  0  0  0  0  0  0  0  0  0
   69.4251   44.5622   56.7859 N   0  0  0  0  0  0  0  0  0  0  0  0
   70.1942   44.1370   57.7671 C   0  0  0  0  0  0  0  0  0  0  0  0
   70.0369   42.8525   58.2414 C   0  0  0  0  0  0  0  0  0  0  0  0
   69.0691   42.0147   57.6815 C   0  0  0  0  0  0  0  0  0  0  0  0
   68.2817   42.5119   56.6482 C   0  0  0  0  0  0  0  0  0  0  0  0
   67.2509   41.6953   56.0140 C   0  0  0  0  0  0  0  0  0  0  0  0
   67.5949   40.4260   55.4503 N   0  0  0  0  0  0  0  0  0  0  0  0
   66.0591   42.0525   55.9395 O   0  0  0  0  0  0  0  0  0  0  0  0
   67.6551   44.3107   55.1636 N   0  0  0  0  0  0  0  0  0  0  0  0
   69.5300   48.8872   54.6098 C   0  0  0  0  0  0  0  0  0  0  0  0
   68.9558   47.6336   54.0685 C   0  0  0  0  0  0  0  0  0  0  0  0
   68.7706   47.5113   52.7117 C   0  0  0  0  0  0  0  0  0  0  0  0
   68.2377   46.3683   52.1367 C   0  0  0  0  0  0  0  0  0  0  0  0
   67.8888   45.3331   52.9833 C   0  0  0  0  0  0  0  0  0  0  0  0
   68.0519   45.4041   54.3439 C   0  0  0  0  0  0  0  0  0  0  0  0
   68.5903   46.5690   54.8678 C   0  0  0  0  0  0  0  0  0  0  0  0
   71.1953   44.9707   58.3772 N   0  0  0  0  0  0  0  0  0  0  0  0
   72.1728   44.4027   59.2638 C   0  0  2  0  0  0  0  0  0  0  0  0
   72.3891   45.2404   60.5280 C   0  0  0  0  0  0  0  0  0  0  0  0
   72.6119   46.6480   60.0567 C   0  0  0  0  0  0  0  0  0  0  0  0
   74.0240   46.6620   59.4856 C   0  0  0  0  0  0  0  0  0  0  0  0
   74.1249   45.7007   58.3509 C   0  0  0  0  0  0  0  0  0  0  0  0
   73.5289   44.3610   58.5961 C   0  0  2  0  0  0  0  0  0  0  0  0
   73.5422   43.6065   57.3712 N   0  0  0  0  0  0  0  0  0  0  0  0
 11 12  1  0
 12 13  2  0
 12 17  1  0
 13 14  1  0
 14 15  2  0
 15 16  1  0
 16 10  1  0
 16 17  2  0
 10  1  1  0
  1  2  2  0
  1  6  1  0
  2  3  1  0
  3 18  1  0
  3  4  2  0
 19 18  1  6
 19 20  1  0
 19 24  1  0
 20 21  1  0
 21 22  1  0
 22 23  1  0
 23 24  1  0
 24 25  1  6
  4  5  1  0
  5  6  2  0
  6  7  1  0
  7  8  1  0
  7  9  2  0
M  CHG  1  25   1
M  END
>  <minimizedAffinity>  (576) 
-8.54749

$$$$
data/reference_output_2/data/smiles/177753.pdb
     RDKit          3D

 22 23  0  0  0  0  0  0  0  0999 V2000
   69.3090   46.1229   56.8455 C   0  0  0  0  0  0  0  0  0  0  0  0
   69.9289   47.3640   57.6704 S   0  0  0  0  0  0  0  0  0  0  0  0
   67.9646   43.7406   56.4386 O   0  0  0  0  0  0  0  0  0  0  0  0
   69.1141   43.6161   56.9832 C   0  0  0  0  0  0  0  0  0  0  0  0
   69.8329   44.8148   57.2076 N   0  0  0  0  0  0  0  0  0  0  0  0
   69.6266   42.2986   57.3406 C   0  0  0  0  0  0  0  0  0  0  0  0
   70.7372   42.0726   57.9931 C   0  0  0  0  0  0  0  0  0  0  0  0
   71.2043   40.7218   58.3255 C   0  0  0  0  0  0  0  0  0  0  0  0
   72.4223   40.3768   58.8714 C   0  0  0  0  0  0  0  0  0  0  0  0
   72.4412   39.0010   59.0186 C   0  0  0  0  0  0  0  0  0  0  0  0
   71.2244   38.5571   58.5516 C   0  0  0  0  0  0  0  0  0  0  0  0
   70.5556   39.5978   58.1662 O   0  0  0  0  0  0  0  0  0  0  0  0
   68.3338   46.1678   55.8320 N   0  0  0  0  0  0  0  0  0  0  0  0
   68.4771   46.4624   54.4711 C   0  0  0  0  0  0  0  0  0  0  0  0
   67.7501   45.6917   53.5659 C   0  0  0  0  0  0  0  0  0  0  0  0
   67.8587   45.9442   52.2292 C   0  0  0  0  0  0  0  0  0  0  0  0
   68.6615   46.9366   51.7313 C   0  0  0  0  0  0  0  0  0  0  0  0
   69.3872   47.7100   52.6044 C   0  0  0  0  0  0  0  0  0  0  0  0
   69.2777   47.4523   53.9647 C   0  0  0  0  0  0  0  0  0  0  0  0
   70.2319   48.7475   52.1330 N   0  0  0  0  0  0  0  0  0  0  0  0
   71.2545   49.0492   52.7472 O   0  0  0  0  0  0  0  0  0  0  0  0
   69.9225   49.4263   50.9882 O   0  0  0  0  0  0  0  0  0  0  0  0
  3  4  2  0
  4  6  1  0
  4  5  1  0
  6  7  2  0
  7  8  1  0
  8  9  2  0
  8 12  1  0
  9 10  1  0
 10 11  2  0
 11 12  1  0
  5  1  1  0
  1  2  2  0
  1 13  1  0
 13 14  1  0
 14 15  2  0
 14 19  1  0
 15 16  1  0
 16 17  2  0
 17 18  1  0
 18 20  1  0
 18 19  2  0
 20 21  2  0
 20 22  1  0
M  CHG  2  20   1  22  -1
M  END
>  <minimizedAffinity>  (577) 
-8.54623

$$$$
data/reference_output_2/data/smiles/176481.pdb
     RDKit          3D

 25 26  0  0  0  0  0  0  0  0999 V2000
   67.6143   41.1279   58.0636 C   0  0  0  0  0  0  0  0  0  0  0  0
   67.1123   41.6955   59.0634 O   0  0  0  0  0  0  0  0  0  0  0  0
   67.6895   41.8451   56.8129 C   0  0  0  0  0  0  0  0  0  0  0  0
   67.6519   41.1474   55.7411 O   0  0  0  0  0  0  0  0  0  0  0  0
   67.8011   43.2330   56.6522 N   0  0  0  0  0  0  0  0  0  0  0  0
   67.8708   43.8688   55.4032 N   0  0  0  0  0  0  0  0  0  0  0  0
   68.2287   45.2369   55.2665 C   0  0  0  0  0  0  0  0  0  0  0  0
   68.4745   45.8519   56.3362 O   0  0  0  0  0  0  0  0  0  0  0  0
   68.3155   45.9202   53.9820 C   0  0  0  0  0  0  0  0  0  0  0  0
   69.0159   47.0814   53.8134 C   0  0  0  0  0  0  0  0  0  0  0  0
   69.0807   47.7025   52.5720 C   0  0  0  0  0  0  0  0  0  0  0  0
   68.4313   47.1599   51.4533 C   0  0  0  0  0  0  0  0  0  0  0  0
   67.7336   45.9993   51.6325 C   0  0  0  0  0  0  0  0  0  0  0  0
   67.6805   45.3957   52.8784 C   0  0  0  0  0  0  0  0  0  0  0  0
   68.1070   39.7324   58.2410 C   0  0  0  0  0  0  0  0  0  0  0  0
   69.4540   39.6869   58.8017 C   0  0  0  0  0  0  0  0  0  0  0  0
   69.9983   40.7136   59.3199 O   0  0  0  0  0  0  0  0  0  0  0  0
   71.7316   36.0349   58.9069 C   0  0  0  0  0  0  0  0  0  0  0  0
   72.0188   37.0189   57.9879 C   0  0  0  0  0  0  0  0  0  0  0  0
   71.2837   38.1996   57.9486 C   0  0  0  0  0  0  0  0  0  0  0  0
   70.2429   38.4693   58.7990 C   0  0  0  0  0  0  0  0  0  0  0  0
   69.9658   37.4512   59.7317 C   0  0  0  0  0  0  0  0  0  0  0  0
   70.6887   36.2916   59.7679 C   0  0  0  0  0  0  0  0  0  0  0  0
   73.0390   34.3728   57.7781 C   0  0  0  0  0  0  0  0  0  0  0  0
   72.4498   34.8511   58.9629 O   0  0  0  0  0  0  0  0  0  0  0  0
 24 25  1  0
 25 18  1  0
 18 19  2  0
 18 23  1  0
 19 20  1  0
 20 21  2  0
 21 16  1  0
 21 22  1  0
 16 17  2  0
 16 15  1  0
 15  1  1  0
  1  2  2  0
  1  3  1  0
  3  4  2  0
  3  5  1  0
  5  6  1  0
  6  7  1  0
  7  8  2  0
  7  9  1  0
  9 10  2  0
  9 14  1  0
 10 11  1  0
 11 12  2  0
 12 13  1  0
 13 14  2  0
 22 23  2  0
M  END
>  <minimizedAffinity>  (578) 
-8.54580

$$$$
data/reference_output_2/data/smiles/94114.pdb
     RDKit          3D

 22 23  0  0  0  0  0  0  0  0999 V2000
   74.0942   50.2803   53.6817 O   0  0  0  0  0  0  0  0  0  0  0  0
   73.4941   50.8584   54.6555 C   0  0  0  0  0  0  0  0  0  0  0  0
   74.3632   51.3287   55.6710 N   0  0  0  0  0  0  0  0  0  0  0  0
   75.7554   51.1880   55.6258 N   0  0  0  0  0  0  0  0  0  0  0  0
   76.3781   50.1465   56.0363 C   0  0  0  0  0  0  0  0  0  0  0  0
   77.8216   49.9965   55.9917 C   0  0  0  0  0  0  0  0  0  0  0  0
   78.4289   48.8727   55.4799 C   0  0  0  0  0  0  0  0  0  0  0  0
   79.8267   48.7690   55.4568 C   0  0  0  0  0  0  0  0  0  0  0  0
   80.6201   49.7845   55.9427 C   0  0  0  0  0  0  0  0  0  0  0  0
   80.0008   50.8694   56.4373 N   0  0  0  0  0  0  0  0  0  0  0  0
   78.6421   50.9923   56.4705 C   0  0  0  0  0  0  0  0  0  0  0  0
   72.0428   50.9639   54.6179 C   0  0  0  0  0  0  0  0  0  0  0  0
   71.3112   49.7605   54.4205 N   0  0  0  0  0  0  0  0  0  0  0  0
   70.3534   49.6032   53.3816 C   0  0  0  0  0  0  0  0  0  0  0  0
   70.1949   50.6132   52.6240 O   0  0  0  0  0  0  0  0  0  0  0  0
   69.5977   48.3819   53.1794 C   0  0  0  0  0  0  0  0  0  0  0  0
   69.2904   47.9083   51.9257 C   0  0  0  0  0  0  0  0  0  0  0  0
   68.5636   46.7321   51.7520 C   0  0  0  0  0  0  0  0  0  0  0  0
   68.1277   46.0015   52.8331 C   0  0  0  0  0  0  0  0  0  0  0  0
   68.4345   46.4747   54.0924 C   0  0  0  0  0  0  0  0  0  0  0  0
   67.9952   45.7404   55.1472 F   0  0  0  0  0  0  0  0  0  0  0  0
   69.1519   47.6366   54.2499 C   0  0  0  0  0  0  0  0  0  0  0  0
  1  2  2  0
  2 12  1  0
  2  3  1  0
 12 13  1  0
 13 14  1  0
 14 15  2  0
 14 16  1  0
 16 17  2  0
 16 22  1  0
 17 18  1  0
 18 19  2  0
 19 20  1  0
 20 21  1  0
 20 22  2  0
  3  4  1  0
  4  5  2  0
  5  6  1  0
  6  7  2  0
  6 11  1  0
  7  8  1  0
  8  9  2  0
  9 10  1  0
 10 11  2  0
M  END
>  <minimizedAffinity>  (579) 
-8.54565

$$$$
data/reference_output_2/data/smiles/196248.pdb
     RDKit          3D

 23 25  0  0  0  0  0  0  0  0999 V2000
   70.0614   49.7577   53.3571 S   0  0  0  0  0  0  0  0  0  0  0  0
   69.7657   50.0575   51.8880 O   0  0  0  0  0  0  0  0  0  0  0  0
   71.5866   49.5242   53.2844 O   0  0  0  0  0  0  0  0  0  0  0  0
   72.6227   53.0007   55.8314 C   0  0  0  0  0  0  0  0  0  0  0  0
   71.8795   53.9491   56.5084 C   0  0  0  0  0  0  0  0  0  0  0  0
   70.5039   53.9089   56.4286 C   0  0  0  0  0  0  0  0  0  0  0  0
   69.8684   52.9381   55.6853 C   0  0  0  0  0  0  0  0  0  0  0  0
   68.5641   52.6752   55.4360 C   0  0  0  0  0  0  0  0  0  0  0  0
   68.5324   51.5778   54.6167 C   0  0  0  0  0  0  0  0  0  0  0  0
   69.8005   51.1266   54.3331 N   0  0  0  0  0  0  0  0  0  0  0  0
   70.5860   51.9717   54.9946 C   0  0  0  0  0  0  0  0  0  0  0  0
   71.9507   52.0322   55.0875 C   0  0  0  0  0  0  0  0  0  0  0  0
   74.7467   52.6084   54.7469 C   0  0  0  0  0  0  0  0  0  0  0  0
   74.0166   52.9935   55.8765 O   0  0  0  0  0  0  0  0  0  0  0  0
   69.3924   48.2656   53.9040 C   0  0  0  0  0  0  0  0  0  0  0  0
   69.2358   48.1337   55.3014 C   0  0  0  0  0  0  0  0  0  0  0  0
   68.6288   47.0868   55.9044 C   0  0  0  0  0  0  0  0  0  0  0  0
   68.1221   46.0713   55.1263 C   0  0  0  0  0  0  0  0  0  0  0  0
   68.2710   46.1882   53.7652 C   0  0  0  0  0  0  0  0  0  0  0  0
   68.8949   47.2568   53.1332 C   0  0  0  0  0  0  0  0  0  0  0  0
   69.0817   47.1733   51.7018 C   0  0  0  0  0  0  0  0  0  0  0  0
   68.0556   46.8352   51.0125 O   0  0  0  0  0  0  0  0  0  0  0  0
   70.1954   47.3961   50.9550 O   0  0  0  0  0  0  0  0  0  0  0  0
 13 14  1  0
 14  4  1  0
  4  5  2  0
  4 12  1  0
  5  6  1  0
  6  7  2  0
  7  8  1  0
  7 11  1  0
  8  9  2  0
  9 10  1  0
 10  1  1  0
 10 11  1  0
  1  2  2  0
  1  3  2  0
  1 15  1  0
 15 16  2  0
 15 20  1  0
 16 17  1  0
 17 18  2  0
 18 19  1  0
 19 20  2  0
 20 21  1  0
 21 22  2  0
 21 23  1  0
 11 12  2  0
M  END
>  <minimizedAffinity>  (580) 
-8.54551

$$$$
data/reference_output_2/data/smiles/187031.pdb
     RDKit          3D

 23 25  0  0  0  0  0  0  0  0999 V2000
   70.8681   50.2875   53.4973 C   0  0  0  0  0  0  0  0  0  0  0  0
   72.0817   50.1212   53.8004 O   0  0  0  0  0  0  0  0  0  0  0  0
   70.0719   49.1390   53.1417 C   0  0  0  0  0  0  0  0  0  0  0  0
   69.6093   48.1762   54.0105 C   0  0  0  0  0  0  0  0  0  0  0  0
   68.8417   47.0977   53.5650 C   0  0  0  0  0  0  0  0  0  0  0  0
   68.3712   46.1260   54.4200 C   0  0  0  0  0  0  0  0  0  0  0  0
   67.6108   45.0575   53.9821 C   0  0  0  0  0  0  0  0  0  0  0  0
   67.3025   44.9476   52.6222 C   0  0  0  0  0  0  0  0  0  0  0  0
   67.7655   45.9115   51.7515 C   0  0  0  0  0  0  0  0  0  0  0  0
   68.5282   46.9733   52.2303 C   0  0  0  0  0  0  0  0  0  0  0  0
   68.9831   47.9043   51.4332 O   0  0  0  0  0  0  0  0  0  0  0  0
   69.7049   48.9300   51.8158 C   0  0  0  0  0  0  0  0  0  0  0  0
   70.1114   49.7969   50.9734 O   0  0  0  0  0  0  0  0  0  0  0  0
   70.4489   51.6109   53.5505 O   0  0  0  0  0  0  0  0  0  0  0  0
   69.2460   52.0131   54.1032 C   0  0  0  0  0  0  0  0  0  0  0  0
   69.9681   52.6750   56.1724 O   0  0  0  0  0  0  0  0  0  0  0  0
   69.1972   51.8368   55.5473 C   0  0  0  0  0  0  0  0  0  0  0  0
   68.4594   50.9164   56.3607 C   0  0  0  0  0  0  0  0  0  0  0  0
   67.3119   51.3736   57.0112 C   0  0  0  0  0  0  0  0  0  0  0  0
   66.5095   50.6214   57.8137 C   0  0  0  0  0  0  0  0  0  0  0  0
   66.8471   49.3019   58.0070 C   0  0  0  0  0  0  0  0  0  0  0  0
   67.9557   48.7828   57.4034 C   0  0  0  0  0  0  0  0  0  0  0  0
   68.7545   49.5916   56.5852 C   0  0  0  0  0  0  0  0  0  0  0  0
 16 17  2  0
 17 15  1  0
 17 18  1  0
 15 14  1  0
 14  1  1  0
  1  2  2  0
  1  3  1  0
  3  4  2  0
  3 12  1  0
  4  5  1  0
  5  6  2  0
  5 10  1  0
  6  7  1  0
  7  8  2  0
  8  9  1  0
  9 10  2  0
 10 11  1  0
 11 12  1  0
 12 13  2  0
 18 19  2  0
 18 23  1  0
 19 20  1  0
 20 21  2  0
 21 22  1  0
 22 23  2  0
M  END
>  <minimizedAffinity>  (581) 
-8.54549

$$$$
data/reference_output_2/data/smiles/148013.pdb
     RDKit          3D

 26 29  0  0  0  0  0  0  0  0999 V2000
   70.9536   45.9461   58.1589 C   0  0  0  0  0  0  0  0  0  0  0  0
   71.7680   46.8733   58.7660 C   0  0  0  0  0  0  0  0  0  0  0  0
   71.5115   48.2437   58.6291 C   0  0  0  0  0  0  0  0  0  0  0  0
   70.4446   48.6806   57.8865 C   0  0  0  0  0  0  0  0  0  0  0  0
   69.6083   47.7459   57.2632 C   0  0  0  0  0  0  0  0  0  0  0  0
   69.8930   46.4287   57.4228 C   0  0  0  0  0  0  0  0  0  0  0  0
   69.4687   44.0591   59.6869 O   0  0  0  0  0  0  0  0  0  0  0  0
   70.4279   43.6271   59.0006 C   0  0  0  0  0  0  0  0  0  0  0  0
   71.1651   44.5537   58.2423 N   0  0  0  0  0  0  0  0  0  0  0  0
   70.7368   42.1904   59.0173 C   0  0  0  0  0  0  0  0  0  0  0  0
   71.5159   41.4802   58.1309 C   0  0  0  0  0  0  0  0  0  0  0  0
   71.5714   40.1378   58.4792 C   0  0  0  0  0  0  0  0  0  0  0  0
   70.7912   40.0618   59.6181 C   0  0  0  0  0  0  0  0  0  0  0  0
   70.3045   41.2913   59.9198 N   0  0  0  0  0  0  0  0  0  0  0  0
   68.4956   48.3051   56.4317 C   0  0  0  0  0  0  0  0  0  0  0  0
   68.9555   48.4929   55.0087 C   0  0  0  0  0  0  0  0  0  0  0  0
   69.5946   49.6204   54.6822 N   0  0  0  0  0  0  0  0  0  0  0  0
   70.0858   49.8402   53.4836 N   0  0  0  0  0  0  0  0  0  0  0  0
   69.9720   48.9217   52.4943 C   0  0  0  0  0  0  0  0  0  0  0  0
   70.4379   49.1095   51.3333 O   0  0  0  0  0  0  0  0  0  0  0  0
   69.3249   47.7565   52.7856 C   0  0  0  0  0  0  0  0  0  0  0  0
   68.8045   47.5188   54.0401 C   0  0  0  0  0  0  0  0  0  0  0  0
   68.0584   46.2853   54.3376 C   0  0  0  0  0  0  0  0  0  0  0  0
   67.6549   45.5137   53.1272 C   0  0  0  0  0  0  0  0  0  0  0  0
   67.7476   46.2333   51.8264 C   0  0  0  0  0  0  0  0  0  0  0  0
   69.1820   46.7288   51.6928 C   0  0  0  0  0  0  0  0  0  0  0  0
  7  8  2  0
  8  9  1  0
  8 10  1  0
  9  1  1  0
  1  2  2  0
  1  6  1  0
  2  3  1  0
  3  4  2  0
  4  5  1  0
  5 15  1  0
  5  6  2  0
 15 16  1  0
 16 17  2  0
 16 22  1  0
 17 18  1  0
 18 19  1  0
 19 20  2  0
 19 21  1  0
 21 22  2  0
 21 26  1  0
 22 23  1  0
 23 24  1  0
 24 25  1  0
 25 26  1  0
 10 11  2  0
 10 14  1  0
 11 12  1  0
 12 13  2  0
 13 14  1  0
M  END
>  <minimizedAffinity>  (582) 
-8.54423

$$$$
data/reference_output_2/data/smiles/157444.pdb
     RDKit          3D

 25 27  0  0  0  0  0  0  0  0999 V2000
   70.5004   44.9230   58.2319 C   0  0  0  0  0  0  0  0  0  0  0  0
   69.7195   44.7914   59.2890 O   0  0  0  0  0  0  0  0  0  0  0  0
   71.4971   43.9303   58.0940 C   0  0  0  0  0  0  0  0  0  0  0  0
   71.1870   42.6150   57.6810 C   0  0  0  0  0  0  0  0  0  0  0  0
   72.3296   41.9168   57.5501 N   0  0  0  0  0  0  0  0  0  0  0  0
   73.3718   42.6855   57.8512 C   0  0  0  0  0  0  0  0  0  0  0  0
   74.7083   42.4373   57.8863 C   0  0  0  0  0  0  0  0  0  0  0  0
   75.6313   43.3972   58.2574 C   0  0  0  0  0  0  0  0  0  0  0  0
   75.1528   44.6229   58.5959 C   0  0  0  0  0  0  0  0  0  0  0  0
   73.7797   44.8828   58.5618 C   0  0  0  0  0  0  0  0  0  0  0  0
   72.8605   43.9215   58.1863 C   0  0  0  0  0  0  0  0  0  0  0  0
   76.0315   45.6618   58.9899 N   0  0  0  0  0  0  0  0  0  0  0  0
   75.5737   46.7710   59.2591 O   0  0  0  0  0  0  0  0  0  0  0  0
   77.3674   45.4312   59.0694 O   0  0  0  0  0  0  0  0  0  0  0  0
   70.7280   47.1370   57.4962 O   0  0  0  0  0  0  0  0  0  0  0  0
   70.1344   46.0679   57.4555 C   0  0  0  0  0  0  0  0  0  0  0  0
   69.0117   46.0544   56.5457 N   0  0  0  0  0  0  0  0  0  0  0  0
   68.6623   47.2136   55.7857 C   0  0  0  0  0  0  0  0  0  0  0  0
   68.5456   46.9718   54.3414 C   0  0  0  0  0  0  0  0  0  0  0  0
   67.7783   45.9958   53.7464 C   0  0  0  0  0  0  0  0  0  0  0  0
   67.7062   45.7916   52.3895 C   0  0  0  0  0  0  0  0  0  0  0  0
   68.4387   46.6026   51.5539 C   0  0  0  0  0  0  0  0  0  0  0  0
   69.2321   47.6068   52.1201 C   0  0  0  0  0  0  0  0  0  0  0  0
   69.9916   48.4513   51.3000 O   0  0  0  0  0  0  0  0  0  0  0  0
   69.2839   47.7867   53.4736 C   0  0  0  0  0  0  0  0  0  0  0  0
 15 16  2  0
 16 17  1  0
 16  1  1  0
 17 18  1  0
 18 19  1  0
 19 20  2  0
 19 25  1  0
 20 21  1  0
 21 22  2  0
 22 23  1  0
 23 24  1  0
 23 25  2  0
  1  2  2  0
  1  3  1  0
  3  4  2  0
  3 11  1  0
  4  5  1  0
  5  6  1  0
  6  7  1  0
  6 11  2  0
  7  8  2  0
  8  9  1  0
  9 12  1  0
  9 10  2  0
 12 13  2  0
 12 14  1  0
 10 11  1  0
M  CHG  2  12   1  14  -1
M  END
>  <minimizedAffinity>  (583) 
-8.54323

$$$$
data/reference_output_2/data/smiles/109345.pdb
     RDKit          3D

 23 24  0  0  0  0  0  0  0  0999 V2000
   70.1981   45.9333   58.0325 C   0  0  0  0  0  0  0  0  0  0  0  0
   71.0836   47.2846   58.6060 S   0  0  0  0  0  0  0  0  0  0  0  0
   68.7771   46.6077   56.0745 C   0  0  0  0  0  0  0  0  0  0  0  0
   67.8895   47.1252   56.7820 O   0  0  0  0  0  0  0  0  0  0  0  0
   69.9109   46.0255   56.6653 N   0  0  0  0  0  0  0  0  0  0  0  0
   69.9246   48.8495   51.8075 C   0  0  0  0  0  0  0  0  0  0  0  0
   69.2156   47.7464   52.5445 C   0  0  0  0  0  0  0  0  0  0  0  0
   68.4971   46.8466   51.8217 C   0  0  0  0  0  0  0  0  0  0  0  0
   67.8463   45.8342   52.4932 C   0  0  0  0  0  0  0  0  0  0  0  0
   67.9082   45.7134   53.8921 C   0  0  0  0  0  0  0  0  0  0  0  0
   68.6238   46.6128   54.5934 C   0  0  0  0  0  0  0  0  0  0  0  0
   69.2862   47.6421   53.9134 C   0  0  0  0  0  0  0  0  0  0  0  0
   69.9557   44.9866   59.0048 N   0  0  0  0  0  0  0  0  0  0  0  0
   70.3622   43.6670   59.0734 N   0  0  0  0  0  0  0  0  0  0  0  0
   69.6421   42.6712   58.3301 C   0  0  0  0  0  0  0  0  0  0  0  0
   68.6609   43.0749   57.6450 O   0  0  0  0  0  0  0  0  0  0  0  0
   70.0164   41.2788   58.3597 C   0  0  0  0  0  0  0  0  0  0  0  0
   71.3662   40.9383   58.4957 C   0  0  0  0  0  0  0  0  0  0  0  0
   71.8019   39.6473   58.5317 C   0  0  0  0  0  0  0  0  0  0  0  0
   70.8561   38.6566   58.4285 C   0  0  0  0  0  0  0  0  0  0  0  0
   71.3594   36.9777   58.4690 Cl  0  0  0  0  0  0  0  0  0  0  0  0
   69.5366   38.9468   58.2956 C   0  0  0  0  0  0  0  0  0  0  0  0
   69.1036   40.2679   58.2596 C   0  0  0  0  0  0  0  0  0  0  0  0
  6  7  1  0
  7  8  2  0
  7 12  1  0
  8  9  1  0
  9 10  2  0
 10 11  1  0
 11  3  1  0
 11 12  2  0
  3  4  2  0
  3  5  1  0
  5  1  1  0
  1  2  2  0
  1 13  1  0
 13 14  1  0
 14 15  1  0
 15 16  2  0
 15 17  1  0
 17 18  2  0
 17 23  1  0
 18 19  1  0
 19 20  2  0
 20 21  1  0
 20 22  1  0
 22 23  2  0
M  END
>  <minimizedAffinity>  (584) 
-8.54309

$$$$
data/200k_reference_output/data/smiles/81544.pdb
     RDKit          3D

 26 29  0  0  0  0  0  0  0  0999 V2000
   68.6027   45.0705   55.6947 C   0  0  0  0  0  0  0  0  0  0  0  0
   69.3460   44.3659   56.6148 C   0  0  0  0  0  0  0  0  0  0  0  0
   68.8779   43.1097   56.7540 N   0  0  0  0  0  0  0  0  0  0  0  0
   69.2200   42.0366   57.4935 C   0  0  0  0  0  0  0  0  0  0  0  0
   68.5652   40.8360   57.4525 C   0  0  0  0  0  0  0  0  0  0  0  0
   67.4868   40.7257   56.5960 C   0  0  0  0  0  0  0  0  0  0  0  0
   67.1316   41.8204   55.8362 C   0  0  0  0  0  0  0  0  0  0  0  0
   67.8288   43.0121   55.9158 C   0  0  0  0  0  0  0  0  0  0  0  0
   67.6646   44.2010   55.2766 N   0  0  0  0  0  0  0  0  0  0  0  0
   68.9484   39.6826   58.2616 C   0  0  0  0  0  0  0  0  0  0  0  0
   68.1621   39.2026   59.2942 C   0  0  0  0  0  0  0  0  0  0  0  0
   68.5346   38.1118   60.0523 C   0  0  0  0  0  0  0  0  0  0  0  0
   69.7298   37.4583   59.7899 C   0  0  0  0  0  0  0  0  0  0  0  0
   70.1587   36.3719   60.5040 C   0  0  0  0  0  0  0  0  0  0  0  0
   71.3625   35.7617   60.1955 C   0  0  0  0  0  0  0  0  0  0  0  0
   72.1471   36.2282   59.1766 C   0  0  0  0  0  0  0  0  0  0  0  0
   71.7369   37.3259   58.4397 C   0  0  0  0  0  0  0  0  0  0  0  0
   70.5328   37.9221   58.7609 C   0  0  0  0  0  0  0  0  0  0  0  0
   70.1300   39.0057   58.0314 C   0  0  0  0  0  0  0  0  0  0  0  0
   68.9020   46.7956   53.8723 N   0  0  0  0  0  0  0  0  0  0  0  0
   68.7595   46.4516   55.2436 C   0  0  0  0  0  0  0  0  0  0  0  0
   68.7694   47.3717   56.0867 O   0  0  0  0  0  0  0  0  0  0  0  0
   69.0567   48.1612   53.4142 C   0  0  0  0  0  0  0  0  0  0  0  0
   70.8430   49.0844   52.1126 O   0  0  0  0  0  0  0  0  0  0  0  0
   69.9703   48.2113   52.2377 C   0  0  0  0  0  0  0  0  0  0  0  0
   69.8412   47.2479   51.2472 O   0  0  0  0  0  0  0  0  0  0  0  0
 24 25  2  0
 25 26  1  0
 25 23  1  0
 23 20  1  0
 20 21  1  0
 21 22  2  0
 21  1  1  0
  1  2  2  0
  1  9  1  0
  2  3  1  0
  3  4  1  0
  3  8  1  0
  4  5  2  0
  5 10  1  0
  5  6  1  0
 10 11  2  0
 10 19  1  0
 11 12  1  0
 12 13  2  0
 13 14  1  0
 13 18  1  0
 14 15  2  0
 15 16  1  0
 16 17  2  0
 17 18  1  0
 18 19  2  0
  6  7  2  0
  7  8  1  0
  8  9  2  0
M  END
>  <minimizedAffinity>  (585) 
-8.54302

$$$$
data/reference_output_2/data/smiles/157259.pdb
     RDKit          3D

 25 28  0  0  0  0  0  0  0  0999 V2000
   71.2039   41.3894   59.0733 O   0  0  0  0  0  0  0  0  0  0  0  0
   70.1595   41.3188   58.3550 C   0  0  0  0  0  0  0  0  0  0  0  0
   69.6609   42.4802   57.6402 C   0  0  0  0  0  0  0  0  0  0  0  0
   70.0433   43.7924   57.5020 C   0  0  0  0  0  0  0  0  0  0  0  0
   69.1547   44.4390   56.6697 C   0  0  0  0  0  0  0  0  0  0  0  0
   68.2497   43.5030   56.3186 N   0  0  0  0  0  0  0  0  0  0  0  0
   68.5576   42.3516   56.8963 N   0  0  0  0  0  0  0  0  0  0  0  0
   67.8328   41.0973   56.7717 C   0  0  0  0  0  0  0  0  0  0  0  0
   68.0829   40.1497   57.8838 C   0  0  0  0  0  0  0  0  0  0  0  0
   69.4913   40.0657   58.2711 N   0  0  0  0  0  0  0  0  0  0  0  0
   70.1360   38.8273   58.5409 C   0  0  0  0  0  0  0  0  0  0  0  0
   71.2700   38.4165   57.8553 C   0  0  0  0  0  0  0  0  0  0  0  0
   71.9065   37.2234   58.1028 C   0  0  0  0  0  0  0  0  0  0  0  0
   71.4165   36.3730   59.0737 C   0  0  0  0  0  0  0  0  0  0  0  0
   72.0565   35.2002   59.3046 F   0  0  0  0  0  0  0  0  0  0  0  0
   70.2871   36.7554   59.7723 C   0  0  0  0  0  0  0  0  0  0  0  0
   69.6511   37.9707   59.5101 C   0  0  0  0  0  0  0  0  0  0  0  0
   69.1369   45.8602   56.2081 C   0  0  0  0  0  0  0  0  0  0  0  0
   68.3238   46.0216   55.1330 O   0  0  0  0  0  0  0  0  0  0  0  0
   68.3932   46.3629   53.8449 C   0  0  0  0  0  0  0  0  0  0  0  0
   67.6240   45.5948   52.9489 C   0  0  0  0  0  0  0  0  0  0  0  0
   67.6752   45.9227   51.6238 C   0  0  0  0  0  0  0  0  0  0  0  0
   68.4207   46.9345   51.1480 N   0  0  0  0  0  0  0  0  0  0  0  0
   69.1446   47.6574   51.9877 C   0  0  0  0  0  0  0  0  0  0  0  0
   69.1499   47.3937   53.3468 C   0  0  0  0  0  0  0  0  0  0  0  0
  1  2  2  0
  2  3  1  0
  2 10  1  0
  3  4  2  0
  3  7  1  0
  4  5  1  0
  5 18  1  0
  5  6  2  0
 18 19  1  0
 19 20  1  0
 20 21  2  0
 20 25  1  0
 21 22  1  0
 22 23  2  0
 23 24  1  0
 24 25  2  0
  6  7  1  0
  7  8  1  0
  8  9  1  0
  9 10  1  0
 10 11  1  0
 11 12  2  0
 11 17  1  0
 12 13  1  0
 13 14  2  0
 14 15  1  0
 14 16  1  0
 16 17  2  0
M  END
>  <minimizedAffinity>  (586) 
-8.54236

$$$$
data/200k_reference_output/data/smiles/66765.pdb
     RDKit          3D

 23 25  0  0  0  0  0  0  0  0999 V2000
   68.6130   47.2289   56.4303 C   0  0  0  0  0  0  0  0  0  0  0  0
   67.7005   47.6060   57.1595 O   0  0  0  0  0  0  0  0  0  0  0  0
   69.0277   47.7306   55.1356 C   0  0  0  0  0  0  0  0  0  0  0  0
   69.8448   48.8668   55.0575 C   0  0  0  0  0  0  0  0  0  0  0  0
   70.2742   49.3960   53.8675 C   0  0  0  0  0  0  0  0  0  0  0  0
   69.9027   48.8083   52.6867 C   0  0  0  0  0  0  0  0  0  0  0  0
   69.1007   47.6898   52.7201 C   0  0  0  0  0  0  0  0  0  0  0  0
   68.7525   47.1305   51.4990 C   0  0  0  0  0  0  0  0  0  0  0  0
   67.9534   46.0141   51.5240 C   0  0  0  0  0  0  0  0  0  0  0  0
   67.5154   45.4730   52.7008 C   0  0  0  0  0  0  0  0  0  0  0  0
   67.8754   46.0474   53.9026 C   0  0  0  0  0  0  0  0  0  0  0  0
   68.6661   47.1550   53.9406 C   0  0  0  0  0  0  0  0  0  0  0  0
   69.3525   46.1358   56.9628 O   0  0  0  0  0  0  0  0  0  0  0  0
   70.3270   46.3609   57.9569 C   0  0  0  0  0  0  0  0  0  0  0  0
   71.8371   44.4847   58.2222 O   0  0  0  0  0  0  0  0  0  0  0  0
   70.7482   45.0581   58.5088 C   0  0  0  0  0  0  0  0  0  0  0  0
   69.8846   44.3853   59.4271 N   0  0  0  0  0  0  0  0  0  0  0  0
   70.2661   43.0902   59.9964 C   0  0  0  0  0  0  0  0  0  0  0  0
   69.1117   42.6320   60.8465 C   0  0  1  0  0  0  0  0  0  0  0  0
   69.4624   42.6150   62.3195 C   0  0  0  0  0  0  0  0  0  0  0  0
   68.0554   42.4492   62.9046 C   0  0  0  0  0  0  0  0  0  0  0  0
   67.1980   42.9917   61.8007 C   0  0  0  0  0  0  0  0  0  0  0  0
   68.0430   43.5131   60.8288 O   0  0  0  0  0  0  0  0  0  0  0  0
 15 16  2  0
 16 14  1  0
 16 17  1  0
 14 13  1  0
 13  1  1  0
  1  2  2  0
  1  3  1  0
  3  4  2  0
  3 12  1  0
  4  5  1  0
  5  6  2  0
  6  7  1  0
  7  8  1  0
  7 12  2  0
  8  9  2  0
  9 10  1  0
 10 11  2  0
 11 12  1  0
 17 18  1  0
 19 18  1  6
 19 20  1  0
 19 23  1  0
 20 21  1  0
 21 22  1  0
 22 23  1  0
M  END
>  <minimizedAffinity>  (587) 
-8.54226

$$$$
data/200k_reference_output/data/smiles/17041.pdb
     RDKit          3D

 23 24  0  0  0  0  0  0  0  0999 V2000
   68.1769   46.1617   55.8960 N   0  0  0  0  0  0  0  0  0  0  0  0
   68.2086   46.3432   54.4939 C   0  0  0  0  0  0  0  0  0  0  0  0
   69.0176   47.3137   54.0119 N   0  0  0  0  0  0  0  0  0  0  0  0
   69.1431   47.5814   52.7057 C   0  0  0  0  0  0  0  0  0  0  0  0
   68.4253   46.8481   51.7823 C   0  0  0  0  0  0  0  0  0  0  0  0
   67.6018   45.8616   52.2639 C   0  0  0  0  0  0  0  0  0  0  0  0
   66.9507   45.1950   51.4299 O   0  0  0  0  0  0  0  0  0  0  0  0
   67.5181   45.6390   53.5972 N   0  0  0  0  0  0  0  0  0  0  0  0
   70.0473   48.6610   52.2188 C   0  0  0  0  0  0  0  0  0  0  0  0
   70.9873   49.0110   53.1662 F   0  0  0  0  0  0  0  0  0  0  0  0
   70.7002   48.2516   51.0899 F   0  0  0  0  0  0  0  0  0  0  0  0
   69.2309   49.7382   51.9060 F   0  0  0  0  0  0  0  0  0  0  0  0
   69.2260   46.5068   56.7865 C   0  0  0  0  0  0  0  0  0  0  0  0
   69.7882   45.5790   57.4446 N   0  0  0  0  0  0  0  0  0  0  0  0
   69.6649   47.8325   56.9931 N   0  0  0  0  0  0  0  0  0  0  0  0
   68.2186   51.2539   56.5123 C   0  0  0  0  0  0  0  0  0  0  0  0
   67.0686   51.1534   57.2583 C   0  0  0  0  0  0  0  0  0  0  0  0
   66.7704   49.9756   57.9173 C   0  0  0  0  0  0  0  0  0  0  0  0
   67.6246   48.8979   57.8297 C   0  0  0  0  0  0  0  0  0  0  0  0
   68.8012   48.9567   57.0856 C   0  0  0  0  0  0  0  0  0  0  0  0
   69.0417   50.1526   56.4532 C   0  0  0  0  0  0  0  0  0  0  0  0
   69.4936   53.3472   56.3334 C   0  0  0  0  0  0  0  0  0  0  0  0
   68.5572   52.4190   55.8334 O   0  0  0  0  0  0  0  0  0  0  0  0
 22 23  1  0
 23 16  1  0
 16 17  2  0
 16 21  1  0
 17 18  1  0
 18 19  2  0
 19 20  1  0
 20 15  1  0
 20 21  2  0
 15 13  1  0
 13 14  2  0
 13  1  1  0
  1  2  1  0
  2  3  2  0
  2  8  1  0
  3  4  1  0
  4  9  1  0
  4  5  2  0
  9 10  1  0
  9 11  1  0
  9 12  1  0
  5  6  1  0
  6  7  2  0
  6  8  1  0
M  CHG  1  14   1
M  END
>  <minimizedAffinity>  (588) 
-8.54171

$$$$
data/reference_output_2/data/smiles/157946.pdb
     RDKit          3D

 25 27  0  0  0  0  0  0  0  0999 V2000
   68.4607   44.8598   55.6189 N   0  0  0  0  0  0  0  0  0  0  0  0
   68.1605   45.2671   54.3254 C   0  0  0  0  0  0  0  0  0  0  0  0
   67.2851   44.5406   53.7210 O   0  0  0  0  0  0  0  0  0  0  0  0
   68.6559   46.3742   53.5465 C   0  0  0  0  0  0  0  0  0  0  0  0
   68.9255   46.1688   52.2114 N   0  0  0  0  0  0  0  0  0  0  0  0
   69.3907   47.0943   51.4107 N   0  0  0  0  0  0  0  0  0  0  0  0
   69.6325   48.3332   51.8855 C   0  0  0  0  0  0  0  0  0  0  0  0
   70.0753   49.2222   51.1250 O   0  0  0  0  0  0  0  0  0  0  0  0
   69.4033   48.6514   53.2027 C   0  0  0  0  0  0  0  0  0  0  0  0
   69.6924   49.9166   53.6438 C   0  0  0  0  0  0  0  0  0  0  0  0
   69.4738   50.1799   54.9965 C   0  0  0  0  0  0  0  0  0  0  0  0
   68.9942   49.2194   55.8454 C   0  0  0  0  0  0  0  0  0  0  0  0
   68.7163   47.9561   55.3526 C   0  0  0  0  0  0  0  0  0  0  0  0
   68.9092   47.6367   54.0206 C   0  0  0  0  0  0  0  0  0  0  0  0
   68.6804   42.7985   56.9694 C   0  0  0  0  0  0  0  0  0  0  0  0
   69.9273   43.0737   57.0086 O   0  0  0  0  0  0  0  0  0  0  0  0
   67.8865   43.7197   56.2458 N   0  0  0  0  0  0  0  0  0  0  0  0
   67.0544   39.3817   58.9910 C   0  0  0  0  0  0  0  0  0  0  0  0
   66.6724   40.6713   59.2936 C   0  0  0  0  0  0  0  0  0  0  0  0
   67.2114   41.7646   58.6266 C   0  0  0  0  0  0  0  0  0  0  0  0
   68.1518   41.6121   57.6335 C   0  0  0  0  0  0  0  0  0  0  0  0
   68.5340   40.3297   57.3291 C   0  0  0  0  0  0  0  0  0  0  0  0
   67.9960   39.2267   57.9963 C   0  0  0  0  0  0  0  0  0  0  0  0
   65.1703   38.5502   60.3776 C   0  0  0  0  0  0  0  0  0  0  0  0
   66.4782   38.1996   59.7048 C   0  0  0  0  0  0  0  0  0  0  0  0
 24 25  1  0
 25 18  1  0
 18 19  2  0
 18 23  1  0
 19 20  1  0
 20 21  2  0
 21 15  1  0
 21 22  1  0
 15 16  2  0
 15 17  1  0
 17  1  1  0
  1  2  1  0
  2  3  2  0
  2  4  1  0
  4  5  2  0
  4 14  1  0
  5  6  1  0
  6  7  1  0
  7  8  2  0
  7  9  1  0
  9 10  1  0
  9 14  2  0
 10 11  2  0
 11 12  1  0
 12 13  2  0
 13 14  1  0
 22 23  2  0
M  END
>  <minimizedAffinity>  (589) 
-8.54098

$$$$
data/200k_reference_output/data/smiles/78364.pdb
     RDKit          3D

 24 26  0  0  0  0  0  0  0  0999 V2000
   70.9190   40.0396   59.0118 C   0  0  0  0  0  0  0  0  0  0  0  0
   70.0659   38.9591   58.8204 C   0  0  0  0  0  0  0  0  0  0  0  0
   68.8902   39.1225   58.0722 C   0  0  0  0  0  0  0  0  0  0  0  0
   68.5431   40.3313   57.5097 C   0  0  0  0  0  0  0  0  0  0  0  0
   69.3837   41.4019   57.6961 C   0  0  0  0  0  0  0  0  0  0  0  0
   70.5452   41.2371   58.4370 C   0  0  0  0  0  0  0  0  0  0  0  0
   68.7975   42.5645   57.0185 C   0  0  0  0  0  0  0  0  0  0  0  0
   69.2650   43.7573   56.9437 N   0  0  0  0  0  0  0  0  0  0  0  0
   67.5466   42.1164   56.4138 C   0  0  0  0  0  0  0  0  0  0  0  0
   66.7172   42.7762   55.7420 O   0  0  0  0  0  0  0  0  0  0  0  0
   67.3934   40.7357   56.7202 N   0  0  0  0  0  0  0  0  0  0  0  0
   68.6623   44.8170   56.2922 N   0  0  0  0  0  0  0  0  0  0  0  0
   69.0375   46.1938   56.4023 C   0  0  0  0  0  0  0  0  0  0  0  0
   70.0080   46.4921   57.1339 O   0  0  0  0  0  0  0  0  0  0  0  0
   68.2433   47.1926   55.6264 C   0  0  0  0  0  0  0  0  0  0  0  0
   68.8962   47.5733   54.3414 C   0  0  0  0  0  0  0  0  0  0  0  0
   69.6988   48.6725   54.2215 C   0  0  0  0  0  0  0  0  0  0  0  0
   70.2897   49.0104   53.0086 C   0  0  0  0  0  0  0  0  0  0  0  0
   70.0638   48.2254   51.9018 C   0  0  0  0  0  0  0  0  0  0  0  0
   70.6669   48.5905   50.7061 O   0  0  0  0  0  0  0  0  0  0  0  0
   69.2560   47.1221   52.0262 C   0  0  0  0  0  0  0  0  0  0  0  0
   68.6804   46.7956   53.2205 C   0  0  0  0  0  0  0  0  0  0  0  0
   73.0427   38.9568   59.3877 C   0  0  0  0  0  0  0  0  0  0  0  0
   72.1058   39.9432   59.7447 O   0  0  0  0  0  0  0  0  0  0  0  0
 23 24  1  0
 24  1  1  0
  1  2  2  0
  1  6  1  0
  2  3  1  0
  3  4  2  0
  4  5  1  0
  4 11  1  0
  5  6  2  0
  5  7  1  0
  7  8  2  0
  7  9  1  0
  8 12  1  0
 12 13  1  0
 13 14  2  0
 13 15  1  0
 15 16  1  0
 16 17  2  0
 16 22  1  0
 17 18  1  0
 18 19  2  0
 19 20  1  0
 19 21  1  0
 21 22  2  0
  9 10  2  0
  9 11  1  0
M  END
>  <minimizedAffinity>  (590) 
-8.54088

$$$$
data/reference_output_2/data/smiles/124385.pdb
     RDKit          3D

 25 27  0  0  0  0  0  0  0  0999 V2000
   70.0187   47.0534   57.3734 C   0  0  0  0  0  0  0  0  0  0  0  0
   70.2932   45.5954   57.5676 C   0  0  0  0  0  0  0  0  0  0  0  0
   69.4980   44.5296   57.4882 N   0  0  0  0  0  0  0  0  0  0  0  0
   70.1578   43.3901   57.7384 C   0  0  0  0  0  0  0  0  0  0  0  0
   69.8175   42.0486   57.7848 C   0  0  0  0  0  0  0  0  0  0  0  0
   70.7158   41.0437   58.0754 C   0  0  0  0  0  0  0  0  0  0  0  0
   72.0369   41.4241   58.3329 C   0  0  0  0  0  0  0  0  0  0  0  0
   72.3897   42.7543   58.2901 C   0  0  0  0  0  0  0  0  0  0  0  0
   71.4618   43.7458   57.9939 C   0  0  0  0  0  0  0  0  0  0  0  0
   71.5247   45.0802   57.8868 N   0  0  0  0  0  0  0  0  0  0  0  0
   70.3572   39.6771   58.1204 N   0  0  0  0  0  0  0  0  0  0  0  0
   69.1665   39.3541   58.1560 O   0  0  0  0  0  0  0  0  0  0  0  0
   71.3182   38.7111   58.1247 O   0  0  0  0  0  0  0  0  0  0  0  0
   68.9827   47.3540   56.5171 O   0  0  0  0  0  0  0  0  0  0  0  0
   69.2543   47.7555   52.9100 C   0  0  0  0  0  0  0  0  0  0  0  0
   68.5032   46.7088   52.4212 C   0  0  0  0  0  0  0  0  0  0  0  0
   68.3541   46.5093   51.0929 F   0  0  0  0  0  0  0  0  0  0  0  0
   67.8933   45.8510   53.3055 C   0  0  0  0  0  0  0  0  0  0  0  0
   68.0318   46.0353   54.6849 C   0  0  0  0  0  0  0  0  0  0  0  0
   68.7724   47.0662   55.2053 C   0  0  0  0  0  0  0  0  0  0  0  0
   69.3730   47.9123   54.2507 C   0  0  0  0  0  0  0  0  0  0  0  0
   70.1297   48.9669   54.6941 F   0  0  0  0  0  0  0  0  0  0  0  0
   69.7585   50.0389   52.1545 N   0  0  0  0  0  0  0  0  0  0  0  0
   69.8925   48.6555   51.9380 C   0  0  0  0  0  0  0  0  0  0  0  0
   70.5298   48.2167   50.9582 O   0  0  0  0  0  0  0  0  0  0  0  0
 23 24  1  0
 24 25  2  0
 24 15  1  0
 15 16  2  0
 15 21  1  0
 16 17  1  0
 16 18  1  0
 18 19  2  0
 19 20  1  0
 20 14  1  0
 20 21  2  0
 14  1  1  0
  1  2  1  0
  2  3  2  0
  2 10  1  0
  3  4  1  0
  4  5  2  0
  4  9  1  0
  5  6  1  0
  6 11  1  0
  6  7  2  0
 11 12  2  0
 11 13  1  0
  7  8  1  0
  8  9  2  0
  9 10  1  0
 21 22  1  0
M  CHG  3   3   1  11   1  13  -1
M  END
>  <minimizedAffinity>  (591) 
-8.54083

$$$$
data/reference_output_2/data/smiles/197199.pdb
     RDKit          3D

 24 25  0  0  0  0  0  0  0  0999 V2000
   72.7526   51.3872   54.9656 C   0  0  2  0  0  0  0  0  0  0  0  0
   70.8775   50.2314   53.7520 C   0  0  0  0  0  0  0  0  0  0  0  0
   70.5624   51.3252   53.2483 O   0  0  0  0  0  0  0  0  0  0  0  0
   71.9879   50.2142   54.6342 N   0  0  0  0  0  0  0  0  0  0  0  0
   67.7100   45.5369   52.4957 C   0  0  0  0  0  0  0  0  0  0  0  0
   68.5296   46.7476   52.8152 C   0  0  0  0  0  0  0  0  0  0  0  0
   68.4891   47.3419   54.0592 C   0  0  0  0  0  0  0  0  0  0  0  0
   69.2495   48.4570   54.3386 C   0  0  0  0  0  0  0  0  0  0  0  0
   70.0902   49.0462   53.4069 C   0  0  0  0  0  0  0  0  0  0  0  0
   70.1268   48.4490   52.1660 C   0  0  0  0  0  0  0  0  0  0  0  0
   69.3605   47.3236   51.8799 C   0  0  0  0  0  0  0  0  0  0  0  0
   74.1947   51.0301   54.9460 C   0  0  0  0  0  0  0  0  0  0  0  0
   75.0111   51.7171   55.6023 O   0  0  0  0  0  0  0  0  0  0  0  0
   74.6910   49.9535   54.2218 O   0  0  0  0  0  0  0  0  0  0  0  0
   72.4039   52.0119   56.2905 C   0  0  0  0  0  0  0  0  0  0  0  0
   70.9717   51.9002   56.6560 C   0  0  0  0  0  0  0  0  0  0  0  0
   70.5100   50.7927   57.3826 C   0  0  0  0  0  0  0  0  0  0  0  0
   69.1800   50.6669   57.7098 C   0  0  0  0  0  0  0  0  0  0  0  0
   68.7051   49.6101   58.4094 F   0  0  0  0  0  0  0  0  0  0  0  0
   68.3176   51.6687   57.2992 C   0  0  0  0  0  0  0  0  0  0  0  0
   66.9945   51.5919   57.5960 F   0  0  0  0  0  0  0  0  0  0  0  0
   68.7759   52.7623   56.5811 C   0  0  0  0  0  0  0  0  0  0  0  0
   70.1087   52.8946   56.2499 C   0  0  0  0  0  0  0  0  0  0  0  0
   70.5438   53.9985   55.5552 F   0  0  0  0  0  0  0  0  0  0  0  0
  5  6  1  0
  6  7  2  0
  6 11  1  0
  7  8  1  0
  8  9  2  0
  9  2  1  0
  9 10  1  0
  2  3  2  0
  2  4  1  0
  4  1  1  0
  1 15  1  1
  1 12  1  0
 15 16  1  0
 16 17  2  0
 16 23  1  0
 17 18  1  0
 18 19  1  0
 18 20  2  0
 20 21  1  0
 20 22  1  0
 22 23  2  0
 23 24  1  0
 12 13  2  0
 12 14  1  0
 10 11  2  0
M  END
>  <minimizedAffinity>  (592) 
-8.54041

$$$$
data/200k_reference_output/data/smiles/73346.pdb
     RDKit          3D

 24 26  0  0  0  0  0  0  0  0999 V2000
   69.4977   42.6427   57.2946 C   0  0  0  0  0  0  0  0  0  0  0  0
   68.9739   43.5958   56.4311 C   0  0  0  0  0  0  0  0  0  0  0  0
   67.8298   43.3829   55.7006 C   0  0  0  0  0  0  0  0  0  0  0  0
   67.2231   42.1771   55.8661 N   0  0  0  0  0  0  0  0  0  0  0  0
   67.7072   41.2446   56.6921 C   0  0  0  0  0  0  0  0  0  0  0  0
   68.8331   41.4823   57.3950 N   0  0  0  0  0  0  0  0  0  0  0  0
   71.5086   44.4838   61.3525 N   0  0  0  0  0  0  0  0  0  0  0  0
   71.6426   43.7894   60.1168 C   0  0  0  0  0  0  0  0  0  0  0  0
   72.8981   43.3506   59.7249 C   0  0  0  0  0  0  0  0  0  0  0  0
   73.0415   42.6784   58.5335 C   0  0  0  0  0  0  0  0  0  0  0  0
   71.9585   42.4212   57.7010 C   0  0  0  0  0  0  0  0  0  0  0  0
   70.7040   42.8493   58.0728 C   0  0  0  0  0  0  0  0  0  0  0  0
   70.5999   43.5246   59.2828 C   0  0  0  0  0  0  0  0  0  0  0  0
   67.3095   44.3387   54.8066 N   0  0  0  0  0  0  0  0  0  0  0  0
   67.9607   45.5191   54.3679 C   0  0  0  0  0  0  0  0  0  0  0  0
   68.4126   46.5221   55.1957 C   0  0  0  0  0  0  0  0  0  0  0  0
   69.0258   47.6738   54.7187 C   0  0  0  0  0  0  0  0  0  0  0  0
   69.2138   47.8668   53.3697 C   0  0  0  0  0  0  0  0  0  0  0  0
   68.7687   46.8741   52.5221 C   0  0  0  0  0  0  0  0  0  0  0  0
   68.1603   45.7319   52.9950 C   0  0  0  0  0  0  0  0  0  0  0  0
   70.0026   49.3464   52.7339 P   0  0  0  0  0  0  0  0  0  0  0  0
   69.2878   50.5992   53.1940 O   0  0  0  0  0  0  0  0  0  0  0  0
   69.9796   49.2863   51.0512 O   0  0  0  0  0  0  0  0  0  0  0  0
   71.6157   49.4296   53.2270 O   0  0  0  0  0  0  0  0  0  0  0  0
  7  8  1  0
  8  9  2  0
  8 13  1  0
  9 10  1  0
 10 11  2  0
 11 12  1  0
 12  1  1  0
 12 13  2  0
  1  2  2  0
  1  6  1  0
  2  3  1  0
  3 14  1  0
  3  4  2  0
 14 15  1  0
 15 16  2  0
 15 20  1  0
 16 17  1  0
 17 18  2  0
 18 21  1  0
 18 19  1  0
 21 22  2  0
 21 23  1  0
 21 24  1  0
 19 20  2  0
  4  5  1  0
  5  6  2  0
M  END
>  <minimizedAffinity>  (593) 
-8.54035

$$$$
data/200k_reference_output/data/smiles/10061.pdb
     RDKit          3D

 24 26  0  0  0  0  0  0  0  0999 V2000
   73.5275   50.1905   55.1434 N   0  0  0  0  0  0  0  0  0  0  0  0
   72.7957   51.1577   54.4428 C   0  0  0  0  0  0  0  0  0  0  0  0
   73.4318   51.8695   53.6234 O   0  0  0  0  0  0  0  0  0  0  0  0
   75.8419   50.2135   56.0086 C   0  0  0  0  0  0  0  0  0  0  0  0
   75.3388   50.6082   57.1223 O   0  0  0  0  0  0  0  0  0  0  0  0
   74.9162   49.9912   54.9678 N   0  0  0  0  0  0  0  0  0  0  0  0
   81.5658   49.5689   55.7190 C   0  0  0  0  0  0  0  0  0  0  0  0
   80.0827   49.7379   55.7956 C   0  0  0  0  0  0  0  0  0  0  0  0
   79.5066   50.7267   56.5650 C   0  0  0  0  0  0  0  0  0  0  0  0
   78.1120   50.8662   56.6217 C   0  0  0  0  0  0  0  0  0  0  0  0
   77.2758   50.0380   55.9250 C   0  0  0  0  0  0  0  0  0  0  0  0
   77.8662   49.0526   55.1594 C   0  0  0  0  0  0  0  0  0  0  0  0
   79.2337   48.9065   55.0971 C   0  0  0  0  0  0  0  0  0  0  0  0
   71.3498   51.3941   54.5984 C   0  0  0  0  0  0  0  0  0  0  0  0
   70.5558   50.1334   54.8161 C   0  0  0  0  0  0  0  0  0  0  0  0
   70.2435   49.4351   53.5902 N   0  0  0  0  0  0  0  0  0  0  0  0
   70.5858   49.7047   52.3561 N   0  0  0  0  0  0  0  0  0  0  0  0
   70.1001   48.8296   51.5002 N   0  0  0  0  0  0  0  0  0  0  0  0
   69.3960   47.9253   52.1820 C   0  0  0  0  0  0  0  0  0  0  0  0
   68.6834   46.8083   51.8041 C   0  0  0  0  0  0  0  0  0  0  0  0
   68.0564   46.0710   52.7825 C   0  0  0  0  0  0  0  0  0  0  0  0
   68.1271   46.4255   54.1140 C   0  0  0  0  0  0  0  0  0  0  0  0
   68.8441   47.5436   54.4645 C   0  0  0  0  0  0  0  0  0  0  0  0
   69.4876   48.3102   53.5171 C   0  0  0  0  0  0  0  0  0  0  0  0
  7  8  1  0
  8  9  2  0
  8 13  1  0
  9 10  1  0
 10 11  2  0
 11  4  1  0
 11 12  1  0
  4  5  2  0
  4  6  1  0
  6  1  1  0
  1  2  1  0
  2  3  2  0
  2 14  1  0
 14 15  1  0
 15 16  1  0
 16 17  1  0
 16 24  1  0
 17 18  2  0
 18 19  1  0
 19 20  1  0
 19 24  2  0
 20 21  2  0
 21 22  1  0
 22 23  2  0
 23 24  1  0
 12 13  2  0
M  END
>  <minimizedAffinity>  (594) 
-8.54024

$$$$
data/reference_output_2/data/smiles/159174.pdb
     RDKit          3D

 24 27  0  0  0  0  0  0  0  0999 V2000
   70.3770   44.7784   57.7229 C   0  0  0  0  0  0  0  0  0  0  0  0
   71.1019   45.7792   58.2933 N   0  0  0  0  0  0  0  0  0  0  0  0
   70.6055   46.9499   57.9361 N   0  0  0  0  0  0  0  0  0  0  0  0
   69.5620   46.7458   57.1363 C   0  0  0  0  0  0  0  0  0  0  0  0
   69.4385   45.4138   57.0182 N   0  0  0  0  0  0  0  0  0  0  0  0
   68.3615   42.7572   58.0129 O   0  0  0  0  0  0  0  0  0  0  0  0
   69.6949   42.4033   58.0566 C   0  0  0  0  0  0  0  0  0  0  0  0
   70.6673   43.3646   57.9179 C   0  0  0  0  0  0  0  0  0  0  0  0
   71.9456   42.9257   57.9728 N   0  0  0  0  0  0  0  0  0  0  0  0
   72.2765   41.6352   58.1513 C   0  0  0  0  0  0  0  0  0  0  0  0
   71.3217   40.6483   58.2935 C   0  0  0  0  0  0  0  0  0  0  0  0
   71.6428   39.3115   58.4782 C   0  0  0  0  0  0  0  0  0  0  0  0
   70.6508   38.3490   58.6163 C   0  0  0  0  0  0  0  0  0  0  0  0
   69.3499   38.8019   58.5589 C   0  0  0  0  0  0  0  0  0  0  0  0
   69.0560   40.1102   58.3781 N   0  0  0  0  0  0  0  0  0  0  0  0
   70.0068   41.0494   58.2430 C   0  0  0  0  0  0  0  0  0  0  0  0
   68.6675   47.7537   56.4735 C   0  0  0  0  0  0  0  0  0  0  0  0
   68.6314   47.4420   55.0272 C   0  0  0  0  0  0  0  0  0  0  0  0
   69.2911   48.2372   54.1124 C   0  0  0  0  0  0  0  0  0  0  0  0
   69.2763   47.9748   52.7607 C   0  0  0  0  0  0  0  0  0  0  0  0
   68.5889   46.8896   52.2713 C   0  0  0  0  0  0  0  0  0  0  0  0
   68.5594   46.6073   50.9278 F   0  0  0  0  0  0  0  0  0  0  0  0
   67.9189   46.0756   53.1648 C   0  0  0  0  0  0  0  0  0  0  0  0
   67.9512   46.3621   54.5090 C   0  0  0  0  0  0  0  0  0  0  0  0
  6  7  1  0
  7  8  2  0
  7 16  1  0
  8  1  1  0
  8  9  1  0
  1  2  2  0
  1  5  1  0
  2  3  1  0
  3  4  2  0
  4 17  1  0
  4  5  1  0
 17 18  1  0
 18 19  2  0
 18 24  1  0
 19 20  1  0
 20 21  2  0
 21 22  1  0
 21 23  1  0
 23 24  2  0
  9 10  2  0
 10 11  1  0
 11 12  1  0
 11 16  2  0
 12 13  2  0
 13 14  1  0
 14 15  2  0
 15 16  1  0
M  END
>  <minimizedAffinity>  (595) 
-8.53966

$$$$
data/reference_output_2/data/smiles/126120.pdb
     RDKit          3D

 23 25  0  0  0  0  0  0  0  0999 V2000
   68.6101   47.3938   56.8206 C   0  0  0  0  0  0  0  0  0  0  0  0
   69.2975   46.6915   57.7896 N   0  0  0  0  0  0  0  0  0  0  0  0
   69.5615   45.4879   57.3657 N   0  0  0  0  0  0  0  0  0  0  0  0
   69.0892   45.3520   56.1687 N   0  0  0  0  0  0  0  0  0  0  0  0
   68.5007   46.5324   55.8332 N   0  0  0  0  0  0  0  0  0  0  0  0
   70.3099   49.6923   56.0891 F   0  0  0  0  0  0  0  0  0  0  0  0
   69.1140   49.8181   56.6678 C   0  0  0  0  0  0  0  0  0  0  0  0
   68.2990   48.7978   57.0153 C   0  0  0  0  0  0  0  0  0  0  0  0
   67.0378   49.0966   57.5762 C   0  0  0  0  0  0  0  0  0  0  0  0
   66.5930   50.3655   57.7923 C   0  0  0  0  0  0  0  0  0  0  0  0
   67.4371   51.3931   57.4342 C   0  0  0  0  0  0  0  0  0  0  0  0
   68.6693   51.1366   56.8840 C   0  0  0  0  0  0  0  0  0  0  0  0
   69.5677   52.2609   56.5039 C   0  0  0  0  0  0  0  0  0  0  0  0
   68.9359   53.4371   56.8472 F   0  0  0  0  0  0  0  0  0  0  0  0
   70.7645   52.2227   57.2065 F   0  0  0  0  0  0  0  0  0  0  0  0
   69.8536   52.1996   55.1516 F   0  0  0  0  0  0  0  0  0  0  0  0
   67.8919   46.6264   54.5354 C   0  0  0  0  0  0  0  0  0  0  0  0
   68.6797   47.2829   53.5035 C   0  0  0  0  0  0  0  0  0  0  0  0
   69.1157   48.5718   53.5780 C   0  0  0  0  0  0  0  0  0  0  0  0
   69.8543   49.1247   52.5566 C   0  0  0  0  0  0  0  0  0  0  0  0
   70.1688   48.3883   51.4375 C   0  0  0  0  0  0  0  0  0  0  0  0
   69.7461   47.1168   51.3524 N   0  0  0  0  0  0  0  0  0  0  0  0
   69.0263   46.5828   52.3500 C   0  0  0  0  0  0  0  0  0  0  0  0
  6  7  1  0
  7  8  2  0
  7 12  1  0
  8  1  1  0
  8  9  1  0
  1  2  2  0
  1  5  1  0
  2  3  1  0
  3  4  2  0
  4  5  1  0
  5 17  1  0
 17 18  1  0
 18 19  2  0
 18 23  1  0
 19 20  1  0
 20 21  2  0
 21 22  1  0
 22 23  2  0
  9 10  2  0
 10 11  1  0
 11 12  2  0
 12 13  1  0
 13 14  1  0
 13 15  1  0
 13 16  1  0
M  END
>  <minimizedAffinity>  (596) 
-8.53858

$$$$
data/reference_output_2/data/smiles/145088.pdb
     RDKit          3D

 22 23  0  0  0  0  0  0  0  0999 V2000
   71.4508   46.2621   58.3772 C   0  0  0  0  0  0  0  0  0  0  0  0
   70.8472   47.4631   58.0804 C   0  0  0  0  0  0  0  0  0  0  0  0
   69.7151   47.5242   57.2711 C   0  0  0  0  0  0  0  0  0  0  0  0
   69.1887   46.3571   56.7565 C   0  0  0  0  0  0  0  0  0  0  0  0
   69.8073   45.1767   57.0669 C   0  0  0  0  0  0  0  0  0  0  0  0
   70.9058   45.1526   57.8564 N   0  0  0  0  0  0  0  0  0  0  0  0
   73.8092   46.9059   61.2869 N   0  0  0  0  0  0  0  0  0  0  0  0
   72.6634   46.9277   60.4476 C   0  0  0  0  0  0  0  0  0  0  0  0
   71.6139   47.5764   60.7567 O   0  0  0  0  0  0  0  0  0  0  0  0
   72.6072   46.2293   59.2067 N   0  0  0  0  0  0  0  0  0  0  0  0
   74.6266   46.8745   63.5418 C   0  0  0  0  0  0  0  0  0  0  0  0
   73.8171   47.6348   62.5430 C   0  0  0  0  0  0  0  0  0  0  0  0
   68.0588   46.4477   55.9527 O   0  0  0  0  0  0  0  0  0  0  0  0
   68.2759   46.5606   54.5846 C   0  0  0  0  0  0  0  0  0  0  0  0
   67.6653   45.6697   53.7291 C   0  0  0  0  0  0  0  0  0  0  0  0
   67.8965   45.8015   52.3765 C   0  0  0  0  0  0  0  0  0  0  0  0
   68.7177   46.7985   51.8844 C   0  0  0  0  0  0  0  0  0  0  0  0
   69.3394   47.7020   52.7288 C   0  0  0  0  0  0  0  0  0  0  0  0
   69.0989   47.5579   54.0767 C   0  0  0  0  0  0  0  0  0  0  0  0
   70.2050   48.7535   52.2090 C   0  0  0  0  0  0  0  0  0  0  0  0
   71.2499   49.0194   52.8484 O   0  0  0  0  0  0  0  0  0  0  0  0
   69.9453   49.4695   51.0610 O   0  0  0  0  0  0  0  0  0  0  0  0
 11 12  1  0
 12  7  1  0
  7  8  1  0
  8  9  2  0
  8 10  1  0
 10  1  1  0
  1  2  2  0
  1  6  1  0
  2  3  1  0
  3  4  2  0
  4 13  1  0
  4  5  1  0
 13 14  1  0
 14 15  2  0
 14 19  1  0
 15 16  1  0
 16 17  2  0
 17 18  1  0
 18 20  1  0
 18 19  2  0
 20 21  2  0
 20 22  1  0
  5  6  2  0
M  END
>  <minimizedAffinity>  (597) 
-8.53756

$$$$
data/200k_reference_output/data/smiles/84040.pdb
     RDKit          3D

 23 25  0  0  0  0  0  0  0  0999 V2000
   69.5358   43.4594   56.7874 O   0  0  0  0  0  0  0  0  0  0  0  0
   68.3907   43.0735   56.4584 C   0  0  0  0  0  0  0  0  0  0  0  0
   67.8265   41.8702   57.0104 N   0  0  0  0  0  0  0  0  0  0  0  0
   67.6566   43.8438   55.5306 N   0  0  0  0  0  0  0  0  0  0  0  0
   68.0866   45.0366   54.9169 C   0  0  0  0  0  0  0  0  0  0  0  0
   68.6595   46.1178   55.5144 C   0  0  0  0  0  0  0  0  0  0  0  0
   69.0566   47.2639   54.8170 C   0  0  0  0  0  0  0  0  0  0  0  0
   68.8801   47.3511   53.4545 C   0  0  0  0  0  0  0  0  0  0  0  0
   68.3030   46.2708   52.8262 C   0  0  0  0  0  0  0  0  0  0  0  0
   67.9188   45.1517   53.5285 C   0  0  0  0  0  0  0  0  0  0  0  0
   69.2941   48.5477   52.7214 C   0  0  0  0  0  0  0  0  0  0  0  0
   69.5228   49.7491   53.2389 N   0  0  0  0  0  0  0  0  0  0  0  0
   69.8770   50.5628   52.2506 N   0  0  0  0  0  0  0  0  0  0  0  0
   69.8812   49.9032   51.1057 N   0  0  0  0  0  0  0  0  0  0  0  0
   69.5226   48.6659   51.4027 N   0  0  0  0  0  0  0  0  0  0  0  0
   68.5785   41.0861   57.9392 C   0  0  0  0  0  0  0  0  0  0  0  0
   68.1519   39.6418   57.8382 C   0  0  0  0  0  0  0  0  0  0  0  0
   69.1037   38.7699   58.5768 C   0  0  0  0  0  0  0  0  0  0  0  0
   68.6485   38.0394   59.6366 C   0  0  0  0  0  0  0  0  0  0  0  0
   69.4958   37.2053   60.3667 C   0  0  0  0  0  0  0  0  0  0  0  0
   70.8148   37.1208   60.0053 C   0  0  0  0  0  0  0  0  0  0  0  0
   71.2976   37.8537   58.9324 C   0  0  0  0  0  0  0  0  0  0  0  0
   70.4303   38.6829   58.2163 C   0  0  0  0  0  0  0  0  0  0  0  0
  1  2  2  0
  2  3  1  0
  2  4  1  0
  3 16  1  0
 16 17  1  0
 17 18  1  0
 18 19  2  0
 18 23  1  0
 19 20  1  0
 20 21  2  0
 21 22  1  0
 22 23  2  0
  4  5  1  0
  5  6  2  0
  5 10  1  0
  6  7  1  0
  7  8  2  0
  8 11  1  0
  8  9  1  0
 11 12  2  0
 11 15  1  0
 12 13  1  0
 13 14  2  0
 14 15  1  0
  9 10  2  0
M  END
>  <minimizedAffinity>  (598) 
-8.53726

$$$$
data/reference_output_2/data/smiles/128510.pdb
     RDKit          3D

 23 24  0  0  0  0  0  0  0  0999 V2000
   72.2386   50.5284   53.9669 N   0  0  0  0  0  0  0  0  0  0  0  0
   69.6503   50.8993   53.6323 C   0  0  0  0  0  0  0  0  0  0  0  0
   70.1728   49.5405   53.5747 C   0  0  0  0  0  0  0  0  0  0  0  0
   71.4758   49.3942   53.7480 N   0  0  0  0  0  0  0  0  0  0  0  0
   69.4171   48.3312   53.2836 C   0  0  0  0  0  0  0  0  0  0  0  0
   68.5599   47.7688   54.1948 C   0  0  0  0  0  0  0  0  0  0  0  0
   67.8042   46.6434   53.9128 C   0  0  0  0  0  0  0  0  0  0  0  0
   67.9053   46.0631   52.6904 C   0  0  0  0  0  0  0  0  0  0  0  0
   67.1307   44.9249   52.4229 O   0  0  0  0  0  0  0  0  0  0  0  0
   68.7492   46.5773   51.7282 C   0  0  0  0  0  0  0  0  0  0  0  0
   69.4959   47.7178   52.0569 C   0  0  0  0  0  0  0  0  0  0  0  0
   70.3270   48.1980   51.0602 O   0  0  0  0  0  0  0  0  0  0  0  0
   72.8997   50.8024   55.1592 C   0  0  0  0  0  0  0  0  0  0  0  0
   73.4586   52.3666   55.3165 S   0  0  0  0  0  0  0  0  0  0  0  0
   73.1495   49.9589   56.2418 N   0  0  0  0  0  0  0  0  0  0  0  0
   72.4083   49.8913   57.4800 C   0  0  0  0  0  0  0  0  0  0  0  0
   71.1500   49.1619   57.3717 C   0  0  0  0  0  0  0  0  0  0  0  0
   69.8692   49.8102   57.3979 C   0  0  0  0  0  0  0  0  0  0  0  0
   69.7865   51.1815   57.2947 C   0  0  0  0  0  0  0  0  0  0  0  0
   68.5375   51.8248   57.2830 C   0  0  0  0  0  0  0  0  0  0  0  0
   67.3759   51.1232   57.3727 C   0  0  0  0  0  0  0  0  0  0  0  0
   67.4496   49.7450   57.4778 C   0  0  0  0  0  0  0  0  0  0  0  0
   68.6763   49.1139   57.4896 C   0  0  0  0  0  0  0  0  0  0  0  0
  2  3  1  0
  3  4  2  0
  3  5  1  0
  4  1  1  0
  1 13  1  0
 13 14  2  0
 13 15  1  0
 15 16  1  0
 16 17  1  0
 17 18  1  0
 18 19  2  0
 18 23  1  0
 19 20  1  0
 20 21  2  0
 21 22  1  0
 22 23  2  0
  5  6  2  0
  5 11  1  0
  6  7  1  0
  7  8  2  0
  8  9  1  0
  8 10  1  0
 10 11  2  0
 11 12  1  0
M  END
>  <minimizedAffinity>  (599) 
-8.53667

$$$$
data/reference_output_2/data/smiles/170036.pdb
     RDKit          3D

 24 26  0  0  0  0  0  0  0  0999 V2000
   69.6654   44.3244   57.1230 C   0  0  0  0  0  0  0  0  0  0  0  0
   70.4389   45.5306   57.8856 S   0  0  0  0  0  0  0  0  0  0  0  0
   69.5600   42.0733   58.1877 C   0  0  0  0  0  0  0  0  0  0  0  0
   68.5868   42.5244   58.8700 O   0  0  0  0  0  0  0  0  0  0  0  0
   70.1328   42.9924   57.2776 N   0  0  0  0  0  0  0  0  0  0  0  0
   71.3588   36.6536   58.9851 C   0  0  0  0  0  0  0  0  0  0  0  0
   70.9102   38.0558   58.7780 C   0  0  0  0  0  0  0  0  0  0  0  0
   69.5576   38.3430   58.7775 C   0  0  0  0  0  0  0  0  0  0  0  0
   69.1177   39.6579   58.5852 C   0  0  0  0  0  0  0  0  0  0  0  0
   69.9893   40.7027   58.3913 C   0  0  0  0  0  0  0  0  0  0  0  0
   71.3320   40.3964   58.3951 C   0  0  0  0  0  0  0  0  0  0  0  0
   71.7884   39.0964   58.5847 C   0  0  0  0  0  0  0  0  0  0  0  0
   68.5369   44.5479   56.3034 N   0  0  0  0  0  0  0  0  0  0  0  0
   68.1171   45.7940   55.8277 N   0  0  0  0  0  0  0  0  0  0  0  0
   68.2140   46.0854   54.4430 C   0  0  0  0  0  0  0  0  0  0  0  0
   67.6528   45.2382   53.5386 N   0  0  0  0  0  0  0  0  0  0  0  0
   67.7088   45.4597   52.2291 C   0  0  0  0  0  0  0  0  0  0  0  0
   68.3314   46.5478   51.7323 N   0  0  0  0  0  0  0  0  0  0  0  0
   68.9238   47.4553   52.5610 C   0  0  0  0  0  0  0  0  0  0  0  0
   69.5520   48.5635   52.0522 C   0  0  0  0  0  0  0  0  0  0  0  0
   70.1390   49.4728   52.8954 C   0  0  0  0  0  0  0  0  0  0  0  0
   70.0661   49.2183   54.2466 C   0  0  0  0  0  0  0  0  0  0  0  0
   69.4317   48.0992   54.7614 C   0  0  0  0  0  0  0  0  0  0  0  0
   68.8445   47.1895   53.9137 C   0  0  0  0  0  0  0  0  0  0  0  0
  6  7  1  0
  7  8  2  0
  7 12  1  0
  8  9  1  0
  9 10  2  0
 10  3  1  0
 10 11  1  0
  3  4  2  0
  3  5  1  0
  5  1  1  0
  1  2  2  0
  1 13  1  0
 13 14  1  0
 14 15  1  0
 15 16  2  0
 15 24  1  0
 16 17  1  0
 17 18  2  0
 18 19  1  0
 19 20  1  0
 19 24  2  0
 20 21  2  0
 21 22  1  0
 22 23  2  0
 23 24  1  0
 11 12  2  0
M  END
>  <minimizedAffinity>  (600) 
-8.53628

$$$$
data/reference_output_2/data/smiles/173495.pdb
     RDKit          3D

 25 27  0  0  0  0  0  0  0  0999 V2000
   69.7943   46.1220   57.2887 N   0  0  0  0  0  0  0  0  0  0  0  0
   69.4524   47.4842   57.2742 C   0  0  0  0  0  0  0  0  0  0  0  0
   70.0568   48.2705   58.0507 O   0  0  0  0  0  0  0  0  0  0  0  0
   70.8292   45.7049   58.2127 C   0  0  0  0  0  0  0  0  0  0  0  0
   71.1911   43.2218   57.8360 N   0  0  0  0  0  0  0  0  0  0  0  0
   70.5626   44.2771   58.5674 C   0  0  0  0  0  0  0  0  0  0  0  0
   69.7980   44.0000   59.4918 O   0  0  0  0  0  0  0  0  0  0  0  0
   70.6956   37.6499   58.9402 C   0  0  0  0  0  0  0  0  0  0  0  0
   70.7629   39.1038   58.6313 C   0  0  0  0  0  0  0  0  0  0  0  0
   72.0054   39.7233   58.6949 C   0  0  0  0  0  0  0  0  0  0  0  0
   72.0938   41.0713   58.4257 C   0  0  0  0  0  0  0  0  0  0  0  0
   70.9694   41.8499   58.0876 C   0  0  0  0  0  0  0  0  0  0  0  0
   69.8008   41.2072   58.0390 N   0  0  0  0  0  0  0  0  0  0  0  0
   69.6848   39.8793   58.2995 C   0  0  0  0  0  0  0  0  0  0  0  0
   68.4259   48.1243   56.4097 C   0  0  0  0  0  0  0  0  0  0  0  0
   69.0292   48.3702   55.0900 C   0  0  0  0  0  0  0  0  0  0  0  0
   69.9373   49.3776   54.8682 C   0  0  0  0  0  0  0  0  0  0  0  0
   70.5489   49.5888   53.6225 C   0  0  0  0  0  0  0  0  0  0  0  0
   70.2331   48.7481   52.5494 C   0  0  0  0  0  0  0  0  0  0  0  0
   69.3220   47.7281   52.7514 C   0  0  0  0  0  0  0  0  0  0  0  0
   69.0168   46.9209   51.6733 C   0  0  0  0  0  0  0  0  0  0  0  0
   68.1035   45.9247   51.8788 C   0  0  0  0  0  0  0  0  0  0  0  0
   67.4918   45.7003   53.0913 C   0  0  0  0  0  0  0  0  0  0  0  0
   67.8363   46.5419   54.1385 C   0  0  0  0  0  0  0  0  0  0  0  0
   68.7475   47.5580   53.9874 C   0  0  0  0  0  0  0  0  0  0  0  0
  8  9  1  0
  9 10  2  0
  9 14  1  0
 10 11  1  0
 11 12  2  0
 12  5  1  0
 12 13  1  0
  5  6  1  0
  6  7  2  0
  6  4  1  0
  4  1  1  0
  1  2  1  0
  2  3  2  0
  2 15  1  0
 15 16  1  0
 16 17  2  0
 16 25  1  0
 17 18  1  0
 18 19  2  0
 19 20  1  0
 20 21  1  0
 20 25  2  0
 21 22  2  0
 22 23  1  0
 23 24  2  0
 24 25  1  0
 13 14  2  0
M  END
>  <minimizedAffinity>  (601) 
-8.53610

$$$$
data/200k_reference_output/data/smiles/77664.pdb
     RDKit          3D

 23 25  0  0  0  0  0  0  0  0999 V2000
   68.9491   46.2479   56.4506 C   0  0  0  0  0  0  0  0  0  0  0  0
   69.6722   46.3231   57.4927 O   0  0  0  0  0  0  0  0  0  0  0  0
   68.6190   44.9407   56.0153 N   0  0  0  0  0  0  0  0  0  0  0  0
   69.0483   43.7548   56.6758 C   0  0  0  0  0  0  0  0  0  0  0  0
   70.2561   43.6953   57.3584 C   0  0  0  0  0  0  0  0  0  0  0  0
   70.6759   42.5458   58.0012 C   0  0  0  0  0  0  0  0  0  0  0  0
   69.8889   41.4167   57.9761 C   0  0  0  0  0  0  0  0  0  0  0  0
   70.2462   40.2392   58.5948 C   0  0  0  0  0  0  0  0  0  0  0  0
   69.4556   39.1384   58.5574 N   0  0  0  0  0  0  0  0  0  0  0  0
   68.2808   39.1284   57.9183 C   0  0  0  0  0  0  0  0  0  0  0  0
   67.8893   40.2865   57.2871 C   0  0  0  0  0  0  0  0  0  0  0  0
   68.6797   41.4380   57.3063 C   0  0  0  0  0  0  0  0  0  0  0  0
   68.2936   42.5965   56.6787 C   0  0  0  0  0  0  0  0  0  0  0  0
   68.4768   47.4731   55.7270 C   0  0  2  0  0  0  0  0  0  0  0  0
   68.6381   47.3225   54.2629 C   0  0  0  0  0  0  0  0  0  0  0  0
   67.9054   46.3415   53.6430 C   0  0  0  0  0  0  0  0  0  0  0  0
   67.9977   46.1365   52.2836 C   0  0  0  0  0  0  0  0  0  0  0  0
   68.8382   46.9248   51.5214 C   0  0  0  0  0  0  0  0  0  0  0  0
   69.5871   47.9191   52.1190 C   0  0  0  0  0  0  0  0  0  0  0  0
   70.4262   48.7063   51.3605 O   0  0  0  0  0  0  0  0  0  0  0  0
   69.4704   48.1022   53.5010 C   0  0  0  0  0  0  0  0  0  0  0  0
   68.6604   49.7137   56.7077 N   0  0  0  0  0  0  0  0  0  0  0  0
   69.4132   48.6156   56.1418 C   0  0  0  0  0  0  0  0  0  0  0  0
 22 23  1  0
 14 23  1  1
 14  1  1  0
 14 15  1  0
  1  2  2  0
  1  3  1  0
  3  4  1  0
  4  5  2  0
  4 13  1  0
  5  6  1  0
  6  7  2  0
  7  8  1  0
  7 12  1  0
  8  9  2  0
  9 10  1  0
 10 11  2  0
 11 12  1  0
 12 13  2  0
 15 16  2  0
 15 21  1  0
 16 17  1  0
 17 18  2  0
 18 19  1  0
 19 20  1  0
 19 21  2  0
M  CHG  1  22   1
M  END
>  <minimizedAffinity>  (602) 
-8.53574

$$$$
data/200k_reference_output/data/smiles/52797.pdb
     RDKit          3D

 23 25  0  0  0  0  0  0  0  0999 V2000
   69.9100   50.7286   53.9245 O   0  0  0  0  0  0  0  0  0  0  0  0
   70.6321   49.6849   53.3824 C   0  0  0  0  0  0  0  0  0  0  0  0
   71.8786   49.7273   53.5218 O   0  0  0  0  0  0  0  0  0  0  0  0
   70.0369   48.5617   52.6737 C   0  0  0  0  0  0  0  0  0  0  0  0
   70.1656   48.2574   51.3655 N   0  0  0  0  0  0  0  0  0  0  0  0
   69.4814   47.1645   51.0809 N   0  0  0  0  0  0  0  0  0  0  0  0
   68.8632   46.6862   52.1856 C   0  0  0  0  0  0  0  0  0  0  0  0
   68.0416   45.5910   52.4216 C   0  0  0  0  0  0  0  0  0  0  0  0
   67.5861   45.4168   53.7114 C   0  0  0  0  0  0  0  0  0  0  0  0
   67.9323   46.2877   54.7061 C   0  0  0  0  0  0  0  0  0  0  0  0
   68.7405   47.3672   54.4743 C   0  0  0  0  0  0  0  0  0  0  0  0
   69.2213   47.5779   53.1881 C   0  0  0  0  0  0  0  0  0  0  0  0
   70.3601   51.8883   54.4913 C   0  0  0  0  0  0  0  0  0  0  0  0
   71.3515   51.6351   58.2561 C   0  0  0  0  0  0  0  0  0  0  0  0
   70.4878   51.4671   57.0550 N   0  0  0  0  0  0  0  0  0  0  0  0
   70.9552   51.8970   55.8163 C   0  0  0  0  0  0  0  0  0  0  0  0
   72.1570   52.4131   55.8552 O   0  0  0  0  0  0  0  0  0  0  0  0
   69.2362   50.8684   57.3004 C   0  0  0  0  0  0  0  0  0  0  0  0
   69.2359   49.4752   57.4266 C   0  0  0  0  0  0  0  0  0  0  0  0
   68.0337   48.8252   57.6144 C   0  0  0  0  0  0  0  0  0  0  0  0
   66.8339   49.5120   57.6819 C   0  0  0  0  0  0  0  0  0  0  0  0
   66.8587   50.9005   57.5543 C   0  0  0  0  0  0  0  0  0  0  0  0
   68.0493   51.5620   57.3658 C   0  0  0  0  0  0  0  0  0  0  0  0
 14 15  1  0
 15 16  1  0
 15 18  1  0
 16 17  2  0
 16 13  1  0
 13  1  1  0
  1  2  1  0
  2  3  2  0
  2  4  1  0
  4  5  1  0
  4 12  2  0
  5  6  1  0
  6  7  2  0
  7  8  1  0
  7 12  1  0
  8  9  2  0
  9 10  1  0
 10 11  2  0
 11 12  1  0
 18 19  2  0
 18 23  1  0
 19 20  1  0
 20 21  2  0
 21 22  1  0
 22 23  2  0
M  END
>  <minimizedAffinity>  (603) 
-8.53551

$$$$
data/200k_reference_output/data/smiles/840.pdb
     RDKit          3D

 25 28  0  0  0  0  0  0  0  0999 V2000
   68.2912   39.3362   57.3093 O   0  0  0  0  0  0  0  0  0  0  0  0
   69.1244   40.1464   57.7383 C   0  0  0  0  0  0  0  0  0  0  0  0
   69.0609   41.5440   57.3347 C   0  0  0  0  0  0  0  0  0  0  0  0
   68.1780   42.2706   56.5306 C   0  0  0  0  0  0  0  0  0  0  0  0
   68.5515   43.5995   56.5038 C   0  0  0  0  0  0  0  0  0  0  0  0
   69.6386   43.6521   57.2809 N   0  0  0  0  0  0  0  0  0  0  0  0
   69.9493   42.4398   57.7771 N   0  0  0  0  0  0  0  0  0  0  0  0
   71.0359   42.0004   58.6181 C   0  0  0  0  0  0  0  0  0  0  0  0
   70.6116   40.8518   59.4866 C   0  0  0  0  0  0  0  0  0  0  0  0
   70.1821   39.7554   58.6445 N   0  0  0  0  0  0  0  0  0  0  0  0
   70.6863   38.4424   58.6565 C   0  0  0  0  0  0  0  0  0  0  0  0
   70.3008   37.4452   59.5127 C   0  0  0  0  0  0  0  0  0  0  0  0
   70.8135   36.1629   59.5009 C   0  0  0  0  0  0  0  0  0  0  0  0
   70.3903   35.2210   60.3746 F   0  0  0  0  0  0  0  0  0  0  0  0
   71.7786   35.8714   58.5625 C   0  0  0  0  0  0  0  0  0  0  0  0
   72.1624   36.8733   57.7065 C   0  0  0  0  0  0  0  0  0  0  0  0
   71.6417   38.1106   57.7460 N   0  0  0  0  0  0  0  0  0  0  0  0
   67.9440   44.6466   55.8286 O   0  0  0  0  0  0  0  0  0  0  0  0
   68.5223   45.8545   55.4610 C   0  0  0  0  0  0  0  0  0  0  0  0
   68.4475   46.1891   54.0241 C   0  0  0  0  0  0  0  0  0  0  0  0
   67.6962   45.4442   53.1513 C   0  0  0  0  0  0  0  0  0  0  0  0
   67.6134   45.7553   51.7992 C   0  0  0  0  0  0  0  0  0  0  0  0
   68.3029   46.8472   51.3007 C   0  0  0  0  0  0  0  0  0  0  0  0
   69.0553   47.5996   52.1539 C   0  0  0  0  0  0  0  0  0  0  0  0
   69.1322   47.2807   53.5027 C   0  0  0  0  0  0  0  0  0  0  0  0
  1  2  2  0
  2  3  1  0
  2 10  1  0
  3  4  2  0
  3  7  1  0
  4  5  1  0
  5 18  1  0
  5  6  2  0
 18 19  1  0
 19 20  1  0
 20 21  2  0
 20 25  1  0
 21 22  1  0
 22 23  2  0
 23 24  1  0
 24 25  2  0
  6  7  1  0
  7  8  1  0
  8  9  1  0
  9 10  1  0
 10 11  1  0
 11 12  2  0
 11 17  1  0
 12 13  1  0
 13 14  1  0
 13 15  2  0
 15 16  1  0
 16 17  2  0
M  END
>  <minimizedAffinity>  (604) 
-8.53518

$$$$
data/reference_output_2/data/smiles/94919.pdb
     RDKit          3D

 22 24  0  0  0  0  0  0  0  0999 V2000
   69.3823   47.8324   53.0441 C   0  0  0  0  0  0  0  0  0  0  0  0
   68.7365   46.8480   52.3166 C   0  0  0  0  0  0  0  0  0  0  0  0
   68.8881   46.7949   50.9632 F   0  0  0  0  0  0  0  0  0  0  0  0
   67.9369   45.9076   52.9075 C   0  0  0  0  0  0  0  0  0  0  0  0
   67.7864   45.9660   54.2885 C   0  0  0  0  0  0  0  0  0  0  0  0
   68.3898   46.9095   55.0874 C   0  0  0  0  0  0  0  0  0  0  0  0
   69.1967   47.8400   54.3950 C   0  0  0  0  0  0  0  0  0  0  0  0
   69.8094   48.7814   55.1273 F   0  0  0  0  0  0  0  0  0  0  0  0
   69.7265   49.5268   51.2230 N   0  0  0  0  0  0  0  0  0  0  0  0
   70.2202   48.8011   52.3412 C   0  0  0  0  0  0  0  0  0  0  0  0
   71.3931   49.0108   52.7078 O   0  0  0  0  0  0  0  0  0  0  0  0
   68.2591   46.9840   56.4291 O   0  0  0  0  0  0  0  0  0  0  0  0
   69.1990   47.0893   57.4116 C   0  0  0  0  0  0  0  0  0  0  0  0
   70.0628   45.9006   57.6135 C   0  0  0  0  0  0  0  0  0  0  0  0
   71.3323   45.7391   57.9516 N   0  0  0  0  0  0  0  0  0  0  0  0
   71.6745   44.4472   58.0041 C   0  0  0  0  0  0  0  0  0  0  0  0
   72.8290   43.7629   58.2954 C   0  0  0  0  0  0  0  0  0  0  0  0
   72.8488   42.3968   58.2587 C   0  0  0  0  0  0  0  0  0  0  0  0
   71.7142   41.6566   57.9296 C   0  0  0  0  0  0  0  0  0  0  0  0
   70.5677   42.3592   57.6408 C   0  0  0  0  0  0  0  0  0  0  0  0
   70.5431   43.7386   57.6769 C   0  0  0  0  0  0  0  0  0  0  0  0
   69.5902   44.6393   57.4469 N   0  0  0  0  0  0  0  0  0  0  0  0
  9 10  1  0
 10 11  2  0
 10  1  1  0
  1  2  2  0
  1  7  1  0
  2  3  1  0
  2  4  1  0
  4  5  2  0
  5  6  1  0
  6 12  1  0
  6  7  2  0
 12 13  1  0
 13 14  1  0
 14 15  2  0
 14 22  1  0
 15 16  1  0
 16 17  2  0
 16 21  1  0
 17 18  1  0
 18 19  2  0
 19 20  1  0
 20 21  2  0
 21 22  1  0
  7  8  1  0
M  CHG  1  15   1
M  END
>  <minimizedAffinity>  (605) 
-8.53444

$$$$
data/200k_reference_output/data/smiles/26481.pdb
     RDKit          3D

 22 23  0  0  0  0  0  0  0  0999 V2000
   68.9313   46.8161   56.6723 C   0  0  0  0  0  0  0  0  0  0  0  0
   69.6981   45.8494   57.2628 C   0  0  0  0  0  0  0  0  0  0  0  0
   70.6603   46.1884   58.1831 C   0  0  0  0  0  0  0  0  0  0  0  0
   70.8911   47.5360   58.5486 C   0  0  0  0  0  0  0  0  0  0  0  0
   70.1356   48.5083   57.9665 C   0  0  0  0  0  0  0  0  0  0  0  0
   69.1609   48.1065   57.0303 C   0  0  0  0  0  0  0  0  0  0  0  0
   71.8886   47.7622   59.5798 C   0  0  0  0  0  0  0  0  0  0  0  0
   71.7123   47.2770   60.7589 O   0  0  0  0  0  0  0  0  0  0  0  0
   73.0345   48.4813   59.3737 O   0  0  0  0  0  0  0  0  0  0  0  0
   70.2827   49.8802   58.2521 N   0  0  0  0  0  0  0  0  0  0  0  0
   69.6576   50.4872   59.0875 O   0  0  0  0  0  0  0  0  0  0  0  0
   71.2653   50.5854   57.5650 O   0  0  0  0  0  0  0  0  0  0  0  0
   67.9736   46.4783   55.7581 O   0  0  0  0  0  0  0  0  0  0  0  0
   69.3436   47.7351   52.5449 C   0  0  0  0  0  0  0  0  0  0  0  0
   68.6950   46.8806   51.6788 C   0  0  0  0  0  0  0  0  0  0  0  0
   67.8261   45.9132   52.1627 C   0  0  0  0  0  0  0  0  0  0  0  0
   67.5981   45.7924   53.5016 C   0  0  0  0  0  0  0  0  0  0  0  0
   68.2281   46.6278   54.3972 C   0  0  0  0  0  0  0  0  0  0  0  0
   69.0898   47.5848   53.8910 C   0  0  0  0  0  0  0  0  0  0  0  0
   70.0544   49.3406   50.9662 O   0  0  0  0  0  0  0  0  0  0  0  0
   70.2599   48.7552   52.0525 C   0  0  0  0  0  0  0  0  0  0  0  0
   71.3877   49.1063   52.7748 O   0  0  0  0  0  0  0  0  0  0  0  0
 20 21  2  0
 21 22  1  0
 21 14  1  0
 14 15  2  0
 14 19  1  0
 15 16  1  0
 16 17  2  0
 17 18  1  0
 18 13  1  0
 18 19  2  0
 13  1  1  0
  1  2  2  0
  1  6  1  0
  2  3  1  0
  3  4  2  0
  4  7  1  0
  4  5  1  0
  7  8  2  0
  7  9  1  0
  5 10  1  0
  5  6  2  0
 10 11  2  0
 10 12  1  0
M  CHG  2  10   1  12  -1
M  END
>  <minimizedAffinity>  (606) 
-8.53383

$$$$
data/200k_reference_output/data/smiles/48420.pdb
     RDKit          3D

 24 26  0  0  0  0  0  0  0  0999 V2000
   68.9824   47.9230   56.7607 C   0  0  0  0  0  0  0  0  0  0  0  0
   68.0603   48.5199   57.3492 O   0  0  0  0  0  0  0  0  0  0  0  0
   69.4793   48.3907   55.4546 C   0  0  0  0  0  0  0  0  0  0  0  0
   70.3425   49.4148   55.1481 C   0  0  0  0  0  0  0  0  0  0  0  0
   70.5201   49.4657   53.8150 N   0  0  0  0  0  0  0  0  0  0  0  0
   69.8004   48.5035   53.1978 C   0  0  0  0  0  0  0  0  0  0  0  0
   69.6377   48.1495   51.8804 C   0  0  0  0  0  0  0  0  0  0  0  0
   68.8146   47.1070   51.5173 C   0  0  0  0  0  0  0  0  0  0  0  0
   68.1475   46.4162   52.5263 C   0  0  0  0  0  0  0  0  0  0  0  0
   68.3285   46.7897   53.8332 C   0  0  0  0  0  0  0  0  0  0  0  0
   69.1449   47.8279   54.2376 C   0  0  0  0  0  0  0  0  0  0  0  0
   67.2995   45.3504   52.1473 N   0  0  0  0  0  0  0  0  0  0  0  0
   67.1422   44.4190   52.9726 O   0  0  0  0  0  0  0  0  0  0  0  0
   66.6812   45.3468   50.9267 O   0  0  0  0  0  0  0  0  0  0  0  0
   70.3245   46.8374   58.4022 O   0  0  0  0  0  0  0  0  0  0  0  0
   69.5593   46.7436   57.4004 C   0  0  0  0  0  0  0  0  0  0  0  0
   69.2591   45.4519   56.8992 N   0  0  0  0  0  0  0  0  0  0  0  0
   69.7236   44.2566   57.4356 N   0  0  0  0  0  0  0  0  0  0  0  0
   69.0874   43.0138   57.1821 C   0  0  0  0  0  0  0  0  0  0  0  0
   69.4639   41.8733   57.8986 C   0  0  0  0  0  0  0  0  0  0  0  0
   68.8388   40.6710   57.6908 C   0  0  0  0  0  0  0  0  0  0  0  0
   67.8218   40.5451   56.7716 C   0  0  0  0  0  0  0  0  0  0  0  0
   67.4625   41.6673   56.0766 C   0  0  0  0  0  0  0  0  0  0  0  0
   68.0716   42.8798   56.2666 C   0  0  0  0  0  0  0  0  0  0  0  0
 15 16  2  0
 16 17  1  0
 16  1  1  0
 17 18  1  0
 18 19  1  0
 19 20  2  0
 19 24  1  0
 20 21  1  0
 21 22  2  0
 22 23  1  0
 23 24  2  0
  1  2  2  0
  1  3  1  0
  3  4  2  0
  3 11  1  0
  4  5  1  0
  5  6  1  0
  6  7  1  0
  6 11  2  0
  7  8  2  0
  8  9  1  0
  9 12  1  0
  9 10  2  0
 12 13  2  0
 12 14  1  0
 10 11  1  0
M  CHG  2  12   1  14  -1
M  END
>  <minimizedAffinity>  (607) 
-8.53381

$$$$
data/reference_output_2/data/smiles/98253.pdb
     RDKit          3D

 26 29  0  0  0  0  0  0  0  0999 V2000
   70.4019   49.3363   56.2352 C   0  0  0  0  0  0  0  0  0  0  0  0
   66.7047   45.0951   50.7742 N   0  0  0  0  0  0  0  0  0  0  0  0
   67.4522   45.9318   51.6452 C   0  0  0  0  0  0  0  0  0  0  0  0
   68.3327   46.7970   51.1065 N   0  0  0  0  0  0  0  0  0  0  0  0
   69.0798   47.6228   51.8461 C   0  0  0  0  0  0  0  0  0  0  0  0
   70.0131   48.5405   51.3022 N   0  0  0  0  0  0  0  0  0  0  0  0
   68.9538   47.6000   53.2329 C   0  0  0  0  0  0  0  0  0  0  0  0
   69.6916   48.4215   54.0485 C   0  0  0  0  0  0  0  0  0  0  0  0
   69.5726   48.4055   55.4372 C   0  0  0  0  0  0  0  0  0  0  0  0
   68.6710   47.5201   55.9728 C   0  0  0  0  0  0  0  0  0  0  0  0
   67.9119   46.6762   55.1569 C   0  0  0  0  0  0  0  0  0  0  0  0
   68.0578   46.7202   53.7881 C   0  0  0  0  0  0  0  0  0  0  0  0
   67.3196   45.8979   52.9885 N   0  0  0  0  0  0  0  0  0  0  0  0
   71.0915   48.6519   57.2836 N   0  0  0  0  0  0  0  0  0  0  0  0
   71.5056   49.1961   58.5098 C   0  0  0  0  0  0  0  0  0  0  0  0
   71.2256   50.4354   58.6804 O   0  0  0  0  0  0  0  0  0  0  0  0
   72.2027   48.4546   59.5470 C   0  0  0  0  0  0  0  0  0  0  0  0
   71.7921   47.1911   59.9471 C   0  0  0  0  0  0  0  0  0  0  0  0
   72.4565   46.4900   60.9292 C   0  0  0  0  0  0  0  0  0  0  0  0
   73.5611   47.0400   61.5454 C   0  0  0  0  0  0  0  0  0  0  0  0
   74.2550   46.3660   62.5364 C   0  0  0  0  0  0  0  0  0  0  0  0
   75.3577   46.8845   63.1691 C   0  0  0  0  0  0  0  0  0  0  0  0
   75.7800   48.1458   62.7795 C   0  0  0  0  0  0  0  0  0  0  0  0
   75.0939   48.8190   61.7963 C   0  0  0  0  0  0  0  0  0  0  0  0
   73.9825   48.2827   61.1672 C   0  0  0  0  0  0  0  0  0  0  0  0
   73.3003   48.9907   60.1655 C   0  0  0  0  0  0  0  0  0  0  0  0
  2  3  1  0
  3  4  2  0
  3 13  1  0
  4  5  1  0
  5  6  1  0
  5  7  2  0
  7  8  1  0
  7 12  1  0
  8  9  2  0
  9  1  1  0
  9 10  1  0
  1 14  1  0
 14 15  1  0
 15 16  2  0
 15 17  1  0
 17 18  2  0
 17 26  1  0
 18 19  1  0
 19 20  2  0
 20 21  1  0
 20 25  1  0
 21 22  2  0
 22 23  1  0
 23 24  2  0
 24 25  1  0
 25 26  2  0
 10 11  2  0
 11 12  1  0
 12 13  2  0
M  END
>  <minimizedAffinity>  (608) 
-8.53348

$$$$
data/200k_reference_output/data/smiles/51949.pdb
     RDKit          3D

 26 29  0  0  0  0  0  0  0  0999 V2000
   71.0462   46.8116   58.6982 C   0  0  0  0  0  0  0  0  0  0  0  0
   70.6866   48.0343   58.1657 C   0  0  0  0  0  0  0  0  0  0  0  0
   69.8503   48.1392   57.0566 C   0  0  0  0  0  0  0  0  0  0  0  0
   69.3427   47.0271   56.4362 C   0  0  0  0  0  0  0  0  0  0  0  0
   69.7048   45.7877   56.9736 C   0  0  0  0  0  0  0  0  0  0  0  0
   70.5337   45.6933   58.0731 C   0  0  0  0  0  0  0  0  0  0  0  0
   74.6323   45.8631   63.4680 C   0  0  0  0  0  0  0  0  0  0  0  0
   74.5141   47.2540   63.5631 C   0  0  0  0  0  0  0  0  0  0  0  0
   73.7645   47.9633   62.6555 C   0  0  0  0  0  0  0  0  0  0  0  0
   73.0977   47.3524   61.6158 C   0  0  0  0  0  0  0  0  0  0  0  0
   72.3124   47.7734   60.6114 N   0  0  0  0  0  0  0  0  0  0  0  0
   71.9153   46.7090   59.8675 C   0  0  0  0  0  0  0  0  0  0  0  0
   72.4751   45.6426   60.4425 N   0  0  0  0  0  0  0  0  0  0  0  0
   73.2163   45.9736   61.5243 C   0  0  0  0  0  0  0  0  0  0  0  0
   73.9671   45.2512   62.4321 C   0  0  0  0  0  0  0  0  0  0  0  0
   76.1778   45.8384   65.3961 N   0  0  0  0  0  0  0  0  0  0  0  0
   75.4245   45.1382   64.4411 C   0  0  0  0  0  0  0  0  0  0  0  0
   75.4326   43.8936   64.4238 O   0  0  0  0  0  0  0  0  0  0  0  0
   68.4488   47.0974   55.2880 C   0  0  0  0  0  0  0  0  0  0  0  0
   67.1764   46.9674   55.4714 O   0  0  0  0  0  0  0  0  0  0  0  0
   68.8872   47.3052   53.9397 C   0  0  0  0  0  0  0  0  0  0  0  0
   69.7485   48.3164   53.5753 C   0  0  0  0  0  0  0  0  0  0  0  0
   70.1276   48.4206   52.2403 C   0  0  0  0  0  0  0  0  0  0  0  0
   69.6843   47.5726   51.2979 N   0  0  0  0  0  0  0  0  0  0  0  0
   68.8337   46.5732   51.6493 C   0  0  0  0  0  0  0  0  0  0  0  0
   68.4259   46.4224   52.9523 C   0  0  0  0  0  0  0  0  0  0  0  0
 16 17  1  0
 17 18  2  0
 17  7  1  0
  7  8  2  0
  7 15  1  0
  8  9  1  0
  9 10  2  0
 10 11  1  0
 10 14  1  0
 11 12  1  0
 12  1  1  0
 12 13  2  0
  1  2  2  0
  1  6  1  0
  2  3  1  0
  3  4  2  0
  4 19  1  0
  4  5  1  0
 19 20  2  0
 19 21  1  0
 21 22  2  0
 21 26  1  0
 22 23  1  0
 23 24  2  0
 24 25  1  0
 25 26  2  0
  5  6  2  0
 13 14  1  0
 14 15  2  0
M  CHG  1  13   1
M  END
>  <minimizedAffinity>  (609) 
-8.53297

$$$$
data/200k_reference_output/data/smiles/50155.pdb
     RDKit          3D

 23 25  0  0  0  0  0  0  0  0999 V2000
   70.0464   46.6297   58.2751 S   0  0  0  0  0  0  0  0  0  0  0  0
   69.4302   46.5624   56.6192 C   0  0  0  0  0  0  0  0  0  0  0  0
   69.6131   47.4852   55.6828 N   0  0  0  0  0  0  0  0  0  0  0  0
   69.1148   47.3779   54.4324 C   0  0  0  0  0  0  0  0  0  0  0  0
   68.3880   46.2524   54.1347 C   0  0  0  0  0  0  0  0  0  0  0  0
   68.1869   45.2900   55.0806 C   0  0  0  0  0  0  0  0  0  0  0  0
   67.5173   44.2702   54.7792 O   0  0  0  0  0  0  0  0  0  0  0  0
   68.7033   45.4582   56.2898 N   0  0  0  0  0  0  0  0  0  0  0  0
   67.8391   46.1277   52.7653 C   0  0  0  0  0  0  0  0  0  0  0  0
   68.8795   46.6576   51.8091 C   0  0  0  0  0  0  0  0  0  0  0  0
   69.2093   48.0982   52.0463 C   0  0  0  0  0  0  0  0  0  0  0  0
   69.3833   48.4708   53.4759 C   0  0  0  0  0  0  0  0  0  0  0  0
   71.2117   45.3307   58.6648 C   0  0  0  0  0  0  0  0  0  0  0  0
   71.5092   43.2299   57.6591 O   0  0  0  0  0  0  0  0  0  0  0  0
   70.7368   43.9903   58.2945 C   0  0  0  0  0  0  0  0  0  0  0  0
   69.4437   43.4963   58.6147 N   0  0  0  0  0  0  0  0  0  0  0  0
   69.0175   42.2002   58.2423 C   0  0  0  0  0  0  0  0  0  0  0  0
   69.1228   41.1523   59.1267 C   0  0  0  0  0  0  0  0  0  0  0  0
   68.7082   39.8643   58.7820 C   0  0  0  0  0  0  0  0  0  0  0  0
   68.1761   39.6387   57.5136 C   0  0  0  0  0  0  0  0  0  0  0  0
   68.0687   40.6745   56.6287 C   0  0  0  0  0  0  0  0  0  0  0  0
   67.5326   40.4158   55.3701 O   0  0  0  0  0  0  0  0  0  0  0  0
   68.4885   41.9432   56.9986 C   0  0  0  0  0  0  0  0  0  0  0  0
 14 15  2  0
 15 13  1  0
 15 16  1  0
 13  1  1  0
  1  2  1  0
  2  3  2  0
  2  8  1  0
  3  4  1  0
  4  5  2  0
  4 12  1  0
  5  6  1  0
  5  9  1  0
  6  7  2  0
  6  8  1  0
  9 10  1  0
 10 11  1  0
 11 12  1  0
 16 17  1  0
 17 18  2  0
 17 23  1  0
 18 19  1  0
 19 20  2  0
 20 21  1  0
 21 22  1  0
 21 23  2  0
M  END
>  <minimizedAffinity>  (610) 
-8.53181

$$$$
data/reference_output_2/data/smiles/184444.pdb
     RDKit          3D

 21 23  0  0  0  0  0  0  0  0999 V2000
   69.9967   46.0873   56.9488 O   0  0  0  0  0  0  0  0  0  0  0  0
   68.9799   46.0542   56.2251 C   0  0  0  0  0  0  0  0  0  0  0  0
   68.3303   44.8188   56.0026 N   0  0  0  0  0  0  0  0  0  0  0  0
   68.8352   43.5714   56.6123 C   0  0  0  0  0  0  0  0  0  0  0  0
   69.7141   43.0675   57.1264 N   0  0  0  0  0  0  0  0  0  0  0  0
   69.8692   41.8410   57.5922 C   0  0  0  0  0  0  0  0  0  0  0  0
   70.9885   41.2629   58.2257 C   0  0  0  0  0  0  0  0  0  0  0  0
   70.9007   39.9686   58.6168 C   0  0  0  0  0  0  0  0  0  0  0  0
   69.8072   39.1376   58.4575 C   0  0  0  0  0  0  0  0  0  0  0  0
   69.8115   37.8193   58.8936 O   0  0  0  0  0  0  0  0  0  0  0  0
   68.7004   39.6923   57.8368 C   0  0  0  0  0  0  0  0  0  0  0  0
   68.7626   41.0438   57.4167 C   0  0  0  0  0  0  0  0  0  0  0  0
   67.5964   42.0982   56.6076 S   0  0  0  0  0  0  0  0  0  0  0  0
   68.4762   47.2939   55.6178 C   0  0  0  0  0  0  0  0  0  0  0  0
   68.6165   47.2040   54.1439 C   0  0  0  0  0  0  0  0  0  0  0  0
   67.8734   46.2589   53.4436 C   0  0  0  0  0  0  0  0  0  0  0  0
   67.9634   46.1291   52.0740 C   0  0  0  0  0  0  0  0  0  0  0  0
   68.8252   46.9708   51.3716 C   0  0  0  0  0  0  0  0  0  0  0  0
   69.5851   47.9283   52.0372 C   0  0  0  0  0  0  0  0  0  0  0  0
   70.4290   48.7440   51.2982 O   0  0  0  0  0  0  0  0  0  0  0  0
   69.4550   48.0138   53.4090 C   0  0  0  0  0  0  0  0  0  0  0  0
  1  2  2  0
  2 14  1  0
  2  3  1  0
 14 15  1  0
 15 16  2  0
 15 21  1  0
 16 17  1  0
 17 18  2  0
 18 19  1  0
 19 20  1  0
 19 21  2  0
  3  4  1  0
  4  5  2  0
  4 13  1  0
  5  6  1  0
  6  7  2  0
  6 12  1  0
  7  8  1  0
  8  9  2  0
  9 10  1  0
  9 11  1  0
 11 12  2  0
 12 13  1  0
M  END
>  <minimizedAffinity>  (611) 
-8.53181

$$$$
data/reference_output_2/data/smiles/139289.pdb
     RDKit          3D

 23 25  0  0  0  0  0  0  0  0999 V2000
   69.7147   51.4300   54.6331 N   0  0  0  0  0  0  0  0  0  0  0  0
   70.8051   52.1682   55.0612 C   0  0  0  0  0  0  0  0  0  0  0  0
   71.9855   52.4648   54.6597 O   0  0  0  0  0  0  0  0  0  0  0  0
   70.1019   52.5681   56.2905 C   0  0  2  0  0  0  0  0  0  0  0  0
   70.8542   51.7906   57.6979 Cl  0  0  0  0  0  0  0  0  0  0  0  0
   68.9116   51.9347   55.7075 C   0  0  2  0  0  0  0  0  0  0  0  0
   68.1607   50.9505   56.5128 C   0  0  0  0  0  0  0  0  0  0  0  0
   67.0493   51.1937   57.2605 C   0  0  0  0  0  0  0  0  0  0  0  0
   66.4348   50.2043   58.0144 C   0  0  0  0  0  0  0  0  0  0  0  0
   66.9372   48.9241   58.0274 C   0  0  0  0  0  0  0  0  0  0  0  0
   68.0545   48.6603   57.2822 C   0  0  0  0  0  0  0  0  0  0  0  0
   68.5556   47.3564   57.3079 O   0  0  0  0  0  0  0  0  0  0  0  0
   68.6430   49.6443   56.5498 C   0  0  0  0  0  0  0  0  0  0  0  0
   71.4361   49.4630   53.5903 O   0  0  0  0  0  0  0  0  0  0  0  0
   70.3142   49.5835   53.0774 C   0  0  0  0  0  0  0  0  0  0  0  0
   69.4287   50.5709   53.5806 N   0  0  0  0  0  0  0  0  0  0  0  0
   69.9160   48.6800   51.9383 C   0  0  0  0  0  0  0  0  0  0  0  0
   69.0964   47.5430   52.4799 C   0  0  0  0  0  0  0  0  0  0  0  0
   68.3909   46.6981   51.6258 C   0  0  0  0  0  0  0  0  0  0  0  0
   67.6315   45.6573   52.1011 C   0  0  0  0  0  0  0  0  0  0  0  0
   67.5660   45.4422   53.4642 C   0  0  0  0  0  0  0  0  0  0  0  0
   68.2550   46.2642   54.3461 C   0  0  0  0  0  0  0  0  0  0  0  0
   69.0042   47.2936   53.8300 C   0  0  0  0  0  0  0  0  0  0  0  0
 14 15  2  0
 15 17  1  0
 15 16  1  0
 17 18  1  0
 18 19  2  0
 18 23  1  0
 19 20  1  0
 20 21  2  0
 21 22  1  0
 22 23  2  0
 16  1  1  0
  1  2  1  0
  1  6  1  0
  2  3  2  0
  2  4  1  0
  4  5  1  1
  4  6  1  0
  6  7  1  1
  7  8  2  0
  7 13  1  0
  8  9  1  0
  9 10  2  0
 10 11  1  0
 11 12  1  0
 11 13  2  0
M  END
>  <minimizedAffinity>  (612) 
-8.53157

$$$$
data/200k_reference_output/data/smiles/74784.pdb
     RDKit          3D

 25 28  0  0  0  0  0  0  0  0999 V2000
   72.9627   51.2185   54.7903 C   0  0  0  0  0  0  0  0  0  0  0  0
   71.8223   50.4983   55.0785 C   0  0  0  0  0  0  0  0  0  0  0  0
   70.7777   50.9599   54.3070 C   0  0  0  0  0  0  0  0  0  0  0  0
   71.3007   51.9495   53.5683 N   0  0  0  0  0  0  0  0  0  0  0  0
   72.5794   52.1148   53.8376 N   0  0  0  0  0  0  0  0  0  0  0  0
   75.0577   52.0354   55.4197 O   0  0  0  0  0  0  0  0  0  0  0  0
   74.2886   51.0600   55.3743 C   0  0  0  0  0  0  0  0  0  0  0  0
   74.6884   49.7957   55.8849 N   0  0  0  0  0  0  0  0  0  0  0  0
   75.9825   49.5566   56.4770 C   0  0  0  0  0  0  0  0  0  0  0  0
   77.1244   50.1190   55.6632 C   0  0  2  0  0  0  0  0  0  0  0  0
   78.1166   49.0864   55.2582 C   0  0  0  0  0  0  0  0  0  0  0  0
   79.5475   49.4118   55.5978 C   0  0  0  0  0  0  0  0  0  0  0  0
   79.7007   49.9451   57.0014 C   0  0  0  0  0  0  0  0  0  0  0  0
   78.4905   50.7450   57.4339 C   0  0  0  0  0  0  0  0  0  0  0  0
   77.7083   51.1352   56.3710 O   0  0  0  0  0  0  0  0  0  0  0  0
   69.3566   50.4610   54.2979 C   0  0  0  0  0  0  0  0  0  0  0  0
   69.3162   49.3817   53.3088 N   0  0  0  0  0  0  0  0  0  0  0  0
   69.7229   49.4273   52.0354 C   0  0  0  0  0  0  0  0  0  0  0  0
   69.5365   48.2512   51.4208 N   0  0  0  0  0  0  0  0  0  0  0  0
   68.9899   47.3988   52.3101 C   0  0  0  0  0  0  0  0  0  0  0  0
   68.6014   46.0790   52.2018 C   0  0  0  0  0  0  0  0  0  0  0  0
   68.0592   45.4394   53.3004 C   0  0  0  0  0  0  0  0  0  0  0  0
   67.9208   46.1440   54.4789 C   0  0  0  0  0  0  0  0  0  0  0  0
   68.3204   47.4792   54.5690 C   0  0  0  0  0  0  0  0  0  0  0  0
   68.8568   48.1149   53.4860 C   0  0  0  0  0  0  0  0  0  0  0  0
  6  7  2  0
  7  8  1  0
  7  1  1  0
  8  9  1  0
 10  9  1  1
 10 11  1  0
 10 15  1  0
 11 12  1  0
 12 13  1  0
 13 14  1  0
 14 15  1  0
  1  2  1  0
  1  5  2  0
  2  3  2  0
  3 16  1  0
  3  4  1  0
 16 17  1  0
 17 18  1  0
 17 25  1  0
 18 19  2  0
 19 20  1  0
 20 21  1  0
 20 25  2  0
 21 22  2  0
 22 23  1  0
 23 24  2  0
 24 25  1  0
  4  5  1  0
M  END
>  <minimizedAffinity>  (613) 
-8.53078

$$$$
data/reference_output_2/data/smiles/187601.pdb
     RDKit          3D

 23 24  0  0  0  0  0  0  0  0999 V2000
   68.5860   42.4172   56.9953 C   0  0  0  0  0  0  0  0  0  0  0  0
   67.4557   42.2754   56.4479 O   0  0  0  0  0  0  0  0  0  0  0  0
   69.1519   43.6994   56.9203 N   0  0  0  0  0  0  0  0  0  0  0  0
   70.3068   38.9501   58.8606 C   0  0  0  0  0  0  0  0  0  0  0  0
   71.0323   40.1233   58.7101 C   0  0  0  0  0  0  0  0  0  0  0  0
   70.4808   41.2519   58.1129 C   0  0  0  0  0  0  0  0  0  0  0  0
   69.1839   41.2551   57.6401 C   0  0  0  0  0  0  0  0  0  0  0  0
   68.4713   40.0853   57.7927 C   0  0  0  0  0  0  0  0  0  0  0  0
   69.0168   38.9583   58.3876 C   0  0  0  0  0  0  0  0  0  0  0  0
   69.8513   36.9597   60.2493 C   0  0  0  0  0  0  0  0  0  0  0  0
   70.9217   37.7507   59.5237 C   0  0  0  0  0  0  0  0  0  0  0  0
   71.9821   38.2093   60.5333 C   0  0  0  0  0  0  0  0  0  0  0  0
   71.5988   36.9047   58.5024 C   0  0  0  0  0  0  0  0  0  0  0  0
   68.6075   44.8239   56.3121 N   0  0  0  0  0  0  0  0  0  0  0  0
   69.1018   46.1508   56.4278 C   0  0  0  0  0  0  0  0  0  0  0  0
   70.1225   46.3053   57.1404 O   0  0  0  0  0  0  0  0  0  0  0  0
   68.4371   47.2738   55.7348 C   0  0  0  0  0  0  0  0  0  0  0  0
   68.5764   47.2045   54.2454 C   0  0  0  0  0  0  0  0  0  0  0  0
   67.8523   46.2440   53.5247 C   0  0  0  0  0  0  0  0  0  0  0  0
   67.9252   46.1223   52.1553 C   0  0  0  0  0  0  0  0  0  0  0  0
   68.7569   46.9967   51.4530 C   0  0  0  0  0  0  0  0  0  0  0  0
   69.4772   47.9489   52.1343 C   0  0  0  0  0  0  0  0  0  0  0  0
   69.3819   48.0439   53.5118 C   0  0  0  0  0  0  0  0  0  0  0  0
 10 11  1  0
 11 12  1  0
 11 13  1  0
 11  4  1  0
  4  5  2  0
  4  9  1  0
  5  6  1  0
  6  7  2  0
  7  1  1  0
  7  8  1  0
  1  2  2  0
  1  3  1  0
  3 14  1  0
 14 15  1  0
 15 16  2  0
 15 17  1  0
 17 18  1  0
 18 19  2  0
 18 23  1  0
 19 20  1  0
 20 21  2  0
 21 22  1  0
 22 23  2  0
  8  9  2  0
M  END
>  <minimizedAffinity>  (614) 
-8.53030

$$$$
data/reference_output_2/data/smiles/173774.pdb
     RDKit          3D

 25 28  0  0  0  0  0  0  0  0999 V2000
   70.0353   47.2789   57.9675 C   0  0  0  0  0  0  0  0  0  0  0  0
   70.9171   46.2449   58.5045 N   0  0  0  0  0  0  0  0  0  0  0  0
   71.9571   46.3835   59.3681 C   0  0  0  0  0  0  0  0  0  0  0  0
   72.4817   45.1033   59.6062 C   0  0  0  0  0  0  0  0  0  0  0  0
   71.7433   44.2091   58.8748 C   0  0  0  0  0  0  0  0  0  0  0  0
   70.7642   44.9399   58.1871 C   0  0  0  0  0  0  0  0  0  0  0  0
   69.7410   44.4756   57.2662 C   0  0  0  0  0  0  0  0  0  0  0  0
   69.2140   45.4177   56.4655 N   0  0  0  0  0  0  0  0  0  0  0  0
   68.2604   45.1525   55.5566 C   0  0  0  0  0  0  0  0  0  0  0  0
   67.8227   43.8924   55.4536 N   0  0  0  0  0  0  0  0  0  0  0  0
   68.3194   42.8946   56.2375 C   0  0  0  0  0  0  0  0  0  0  0  0
   69.2830   43.1576   57.1569 C   0  0  0  0  0  0  0  0  0  0  0  0
   69.7612   41.9735   57.9514 C   0  0  0  0  0  0  0  0  0  0  0  0
   71.2787   41.9829   57.8134 C   0  0  0  0  0  0  0  0  0  0  0  0
   71.9796   42.7581   58.8647 C   0  0  0  0  0  0  0  0  0  0  0  0
   72.4701   47.5992   59.9397 C   0  0  0  0  0  0  0  0  0  0  0  0
   73.2336   48.5152   59.2159 N   0  0  0  0  0  0  0  0  0  0  0  0
   72.2317   47.8651   61.1409 O   0  0  0  0  0  0  0  0  0  0  0  0
   67.6855   46.1345   54.6951 N   0  0  0  0  0  0  0  0  0  0  0  0
   68.4902   46.9136   53.8238 C   0  0  0  0  0  0  0  0  0  0  0  0
   69.1043   48.0922   54.1905 C   0  0  0  0  0  0  0  0  0  0  0  0
   69.8819   48.8173   53.2976 C   0  0  0  0  0  0  0  0  0  0  0  0
   70.0671   48.3788   52.0049 C   0  0  0  0  0  0  0  0  0  0  0  0
   69.4605   47.2057   51.6256 C   0  0  0  0  0  0  0  0  0  0  0  0
   68.6775   46.4806   52.5338 C   0  0  0  0  0  0  0  0  0  0  0  0
  1  2  1  0
  2  3  1  0
  2  6  1  0
  3 16  1  0
  3  4  2  0
 16 17  1  0
 16 18  2  0
  4  5  1  0
  5  6  2  0
  5 15  1  0
  6  7  1  0
  7  8  2  0
  7 12  1  0
  8  9  1  0
  9 19  1  0
  9 10  2  0
 19 20  1  0
 20 21  2  0
 20 25  1  0
 21 22  1  0
 22 23  2  0
 23 24  1  0
 24 25  2  0
 10 11  1  0
 11 12  2  0
 12 13  1  0
 13 14  1  0
 14 15  1  0
M  END
>  <minimizedAffinity>  (615) 
-8.52987

$$$$
data/reference_output_2/data/smiles/103831.pdb
     RDKit          3D

 24 26  0  0  0  0  0  0  0  0999 V2000
   72.3427   51.0331   54.9371 C   0  0  2  0  0  0  0  0  0  0  0  0
   70.5641   49.7939   53.5998 C   0  0  0  0  0  0  0  0  0  0  0  0
   70.2757   50.8634   52.9787 O   0  0  0  0  0  0  0  0  0  0  0  0
   71.5961   49.8567   54.5724 N   0  0  0  0  0  0  0  0  0  0  0  0
   68.0229   45.6744   54.8312 C   0  0  0  0  0  0  0  0  0  0  0  0
   68.5951   46.5871   53.8202 C   0  0  0  0  0  0  0  0  0  0  0  0
   68.4328   46.2973   52.4913 C   0  0  0  0  0  0  0  0  0  0  0  0
   68.9530   47.1287   51.5388 C   0  0  0  0  0  0  0  0  0  0  0  0
   69.6381   48.2531   51.9556 C   0  0  0  0  0  0  0  0  0  0  0  0
   69.8286   48.5880   53.2766 C   0  0  0  0  0  0  0  0  0  0  0  0
   69.2965   47.7382   54.2094 C   0  0  0  0  0  0  0  0  0  0  0  0
   73.7783   51.0012   54.6104 C   0  0  0  0  0  0  0  0  0  0  0  0
   74.1747   50.3376   53.6231 O   0  0  0  0  0  0  0  0  0  0  0  0
   74.7087   51.6737   55.3566 O   0  0  0  0  0  0  0  0  0  0  0  0
   72.0014   51.6180   56.2612 C   0  0  0  0  0  0  0  0  0  0  0  0
   70.6024   51.9549   56.4854 C   0  0  0  0  0  0  0  0  0  0  0  0
   70.0188   53.1904   56.3245 C   0  0  0  0  0  0  0  0  0  0  0  0
   68.7163   53.1185   56.6445 N   0  0  0  0  0  0  0  0  0  0  0  0
   68.4339   51.8534   57.0117 C   0  0  0  0  0  0  0  0  0  0  0  0
   67.2548   51.2637   57.4223 C   0  0  0  0  0  0  0  0  0  0  0  0
   67.1832   49.9280   57.7518 C   0  0  0  0  0  0  0  0  0  0  0  0
   68.3512   49.2056   57.6527 C   0  0  0  0  0  0  0  0  0  0  0  0
   69.5396   49.7617   57.2489 C   0  0  0  0  0  0  0  0  0  0  0  0
   69.6063   51.1102   56.9179 C   0  0  0  0  0  0  0  0  0  0  0  0
  5  6  1  0
  6  7  2  0
  6 11  1  0
  7  8  1  0
  8  9  2  0
  9 10  1  0
 10  2  1  0
 10 11  2  0
  2  3  2  0
  2  4  1  0
  4  1  1  0
  1 15  1  1
  1 12  1  0
 15 16  1  0
 16 17  2  0
 16 24  1  0
 17 18  1  0
 18 19  1  0
 19 20  1  0
 19 24  2  0
 20 21  2  0
 21 22  1  0
 22 23  2  0
 23 24  1  0
 12 13  2  0
 12 14  1  0
M  END
>  <minimizedAffinity>  (616) 
-8.52919

$$$$
data/200k_reference_output/data/smiles/62352.pdb
     RDKit          3D

 24 27  0  0  0  0  0  0  0  0999 V2000
   70.6598   49.1674   58.2618 C   0  0  0  0  0  0  0  0  0  0  0  0
   70.2921   48.2441   57.3334 C   0  0  0  0  0  0  0  0  0  0  0  0
   69.0854   48.2434   56.6731 C   0  0  0  0  0  0  0  0  0  0  0  0
   68.1972   49.2741   57.0033 C   0  0  0  0  0  0  0  0  0  0  0  0
   68.5375   50.2302   57.9446 C   0  0  0  0  0  0  0  0  0  0  0  0
   69.7611   50.1892   58.5789 C   0  0  0  0  0  0  0  0  0  0  0  0
   70.0658   51.1361   59.4923 F   0  0  0  0  0  0  0  0  0  0  0  0
   68.6882   47.2844   55.6573 C   0  0  0  0  0  0  0  0  0  0  0  0
   68.2141   46.0516   56.0031 N   0  0  0  0  0  0  0  0  0  0  0  0
   67.8393   45.1692   55.1238 N   0  0  0  0  0  0  0  0  0  0  0  0
   67.9021   45.4358   53.7877 C   0  0  0  0  0  0  0  0  0  0  0  0
   67.5378   44.5743   52.9500 O   0  0  0  0  0  0  0  0  0  0  0  0
   68.3630   46.6446   53.3455 C   0  0  0  0  0  0  0  0  0  0  0  0
   68.7566   47.5724   54.3225 C   0  0  0  0  0  0  0  0  0  0  0  0
   69.1969   48.8763   53.7452 C   0  0  0  0  0  0  0  0  0  0  0  0
   70.3107   48.5476   52.7633 C   0  0  0  0  0  0  0  0  0  0  0  0
   69.7901   47.7173   51.6099 C   0  0  0  0  0  0  0  0  0  0  0  0
   68.4803   47.0298   51.9189 C   0  0  0  0  0  0  0  0  0  0  0  0
   71.5826   47.4871   60.6281 O   0  0  0  0  0  0  0  0  0  0  0  0
   72.2882   48.2252   59.9221 C   0  0  0  0  0  0  0  0  0  0  0  0
   73.7763   48.2605   59.9492 C   0  0  0  0  0  0  0  0  0  0  0  0
   74.0133   49.7487   59.8040 C   0  0  0  0  0  0  0  0  0  0  0  0
   72.9835   50.1539   58.7845 C   0  0  0  0  0  0  0  0  0  0  0  0
   71.9055   49.1805   58.9535 N   0  0  0  0  0  0  0  0  0  0  0  0
 19 20  2  0
 20 21  1  0
 20 24  1  0
 21 22  1  0
 22 23  1  0
 23 24  1  0
 24  1  1  0
  1  2  2  0
  1  6  1  0
  2  3  1  0
  3  8  1  0
  3  4  2  0
  8  9  2  0
  8 14  1  0
  9 10  1  0
 10 11  1  0
 11 12  2  0
 11 13  1  0
 13 14  2  0
 13 18  1  0
 14 15  1  0
 15 16  1  0
 16 17  1  0
 17 18  1  0
  4  5  1  0
  5  6  2  0
  6  7  1  0
M  END
>  <minimizedAffinity>  (617) 
-8.52889

$$$$
data/200k_reference_output/data/smiles/43486.pdb
     RDKit          3D

 26 29  0  0  0  0  0  0  0  0999 V2000
   69.2577   47.0952   56.4515 C   0  0  0  0  0  0  0  0  0  0  0  0
   68.3688   47.2645   57.2981 O   0  0  0  0  0  0  0  0  0  0  0  0
   70.3321   46.2611   56.8912 N   0  0  0  0  0  0  0  0  0  0  0  0
   70.8179   50.5635   53.4863 N   0  0  0  0  0  0  0  0  0  0  0  0
   70.0987   49.3442   53.6409 C   0  0  0  0  0  0  0  0  0  0  0  0
   69.9984   48.8004   54.8627 N   0  0  0  0  0  0  0  0  0  0  0  0
   69.3277   47.6314   55.1053 C   0  0  0  0  0  0  0  0  0  0  0  0
   68.7614   47.0570   53.9973 C   0  0  0  0  0  0  0  0  0  0  0  0
   68.0681   45.8952   54.1019 C   0  0  0  0  0  0  0  0  0  0  0  0
   67.4998   45.3217   52.9725 C   0  0  0  0  0  0  0  0  0  0  0  0
   67.6013   45.8739   51.7327 C   0  0  0  0  0  0  0  0  0  0  0  0
   67.0451   45.3116   50.6338 F   0  0  0  0  0  0  0  0  0  0  0  0
   68.2969   47.0476   51.6036 C   0  0  0  0  0  0  0  0  0  0  0  0
   68.8666   47.6241   52.7286 C   0  0  0  0  0  0  0  0  0  0  0  0
   69.5415   48.7722   52.5724 N   0  0  0  0  0  0  0  0  0  0  0  0
   70.3517   45.6898   58.1901 C   0  0  0  0  0  0  0  0  0  0  0  0
   70.7438   44.2636   58.0916 C   0  0  0  0  0  0  0  0  0  0  0  0
   69.8609   43.2344   57.9745 C   0  0  0  0  0  0  0  0  0  0  0  0
   70.2708   41.9080   57.8994 C   0  0  0  0  0  0  0  0  0  0  0  0
   71.6252   41.6519   57.9476 C   0  0  0  0  0  0  0  0  0  0  0  0
   72.5575   42.6683   58.0668 C   0  0  0  0  0  0  0  0  0  0  0  0
   73.9069   42.3708   58.1120 C   0  0  0  0  0  0  0  0  0  0  0  0
   74.8046   43.4040   58.2303 C   0  0  0  0  0  0  0  0  0  0  0  0
   74.3609   44.6972   58.3011 C   0  0  0  0  0  0  0  0  0  0  0  0
   73.0378   44.9264   58.2529 N   0  0  0  0  0  0  0  0  0  0  0  0
   72.1089   43.9722   58.1382 C   0  0  0  0  0  0  0  0  0  0  0  0
  4  5  1  0
  5  6  2  0
  5 15  1  0
  6  7  1  0
  7  1  1  0
  7  8  2  0
  1  2  2  0
  1  3  1  0
  3 16  1  0
 16 17  1  0
 17 18  2  0
 17 26  1  0
 18 19  1  0
 19 20  2  0
 20 21  1  0
 21 22  1  0
 21 26  2  0
 22 23  2  0
 23 24  1  0
 24 25  2  0
 25 26  1  0
  8  9  1  0
  8 14  1  0
  9 10  2  0
 10 11  1  0
 11 12  1  0
 11 13  2  0
 13 14  1  0
 14 15  2  0
M  END
>  <minimizedAffinity>  (618) 
-8.52629

$$$$
data/reference_output_2/data/smiles/175140.pdb
     RDKit          3D

 23 25  0  0  0  0  0  0  0  0999 V2000
   67.9552   44.5887   56.0671 O   0  0  0  0  0  0  0  0  0  0  0  0
   69.8345   49.8437   50.8043 O   0  0  0  0  0  0  0  0  0  0  0  0
   69.6110   49.1119   51.8128 C   0  0  0  0  0  0  0  0  0  0  0  0
   69.9749   49.4923   53.0892 C   0  0  0  0  0  0  0  0  0  0  0  0
   69.7331   48.6978   54.1918 C   0  0  0  0  0  0  0  0  0  0  0  0
   69.1074   47.4754   54.0417 C   0  0  0  0  0  0  0  0  0  0  0  0
   68.8518   46.6597   55.1248 C   0  0  0  0  0  0  0  0  0  0  0  0
   68.2268   45.4378   54.9800 C   0  0  0  0  0  0  0  0  0  0  0  0
   67.8733   45.0825   53.6947 C   0  0  0  0  0  0  0  0  0  0  0  0
   68.1261   45.8937   52.6102 C   0  0  0  0  0  0  0  0  0  0  0  0
   68.7513   47.1146   52.7585 C   0  0  0  0  0  0  0  0  0  0  0  0
   69.0028   47.9175   51.6977 N   0  0  0  0  0  0  0  0  0  0  0  0
   68.5556   43.3431   56.2048 C   0  0  0  0  0  0  0  0  0  0  0  0
   69.1942   43.0532   57.4922 C   0  0  0  0  0  0  0  0  0  0  0  0
   68.4988   42.5193   58.4333 N   0  0  0  0  0  0  0  0  0  0  0  0
   67.1993   42.1678   58.4004 O   0  0  0  0  0  0  0  0  0  0  0  0
   70.6137   43.3507   57.6433 C   0  0  0  0  0  0  0  0  0  0  0  0
   71.0535   44.6196   57.9576 C   0  0  0  0  0  0  0  0  0  0  0  0
   72.4007   44.9107   58.1065 C   0  0  0  0  0  0  0  0  0  0  0  0
   73.3558   43.9333   57.9438 C   0  0  0  0  0  0  0  0  0  0  0  0
   74.6875   44.1925   58.0847 F   0  0  0  0  0  0  0  0  0  0  0  0
   72.9318   42.6616   57.6301 C   0  0  0  0  0  0  0  0  0  0  0  0
   71.5736   42.3839   57.4836 C   0  0  0  0  0  0  0  0  0  0  0  0
  2  3  2  0
  3  4  1  0
  3 12  1  0
  4  5  2  0
  5  6  1  0
  6  7  1  0
  6 11  2  0
  7  8  2  0
  8  1  1  0
  8  9  1  0
  1 13  1  0
 13 14  1  0
 14 15  2  0
 14 17  1  0
 15 16  1  0
 17 18  2  0
 17 23  1  0
 18 19  1  0
 19 20  2  0
 20 21  1  0
 20 22  1  0
 22 23  2  0
  9 10  2  0
 10 11  1  0
 11 12  1  0
M  END
>  <minimizedAffinity>  (619) 
-8.52625

$$$$
data/200k_reference_output/data/smiles/10776.pdb
     RDKit          3D

 25 28  0  0  0  0  0  0  0  0999 V2000
   76.3805   34.4200   55.0778 C   0  0  0  0  0  0  0  0  0  0  0  0
   75.4082   35.2144   55.7959 N   0  0  2  0  0  0  0  0  0  0  0  0
   75.5210   34.9756   57.2182 C   0  0  0  0  0  0  0  0  0  0  0  0
   74.3838   35.6069   57.9466 C   0  0  0  0  0  0  0  0  0  0  0  0
   73.2241   35.8808   57.4199 C   0  0  0  0  0  0  0  0  0  0  0  0
   72.9868   35.5456   55.9743 C   0  0  0  0  0  0  0  0  0  0  0  0
   74.0928   34.7255   55.4100 C   0  0  0  0  0  0  0  0  0  0  0  0
   72.1343   36.4988   58.1600 C   0  0  0  0  0  0  0  0  0  0  0  0
   71.5084   35.7984   59.1893 C   0  0  0  0  0  0  0  0  0  0  0  0
   70.4684   36.3201   59.9318 C   0  0  0  0  0  0  0  0  0  0  0  0
   70.0000   37.5903   59.6727 C   0  0  0  0  0  0  0  0  0  0  0  0
   70.6059   38.2956   58.6613 C   0  0  0  0  0  0  0  0  0  0  0  0
   71.6622   37.7600   57.9102 C   0  0  0  0  0  0  0  0  0  0  0  0
   77.3151   35.2286   54.2509 C   0  0  0  0  0  0  0  0  0  0  0  0
   76.6963   36.0860   53.2034 C   0  0  0  0  0  0  0  0  0  0  0  0
   74.5450   33.4217   50.0262 O   0  0  0  0  0  0  0  0  0  0  0  0
   75.5333   34.1735   50.3105 C   0  0  0  0  0  0  0  0  0  0  0  0
   75.6183   34.7141   51.5379 N   0  0  0  0  0  0  0  0  0  0  0  0
   76.6648   35.5154   51.8507 C   0  0  0  0  0  0  0  0  0  0  0  0
   77.6044   35.7555   50.9194 N   0  0  0  0  0  0  0  0  0  0  0  0
   77.5500   35.2221   49.6639 C   0  0  0  0  0  0  0  0  0  0  0  0
   76.4891   34.4088   49.3425 C   0  0  0  0  0  0  0  0  0  0  0  0
   76.6268   33.9438   47.9124 C   0  0  0  0  0  0  0  0  0  0  0  0
   77.4841   35.0819   47.3324 C   0  0  0  0  0  0  0  0  0  0  0  0
   78.4246   35.3116   48.4792 C   0  0  0  0  0  0  0  0  0  0  0  0
 16 17  2  0
 17 18  1  0
 17 22  1  0
 18 19  1  0
 19 15  1  0
 19 20  2  0
 15 14  1  0
 14  1  1  0
  2  1  1  6
  2  3  1  0
  2  7  1  0
  3  4  1  0
  4  5  2  0
  5  8  1  0
  5  6  1  0
  8  9  2  0
  8 13  1  0
  9 10  1  0
 10 11  2  0
 11 12  1  0
 12 13  2  0
  6  7  1  0
 20 21  1  0
 21 22  2  0
 21 25  1  0
 22 23  1  0
 23 24  1  0
 24 25  1  0
M  CHG  1   2   1
M  END
>  <minimizedAffinity>  (620) 
-8.52490

$$$$
data/200k_reference_output/data/smiles/36436.pdb
     RDKit          3D

 24 26  0  0  0  0  0  0  0  0999 V2000
   69.0114   42.4001   57.1004 C   0  0  0  0  0  0  0  0  0  0  0  0
   69.6541   43.6006   57.3325 C   0  0  0  0  0  0  0  0  0  0  0  0
   69.0168   44.6105   56.5969 C   0  0  0  0  0  0  0  0  0  0  0  0
   68.0318   43.9832   55.9630 N   0  0  0  0  0  0  0  0  0  0  0  0
   68.0200   42.6907   56.2493 N   0  0  0  0  0  0  0  0  0  0  0  0
   70.5242   37.3233   59.4636 C   0  0  0  0  0  0  0  0  0  0  0  0
   70.1650   38.6538   58.8705 C   0  0  0  0  0  0  0  0  0  0  0  0
   68.8845   38.8762   58.3955 C   0  0  0  0  0  0  0  0  0  0  0  0
   68.5142   40.0777   57.8280 C   0  0  0  0  0  0  0  0  0  0  0  0
   69.4176   41.1351   57.7037 C   0  0  0  0  0  0  0  0  0  0  0  0
   70.6888   40.9018   58.1815 C   0  0  0  0  0  0  0  0  0  0  0  0
   71.0612   39.6897   58.7545 C   0  0  0  0  0  0  0  0  0  0  0  0
   69.4947   46.0023   56.6498 C   0  0  0  0  0  0  0  0  0  0  0  0
   68.6384   46.9294   55.8845 C   0  0  0  0  0  0  0  0  0  0  0  0
   67.4827   47.1663   56.2953 O   0  0  0  0  0  0  0  0  0  0  0  0
   69.0633   47.5974   54.6562 C   0  0  0  0  0  0  0  0  0  0  0  0
   68.7426   46.9498   53.4464 C   0  0  0  0  0  0  0  0  0  0  0  0
   68.0379   45.7405   53.5122 O   0  0  0  0  0  0  0  0  0  0  0  0
   69.1060   47.4796   52.2344 C   0  0  0  0  0  0  0  0  0  0  0  0
   69.8085   48.6826   52.1583 C   0  0  0  0  0  0  0  0  0  0  0  0
   70.1919   49.2448   50.9409 O   0  0  0  0  0  0  0  0  0  0  0  0
   70.1120   49.3006   53.3515 C   0  0  0  0  0  0  0  0  0  0  0  0
   69.7451   48.7678   54.5936 C   0  0  0  0  0  0  0  0  0  0  0  0
   70.0776   49.4339   55.7667 O   0  0  0  0  0  0  0  0  0  0  0  0
  6  7  1  0
  7  8  2  0
  7 12  1  0
  8  9  1  0
  9 10  2  0
 10  1  1  0
 10 11  1  0
  1  2  2  0
  1  5  1  0
  2  3  1  0
  3 13  1  0
  3  4  2  0
 13 14  1  0
 14 15  2  0
 14 16  1  0
 16 17  2  0
 16 23  1  0
 17 18  1  0
 17 19  1  0
 19 20  2  0
 20 21  1  0
 20 22  1  0
 22 23  2  0
 23 24  1  0
  4  5  1  0
 11 12  2  0
M  END
>  <minimizedAffinity>  (621) 
-8.52408

$$$$
data/reference_output_2/data/smiles/182102.pdb
     RDKit          3D

 23 25  0  0  0  0  0  0  0  0999 V2000
   68.1213   41.2354   56.7509 C   0  0  0  0  0  0  0  0  0  0  0  0
   68.6004   41.0229   57.9471 C   0  0  0  0  0  0  0  0  0  0  0  0
   68.6437   39.6889   58.2360 N   0  0  0  0  0  0  0  0  0  0  0  0
   68.2028   39.1383   57.2018 N   0  0  0  0  0  0  0  0  0  0  0  0
   67.8365   39.9399   56.1957 N   0  0  0  0  0  0  0  0  0  0  0  0
   68.1982   43.5270   55.9272 N   0  0  0  0  0  0  0  0  0  0  0  0
   67.4306   42.4175   56.1340 C   0  0  0  0  0  0  0  0  0  0  0  0
   66.2331   42.4764   55.8559 O   0  0  0  0  0  0  0  0  0  0  0  0
   68.0472   46.2691   53.4935 C   0  0  0  0  0  0  0  0  0  0  0  0
   68.6360   47.3015   54.1799 C   0  0  0  0  0  0  0  0  0  0  0  0
   69.0932   47.1719   55.5250 C   0  0  0  0  0  0  0  0  0  0  0  0
   68.9929   46.0194   56.2450 C   0  0  0  0  0  0  0  0  0  0  0  0
   68.3813   44.8045   55.6455 C   0  0  0  0  0  0  0  0  0  0  0  0
   68.0209   45.2079   54.3630 C   0  0  0  0  0  0  0  0  0  0  0  0
   67.3648   45.8601   51.0760 C   0  0  0  0  0  0  0  0  0  0  0  0
   67.6769   46.0550   52.2113 C   0  0  0  0  0  0  0  0  0  0  0  0
   68.9978   39.2682   59.6305 C   0  0  0  0  0  0  0  0  0  0  0  0
   70.1385   38.2703   59.3454 C   0  0  0  0  0  0  0  0  0  0  0  0
   70.1482   37.0152   59.7653 C   0  0  0  0  0  0  0  0  0  0  0  0
   71.0350   36.0340   59.2945 C   0  0  0  0  0  0  0  0  0  0  0  0
   71.9509   36.4525   58.2961 C   0  0  0  0  0  0  0  0  0  0  0  0
   71.9410   37.7380   57.8866 C   0  0  0  0  0  0  0  0  0  0  0  0
   71.0705   38.7221   58.3658 C   0  0  0  0  0  0  0  0  0  0  0  0
 15 16  3  0
 16  9  1  0
  9 10  2  0
  9 14  1  0
 10 11  1  0
 11 12  2  0
 12 13  1  0
 13  6  1  0
 13 14  2  0
  6  7  1  0
  7  8  2  0
  7  1  1  0
  1  2  2  0
  1  5  1  0
  2  3  1  0
  3 17  1  0
  3  4  1  0
 17 18  1  0
 18 19  2  0
 18 23  1  0
 19 20  1  0
 20 21  2  0
 21 22  1  0
 22 23  2  0
  4  5  2  0
M  END
>  <minimizedAffinity>  (622) 
-8.52331

$$$$
data/200k_reference_output/data/smiles/63944.pdb
     RDKit          3D

 25 28  0  0  0  0  0  0  0  0999 V2000
   68.1376   45.2282   56.0628 O   0  0  0  0  0  0  0  0  0  0  0  0
   68.6045   46.1883   55.3568 C   0  0  0  0  0  0  0  0  0  0  0  0
   68.3270   46.2060   53.9927 C   0  0  0  0  0  0  0  0  0  0  0  0
   67.5693   45.1843   53.4338 C   0  0  0  0  0  0  0  0  0  0  0  0
   67.3207   45.2114   52.0979 C   0  0  0  0  0  0  0  0  0  0  0  0
   67.8113   46.2322   51.3169 C   0  0  0  0  0  0  0  0  0  0  0  0
   68.5675   47.2518   51.8711 C   0  0  0  0  0  0  0  0  0  0  0  0
   68.8281   47.2436   53.2197 C   0  0  0  0  0  0  0  0  0  0  0  0
   69.5856   48.2315   53.8095 C   0  0  0  0  0  0  0  0  0  0  0  0
   69.8013   48.1279   55.1376 N   0  0  0  0  0  0  0  0  0  0  0  0
   69.3400   47.1639   55.8784 N   0  0  0  0  0  0  0  0  0  0  0  0
   70.1141   49.4091   53.0508 C   0  0  0  0  0  0  0  0  0  0  0  0
   70.0204   50.6557   53.8525 C   0  0  0  0  0  0  0  0  0  0  0  0
   71.0774   51.2921   54.4529 C   0  0  0  0  0  0  0  0  0  0  0  0
   70.8680   52.4764   55.1735 C   0  0  0  0  0  0  0  0  0  0  0  0
   69.5878   52.9800   55.2655 C   0  0  0  0  0  0  0  0  0  0  0  0
   68.5016   52.3708   54.6787 C   0  0  0  0  0  0  0  0  0  0  0  0
   68.7354   51.2112   53.9768 C   0  0  0  0  0  0  0  0  0  0  0  0
   69.6508   47.1823   57.2892 C   0  0  0  0  0  0  0  0  0  0  0  0
   70.0482   48.5212   57.8083 C   0  0  0  0  0  0  0  0  0  0  0  0
   69.0289   49.5117   57.7880 N   0  0  0  0  0  0  0  0  0  0  0  0
   67.7017   49.3181   57.5625 C   0  0  0  0  0  0  0  0  0  0  0  0
   67.0911   50.5461   57.6352 C   0  0  0  0  0  0  0  0  0  0  0  0
   68.0564   51.4557   57.9004 N   0  0  0  0  0  0  0  0  0  0  0  0
   69.2425   50.8257   57.9951 C   0  0  0  0  0  0  0  0  0  0  0  0
  1  2  2  0
  2  3  1  0
  2 11  1  0
  3  4  2  0
  3  8  1  0
  4  5  1  0
  5  6  2  0
  6  7  1  0
  7  8  2  0
  8  9  1  0
  9 12  1  0
  9 10  2  0
 12 13  1  0
 13 14  2  0
 13 18  1  0
 14 15  1  0
 15 16  2  0
 16 17  1  0
 17 18  2  0
 10 11  1  0
 11 19  1  0
 19 20  1  0
 20 21  1  0
 21 22  1  0
 21 25  1  0
 22 23  2  0
 23 24  1  0
 24 25  2  0
M  END
>  <minimizedAffinity>  (623) 
-8.52286

$$$$
data/reference_output_2/data/smiles/167423.pdb
     RDKit          3D

 24 25  0  0  0  0  0  0  0  0999 V2000
   68.1487   42.3419   56.4223 C   0  0  0  0  0  0  0  0  0  0  0  0
   67.2266   43.0641   55.8830 N   0  0  0  0  0  0  0  0  0  0  0  0
   67.1815   39.2144   59.2046 C   0  0  0  0  0  0  0  0  0  0  0  0
   66.6697   40.4878   59.3434 C   0  0  0  0  0  0  0  0  0  0  0  0
   66.9861   41.4916   58.4417 C   0  0  0  0  0  0  0  0  0  0  0  0
   67.8210   41.2681   57.3709 C   0  0  0  0  0  0  0  0  0  0  0  0
   68.3328   39.9978   57.2324 C   0  0  0  0  0  0  0  0  0  0  0  0
   68.0191   38.9943   58.1285 C   0  0  0  0  0  0  0  0  0  0  0  0
   68.0537   37.4079   60.6550 C   0  0  0  0  0  0  0  0  0  0  0  0
   66.8248   38.1563   60.1877 C   0  0  0  0  0  0  0  0  0  0  0  0
   66.2041   38.7876   61.4265 C   0  0  0  0  0  0  0  0  0  0  0  0
   65.7943   37.1934   59.6370 C   0  0  0  0  0  0  0  0  0  0  0  0
   67.5463   44.1011   54.9668 N   0  0  0  0  0  0  0  0  0  0  0  0
   68.2924   45.2207   55.4104 C   0  0  0  0  0  0  0  0  0  0  0  0
   68.6358   45.2311   56.6187 O   0  0  0  0  0  0  0  0  0  0  0  0
   68.6732   46.3373   54.5530 C   0  0  0  0  0  0  0  0  0  0  0  0
   69.1154   47.5168   55.1092 C   0  0  0  0  0  0  0  0  0  0  0  0
   69.4845   48.5955   54.3328 C   0  0  0  0  0  0  0  0  0  0  0  0
   69.4300   48.5494   52.9573 C   0  0  0  0  0  0  0  0  0  0  0  0
   68.9864   47.3665   52.3832 C   0  0  0  0  0  0  0  0  0  0  0  0
   68.6169   46.2855   53.1768 C   0  0  0  0  0  0  0  0  0  0  0  0
   69.8222   49.6945   52.1488 C   0  0  0  0  0  0  0  0  0  0  0  0
   70.1345   50.9513   52.7155 N   0  0  0  0  0  0  0  0  0  0  0  0
   69.8825   49.5553   50.9091 O   0  0  0  0  0  0  0  0  0  0  0  0
  9 10  1  0
 10 11  1  0
 10 12  1  0
 10  3  1  0
  3  4  2  0
  3  8  1  0
  4  5  1  0
  5  6  2  0
  6  1  1  0
  6  7  1  0
  1  2  2  0
  2 13  1  0
 13 14  1  0
 14 15  2  0
 14 16  1  0
 16 17  2  0
 16 21  1  0
 17 18  1  0
 18 19  2  0
 19 22  1  0
 19 20  1  0
 22 23  1  0
 22 24  2  0
 20 21  2  0
  7  8  2  0
M  END
>  <minimizedAffinity>  (624) 
-8.52239

$$$$
data/reference_output_2/data/smiles/177458.pdb
     RDKit          3D

 23 25  0  0  0  0  0  0  0  0999 V2000
   71.6001   50.7052   54.2220 C   0  0  0  0  0  0  0  0  0  0  0  0
   70.7839   51.4032   53.3955 N   0  0  0  0  0  0  0  0  0  0  0  0
   69.8723   50.5561   52.9477 N   0  0  0  0  0  0  0  0  0  0  0  0
   70.0965   49.3403   53.4735 C   0  0  0  0  0  0  0  0  0  0  0  0
   71.1487   49.4757   54.2364 O   0  0  0  0  0  0  0  0  0  0  0  0
   69.3079   48.1332   53.2256 C   0  0  0  0  0  0  0  0  0  0  0  0
   68.6868   47.4267   54.2321 C   0  0  0  0  0  0  0  0  0  0  0  0
   67.9447   46.2921   54.0083 C   0  0  0  0  0  0  0  0  0  0  0  0
   67.8017   45.8146   52.7029 C   0  0  0  0  0  0  0  0  0  0  0  0
   67.0698   44.6932   52.4687 F   0  0  0  0  0  0  0  0  0  0  0  0
   68.4137   46.5037   51.6775 C   0  0  0  0  0  0  0  0  0  0  0  0
   69.1622   47.6569   51.9407 C   0  0  0  0  0  0  0  0  0  0  0  0
   74.2176   50.1426   53.5634 O   0  0  0  0  0  0  0  0  0  0  0  0
   74.0651   50.8729   54.5759 C   0  0  0  0  0  0  0  0  0  0  0  0
   72.7298   51.1818   54.9432 N   0  0  0  0  0  0  0  0  0  0  0  0
   75.2466   51.3833   55.3458 C   0  0  0  0  0  0  0  0  0  0  0  0
   75.9396   50.3214   55.9619 O   0  0  0  0  0  0  0  0  0  0  0  0
   77.3126   50.1846   55.9185 C   0  0  0  0  0  0  0  0  0  0  0  0
   77.9474   49.1004   55.3582 C   0  0  0  0  0  0  0  0  0  0  0  0
   79.3264   48.9879   55.3281 C   0  0  0  0  0  0  0  0  0  0  0  0
   80.1048   49.9762   55.8669 C   0  0  0  0  0  0  0  0  0  0  0  0
   79.4935   51.0777   56.4363 C   0  0  0  0  0  0  0  0  0  0  0  0
   78.0994   51.1764   56.4591 C   0  0  0  0  0  0  0  0  0  0  0  0
 13 14  2  0
 14 16  1  0
 14 15  1  0
 16 17  1  0
 17 18  1  0
 18 19  2  0
 18 23  1  0
 19 20  1  0
 20 21  2  0
 21 22  1  0
 22 23  2  0
 15  1  1  0
  1  2  2  0
  1  5  1  0
  2  3  1  0
  3  4  2  0
  4  6  1  0
  4  5  1  0
  6  7  2  0
  6 12  1  0
  7  8  1  0
  8  9  2  0
  9 10  1  0
  9 11  1  0
 11 12  2  0
M  END
>  <minimizedAffinity>  (625) 
-8.52233

$$$$
data/reference_output_2/data/smiles/107626.pdb
     RDKit          3D

 22 24  0  0  0  0  0  0  0  0999 V2000
   69.9340   50.9647   55.3465 C   0  0  2  0  0  0  0  0  0  0  0  0
   71.1865   50.4818   55.7705 O   0  0  0  0  0  0  0  0  0  0  0  0
   69.9719   52.4198   55.5721 C   0  0  0  0  0  0  0  0  0  0  0  0
   70.8554   53.2171   55.1351 O   0  0  0  0  0  0  0  0  0  0  0  0
   68.8631   52.7770   56.3557 N   0  0  0  0  0  0  0  0  0  0  0  0
   68.2217   51.5593   56.7538 C   0  0  0  0  0  0  0  0  0  0  0  0
   67.1226   51.3771   57.6076 C   0  0  0  0  0  0  0  0  0  0  0  0
   66.7224   50.0997   57.9265 C   0  0  0  0  0  0  0  0  0  0  0  0
   67.3948   49.0107   57.4138 C   0  0  0  0  0  0  0  0  0  0  0  0
   66.9836   47.7204   57.7438 O   0  0  0  0  0  0  0  0  0  0  0  0
   68.4638   49.1773   56.5830 C   0  0  0  0  0  0  0  0  0  0  0  0
   68.8779   50.4791   56.2498 C   0  0  0  0  0  0  0  0  0  0  0  0
   69.6961   50.6655   53.8847 C   0  0  0  0  0  0  0  0  0  0  0  0
   71.4755   49.2915   53.2504 O   0  0  0  0  0  0  0  0  0  0  0  0
   70.2217   49.4004   53.4242 C   0  0  0  0  0  0  0  0  0  0  0  0
   69.4285   48.1913   53.1282 C   0  0  0  0  0  0  0  0  0  0  0  0
   68.8719   47.4391   54.1420 C   0  0  0  0  0  0  0  0  0  0  0  0
   68.1217   46.3109   53.9146 C   0  0  0  0  0  0  0  0  0  0  0  0
   67.9132   45.9071   52.6167 C   0  0  0  0  0  0  0  0  0  0  0  0
   67.1762   44.7936   52.3321 F   0  0  0  0  0  0  0  0  0  0  0  0
   68.4701   46.6592   51.5905 C   0  0  0  0  0  0  0  0  0  0  0  0
   69.2135   47.7799   51.8368 C   0  0  0  0  0  0  0  0  0  0  0  0
 14 15  2  0
 15 13  1  0
 15 16  1  0
 13  1  1  0
  1  2  1  1
  1  3  1  0
  1 12  1  0
  3  4  2  0
  3  5  1  0
  5  6  1  0
  6  7  1  0
  6 12  2  0
  7  8  2  0
  8  9  1  0
  9 10  1  0
  9 11  2  0
 11 12  1  0
 16 17  2  0
 16 22  1  0
 17 18  1  0
 18 19  2  0
 19 20  1  0
 19 21  1  0
 21 22  2  0
M  END
>  <minimizedAffinity>  (626) 
-8.52170

$$$$
data/reference_output_2/data/smiles/171293.pdb
     RDKit          3D

 25 27  0  0  0  0  0  0  0  0999 V2000
   69.3782   47.9630   56.3678 C   0  0  0  0  0  0  0  0  0  0  0  0
   69.0174   47.5358   55.0321 C   0  0  0  0  0  0  0  0  0  0  0  0
   68.2013   46.4131   54.8441 C   0  0  0  0  0  0  0  0  0  0  0  0
   67.8804   45.9655   53.5817 C   0  0  0  0  0  0  0  0  0  0  0  0
   68.3477   46.6041   52.4585 C   0  0  0  0  0  0  0  0  0  0  0  0
   69.1486   47.7062   52.6594 C   0  0  0  0  0  0  0  0  0  0  0  0
   69.4921   48.1836   53.8918 C   0  0  0  0  0  0  0  0  0  0  0  0
   68.5077   49.1209   56.7221 C   0  0  0  0  0  0  0  0  0  0  0  0
   68.7546   50.3860   56.2391 C   0  0  0  0  0  0  0  0  0  0  0  0
   67.8927   51.4050   56.6238 C   0  0  0  0  0  0  0  0  0  0  0  0
   66.8137   51.2107   57.4567 C   0  0  0  0  0  0  0  0  0  0  0  0
   66.5801   49.9354   57.9324 C   0  0  0  0  0  0  0  0  0  0  0  0
   67.4379   48.9029   57.5541 C   0  0  0  0  0  0  0  0  0  0  0  0
   69.5692   46.9873   57.4472 C   0  0  0  0  0  0  0  0  0  0  0  0
   70.7228   44.8741   58.1906 C   0  0  0  0  0  0  0  0  0  0  0  0
   69.8608   44.7316   59.1263 O   0  0  0  0  0  0  0  0  0  0  0  0
   70.5630   45.9847   57.3610 N   0  0  0  0  0  0  0  0  0  0  0  0
   73.9211   45.1403   58.5716 C   0  0  0  0  0  0  0  0  0  0  0  0
   73.1188   43.9522   58.2257 C   0  0  0  0  0  0  0  0  0  0  0  0
   71.7623   43.8869   58.0835 C   0  0  0  0  0  0  0  0  0  0  0  0
   71.5177   42.5291   57.7623 C   0  0  0  0  0  0  0  0  0  0  0  0
   70.3862   42.0141   57.5433 O   0  0  0  0  0  0  0  0  0  0  0  0
   72.6536   41.8599   57.7220 N   0  0  0  0  0  0  0  0  0  0  0  0
   73.6090   42.6997   57.9959 N   0  0  0  0  0  0  0  0  0  0  0  0
   75.0347   42.4036   58.0624 C   0  0  0  0  0  0  0  0  0  0  0  0
 18 19  1  0
 19 20  2  0
 19 24  1  0
 20 15  1  0
 20 21  1  0
 15 16  2  0
 15 17  1  0
 17 14  1  0
 14  1  1  0
  1  2  1  0
  1  8  1  0
  2  3  2  0
  2  7  1  0
  3  4  1  0
  4  5  2  0
  5  6  1  0
  6  7  2  0
  8  9  2  0
  8 13  1  0
  9 10  1  0
 10 11  2  0
 11 12  1  0
 12 13  2  0
 21 22  2  0
 21 23  1  0
 23 24  1  0
 24 25  1  0
M  END
>  <minimizedAffinity>  (627) 
-8.52032

$$$$
data/reference_output_2/data/smiles/153618.pdb
     RDKit          3D

 26 29  0  0  0  0  0  0  0  0999 V2000
   71.1456   45.6856   58.6242 C   0  0  0  0  0  0  0  0  0  0  0  0
   70.6827   44.3757   58.4944 C   0  0  0  0  0  0  0  0  0  0  0  0
   69.7001   44.0394   57.5991 C   0  0  0  0  0  0  0  0  0  0  0  0
   69.1776   45.0186   56.8313 N   0  0  0  0  0  0  0  0  0  0  0  0
   69.5657   46.3092   56.8917 C   0  0  0  0  0  0  0  0  0  0  0  0
   70.5674   46.6286   57.8095 C   0  0  0  0  0  0  0  0  0  0  0  0
   70.7595   47.9923   57.6557 C   0  0  0  0  0  0  0  0  0  0  0  0
   69.9207   48.4275   56.7098 N   0  0  0  0  0  0  0  0  0  0  0  0
   69.1925   47.4206   56.2388 N   0  0  0  0  0  0  0  0  0  0  0  0
   69.2088   42.6760   57.4502 C   0  0  0  0  0  0  0  0  0  0  0  0
   69.7249   41.6448   58.2262 C   0  0  0  0  0  0  0  0  0  0  0  0
   69.2481   40.3515   58.0832 C   0  0  0  0  0  0  0  0  0  0  0  0
   68.2539   40.0244   57.1794 C   0  0  0  0  0  0  0  0  0  0  0  0
   67.7455   41.0473   56.4127 C   0  0  0  0  0  0  0  0  0  0  0  0
   68.2217   42.3353   56.5577 C   0  0  0  0  0  0  0  0  0  0  0  0
   73.0023   47.2840   61.6216 C   0  0  0  0  0  0  0  0  0  0  0  0
   71.9720   46.9287   60.6553 N   0  0  0  0  0  0  0  0  0  0  0  0
   72.1940   46.0249   59.5780 C   0  0  0  0  0  0  0  0  0  0  0  0
   73.3383   45.5209   59.4727 O   0  0  0  0  0  0  0  0  0  0  0  0
   68.1859   47.5303   55.2090 C   0  0  0  0  0  0  0  0  0  0  0  0
   68.7238   47.4884   53.8327 C   0  0  0  0  0  0  0  0  0  0  0  0
   69.6552   48.3909   53.3720 C   0  0  0  0  0  0  0  0  0  0  0  0
   70.1379   48.3189   52.0621 C   0  0  0  0  0  0  0  0  0  0  0  0
   69.6785   47.3532   51.2558 N   0  0  0  0  0  0  0  0  0  0  0  0
   68.7739   46.4502   51.6511 C   0  0  0  0  0  0  0  0  0  0  0  0
   68.2939   46.5233   52.9565 C   0  0  0  0  0  0  0  0  0  0  0  0
 16 17  1  0
 17 18  1  0
 18 19  2  0
 18  1  1  0
  1  2  2  0
  1  6  1  0
  2  3  1  0
  3 10  1  0
  3  4  2  0
 10 11  2  0
 10 15  1  0
 11 12  1  0
 12 13  2  0
 13 14  1  0
 14 15  2  0
  4  5  1  0
  5  6  2  0
  5  9  1  0
  6  7  1  0
  7  8  2  0
  8  9  1  0
  9 20  1  0
 20 21  1  0
 21 22  2  0
 21 26  1  0
 22 23  1  0
 23 24  2  0
 24 25  1  0
 25 26  2  0
M  END
>  <minimizedAffinity>  (628) 
-8.52012

$$$$
data/reference_output_2/data/smiles/96026.pdb
     RDKit          3D

 23 25  0  0  0  0  0  0  0  0999 V2000
   66.6594   44.4218   51.3068 N   0  0  0  0  0  0  0  0  0  0  0  0
   67.4199   45.4311   51.9851 C   0  0  0  0  0  0  0  0  0  0  0  0
   67.9499   46.5092   51.3140 C   0  0  0  0  0  0  0  0  0  0  0  0
   68.6945   47.5023   51.9653 C   0  0  0  0  0  0  0  0  0  0  0  0
   68.9330   47.4415   53.3192 C   0  0  0  0  0  0  0  0  0  0  0  0
   68.3964   46.3553   53.9884 C   0  0  0  0  0  0  0  0  0  0  0  0
   67.6549   45.3682   53.3392 C   0  0  0  0  0  0  0  0  0  0  0  0
   68.6051   46.2716   55.3480 C   0  0  0  0  0  0  0  0  0  0  0  0
   68.1580   45.3236   56.0406 O   0  0  0  0  0  0  0  0  0  0  0  0
   69.3285   47.2484   56.0097 C   0  0  0  0  0  0  0  0  0  0  0  0
   69.8232   48.2899   55.2650 C   0  0  0  0  0  0  0  0  0  0  0  0
   69.6402   48.4043   53.9309 N   0  0  0  0  0  0  0  0  0  0  0  0
   69.5735   47.2044   57.4349 C   0  0  0  0  0  0  0  0  0  0  0  0
   69.5797   46.1132   58.0284 O   0  0  0  0  0  0  0  0  0  0  0  0
   69.7998   48.3725   58.1207 O   0  0  0  0  0  0  0  0  0  0  0  0
   70.2504   49.5415   53.2561 C   0  0  0  0  0  0  0  0  0  0  0  0
   70.0560   50.7505   54.1095 C   0  0  0  0  0  0  0  0  0  0  0  0
   68.7460   51.2257   54.2908 C   0  0  0  0  0  0  0  0  0  0  0  0
   68.5106   52.3242   55.0533 C   0  0  0  0  0  0  0  0  0  0  0  0
   69.5677   52.9783   55.6530 C   0  0  0  0  0  0  0  0  0  0  0  0
   69.3221   54.0696   56.4101 F   0  0  0  0  0  0  0  0  0  0  0  0
   70.8671   52.5507   55.5042 C   0  0  0  0  0  0  0  0  0  0  0  0
   71.0813   51.4191   54.7158 C   0  0  0  0  0  0  0  0  0  0  0  0
  1  2  1  0
  2  3  2  0
  2  7  1  0
  3  4  1  0
  4  5  2  0
  5  6  1  0
  5 12  1  0
  6  7  2  0
  6  8  1  0
  8  9  2  0
  8 10  1  0
 10 13  1  0
 10 11  2  0
 13 14  2  0
 13 15  1  0
 11 12  1  0
 12 16  1  0
 16 17  1  0
 17 18  2  0
 17 23  1  0
 18 19  1  0
 19 20  2  0
 20 21  1  0
 20 22  1  0
 22 23  2  0
M  END
>  <minimizedAffinity>  (629) 
-8.51999

$$$$
data/200k_reference_output/data/smiles/14242.pdb
     RDKit          3D

 26 29  0  0  0  0  0  0  0  0999 V2000
   70.0396   49.3679   57.1495 C   0  0  0  0  0  0  0  0  0  0  0  0
   67.0066   45.1225   51.8783 N   0  0  0  0  0  0  0  0  0  0  0  0
   67.8295   46.0984   52.5251 C   0  0  0  0  0  0  0  0  0  0  0  0
   68.7303   46.8403   51.7953 C   0  0  0  0  0  0  0  0  0  0  0  0
   69.5290   47.7814   52.4000 C   0  0  0  0  0  0  0  0  0  0  0  0
   69.4227   47.9826   53.7599 C   0  0  0  0  0  0  0  0  0  0  0  0
   68.5350   47.2641   54.5365 C   0  0  0  0  0  0  0  0  0  0  0  0
   67.7515   46.3269   53.8811 C   0  0  0  0  0  0  0  0  0  0  0  0
   68.6555   47.6937   55.8866 N   0  0  0  0  0  0  0  0  0  0  0  0
   67.8717   47.2115   56.8869 O   0  0  0  0  0  0  0  0  0  0  0  0
   69.5464   48.6127   56.0265 C   0  0  0  0  0  0  0  0  0  0  0  0
   70.1019   48.8683   54.6626 C   0  0  0  0  0  0  0  0  0  0  0  0
   70.9940   49.6937   54.3346 O   0  0  0  0  0  0  0  0  0  0  0  0
   71.3421   49.1278   57.7616 C   0  0  0  0  0  0  0  0  0  0  0  0
   71.4498   48.1025   58.8391 C   0  0  0  0  0  0  0  0  0  0  0  0
   71.8391   46.7888   58.5572 N   0  0  0  0  0  0  0  0  0  0  0  0
   73.1464   46.3083   58.2890 C   0  0  0  0  0  0  0  0  0  0  0  0
   74.2119   47.0012   58.2251 O   0  0  0  0  0  0  0  0  0  0  0  0
   73.0568   44.8689   58.0987 C   0  0  0  0  0  0  0  0  0  0  0  0
   73.9957   43.8929   57.8167 C   0  0  0  0  0  0  0  0  0  0  0  0
   73.6903   42.5644   57.6752 C   0  0  0  0  0  0  0  0  0  0  0  0
   72.3648   42.1769   57.8229 C   0  0  0  0  0  0  0  0  0  0  0  0
   71.3993   43.1134   58.1033 C   0  0  0  0  0  0  0  0  0  0  0  0
   71.7500   44.4552   58.2397 C   0  0  0  0  0  0  0  0  0  0  0  0
   70.9824   45.6536   58.5270 C   0  0  0  0  0  0  0  0  0  0  0  0
   69.7515   45.6853   58.7196 O   0  0  0  0  0  0  0  0  0  0  0  0
  2  3  1  0
  3  4  2  0
  3  8  1  0
  4  5  1  0
  5  6  2  0
  6  7  1  0
  6 12  1  0
  7  8  2  0
  7  9  1  0
  9 10  1  0
  9 11  2  0
 11  1  1  0
 11 12  1  0
  1 14  1  0
 14 15  1  0
 15 16  1  0
 16 17  1  0
 16 25  1  0
 17 18  2  0
 17 19  1  0
 19 20  1  0
 19 24  2  0
 20 21  2  0
 21 22  1  0
 22 23  2  0
 23 24  1  0
 24 25  1  0
 25 26  2  0
 12 13  2  0
M  CHG  2   9   1  10  -1
M  END
>  <minimizedAffinity>  (630) 
-8.51944

$$$$
data/200k_reference_output/data/smiles/74382.pdb
     RDKit          3D

 23 26  0  0  0  0  0  0  0  0999 V2000
   72.5071   52.0799   54.1497 N   0  0  0  0  0  0  0  0  0  0  0  0
   71.5899   51.0212   54.3754 C   0  0  0  0  0  0  0  0  0  0  0  0
   71.1612   50.7179   55.6109 N   0  0  0  0  0  0  0  0  0  0  0  0
   70.2779   49.6950   55.8072 C   0  0  0  0  0  0  0  0  0  0  0  0
   69.7799   48.9321   54.7969 C   0  0  0  0  0  0  0  0  0  0  0  0
   68.9058   47.9021   55.0313 C   0  0  0  0  0  0  0  0  0  0  0  0
   68.4974   47.1885   53.9162 C   0  0  0  0  0  0  0  0  0  0  0  0
   67.6494   46.1373   54.0447 C   0  0  0  0  0  0  0  0  0  0  0  0
   67.2340   45.3983   52.9774 N   0  0  0  0  0  0  0  0  0  0  0  0
   67.6540   45.6854   51.7321 C   0  0  0  0  0  0  0  0  0  0  0  0
   68.5168   46.7495   51.5746 C   0  0  0  0  0  0  0  0  0  0  0  0
   68.9496   47.5086   52.6335 C   0  0  0  0  0  0  0  0  0  0  0  0
   69.8213   48.5494   52.4441 C   0  0  0  0  0  0  0  0  0  0  0  0
   70.2742   48.8687   51.1386 N   0  0  0  0  0  0  0  0  0  0  0  0
   70.2451   49.2713   53.5236 C   0  0  0  0  0  0  0  0  0  0  0  0
   71.1116   50.2756   53.3381 N   0  0  0  0  0  0  0  0  0  0  0  0
   68.4235   47.5878   56.3376 C   0  0  0  0  0  0  0  0  0  0  0  0
   69.4127   46.6715   57.0300 C   0  0  0  0  0  0  0  0  0  0  0  0
   69.4498   45.3144   56.7907 C   0  0  0  0  0  0  0  0  0  0  0  0
   70.3625   44.5312   57.4262 C   0  0  0  0  0  0  0  0  0  0  0  0
   71.2728   45.0513   58.3202 C   0  0  0  0  0  0  0  0  0  0  0  0
   71.2538   46.3993   58.5747 C   0  0  0  0  0  0  0  0  0  0  0  0
   70.3227   47.1848   57.9245 C   0  0  0  0  0  0  0  0  0  0  0  0
  1  2  1  0
  2  3  2  0
  2 16  1  0
  3  4  1  0
  4  5  2  0
  5  6  1  0
  5 15  1  0
  6 17  1  0
  6  7  2  0
 17 18  1  0
 18 19  2  0
 18 23  1  0
 19 20  1  0
 20 21  2  0
 21 22  1  0
 22 23  2  0
  7  8  1  0
  7 12  1  0
  8  9  2  0
  9 10  1  0
 10 11  2  0
 11 12  1  0
 12 13  2  0
 13 14  1  0
 13 15  1  0
 15 16  2  0
M  END
>  <minimizedAffinity>  (631) 
-8.51904

$$$$
data/reference_output_2/data/smiles/199426.pdb
     RDKit          3D

 25 29  0  0  0  0  0  0  0  0999 V2000
   70.1422   46.3288   57.7700 C   0  0  0  0  0  0  0  0  0  0  0  0
   69.6914   45.1476   57.3236 N   0  0  0  0  0  0  0  0  0  0  0  0
   70.0555   43.9777   57.8616 C   0  0  0  0  0  0  0  0  0  0  0  0
   70.9087   43.9953   58.8941 N   0  0  0  0  0  0  0  0  0  0  0  0
   71.4068   45.1339   59.4008 C   0  0  0  0  0  0  0  0  0  0  0  0
   71.0220   46.3225   58.8340 C   0  0  0  0  0  0  0  0  0  0  0  0
   71.7053   47.3950   59.5632 C   0  0  0  0  0  0  0  0  0  0  0  0
   71.9574   46.8073   60.8618 N   0  0  0  0  0  0  0  0  0  0  0  0
   72.3606   45.4367   60.5292 C   0  0  0  0  0  0  0  0  0  0  0  0
   69.5284   42.7313   57.3275 C   0  0  0  0  0  0  0  0  0  0  0  0
   69.1043   41.7457   58.3847 C   0  0  0  0  0  0  0  0  0  0  0  0
   68.3253   40.7332   57.5722 C   0  0  0  0  0  0  0  0  0  0  0  0
   67.8561   41.4501   56.3182 C   0  0  0  0  0  0  0  0  0  0  0  0
   68.2500   42.9171   56.5391 C   0  0  0  0  0  0  0  0  0  0  0  0
   70.5945   48.7256   57.1756 C   0  0  0  0  0  0  0  0  0  0  0  0
   69.7404   47.5711   57.1779 N   0  0  0  0  0  0  0  0  0  0  0  0
   68.4461   47.6339   56.5709 C   0  0  0  0  0  0  0  0  0  0  0  0
   68.3918   47.0335   55.1966 C   0  0  0  0  0  0  0  0  0  0  0  0
   67.7085   45.9138   54.8462 N   0  0  0  0  0  0  0  0  0  0  0  0
   67.8774   45.6895   53.5593 N   0  0  0  0  0  0  0  0  0  0  0  0
   68.6651   46.6413   53.0319 C   0  0  0  0  0  0  0  0  0  0  0  0
   68.9966   47.4962   54.0574 C   0  0  0  0  0  0  0  0  0  0  0  0
   69.8863   48.5569   53.4922 C   0  0  0  0  0  0  0  0  0  0  0  0
   69.5023   48.5797   52.0314 C   0  0  0  0  0  0  0  0  0  0  0  0
   69.3007   47.1009   51.7470 C   0  0  0  0  0  0  0  0  0  0  0  0
 15 16  1  0
 16 17  1  0
 16  1  1  0
 17 18  1  0
 18 19  2  0
 18 22  1  0
 19 20  1  0
 20 21  1  0
 21 22  2  0
 21 25  1  0
 22 23  1  0
 23 24  1  0
 24 25  1  0
  1  2  2  0
  1  6  1  0
  2  3  1  0
  3 10  1  0
  3  4  2  0
 10 11  1  0
 10 14  1  0
 11 12  1  0
 12 13  1  0
 13 14  1  0
  4  5  1  0
  5  6  2  0
  5  9  1  0
  6  7  1  0
  7  8  1  0
  8  9  1  0
M  CHG  1   8   1
M  END
>  <minimizedAffinity>  (632) 
-8.51872

$$$$
data/200k_reference_output/data/smiles/58984.pdb
     RDKit          3D

 25 29  0  0  0  0  0  0  0  0999 V2000
   75.2329   35.8936   53.7731 N   0  0  0  0  0  0  0  0  0  0  0  0
   75.0706   35.4029   55.0278 C   0  0  0  0  0  0  0  0  0  0  0  0
   73.7338   35.2769   55.3336 C   0  0  0  0  0  0  0  0  0  0  0  0
   73.1018   35.7055   54.2270 N   0  0  0  0  0  0  0  0  0  0  0  0
   73.9947   36.0650   53.3162 N   0  0  0  0  0  0  0  0  0  0  0  0
   73.1104   34.7991   56.5604 C   0  0  0  0  0  0  0  0  0  0  0  0
   73.0573   33.5143   57.0633 C   0  0  0  0  0  0  0  0  0  0  0  0
   72.3872   33.4867   58.2324 N   0  0  0  0  0  0  0  0  0  0  0  0
   71.9895   34.7494   58.5173 C   0  0  0  0  0  0  0  0  0  0  0  0
   71.2983   35.2645   59.5492 N   0  0  0  0  0  0  0  0  0  0  0  0
   71.0409   36.5865   59.5705 C   0  0  0  0  0  0  0  0  0  0  0  0
   71.4619   37.4334   58.5688 C   0  0  0  0  0  0  0  0  0  0  0  0
   72.1716   36.9182   57.5050 C   0  0  0  0  0  0  0  0  0  0  0  0
   72.4315   35.5660   57.4908 C   0  0  0  0  0  0  0  0  0  0  0  0
   76.4562   36.1725   53.0695 C   0  0  0  0  0  0  0  0  0  0  0  0
   77.0652   35.0079   52.3908 C   0  0  0  0  0  0  0  0  0  0  0  0
   78.2474   35.4663   47.9724 C   0  0  0  0  0  0  0  0  0  0  0  0
   77.3793   34.8629   47.0905 C   0  0  0  0  0  0  0  0  0  0  0  0
   76.3187   34.2313   47.6161 N   0  0  0  0  0  0  0  0  0  0  0  0
   76.1034   34.1862   48.9442 C   0  0  0  0  0  0  0  0  0  0  0  0
   75.0973   33.6116   49.6507 N   0  0  0  0  0  0  0  0  0  0  0  0
   75.2928   33.8257   50.9475 C   0  0  0  0  0  0  0  0  0  0  0  0
   76.4653   34.5672   51.1378 C   0  0  0  0  0  0  0  0  0  0  0  0
   76.9466   34.7768   49.8781 C   0  0  0  0  0  0  0  0  0  0  0  0
   78.0518   35.4346   49.3340 C   0  0  0  0  0  0  0  0  0  0  0  0
 17 18  2  0
 17 25  1  0
 18 19  1  0
 19 20  2  0
 20 21  1  0
 20 24  1  0
 21 22  1  0
 22 23  2  0
 23 16  1  0
 23 24  1  0
 16 15  1  0
 15  1  1  0
  1  2  1  0
  1  5  1  0
  2  3  2  0
  3  6  1  0
  3  4  1  0
  6  7  2  0
  6 14  1  0
  7  8  1  0
  8  9  1  0
  9 10  1  0
  9 14  2  0
 10 11  2  0
 11 12  1  0
 12 13  2  0
 13 14  1  0
  4  5  2  0
 24 25  2  0
M  END
>  <minimizedAffinity>  (633) 
-8.51859

$$$$
data/200k_reference_output/data/smiles/13496.pdb
     RDKit          3D

 22 25  0  0  0  0  0  0  0  0999 V2000
   69.2427   47.6804   52.4351 C   0  0  0  0  0  0  0  0  0  0  0  0
   68.8084   46.7996   51.4704 C   0  0  0  0  0  0  0  0  0  0  0  0
   67.9471   45.7908   51.8366 C   0  0  0  0  0  0  0  0  0  0  0  0
   67.5340   45.6724   53.1446 C   0  0  0  0  0  0  0  0  0  0  0  0
   67.9662   46.5531   54.1210 C   0  0  0  0  0  0  0  0  0  0  0  0
   67.7465   46.6934   55.4399 N   0  0  0  0  0  0  0  0  0  0  0  0
   68.4292   47.7426   55.9201 C   0  0  0  0  0  0  0  0  0  0  0  0
   69.0903   48.2718   54.8798 N   0  0  0  0  0  0  0  0  0  0  0  0
   68.8296   47.5637   53.7480 C   0  0  0  0  0  0  0  0  0  0  0  0
   68.4440   48.2240   57.3491 C   0  0  2  0  0  0  0  0  0  0  0  0
   67.2005   49.0526   57.5990 C   0  0  0  0  0  0  0  0  0  0  0  0
   67.6949   50.4479   57.9264 C   0  0  0  0  0  0  0  0  0  0  0  0
   69.0021   50.4439   57.4550 N   0  0  2  0  0  0  0  0  0  0  0  0
   69.6142   49.2101   57.4909 C   0  0  0  0  0  0  0  0  0  0  0  0
   69.6965   51.6209   57.2283 C   0  0  0  0  0  0  0  0  0  0  0  0
   68.9422   52.7372   56.5903 C   0  0  0  0  0  0  0  0  0  0  0  0
   69.1852   52.6241   55.0926 C   0  0  0  0  0  0  0  0  0  0  0  0
   70.3131   51.6259   54.9537 C   0  0  0  0  0  0  0  0  0  0  0  0
   70.9032   51.4774   56.3246 C   0  0  0  0  0  0  0  0  0  0  0  0
   69.7683   49.6444   51.0239 N   0  0  0  0  0  0  0  0  0  0  0  0
   70.1462   48.7425   52.0616 C   0  0  0  0  0  0  0  0  0  0  0  0
   71.2470   48.8620   52.6467 O   0  0  0  0  0  0  0  0  0  0  0  0
 20 21  1  0
 21 22  2  0
 21  1  1  0
  1  2  2  0
  1  9  1  0
  2  3  1  0
  3  4  2  0
  4  5  1  0
  5  6  1  0
  5  9  2  0
  6  7  1  0
 10  7  1  6
  7  8  2  0
 10 11  1  0
 10 14  1  0
 11 12  1  0
 12 13  1  0
 13 15  1  1
 13 14  1  0
 15 16  1  0
 15 19  1  0
 16 17  1  0
 17 18  1  0
 18 19  1  0
  8  9  1  0
M  CHG  2   8   1  13   1
M  END
>  <minimizedAffinity>  (634) 
-8.51823

$$$$
data/200k_reference_output/data/smiles/43525.pdb
     RDKit          3D

 23 25  0  0  0  0  0  0  0  0999 V2000
   70.1898   51.1932   52.8293 O   0  0  0  0  0  0  0  0  0  0  0  0
   70.6435   50.0788   53.1637 C   0  0  0  0  0  0  0  0  0  0  0  0
   71.7105   50.0402   54.0847 N   0  0  0  0  0  0  0  0  0  0  0  0
   70.0585   48.8683   52.5962 C   0  0  0  0  0  0  0  0  0  0  0  0
   70.1434   48.3759   51.3107 C   0  0  0  0  0  0  0  0  0  0  0  0
   69.4784   47.1996   51.2680 N   0  0  0  0  0  0  0  0  0  0  0  0
   68.9552   46.8811   52.4487 C   0  0  0  0  0  0  0  0  0  0  0  0
   68.2066   45.7942   52.9036 C   0  0  0  0  0  0  0  0  0  0  0  0
   67.8149   45.7591   54.2178 C   0  0  0  0  0  0  0  0  0  0  0  0
   68.1658   46.7944   55.0510 C   0  0  0  0  0  0  0  0  0  0  0  0
   68.9146   47.8834   54.6046 C   0  0  0  0  0  0  0  0  0  0  0  0
   69.3132   47.9258   53.2935 C   0  0  0  0  0  0  0  0  0  0  0  0
   72.4615   51.4077   54.8052 S   0  0  0  0  0  0  0  0  0  0  0  0
   73.5674   50.9542   55.7424 O   0  0  0  0  0  0  0  0  0  0  0  0
   73.1345   52.2269   53.7540 O   0  0  0  0  0  0  0  0  0  0  0  0
   71.3308   52.3954   55.6376 N   0  0  0  0  0  0  0  0  0  0  0  0
   70.2192   51.7544   56.2653 C   0  0  0  0  0  0  0  0  0  0  0  0
   70.4129   50.7703   57.2156 C   0  0  0  0  0  0  0  0  0  0  0  0
   69.2888   50.1731   57.7961 C   0  0  0  0  0  0  0  0  0  0  0  0
   68.0252   50.5437   57.4425 C   0  0  0  0  0  0  0  0  0  0  0  0
   66.5936   49.8138   58.1505 Cl  0  0  0  0  0  0  0  0  0  0  0  0
   67.8440   51.5135   56.5037 C   0  0  0  0  0  0  0  0  0  0  0  0
   68.9350   52.1139   55.9206 C   0  0  0  0  0  0  0  0  0  0  0  0
  1  2  2  0
  2  3  1  0
  2  4  1  0
  3 13  1  0
 13 14  2  0
 13 15  2  0
 13 16  1  0
 16 17  1  0
 17 18  2  0
 17 23  1  0
 18 19  1  0
 19 20  2  0
 20 21  1  0
 20 22  1  0
 22 23  2  0
  4  5  2  0
  4 12  1  0
  5  6  1  0
  6  7  1  0
  7  8  1  0
  7 12  2  0
  8  9  2  0
  9 10  1  0
 10 11  2  0
 11 12  1  0
M  END
>  <minimizedAffinity>  (635) 
-8.51779

$$$$
data/200k_reference_output/data/smiles/2260.pdb
     RDKit          3D

 23 25  0  0  0  0  0  0  0  0999 V2000
   68.3294   39.7004   57.0113 O   0  0  0  0  0  0  0  0  0  0  0  0
   68.5862   40.9315   57.0415 C   0  0  0  0  0  0  0  0  0  0  0  0
   67.8995   41.9442   56.2721 N   0  0  0  0  0  0  0  0  0  0  0  0
   68.4804   43.1915   56.5915 C   0  0  0  0  0  0  0  0  0  0  0  0
   68.1123   44.3152   56.0880 N   0  0  0  0  0  0  0  0  0  0  0  0
   69.5121   43.0136   57.5349 N   0  0  0  0  0  0  0  0  0  0  0  0
   69.6030   41.5997   57.8370 C   0  0  0  0  0  0  0  0  0  0  0  0
   70.4596   41.0247   58.6575 C   0  0  0  0  0  0  0  0  0  0  0  0
   70.5342   39.5981   58.9026 C   0  0  0  0  0  0  0  0  0  0  0  0
   69.8154   38.9252   59.8650 C   0  0  0  0  0  0  0  0  0  0  0  0
   69.9259   37.5768   60.1043 C   0  0  0  0  0  0  0  0  0  0  0  0
   70.7944   36.8288   59.3546 C   0  0  0  0  0  0  0  0  0  0  0  0
   70.9668   35.1160   59.6232 Cl  0  0  0  0  0  0  0  0  0  0  0  0
   71.5419   37.4501   58.3716 C   0  0  0  0  0  0  0  0  0  0  0  0
   71.4096   38.7941   58.1580 C   0  0  0  0  0  0  0  0  0  0  0  0
   68.6477   45.5250   56.3731 N   0  0  0  0  0  0  0  0  0  0  0  0
   68.8302   46.4541   55.5458 C   0  0  0  0  0  0  0  0  0  0  0  0
   68.4944   46.3673   54.1650 C   0  0  0  0  0  0  0  0  0  0  0  0
   67.6321   45.4984   53.5889 C   0  0  0  0  0  0  0  0  0  0  0  0
   67.3597   45.4820   52.2052 C   0  0  0  0  0  0  0  0  0  0  0  0
   67.9910   46.3838   51.3917 C   0  0  0  0  0  0  0  0  0  0  0  0
   68.8653   47.2711   51.9522 C   0  0  0  0  0  0  0  0  0  0  0  0
   69.1131   47.2681   53.2880 C   0  0  0  0  0  0  0  0  0  0  0  0
  1  2  2  0
  2  3  1  0
  2  7  1  0
  3  4  1  0
  4  5  2  0
  4  6  1  0
  5 16  1  0
 16 17  2  0
 17 18  1  0
 18 19  2  0
 18 23  1  0
 19 20  1  0
 20 21  2  0
 21 22  1  0
 22 23  2  0
  6  7  1  0
  7  8  2  0
  8  9  1  0
  9 10  2  0
  9 15  1  0
 10 11  1  0
 11 12  2  0
 12 13  1  0
 12 14  1  0
 14 15  2  0
M  CHG  1   5   1
M  END
>  <minimizedAffinity>  (636) 
-8.51635

$$$$
data/200k_reference_output/data/smiles/47689.pdb
     RDKit          3D

 24 26  0  0  0  0  0  0  0  0999 V2000
   69.6883   47.2888   57.3807 C   0  0  0  0  0  0  0  0  0  0  0  0
   70.5353   47.8501   58.1060 O   0  0  0  0  0  0  0  0  0  0  0  0
   69.6502   45.8823   57.2410 N   0  0  0  0  0  0  0  0  0  0  0  0
   68.7016   48.1141   56.6527 C   0  0  0  0  0  0  0  0  0  0  0  0
   67.7780   45.9247   52.2604 C   0  0  0  0  0  0  0  0  0  0  0  0
   68.3134   46.8295   53.2826 C   0  0  0  0  0  0  0  0  0  0  0  0
   68.0697   46.8363   54.5996 N   0  0  0  0  0  0  0  0  0  0  0  0
   68.7238   47.7972   55.2259 N   0  0  0  0  0  0  0  0  0  0  0  0
   69.4306   48.4484   54.2599 C   0  0  0  0  0  0  0  0  0  0  0  0
   70.3099   49.6017   54.5477 C   0  0  0  0  0  0  0  0  0  0  0  0
   69.2074   47.8802   53.0262 C   0  0  0  0  0  0  0  0  0  0  0  0
   69.7174   48.2141   51.7475 N   0  0  0  0  0  0  0  0  0  0  0  0
   70.1215   47.3163   50.9852 O   0  0  0  0  0  0  0  0  0  0  0  0
   69.7977   49.4940   51.2814 O   0  0  0  0  0  0  0  0  0  0  0  0
   70.5511   44.9872   57.8948 C   0  0  0  0  0  0  0  0  0  0  0  0
   70.1229   43.5723   57.9202 C   0  0  0  0  0  0  0  0  0  0  0  0
   70.8771   42.5109   58.3554 C   0  0  0  0  0  0  0  0  0  0  0  0
   70.1248   41.3376   58.2243 C   0  0  0  0  0  0  0  0  0  0  0  0
   70.4031   40.0139   58.5098 C   0  0  0  0  0  0  0  0  0  0  0  0
   69.4407   39.0305   58.2714 C   0  0  0  0  0  0  0  0  0  0  0  0
   68.2195   39.4139   57.7494 C   0  0  0  0  0  0  0  0  0  0  0  0
   67.9684   40.7453   57.4725 C   0  0  0  0  0  0  0  0  0  0  0  0
   68.9128   41.7326   57.7036 C   0  0  0  0  0  0  0  0  0  0  0  0
   68.9420   43.0591   57.5347 N   0  0  0  0  0  0  0  0  0  0  0  0
  5  6  1  0
  6  7  2  0
  6 11  1  0
  7  8  1  0
  8  4  1  0
  8  9  1  0
  4  1  1  0
  1  2  2  0
  1  3  1  0
  3 15  1  0
 15 16  1  0
 16 17  2  0
 16 24  1  0
 17 18  1  0
 18 19  2  0
 18 23  1  0
 19 20  1  0
 20 21  2  0
 21 22  1  0
 22 23  2  0
 23 24  1  0
  9 10  1  0
  9 11  2  0
 11 12  1  0
 12 13  2  0
 12 14  1  0
M  CHG  2  12   1  14  -1
M  END
>  <minimizedAffinity>  (637) 
-8.51626

$$$$
data/200k_reference_output/data/smiles/68829.pdb
     RDKit          3D

 26 28  0  0  0  0  0  0  0  0999 V2000
   67.5608   42.2835   56.5827 C   0  0  0  0  0  0  0  0  0  0  0  0
   69.0334   40.6193   57.9103 C   0  0  0  0  0  0  0  0  0  0  0  0
   68.3895   41.9499   57.7723 C   0  0  0  0  0  0  0  0  0  0  0  0
   68.5921   42.7868   58.7348 N   0  0  0  0  0  0  0  0  0  0  0  0
   69.3879   42.4325   59.8505 N   0  0  0  0  0  0  0  0  0  0  0  0
   69.0468   42.8885   61.1527 C   0  0  0  0  0  0  0  0  0  0  0  0
   68.0271   43.6047   61.2519 O   0  0  0  0  0  0  0  0  0  0  0  0
   69.8319   42.5524   62.3358 C   0  0  0  0  0  0  0  0  0  0  0  0
   69.2520   41.8239   63.3517 C   0  0  0  0  0  0  0  0  0  0  0  0
   69.9634   41.4950   64.4700 N   0  0  0  0  0  0  0  0  0  0  0  0
   71.2463   41.8724   64.6100 C   0  0  0  0  0  0  0  0  0  0  0  0
   71.8096   42.6009   63.5833 C   0  0  0  0  0  0  0  0  0  0  0  0
   71.1119   42.9361   62.4611 N   0  0  0  0  0  0  0  0  0  0  0  0
   68.0731   43.4860   55.8836 C   0  0  0  0  0  0  0  0  0  0  0  0
   69.1979   43.9427   56.2396 O   0  0  0  0  0  0  0  0  0  0  0  0
   67.3925   44.1501   54.8532 N   0  0  0  0  0  0  0  0  0  0  0  0
   67.9034   45.3030   54.1958 C   0  0  0  0  0  0  0  0  0  0  0  0
   67.8716   45.3984   52.8177 C   0  0  0  0  0  0  0  0  0  0  0  0
   68.3572   46.5010   52.1396 C   0  0  0  0  0  0  0  0  0  0  0  0
   68.8930   47.5432   52.8894 C   0  0  0  0  0  0  0  0  0  0  0  0
   69.3802   48.6490   52.2049 C   0  0  0  0  0  0  0  0  0  0  0  0
   69.9121   49.6858   52.9448 C   0  0  0  0  0  0  0  0  0  0  0  0
   69.9609   49.6284   54.3353 C   0  0  0  0  0  0  0  0  0  0  0  0
   69.4708   48.5180   54.9900 C   0  0  0  0  0  0  0  0  0  0  0  0
   68.9338   47.4685   54.2677 C   0  0  0  0  0  0  0  0  0  0  0  0
   68.4382   46.3457   54.9358 C   0  0  0  0  0  0  0  0  0  0  0  0
  2  3  1  0
  3  1  1  0
  3  4  2  0
  1 14  1  0
 14 15  2  0
 14 16  1  0
 16 17  1  0
 17 18  2  0
 17 26  1  0
 18 19  1  0
 19 20  2  0
 20 21  1  0
 20 25  1  0
 21 22  2  0
 22 23  1  0
 23 24  2  0
 24 25  1  0
 25 26  2  0
  4  5  1  0
  5  6  1  0
  6  7  2  0
  6  8  1  0
  8  9  2  0
  8 13  1  0
  9 10  1  0
 10 11  2  0
 11 12  1  0
 12 13  2  0
M  END
>  <minimizedAffinity>  (638) 
-8.51407

$$$$
data/200k_reference_output/data/smiles/62908.pdb
     RDKit          3D

 26 30  0  0  0  0  0  0  0  0999 V2000
   69.8615   48.0375   57.4160 C   0  0  0  0  0  0  0  0  0  0  0  0
   69.6136   46.6006   57.0845 C   0  0  0  0  0  0  0  0  0  0  0  0
   70.1040   45.5170   57.7038 N   0  0  0  0  0  0  0  0  0  0  0  0
   69.6764   44.3922   57.1602 N   0  0  0  0  0  0  0  0  0  0  0  0
   68.8754   44.7580   56.1453 C   0  0  0  0  0  0  0  0  0  0  0  0
   68.2707   43.9417   55.3775 O   0  0  0  0  0  0  0  0  0  0  0  0
   68.8128   46.1442   56.0670 C   0  0  0  0  0  0  0  0  0  0  0  0
   68.0209   46.9334   55.0465 C   0  0  2  0  0  0  0  0  0  0  0  0
   67.2210   46.0100   54.3871 O   0  0  0  0  0  0  0  0  0  0  0  0
   67.5374   45.9631   53.0567 C   0  0  0  0  0  0  0  0  0  0  0  0
   67.0565   45.2457   52.1343 O   0  0  0  0  0  0  0  0  0  0  0  0
   68.5966   46.9374   52.8267 C   0  0  0  0  0  0  0  0  0  0  0  0
   69.3025   47.3440   51.6979 C   0  0  0  0  0  0  0  0  0  0  0  0
   70.2696   48.3167   51.7404 C   0  0  0  0  0  0  0  0  0  0  0  0
   70.5706   48.9299   52.9308 C   0  0  0  0  0  0  0  0  0  0  0  0
   69.8744   48.5305   54.0516 C   0  0  0  0  0  0  0  0  0  0  0  0
   68.8903   47.5433   54.0212 C   0  0  0  0  0  0  0  0  0  0  0  0
   69.9722   43.0494   57.5329 C   0  0  0  0  0  0  0  0  0  0  0  0
   71.2051   42.5601   57.8509 N   0  0  0  0  0  0  0  0  0  0  0  0
   71.0945   41.2534   58.1496 C   0  0  0  0  0  0  0  0  0  0  0  0
   71.9960   40.2686   58.5349 C   0  0  0  0  0  0  0  0  0  0  0  0
   71.5912   38.9924   58.7778 C   0  0  0  0  0  0  0  0  0  0  0  0
   70.2596   38.6580   58.6429 C   0  0  0  0  0  0  0  0  0  0  0  0
   69.3297   39.6017   58.2643 C   0  0  0  0  0  0  0  0  0  0  0  0
   69.7526   40.8899   58.0208 C   0  0  0  0  0  0  0  0  0  0  0  0
   69.1239   42.0114   57.6470 N   0  0  0  0  0  0  0  0  0  0  0  0
  1  2  1  0
  2  3  1  0
  2  7  2  0
  3  4  1  0
  4 18  1  0
  4  5  1  0
 18 19  2  0
 18 26  1  0
 19 20  1  0
 20 21  2  0
 20 25  1  0
 21 22  1  0
 22 23  2  0
 23 24  1  0
 24 25  2  0
 25 26  1  0
  5  6  2  0
  5  7  1  0
  8  7  1  1
  8  9  1  0
  8 17  1  0
  9 10  1  0
 10 11  2  0
 10 12  1  0
 12 13  1  0
 12 17  2  0
 13 14  2  0
 14 15  1  0
 15 16  2  0
 16 17  1  0
M  CHG  1  19   1
M  END
>  <minimizedAffinity>  (639) 
-8.51365

$$$$
data/200k_reference_output/data/smiles/5057.pdb
     RDKit          3D

 23 25  0  0  0  0  0  0  0  0999 V2000
   70.3952   49.6256   53.6494 C   0  0  0  0  0  0  0  0  0  0  0  0
   70.2932   50.8271   53.0729 N   0  0  0  0  0  0  0  0  0  0  0  0
   71.1656   51.6504   53.6243 N   0  0  0  0  0  0  0  0  0  0  0  0
   71.8643   51.0172   54.5760 C   0  0  0  0  0  0  0  0  0  0  0  0
   71.3709   49.7433   54.5828 N   0  0  0  0  0  0  0  0  0  0  0  0
   70.4701   48.6297   51.0904 N   0  0  0  0  0  0  0  0  0  0  0  0
   69.6653   47.9399   52.0277 C   0  0  0  0  0  0  0  0  0  0  0  0
   68.9694   46.8265   51.6342 C   0  0  0  0  0  0  0  0  0  0  0  0
   68.1886   46.1602   52.5577 C   0  0  0  0  0  0  0  0  0  0  0  0
   68.1323   46.6366   53.8440 C   0  0  0  0  0  0  0  0  0  0  0  0
   68.8368   47.7620   54.2389 C   0  0  0  0  0  0  0  0  0  0  0  0
   69.6099   48.4258   53.3348 C   0  0  0  0  0  0  0  0  0  0  0  0
   73.1601   51.6574   55.6258 S   0  0  0  0  0  0  0  0  0  0  0  0
   72.3723   52.5018   57.0230 C   0  0  0  0  0  0  0  0  0  0  0  0
   71.1621   51.6664   57.3587 C   0  0  0  0  0  0  0  0  0  0  0  0
   71.3746   50.8507   58.3244 O   0  0  0  0  0  0  0  0  0  0  0  0
   69.9375   51.7715   56.6909 N   0  0  0  0  0  0  0  0  0  0  0  0
   68.8554   50.9472   57.0786 C   0  0  0  0  0  0  0  0  0  0  0  0
   68.9993   49.5817   57.2130 C   0  0  0  0  0  0  0  0  0  0  0  0
   67.9523   48.7648   57.5926 C   0  0  0  0  0  0  0  0  0  0  0  0
   66.6833   49.2784   57.8631 C   0  0  0  0  0  0  0  0  0  0  0  0
   66.5442   50.6463   57.7274 C   0  0  0  0  0  0  0  0  0  0  0  0
   67.5951   51.4493   57.3494 C   0  0  0  0  0  0  0  0  0  0  0  0
  6  7  1  0
  7  8  2  0
  7 12  1  0
  8  9  1  0
  9 10  2  0
 10 11  1  0
 11 12  2  0
 12  1  1  0
  1  2  2  0
  1  5  1  0
  2  3  1  0
  3  4  2  0
  4 13  1  0
  4  5  1  0
 13 14  1  0
 14 15  1  0
 15 16  2  0
 15 17  1  0
 17 18  1  0
 18 19  2  0
 18 23  1  0
 19 20  1  0
 20 21  2  0
 21 22  1  0
 22 23  2  0
M  END
>  <minimizedAffinity>  (640) 
-8.51309

$$$$
data/200k_reference_output/data/smiles/43187.pdb
     RDKit          3D

 25 27  0  0  0  0  0  0  0  0999 V2000
   67.1921   41.6137   56.2279 C   0  0  0  0  0  0  0  0  0  0  0  0
   68.2361   42.5749   56.6422 C   0  0  0  0  0  0  0  0  0  0  0  0
   69.2714   42.1089   57.3229 C   0  0  0  0  0  0  0  0  0  0  0  0
   70.3017   43.0783   57.7283 C   0  0  0  0  0  0  0  0  0  0  0  0
   70.1666   44.2927   57.4222 O   0  0  0  0  0  0  0  0  0  0  0  0
   71.4061   42.5778   58.4534 N   0  0  0  0  0  0  0  0  0  0  0  0
   71.5760   41.2106   58.8088 C   0  0  0  0  0  0  0  0  0  0  0  0
   72.6060   40.8419   59.4668 O   0  0  0  0  0  0  0  0  0  0  0  0
   70.5943   40.2547   58.4277 N   0  0  0  0  0  0  0  0  0  0  0  0
   69.4589   40.7151   57.6917 C   0  0  0  0  0  0  0  0  0  0  0  0
   68.5647   39.8758   57.3401 O   0  0  0  0  0  0  0  0  0  0  0  0
   70.7194   38.8779   58.7591 C   0  0  0  0  0  0  0  0  0  0  0  0
   71.5778   38.0673   58.0620 C   0  0  0  0  0  0  0  0  0  0  0  0
   71.7056   36.7306   58.3771 C   0  0  0  0  0  0  0  0  0  0  0  0
   70.9693   36.1607   59.4105 C   0  0  0  0  0  0  0  0  0  0  0  0
   70.1138   36.9814   60.1008 C   0  0  0  0  0  0  0  0  0  0  0  0
   69.9879   38.3145   59.7847 C   0  0  0  0  0  0  0  0  0  0  0  0
   68.1399   43.9783   56.3235 N   0  0  0  0  0  0  0  0  0  0  0  0
   67.6327   44.3252   55.0715 N   0  0  0  0  0  0  0  0  0  0  0  0
   68.0744   45.4570   54.3450 C   0  0  0  0  0  0  0  0  0  0  0  0
   67.9337   45.5082   52.9658 C   0  0  0  0  0  0  0  0  0  0  0  0
   68.3523   46.5919   52.2249 C   0  0  0  0  0  0  0  0  0  0  0  0
   68.9358   47.6773   52.8646 C   0  0  0  0  0  0  0  0  0  0  0  0
   69.0714   47.6154   54.2335 C   0  0  0  0  0  0  0  0  0  0  0  0
   68.6583   46.5410   54.9866 C   0  0  0  0  0  0  0  0  0  0  0  0
  1  2  1  0
  2 18  1  0
  2  3  2  0
 18 19  1  0
 19 20  1  0
 20 21  2  0
 20 25  1  0
 21 22  1  0
 22 23  2  0
 23 24  1  0
 24 25  2  0
  3  4  1  0
  3 10  1  0
  4  5  2  0
  4  6  1  0
  6  7  1  0
  7  8  2  0
  7  9  1  0
  9 12  1  0
  9 10  1  0
 12 13  2  0
 12 17  1  0
 13 14  1  0
 14 15  2  0
 15 16  1  0
 16 17  2  0
 10 11  2  0
M  END
>  <minimizedAffinity>  (641) 
-8.51279

$$$$
data/reference_output_2/data/smiles/94070.pdb
     RDKit          3D

 25 27  0  0  0  0  0  0  0  0999 V2000
   68.8509   42.9086   57.1809 C   0  0  0  0  0  0  0  0  0  0  0  0
   69.2056   44.1826   56.7828 N   0  0  0  0  0  0  0  0  0  0  0  0
   68.4848   44.5710   55.7651 N   0  0  0  0  0  0  0  0  0  0  0  0
   67.6739   43.5805   55.4961 N   0  0  0  0  0  0  0  0  0  0  0  0
   67.8641   42.5253   56.3495 C   0  0  0  0  0  0  0  0  0  0  0  0
   68.5839   45.8389   55.0872 C   0  0  0  0  0  0  0  0  0  0  0  0
   69.0438   46.9578   55.7421 C   0  0  0  0  0  0  0  0  0  0  0  0
   69.1374   48.1890   55.0848 C   0  0  0  0  0  0  0  0  0  0  0  0
   68.7695   48.3120   53.7635 C   0  0  0  0  0  0  0  0  0  0  0  0
   68.3091   47.1908   53.1107 C   0  0  0  0  0  0  0  0  0  0  0  0
   68.2169   45.9584   53.7694 C   0  0  0  0  0  0  0  0  0  0  0  0
   67.7692   44.8489   53.1481 F   0  0  0  0  0  0  0  0  0  0  0  0
   70.5551   41.3194   58.2144 N   0  0  0  0  0  0  0  0  0  0  0  0
   69.5019   42.2058   58.2801 C   0  0  0  0  0  0  0  0  0  0  0  0
   69.0346   42.4398   59.4564 O   0  0  0  0  0  0  0  0  0  0  0  0
   71.2202   40.6152   59.2701 C   0  0  0  0  0  0  0  0  0  0  0  0
   69.0365   38.6432   60.1098 C   0  0  0  0  0  0  0  0  0  0  0  0
   70.2867   38.3314   59.4022 C   0  0  0  0  0  0  0  0  0  0  0  0
   70.4605   36.9756   59.0927 C   0  0  0  0  0  0  0  0  0  0  0  0
   71.6101   36.4944   58.4955 C   0  0  0  0  0  0  0  0  0  0  0  0
   72.6108   37.3649   58.1954 C   0  0  0  0  0  0  0  0  0  0  0  0
   72.4534   38.6897   58.4893 C   0  0  0  0  0  0  0  0  0  0  0  0
   71.2818   39.1848   59.0978 C   0  0  0  0  0  0  0  0  0  0  0  0
   67.0645   41.2609   56.2481 C   0  0  0  0  0  0  0  0  0  0  0  0
   67.7000   40.3102   55.4643 O   0  0  0  0  0  0  0  0  0  0  0  0
 17 18  1  0
 18 19  2  0
 18 23  1  0
 19 20  1  0
 20 21  2  0
 21 22  1  0
 22 23  2  0
 23 16  1  0
 16 13  1  0
 13 14  1  0
 14 15  2  0
 14  1  1  0
  1  2  2  0
  1  5  1  0
  2  3  1  0
  3  6  1  0
  3  4  1  0
  6  7  2  0
  6 11  1  0
  7  8  1  0
  8  9  2  0
  9 10  1  0
 10 11  2  0
 11 12  1  0
  4  5  2  0
  5 24  1  0
 24 25  1  0
M  END
>  <minimizedAffinity>  (642) 
-8.51172

$$$$
data/reference_output_2/data/smiles/151455.pdb
     RDKit          3D

 26 29  0  0  0  0  0  0  0  0999 V2000
   71.5451   48.0045   58.6790 C   0  0  0  0  0  0  0  0  0  0  0  0
   71.8357   46.6022   58.4884 N   0  0  0  0  0  0  0  0  0  0  0  0
   70.8992   45.5490   58.2218 C   0  0  0  0  0  0  0  0  0  0  0  0
   69.6633   45.6418   58.1048 O   0  0  0  0  0  0  0  0  0  0  0  0
   71.6415   44.2948   58.1025 C   0  0  0  0  0  0  0  0  0  0  0  0
   71.3690   42.9649   57.8633 C   0  0  0  0  0  0  0  0  0  0  0  0
   72.4044   42.0166   57.8236 C   0  0  0  0  0  0  0  0  0  0  0  0
   73.7255   42.3509   58.0179 C   0  0  0  0  0  0  0  0  0  0  0  0
   73.9874   43.6914   58.2574 C   0  0  0  0  0  0  0  0  0  0  0  0
   75.2736   44.1428   58.4660 C   0  0  0  0  0  0  0  0  0  0  0  0
   75.4604   45.4900   58.6989 C   0  0  0  0  0  0  0  0  0  0  0  0
   74.4064   46.3991   58.7304 C   0  0  0  0  0  0  0  0  0  0  0  0
   73.1138   45.9535   58.5221 C   0  0  0  0  0  0  0  0  0  0  0  0
   72.9603   44.6134   58.2943 C   0  0  0  0  0  0  0  0  0  0  0  0
   70.7649   49.2487   56.7241 C   0  0  0  0  0  0  0  0  0  0  0  0
   70.4971   48.4849   57.7485 C   0  0  0  0  0  0  0  0  0  0  0  0
   69.7624   49.7601   55.7599 C   0  0  0  0  0  0  0  0  0  0  0  0
   68.1544   46.1576   52.8311 C   0  0  0  0  0  0  0  0  0  0  0  0
   69.0207   47.3280   53.0606 C   0  0  0  0  0  0  0  0  0  0  0  0
   69.0072   48.0071   54.2787 C   0  0  0  0  0  0  0  0  0  0  0  0
   69.7859   49.0703   54.5028 N   0  0  0  0  0  0  0  0  0  0  0  0
   70.5968   49.4821   53.5213 C   0  0  0  0  0  0  0  0  0  0  0  0
   71.3691   50.4712   53.6304 O   0  0  0  0  0  0  0  0  0  0  0  0
   70.6353   48.8388   52.3160 N   0  0  0  0  0  0  0  0  0  0  0  0
   69.8571   47.7666   52.0708 C   0  0  0  0  0  0  0  0  0  0  0  0
   69.9002   47.1843   50.9611 O   0  0  0  0  0  0  0  0  0  0  0  0
 18 19  1  0
 19 20  2  0
 19 25  1  0
 20 21  1  0
 21 17  1  0
 21 22  1  0
 17 15  1  0
 15 16  2  0
 16  1  1  0
  1  2  1  0
  2  3  1  0
  2 13  1  0
  3  4  2  0
  3  5  1  0
  5  6  1  0
  5 14  2  0
  6  7  2  0
  7  8  1  0
  8  9  2  0
  9 10  1  0
  9 14  1  0
 10 11  2  0
 11 12  1  0
 12 13  2  0
 13 14  1  0
 22 23  2  0
 22 24  1  0
 24 25  1  0
 25 26  2  0
M  END
>  <minimizedAffinity>  (643) 
-8.51129

$$$$
data/200k_reference_output/data/smiles/10748.pdb
     RDKit          3D

 23 24  0  0  0  0  0  0  0  0999 V2000
   68.4541   51.0330   56.6690 C   0  0  0  0  0  0  0  0  0  0  0  0
   67.3079   51.0491   57.4353 C   0  0  0  0  0  0  0  0  0  0  0  0
   66.6819   49.8981   57.8691 C   0  0  0  0  0  0  0  0  0  0  0  0
   67.2144   48.6577   57.5275 C   0  0  0  0  0  0  0  0  0  0  0  0
   68.3580   48.6179   56.7635 C   0  0  0  0  0  0  0  0  0  0  0  0
   68.9566   49.7775   56.3485 C   0  0  0  0  0  0  0  0  0  0  0  0
   68.8782   52.4257   54.7287 C   0  0  0  0  0  0  0  0  0  0  0  0
   69.1269   52.2701   56.2030 C   0  0  2  0  0  0  0  0  0  0  0  0
   70.5657   52.1808   56.5331 C   0  0  0  0  0  0  0  0  0  0  0  0
   71.0346   52.1556   57.6978 O   0  0  0  0  0  0  0  0  0  0  0  0
   71.4940   52.1195   55.4602 N   0  0  0  0  0  0  0  0  0  0  0  0
   72.8613   52.0334   55.7375 N   0  0  0  0  0  0  0  0  0  0  0  0
   73.7348   51.1059   55.1259 C   0  0  0  0  0  0  0  0  0  0  0  0
   73.2325   50.3148   54.2799 O   0  0  0  0  0  0  0  0  0  0  0  0
   75.1364   51.0403   55.4303 N   0  0  0  0  0  0  0  0  0  0  0  0
   75.9446   50.1306   54.8175 O   0  0  0  0  0  0  0  0  0  0  0  0
   68.9748   47.3289   56.3659 C   0  0  0  0  0  0  0  0  0  0  0  0
   68.7838   47.1179   54.9016 C   0  0  0  0  0  0  0  0  0  0  0  0
   68.0183   46.0570   54.4632 C   0  0  0  0  0  0  0  0  0  0  0  0
   67.8548   45.8813   53.0935 C   0  0  0  0  0  0  0  0  0  0  0  0
   68.4365   46.7358   52.1792 C   0  0  0  0  0  0  0  0  0  0  0  0
   69.1967   47.7876   52.6292 C   0  0  0  0  0  0  0  0  0  0  0  0
   69.3635   47.9697   53.9888 C   0  0  0  0  0  0  0  0  0  0  0  0
  8  7  1  6
  8  9  1  0
  8  1  1  0
  9 10  2  0
  9 11  1  0
 11 12  1  0
 12 13  1  0
 13 14  2  0
 13 15  1  0
 15 16  1  0
  1  2  2  0
  1  6  1  0
  2  3  1  0
  3  4  2  0
  4  5  1  0
  5 17  1  0
  5  6  2  0
 17 18  1  0
 18 19  2  0
 18 23  1  0
 19 20  1  0
 20 21  2  0
 21 22  1  0
 22 23  2  0
M  END
>  <minimizedAffinity>  (644) 
-8.51082

$$$$
data/200k_reference_output/data/smiles/58641.pdb
     RDKit          3D

 25 27  0  0  0  0  0  0  0  0999 V2000
   72.5995   35.6757   57.2986 C   0  0  0  0  0  0  0  0  0  0  0  0
   72.3291   34.6269   58.1435 C   0  0  0  0  0  0  0  0  0  0  0  0
   71.5605   34.8023   59.2996 C   0  0  0  0  0  0  0  0  0  0  0  0
   71.0768   36.0497   59.5786 C   0  0  0  0  0  0  0  0  0  0  0  0
   71.3292   37.1399   58.7466 C   0  0  0  0  0  0  0  0  0  0  0  0
   72.0831   36.9243   57.6298 C   0  0  0  0  0  0  0  0  0  0  0  0
   75.5174   34.9503   55.0269 C   0  0  0  0  0  0  0  0  0  0  0  0
   74.9175   35.1431   53.7856 C   0  0  0  0  0  0  0  0  0  0  0  0
   73.5885   35.5023   53.6797 C   0  0  0  0  0  0  0  0  0  0  0  0
   72.8453   35.6721   54.8389 C   0  0  0  0  0  0  0  0  0  0  0  0
   73.3971   35.4925   56.1000 C   0  0  0  0  0  0  0  0  0  0  0  0
   74.7289   35.1342   56.1334 C   0  0  0  0  0  0  0  0  0  0  0  0
   77.7714   35.2381   54.2503 C   0  0  0  0  0  0  0  0  0  0  0  0
   76.8677   34.5862   55.1178 O   0  0  0  0  0  0  0  0  0  0  0  0
   70.7697   38.4638   59.0656 C   0  0  0  0  0  0  0  0  0  0  0  0
   69.3153   38.6204   58.8519 C   0  0  0  0  0  0  0  0  0  0  0  0
   68.8503   39.7011   58.0029 C   0  0  0  0  0  0  0  0  0  0  0  0
   69.2191   40.9975   58.4179 C   0  0  0  0  0  0  0  0  0  0  0  0
   68.8402   42.1020   57.6979 C   0  0  0  0  0  0  0  0  0  0  0  0
   69.1855   43.2660   58.0941 O   0  0  0  0  0  0  0  0  0  0  0  0
   68.1075   41.9876   56.5783 N   0  0  0  0  0  0  0  0  0  0  0  0
   67.7227   43.1754   55.8402 C   0  0  0  0  0  0  0  0  0  0  0  0
   67.7692   40.7417   56.2041 C   0  0  0  0  0  0  0  0  0  0  0  0
   66.9862   40.6266   55.0073 N   0  0  0  0  0  0  0  0  0  0  0  0
   68.1313   39.6498   56.8960 N   0  0  0  0  0  0  0  0  0  0  0  0
 13 14  1  0
 14  7  1  0
  7  8  2  0
  7 12  1  0
  8  9  1  0
  9 10  2  0
 10 11  1  0
 11  1  1  0
 11 12  2  0
  1  2  2  0
  1  6  1  0
  2  3  1  0
  3  4  2  0
  4  5  1  0
  5 15  1  0
  5  6  2  0
 15 16  1  0
 16 17  1  0
 17 18  2  0
 17 25  1  0
 18 19  1  0
 19 20  2  0
 19 21  1  0
 21 22  1  0
 21 23  1  0
 23 24  1  0
 23 25  2  0
M  END
>  <minimizedAffinity>  (645) 
-8.51065

$$$$
data/200k_reference_output/data/smiles/29115.pdb
     RDKit          3D

 23 24  0  0  0  0  0  0  0  0999 V2000
   68.5055   45.5148   55.6644 C   0  0  0  0  0  0  0  0  0  0  0  0
   69.0850   47.7506   52.7093 C   0  0  0  0  0  0  0  0  0  0  0  0
   68.4436   47.0574   51.7222 C   0  0  0  0  0  0  0  0  0  0  0  0
   67.7940   45.8536   52.0190 C   0  0  0  0  0  0  0  0  0  0  0  0
   67.8008   45.3691   53.2958 C   0  0  0  0  0  0  0  0  0  0  0  0
   68.4488   46.0708   54.2876 C   0  0  0  0  0  0  0  0  0  0  0  0
   69.0750   47.2405   53.9788 C   0  0  0  0  0  0  0  0  0  0  0  0
   69.9021   49.2494   52.3792 S   0  0  0  0  0  0  0  0  0  0  0  0
   71.3575   49.1569   52.8234 O   0  0  0  0  0  0  0  0  0  0  0  0
   69.9138   49.5776   50.9205 O   0  0  0  0  0  0  0  0  0  0  0  0
   70.2484   51.4870   53.6924 C   0  0  0  0  0  0  0  0  0  0  0  0
   69.2261   50.5515   53.2891 N   0  0  0  0  0  0  0  0  0  0  0  0
   68.9378   46.3824   56.6913 N   0  0  0  0  0  0  0  0  0  0  0  0
   68.4697   47.6322   57.0948 C   0  0  0  0  0  0  0  0  0  0  0  0
   69.2742   48.7412   57.2283 C   0  0  0  0  0  0  0  0  0  0  0  0
   68.7569   49.9609   57.6268 C   0  0  0  0  0  0  0  0  0  0  0  0
   67.3924   50.1095   57.9084 C   0  0  0  0  0  0  0  0  0  0  0  0
   66.6168   48.9807   57.7639 C   0  0  0  0  0  0  0  0  0  0  0  0
   67.1410   47.8376   57.3839 N   0  0  0  0  0  0  0  0  0  0  0  0
   69.6408   51.1404   57.7535 C   0  0  0  0  0  0  0  0  0  0  0  0
   68.9701   52.3224   57.4541 F   0  0  0  0  0  0  0  0  0  0  0  0
   70.7508   51.0843   56.9740 F   0  0  0  0  0  0  0  0  0  0  0  0
   70.0758   51.2695   59.0741 F   0  0  0  0  0  0  0  0  0  0  0  0
 11 12  1  0
 12  8  1  0
  8  9  2  0
  8 10  2  0
  8  2  1  0
  2  3  2  0
  2  7  1  0
  3  4  1  0
  4  5  2  0
  5  6  1  0
  6  1  1  0
  6  7  2  0
  1 13  1  0
 13 14  1  0
 14 15  2  0
 14 19  1  0
 15 16  1  0
 16 20  1  0
 16 17  2  0
 20 21  1  0
 20 22  1  0
 20 23  1  0
 17 18  1  0
 18 19  2  0
M  END
>  <minimizedAffinity>  (646) 
-8.51042

$$$$
data/200k_reference_output/data/smiles/57717.pdb
     RDKit          3D

 23 24  0  0  0  0  0  0  0  0999 V2000
   70.0360   50.9082   52.8776 O   0  0  0  0  0  0  0  0  0  0  0  0
   70.4978   49.8016   53.3082 C   0  0  0  0  0  0  0  0  0  0  0  0
   71.7775   49.8655   53.9242 N   0  0  0  0  0  0  0  0  0  0  0  0
   69.7395   48.5683   53.1640 C   0  0  0  0  0  0  0  0  0  0  0  0
   69.4213   48.0264   51.9451 C   0  0  0  0  0  0  0  0  0  0  0  0
   68.6870   46.8449   51.8381 C   0  0  0  0  0  0  0  0  0  0  0  0
   68.2757   46.2133   52.9809 C   0  0  0  0  0  0  0  0  0  0  0  0
   68.5721   46.7233   54.2498 C   0  0  0  0  0  0  0  0  0  0  0  0
   69.2923   47.8805   54.3024 C   0  0  0  0  0  0  0  0  0  0  0  0
   68.1333   46.0525   55.4236 N   0  0  0  0  0  0  0  0  0  0  0  0
   67.9469   46.7253   56.4537 O   0  0  0  0  0  0  0  0  0  0  0  0
   67.9276   44.6963   55.3916 O   0  0  0  0  0  0  0  0  0  0  0  0
   72.4379   51.0567   54.0303 N   0  0  0  0  0  0  0  0  0  0  0  0
   72.6412   51.8409   54.9796 C   0  0  0  0  0  0  0  0  0  0  0  0
   73.6038   53.3561   54.6422 S   0  0  0  0  0  0  0  0  0  0  0  0
   72.1600   51.5996   56.2818 N   0  0  0  0  0  0  0  0  0  0  0  0
   70.7850   51.5274   56.5733 C   0  0  0  0  0  0  0  0  0  0  0  0
   69.9270   52.5579   56.2850 C   0  0  0  0  0  0  0  0  0  0  0  0
   68.5733   52.4479   56.5768 C   0  0  0  0  0  0  0  0  0  0  0  0
   68.0644   51.2938   57.1662 C   0  0  0  0  0  0  0  0  0  0  0  0
   66.7555   51.1689   57.4542 F   0  0  0  0  0  0  0  0  0  0  0  0
   68.9297   50.2506   57.4593 C   0  0  0  0  0  0  0  0  0  0  0  0
   70.2650   50.3943   57.1567 C   0  0  0  0  0  0  0  0  0  0  0  0
  1  2  2  0
  2  3  1  0
  2  4  1  0
  3 13  1  0
 13 14  2  0
 14 15  1  0
 14 16  1  0
 16 17  1  0
 17 18  2  0
 17 23  1  0
 18 19  1  0
 19 20  2  0
 20 21  1  0
 20 22  1  0
 22 23  2  0
  4  5  2  0
  4  9  1  0
  5  6  1  0
  6  7  2  0
  7  8  1  0
  8 10  1  0
  8  9  2  0
 10 11  2  0
 10 12  1  0
M  CHG  3  10   1  12  -1  13   1
M  END
>  <minimizedAffinity>  (647) 
-8.51038

$$$$
data/reference_output_2/data/smiles/88104.pdb
     RDKit          3D

 25 27  0  0  0  0  0  0  0  0999 V2000
   74.0259   51.4144   55.5517 N   0  0  0  0  0  0  0  0  0  0  0  0
   73.1437   50.9648   54.5349 C   0  0  0  0  0  0  0  0  0  0  0  0
   73.7103   50.3373   53.5765 O   0  0  0  0  0  0  0  0  0  0  0  0
   76.1128   50.1263   56.0068 C   0  0  0  0  0  0  0  0  0  0  0  0
   75.4400   49.1706   56.4775 O   0  0  0  0  0  0  0  0  0  0  0  0
   75.4141   51.2313   55.5349 N   0  0  0  0  0  0  0  0  0  0  0  0
   80.4193   49.7649   55.9816 C   0  0  0  0  0  0  0  0  0  0  0  0
   79.5890   48.7621   55.4960 C   0  0  0  0  0  0  0  0  0  0  0  0
   78.2176   48.8797   55.5073 C   0  0  0  0  0  0  0  0  0  0  0  0
   77.5722   49.9948   55.9954 C   0  0  0  0  0  0  0  0  0  0  0  0
   78.3845   50.9994   56.4819 C   0  0  0  0  0  0  0  0  0  0  0  0
   79.7681   50.8920   56.4779 C   0  0  0  0  0  0  0  0  0  0  0  0
   82.6205   48.6244   56.2768 C   0  0  0  0  0  0  0  0  0  0  0  0
   81.7891   49.6683   55.9778 O   0  0  0  0  0  0  0  0  0  0  0  0
   71.7036   51.1453   54.4811 C   0  0  0  0  0  0  0  0  0  0  0  0
   70.8755   50.0005   54.1205 C   0  0  0  0  0  0  0  0  0  0  0  0
   70.7737   49.4653   52.8669 N   0  0  0  0  0  0  0  0  0  0  0  0
   69.9377   48.4166   52.8601 C   0  0  0  0  0  0  0  0  0  0  0  0
   69.5088   47.5434   51.8669 C   0  0  0  0  0  0  0  0  0  0  0  0
   68.6382   46.5224   52.1233 C   0  0  0  0  0  0  0  0  0  0  0  0
   68.1809   46.3730   53.4244 C   0  0  0  0  0  0  0  0  0  0  0  0
   68.6075   47.2398   54.3999 C   0  0  0  0  0  0  0  0  0  0  0  0
   69.4823   48.2735   54.1660 C   0  0  0  0  0  0  0  0  0  0  0  0
   70.0792   49.2541   54.8790 N   0  0  0  0  0  0  0  0  0  0  0  0
   69.7942   49.4172   56.3020 C   0  0  0  0  0  0  0  0  0  0  0  0
 13 14  1  0
 14  7  1  0
  7  8  2  0
  7 12  1  0
  8  9  1  0
  9 10  2  0
 10  4  1  0
 10 11  1  0
  4  5  2  0
  4  6  1  0
  6  1  1  0
  1  2  1  0
  2  3  2  0
  2 15  1  0
 15 16  1  0
 16 17  2  0
 16 24  1  0
 17 18  1  0
 18 19  2  0
 18 23  1  0
 19 20  1  0
 20 21  2  0
 21 22  1  0
 22 23  2  0
 23 24  1  0
 24 25  1  0
 11 12  2  0
M  END
>  <minimizedAffinity>  (648) 
-8.50965

$$$$
data/200k_reference_output/data/smiles/26689.pdb
     RDKit          3D

 24 25  0  0  0  0  0  0  0  0999 V2000
   70.8177   44.1276   58.5969 C   0  0  0  0  0  0  0  0  0  0  0  0
   70.6688   46.5184   57.2581 O   0  0  0  0  0  0  0  0  0  0  0  0
   69.6519   45.7968   57.1188 C   0  0  0  0  0  0  0  0  0  0  0  0
   68.5486   46.2132   56.3316 N   0  0  0  0  0  0  0  0  0  0  0  0
   69.6941   44.5404   57.8049 N   0  0  0  0  0  0  0  0  0  0  0  0
   68.4903   47.4805   55.6338 C   0  0  0  0  0  0  0  0  0  0  0  0
   68.6014   47.2537   54.1880 C   0  0  0  0  0  0  0  0  0  0  0  0
   69.4412   48.0951   53.4533 C   0  0  0  0  0  0  0  0  0  0  0  0
   69.6083   47.9736   52.0896 C   0  0  0  0  0  0  0  0  0  0  0  0
   68.9346   47.0107   51.4585 N   0  0  0  0  0  0  0  0  0  0  0  0
   68.1041   46.1594   52.0923 C   0  0  0  0  0  0  0  0  0  0  0  0
   67.9409   46.2888   53.4756 C   0  0  0  0  0  0  0  0  0  0  0  0
   71.2625   42.7182   58.3870 C   0  0  2  0  0  0  0  0  0  0  0  0
   72.2424   42.7525   57.3706 O   0  0  0  0  0  0  0  0  0  0  0  0
   70.1414   41.8255   57.9984 C   0  0  0  0  0  0  0  0  0  0  0  0
   70.1207   40.5194   58.4437 C   0  0  0  0  0  0  0  0  0  0  0  0
   69.0791   39.6765   58.0847 C   0  0  0  0  0  0  0  0  0  0  0  0
   68.0587   40.1342   57.2833 C   0  0  0  0  0  0  0  0  0  0  0  0
   68.0632   41.4482   56.8260 C   0  0  0  0  0  0  0  0  0  0  0  0
   69.1062   42.2497   57.2002 C   0  0  0  0  0  0  0  0  0  0  0  0
   66.9361   41.9108   55.9551 C   0  0  0  0  0  0  0  0  0  0  0  0
   66.7429   41.0004   54.9234 F   0  0  0  0  0  0  0  0  0  0  0  0
   67.3167   43.1278   55.4179 F   0  0  0  0  0  0  0  0  0  0  0  0
   65.7877   42.0631   56.7053 F   0  0  0  0  0  0  0  0  0  0  0  0
  2  3  2  0
  3  4  1  0
  3  5  1  0
  4  6  1  0
  6  7  1  0
  7  8  2  0
  7 12  1  0
  8  9  1  0
  9 10  2  0
 10 11  1  0
 11 12  2  0
  5  1  1  0
  1 13  1  0
 13 14  1  6
 13 15  1  0
 15 16  2  0
 15 20  1  0
 16 17  1  0
 17 18  2  0
 18 19  1  0
 19 21  1  0
 19 20  2  0
 21 22  1  0
 21 23  1  0
 21 24  1  0
M  END
>  <minimizedAffinity>  (649) 
-8.50959

$$$$
data/200k_reference_output/data/smiles/67096.pdb
     RDKit          3D

 22 24  0  0  0  0  0  0  0  0999 V2000
   69.0482   48.0775   54.3761 C   0  0  0  0  0  0  0  0  0  0  0  0
   68.8173   49.2409   55.0811 C   0  0  0  0  0  0  0  0  0  0  0  0
   69.0272   50.4917   54.5561 C   0  0  0  0  0  0  0  0  0  0  0  0
   69.4911   50.5818   53.2613 C   0  0  0  0  0  0  0  0  0  0  0  0
   69.7302   49.4189   52.5331 C   0  0  0  0  0  0  0  0  0  0  0  0
   70.1689   49.2155   51.2937 N   0  0  0  0  0  0  0  0  0  0  0  0
   70.2405   47.9253   51.0266 N   0  0  0  0  0  0  0  0  0  0  0  0
   69.8424   47.2376   52.1088 C   0  0  0  0  0  0  0  0  0  0  0  0
   69.5124   48.1625   53.0806 C   0  0  0  0  0  0  0  0  0  0  0  0
   69.3694   46.4589   56.1856 C   0  0  0  0  0  0  0  0  0  0  0  0
   69.1533   45.2409   56.7107 N   0  0  0  0  0  0  0  0  0  0  0  0
   68.4272   44.2954   56.1039 C   0  0  0  0  0  0  0  0  0  0  0  0
   68.2093   43.0002   56.6854 N   0  0  0  0  0  0  0  0  0  0  0  0
   67.8929   44.5986   54.8991 N   0  0  0  0  0  0  0  0  0  0  0  0
   68.0608   45.7928   54.3038 C   0  0  0  0  0  0  0  0  0  0  0  0
   68.8171   46.7524   54.9561 C   0  0  0  0  0  0  0  0  0  0  0  0
   70.7019   47.2144   58.1078 C   0  0  0  0  0  0  0  0  0  0  0  0
   70.1387   47.4290   56.8524 O   0  0  0  0  0  0  0  0  0  0  0  0
   68.7624   51.7373   55.3602 C   0  0  0  0  0  0  0  0  0  0  0  0
   69.8181   52.0740   56.1524 F   0  0  0  0  0  0  0  0  0  0  0  0
   68.4723   52.7291   54.4147 F   0  0  0  0  0  0  0  0  0  0  0  0
   67.5955   51.5135   56.0562 F   0  0  0  0  0  0  0  0  0  0  0  0
 17 18  1  0
 18 10  1  0
 10 11  2  0
 10 16  1  0
 11 12  1  0
 12 13  1  0
 12 14  2  0
 14 15  1  0
 15 16  2  0
 16  1  1  0
  1  2  2  0
  1  9  1  0
  2  3  1  0
  3 19  1  0
  3  4  2  0
 19 20  1  0
 19 21  1  0
 19 22  1  0
  4  5  1  0
  5  6  1  0
  5  9  2  0
  6  7  1  0
  7  8  2  0
  8  9  1  0
M  END
>  <minimizedAffinity>  (650) 
-8.50928

$$$$
data/200k_reference_output/data/smiles/7202.pdb
     RDKit          3D

 25 26  0  0  0  0  0  0  0  0999 V2000
   70.2608   42.8910   57.7478 N   0  0  0  0  0  0  0  0  0  0  0  0
   70.3881   44.3636   57.9373 C   0  0  0  0  0  0  0  0  0  0  0  0
   71.1737   44.6335   58.7547 O   0  0  0  0  0  0  0  0  0  0  0  0
   69.4804   44.8570   57.0034 N   0  0  0  0  0  0  0  0  0  0  0  0
   69.8106   46.5919   57.2514 C   0  0  0  0  0  0  0  0  0  0  0  0
   70.7544   46.7783   57.9006 O   0  0  0  0  0  0  0  0  0  0  0  0
   71.0985   37.4057   58.7290 C   0  0  0  0  0  0  0  0  0  0  0  0
   71.0367   38.9115   58.5684 C   0  0  0  0  0  0  0  0  0  0  0  0
   71.9994   39.7580   58.6547 C   0  0  0  0  0  0  0  0  0  0  0  0
   71.8332   41.1400   58.4557 C   0  0  0  0  0  0  0  0  0  0  0  0
   70.6630   41.6751   58.1577 C   0  0  0  0  0  0  0  0  0  0  0  0
   69.4964   40.6925   58.0576 C   0  0  0  0  0  0  0  0  0  0  0  0
   68.2180   41.3215   57.7804 C   0  0  0  0  0  0  0  0  0  0  0  0
   69.7326   39.3921   58.2568 C   0  0  0  0  0  0  0  0  0  0  0  0
   68.8567   47.4377   56.5823 C   0  0  0  0  0  0  0  0  0  0  0  0
   69.1115   48.0311   55.3522 O   0  0  0  0  0  0  0  0  0  0  0  0
   68.8126   47.4093   54.1205 C   0  0  0  0  0  0  0  0  0  0  0  0
   67.9404   46.3265   54.1562 C   0  0  0  0  0  0  0  0  0  0  0  0
   67.6275   45.6875   52.8913 C   0  0  0  0  0  0  0  0  0  0  0  0
   68.2429   46.2546   51.8702 C   0  0  0  0  0  0  0  0  0  0  0  0
   69.1076   47.3059   51.6820 C   0  0  0  0  0  0  0  0  0  0  0  0
   69.3854   47.9062   52.9794 C   0  0  0  0  0  0  0  0  0  0  0  0
   70.1550   49.1245   53.0462 C   0  0  0  0  0  0  0  0  0  0  0  0
   69.3976   50.3604   53.1736 N   0  0  0  0  0  0  0  0  0  0  0  0
   71.3525   49.1126   52.9877 O   0  0  0  0  0  0  0  0  0  0  0  0
  7  8  1  0
  8  9  2  0
  8 14  1  0
  9 10  1  0
 10 11  2  0
 11  1  1  0
 11 12  1  0
  1  2  1  0
  2  3  2  0
  2  4  1  0
  4  5  1  0
  5  6  2  0
  5 15  1  0
 15 16  1  0
 16 17  1  0
 17 18  2  0
 17 22  1  0
 18 19  1  0
 19 20  2  0
 20 21  1  0
 21 22  2  0
 22 23  1  0
 23 24  1  0
 23 25  2  0
 12 13  1  0
 12 14  2  0
M  END
>  <minimizedAffinity>  (651) 
-8.50852

$$$$
data/reference_output_2/data/smiles/164901.pdb
     RDKit          3D

 24 26  0  0  0  0  0  0  0  0999 V2000
   69.3391   48.0979   56.5275 C   0  0  0  0  0  0  0  0  0  0  0  0
   69.4188   48.9651   57.4898 O   0  0  0  0  0  0  0  0  0  0  0  0
   69.0125   48.6136   55.2600 N   0  0  0  0  0  0  0  0  0  0  0  0
   68.7627   47.7589   54.1542 C   0  0  0  0  0  0  0  0  0  0  0  0
   68.0250   46.6739   54.5837 C   0  0  0  0  0  0  0  0  0  0  0  0
   67.7242   45.7139   53.6492 C   0  0  0  0  0  0  0  0  0  0  0  0
   68.1290   45.8011   52.3097 C   0  0  0  0  0  0  0  0  0  0  0  0
   68.8589   46.8957   51.9086 C   0  0  0  0  0  0  0  0  0  0  0  0
   69.1659   47.8612   52.8335 C   0  0  0  0  0  0  0  0  0  0  0  0
   69.8950   48.9927   52.2532 C   0  0  0  0  0  0  0  0  0  0  0  0
   70.5035   48.7496   51.1976 O   0  0  0  0  0  0  0  0  0  0  0  0
   69.9906   50.3335   52.7518 N   0  0  0  0  0  0  0  0  0  0  0  0
   69.4804   50.7936   54.0091 C   0  0  0  0  0  0  0  0  0  0  0  0
   69.4535   52.1778   54.0708 C   0  0  0  0  0  0  0  0  0  0  0  0
   68.9915   52.7311   55.2478 C   0  0  0  0  0  0  0  0  0  0  0  0
   68.5710   51.9824   56.3276 C   0  0  0  0  0  0  0  0  0  0  0  0
   68.6063   50.6236   56.2461 N   0  0  0  0  0  0  0  0  0  0  0  0
   69.0502   50.0663   55.1144 C   0  0  0  0  0  0  0  0  0  0  0  0
   69.6037   46.6930   56.8686 C   0  0  0  0  0  0  0  0  0  0  0  0
   70.6920   46.7449   57.9690 C   0  0  0  0  0  0  0  0  0  0  0  0
   70.8198   45.4171   58.6469 C   0  0  0  0  0  0  0  0  0  0  0  0
   72.1077   46.7173   60.0922 C   0  0  0  0  0  0  0  0  0  0  0  0
   71.3370   45.4915   59.9778 N   0  0  0  0  0  0  0  0  0  0  0  0
   72.2061   44.4000   60.3260 C   0  0  0  0  0  0  0  0  0  0  0  0
 22 23  1  0
 23 24  1  0
 23 21  1  0
 21 20  1  0
 20 19  1  0
 19  1  1  0
  1  2  2  0
  1  3  1  0
  3  4  1  0
  3 18  1  0
  4  5  2  0
  4  9  1  0
  5  6  1  0
  6  7  2  0
  7  8  1  0
  8  9  2  0
  9 10  1  0
 10 11  2  0
 10 12  1  0
 12 13  1  0
 13 14  2  0
 13 18  1  0
 14 15  1  0
 15 16  2  0
 16 17  1  0
 17 18  2  0
M  CHG  1  23   1
M  END
>  <minimizedAffinity>  (652) 
-8.50772

$$$$
data/reference_output_2/data/smiles/175024.pdb
     RDKit          3D

 23 25  0  0  0  0  0  0  0  0999 V2000
   70.9701   47.8241   58.5276 O   0  0  0  0  0  0  0  0  0  0  0  0
   70.1076   47.2996   57.7499 C   0  0  0  0  0  0  0  0  0  0  0  0
   69.6799   45.9640   58.0204 N   0  0  0  0  0  0  0  0  0  0  0  0
   69.5599   48.0791   56.5960 C   0  0  0  0  0  0  0  0  0  0  0  0
   68.8639   47.1762   55.6307 C   0  0  0  0  0  0  0  0  0  0  0  0
   68.0631   46.1404   55.9395 N   0  0  0  0  0  0  0  0  0  0  0  0
   67.6285   45.5761   54.8629 O   0  0  0  0  0  0  0  0  0  0  0  0
   68.1069   46.1901   53.7962 C   0  0  0  0  0  0  0  0  0  0  0  0
   67.9641   46.0071   52.4477 C   0  0  0  0  0  0  0  0  0  0  0  0
   68.5972   46.8291   51.5493 C   0  0  0  0  0  0  0  0  0  0  0  0
   69.3795   47.8423   52.0131 C   0  0  0  0  0  0  0  0  0  0  0  0
   69.5347   48.0376   53.3729 C   0  0  0  0  0  0  0  0  0  0  0  0
   68.9110   47.2298   54.2606 C   0  0  0  0  0  0  0  0  0  0  0  0
   70.2868   45.3739   59.1470 N   0  0  0  0  0  0  0  0  0  0  0  0
   71.3257   44.3927   58.9293 C   0  0  0  0  0  0  0  0  0  0  0  0
   72.5643   44.2657   59.9318 S   0  0  0  0  0  0  0  0  0  0  0  0
   71.1983   43.5504   57.8068 N   0  0  0  0  0  0  0  0  0  0  0  0
   70.1062   42.6837   57.5869 C   0  0  0  0  0  0  0  0  0  0  0  0
   70.0933   41.3955   58.1190 C   0  0  0  0  0  0  0  0  0  0  0  0
   69.0241   40.5529   57.8861 C   0  0  0  0  0  0  0  0  0  0  0  0
   67.9275   40.9467   57.1233 C   0  0  0  0  0  0  0  0  0  0  0  0
   67.9412   42.2174   56.6006 C   0  0  0  0  0  0  0  0  0  0  0  0
   69.0080   43.0510   56.8356 C   0  0  0  0  0  0  0  0  0  0  0  0
  1  2  2  0
  2  4  1  0
  2  3  1  0
  4  5  1  0
  5  6  2  0
  5 13  1  0
  6  7  1  0
  7  8  1  0
  8  9  1  0
  8 13  2  0
  9 10  2  0
 10 11  1  0
 11 12  2  0
 12 13  1  0
  3 14  1  0
 14 15  1  0
 15 16  2  0
 15 17  1  0
 17 18  1  0
 18 19  2  0
 18 23  1  0
 19 20  1  0
 20 21  2  0
 21 22  1  0
 22 23  2  0
M  END
>  <minimizedAffinity>  (653) 
-8.50730

$$$$
data/reference_output_2/data/smiles/173570.pdb
     RDKit          3D

 21 23  0  0  0  0  0  0  0  0999 V2000
   70.1275   49.6368   53.2428 S   0  0  0  0  0  0  0  0  0  0  0  0
   69.6722   49.8916   51.8068 O   0  0  0  0  0  0  0  0  0  0  0  0
   71.5909   49.3452   53.1398 O   0  0  0  0  0  0  0  0  0  0  0  0
   69.8359   51.0530   54.1959 N   0  0  0  0  0  0  0  0  0  0  0  0
   68.5987   51.5046   54.5634 C   0  0  0  0  0  0  0  0  0  0  0  0
   68.7102   52.6189   55.3485 C   0  0  0  0  0  0  0  0  0  0  0  0
   70.0651   52.8875   55.4850 C   0  0  0  0  0  0  0  0  0  0  0  0
   70.7335   53.9022   56.1588 C   0  0  0  0  0  0  0  0  0  0  0  0
   72.1091   53.9388   56.1100 C   0  0  0  0  0  0  0  0  0  0  0  0
   72.7663   52.9591   55.3869 C   0  0  0  0  0  0  0  0  0  0  0  0
   72.0951   51.9592   54.7243 C   0  0  0  0  0  0  0  0  0  0  0  0
   70.7046   51.9003   54.7602 C   0  0  0  0  0  0  0  0  0  0  0  0
   68.9005   47.1924   53.0342 C   0  0  0  0  0  0  0  0  0  0  0  0
   68.2820   46.0691   53.6131 C   0  0  0  0  0  0  0  0  0  0  0  0
   68.0854   45.9835   54.9514 C   0  0  0  0  0  0  0  0  0  0  0  0
   68.5065   47.0279   55.7461 C   0  0  0  0  0  0  0  0  0  0  0  0
   69.1097   48.1290   55.2087 C   0  0  0  0  0  0  0  0  0  0  0  0
   69.3140   48.2213   53.8382 C   0  0  0  0  0  0  0  0  0  0  0  0
   68.0369   46.9558   50.9288 O   0  0  0  0  0  0  0  0  0  0  0  0
   69.0407   47.1529   51.6340 N   0  0  0  0  0  0  0  0  0  0  0  0
   70.2287   47.3176   51.0267 O   0  0  0  0  0  0  0  0  0  0  0  0
 19 20  2  0
 20 21  1  0
 20 13  1  0
 13 14  2  0
 13 18  1  0
 14 15  1  0
 15 16  2  0
 16 17  1  0
 17 18  2  0
 18  1  1  0
  1  2  2  0
  1  3  2  0
  1  4  1  0
  4  5  1  0
  4 12  1  0
  5  6  2  0
  6  7  1  0
  7  8  1  0
  7 12  2  0
  8  9  2  0
  9 10  1  0
 10 11  2  0
 11 12  1  0
M  CHG  2  20   1  21  -1
M  END
>  <minimizedAffinity>  (654) 
-8.50662

$$$$
data/reference_output_2/data/smiles/171835.pdb
     RDKit          3D

 23 25  0  0  0  0  0  0  0  0999 V2000
   69.4525   48.0709   56.0873 C   0  0  0  0  0  0  0  0  0  0  0  0
   69.0340   47.5535   54.7549 C   0  0  0  0  0  0  0  0  0  0  0  0
   68.0923   46.5395   54.6342 C   0  0  0  0  0  0  0  0  0  0  0  0
   67.7233   46.0698   53.3999 C   0  0  0  0  0  0  0  0  0  0  0  0
   68.2539   46.5653   52.2295 C   0  0  0  0  0  0  0  0  0  0  0  0
   69.1800   47.5618   52.3382 C   0  0  0  0  0  0  0  0  0  0  0  0
   69.5666   48.0514   53.5843 C   0  0  0  0  0  0  0  0  0  0  0  0
   68.5395   49.1131   56.5882 C   0  0  0  0  0  0  0  0  0  0  0  0
   68.6667   50.4139   56.1570 C   0  0  0  0  0  0  0  0  0  0  0  0
   67.8086   51.4052   56.6241 C   0  0  0  0  0  0  0  0  0  0  0  0
   66.8193   51.0397   57.5392 C   0  0  0  0  0  0  0  0  0  0  0  0
   66.6883   49.7392   57.9729 C   0  0  0  0  0  0  0  0  0  0  0  0
   67.5559   48.7835   57.4894 C   0  0  0  0  0  0  0  0  0  0  0  0
   70.5246   47.0084   58.1259 N   0  0  0  0  0  0  0  0  0  0  0  0
   69.6481   46.9371   57.0115 C   0  0  0  0  0  0  0  0  0  0  0  0
   69.0224   45.8753   56.8080 O   0  0  0  0  0  0  0  0  0  0  0  0
   71.5053   44.5233   60.5091 N   0  0  0  0  0  0  0  0  0  0  0  0
   70.3837   44.0038   60.0270 N   0  0  0  0  0  0  0  0  0  0  0  0
   69.8759   44.8117   59.1124 N   0  0  0  0  0  0  0  0  0  0  0  0
   70.6800   45.8827   58.9921 C   0  0  0  0  0  0  0  0  0  0  0  0
   71.6787   45.6693   59.8719 N   0  0  0  0  0  0  0  0  0  0  0  0
   71.5127   43.1098   62.4734 C   0  0  0  0  0  0  0  0  0  0  0  0
   72.3771   43.9425   61.5406 C   0  0  0  0  0  0  0  0  0  0  0  0
 22 23  1  0
 23 17  1  0
 17 18  1  0
 17 21  1  0
 18 19  2  0
 19 20  1  0
 20 14  1  0
 20 21  2  0
 14 15  1  0
 15 16  2  0
 15  1  1  0
  1  2  1  0
  1  8  1  0
  2  3  2  0
  2  7  1  0
  3  4  1  0
  4  5  2  0
  5  6  1  0
  6  7  2  0
  8  9  2  0
  8 13  1  0
  9 10  1  0
 10 11  2  0
 11 12  1  0
 12 13  2  0
M  END
>  <minimizedAffinity>  (655) 
-8.50657

$$$$
data/200k_reference_output/data/smiles/22848.pdb
     RDKit          3D

 23 24  0  0  0  0  0  0  0  0999 V2000
   68.3817   47.5067   56.5513 C   0  0  0  0  0  0  0  0  0  0  0  0
   67.3677   45.0935   52.3058 C   0  0  0  0  0  0  0  0  0  0  0  0
   68.0877   46.1828   53.0121 C   0  0  0  0  0  0  0  0  0  0  0  0
   67.9209   46.3440   54.3772 C   0  0  0  0  0  0  0  0  0  0  0  0
   68.5636   47.3384   55.0855 C   0  0  0  0  0  0  0  0  0  0  0  0
   69.3974   48.1785   54.3445 C   0  0  0  0  0  0  0  0  0  0  0  0
   69.5627   48.0166   52.9865 C   0  0  0  0  0  0  0  0  0  0  0  0
   68.9099   47.0177   52.3042 C   0  0  0  0  0  0  0  0  0  0  0  0
   69.1136   46.9010   50.9319 O   0  0  0  0  0  0  0  0  0  0  0  0
   70.4451   48.9202   52.2534 C   0  0  0  0  0  0  0  0  0  0  0  0
   71.6286   49.1143   52.6321 O   0  0  0  0  0  0  0  0  0  0  0  0
   70.0303   49.6025   51.1174 O   0  0  0  0  0  0  0  0  0  0  0  0
   69.4868   46.9019   57.3310 C   0  0  0  0  0  0  0  0  0  0  0  0
   69.7433   45.5509   57.2513 C   0  0  0  0  0  0  0  0  0  0  0  0
   70.7786   45.0072   57.9872 C   0  0  0  0  0  0  0  0  0  0  0  0
   71.0334   43.5492   57.8817 C   0  0  0  0  0  0  0  0  0  0  0  0
   71.5763   45.7723   58.8081 C   0  0  0  0  0  0  0  0  0  0  0  0
   72.6075   45.1706   59.5282 O   0  0  0  0  0  0  0  0  0  0  0  0
   71.3269   47.1338   58.8965 C   0  0  0  0  0  0  0  0  0  0  0  0
   70.2902   47.6598   58.1562 C   0  0  0  0  0  0  0  0  0  0  0  0
   72.1568   47.9609   59.7583 C   0  0  0  0  0  0  0  0  0  0  0  0
   72.1130   47.8130   61.0015 O   0  0  0  0  0  0  0  0  0  0  0  0
   73.0037   48.9196   59.2307 O   0  0  0  0  0  0  0  0  0  0  0  0
  2  3  1  0
  3  4  2  0
  3  8  1  0
  4  5  1  0
  5  1  1  0
  5  6  2  0
  1 13  1  0
 13 14  2  0
 13 20  1  0
 14 15  1  0
 15 16  1  0
 15 17  2  0
 17 18  1  0
 17 19  1  0
 19 21  1  0
 19 20  2  0
 21 22  2  0
 21 23  1  0
  6  7  1  0
  7 10  1  0
  7  8  2  0
 10 11  2  0
 10 12  1  0
  8  9  1  0
M  END
>  <minimizedAffinity>  (656) 
-8.50643

$$$$
data/reference_output_2/data/smiles/172892.pdb
     RDKit          3D

 23 25  0  0  0  0  0  0  0  0999 V2000
   70.8721   49.3260   57.8823 C   0  0  0  0  0  0  0  0  0  0  0  0
   71.0601   47.8466   57.8633 C   0  0  1  0  0  0  0  0  0  0  0  0
   71.3032   47.3324   59.2509 C   0  0  0  0  0  0  0  0  0  0  0  0
   71.5171   48.1467   60.1538 O   0  0  0  0  0  0  0  0  0  0  0  0
   71.2771   45.9242   59.4649 N   0  0  0  0  0  0  0  0  0  0  0  0
   70.5521   45.0784   58.5671 C   0  0  0  0  0  0  0  0  0  0  0  0
   70.5162   43.7174   58.7575 C   0  0  0  0  0  0  0  0  0  0  0  0
   69.8103   42.9367   57.8726 C   0  0  0  0  0  0  0  0  0  0  0  0
   69.1756   43.5885   56.8373 C   0  0  0  0  0  0  0  0  0  0  0  0
   69.2134   44.9172   56.6578 N   0  0  0  0  0  0  0  0  0  0  0  0
   69.9004   45.7081   57.5109 C   0  0  0  0  0  0  0  0  0  0  0  0
   69.9372   47.1153   57.3148 N   0  0  0  0  0  0  0  0  0  0  0  0
   68.6609   47.8769   56.4473 S   0  0  0  0  0  0  0  0  0  0  0  0
   68.8229   49.3679   56.6051 O   0  0  0  0  0  0  0  0  0  0  0  0
   67.3250   47.5204   56.9892 O   0  0  0  0  0  0  0  0  0  0  0  0
   68.7458   47.5072   54.7556 C   0  0  0  0  0  0  0  0  0  0  0  0
   67.9991   46.4790   54.2340 C   0  0  0  0  0  0  0  0  0  0  0  0
   68.0618   46.1759   52.8651 C   0  0  0  0  0  0  0  0  0  0  0  0
   67.3443   45.1754   52.3157 F   0  0  0  0  0  0  0  0  0  0  0  0
   68.8803   46.9172   52.0384 C   0  0  0  0  0  0  0  0  0  0  0  0
   69.6346   47.9542   52.5564 C   0  0  0  0  0  0  0  0  0  0  0  0
   70.4204   48.6559   51.7271 F   0  0  0  0  0  0  0  0  0  0  0  0
   69.5525   48.2331   53.9225 C   0  0  0  0  0  0  0  0  0  0  0  0
  2  1  1  1
  2  3  1  0
  2 12  1  0
  3  4  2  0
  3  5  1  0
  5  6  1  0
  6  7  1  0
  6 11  2  0
  7  8  2  0
  8  9  1  0
  9 10  2  0
 10 11  1  0
 11 12  1  0
 12 13  1  0
 13 14  2  0
 13 15  2  0
 13 16  1  0
 16 17  2  0
 16 23  1  0
 17 18  1  0
 18 19  1  0
 18 20  2  0
 20 21  1  0
 21 22  1  0
 21 23  2  0
M  END
>  <minimizedAffinity>  (657) 
-8.50616

$$$$
data/reference_output_2/data/smiles/196960.pdb
     RDKit          3D

 21 23  0  0  0  0  0  0  0  0999 V2000
   69.9519   49.2849   52.7482 S   0  0  0  0  0  0  0  0  0  0  0  0
   69.7871   49.8731   51.3778 O   0  0  0  0  0  0  0  0  0  0  0  0
   71.4015   49.0143   53.0328 O   0  0  0  0  0  0  0  0  0  0  0  0
   69.3689   50.4370   53.9125 N   0  0  0  0  0  0  0  0  0  0  0  0
   68.7819   51.6313   53.6073 C   0  0  0  0  0  0  0  0  0  0  0  0
   68.4488   52.2996   54.7549 C   0  0  0  0  0  0  0  0  0  0  0  0
   68.8372   51.5027   55.8255 C   0  0  0  0  0  0  0  0  0  0  0  0
   68.7553   51.6548   57.1939 C   0  0  0  0  0  0  0  0  0  0  0  0
   69.2272   50.6861   58.0530 C   0  0  0  0  0  0  0  0  0  0  0  0
   69.7842   49.5561   57.4930 C   0  0  0  0  0  0  0  0  0  0  0  0
   69.8660   49.4049   56.1211 C   0  0  0  0  0  0  0  0  0  0  0  0
   69.3913   50.3809   55.2456 C   0  0  0  0  0  0  0  0  0  0  0  0
   68.2782   45.8647   54.0863 C   0  0  0  0  0  0  0  0  0  0  0  0
   67.7140   45.3503   52.9348 C   0  0  0  0  0  0  0  0  0  0  0  0
   67.8413   46.0350   51.7479 C   0  0  0  0  0  0  0  0  0  0  0  0
   68.5327   47.2248   51.7377 C   0  0  0  0  0  0  0  0  0  0  0  0
   69.1109   47.7597   52.8945 C   0  0  0  0  0  0  0  0  0  0  0  0
   68.9718   47.0654   54.0529 C   0  0  0  0  0  0  0  0  0  0  0  0
   68.4926   45.6171   56.3604 O   0  0  0  0  0  0  0  0  0  0  0  0
   68.1219   45.1228   55.2864 N   0  0  0  0  0  0  0  0  0  0  0  0
   67.5713   43.8704   55.2995 O   0  0  0  0  0  0  0  0  0  0  0  0
 19 20  2  0
 20 21  1  0
 20 13  1  0
 13 14  2  0
 13 18  1  0
 14 15  1  0
 15 16  2  0
 16 17  1  0
 17  1  1  0
 17 18  2  0
  1  2  2  0
  1  3  2  0
  1  4  1  0
  4  5  1  0
  4 12  1  0
  5  6  2  0
  6  7  1  0
  7  8  1  0
  7 12  2  0
  8  9  2  0
  9 10  1  0
 10 11  2  0
 11 12  1  0
M  CHG  2  20   1  21  -1
M  END
>  <minimizedAffinity>  (658) 
-8.50552

$$$$
data/reference_output_2/data/smiles/200974.pdb
     RDKit          3D

 23 24  0  0  0  0  0  0  0  0999 V2000
   67.2483   42.6068   56.2852 N   0  0  0  0  0  0  0  0  0  0  0  0
   67.9727   43.5335   55.7626 C   0  0  0  0  0  0  0  0  0  0  0  0
   67.8374   39.9698   55.8710 O   0  0  0  0  0  0  0  0  0  0  0  0
   68.0357   40.3762   57.0422 C   0  0  0  0  0  0  0  0  0  0  0  0
   67.7356   41.7437   57.2795 N   0  0  0  0  0  0  0  0  0  0  0  0
   68.5391   39.4497   58.0313 C   0  0  0  0  0  0  0  0  0  0  0  0
   69.8720   39.1378   58.1680 C   0  0  0  0  0  0  0  0  0  0  0  0
   70.2465   38.2431   59.1428 C   0  0  0  0  0  0  0  0  0  0  0  0
   69.3536   37.6356   59.9986 C   0  0  0  0  0  0  0  0  0  0  0  0
   69.7847   36.7497   60.9539 F   0  0  0  0  0  0  0  0  0  0  0  0
   68.0220   37.9467   59.8632 C   0  0  0  0  0  0  0  0  0  0  0  0
   67.6527   38.8368   58.8928 C   0  0  0  0  0  0  0  0  0  0  0  0
   67.3836   44.3541   54.7636 N   0  0  0  0  0  0  0  0  0  0  0  0
   67.9988   45.5260   54.2770 C   0  0  0  0  0  0  0  0  0  0  0  0
   68.5540   46.4535   55.1262 C   0  0  0  0  0  0  0  0  0  0  0  0
   69.1547   47.5990   54.6539 C   0  0  0  0  0  0  0  0  0  0  0  0
   69.2131   47.8455   53.2808 C   0  0  0  0  0  0  0  0  0  0  0  0
   68.6622   46.9264   52.4129 C   0  0  0  0  0  0  0  0  0  0  0  0
   68.7063   47.1481   51.0321 O   0  0  0  0  0  0  0  0  0  0  0  0
   68.0677   45.7902   52.9265 C   0  0  0  0  0  0  0  0  0  0  0  0
   69.8444   49.0496   52.7565 C   0  0  0  0  0  0  0  0  0  0  0  0
   70.8733   48.9929   52.0387 O   0  0  0  0  0  0  0  0  0  0  0  0
   69.3145   50.2930   53.0460 O   0  0  0  0  0  0  0  0  0  0  0  0
  3  4  2  0
  4  5  1  0
  4  6  1  0
  5  1  1  0
  1  2  2  0
  2 13  1  0
 13 14  1  0
 14 15  2  0
 14 20  1  0
 15 16  1  0
 16 17  2  0
 17 21  1  0
 17 18  1  0
 21 22  2  0
 21 23  1  0
 18 19  1  0
 18 20  2  0
  6  7  2  0
  6 12  1  0
  7  8  1  0
  8  9  2  0
  9 10  1  0
  9 11  1  0
 11 12  2  0
M  END
>  <minimizedAffinity>  (659) 
-8.50497

$$$$
data/reference_output_2/data/smiles/121363.pdb
     RDKit          3D

 25 27  0  0  0  0  0  0  0  0999 V2000
   69.1812   46.6346   57.0798 N   0  0  0  0  0  0  0  0  0  0  0  0
   68.7564   47.3827   56.1719 C   0  0  0  0  0  0  0  0  0  0  0  0
   68.6835   46.9811   54.8000 C   0  0  0  0  0  0  0  0  0  0  0  0
   69.2381   47.7024   53.7679 C   0  0  0  0  0  0  0  0  0  0  0  0
   69.0762   47.4181   52.4219 C   0  0  0  0  0  0  0  0  0  0  0  0
   68.3252   46.3554   52.0446 C   0  0  0  0  0  0  0  0  0  0  0  0
   67.7465   45.5917   53.0129 C   0  0  0  0  0  0  0  0  0  0  0  0
   67.9162   45.8915   54.3631 C   0  0  0  0  0  0  0  0  0  0  0  0
   68.3067   48.7120   56.6588 C   0  0  0  0  0  0  0  0  0  0  0  0
   67.2299   48.7750   57.5585 C   0  0  0  0  0  0  0  0  0  0  0  0
   66.6645   49.9437   57.9906 C   0  0  0  0  0  0  0  0  0  0  0  0
   67.1497   51.1462   57.5423 C   0  0  0  0  0  0  0  0  0  0  0  0
   68.1988   51.0989   56.6640 C   0  0  0  0  0  0  0  0  0  0  0  0
   68.7808   49.9096   56.2149 C   0  0  0  0  0  0  0  0  0  0  0  0
   70.1820   44.7831   58.2528 C   0  0  0  0  0  0  0  0  0  0  0  0
   70.1671   45.5168   59.2675 O   0  0  0  0  0  0  0  0  0  0  0  0
   69.6461   45.3799   57.0476 N   0  0  0  0  0  0  0  0  0  0  0  0
   69.6887   42.6141   57.3285 C   0  0  0  0  0  0  0  0  0  0  0  0
   70.6730   43.4138   58.1548 C   0  0  1  0  0  0  0  0  0  0  0  0
   71.9958   43.2792   57.6286 N   0  0  0  0  0  0  0  0  0  0  0  0
   72.9267   44.2474   58.0617 C   0  0  0  0  0  0  0  0  0  0  0  0
   74.3298   43.7957   58.2279 C   0  0  0  0  0  0  0  0  0  0  0  0
   74.5014   42.5088   58.6439 O   0  0  0  0  0  0  0  0  0  0  0  0
   73.3604   41.8452   59.0163 C   0  0  0  0  0  0  0  0  0  0  0  0
   72.4154   41.9068   57.8089 C   0  0  0  0  0  0  0  0  0  0  0  0
 19 18  1  6
 19 15  1  0
 19 20  1  0
 15 16  2  0
 15 17  1  0
 17  1  1  0
  1  2  2  0
  2  3  1  0
  2  9  1  0
  3  4  2  0
  3  8  1  0
  4  5  1  0
  5  6  2  0
  6  7  1  0
  7  8  2  0
  9 10  2  0
  9 14  1  0
 10 11  1  0
 11 12  2  0
 12 13  1  0
 13 14  2  0
 20 21  1  0
 20 25  1  0
 21 22  1  0
 22 23  1  0
 23 24  1  0
 24 25  1  0
M  CHG  1  20   1
M  END
>  <minimizedAffinity>  (660) 
-8.50492

$$$$
data/200k_reference_output/data/smiles/57505.pdb
     RDKit          3D

 24 27  0  0  0  0  0  0  0  0999 V2000
   76.7566   35.9904   53.0775 C   0  0  0  0  0  0  0  0  0  0  0  0
   77.8112   34.6804   45.8621 C   0  0  0  0  0  0  0  0  0  0  0  0
   77.2482   34.6339   47.2532 C   0  0  0  0  0  0  0  0  0  0  0  0
   76.1665   33.8173   47.5207 C   0  0  0  0  0  0  0  0  0  0  0  0
   75.6769   33.8013   48.8096 C   0  0  0  0  0  0  0  0  0  0  0  0
   74.5039   32.9376   49.1720 C   0  0  0  0  0  0  0  0  0  0  0  0
   76.2083   34.5408   49.7980 N   0  0  0  0  0  0  0  0  0  0  0  0
   75.9136   34.6859   51.0809 N   0  0  0  0  0  0  0  0  0  0  0  0
   76.7520   35.5567   51.6611 C   0  0  0  0  0  0  0  0  0  0  0  0
   77.5903   35.9516   50.6666 N   0  0  0  0  0  0  0  0  0  0  0  0
   77.2686   35.3355   49.5162 C   0  0  0  0  0  0  0  0  0  0  0  0
   77.7524   35.3560   48.2561 N   0  0  0  0  0  0  0  0  0  0  0  0
   76.3356   34.8162   53.9308 C   0  0  0  0  0  0  0  0  0  0  0  0
   74.9810   35.1172   54.5050 C   0  0  0  0  0  0  0  0  0  0  0  0
   74.6384   35.2394   55.7939 N   0  0  0  0  0  0  0  0  0  0  0  0
   73.3312   35.5142   55.9451 C   0  0  0  0  0  0  0  0  0  0  0  0
   72.8305   35.5638   54.6531 C   0  0  0  0  0  0  0  0  0  0  0  0
   73.8372   35.3229   53.7937 N   0  0  0  0  0  0  0  0  0  0  0  0
   72.5912   35.7159   57.1836 C   0  0  0  0  0  0  0  0  0  0  0  0
   72.3410   34.6449   58.0131 C   0  0  0  0  0  0  0  0  0  0  0  0
   71.6404   34.7973   59.1999 C   0  0  0  0  0  0  0  0  0  0  0  0
   71.1795   36.0431   59.5662 C   0  0  0  0  0  0  0  0  0  0  0  0
   71.4177   37.1287   58.7539 C   0  0  0  0  0  0  0  0  0  0  0  0
   72.1247   36.9550   57.5625 C   0  0  0  0  0  0  0  0  0  0  0  0
  2  3  1  0
  3  4  1  0
  3 12  2  0
  4  5  2  0
  5  6  1  0
  5  7  1  0
  7  8  1  0
  7 11  1  0
  8  9  2  0
  9  1  1  0
  9 10  1  0
  1 13  1  0
 13 14  1  0
 14 15  2  0
 14 18  1  0
 15 16  1  0
 16 19  1  0
 16 17  2  0
 19 20  2  0
 19 24  1  0
 20 21  1  0
 21 22  2  0
 22 23  1  0
 23 24  2  0
 17 18  1  0
 10 11  2  0
 11 12  1  0
M  CHG  1  15   1
M  END
>  <minimizedAffinity>  (661) 
-8.50414

$$$$
data/reference_output_2/data/smiles/161418.pdb
     RDKit          3D

 24 26  0  0  0  0  0  0  0  0999 V2000
   67.2399   41.8337   55.9731 C   0  0  0  0  0  0  0  0  0  0  0  0
   67.7834   40.8643   56.7903 C   0  0  0  0  0  0  0  0  0  0  0  0
   68.9626   41.1679   57.4361 C   0  0  0  0  0  0  0  0  0  0  0  0
   69.5887   40.2595   58.2812 C   0  0  0  0  0  0  0  0  0  0  0  0
   70.7684   40.5434   58.9360 C   0  0  0  0  0  0  0  0  0  0  0  0
   71.3339   41.7843   58.7338 C   0  0  0  0  0  0  0  0  0  0  0  0
   70.7101   42.6853   57.8933 C   0  0  0  0  0  0  0  0  0  0  0  0
   69.5342   42.4146   57.2343 C   0  0  0  0  0  0  0  0  0  0  0  0
   68.9982   43.3213   56.4514 O   0  0  0  0  0  0  0  0  0  0  0  0
   67.8832   43.0513   55.8319 C   0  0  0  0  0  0  0  0  0  0  0  0
   67.4055   43.9946   55.0710 N   0  0  0  0  0  0  0  0  0  0  0  0
   65.9736   40.8323   54.0660 N   0  0  0  0  0  0  0  0  0  0  0  0
   65.9983   41.5892   55.2577 C   0  0  0  0  0  0  0  0  0  0  0  0
   64.9163   42.0481   55.6835 O   0  0  0  0  0  0  0  0  0  0  0  0
   68.0885   45.2382   54.9442 N   0  0  0  0  0  0  0  0  0  0  0  0
   68.1130   45.9396   53.7228 C   0  0  0  0  0  0  0  0  0  0  0  0
   67.4693   45.3425   52.7816 O   0  0  0  0  0  0  0  0  0  0  0  0
   68.7636   47.2043   53.4548 C   0  0  0  0  0  0  0  0  0  0  0  0
   68.8225   48.1460   54.4950 C   0  0  0  0  0  0  0  0  0  0  0  0
   69.4206   49.3732   54.3309 C   0  0  0  0  0  0  0  0  0  0  0  0
   69.9983   49.7579   53.1435 C   0  0  0  0  0  0  0  0  0  0  0  0
   69.9522   48.8526   52.1135 C   0  0  0  0  0  0  0  0  0  0  0  0
   69.3416   47.5980   52.2788 C   0  0  0  0  0  0  0  0  0  0  0  0
   69.3171   46.7102   51.2066 O   0  0  0  0  0  0  0  0  0  0  0  0
 12 13  1  0
 13 14  2  0
 13  1  1  0
  1  2  2  0
  1 10  1  0
  2  3  1  0
  3  4  2  0
  3  8  1  0
  4  5  1  0
  5  6  2  0
  6  7  1  0
  7  8  2  0
  8  9  1  0
  9 10  1  0
 10 11  2  0
 11 15  1  0
 15 16  1  0
 16 17  2  0
 16 18  1  0
 18 19  2  0
 18 23  1  0
 19 20  1  0
 20 21  2  0
 21 22  1  0
 22 23  2  0
 23 24  1  0
M  END
>  <minimizedAffinity>  (662) 
-8.50353

$$$$
data/200k_reference_output/data/smiles/40919.pdb
     RDKit          3D

 23 25  0  0  0  0  0  0  0  0999 V2000
   68.5728   46.2087   56.3323 O   0  0  0  0  0  0  0  0  0  0  0  0
   69.0038   47.5968   52.9691 C   0  0  0  0  0  0  0  0  0  0  0  0
   68.3404   46.6403   52.2298 C   0  0  0  0  0  0  0  0  0  0  0  0
   68.2418   46.7451   50.8829 F   0  0  0  0  0  0  0  0  0  0  0  0
   67.7487   45.5347   52.8293 C   0  0  0  0  0  0  0  0  0  0  0  0
   67.8215   45.3787   54.2205 C   0  0  0  0  0  0  0  0  0  0  0  0
   68.4812   46.3298   54.9628 C   0  0  0  0  0  0  0  0  0  0  0  0
   69.0474   47.3970   54.3369 C   0  0  0  0  0  0  0  0  0  0  0  0
   69.6924   48.3221   55.0825 F   0  0  0  0  0  0  0  0  0  0  0  0
   70.5285   48.5896   51.2675 N   0  0  0  0  0  0  0  0  0  0  0  0
   69.6253   48.7576   52.3433 C   0  0  0  0  0  0  0  0  0  0  0  0
   69.3529   49.9062   52.7644 O   0  0  0  0  0  0  0  0  0  0  0  0
   69.6961   45.7136   57.0085 C   0  0  0  0  0  0  0  0  0  0  0  0
   69.5879   44.2483   57.2703 C   0  0  0  0  0  0  0  0  0  0  0  0
   68.8912   43.3520   57.2070 N   0  0  0  0  0  0  0  0  0  0  0  0
   69.0629   42.0839   57.5235 C   0  0  0  0  0  0  0  0  0  0  0  0
   68.1766   41.0024   57.4317 C   0  0  0  0  0  0  0  0  0  0  0  0
   68.5826   39.7548   57.8265 C   0  0  0  0  0  0  0  0  0  0  0  0
   67.6673   38.6463   57.7301 N   0  0  0  0  0  0  0  0  0  0  0  0
   69.8326   39.4585   58.3248 C   0  0  0  0  0  0  0  0  0  0  0  0
   70.7130   40.5227   58.4191 C   0  0  0  0  0  0  0  0  0  0  0  0
   70.2972   41.7962   58.0151 C   0  0  0  0  0  0  0  0  0  0  0  0
   71.1459   43.3775   57.9934 S   0  0  0  0  0  0  0  0  0  0  0  0
 10 11  1  0
 11 12  2  0
 11  2  1  0
  2  3  2  0
  2  8  1  0
  3  4  1  0
  3  5  1  0
  5  6  2  0
  6  7  1  0
  7  1  1  0
  7  8  2  0
  1 13  1  0
 13 14  1  0
 14 15  2  0
 14 23  1  0
 15 16  1  0
 16 17  2  0
 16 22  1  0
 17 18  1  0
 18 19  1  0
 18 20  2  0
 20 21  1  0
 21 22  2  0
 22 23  1  0
  8  9  1  0
M  END
>  <minimizedAffinity>  (663) 
-8.50254

$$$$
data/reference_output_2/data/smiles/183048.pdb
     RDKit          3D

 23 24  0  0  0  0  0  0  0  0999 V2000
   70.1460   46.3273   58.0810 C   0  0  0  0  0  0  0  0  0  0  0  0
   70.6598   43.9147   57.4564 N   0  0  0  0  0  0  0  0  0  0  0  0
   70.1944   44.8905   58.3986 C   0  0  0  0  0  0  0  0  0  0  0  0
   69.8292   44.4666   59.5073 O   0  0  0  0  0  0  0  0  0  0  0  0
   70.7470   38.3454   58.6973 C   0  0  0  0  0  0  0  0  0  0  0  0
   70.7526   39.8013   58.3791 C   0  0  0  0  0  0  0  0  0  0  0  0
   71.9053   40.5567   58.4388 C   0  0  0  0  0  0  0  0  0  0  0  0
   71.8686   41.8976   58.1376 C   0  0  0  0  0  0  0  0  0  0  0  0
   70.7036   42.5384   57.7681 C   0  0  0  0  0  0  0  0  0  0  0  0
   69.5600   41.7676   57.7125 C   0  0  0  0  0  0  0  0  0  0  0  0
   69.5916   40.4074   58.0183 C   0  0  0  0  0  0  0  0  0  0  0  0
   68.2873   39.6921   57.9191 C   0  0  0  0  0  0  0  0  0  0  0  0
   68.9534   46.6637   57.4247 O   0  0  0  0  0  0  0  0  0  0  0  0
   68.9531   46.7892   56.0390 C   0  0  0  0  0  0  0  0  0  0  0  0
   69.4449   47.8806   55.3700 C   0  0  0  0  0  0  0  0  0  0  0  0
   69.4209   47.9491   53.9736 C   0  0  0  0  0  0  0  0  0  0  0  0
   68.9045   46.9274   53.2188 C   0  0  0  0  0  0  0  0  0  0  0  0
   68.4098   45.8328   53.8838 C   0  0  0  0  0  0  0  0  0  0  0  0
   68.4268   45.7507   55.2554 C   0  0  0  0  0  0  0  0  0  0  0  0
   68.9017   47.0443   51.7649 C   0  0  0  0  0  0  0  0  0  0  0  0
   67.8362   46.7269   51.1102 N   0  0  0  0  0  0  0  0  0  0  0  0
   70.0289   47.4967   51.0241 N   0  0  0  0  0  0  0  0  0  0  0  0
   70.4269   48.7970   51.0325 O   0  0  0  0  0  0  0  0  0  0  0  0
  5  6  1  0
  6  7  2  0
  6 11  1  0
  7  8  1  0
  8  9  2  0
  9  2  1  0
  9 10  1  0
  2  3  1  0
  3  4  2  0
  3  1  1  0
  1 13  1  0
 13 14  1  0
 14 15  2  0
 14 19  1  0
 15 16  1  0
 16 17  2  0
 17 20  1  0
 17 18  1  0
 20 21  2  0
 20 22  1  0
 22 23  1  0
 18 19  2  0
 10 11  2  0
 11 12  1  0
M  CHG  1  21   1
M  END
>  <minimizedAffinity>  (664) 
-8.50248

$$$$
data/reference_output_2/data/smiles/99915.pdb
     RDKit          3D

 23 24  0  0  0  0  0  0  0  0999 V2000
   67.2167   42.1055   55.9871 C   0  0  0  0  0  0  0  0  0  0  0  0
   65.8426   41.8987   55.0737 S   0  0  0  0  0  0  0  0  0  0  0  0
   67.3739   41.2860   58.6717 O   0  0  0  0  0  0  0  0  0  0  0  0
   67.8687   40.5533   57.7915 C   0  0  0  0  0  0  0  0  0  0  0  0
   67.8127   40.9225   56.4440 N   0  0  0  0  0  0  0  0  0  0  0  0
   68.5221   39.2742   58.1967 C   0  0  0  0  0  0  0  0  0  0  0  0
   69.8306   39.2112   58.3029 C   0  0  0  0  0  0  0  0  0  0  0  0
   70.5535   38.0113   58.6912 C   0  0  0  0  0  0  0  0  0  0  0  0
   70.1821   37.1635   59.7046 C   0  0  0  0  0  0  0  0  0  0  0  0
   70.9110   36.0371   60.0258 C   0  0  0  0  0  0  0  0  0  0  0  0
   72.0583   35.7250   59.3211 C   0  0  0  0  0  0  0  0  0  0  0  0
   72.4506   36.5593   58.3020 C   0  0  0  0  0  0  0  0  0  0  0  0
   71.6994   37.6739   58.0091 C   0  0  0  0  0  0  0  0  0  0  0  0
   67.6229   43.4211   56.1956 N   0  0  0  0  0  0  0  0  0  0  0  0
   67.9397   44.2700   55.1004 N   0  0  0  0  0  0  0  0  0  0  0  0
   68.3254   45.6141   55.2857 C   0  0  0  0  0  0  0  0  0  0  0  0
   68.3876   46.0641   56.4547 O   0  0  0  0  0  0  0  0  0  0  0  0
   68.6496   46.4890   54.1802 C   0  0  0  0  0  0  0  0  0  0  0  0
   68.4709   46.1877   52.8488 C   0  0  0  0  0  0  0  0  0  0  0  0
   68.7901   47.0439   51.8186 C   0  0  0  0  0  0  0  0  0  0  0  0
   69.3183   48.2711   52.1306 C   0  0  0  0  0  0  0  0  0  0  0  0
   69.5028   48.5866   53.4438 N   0  0  0  0  0  0  0  0  0  0  0  0
   69.1889   47.7474   54.4409 C   0  0  0  0  0  0  0  0  0  0  0  0
  3  4  2  0
  4  6  1  0
  4  5  1  0
  6  7  2  0
  7  8  1  0
  8  9  2  0
  8 13  1  0
  9 10  1  0
 10 11  2  0
 11 12  1  0
 12 13  2  0
  5  1  1  0
  1  2  2  0
  1 14  1  0
 14 15  1  0
 15 16  1  0
 16 17  2  0
 16 18  1  0
 18 19  2  0
 18 23  1  0
 19 20  1  0
 20 21  2  0
 21 22  1  0
 22 23  2  0
M  END
>  <minimizedAffinity>  (665) 
-8.50101

$$$$
data/200k_reference_output/data/smiles/17176.pdb
     RDKit          3D

 25 28  0  0  0  0  0  0  0  0999 V2000
   69.5826   50.7166   57.0492 C   0  0  0  0  0  0  0  0  0  0  0  0
   69.9801   49.3851   56.8637 C   0  0  0  0  0  0  0  0  0  0  0  0
   69.0332   48.3763   57.0494 C   0  0  0  0  0  0  0  0  0  0  0  0
   67.7353   48.6468   57.4052 C   0  0  0  0  0  0  0  0  0  0  0  0
   67.3685   49.9703   57.5815 C   0  0  0  0  0  0  0  0  0  0  0  0
   68.3048   50.9889   57.3983 C   0  0  0  0  0  0  0  0  0  0  0  0
   67.8989   52.2647   57.5703 F   0  0  0  0  0  0  0  0  0  0  0  0
   72.2598   51.4800   58.5235 O   0  0  0  0  0  0  0  0  0  0  0  0
   71.5957   52.1354   57.7125 C   0  0  0  0  0  0  0  0  0  0  0  0
   71.8054   53.6114   57.5078 C   0  0  0  0  0  0  0  0  0  0  0  0
   70.8449   53.9227   56.3939 C   0  0  0  0  0  0  0  0  0  0  0  0
   70.7559   52.5729   55.6647 C   0  0  0  0  0  0  0  0  0  0  0  0
   70.5552   51.7008   56.8386 N   0  0  0  0  0  0  0  0  0  0  0  0
   69.5506   46.9930   56.8446 C   0  0  0  0  0  0  0  0  0  0  0  0
   68.8638   46.4492   55.6185 C   0  0  0  0  0  0  0  0  0  0  0  0
   68.1493   45.3047   55.6902 N   0  0  0  0  0  0  0  0  0  0  0  0
   67.5442   44.7435   54.6708 N   0  0  0  0  0  0  0  0  0  0  0  0
   67.6013   45.2963   53.4410 C   0  0  0  0  0  0  0  0  0  0  0  0
   67.0144   44.7365   52.4900 O   0  0  0  0  0  0  0  0  0  0  0  0
   68.3050   46.4482   53.3077 C   0  0  0  0  0  0  0  0  0  0  0  0
   68.9541   47.0568   54.3904 C   0  0  0  0  0  0  0  0  0  0  0  0
   69.6445   48.2732   54.2134 N   0  0  0  0  0  0  0  0  0  0  0  0
   70.1563   48.6595   52.9361 C   0  0  0  0  0  0  0  0  0  0  0  0
   69.8748   47.6138   51.9089 C   0  0  0  0  0  0  0  0  0  0  0  0
   68.4336   47.1182   51.9799 C   0  0  0  0  0  0  0  0  0  0  0  0
  8  9  2  0
  9 10  1  0
  9 13  1  0
 10 11  1  0
 11 12  1  0
 12 13  1  0
 13  1  1  0
  1  2  2  0
  1  6  1  0
  2  3  1  0
  3 14  1  0
  3  4  2  0
 14 15  1  0
 15 16  2  0
 15 21  1  0
 16 17  1  0
 17 18  1  0
 18 19  2  0
 18 20  1  0
 20 21  2  0
 20 25  1  0
 21 22  1  0
 22 23  1  0
 23 24  1  0
 24 25  1  0
  4  5  1  0
  5  6  2  0
  6  7  1  0
M  END
>  <minimizedAffinity>  (666) 
-8.50005

$$$$
data/200k_reference_output/data/smiles/31612.pdb
     RDKit          3D

 21 23  0  0  0  0  0  0  0  0999 V2000
   70.2003   50.9450   56.4652 C   0  0  0  0  0  0  0  0  0  0  0  0
   70.7824   50.2013   55.4697 C   0  0  0  0  0  0  0  0  0  0  0  0
   70.4350   50.2919   54.1282 C   0  0  0  0  0  0  0  0  0  0  0  0
   69.4490   51.1828   53.7930 C   0  0  0  0  0  0  0  0  0  0  0  0
   68.8320   51.9524   54.7509 C   0  0  0  0  0  0  0  0  0  0  0  0
   69.2049   51.8385   56.0954 C   0  0  0  0  0  0  0  0  0  0  0  0
   68.6092   52.5832   57.0373 F   0  0  0  0  0  0  0  0  0  0  0  0
   71.7182   49.3081   58.2137 C   0  0  0  0  0  0  0  0  0  0  0  0
   70.7048   50.7841   58.1500 S   0  0  0  0  0  0  0  0  0  0  0  0
   71.4765   51.9784   58.6135 O   0  0  0  0  0  0  0  0  0  0  0  0
   69.4626   50.5502   58.9567 O   0  0  0  0  0  0  0  0  0  0  0  0
   71.1072   49.4879   53.1330 N   0  0  0  0  0  0  0  0  0  0  0  0
   70.3564   48.4743   52.4802 C   0  0  0  0  0  0  0  0  0  0  0  0
   70.3379   48.1377   51.1814 N   0  0  0  0  0  0  0  0  0  0  0  0
   69.4796   47.1347   50.9805 N   0  0  0  0  0  0  0  0  0  0  0  0
   68.8968   46.7657   52.1209 C   0  0  0  0  0  0  0  0  0  0  0  0
   67.9553   45.8164   52.4760 C   0  0  0  0  0  0  0  0  0  0  0  0
   67.5933   45.7476   53.8041 C   0  0  0  0  0  0  0  0  0  0  0  0
   68.1434   46.5953   54.7677 C   0  0  0  0  0  0  0  0  0  0  0  0
   69.0538   47.4976   54.3644 N   0  0  0  0  0  0  0  0  0  0  0  0
   69.4414   47.6057   53.0855 C   0  0  0  0  0  0  0  0  0  0  0  0
  8  9  1  0
  9 10  2  0
  9 11  2  0
  9  1  1  0
  1  2  2  0
  1  6  1  0
  2  3  1  0
  3 12  1  0
  3  4  2  0
 12 13  1  0
 13 14  2  0
 13 21  1  0
 14 15  1  0
 15 16  1  0
 16 17  1  0
 16 21  2  0
 17 18  2  0
 18 19  1  0
 19 20  2  0
 20 21  1  0
  4  5  1  0
  5  6  2  0
  6  7  1  0
M  END
>  <minimizedAffinity>  (667) 
-8.50005

$$$$
