
 OpenBabel05232313393D

 31 32  0  0  0  0  0  0  0  0999 V2000
    5.2199   -1.0684   -0.0169 C   0  0  0  0  0  0  0  0  0  0  0  0
    3.9022   -0.4293   -0.0210 C   0  0  0  0  0  0  0  0  0  0  0  0
    3.6904    0.8577    0.4235 C   0  0  0  0  0  0  0  0  0  0  0  0
    2.4600    1.4528    0.4145 C   0  0  0  0  0  0  0  0  0  0  0  0
    1.3529    0.7498   -0.0612 C   0  0  0  0  0  0  0  0  0  0  0  0
    0.0644    1.3990   -0.0840 C   0  0  0  0  0  0  0  0  0  0  0  0
    0.1027    2.6807   -0.2277 O   0  0  0  0  0  0  0  0  0  0  0  0
   -1.2204    0.7389    0.0388 C   0  0  0  0  0  0  0  0  0  0  0  0
   -1.4145   -0.4855    0.6307 C   0  0  0  0  0  0  0  0  0  0  0  0
   -2.6887   -1.0608    0.7014 C   0  0  0  0  0  0  0  0  0  0  0  0
   -2.8681   -2.2968    1.3010 O   0  0  0  0  0  0  0  0  0  0  0  0
   -3.7950   -0.4332    0.1878 C   0  0  0  0  0  0  0  0  0  0  0  0
   -5.0514   -1.0273    0.2717 O   0  0  0  0  0  0  0  0  0  0  0  0
   -3.6172    0.7962   -0.4088 C   0  0  0  0  0  0  0  0  0  0  0  0
   -4.7435    1.4669   -0.9501 N   0  3  0  0  0  0  0  0  0  0  0  0
   -4.7291    2.7086   -1.0144 O   0  0  0  0  0  0  0  0  0  0  0  0
   -5.8323    0.8040   -1.3968 O   0  5  0  0  0  0  0  0  0  0  0  0
   -2.3610    1.3595   -0.4767 C   0  0  0  0  0  0  0  0  0  0  0  0
    1.5576   -0.5370   -0.5077 C   0  0  0  0  0  0  0  0  0  0  0  0
    2.8111   -1.1160   -0.4875 C   0  0  0  0  0  0  0  0  0  0  0  0
    5.2083   -1.8972    0.7122 H   0  0  0  0  0  0  0  0  0  0  0  0
    6.0369   -0.3744    0.2905 H   0  0  0  0  0  0  0  0  0  0  0  0
    5.4870   -1.4369   -1.0411 H   0  0  0  0  0  0  0  0  0  0  0  0
    4.5443    1.3908    0.7872 H   0  0  0  0  0  0  0  0  0  0  0  0
    2.2907    2.4535    0.7616 H   0  0  0  0  0  0  0  0  0  0  0  0
   -0.5762   -1.0161    1.0581 H   0  0  0  0  0  0  0  0  0  0  0  0
   -2.0655   -2.7920    1.6933 H   0  0  0  0  0  0  0  0  0  0  0  0
   -5.1409   -1.9421    0.7251 H   0  0  0  0  0  0  0  0  0  0  0  0
   -2.2223    2.3166   -0.9404 H   0  0  0  0  0  0  0  0  0  0  0  0
    0.7150   -1.1261   -0.9002 H   0  0  0  0  0  0  0  0  0  0  0  0
    2.8827   -2.1359   -0.8596 H   0  0  0  0  0  0  0  0  0  0  0  0
  1  2  1  0  0  0  0
  1 21  1  0  0  0  0
  1 22  1  0  0  0  0
  1 23  1  0  0  0  0
  2  3  2  0  0  0  0
  3  4  1  0  0  0  0
  3 24  1  0  0  0  0
  4  5  2  0  0  0  0
  4 25  1  0  0  0  0
  5  6  1  0  0  0  0
  5 19  1  0  0  0  0
  6  7  2  0  0  0  0
  6  8  1  0  0  0  0
  8  9  2  0  0  0  0
  9 10  1  0  0  0  0
  9 26  1  0  0  0  0
 10 11  1  0  0  0  0
 10 12  2  0  0  0  0
 11 27  1  0  0  0  0
 12 13  1  0  0  0  0
 12 14  1  0  0  0  0
 13 28  1  0  0  0  0
 14 15  1  0  0  0  0
 14 18  2  0  0  0  0
 15 16  2  0  0  0  0
 15 17  1  0  0  0  0
 18  8  1  0  0  0  0
 18 29  1  0  0  0  0
 19 20  2  0  0  0  0
 19 30  1  0  0  0  0
 20  2  1  0  0  0  0
 20 31  1  0  0  0  0
M  CHG  2  15   1  17  -1
M  END
$$$$
