
 OpenBabel05232313403D

 37 39  0  0  0  0  0  0  0  0999 V2000
    5.8037   -0.6786   -1.9521 N   0  0  0  0  0  0  0  0  0  0  0  0
    4.4266   -0.7751   -1.6493 C   0  0  0  0  0  0  0  0  0  0  0  0
    3.7138   -1.6285   -2.2280 O   0  0  0  0  0  0  0  0  0  0  0  0
    3.9083    0.1226   -0.6803 N   0  0  0  0  0  0  0  0  0  0  0  0
    4.5585    1.1632    0.0875 C   0  0  0  0  0  0  0  0  0  0  0  0
    3.8545    1.0249    1.4103 C   0  0  0  0  0  0  0  0  0  0  0  0
    2.4539    0.7015    1.0018 C   0  0  0  0  0  0  0  0  0  0  0  0
    1.2389    0.8489    1.6318 C   0  0  0  0  0  0  0  0  0  0  0  0
    0.1035    0.4422    0.9797 C   0  0  0  0  0  0  0  0  0  0  0  0
    0.1142   -0.1092   -0.2792 C   0  0  0  0  0  0  0  0  0  0  0  0
   -1.0487   -0.5276   -0.9584 N   0  0  0  0  0  0  0  0  0  0  0  0
   -2.2374   -1.4503   -0.1858 S   0  0  0  0  0  0  0  0  0  0  0  0
   -1.7154   -1.9000    1.1629 O   0  0  0  0  0  0  0  0  0  0  0  0
   -2.4860   -2.7057   -1.0180 O   0  0  0  0  0  0  0  0  0  0  0  0
   -3.7788   -0.6580   -0.0052 C   0  0  0  0  0  0  0  0  0  0  0  0
   -4.1600    0.0410    1.1138 C   0  0  0  0  0  0  0  0  0  0  0  0
   -3.3549    0.1476    2.1952 F   0  0  0  0  0  0  0  0  0  0  0  0
   -5.4136    0.6576    1.1646 C   0  0  0  0  0  0  0  0  0  0  0  0
   -5.8216    1.3534    2.2482 F   0  0  0  0  0  0  0  0  0  0  0  0
   -6.2856    0.5751    0.0975 C   0  0  0  0  0  0  0  0  0  0  0  0
   -7.5025    1.1623    0.1223 F   0  0  0  0  0  0  0  0  0  0  0  0
   -5.8832   -0.1250   -1.0011 C   0  0  0  0  0  0  0  0  0  0  0  0
   -6.7247   -0.2253   -2.0745 F   0  0  0  0  0  0  0  0  0  0  0  0
   -4.6576   -0.7337   -1.0639 C   0  0  0  0  0  0  0  0  0  0  0  0
   -4.3348   -1.4183   -2.2102 F   0  0  0  0  0  0  0  0  0  0  0  0
    1.3672   -0.2443   -0.8907 C   0  0  0  0  0  0  0  0  0  0  0  0
    2.5218    0.1577   -0.2544 C   0  0  0  0  0  0  0  0  0  0  0  0
    6.2177    0.1840   -2.3476 H   0  0  0  0  0  0  0  0  0  0  0  0
    6.4198   -1.4929   -1.7745 H   0  0  0  0  0  0  0  0  0  0  0  0
    4.3130    2.1554   -0.3786 H   0  0  0  0  0  0  0  0  0  0  0  0
    5.6440    1.0044    0.1662 H   0  0  0  0  0  0  0  0  0  0  0  0
    3.9150    1.9187    2.0449 H   0  0  0  0  0  0  0  0  0  0  0  0
    4.2663    0.1095    1.9004 H   0  0  0  0  0  0  0  0  0  0  0  0
    1.1920    1.2864    2.6402 H   0  0  0  0  0  0  0  0  0  0  0  0
   -0.8526    0.5566    1.4665 H   0  0  0  0  0  0  0  0  0  0  0  0
   -1.1894   -0.2644   -1.9704 H   0  0  0  0  0  0  0  0  0  0  0  0
    1.4142   -0.6760   -1.8857 H   0  0  0  0  0  0  0  0  0  0  0  0
  1  2  1  0  0  0  0
  1 28  1  0  0  0  0
  1 29  1  0  0  0  0
  2  3  2  0  0  0  0
  2  4  1  0  0  0  0
  4  5  1  0  0  0  0
  5  6  1  0  0  0  0
  5 30  1  0  0  0  0
  5 31  1  0  0  0  0
  6  7  1  0  0  0  0
  6 32  1  0  0  0  0
  6 33  1  0  0  0  0
  7  8  2  0  0  0  0
  8  9  1  0  0  0  0
  8 34  1  0  0  0  0
  9 10  2  0  0  0  0
  9 35  1  0  0  0  0
 10 11  1  0  0  0  0
 10 26  1  0  0  0  0
 11 12  1  0  0  0  0
 11 36  1  0  0  0  0
 12 13  2  0  0  0  0
 12 14  2  0  0  0  0
 12 15  1  0  0  0  0
 15 16  2  0  0  0  0
 16 17  1  0  0  0  0
 16 18  1  0  0  0  0
 18 19  1  0  0  0  0
 18 20  2  0  0  0  0
 20 21  1  0  0  0  0
 20 22  1  0  0  0  0
 22 23  1  0  0  0  0
 22 24  2  0  0  0  0
 24 25  1  0  0  0  0
 24 15  1  0  0  0  0
 26 27  2  0  0  0  0
 26 37  1  0  0  0  0
 27  4  1  0  0  0  0
 27  7  1  0  0  0  0
M  END
$$$$
