
 OpenBabel05232313403D

 38 40  0  0  0  0  0  0  0  0999 V2000
   -1.5403    2.1878   -1.2415 O   0  0  0  0  0  0  0  0  0  0  0  0
   -1.2611    1.0577   -0.8470 C   0  0  0  0  0  0  0  0  0  0  0  0
    0.1327    0.7916   -0.8609 O   0  0  0  0  0  0  0  0  0  0  0  0
    1.0803    1.7293   -1.2829 C   0  0  0  0  0  0  0  0  0  0  0  0
    2.4402    1.0791   -1.1524 C   0  0  0  0  0  0  0  0  0  0  0  0
    2.6292    0.7324    0.2065 O   0  0  0  0  0  0  0  0  0  0  0  0
    3.8244    0.1058    0.6103 C   0  0  0  0  0  0  0  0  0  0  0  0
    4.0162   -0.2352    1.9327 C   0  0  0  0  0  0  0  0  0  0  0  0
    5.1877   -0.8511    2.3372 C   0  0  0  0  0  0  0  0  0  0  0  0
    6.1626   -1.1196    1.3978 C   0  0  0  0  0  0  0  0  0  0  0  0
    7.3120   -1.7312    1.8327 F   0  0  0  0  0  0  0  0  0  0  0  0
    6.0018   -0.7916    0.0687 C   0  0  0  0  0  0  0  0  0  0  0  0
    4.8176   -0.1775   -0.2963 C   0  0  0  0  0  0  0  0  0  0  0  0
   -2.1204   -0.0027   -0.3868 C   0  0  0  0  0  0  0  0  0  0  0  0
   -1.5638   -1.2269    0.0204 C   0  0  0  0  0  0  0  0  0  0  0  0
   -2.3397   -2.2596    0.4638 C   0  0  0  0  0  0  0  0  0  0  0  0
   -1.7703   -3.3314    0.8136 O   0  0  0  0  0  0  0  0  0  0  0  0
   -3.6662   -2.1384    0.5255 N   0  0  0  0  0  0  0  0  0  0  0  0
   -4.2535   -0.9893    0.1485 C   0  0  0  0  0  0  0  0  0  0  0  0
   -5.6350   -0.8879    0.2220 C   0  0  0  0  0  0  0  0  0  0  0  0
   -6.2250    0.2771   -0.1607 C   0  0  0  0  0  0  0  0  0  0  0  0
   -5.4954    1.3521   -0.6160 C   0  0  0  0  0  0  0  0  0  0  0  0
   -4.1126    1.2688   -0.6962 C   0  0  0  0  0  0  0  0  0  0  0  0
   -3.5007    0.0990   -0.3135 C   0  0  0  0  0  0  0  0  0  0  0  0
    1.0902    2.6253   -0.5996 H   0  0  0  0  0  0  0  0  0  0  0  0
    0.9002    2.1228   -2.2931 H   0  0  0  0  0  0  0  0  0  0  0  0
    2.3692    0.1055   -1.7130 H   0  0  0  0  0  0  0  0  0  0  0  0
    3.2519    1.7242   -1.5401 H   0  0  0  0  0  0  0  0  0  0  0  0
    3.2453   -0.0207    2.6643 H   0  0  0  0  0  0  0  0  0  0  0  0
    5.3484   -1.1244    3.3804 H   0  0  0  0  0  0  0  0  0  0  0  0
    6.7652   -1.0029   -0.6619 H   0  0  0  0  0  0  0  0  0  0  0  0
    4.6604    0.0907   -1.3211 H   0  0  0  0  0  0  0  0  0  0  0  0
   -0.4758   -1.2980   -0.0407 H   0  0  0  0  0  0  0  0  0  0  0  0
   -4.2589   -2.9517    0.8732 H   0  0  0  0  0  0  0  0  0  0  0  0
   -6.1711   -1.7529    0.5842 H   0  0  0  0  0  0  0  0  0  0  0  0
   -7.3195    0.3274   -0.0914 H   0  0  0  0  0  0  0  0  0  0  0  0
   -5.9823    2.2656   -0.9141 H   0  0  0  0  0  0  0  0  0  0  0  0
   -3.5440    2.1112   -1.0527 H   0  0  0  0  0  0  0  0  0  0  0  0
  1  2  2  0  0  0  0
  2  3  1  0  0  0  0
  2 14  1  0  0  0  0
  3  4  1  0  0  0  0
  4  5  1  0  0  0  0
  4 25  1  0  0  0  0
  4 26  1  0  0  0  0
  5  6  1  0  0  0  0
  5 27  1  0  0  0  0
  5 28  1  0  0  0  0
  6  7  1  0  0  0  0
  7  8  2  0  0  0  0
  8  9  1  0  0  0  0
  8 29  1  0  0  0  0
  9 10  2  0  0  0  0
  9 30  1  0  0  0  0
 10 11  1  0  0  0  0
 10 12  1  0  0  0  0
 12 13  2  0  0  0  0
 12 31  1  0  0  0  0
 13  7  1  0  0  0  0
 13 32  1  0  0  0  0
 14 15  2  0  0  0  0
 15 16  1  0  0  0  0
 15 33  1  0  0  0  0
 16 17  2  0  0  0  0
 16 18  1  0  0  0  0
 18 19  1  0  0  0  0
 18 34  1  0  0  0  0
 19 20  2  0  0  0  0
 20 21  1  0  0  0  0
 20 35  1  0  0  0  0
 21 22  2  0  0  0  0
 21 36  1  0  0  0  0
 22 23  1  0  0  0  0
 22 37  1  0  0  0  0
 23 24  2  0  0  0  0
 23 38  1  0  0  0  0
 24 14  1  0  0  0  0
 24 19  1  0  0  0  0
M  END
$$$$
