
 OpenBabel05232313403D

 43 47  0  0  0  0  0  0  0  0999 V2000
   -3.4342   -0.8121   -2.3490 N   0  3  0  0  0  0  0  0  0  0  0  0
   -3.6957   -0.1525   -1.2454 C   0  0  0  0  0  0  0  0  0  0  0  0
   -5.1014    0.1461   -0.8878 C   0  0  0  0  0  0  0  0  0  0  0  0
   -5.1807    0.6419    0.5326 C   0  0  0  0  0  0  0  0  0  0  0  0
   -4.2834    1.8309    0.7984 C   0  0  0  0  0  0  0  0  0  0  0  0
   -2.8957    1.5013    0.3303 C   0  0  0  0  0  0  0  0  0  0  0  0
   -1.9565    2.3122    0.5586 O   0  0  0  0  0  0  0  0  0  0  0  0
   -2.6615    0.2716   -0.3694 N   0  0  0  0  0  0  0  0  0  0  0  0
   -1.4808   -0.4848   -0.1950 C   0  0  0  0  0  0  0  0  0  0  0  0
   -1.0425   -1.5268   -0.9722 C   0  0  0  0  0  0  0  0  0  0  0  0
   -0.3681   -2.6250   -1.6029 C   0  0  0  0  0  0  0  0  0  0  0  0
    0.1897   -2.0249   -0.4420 C   0  0  0  0  0  0  0  0  0  0  0  0
    0.4534   -1.2326    0.6731 C   0  0  0  0  0  0  0  0  0  0  0  0
    1.6473   -1.4818    1.5224 C   0  0  0  0  0  0  0  0  0  0  0  0
    2.8491   -1.2061    0.7471 C   0  0  0  0  0  0  0  0  0  0  0  0
    3.4896   -2.2751    0.1731 N   0  0  0  0  0  0  0  0  0  0  0  0
    4.5501   -2.1208   -0.5770 N   0  0  0  0  0  0  0  0  0  0  0  0
    5.0688   -0.9301   -0.8283 C   0  0  0  0  0  0  0  0  0  0  0  0
    6.0985   -0.8384   -1.5614 O   0  0  0  0  0  0  0  0  0  0  0  0
    4.5067    0.2168   -0.3041 C   0  0  0  0  0  0  0  0  0  0  0  0
    5.0396    1.4524   -0.5525 C   0  0  0  0  0  0  0  0  0  0  0  0
    4.4473    2.5635    0.0031 C   0  0  0  0  0  0  0  0  0  0  0  0
    3.3263    2.4100    0.7994 C   0  0  0  0  0  0  0  0  0  0  0  0
    2.8069    1.1564    1.0356 C   0  0  0  0  0  0  0  0  0  0  0  0
    3.3645    0.0281    0.5029 C   0  0  0  0  0  0  0  0  0  0  0  0
   -0.5378   -0.3171    0.8245 C   0  0  0  0  0  0  0  0  0  0  0  0
   -0.6239    0.6166    1.8349 F   0  0  0  0  0  0  0  0  0  0  0  0
   -4.2585   -1.0955   -2.9245 H   0  0  0  0  0  0  0  0  0  0  0  0
   -2.4884   -1.0470   -2.6869 H   0  0  0  0  0  0  0  0  0  0  0  0
   -5.6970   -0.8015   -0.9298 H   0  0  0  0  0  0  0  0  0  0  0  0
   -5.5713    0.8561   -1.6067 H   0  0  0  0  0  0  0  0  0  0  0  0
   -6.2351    0.8513    0.7979 H   0  0  0  0  0  0  0  0  0  0  0  0
   -4.7864   -0.1978    1.1834 H   0  0  0  0  0  0  0  0  0  0  0  0
   -4.2713    1.9687    1.9177 H   0  0  0  0  0  0  0  0  0  0  0  0
   -4.6485    2.7738    0.3890 H   0  0  0  0  0  0  0  0  0  0  0  0
   -0.3421   -3.3439   -2.3853 H   0  0  0  0  0  0  0  0  0  0  0  0
    1.5910   -0.9027    2.4755 H   0  0  0  0  0  0  0  0  0  0  0  0
    1.6122   -2.5505    1.8205 H   0  0  0  0  0  0  0  0  0  0  0  0
    4.9942   -2.9914   -0.9835 H   0  0  0  0  0  0  0  0  0  0  0  0
    5.8991    1.5556   -1.1701 H   0  0  0  0  0  0  0  0  0  0  0  0
    4.8577    3.5376   -0.1880 H   0  0  0  0  0  0  0  0  0  0  0  0
    2.8387    3.2615    1.2519 H   0  0  0  0  0  0  0  0  0  0  0  0
    1.9299    1.0058    1.6706 H   0  0  0  0  0  0  0  0  0  0  0  0
  1  2  2  0  0  0  0
  1 28  1  0  0  0  0
  1 29  1  0  0  0  0
  2  3  1  0  0  0  0
  3  4  1  0  0  0  0
  3 30  1  0  0  0  0
  3 31  1  0  0  0  0
  4  5  1  0  0  0  0
  4 32  1  0  0  0  0
  4 33  1  0  0  0  0
  5  6  1  0  0  0  0
  5 34  1  0  0  0  0
  5 35  1  0  0  0  0
  6  7  2  0  0  0  0
  6  8  1  0  0  0  0
  8  9  1  0  0  0  0
  8  2  1  0  0  0  0
  9 10  1  0  0  0  0
 10 11  2  0  0  0  0
 11 12  1  0  0  0  0
 11 36  1  0  0  0  0
 12 13  2  0  0  0  0
 12 10  1  0  0  0  0
 13 14  1  0  0  0  0
 13 26  1  0  0  0  0
 14 15  1  0  0  0  0
 14 37  1  0  0  0  0
 14 38  1  0  0  0  0
 15 16  2  0  0  0  0
 16 17  1  0  0  0  0
 17 18  1  0  0  0  0
 17 39  1  0  0  0  0
 18 19  2  0  0  0  0
 18 20  1  0  0  0  0
 20 21  2  0  0  0  0
 21 22  1  0  0  0  0
 21 40  1  0  0  0  0
 22 23  2  0  0  0  0
 22 41  1  0  0  0  0
 23 24  1  0  0  0  0
 23 42  1  0  0  0  0
 24 25  2  0  0  0  0
 24 43  1  0  0  0  0
 25 15  1  0  0  0  0
 25 20  1  0  0  0  0
 26 27  1  0  0  0  0
 26  9  2  0  0  0  0
M  CHG  1   1   1
M  END
$$$$
