
 OpenBabel05232313403D

 40 42  0  0  0  0  0  0  0  0999 V2000
   -2.6266    0.0865   -1.0273 O   0  0  0  0  0  0  0  0  0  0  0  0
   -2.3062    0.0974    0.1863 C   0  0  0  0  0  0  0  0  0  0  0  0
   -3.2470   -0.4306    1.1017 N   0  0  0  0  0  0  0  0  0  0  0  0
   -4.5014   -0.9539    0.6908 C   0  0  0  0  0  0  0  0  0  0  0  0
   -5.3759   -1.4537    1.6232 C   0  0  0  0  0  0  0  0  0  0  0  0
   -6.5951   -1.9577    1.1846 C   0  0  0  0  0  0  0  0  0  0  0  0
   -6.8991   -1.9488   -0.1383 C   0  0  0  0  0  0  0  0  0  0  0  0
   -6.0069   -1.4428   -1.0546 C   0  0  0  0  0  0  0  0  0  0  0  0
   -4.8365   -0.9627   -0.6002 N   0  0  0  0  0  0  0  0  0  0  0  0
   -1.0143    0.6424    0.5555 C   0  0  0  0  0  0  0  0  0  0  0  0
   -0.5883    0.6883    1.8768 C   0  0  0  0  0  0  0  0  0  0  0  0
    0.6454    1.2122    2.2002 C   0  0  0  0  0  0  0  0  0  0  0  0
    1.4720    1.6974    1.2150 C   0  0  0  0  0  0  0  0  0  0  0  0
    1.0604    1.6566   -0.0947 C   0  0  0  0  0  0  0  0  0  0  0  0
    2.1127    2.2705   -1.3871 S   0  0  0  0  0  0  0  0  0  0  0  0
    3.0201    3.3355   -0.8109 O   0  0  0  0  0  0  0  0  0  0  0  0
    1.2509    2.9328   -2.4046 O   0  0  0  0  0  0  0  0  0  0  0  0
    3.0465    1.0378   -2.0987 N   0  0  0  0  0  0  0  0  0  0  0  0
    4.0122    0.2363   -1.4359 C   0  0  0  0  0  0  0  0  0  0  0  0
    4.5951    0.6274   -0.2529 C   0  0  0  0  0  0  0  0  0  0  0  0
    5.5477   -0.1533    0.3930 C   0  0  0  0  0  0  0  0  0  0  0  0
    5.9473   -1.3622   -0.1355 C   0  0  0  0  0  0  0  0  0  0  0  0
    5.3698   -1.7641   -1.3210 C   0  0  0  0  0  0  0  0  0  0  0  0
    4.4262   -0.9869   -1.9572 C   0  0  0  0  0  0  0  0  0  0  0  0
    3.8648   -1.3887   -3.1192 F   0  0  0  0  0  0  0  0  0  0  0  0
   -0.1704    1.1343   -0.4196 C   0  0  0  0  0  0  0  0  0  0  0  0
   -3.0058   -0.4355    2.1332 H   0  0  0  0  0  0  0  0  0  0  0  0
   -5.0816   -1.4356    2.6626 H   0  0  0  0  0  0  0  0  0  0  0  0
   -7.2765   -2.3517    1.9546 H   0  0  0  0  0  0  0  0  0  0  0  0
   -7.8706   -2.3558   -0.4390 H   0  0  0  0  0  0  0  0  0  0  0  0
   -6.2865   -1.4539   -2.0983 H   0  0  0  0  0  0  0  0  0  0  0  0
   -1.2346    0.3046    2.6850 H   0  0  0  0  0  0  0  0  0  0  0  0
    0.9451    1.2299    3.2597 H   0  0  0  0  0  0  0  0  0  0  0  0
    2.4450    2.1117    1.5052 H   0  0  0  0  0  0  0  0  0  0  0  0
    2.9161    0.8251   -3.1383 H   0  0  0  0  0  0  0  0  0  0  0  0
    4.3489    1.5505    0.2231 H   0  0  0  0  0  0  0  0  0  0  0  0
    5.9917    0.1903    1.3360 H   0  0  0  0  0  0  0  0  0  0  0  0
    6.6962   -1.9718    0.3763 H   0  0  0  0  0  0  0  0  0  0  0  0
    5.6742   -2.7122   -1.7480 H   0  0  0  0  0  0  0  0  0  0  0  0
   -0.4648    1.1191   -1.4813 H   0  0  0  0  0  0  0  0  0  0  0  0
  1  2  2  0  0  0  0
  2  3  1  0  0  0  0
  2 10  1  0  0  0  0
  3  4  1  0  0  0  0
  3 27  1  0  0  0  0
  4  5  2  0  0  0  0
  5  6  1  0  0  0  0
  5 28  1  0  0  0  0
  6  7  2  0  0  0  0
  6 29  1  0  0  0  0
  7  8  1  0  0  0  0
  7 30  1  0  0  0  0
  8  9  2  0  0  0  0
  8 31  1  0  0  0  0
  9  4  1  0  0  0  0
 10 11  2  0  0  0  0
 11 12  1  0  0  0  0
 11 32  1  0  0  0  0
 12 13  2  0  0  0  0
 12 33  1  0  0  0  0
 13 14  1  0  0  0  0
 13 34  1  0  0  0  0
 14 15  1  0  0  0  0
 14 26  2  0  0  0  0
 15 16  2  0  0  0  0
 15 17  2  0  0  0  0
 15 18  1  0  0  0  0
 18 19  1  0  0  0  0
 18 35  1  0  0  0  0
 19 20  2  0  0  0  0
 20 21  1  0  0  0  0
 20 36  1  0  0  0  0
 21 22  2  0  0  0  0
 21 37  1  0  0  0  0
 22 23  1  0  0  0  0
 22 38  1  0  0  0  0
 23 24  2  0  0  0  0
 23 39  1  0  0  0  0
 24 25  1  0  0  0  0
 24 19  1  0  0  0  0
 26 10  1  0  0  0  0
 26 40  1  0  0  0  0
M  END
$$$$
