
 OpenBabel05232313403D

 47 50  0  0  0  0  0  0  0  0999 V2000
    2.1328   -0.4014   -1.5512 O   0  0  0  0  0  0  0  0  0  0  0  0
    1.2926    0.0449   -0.7572 C   0  0  0  0  0  0  0  0  0  0  0  0
    1.4343    1.4103   -0.2776 N   0  0  0  0  0  0  0  0  0  0  0  0
    2.5542    2.1806   -0.7565 C   0  0  0  0  0  0  0  0  0  0  0  0
    3.8356    1.8172   -0.1366 C   0  0  0  0  0  0  0  0  0  0  0  0
    3.9178    0.8128    0.8004 C   0  0  0  0  0  0  0  0  0  0  0  0
    5.1426    0.4799    1.3796 C   0  0  0  0  0  0  0  0  0  0  0  0
    6.2699    1.1879    0.9851 C   0  0  0  0  0  0  0  0  0  0  0  0
    7.4736    0.8628    1.5522 F   0  0  0  0  0  0  0  0  0  0  0  0
    6.2185    2.1938    0.0538 C   0  0  0  0  0  0  0  0  0  0  0  0
    4.9687    2.4854   -0.4933 C   0  0  0  0  0  0  0  0  0  0  0  0
    0.1706   -0.7079   -0.2703 C   0  0  0  0  0  0  0  0  0  0  0  0
   -0.7446   -0.0749    0.5291 N   0  0  0  0  0  0  0  0  0  0  0  0
   -1.8101   -0.6478    1.0388 N   0  0  0  0  0  0  0  0  0  0  0  0
   -2.7230    0.1308    1.8777 C   0  0  0  0  0  0  0  0  0  0  0  0
   -3.7799    0.7925    1.0908 C   0  0  0  0  0  0  0  0  0  0  0  0
   -3.6151    2.0599    0.5401 C   0  0  0  0  0  0  0  0  0  0  0  0
   -4.6207    2.6521   -0.1895 C   0  0  0  0  0  0  0  0  0  0  0  0
   -5.8262    2.0187   -0.4041 C   0  0  0  0  0  0  0  0  0  0  0  0
   -5.9929    0.7632    0.1401 C   0  0  0  0  0  0  0  0  0  0  0  0
   -4.9816    0.1509    0.8819 C   0  0  0  0  0  0  0  0  0  0  0  0
   -2.0048   -1.9396    0.7509 C   0  0  0  0  0  0  0  0  0  0  0  0
   -3.0043   -2.5292    1.2125 O   0  0  0  0  0  0  0  0  0  0  0  0
   -1.1308   -2.6617   -0.0499 C   0  0  0  0  0  0  0  0  0  0  0  0
   -1.3265   -3.9837   -0.3420 C   0  0  0  0  0  0  0  0  0  0  0  0
   -0.4561   -4.7029   -1.1342 C   0  0  0  0  0  0  0  0  0  0  0  0
    0.6603   -4.1070   -1.6690 C   0  0  0  0  0  0  0  0  0  0  0  0
    0.8600   -2.7523   -1.3694 C   0  0  0  0  0  0  0  0  0  0  0  0
   -0.0103   -2.0338   -0.5778 C   0  0  0  0  0  0  0  0  0  0  0  0
    0.7430    1.8046    0.3900 H   0  0  0  0  0  0  0  0  0  0  0  0
    2.3663    3.2596   -0.5099 H   0  0  0  0  0  0  0  0  0  0  0  0
    2.5593    2.1167   -1.8698 H   0  0  0  0  0  0  0  0  0  0  0  0
    3.0496    0.2527    1.1178 H   0  0  0  0  0  0  0  0  0  0  0  0
    5.2481   -0.3013    2.1177 H   0  0  0  0  0  0  0  0  0  0  0  0
    7.1152    2.7105   -0.2174 H   0  0  0  0  0  0  0  0  0  0  0  0
    4.9515    3.2850   -1.2285 H   0  0  0  0  0  0  0  0  0  0  0  0
   -2.1705    0.9286    2.4317 H   0  0  0  0  0  0  0  0  0  0  0  0
   -3.2066   -0.5026    2.6424 H   0  0  0  0  0  0  0  0  0  0  0  0
   -2.6700    2.5345    0.7191 H   0  0  0  0  0  0  0  0  0  0  0  0
   -4.4799    3.6332   -0.6101 H   0  0  0  0  0  0  0  0  0  0  0  0
   -6.6102    2.5176   -0.9909 H   0  0  0  0  0  0  0  0  0  0  0  0
   -6.9167    0.2280    0.0002 H   0  0  0  0  0  0  0  0  0  0  0  0
   -5.1599   -0.8417    1.2935 H   0  0  0  0  0  0  0  0  0  0  0  0
   -2.2149   -4.4676    0.0804 H   0  0  0  0  0  0  0  0  0  0  0  0
   -0.6081   -5.7572   -1.3700 H   0  0  0  0  0  0  0  0  0  0  0  0
    1.3791   -4.6089   -2.2941 H   0  0  0  0  0  0  0  0  0  0  0  0
    1.7200   -2.2934   -1.7759 H   0  0  0  0  0  0  0  0  0  0  0  0
  1  2  2  0  0  0  0
  2  3  1  0  0  0  0
  2 12  1  0  0  0  0
  3  4  1  0  0  0  0
  3 30  1  0  0  0  0
  4  5  1  0  0  0  0
  4 31  1  0  0  0  0
  4 32  1  0  0  0  0
  5  6  2  0  0  0  0
  6  7  1  0  0  0  0
  6 33  1  0  0  0  0
  7  8  2  0  0  0  0
  7 34  1  0  0  0  0
  8  9  1  0  0  0  0
  8 10  1  0  0  0  0
 10 11  2  0  0  0  0
 10 35  1  0  0  0  0
 11  5  1  0  0  0  0
 11 36  1  0  0  0  0
 12 13  2  0  0  0  0
 13 14  1  0  0  0  0
 14 15  1  0  0  0  0
 14 22  1  0  0  0  0
 15 16  1  0  0  0  0
 15 37  1  0  0  0  0
 15 38  1  0  0  0  0
 16 17  2  0  0  0  0
 17 18  1  0  0  0  0
 17 39  1  0  0  0  0
 18 19  2  0  0  0  0
 18 40  1  0  0  0  0
 19 20  1  0  0  0  0
 19 41  1  0  0  0  0
 20 21  2  0  0  0  0
 20 42  1  0  0  0  0
 21 16  1  0  0  0  0
 21 43  1  0  0  0  0
 22 23  2  0  0  0  0
 22 24  1  0  0  0  0
 24 25  2  0  0  0  0
 25 26  1  0  0  0  0
 25 44  1  0  0  0  0
 26 27  2  0  0  0  0
 26 45  1  0  0  0  0
 27 28  1  0  0  0  0
 27 46  1  0  0  0  0
 28 29  2  0  0  0  0
 28 47  1  0  0  0  0
 29 12  1  0  0  0  0
 29 24  1  0  0  0  0
M  END
$$$$
