
 OpenBabel05232313403D

 47 49  0  0  0  0  0  0  0  0999 V2000
   -6.9688   -1.0092   -0.4885 N   0  0  0  0  0  0  0  0  0  0  0  0
   -6.1496   -0.4494    0.5134 C   0  0  0  0  0  0  0  0  0  0  0  0
   -6.6330    0.3832    1.4766 C   0  0  0  0  0  0  0  0  0  0  0  0
   -7.9640    0.7301    1.5185 F   0  0  0  0  0  0  0  0  0  0  0  0
   -5.8225    0.9203    2.4476 C   0  0  0  0  0  0  0  0  0  0  0  0
   -4.5005    0.6059    2.4379 C   0  0  0  0  0  0  0  0  0  0  0  0
   -3.9966   -0.2478    1.4505 C   0  0  0  0  0  0  0  0  0  0  0  0
   -4.7909   -0.7963    0.4703 C   0  0  0  0  0  0  0  0  0  0  0  0
   -4.3135   -1.6566   -0.5434 N   0  0  0  0  0  0  0  0  0  0  0  0
   -2.6618   -1.9485   -0.8229 S   0  0  0  0  0  0  0  0  0  0  0  0
   -2.4269   -2.9816   -1.8879 O   0  0  0  0  0  0  0  0  0  0  0  0
   -2.0293   -2.3945    0.4887 O   0  0  0  0  0  0  0  0  0  0  0  0
   -1.8891   -0.4298   -1.2521 C   0  0  0  0  0  0  0  0  0  0  0  0
   -2.5369    0.5195   -2.0190 C   0  0  0  0  0  0  0  0  0  0  0  0
   -1.8587    1.6742   -2.3879 C   0  0  0  0  0  0  0  0  0  0  0  0
   -0.5289    1.8822   -1.9906 C   0  0  0  0  0  0  0  0  0  0  0  0
    0.1083    0.9323   -1.2316 C   0  0  0  0  0  0  0  0  0  0  0  0
    1.5266    1.1571   -0.8664 C   0  0  0  0  0  0  0  0  0  0  0  0
    1.9406    2.1707   -0.2959 O   0  0  0  0  0  0  0  0  0  0  0  0
    2.4133    0.1071   -1.2221 N   0  0  0  0  0  0  0  0  0  0  0  0
    3.7937    0.0841   -0.9893 N   0  0  0  0  0  0  0  0  0  0  0  0
    4.3047    0.0300    0.3454 C   0  0  0  0  0  0  0  0  0  0  0  0
    3.4212    0.0236    1.2617 O   0  0  0  0  0  0  0  0  0  0  0  0
    5.7104   -0.0205    0.6636 C   0  0  0  0  0  0  0  0  0  0  0  0
    6.1123    0.2187    1.9829 C   0  0  0  0  0  0  0  0  0  0  0  0
    7.4490    0.1862    2.3370 C   0  0  0  0  0  0  0  0  0  0  0  0
    8.4094   -0.0829    1.3882 C   0  0  0  0  0  0  0  0  0  0  0  0
    8.0377   -0.3167    0.0981 C   0  0  0  0  0  0  0  0  0  0  0  0
    6.6784   -0.2816   -0.2487 C   0  0  0  0  0  0  0  0  0  0  0  0
    6.4046   -0.5529   -1.5641 F   0  0  0  0  0  0  0  0  0  0  0  0
   -0.5780   -0.2027   -0.8730 C   0  0  0  0  0  0  0  0  0  0  0  0
   -7.1279   -2.0531   -0.5624 H   0  0  0  0  0  0  0  0  0  0  0  0
   -7.4354   -0.4110   -1.1833 H   0  0  0  0  0  0  0  0  0  0  0  0
   -6.1766    1.5986    3.2285 H   0  0  0  0  0  0  0  0  0  0  0  0
   -3.7635    0.9765    3.1548 H   0  0  0  0  0  0  0  0  0  0  0  0
   -2.9389   -0.4827    1.4544 H   0  0  0  0  0  0  0  0  0  0  0  0
   -5.0185   -2.1398   -1.1514 H   0  0  0  0  0  0  0  0  0  0  0  0
   -3.5610    0.3728   -2.3275 H   0  0  0  0  0  0  0  0  0  0  0  0
   -2.3523    2.4262   -2.9837 H   0  0  0  0  0  0  0  0  0  0  0  0
   -0.0486    2.8184   -2.3110 H   0  0  0  0  0  0  0  0  0  0  0  0
    2.0198   -0.7322   -1.7101 H   0  0  0  0  0  0  0  0  0  0  0  0
    4.4496    0.1172   -1.7926 H   0  0  0  0  0  0  0  0  0  0  0  0
    5.3630    0.4311    2.7187 H   0  0  0  0  0  0  0  0  0  0  0  0
    7.7587    0.3739    3.3745 H   0  0  0  0  0  0  0  0  0  0  0  0
    9.4521   -0.1043    1.7037 H   0  0  0  0  0  0  0  0  0  0  0  0
    8.7578   -0.5287   -0.6572 H   0  0  0  0  0  0  0  0  0  0  0  0
   -0.0395   -0.9171   -0.2762 H   0  0  0  0  0  0  0  0  0  0  0  0
  1  2  1  0  0  0  0
  1 32  1  0  0  0  0
  1 33  1  0  0  0  0
  2  3  2  0  0  0  0
  3  4  1  0  0  0  0
  3  5  1  0  0  0  0
  5  6  2  0  0  0  0
  5 34  1  0  0  0  0
  6  7  1  0  0  0  0
  6 35  1  0  0  0  0
  7  8  2  0  0  0  0
  7 36  1  0  0  0  0
  8  9  1  0  0  0  0
  8  2  1  0  0  0  0
  9 10  1  0  0  0  0
  9 37  1  0  0  0  0
 10 11  2  0  0  0  0
 10 12  2  0  0  0  0
 10 13  1  0  0  0  0
 13 14  2  0  0  0  0
 14 15  1  0  0  0  0
 14 38  1  0  0  0  0
 15 16  2  0  0  0  0
 15 39  1  0  0  0  0
 16 17  1  0  0  0  0
 16 40  1  0  0  0  0
 17 18  1  0  0  0  0
 17 31  2  0  0  0  0
 18 19  2  0  0  0  0
 18 20  1  0  0  0  0
 20 21  1  0  0  0  0
 20 41  1  0  0  0  0
 21 22  1  0  0  0  0
 21 42  1  0  0  0  0
 22 23  2  0  0  0  0
 22 24  1  0  0  0  0
 24 25  2  0  0  0  0
 25 26  1  0  0  0  0
 25 43  1  0  0  0  0
 26 27  2  0  0  0  0
 26 44  1  0  0  0  0
 27 28  1  0  0  0  0
 27 45  1  0  0  0  0
 28 29  2  0  0  0  0
 28 46  1  0  0  0  0
 29 30  1  0  0  0  0
 29 24  1  0  0  0  0
 31 13  1  0  0  0  0
 31 47  1  0  0  0  0
M  END
$$$$
