
 OpenBabel05232313403D

 46 49  0  0  0  0  0  0  0  0999 V2000
   -5.5447    1.1158   -1.9468 O   0  0  0  0  0  0  0  0  0  0  0  0
   -4.3556    0.7747   -1.7298 C   0  0  0  0  0  0  0  0  0  0  0  0
   -3.3727    1.3414   -2.4848 N   0  0  0  0  0  0  0  0  0  0  0  0
   -2.0996    1.0370   -2.3183 N   0  0  0  0  0  0  0  0  0  0  0  0
   -1.6900    0.1347   -1.3785 C   0  0  0  0  0  0  0  0  0  0  0  0
   -0.2496   -0.1661   -1.1949 C   0  0  0  0  0  0  0  0  0  0  0  0
    0.3504    0.5946   -0.0826 C   0  0  0  0  0  0  0  0  0  0  0  0
   -0.4075    1.2312    0.8508 C   0  0  0  0  0  0  0  0  0  0  0  0
    0.2493    1.9087    1.8555 C   0  0  0  0  0  0  0  0  0  0  0  0
    1.6159    1.9476    1.9235 C   0  0  0  0  0  0  0  0  0  0  0  0
    2.4322    1.2958    0.9683 C   0  0  0  0  0  0  0  0  0  0  0  0
    3.8216    1.3912    1.1546 N   0  0  0  0  0  0  0  0  0  0  0  0
    5.0511    1.4631   -0.0072 S   0  0  0  0  0  0  0  0  0  0  0  0
    6.3971    1.7353    0.6078 O   0  0  0  0  0  0  0  0  0  0  0  0
    4.6912    2.6023   -0.9555 O   0  0  0  0  0  0  0  0  0  0  0  0
    5.1887    0.0327   -0.9648 C   0  0  0  0  0  0  0  0  0  0  0  0
    4.5841   -1.1909   -0.8123 C   0  0  0  0  0  0  0  0  0  0  0  0
    5.0028   -2.0358   -1.8147 C   0  0  0  0  0  0  0  0  0  0  0  0
    5.8724   -1.2807   -2.5664 C   0  0  0  0  0  0  0  0  0  0  0  0
    5.9518   -0.1028   -2.0468 O   0  0  0  0  0  0  0  0  0  0  0  0
    1.7530    0.6372   -0.0100 C   0  0  0  0  0  0  0  0  0  0  0  0
   -2.6834   -0.4395   -0.6155 C   0  0  0  0  0  0  0  0  0  0  0  0
   -4.0206   -0.1463   -0.7603 C   0  0  0  0  0  0  0  0  0  0  0  0
   -5.1055   -0.7392    0.0369 C   0  0  0  0  0  0  0  0  0  0  0  0
   -4.6329   -1.5456    1.1975 C   0  0  0  0  0  0  0  0  0  0  0  0
   -3.2165   -1.1868    1.6173 C   0  0  0  0  0  0  0  0  0  0  0  0
   -2.3324   -1.4543    0.4076 C   0  0  0  0  0  0  0  0  0  0  0  0
   -3.6438    2.0378   -3.2162 H   0  0  0  0  0  0  0  0  0  0  0  0
    0.3292    0.0186   -2.1280 H   0  0  0  0  0  0  0  0  0  0  0  0
   -0.0781   -1.2581   -0.9524 H   0  0  0  0  0  0  0  0  0  0  0  0
   -1.4998    1.2359    0.8339 H   0  0  0  0  0  0  0  0  0  0  0  0
   -0.3808    2.4105    2.5906 H   0  0  0  0  0  0  0  0  0  0  0  0
    2.1106    2.4957    2.7350 H   0  0  0  0  0  0  0  0  0  0  0  0
    4.1135    1.4130    2.2036 H   0  0  0  0  0  0  0  0  0  0  0  0
    3.8868   -1.4422   -0.0143 H   0  0  0  0  0  0  0  0  0  0  0  0
    4.7133   -3.0636   -1.9767 H   0  0  0  0  0  0  0  0  0  0  0  0
    6.3911   -1.6629   -3.4566 H   0  0  0  0  0  0  0  0  0  0  0  0
    2.3037    0.1489   -0.7734 H   0  0  0  0  0  0  0  0  0  0  0  0
   -5.7669   -1.3808   -0.6155 H   0  0  0  0  0  0  0  0  0  0  0  0
   -5.7742    0.0638    0.4100 H   0  0  0  0  0  0  0  0  0  0  0  0
   -5.2919   -1.4451    2.0997 H   0  0  0  0  0  0  0  0  0  0  0  0
   -4.6309   -2.6359    0.9661 H   0  0  0  0  0  0  0  0  0  0  0  0
   -3.1997   -0.1167    1.8412 H   0  0  0  0  0  0  0  0  0  0  0  0
   -2.9325   -1.8263    2.4751 H   0  0  0  0  0  0  0  0  0  0  0  0
   -2.6249   -2.4427   -0.0655 H   0  0  0  0  0  0  0  0  0  0  0  0
   -1.2755   -1.5054    0.6669 H   0  0  0  0  0  0  0  0  0  0  0  0
  1  2  2  0  0  0  0
  2  3  1  0  0  0  0
  3  4  1  0  0  0  0
  3 28  1  0  0  0  0
  4  5  2  0  0  0  0
  5  6  1  0  0  0  0
  5 22  1  0  0  0  0
  6  7  1  0  0  0  0
  6 29  1  0  0  0  0
  6 30  1  0  0  0  0
  7  8  2  0  0  0  0
  8  9  1  0  0  0  0
  8 31  1  0  0  0  0
  9 10  2  0  0  0  0
  9 32  1  0  0  0  0
 10 11  1  0  0  0  0
 10 33  1  0  0  0  0
 11 12  1  0  0  0  0
 11 21  2  0  0  0  0
 12 13  1  0  0  0  0
 12 34  1  0  0  0  0
 13 14  2  0  0  0  0
 13 15  2  0  0  0  0
 13 16  1  0  0  0  0
 16 17  2  0  0  0  0
 17 18  1  0  0  0  0
 17 35  1  0  0  0  0
 18 19  2  0  0  0  0
 18 36  1  0  0  0  0
 19 20  1  0  0  0  0
 19 37  1  0  0  0  0
 20 16  1  0  0  0  0
 21  7  1  0  0  0  0
 21 38  1  0  0  0  0
 22 23  2  0  0  0  0
 23 24  1  0  0  0  0
 23  2  1  0  0  0  0
 24 25  1  0  0  0  0
 24 39  1  0  0  0  0
 24 40  1  0  0  0  0
 25 26  1  0  0  0  0
 25 41  1  0  0  0  0
 25 42  1  0  0  0  0
 26 27  1  0  0  0  0
 26 43  1  0  0  0  0
 26 44  1  0  0  0  0
 27 22  1  0  0  0  0
 27 45  1  0  0  0  0
 27 46  1  0  0  0  0
M  END
$$$$
