
 OpenBabel05232313393D

 47 50  0  0  0  0  0  0  0  0999 V2000
    0.1754   -0.1290   -1.8934 O   0  0  0  0  0  0  0  0  0  0  0  0
   -0.5203    0.2518   -0.8951 C   0  0  0  0  0  0  0  0  0  0  0  0
    0.0533    1.1160    0.0417 N   0  0  0  0  0  0  0  0  0  0  0  0
    1.4157    1.5744   -0.1035 C   0  0  0  0  0  0  0  0  0  0  0  0
    2.3009    0.3587   -0.0725 C   0  0  0  0  0  0  0  0  0  0  0  0
    1.8006   -0.8725    0.0761 N   0  0  0  0  0  0  0  0  0  0  0  0
    2.5184   -1.9698    0.1144 N   0  0  0  0  0  0  0  0  0  0  0  0
    3.8530   -1.8753   -0.0020 C   0  0  0  0  0  0  0  0  0  0  0  0
    4.5166   -2.9486    0.0386 O   0  0  0  0  0  0  0  0  0  0  0  0
    4.4379   -0.6348   -0.1583 C   0  0  0  0  0  0  0  0  0  0  0  0
    5.8036   -0.5420   -0.2770 C   0  0  0  0  0  0  0  0  0  0  0  0
    6.3540    0.7061   -0.4312 C   0  0  0  0  0  0  0  0  0  0  0  0
    5.5801    1.8358   -0.4678 C   0  0  0  0  0  0  0  0  0  0  0  0
    4.1960    1.7584   -0.3489 C   0  0  0  0  0  0  0  0  0  0  0  0
    3.6584    0.5106   -0.1958 C   0  0  0  0  0  0  0  0  0  0  0  0
   -1.8939   -0.2291   -0.7688 C   0  0  0  0  0  0  0  0  0  0  0  0
   -2.9108    0.8495   -0.6325 C   0  0  0  0  0  0  0  0  0  0  0  0
   -3.2061    1.4437    0.5796 C   0  0  0  0  0  0  0  0  0  0  0  0
   -4.1447    2.4487    0.6407 C   0  0  0  0  0  0  0  0  0  0  0  0
   -4.7989    2.8735   -0.4969 C   0  0  0  0  0  0  0  0  0  0  0  0
   -4.5226    2.2969   -1.7159 C   0  0  0  0  0  0  0  0  0  0  0  0
   -3.5922    1.3042   -1.7630 C   0  0  0  0  0  0  0  0  0  0  0  0
   -2.0862   -1.3177    0.2394 C   0  0  0  0  0  0  0  0  0  0  0  0
   -3.0933   -2.2658    0.0362 C   0  0  0  0  0  0  0  0  0  0  0  0
   -3.3435   -3.3021    0.9007 C   0  0  0  0  0  0  0  0  0  0  0  0
   -2.5567   -3.4172    2.0374 C   0  0  0  0  0  0  0  0  0  0  0  0
   -1.5500   -2.4990    2.2741 C   0  0  0  0  0  0  0  0  0  0  0  0
   -1.3367   -1.4683    1.3686 C   0  0  0  0  0  0  0  0  0  0  0  0
   -0.4963    1.4439    0.8488 H   0  0  0  0  0  0  0  0  0  0  0  0
    1.6970    2.2246    0.7400 H   0  0  0  0  0  0  0  0  0  0  0  0
    1.5042    2.0975   -1.0831 H   0  0  0  0  0  0  0  0  0  0  0  0
    2.0669   -2.9285    0.2352 H   0  0  0  0  0  0  0  0  0  0  0  0
    6.3689   -1.4524   -0.2428 H   0  0  0  0  0  0  0  0  0  0  0  0
    7.4281    0.7609   -0.5230 H   0  0  0  0  0  0  0  0  0  0  0  0
    6.0396    2.7888   -0.5887 H   0  0  0  0  0  0  0  0  0  0  0  0
    3.5669    2.6448   -0.3758 H   0  0  0  0  0  0  0  0  0  0  0  0
   -2.2073   -0.7602   -1.7480 H   0  0  0  0  0  0  0  0  0  0  0  0
   -2.7262    1.1355    1.4892 H   0  0  0  0  0  0  0  0  0  0  0  0
   -4.3741    2.9164    1.6062 H   0  0  0  0  0  0  0  0  0  0  0  0
   -5.5362    3.6598   -0.4625 H   0  0  0  0  0  0  0  0  0  0  0  0
   -5.0074    2.5924   -2.6409 H   0  0  0  0  0  0  0  0  0  0  0  0
   -3.3607    0.8337   -2.7312 H   0  0  0  0  0  0  0  0  0  0  0  0
   -3.6894   -2.1499   -0.8576 H   0  0  0  0  0  0  0  0  0  0  0  0
   -4.1415   -4.0351    0.7189 H   0  0  0  0  0  0  0  0  0  0  0  0
   -2.7383   -4.2327    2.7374 H   0  0  0  0  0  0  0  0  0  0  0  0
   -0.9497   -2.6087    3.1663 H   0  0  0  0  0  0  0  0  0  0  0  0
   -0.5522   -0.7879    1.5867 H   0  0  0  0  0  0  0  0  0  0  0  0
  1  2  2  0  0  0  0
  2  3  1  0  0  0  0
  2 16  1  0  0  0  0
  3  4  1  0  0  0  0
  3 29  1  0  0  0  0
  4  5  1  0  0  0  0
  4 30  1  0  0  0  0
  4 31  1  0  0  0  0
  5  6  2  0  0  0  0
  6  7  1  0  0  0  0
  7  8  1  0  0  0  0
  7 32  1  0  0  0  0
  8  9  2  0  0  0  0
  8 10  1  0  0  0  0
 10 11  2  0  0  0  0
 11 12  1  0  0  0  0
 11 33  1  0  0  0  0
 12 13  2  0  0  0  0
 12 34  1  0  0  0  0
 13 14  1  0  0  0  0
 13 35  1  0  0  0  0
 14 15  2  0  0  0  0
 14 36  1  0  0  0  0
 15  5  1  0  0  0  0
 15 10  1  0  0  0  0
 16 17  1  0  0  0  0
 16 23  1  0  0  0  0
 16 37  1  0  0  0  0
 17 18  2  0  0  0  0
 18 19  1  0  0  0  0
 18 38  1  0  0  0  0
 19 20  2  0  0  0  0
 19 39  1  0  0  0  0
 20 21  1  0  0  0  0
 20 40  1  0  0  0  0
 21 22  2  0  0  0  0
 21 41  1  0  0  0  0
 22 17  1  0  0  0  0
 22 42  1  0  0  0  0
 23 24  2  0  0  0  0
 24 25  1  0  0  0  0
 24 43  1  0  0  0  0
 25 26  2  0  0  0  0
 25 44  1  0  0  0  0
 26 27  1  0  0  0  0
 26 45  1  0  0  0  0
 27 28  2  0  0  0  0
 27 46  1  0  0  0  0
 28 23  1  0  0  0  0
 28 47  1  0  0  0  0
M  END
$$$$
