
 OpenBabel05232313403D

 35 37  0  0  0  0  0  0  0  0999 V2000
   -2.8590   -0.0420   -3.6671 C   0  0  0  0  0  0  0  0  0  0  0  0
   -2.4667   -0.0353   -2.2224 C   0  0  0  0  0  0  0  0  0  0  0  0
   -1.1208   -0.0181   -1.8555 C   0  0  0  0  0  0  0  0  0  0  0  0
   -0.6885   -0.0111   -0.5466 C   0  0  0  0  0  0  0  0  0  0  0  0
    0.5292    0.0046   -0.0503 O   0  0  0  0  0  0  0  0  0  0  0  0
    1.8226    0.0204   -0.2598 C   0  0  0  0  0  0  0  0  0  0  0  0
    2.4389    0.0266   -1.4910 C   0  0  0  0  0  0  0  0  0  0  0  0
    3.8240    0.0438   -1.5416 C   0  0  0  0  0  0  0  0  0  0  0  0
    4.6028    0.0548   -0.4077 C   0  0  0  0  0  0  0  0  0  0  0  0
    4.0112    0.0490    0.8378 C   0  0  0  0  0  0  0  0  0  0  0  0
    4.8617    0.0609    2.0341 C   0  0  0  0  0  0  0  0  0  0  0  0
    6.2743    0.0783    1.9064 N   0  0  0  0  0  0  0  0  0  0  0  0
    4.3664    0.0562    3.1800 O   0  0  0  0  0  0  0  0  0  0  0  0
    2.6574    0.0322    0.8812 C   0  0  0  0  0  0  0  0  0  0  0  0
   -1.7184   -0.0228    0.3727 N   0  0  0  0  0  0  0  0  0  0  0  0
   -3.0059   -0.0391    0.0720 C   0  0  0  0  0  0  0  0  0  0  0  0
   -4.0261   -0.0505    1.1135 C   0  0  0  0  0  0  0  0  0  0  0  0
   -3.8151   -0.0463    2.4114 C   0  0  0  0  0  0  0  0  0  0  0  0
   -5.1158   -0.0616    3.0980 C   0  0  0  0  0  0  0  0  0  0  0  0
   -5.9879   -0.1134    2.1044 C   0  0  0  0  0  0  0  0  0  0  0  0
   -5.4609   -0.0686    0.9090 C   0  0  0  0  0  0  0  0  0  0  0  0
   -3.3734   -0.0453   -1.2408 N   0  0  0  0  0  0  0  0  0  0  0  0
   -2.2597    0.7717   -4.1537 H   0  0  0  0  0  0  0  0  0  0  0  0
   -2.5988   -0.9942   -4.1546 H   0  0  0  0  0  0  0  0  0  0  0  0
   -3.9441    0.1899   -3.6993 H   0  0  0  0  0  0  0  0  0  0  0  0
   -0.3858   -0.0099   -2.6204 H   0  0  0  0  0  0  0  0  0  0  0  0
    1.8785    0.0185   -2.4256 H   0  0  0  0  0  0  0  0  0  0  0  0
    4.3216    0.0488   -2.5112 H   0  0  0  0  0  0  0  0  0  0  0  0
    5.6842    0.0681   -0.4934 H   0  0  0  0  0  0  0  0  0  0  0  0
    6.8647    0.8904    2.1747 H   0  0  0  0  0  0  0  0  0  0  0  0
    6.7415   -0.7613    1.5263 H   0  0  0  0  0  0  0  0  0  0  0  0
    2.1919    0.0276    1.8644 H   0  0  0  0  0  0  0  0  0  0  0  0
   -2.8854   -0.0341    2.9654 H   0  0  0  0  0  0  0  0  0  0  0  0
   -5.3472   -0.0382    4.1379 H   0  0  0  0  0  0  0  0  0  0  0  0
   -6.0113   -0.0499   -0.0220 H   0  0  0  0  0  0  0  0  0  0  0  0
  1  2  1  0  0  0  0
  1 23  1  0  0  0  0
  1 24  1  0  0  0  0
  1 25  1  0  0  0  0
  2  3  2  0  0  0  0
  3  4  1  0  0  0  0
  3 26  1  0  0  0  0
  4  5  1  0  0  0  0
  4 15  2  0  0  0  0
  5  6  1  0  0  0  0
  6  7  2  0  0  0  0
  7  8  1  0  0  0  0
  7 27  1  0  0  0  0
  8  9  2  0  0  0  0
  8 28  1  0  0  0  0
  9 10  1  0  0  0  0
  9 29  1  0  0  0  0
 10 11  1  0  0  0  0
 10 14  2  0  0  0  0
 11 12  1  0  0  0  0
 11 13  2  0  0  0  0
 12 30  1  0  0  0  0
 12 31  1  0  0  0  0
 14  6  1  0  0  0  0
 14 32  1  0  0  0  0
 15 16  1  0  0  0  0
 16 17  1  0  0  0  0
 16 22  2  0  0  0  0
 17 18  2  0  0  0  0
 18 19  1  0  0  0  0
 18 33  1  0  0  0  0
 19 20  2  0  0  0  0
 19 34  1  0  0  0  0
 20 21  2  0  0  0  0
 21 17  1  0  0  0  0
 21 35  1  0  0  0  0
 22  2  1  0  0  0  0
M  END
$$$$
