
 OpenBabel05232313403D

 34 35  0  0  0  0  0  0  0  0999 V2000
    6.5583    0.0730   -0.5175 C   0  0  0  0  0  0  0  0  0  0  0  0
    5.2259    0.0353    0.1901 C   0  0  0  0  0  0  0  0  0  0  0  0
    5.2638   -0.0818    1.4262 O   0  0  0  0  0  0  0  0  0  0  0  0
    4.0182    0.1269   -0.5042 N   0  0  0  0  0  0  0  0  0  0  0  0
    2.7433    0.1012    0.0886 C   0  0  0  0  0  0  0  0  0  0  0  0
    2.4674    0.0885    1.4330 C   0  0  0  0  0  0  0  0  0  0  0  0
    1.1769    0.0554    1.9503 C   0  0  0  0  0  0  0  0  0  0  0  0
    0.1030    0.0339    1.0983 C   0  0  0  0  0  0  0  0  0  0  0  0
   -1.2096    0.0003    1.6054 O   0  0  0  0  0  0  0  0  0  0  0  0
   -2.3007   -0.0216    0.7450 C   0  0  0  0  0  0  0  0  0  0  0  0
   -2.9079    1.1299    0.2934 C   0  0  0  0  0  0  0  0  0  0  0  0
   -3.9956    1.1358   -0.5635 C   0  0  0  0  0  0  0  0  0  0  0  0
   -4.5903    2.3515   -1.0038 N   0  0  0  0  0  0  0  0  0  0  0  0
   -4.4732   -0.0926   -0.9687 C   0  0  0  0  0  0  0  0  0  0  0  0
   -3.9013   -1.2730   -0.5457 C   0  0  0  0  0  0  0  0  0  0  0  0
   -4.4162   -2.5205   -0.9806 N   0  3  0  0  0  0  0  0  0  0  0  0
   -5.3784   -2.5582   -1.7398 O   0  0  0  0  0  0  0  0  0  0  0  0
   -3.8409   -3.6921   -0.5547 O   0  5  0  0  0  0  0  0  0  0  0  0
   -2.8043   -1.2336    0.3198 C   0  0  0  0  0  0  0  0  0  0  0  0
    0.3308    0.0457   -0.2556 C   0  0  0  0  0  0  0  0  0  0  0  0
    1.6095    0.0783   -0.7481 C   0  0  0  0  0  0  0  0  0  0  0  0
    6.4718    0.6760   -1.4460 H   0  0  0  0  0  0  0  0  0  0  0  0
    7.2811    0.6002    0.1394 H   0  0  0  0  0  0  0  0  0  0  0  0
    6.8512   -0.9640   -0.6932 H   0  0  0  0  0  0  0  0  0  0  0  0
    4.0507    0.2251   -1.5603 H   0  0  0  0  0  0  0  0  0  0  0  0
    3.2539    0.1085    2.1641 H   0  0  0  0  0  0  0  0  0  0  0  0
    0.9940    0.0460    3.0162 H   0  0  0  0  0  0  0  0  0  0  0  0
   -2.4983    2.0782    0.6384 H   0  0  0  0  0  0  0  0  0  0  0  0
   -4.0589    3.2490   -0.9762 H   0  0  0  0  0  0  0  0  0  0  0  0
   -5.5529    2.3671   -1.3563 H   0  0  0  0  0  0  0  0  0  0  0  0
   -5.3197   -0.1467   -1.6370 H   0  0  0  0  0  0  0  0  0  0  0  0
   -2.3351   -2.1358    0.6684 H   0  0  0  0  0  0  0  0  0  0  0  0
   -0.5433    0.0280   -0.9042 H   0  0  0  0  0  0  0  0  0  0  0  0
    1.7268    0.0861   -1.8136 H   0  0  0  0  0  0  0  0  0  0  0  0
  1  2  1  0  0  0  0
  1 22  1  0  0  0  0
  1 23  1  0  0  0  0
  1 24  1  0  0  0  0
  2  3  2  0  0  0  0
  2  4  1  0  0  0  0
  4  5  1  0  0  0  0
  4 25  1  0  0  0  0
  5  6  2  0  0  0  0
  6  7  1  0  0  0  0
  6 26  1  0  0  0  0
  7  8  2  0  0  0  0
  7 27  1  0  0  0  0
  8  9  1  0  0  0  0
  8 20  1  0  0  0  0
  9 10  1  0  0  0  0
 10 11  2  0  0  0  0
 11 12  1  0  0  0  0
 11 28  1  0  0  0  0
 12 13  1  0  0  0  0
 12 14  2  0  0  0  0
 13 29  1  0  0  0  0
 13 30  1  0  0  0  0
 14 15  1  0  0  0  0
 14 31  1  0  0  0  0
 15 16  1  0  0  0  0
 15 19  2  0  0  0  0
 16 17  2  0  0  0  0
 16 18  1  0  0  0  0
 19 10  1  0  0  0  0
 19 32  1  0  0  0  0
 20 21  2  0  0  0  0
 20 33  1  0  0  0  0
 21  5  1  0  0  0  0
 21 34  1  0  0  0  0
M  CHG  2  16   1  18  -1
M  END
$$$$
