
 OpenBabel05232313403D

 55 59  0  0  0  0  0  0  0  0999 V2000
   -0.4324   -0.1551   -2.5641 O   0  0  0  0  0  0  0  0  0  0  0  0
   -0.5029    0.4217   -1.4654 C   0  0  0  0  0  0  0  0  0  0  0  0
    0.6491    1.0612   -0.8254 C   0  0  0  0  0  0  0  0  0  0  0  0
    1.3856    0.2663    0.0291 C   0  0  0  0  0  0  0  0  0  0  0  0
    2.5072    0.7531    0.7212 C   0  0  0  0  0  0  0  0  0  0  0  0
    3.2107   -0.1755    1.6219 C   0  0  0  0  0  0  0  0  0  0  0  0
    4.1721   -0.9838    0.8585 C   0  0  0  0  0  0  0  0  0  0  0  0
    3.7110   -2.1622    0.3626 N   0  0  0  0  0  0  0  0  0  0  0  0
    4.4384   -2.9499   -0.3902 N   0  0  0  0  0  0  0  0  0  0  0  0
    5.7011   -2.6369   -0.7223 C   0  0  0  0  0  0  0  0  0  0  0  0
    6.4023   -3.3796   -1.4396 O   0  0  0  0  0  0  0  0  0  0  0  0
    6.2086   -1.4492   -0.2377 C   0  0  0  0  0  0  0  0  0  0  0  0
    7.5203   -1.0757   -0.5288 C   0  0  0  0  0  0  0  0  0  0  0  0
    8.0230    0.1107   -0.0180 C   0  0  0  0  0  0  0  0  0  0  0  0
    7.2519    0.9195    0.7674 C   0  0  0  0  0  0  0  0  0  0  0  0
    5.9397    0.5664    1.0710 C   0  0  0  0  0  0  0  0  0  0  0  0
    5.4515   -0.6114    0.5572 C   0  0  0  0  0  0  0  0  0  0  0  0
    2.8227    2.0595    0.4952 C   0  0  0  0  0  0  0  0  0  0  0  0
    2.0802    2.8760   -0.3729 C   0  0  0  0  0  0  0  0  0  0  0  0
    0.9912    2.3572   -1.0278 C   0  0  0  0  0  0  0  0  0  0  0  0
    0.2435    3.1095   -1.8768 F   0  0  0  0  0  0  0  0  0  0  0  0
   -1.7299    0.5017   -0.7393 N   0  0  0  0  0  0  0  0  0  0  0  0
   -3.0651    0.0102   -1.0080 C   0  0  0  0  0  0  0  0  0  0  0  0
   -3.6149    1.0634   -0.0971 C   0  0  0  0  0  0  0  0  0  0  0  0
   -4.6537    0.5567    0.8003 C   0  0  0  0  0  0  0  0  0  0  0  0
   -4.4373    0.4639    2.0703 O   0  0  0  0  0  0  0  0  0  0  0  0
   -5.9140    0.1576    0.2955 N   0  0  0  0  0  0  0  0  0  0  0  0
   -6.4166    0.1596   -1.0458 C   0  0  0  0  0  0  0  0  0  0  0  0
   -7.1404   -1.1764   -1.1287 C   0  0  0  0  0  0  0  0  0  0  0  0
   -7.5236   -1.5078    0.2950 C   0  0  0  0  0  0  0  0  0  0  0  0
   -7.0128   -0.3612    1.1313 C   0  0  0  0  0  0  0  0  0  0  0  0
   -2.2151    1.0534    0.4996 C   0  0  0  0  0  0  0  0  0  0  0  0
    1.1394   -0.7699    0.2104 H   0  0  0  0  0  0  0  0  0  0  0  0
    2.4914   -0.8998    2.1080 H   0  0  0  0  0  0  0  0  0  0  0  0
    3.6676    0.3388    2.4939 H   0  0  0  0  0  0  0  0  0  0  0  0
    4.0531   -3.8735   -0.7701 H   0  0  0  0  0  0  0  0  0  0  0  0
    8.0982   -1.7365   -1.1497 H   0  0  0  0  0  0  0  0  0  0  0  0
    9.0520    0.3634   -0.2711 H   0  0  0  0  0  0  0  0  0  0  0  0
    7.6677    1.8346    1.1526 H   0  0  0  0  0  0  0  0  0  0  0  0
    5.3238    1.1841    1.7068 H   0  0  0  0  0  0  0  0  0  0  0  0
    3.6592    2.5256    0.9888 H   0  0  0  0  0  0  0  0  0  0  0  0
    2.3789    3.9139   -0.5171 H   0  0  0  0  0  0  0  0  0  0  0  0
   -3.3585    0.0566   -2.0770 H   0  0  0  0  0  0  0  0  0  0  0  0
   -3.1442   -1.0214   -0.5665 H   0  0  0  0  0  0  0  0  0  0  0  0
   -3.8598    2.0059   -0.6374 H   0  0  0  0  0  0  0  0  0  0  0  0
   -7.1237    1.0056   -1.2170 H   0  0  0  0  0  0  0  0  0  0  0  0
   -5.6815    0.2064   -1.8441 H   0  0  0  0  0  0  0  0  0  0  0  0
   -6.4238   -1.9287   -1.5280 H   0  0  0  0  0  0  0  0  0  0  0  0
   -8.0272   -1.0833   -1.7873 H   0  0  0  0  0  0  0  0  0  0  0  0
   -8.6229   -1.6420    0.4011 H   0  0  0  0  0  0  0  0  0  0  0  0
   -6.9784   -2.4294    0.6336 H   0  0  0  0  0  0  0  0  0  0  0  0
   -7.7259    0.4623    1.2496 H   0  0  0  0  0  0  0  0  0  0  0  0
   -6.6075   -0.7219    2.1034 H   0  0  0  0  0  0  0  0  0  0  0  0
   -2.2063    0.3110    1.3502 H   0  0  0  0  0  0  0  0  0  0  0  0
   -1.8229    2.0552    0.7729 H   0  0  0  0  0  0  0  0  0  0  0  0
  1  2  2  0  0  0  0
  2  3  1  0  0  0  0
  2 22  1  0  0  0  0
  3  4  2  0  0  0  0
  4  5  1  0  0  0  0
  4 33  1  0  0  0  0
  5  6  1  0  0  0  0
  5 18  2  0  0  0  0
  6  7  1  0  0  0  0
  6 34  1  0  0  0  0
  6 35  1  0  0  0  0
  7  8  2  0  0  0  0
  8  9  1  0  0  0  0
  9 10  1  0  0  0  0
  9 36  1  0  0  0  0
 10 11  2  0  0  0  0
 10 12  1  0  0  0  0
 12 13  2  0  0  0  0
 13 14  1  0  0  0  0
 13 37  1  0  0  0  0
 14 15  2  0  0  0  0
 14 38  1  0  0  0  0
 15 16  1  0  0  0  0
 15 39  1  0  0  0  0
 16 17  2  0  0  0  0
 16 40  1  0  0  0  0
 17  7  1  0  0  0  0
 17 12  1  0  0  0  0
 18 19  1  0  0  0  0
 18 41  1  0  0  0  0
 19 20  2  0  0  0  0
 19 42  1  0  0  0  0
 20 21  1  0  0  0  0
 20  3  1  0  0  0  0
 22 23  1  0  0  0  0
 23 24  1  0  0  0  0
 23 43  1  0  0  0  0
 23 44  1  0  0  0  0
 24 25  1  0  0  0  0
 24 32  1  0  0  0  0
 24 45  1  0  0  0  0
 25 26  2  0  0  0  0
 25 27  1  0  0  0  0
 27 28  1  0  0  0  0
 28 29  1  0  0  0  0
 28 46  1  0  0  0  0
 28 47  1  0  0  0  0
 29 30  1  0  0  0  0
 29 48  1  0  0  0  0
 29 49  1  0  0  0  0
 30 31  1  0  0  0  0
 30 50  1  0  0  0  0
 30 51  1  0  0  0  0
 31 27  1  0  0  0  0
 31 52  1  0  0  0  0
 31 53  1  0  0  0  0
 32 22  1  0  0  0  0
 32 54  1  0  0  0  0
 32 55  1  0  0  0  0
M  END
$$$$
