
 OpenBabel05232313403D

 40 42  0  0  0  0  0  0  0  0999 V2000
    6.3654    1.8658   -0.2718 C   0  0  0  0  0  0  0  0  0  0  0  0
    5.8512    1.4998   -1.5730 N   0  0  0  0  0  0  0  0  0  0  0  0
    5.2931   -0.1359   -1.5884 S   0  0  0  0  0  0  0  0  0  0  0  0
    6.4474   -0.9859   -1.0948 O   0  0  0  0  0  0  0  0  0  0  0  0
    4.8516   -0.5386   -2.9492 O   0  0  0  0  0  0  0  0  0  0  0  0
    3.9880   -0.3006   -0.4391 C   0  0  0  0  0  0  0  0  0  0  0  0
    4.2387   -0.6414    0.8727 C   0  0  0  0  0  0  0  0  0  0  0  0
    3.2538   -0.7790    1.7953 C   0  0  0  0  0  0  0  0  0  0  0  0
    1.9338   -0.5616    1.3782 C   0  0  0  0  0  0  0  0  0  0  0  0
    1.6111   -0.2230    0.0993 C   0  0  0  0  0  0  0  0  0  0  0  0
    0.2984   -0.0228   -0.3350 N   0  0  0  0  0  0  0  0  0  0  0  0
   -0.9032   -0.3983    0.3246 C   0  0  0  0  0  0  0  0  0  0  0  0
   -0.8744   -1.0296    1.4960 N   0  0  0  0  0  0  0  0  0  0  0  0
   -1.9663   -1.4078    2.1641 C   0  0  0  0  0  0  0  0  0  0  0  0
   -3.1903   -1.1086    1.5722 C   0  0  0  0  0  0  0  0  0  0  0  0
   -3.2581   -0.4572    0.3623 C   0  0  0  0  0  0  0  0  0  0  0  0
   -4.5389   -0.1350   -0.2738 C   0  0  0  0  0  0  0  0  0  0  0  0
   -5.7311   -0.4596    0.2918 C   0  0  0  0  0  0  0  0  0  0  0  0
   -6.9496   -0.1467   -0.3252 C   0  0  0  0  0  0  0  0  0  0  0  0
   -6.9425    0.5018   -1.5274 C   0  0  0  0  0  0  0  0  0  0  0  0
   -5.7252    0.8405   -2.1184 C   0  0  0  0  0  0  0  0  0  0  0  0
   -4.5364    0.5195   -1.4874 C   0  0  0  0  0  0  0  0  0  0  0  0
   -2.1042   -0.1136   -0.2398 N   0  0  0  0  0  0  0  0  0  0  0  0
    2.6813   -0.0982   -0.8004 C   0  0  0  0  0  0  0  0  0  0  0  0
    5.5961    1.5661    0.4934 H   0  0  0  0  0  0  0  0  0  0  0  0
    6.4440    2.9651   -0.1890 H   0  0  0  0  0  0  0  0  0  0  0  0
    7.2995    1.3313   -0.0187 H   0  0  0  0  0  0  0  0  0  0  0  0
    5.0246    2.1162   -1.7517 H   0  0  0  0  0  0  0  0  0  0  0  0
    5.2600   -0.8062    1.1813 H   0  0  0  0  0  0  0  0  0  0  0  0
    3.4083   -1.0443    2.8311 H   0  0  0  0  0  0  0  0  0  0  0  0
    1.1823   -0.6732    2.1637 H   0  0  0  0  0  0  0  0  0  0  0  0
    0.2084    0.4797   -1.2837 H   0  0  0  0  0  0  0  0  0  0  0  0
   -1.9298   -1.9256    3.1253 H   0  0  0  0  0  0  0  0  0  0  0  0
   -4.1115   -1.4008    2.0860 H   0  0  0  0  0  0  0  0  0  0  0  0
   -5.8057   -0.9661    1.2286 H   0  0  0  0  0  0  0  0  0  0  0  0
   -7.8692   -0.4191    0.1518 H   0  0  0  0  0  0  0  0  0  0  0  0
   -7.8637    0.7636   -2.0409 H   0  0  0  0  0  0  0  0  0  0  0  0
   -5.7661    1.3549   -3.0735 H   0  0  0  0  0  0  0  0  0  0  0  0
   -3.6234    0.8017   -1.9829 H   0  0  0  0  0  0  0  0  0  0  0  0
    2.4525    0.1727   -1.8340 H   0  0  0  0  0  0  0  0  0  0  0  0
  1  2  1  0  0  0  0
  1 25  1  0  0  0  0
  1 26  1  0  0  0  0
  1 27  1  0  0  0  0
  2  3  1  0  0  0  0
  2 28  1  0  0  0  0
  3  4  2  0  0  0  0
  3  5  2  0  0  0  0
  3  6  1  0  0  0  0
  6  7  2  0  0  0  0
  7  8  1  0  0  0  0
  7 29  1  0  0  0  0
  8  9  2  0  0  0  0
  8 30  1  0  0  0  0
  9 10  1  0  0  0  0
  9 31  1  0  0  0  0
 10 11  1  0  0  0  0
 10 24  2  0  0  0  0
 11 12  1  0  0  0  0
 11 32  1  0  0  0  0
 12 13  2  0  0  0  0
 13 14  1  0  0  0  0
 14 15  2  0  0  0  0
 14 33  1  0  0  0  0
 15 16  1  0  0  0  0
 15 34  1  0  0  0  0
 16 17  1  0  0  0  0
 16 23  2  0  0  0  0
 17 18  2  0  0  0  0
 18 19  1  0  0  0  0
 18 35  1  0  0  0  0
 19 20  2  0  0  0  0
 19 36  1  0  0  0  0
 20 21  1  0  0  0  0
 20 37  1  0  0  0  0
 21 22  2  0  0  0  0
 21 38  1  0  0  0  0
 22 17  1  0  0  0  0
 22 39  1  0  0  0  0
 23 12  1  0  0  0  0
 24  6  1  0  0  0  0
 24 40  1  0  0  0  0
M  END
$$$$
