
 OpenBabel05232313393D

 40 43  0  0  0  0  0  0  0  0999 V2000
    0.6766    0.0379    1.9567 O   0  0  0  0  0  0  0  0  0  0  0  0
    1.0650    0.0856    0.6898 C   0  0  0  0  0  0  0  0  0  0  0  0
    0.0185   -0.3897   -0.1984 N   0  0  0  0  0  0  0  0  0  0  0  0
   -1.1740   -0.6558    0.5335 C   0  0  0  0  0  0  0  0  0  0  0  0
   -2.4275   -1.2311    0.1578 C   0  0  0  0  0  0  0  0  0  0  0  0
   -2.7290   -2.5280    0.2065 N   0  0  0  0  0  0  0  0  0  0  0  0
   -3.9812   -2.9511    0.2106 N   0  0  0  0  0  0  0  0  0  0  0  0
   -5.0362   -2.1172    0.1646 C   0  0  0  0  0  0  0  0  0  0  0  0
   -6.2015   -2.5635    0.1859 O   0  0  0  0  0  0  0  0  0  0  0  0
   -4.8372   -0.7533    0.0997 C   0  0  0  0  0  0  0  0  0  0  0  0
   -5.9087    0.1228   -0.0437 C   0  0  0  0  0  0  0  0  0  0  0  0
   -5.6063    1.4655   -0.2024 C   0  0  0  0  0  0  0  0  0  0  0  0
   -4.2888    1.8722   -0.2035 C   0  0  0  0  0  0  0  0  0  0  0  0
   -3.2363    1.0004   -0.0537 C   0  0  0  0  0  0  0  0  0  0  0  0
   -3.5356   -0.3336    0.0978 C   0  0  0  0  0  0  0  0  0  0  0  0
    2.3547    0.5989    0.4787 C   0  0  0  0  0  0  0  0  0  0  0  0
    2.4499    1.9853    0.9256 C   0  0  0  0  0  0  0  0  0  0  0  0
    3.5787    2.7092    0.8626 C   0  0  0  0  0  0  0  0  0  0  0  0
    4.7172    2.1277    0.3625 C   0  0  0  0  0  0  0  0  0  0  0  0
    4.6597    0.8288   -0.0601 C   0  0  0  0  0  0  0  0  0  0  0  0
    5.8321    0.2889   -0.5085 C   0  0  0  0  0  0  0  0  0  0  0  0
    5.8828   -1.0078   -0.9157 C   0  0  0  0  0  0  0  0  0  0  0  0
    4.6975   -1.7476   -0.8559 C   0  0  0  0  0  0  0  0  0  0  0  0
    3.4990   -1.2840   -0.4295 C   0  0  0  0  0  0  0  0  0  0  0  0
    3.4921    0.0655   -0.0117 C   0  0  0  0  0  0  0  0  0  0  0  0
    0.2575   -0.4347   -1.1816 H   0  0  0  0  0  0  0  0  0  0  0  0
   -0.7658   -1.4491    1.3348 H   0  0  0  0  0  0  0  0  0  0  0  0
   -1.3423    0.2120    1.3048 H   0  0  0  0  0  0  0  0  0  0  0  0
   -4.2074   -3.9546    0.2702 H   0  0  0  0  0  0  0  0  0  0  0  0
   -6.9202   -0.2019   -0.0237 H   0  0  0  0  0  0  0  0  0  0  0  0
   -6.3836    2.2372   -0.3469 H   0  0  0  0  0  0  0  0  0  0  0  0
   -4.0054    2.9297   -0.3408 H   0  0  0  0  0  0  0  0  0  0  0  0
   -2.2184    1.3040   -0.0728 H   0  0  0  0  0  0  0  0  0  0  0  0
    1.5484    2.4085    1.2978 H   0  0  0  0  0  0  0  0  0  0  0  0
    3.6330    3.7535    1.1928 H   0  0  0  0  0  0  0  0  0  0  0  0
    5.6234    2.7144    0.3086 H   0  0  0  0  0  0  0  0  0  0  0  0
    6.7462    0.9006   -0.5355 H   0  0  0  0  0  0  0  0  0  0  0  0
    6.7687   -1.4553   -1.2496 H   0  0  0  0  0  0  0  0  0  0  0  0
    4.7446   -2.7822   -1.1951 H   0  0  0  0  0  0  0  0  0  0  0  0
    2.5598   -1.8083   -0.3609 H   0  0  0  0  0  0  0  0  0  0  0  0
  1  2  2  0  0  0  0
  2  3  1  0  0  0  0
  2 16  1  0  0  0  0
  3  4  1  0  0  0  0
  3 26  1  0  0  0  0
  4  5  1  0  0  0  0
  4 27  1  0  0  0  0
  4 28  1  0  0  0  0
  5  6  2  0  0  0  0
  6  7  1  0  0  0  0
  7  8  1  0  0  0  0
  7 29  1  0  0  0  0
  8  9  2  0  0  0  0
  8 10  1  0  0  0  0
 10 11  2  0  0  0  0
 11 12  1  0  0  0  0
 11 30  1  0  0  0  0
 12 13  2  0  0  0  0
 12 31  1  0  0  0  0
 13 14  1  0  0  0  0
 13 32  1  0  0  0  0
 14 15  2  0  0  0  0
 14 33  1  0  0  0  0
 15  5  1  0  0  0  0
 15 10  1  0  0  0  0
 16 17  2  0  0  0  0
 17 18  1  0  0  0  0
 17 34  1  0  0  0  0
 18 19  2  0  0  0  0
 18 35  1  0  0  0  0
 19 20  1  0  0  0  0
 19 36  1  0  0  0  0
 20 21  2  0  0  0  0
 21 22  1  0  0  0  0
 21 37  1  0  0  0  0
 22 23  2  0  0  0  0
 22 38  1  0  0  0  0
 23 24  1  0  0  0  0
 23 39  1  0  0  0  0
 24 25  2  0  0  0  0
 24 40  1  0  0  0  0
 25 16  1  0  0  0  0
 25 20  1  0  0  0  0
M  END
$$$$
