
 OpenBabel05232313403D

 40 43  0  0  0  0  0  0  0  0999 V2000
   -3.4896    3.3086    1.1732 O   0  0  0  0  0  0  0  0  0  0  0  0
   -4.0894    2.2910    0.7983 C   0  0  0  0  0  0  0  0  0  0  0  0
   -5.4269    2.1790    0.7255 N   0  0  0  0  0  0  0  0  0  0  0  0
   -5.7665    0.9918    0.2916 N   0  0  0  0  0  0  0  0  0  0  0  0
   -4.6194    0.2765    0.0631 C   0  0  0  0  0  0  0  0  0  0  0  0
   -3.6218    1.1006    0.3848 N   0  0  0  0  0  0  0  0  0  0  0  0
   -2.2415    0.7860    0.2978 C   0  0  0  0  0  0  0  0  0  0  0  0
   -1.4826    1.5443    1.1291 C   0  0  0  0  0  0  0  0  0  0  0  0
   -0.0914    1.3589    1.1047 C   0  0  0  0  0  0  0  0  0  0  0  0
    0.5497    0.4623    0.2985 C   0  0  0  0  0  0  0  0  0  0  0  0
    1.9286    0.3005    0.2937 O   0  0  0  0  0  0  0  0  0  0  0  0
    2.6057   -0.6058   -0.5185 C   0  0  0  0  0  0  0  0  0  0  0  0
    4.0635   -0.4899   -0.2427 C   0  0  0  0  0  0  0  0  0  0  0  0
    4.6723   -1.2608    0.7328 C   0  0  0  0  0  0  0  0  0  0  0  0
    6.0198   -1.1359    0.9691 C   0  0  0  0  0  0  0  0  0  0  0  0
    6.8130   -0.2573    0.2627 C   0  0  0  0  0  0  0  0  0  0  0  0
    6.2017    0.5066   -0.7060 C   0  0  0  0  0  0  0  0  0  0  0  0
    6.9229    1.3900   -1.4370 F   0  0  0  0  0  0  0  0  0  0  0  0
    4.8554    0.3958   -0.9568 C   0  0  0  0  0  0  0  0  0  0  0  0
   -0.2603   -0.3089   -0.5467 C   0  0  0  0  0  0  0  0  0  0  0  0
   -1.6149   -0.1498   -0.5436 C   0  0  0  0  0  0  0  0  0  0  0  0
   -2.3705   -1.0749   -1.4357 C   0  0  0  0  0  0  0  0  0  0  0  0
   -3.3771   -1.7864   -0.5300 C   0  0  0  0  0  0  0  0  0  0  0  0
   -4.6926   -1.0969   -0.4640 C   0  0  0  0  0  0  0  0  0  0  0  0
   -6.1167    2.9264    0.9766 H   0  0  0  0  0  0  0  0  0  0  0  0
   -1.9294    2.2358    1.8019 H   0  0  0  0  0  0  0  0  0  0  0  0
    0.4810    1.9758    1.7740 H   0  0  0  0  0  0  0  0  0  0  0  0
    2.2353   -1.6376   -0.3370 H   0  0  0  0  0  0  0  0  0  0  0  0
    2.4470   -0.4143   -1.6145 H   0  0  0  0  0  0  0  0  0  0  0  0
    4.0764   -1.9603    1.3048 H   0  0  0  0  0  0  0  0  0  0  0  0
    6.4440   -1.7660    1.7465 H   0  0  0  0  0  0  0  0  0  0  0  0
    7.8802   -0.1820    0.4747 H   0  0  0  0  0  0  0  0  0  0  0  0
    4.3680    0.9915   -1.7152 H   0  0  0  0  0  0  0  0  0  0  0  0
    0.2141   -1.0223   -1.1906 H   0  0  0  0  0  0  0  0  0  0  0  0
   -1.6607   -1.8469   -1.7881 H   0  0  0  0  0  0  0  0  0  0  0  0
   -2.9379   -0.5750   -2.2209 H   0  0  0  0  0  0  0  0  0  0  0  0
   -3.5536   -2.7873   -1.0109 H   0  0  0  0  0  0  0  0  0  0  0  0
   -2.9326   -1.9979    0.4536 H   0  0  0  0  0  0  0  0  0  0  0  0
   -5.4638   -1.6920    0.0828 H   0  0  0  0  0  0  0  0  0  0  0  0
   -5.0394   -0.9730   -1.5434 H   0  0  0  0  0  0  0  0  0  0  0  0
  1  2  2  0  0  0  0
  2  3  1  0  0  0  0
  3  4  1  0  0  0  0
  3 25  1  0  0  0  0
  4  5  2  0  0  0  0
  5  6  1  0  0  0  0
  6  7  1  0  0  0  0
  6  2  1  0  0  0  0
  7  8  2  0  0  0  0
  8  9  1  0  0  0  0
  8 26  1  0  0  0  0
  9 10  2  0  0  0  0
  9 27  1  0  0  0  0
 10 11  1  0  0  0  0
 10 20  1  0  0  0  0
 11 12  1  0  0  0  0
 12 13  1  0  0  0  0
 12 28  1  0  0  0  0
 12 29  1  0  0  0  0
 13 14  2  0  0  0  0
 14 15  1  0  0  0  0
 14 30  1  0  0  0  0
 15 16  2  0  0  0  0
 15 31  1  0  0  0  0
 16 17  1  0  0  0  0
 16 32  1  0  0  0  0
 17 18  1  0  0  0  0
 17 19  2  0  0  0  0
 19 13  1  0  0  0  0
 19 33  1  0  0  0  0
 20 21  2  0  0  0  0
 20 34  1  0  0  0  0
 21 22  1  0  0  0  0
 21  7  1  0  0  0  0
 22 23  1  0  0  0  0
 22 35  1  0  0  0  0
 22 36  1  0  0  0  0
 23 24  1  0  0  0  0
 23 37  1  0  0  0  0
 23 38  1  0  0  0  0
 24  5  1  0  0  0  0
 24 39  1  0  0  0  0
 24 40  1  0  0  0  0
M  END
$$$$
