
 OpenBabel05232313403D

 58 62  0  0  0  0  0  0  0  0999 V2000
   -0.0342   -1.0722   -1.9409 O   0  0  0  0  0  0  0  0  0  0  0  0
    0.4228    0.0376   -1.4084 C   0  0  0  0  0  0  0  0  0  0  0  0
   -0.5906    0.9631   -0.9780 C   0  0  0  0  0  0  0  0  0  0  0  0
   -0.4127    2.1783   -0.3850 C   0  0  0  0  0  0  0  0  0  0  0  0
   -1.4564    3.0106   -0.0043 C   0  0  0  0  0  0  0  0  0  0  0  0
   -2.7431    2.5912   -0.2356 C   0  0  0  0  0  0  0  0  0  0  0  0
   -2.9837    1.3887   -0.8239 C   0  0  0  0  0  0  0  0  0  0  0  0
   -4.3833    0.9190   -1.0822 C   0  0  0  0  0  0  0  0  0  0  0  0
   -4.8384    0.1564    0.1069 C   0  0  0  0  0  0  0  0  0  0  0  0
   -4.0718   -0.0410    1.1886 N   0  0  0  0  0  0  0  0  0  0  0  0
   -4.4984   -0.7209    2.2298 N   0  0  0  0  0  0  0  0  0  0  0  0
   -5.7272   -1.2316    2.2170 C   0  0  0  0  0  0  0  0  0  0  0  0
   -6.1249   -1.8752    3.2085 O   0  0  0  0  0  0  0  0  0  0  0  0
   -6.5657   -1.0718    1.1506 C   0  0  0  0  0  0  0  0  0  0  0  0
   -7.8442   -1.6039    1.1386 C   0  0  0  0  0  0  0  0  0  0  0  0
   -8.6429   -1.4098    0.0357 C   0  0  0  0  0  0  0  0  0  0  0  0
   -8.2003   -0.6944   -1.0652 C   0  0  0  0  0  0  0  0  0  0  0  0
   -6.9325   -0.1761   -1.0336 C   0  0  0  0  0  0  0  0  0  0  0  0
   -6.1267   -0.3609    0.0558 C   0  0  0  0  0  0  0  0  0  0  0  0
   -1.9318    0.5934   -1.1864 C   0  0  0  0  0  0  0  0  0  0  0  0
    1.8175    0.0996   -1.3656 N   0  0  0  0  0  0  0  0  0  0  0  0
    2.5858   -1.0783   -1.9154 C   0  0  0  0  0  0  0  0  0  0  0  0
    3.4806   -1.4738   -0.7569 C   0  0  0  0  0  0  0  0  0  0  0  0
    4.5345   -0.4039   -0.6424 C   0  0  0  0  0  0  0  0  0  0  0  0
    5.1321   -0.3762    0.6121 O   0  0  0  0  0  0  0  0  0  0  0  0
    6.4801   -0.7034    0.5817 C   0  0  0  0  0  0  0  0  0  0  0  0
    6.9952   -1.5209    1.7263 C   0  0  0  0  0  0  0  0  0  0  0  0
    8.1492   -0.5212    1.8796 C   0  0  0  0  0  0  0  0  0  0  0  0
    7.2688    0.4807    1.1617 C   0  0  0  0  0  0  0  0  0  0  0  0
    4.0802    0.9579   -0.9935 C   0  0  0  0  0  0  0  0  0  0  0  0
    2.5783    1.1736   -0.8533 C   0  0  0  0  0  0  0  0  0  0  0  0
    0.5558    2.5447   -0.1842 H   0  0  0  0  0  0  0  0  0  0  0  0
   -1.2413    3.9556    0.4584 H   0  0  0  0  0  0  0  0  0  0  0  0
   -3.5597    3.2297    0.0562 H   0  0  0  0  0  0  0  0  0  0  0  0
   -5.0550    1.7877   -1.2659 H   0  0  0  0  0  0  0  0  0  0  0  0
   -4.4110    0.2534   -1.9737 H   0  0  0  0  0  0  0  0  0  0  0  0
   -3.8520   -0.8374    3.0376 H   0  0  0  0  0  0  0  0  0  0  0  0
   -8.1571   -2.1537    2.0079 H   0  0  0  0  0  0  0  0  0  0  0  0
   -9.6255   -1.8267    0.0436 H   0  0  0  0  0  0  0  0  0  0  0  0
   -8.8228   -0.5417   -1.9279 H   0  0  0  0  0  0  0  0  0  0  0  0
   -6.5285    0.3955   -1.8687 H   0  0  0  0  0  0  0  0  0  0  0  0
   -2.1596   -0.3619   -1.6546 H   0  0  0  0  0  0  0  0  0  0  0  0
    3.1702   -0.6369   -2.7444 H   0  0  0  0  0  0  0  0  0  0  0  0
    1.8845   -1.8549   -2.2018 H   0  0  0  0  0  0  0  0  0  0  0  0
    2.8312   -1.5200    0.1415 H   0  0  0  0  0  0  0  0  0  0  0  0
    3.9709   -2.4343   -0.9794 H   0  0  0  0  0  0  0  0  0  0  0  0
    5.3566   -0.6991   -1.3604 H   0  0  0  0  0  0  0  0  0  0  0  0
    6.9027   -0.9396   -0.4047 H   0  0  0  0  0  0  0  0  0  0  0  0
    6.3719   -1.4939    2.6209 H   0  0  0  0  0  0  0  0  0  0  0  0
    7.4423   -2.5090    1.4667 H   0  0  0  0  0  0  0  0  0  0  0  0
    9.0293   -0.7695    1.2679 H   0  0  0  0  0  0  0  0  0  0  0  0
    8.3736   -0.2821    2.9299 H   0  0  0  0  0  0  0  0  0  0  0  0
    6.6911    1.0605    1.9237 H   0  0  0  0  0  0  0  0  0  0  0  0
    7.7596    1.0982    0.4038 H   0  0  0  0  0  0  0  0  0  0  0  0
    4.5834    1.7050   -0.3474 H   0  0  0  0  0  0  0  0  0  0  0  0
    4.3615    1.2002   -2.0389 H   0  0  0  0  0  0  0  0  0  0  0  0
    2.3490    2.0962   -1.4078 H   0  0  0  0  0  0  0  0  0  0  0  0
    2.3626    1.3193    0.2159 H   0  0  0  0  0  0  0  0  0  0  0  0
  1  2  2  0  0  0  0
  2  3  1  0  0  0  0
  2 21  1  0  0  0  0
  3  4  2  0  0  0  0
  4  5  1  0  0  0  0
  4 32  1  0  0  0  0
  5  6  2  0  0  0  0
  5 33  1  0  0  0  0
  6  7  1  0  0  0  0
  6 34  1  0  0  0  0
  7  8  1  0  0  0  0
  7 20  2  0  0  0  0
  8  9  1  0  0  0  0
  8 35  1  0  0  0  0
  8 36  1  0  0  0  0
  9 10  2  0  0  0  0
 10 11  1  0  0  0  0
 11 12  1  0  0  0  0
 11 37  1  0  0  0  0
 12 13  2  0  0  0  0
 12 14  1  0  0  0  0
 14 15  2  0  0  0  0
 15 16  1  0  0  0  0
 15 38  1  0  0  0  0
 16 17  2  0  0  0  0
 16 39  1  0  0  0  0
 17 18  1  0  0  0  0
 17 40  1  0  0  0  0
 18 19  2  0  0  0  0
 18 41  1  0  0  0  0
 19  9  1  0  0  0  0
 19 14  1  0  0  0  0
 20  3  1  0  0  0  0
 20 42  1  0  0  0  0
 21 22  1  0  0  0  0
 22 23  1  0  0  0  0
 22 43  1  0  0  0  0
 22 44  1  0  0  0  0
 23 24  1  0  0  0  0
 23 45  1  0  0  0  0
 23 46  1  0  0  0  0
 24 25  1  0  0  0  0
 24 30  1  0  0  0  0
 24 47  1  0  0  0  0
 25 26  1  0  0  0  0
 26 27  1  0  0  0  0
 26 48  1  0  0  0  0
 27 28  1  0  0  0  0
 27 49  1  0  0  0  0
 27 50  1  0  0  0  0
 28 29  1  0  0  0  0
 28 51  1  0  0  0  0
 28 52  1  0  0  0  0
 29 26  1  0  0  0  0
 29 53  1  0  0  0  0
 29 54  1  0  0  0  0
 30 31  1  0  0  0  0
 30 55  1  0  0  0  0
 30 56  1  0  0  0  0
 31 21  1  0  0  0  0
 31 57  1  0  0  0  0
 31 58  1  0  0  0  0
M  END
$$$$
