
 OpenBabel05232313403D

 39 41  0  0  0  0  0  0  0  0999 V2000
    4.3913   -1.1211    0.6602 C   0  0  0  0  0  0  0  0  0  0  0  0
    3.1549   -0.3994    1.0392 C   0  0  0  0  0  0  0  0  0  0  0  0
    2.3493    0.1128   -0.1869 C   0  0  0  0  0  0  0  0  0  0  0  0
    1.1005    0.8206    0.1565 C   0  0  0  0  0  0  0  0  0  0  0  0
    0.1770    1.3002   -0.8845 C   0  0  0  0  0  0  0  0  0  0  0  0
   -0.5914    0.2417   -1.6426 C   0  0  0  0  0  0  0  0  0  0  0  0
   -1.4558   -0.4634   -0.6448 C   0  0  0  0  0  0  0  0  0  0  0  0
   -0.9723   -1.6205   -0.0322 C   0  0  0  0  0  0  0  0  0  0  0  0
   -1.7261   -2.2368    0.9322 C   0  0  0  0  0  0  0  0  0  0  0  0
   -1.2555   -3.2937    1.4742 O   0  0  0  0  0  0  0  0  0  0  0  0
   -2.8916   -1.7771    1.3023 O   0  0  0  0  0  0  0  0  0  0  0  0
   -3.3902   -0.7007    0.7609 C   0  0  0  0  0  0  0  0  0  0  0  0
   -4.5880   -0.2155    1.1255 N   0  0  0  0  0  0  0  0  0  0  0  0
   -5.1368    0.8852    0.5885 C   0  0  0  0  0  0  0  0  0  0  0  0
   -6.2826    1.2897    0.9858 O   0  0  0  0  0  0  0  0  0  0  0  0
   -4.4848    1.5615   -0.3644 N   0  0  0  0  0  0  0  0  0  0  0  0
   -3.2581    1.1217   -0.7823 C   0  0  0  0  0  0  0  0  0  0  0  0
   -2.6631    1.7591   -1.6748 O   0  0  0  0  0  0  0  0  0  0  0  0
   -2.6823   -0.0027   -0.2397 C   0  0  0  0  0  0  0  0  0  0  0  0
    2.7361   -0.3745   -1.5478 C   0  0  0  0  0  0  0  0  0  0  0  0
    3.3272    0.9076   -1.0707 C   0  0  0  0  0  0  0  0  0  0  0  0
    5.1873   -0.5579    0.1841 H   0  0  0  0  0  0  0  0  0  0  0  0
    4.1126   -2.0541    0.1035 H   0  0  0  0  0  0  0  0  0  0  0  0
    4.8257   -1.5205    1.6198 H   0  0  0  0  0  0  0  0  0  0  0  0
    2.4643   -1.1539    1.5082 H   0  0  0  0  0  0  0  0  0  0  0  0
    3.3366    0.4566    1.7078 H   0  0  0  0  0  0  0  0  0  0  0  0
    1.4255    1.7576    0.7299 H   0  0  0  0  0  0  0  0  0  0  0  0
    0.5710    0.2418    0.9732 H   0  0  0  0  0  0  0  0  0  0  0  0
   -0.4784    2.1052   -0.4581 H   0  0  0  0  0  0  0  0  0  0  0  0
    0.8242    1.8964   -1.6181 H   0  0  0  0  0  0  0  0  0  0  0  0
    0.0765   -0.5783   -2.0185 H   0  0  0  0  0  0  0  0  0  0  0  0
   -1.1118    0.7152   -2.4759 H   0  0  0  0  0  0  0  0  0  0  0  0
   -0.0140   -1.9877   -0.3453 H   0  0  0  0  0  0  0  0  0  0  0  0
   -5.1058   -0.7354    1.8679 H   0  0  0  0  0  0  0  0  0  0  0  0
   -4.8467    2.4208   -0.8271 H   0  0  0  0  0  0  0  0  0  0  0  0
    2.1070   -0.3608   -2.4448 H   0  0  0  0  0  0  0  0  0  0  0  0
    3.4461   -1.2559   -1.6087 H   0  0  0  0  0  0  0  0  0  0  0  0
    4.3829    0.9504   -0.8034 H   0  0  0  0  0  0  0  0  0  0  0  0
    2.9395    1.8657   -1.4489 H   0  0  0  0  0  0  0  0  0  0  0  0
  1  2  1  0  0  0  0
  1 22  1  0  0  0  0
  1 23  1  0  0  0  0
  1 24  1  0  0  0  0
  2  3  1  0  0  0  0
  2 25  1  0  0  0  0
  2 26  1  0  0  0  0
  3  4  1  0  0  0  0
  3 20  1  0  0  0  0
  4  5  1  0  0  0  0
  4 27  1  0  0  0  0
  4 28  1  0  0  0  0
  5  6  1  0  0  0  0
  5 29  1  0  0  0  0
  5 30  1  0  0  0  0
  6  7  1  0  0  0  0
  6 31  1  0  0  0  0
  6 32  1  0  0  0  0
  7  8  2  0  0  0  0
  8  9  1  0  0  0  0
  8 33  1  0  0  0  0
  9 10  2  0  0  0  0
  9 11  1  0  0  0  0
 11 12  1  0  0  0  0
 12 13  1  0  0  0  0
 13 14  1  0  0  0  0
 13 34  1  0  0  0  0
 14 15  2  0  0  0  0
 14 16  1  0  0  0  0
 16 17  1  0  0  0  0
 16 35  1  0  0  0  0
 17 18  2  0  0  0  0
 17 19  1  0  0  0  0
 19  7  1  0  0  0  0
 19 12  2  0  0  0  0
 20 21  1  0  0  0  0
 20 36  1  0  0  0  0
 20 37  1  0  0  0  0
 21  3  1  0  0  0  0
 21 38  1  0  0  0  0
 21 39  1  0  0  0  0
M  END
$$$$
