
 OpenBabel05232313393D

 40 43  0  0  0  0  0  0  0  0999 V2000
    3.4235    0.9856   -2.3010 O   0  0  0  0  0  0  0  0  0  0  0  0
    3.3898    0.6774   -1.0871 C   0  0  0  0  0  0  0  0  0  0  0  0
    2.2905    1.1756   -0.2895 C   0  0  0  0  0  0  0  0  0  0  0  0
    0.9708    1.0090   -0.7399 C   0  0  0  0  0  0  0  0  0  0  0  0
   -0.1132    1.4847   -0.0486 C   0  0  0  0  0  0  0  0  0  0  0  0
   -1.5104    1.3321   -0.5163 C   0  0  0  0  0  0  0  0  0  0  0  0
   -2.0703    0.0598    0.0044 C   0  0  0  0  0  0  0  0  0  0  0  0
   -1.3561   -0.7595    0.7926 N   0  0  0  0  0  0  0  0  0  0  0  0
   -1.8378   -1.8989    1.2688 N   0  0  0  0  0  0  0  0  0  0  0  0
   -3.0982   -2.2241    0.9330 C   0  0  0  0  0  0  0  0  0  0  0  0
   -3.5508   -3.3103    1.3895 O   0  0  0  0  0  0  0  0  0  0  0  0
   -3.8880   -1.4402    0.1342 C   0  0  0  0  0  0  0  0  0  0  0  0
   -5.1904   -1.7774   -0.2133 C   0  0  0  0  0  0  0  0  0  0  0  0
   -5.9358   -0.9486   -1.0212 C   0  0  0  0  0  0  0  0  0  0  0  0
   -5.4450    0.2380   -1.5219 C   0  0  0  0  0  0  0  0  0  0  0  0
   -4.1425    0.5616   -1.1664 C   0  0  0  0  0  0  0  0  0  0  0  0
   -3.3842   -0.2602   -0.3570 C   0  0  0  0  0  0  0  0  0  0  0  0
    0.1182    2.1564    1.1445 C   0  0  0  0  0  0  0  0  0  0  0  0
    1.3829    2.3508    1.6353 C   0  0  0  0  0  0  0  0  0  0  0  0
    2.4481    1.8595    0.9128 C   0  0  0  0  0  0  0  0  0  0  0  0
    3.7403    2.0620    1.3421 F   0  0  0  0  0  0  0  0  0  0  0  0
    4.3997   -0.1303   -0.5393 N   0  0  0  0  0  0  0  0  0  0  0  0
    5.4579   -0.5850   -1.2659 C   0  0  0  0  0  0  0  0  0  0  0  0
    6.2721   -1.3716   -0.4995 C   0  0  0  0  0  0  0  0  0  0  0  0
    5.7089   -1.4121    0.7426 C   0  0  0  0  0  0  0  0  0  0  0  0
    4.5594   -0.6393    0.6845 C   0  0  0  0  0  0  0  0  0  0  0  0
    0.8173    0.4805   -1.6727 H   0  0  0  0  0  0  0  0  0  0  0  0
   -2.0964    2.1987   -0.0919 H   0  0  0  0  0  0  0  0  0  0  0  0
   -1.5732    1.3896   -1.6229 H   0  0  0  0  0  0  0  0  0  0  0  0
   -1.2069   -2.4630    1.8698 H   0  0  0  0  0  0  0  0  0  0  0  0
   -5.5817   -2.6995    0.1723 H   0  0  0  0  0  0  0  0  0  0  0  0
   -6.9477   -1.2131   -1.2902 H   0  0  0  0  0  0  0  0  0  0  0  0
   -6.0144    0.9016   -2.1571 H   0  0  0  0  0  0  0  0  0  0  0  0
   -3.6906    1.4766   -1.5224 H   0  0  0  0  0  0  0  0  0  0  0  0
   -0.7169    2.5376    1.7047 H   0  0  0  0  0  0  0  0  0  0  0  0
    1.5736    2.8675    2.5536 H   0  0  0  0  0  0  0  0  0  0  0  0
    5.6452   -0.3630   -2.3111 H   0  0  0  0  0  0  0  0  0  0  0  0
    7.1850   -1.8723   -0.7975 H   0  0  0  0  0  0  0  0  0  0  0  0
    6.0673   -1.9344    1.6164 H   0  0  0  0  0  0  0  0  0  0  0  0
    3.9000   -0.5020    1.5208 H   0  0  0  0  0  0  0  0  0  0  0  0
  1  2  2  0  0  0  0
  2  3  1  0  0  0  0
  2 22  1  0  0  0  0
  3  4  2  0  0  0  0
  4  5  1  0  0  0  0
  4 27  1  0  0  0  0
  5  6  1  0  0  0  0
  5 18  2  0  0  0  0
  6  7  1  0  0  0  0
  6 28  1  0  0  0  0
  6 29  1  0  0  0  0
  7  8  2  0  0  0  0
  8  9  1  0  0  0  0
  9 10  1  0  0  0  0
  9 30  1  0  0  0  0
 10 11  2  0  0  0  0
 10 12  1  0  0  0  0
 12 13  2  0  0  0  0
 13 14  1  0  0  0  0
 13 31  1  0  0  0  0
 14 15  2  0  0  0  0
 14 32  1  0  0  0  0
 15 16  1  0  0  0  0
 15 33  1  0  0  0  0
 16 17  2  0  0  0  0
 16 34  1  0  0  0  0
 17  7  1  0  0  0  0
 17 12  1  0  0  0  0
 18 19  1  0  0  0  0
 18 35  1  0  0  0  0
 19 20  2  0  0  0  0
 19 36  1  0  0  0  0
 20 21  1  0  0  0  0
 20  3  1  0  0  0  0
 22 23  1  0  0  0  0
 23 24  2  0  0  0  0
 23 37  1  0  0  0  0
 24 25  1  0  0  0  0
 24 38  1  0  0  0  0
 25 26  2  0  0  0  0
 25 39  1  0  0  0  0
 26 22  1  0  0  0  0
 26 40  1  0  0  0  0
M  END
$$$$
