
 OpenBabel05232313403D

 41 43  0  0  0  0  0  0  0  0999 V2000
    1.2708   -0.6601    0.3998 O   0  0  0  0  0  0  0  0  0  0  0  0
    0.7290   -0.2184   -0.6751 C   0  0  0  0  0  0  0  0  0  0  0  0
   -0.6815    0.1710   -0.6006 C   0  0  0  0  0  0  0  0  0  0  0  0
   -1.2134   -0.2031    0.7799 C   0  0  0  0  0  0  0  0  0  0  0  0
   -2.6295    0.2213    0.8523 C   0  0  0  0  0  0  0  0  0  0  0  0
   -3.5772   -0.6357    0.4426 N   0  0  0  0  0  0  0  0  0  0  0  0
   -4.8790   -0.3038    0.4972 C   0  0  0  0  0  0  0  0  0  0  0  0
   -5.8549   -1.1711    0.0801 C   0  0  0  0  0  0  0  0  0  0  0  0
   -7.1925   -0.8372    0.1318 C   0  0  0  0  0  0  0  0  0  0  0  0
   -7.5251    0.4205    0.6268 C   0  0  0  0  0  0  0  0  0  0  0  0
   -6.5475    1.3135    1.0542 C   0  0  0  0  0  0  0  0  0  0  0  0
   -5.2225    0.9498    0.9887 C   0  0  0  0  0  0  0  0  0  0  0  0
   -4.2117    1.7988    1.3988 C   0  0  0  0  0  0  0  0  0  0  0  0
   -4.5572    2.9254    1.8391 O   0  0  0  0  0  0  0  0  0  0  0  0
   -2.9087    1.4568    1.3398 N   0  0  0  0  0  0  0  0  0  0  0  0
    1.5407   -0.1491   -1.8234 N   0  0  0  0  0  0  0  0  0  0  0  0
    2.8855   -0.5740   -1.6732 N   0  0  0  0  0  0  0  0  0  0  0  0
    3.7521    0.2393   -0.8614 C   0  0  0  0  0  0  0  0  0  0  0  0
    3.2250    1.2820   -0.3549 O   0  0  0  0  0  0  0  0  0  0  0  0
    5.1461   -0.0929   -0.6205 C   0  0  0  0  0  0  0  0  0  0  0  0
    5.8860    0.7396    0.1948 C   0  0  0  0  0  0  0  0  0  0  0  0
    7.2166    0.4853    0.4766 C   0  0  0  0  0  0  0  0  0  0  0  0
    7.8281   -0.6216   -0.0634 C   0  0  0  0  0  0  0  0  0  0  0  0
    9.1145   -0.8957    0.1929 F   0  0  0  0  0  0  0  0  0  0  0  0
    7.1115   -1.4653   -0.8784 C   0  0  0  0  0  0  0  0  0  0  0  0
    5.7928   -1.1890   -1.1418 C   0  0  0  0  0  0  0  0  0  0  0  0
   -1.2493   -0.4225   -1.3501 H   0  0  0  0  0  0  0  0  0  0  0  0
   -0.8654    1.2394   -0.8197 H   0  0  0  0  0  0  0  0  0  0  0  0
   -1.1504   -1.3123    0.8931 H   0  0  0  0  0  0  0  0  0  0  0  0
   -0.6134    0.2157    1.5985 H   0  0  0  0  0  0  0  0  0  0  0  0
   -5.5760   -2.1516   -0.3042 H   0  0  0  0  0  0  0  0  0  0  0  0
   -7.9895   -1.4899   -0.1845 H   0  0  0  0  0  0  0  0  0  0  0  0
   -8.5664    0.6801    0.6701 H   0  0  0  0  0  0  0  0  0  0  0  0
   -6.8004    2.2976    1.4442 H   0  0  0  0  0  0  0  0  0  0  0  0
   -2.1374    2.0914    1.6463 H   0  0  0  0  0  0  0  0  0  0  0  0
    1.1509    0.1935   -2.7106 H   0  0  0  0  0  0  0  0  0  0  0  0
    3.2747   -1.4255   -2.1072 H   0  0  0  0  0  0  0  0  0  0  0  0
    5.4117    1.6148    0.6234 H   0  0  0  0  0  0  0  0  0  0  0  0
    7.8152    1.1301    1.1173 H   0  0  0  0  0  0  0  0  0  0  0  0
    7.5496   -2.3575   -1.3317 H   0  0  0  0  0  0  0  0  0  0  0  0
    5.2479   -1.8665   -1.7875 H   0  0  0  0  0  0  0  0  0  0  0  0
  1  2  2  0  0  0  0
  2  3  1  0  0  0  0
  2 16  1  0  0  0  0
  3  4  1  0  0  0  0
  3 27  1  0  0  0  0
  3 28  1  0  0  0  0
  4  5  1  0  0  0  0
  4 29  1  0  0  0  0
  4 30  1  0  0  0  0
  5  6  2  0  0  0  0
  6  7  1  0  0  0  0
  7  8  2  0  0  0  0
  8  9  1  0  0  0  0
  8 31  1  0  0  0  0
  9 10  2  0  0  0  0
  9 32  1  0  0  0  0
 10 11  1  0  0  0  0
 10 33  1  0  0  0  0
 11 12  2  0  0  0  0
 11 34  1  0  0  0  0
 12 13  1  0  0  0  0
 12  7  1  0  0  0  0
 13 14  2  0  0  0  0
 13 15  1  0  0  0  0
 15  5  1  0  0  0  0
 15 35  1  0  0  0  0
 16 17  1  0  0  0  0
 16 36  1  0  0  0  0
 17 18  1  0  0  0  0
 17 37  1  0  0  0  0
 18 19  2  0  0  0  0
 18 20  1  0  0  0  0
 20 21  2  0  0  0  0
 21 22  1  0  0  0  0
 21 38  1  0  0  0  0
 22 23  2  0  0  0  0
 22 39  1  0  0  0  0
 23 24  1  0  0  0  0
 23 25  1  0  0  0  0
 25 26  2  0  0  0  0
 25 40  1  0  0  0  0
 26 20  1  0  0  0  0
 26 41  1  0  0  0  0
M  END
$$$$
