
 OpenBabel05232313393D

 41 43  0  0  0  0  0  0  0  0999 V2000
    2.9733    0.5681   -1.1096 O   0  0  0  0  0  0  0  0  0  0  0  0
    3.5728   -0.1203   -0.2243 C   0  0  0  0  0  0  0  0  0  0  0  0
    2.8956   -1.1927    0.3910 N   0  0  0  0  0  0  0  0  0  0  0  0
    1.5112   -1.5560    0.0551 C   0  0  0  0  0  0  0  0  0  0  0  0
    0.5420   -0.4344    0.3316 C   0  0  0  0  0  0  0  0  0  0  0  0
   -0.7711   -0.8722   -0.0166 N   0  0  0  0  0  0  0  0  0  0  0  0
   -1.8796    0.0430    0.1640 C   0  0  0  0  0  0  0  0  0  0  0  0
   -1.5431    1.1392    0.6166 O   0  0  0  0  0  0  0  0  0  0  0  0
   -3.1938   -0.4421   -0.2019 C   0  0  0  0  0  0  0  0  0  0  0  0
   -3.3374   -1.7167   -0.6930 N   0  0  0  0  0  0  0  0  0  0  0  0
   -4.4979   -2.2275   -1.0465 N   0  0  0  0  0  0  0  0  0  0  0  0
   -5.6493   -1.5425   -0.9571 C   0  0  0  0  0  0  0  0  0  0  0  0
   -6.7567   -2.0427   -1.2991 O   0  0  0  0  0  0  0  0  0  0  0  0
   -5.6016   -0.2500   -0.4730 C   0  0  0  0  0  0  0  0  0  0  0  0
   -6.7753    0.4763   -0.3715 C   0  0  0  0  0  0  0  0  0  0  0  0
   -6.7363    1.7582    0.1074 C   0  0  0  0  0  0  0  0  0  0  0  0
   -5.5200    2.2840    0.4744 C   0  0  0  0  0  0  0  0  0  0  0  0
   -4.3348    1.5686    0.3786 C   0  0  0  0  0  0  0  0  0  0  0  0
   -4.3549    0.2797   -0.1003 C   0  0  0  0  0  0  0  0  0  0  0  0
    4.9286    0.2090    0.1311 C   0  0  0  0  0  0  0  0  0  0  0  0
    5.5637    1.2667   -0.5344 C   0  0  0  0  0  0  0  0  0  0  0  0
    6.8577    1.6446   -0.2529 C   0  0  0  0  0  0  0  0  0  0  0  0
    7.5845    0.9918    0.7024 C   0  0  0  0  0  0  0  0  0  0  0  0
    8.8572    1.3739    0.9696 F   0  0  0  0  0  0  0  0  0  0  0  0
    6.9807   -0.0491    1.3676 C   0  0  0  0  0  0  0  0  0  0  0  0
    5.6693   -0.4339    1.0840 C   0  0  0  0  0  0  0  0  0  0  0  0
    3.4066   -1.7466    1.1141 H   0  0  0  0  0  0  0  0  0  0  0  0
    1.2607   -2.4806    0.5726 H   0  0  0  0  0  0  0  0  0  0  0  0
    1.5501   -1.8077   -1.0376 H   0  0  0  0  0  0  0  0  0  0  0  0
    0.6464   -0.1608    1.4030 H   0  0  0  0  0  0  0  0  0  0  0  0
    0.8041    0.4079   -0.3416 H   0  0  0  0  0  0  0  0  0  0  0  0
   -0.9331   -1.8340   -0.3948 H   0  0  0  0  0  0  0  0  0  0  0  0
   -4.5721   -3.2036   -1.4175 H   0  0  0  0  0  0  0  0  0  0  0  0
   -7.7128   -0.0097   -0.6841 H   0  0  0  0  0  0  0  0  0  0  0  0
   -7.6585    2.3482    0.1943 H   0  0  0  0  0  0  0  0  0  0  0  0
   -5.4810    3.2920    0.8522 H   0  0  0  0  0  0  0  0  0  0  0  0
   -3.4059    2.0075    0.6726 H   0  0  0  0  0  0  0  0  0  0  0  0
    5.0116    1.8116   -1.3052 H   0  0  0  0  0  0  0  0  0  0  0  0
    7.2995    2.4783   -0.8061 H   0  0  0  0  0  0  0  0  0  0  0  0
    7.5608   -0.5719    2.1317 H   0  0  0  0  0  0  0  0  0  0  0  0
    5.2388   -1.2538    1.6306 H   0  0  0  0  0  0  0  0  0  0  0  0
  1  2  2  0  0  0  0
  2  3  1  0  0  0  0
  2 20  1  0  0  0  0
  3  4  1  0  0  0  0
  3 27  1  0  0  0  0
  4  5  1  0  0  0  0
  4 28  1  0  0  0  0
  4 29  1  0  0  0  0
  5  6  1  0  0  0  0
  5 30  1  0  0  0  0
  5 31  1  0  0  0  0
  6  7  1  0  0  0  0
  6 32  1  0  0  0  0
  7  8  2  0  0  0  0
  7  9  1  0  0  0  0
  9 10  2  0  0  0  0
 10 11  1  0  0  0  0
 11 12  1  0  0  0  0
 11 33  1  0  0  0  0
 12 13  2  0  0  0  0
 12 14  1  0  0  0  0
 14 15  2  0  0  0  0
 15 16  1  0  0  0  0
 15 34  1  0  0  0  0
 16 17  2  0  0  0  0
 16 35  1  0  0  0  0
 17 18  1  0  0  0  0
 17 36  1  0  0  0  0
 18 19  2  0  0  0  0
 18 37  1  0  0  0  0
 19  9  1  0  0  0  0
 19 14  1  0  0  0  0
 20 21  2  0  0  0  0
 21 22  1  0  0  0  0
 21 38  1  0  0  0  0
 22 23  2  0  0  0  0
 22 39  1  0  0  0  0
 23 24  1  0  0  0  0
 23 25  1  0  0  0  0
 25 26  2  0  0  0  0
 25 40  1  0  0  0  0
 26 20  1  0  0  0  0
 26 41  1  0  0  0  0
M  END
$$$$
