
 OpenBabel05232313403D

 28 30  0  0  0  0  0  0  0  0999 V2000
   -0.9675    1.3204    3.0823 O   0  0  0  0  0  0  0  0  0  0  0  0
   -0.2911    0.4568    2.0526 S   0  0  0  0  0  0  0  0  0  0  0  0
    0.4364   -0.6504    2.7892 O   0  0  0  0  0  0  0  0  0  0  0  0
    0.9089    1.3693    1.2169 N   0  0  0  0  0  0  0  0  0  0  0  0
    1.7794    0.8074    0.2476 C   0  0  0  0  0  0  0  0  0  0  0  0
    1.8253   -0.5500    0.0089 C   0  0  0  0  0  0  0  0  0  0  0  0
    2.7002   -1.0522   -0.9521 C   0  0  0  0  0  0  0  0  0  0  0  0
    3.5359   -0.2322   -1.6863 C   0  0  0  0  0  0  0  0  0  0  0  0
    3.4919    1.1235   -1.4497 C   0  0  0  0  0  0  0  0  0  0  0  0
    2.6288    1.6193   -0.5016 C   0  0  0  0  0  0  0  0  0  0  0  0
    2.6218    2.9556   -0.3054 F   0  0  0  0  0  0  0  0  0  0  0  0
   -1.4848   -0.2260    0.9903 C   0  0  0  0  0  0  0  0  0  0  0  0
   -1.6512   -1.5879    0.9634 C   0  0  0  0  0  0  0  0  0  0  0  0
   -2.5793   -2.2040    0.1511 C   0  0  0  0  0  0  0  0  0  0  0  0
   -3.3794   -1.4177   -0.6740 C   0  0  0  0  0  0  0  0  0  0  0  0
   -3.2278   -0.0475   -0.6618 C   0  0  0  0  0  0  0  0  0  0  0  0
   -3.8135    0.9540   -1.3064 N   0  0  0  0  0  0  0  0  0  0  0  0
   -3.2797    2.0712   -0.9115 O   0  0  0  0  0  0  0  0  0  0  0  0
   -2.3560    1.8565   -0.0246 N   0  0  0  0  0  0  0  0  0  0  0  0
   -2.2813    0.5428    0.1701 C   0  0  0  0  0  0  0  0  0  0  0  0
    1.0079    2.3849    1.4272 H   0  0  0  0  0  0  0  0  0  0  0  0
    1.1802   -1.2045    0.5753 H   0  0  0  0  0  0  0  0  0  0  0  0
    2.7342   -2.1195   -1.1377 H   0  0  0  0  0  0  0  0  0  0  0  0
    4.1966   -0.6676   -2.4199 H   0  0  0  0  0  0  0  0  0  0  0  0
    4.1485    1.7843   -2.0240 H   0  0  0  0  0  0  0  0  0  0  0  0
   -1.0271   -2.1890    1.6059 H   0  0  0  0  0  0  0  0  0  0  0  0
   -2.7312   -3.2731    0.1101 H   0  0  0  0  0  0  0  0  0  0  0  0
   -4.1263   -1.8244   -1.3361 H   0  0  0  0  0  0  0  0  0  0  0  0
  1  2  2  0  0  0  0
  2  3  2  0  0  0  0
  2  4  1  0  0  0  0
  2 12  1  0  0  0  0
  4  5  1  0  0  0  0
  4 21  1  0  0  0  0
  5  6  2  0  0  0  0
  6  7  1  0  0  0  0
  6 22  1  0  0  0  0
  7  8  2  0  0  0  0
  7 23  1  0  0  0  0
  8  9  1  0  0  0  0
  8 24  1  0  0  0  0
  9 10  2  0  0  0  0
  9 25  1  0  0  0  0
 10 11  1  0  0  0  0
 10  5  1  0  0  0  0
 12 13  2  0  0  0  0
 13 14  1  0  0  0  0
 13 26  1  0  0  0  0
 14 15  2  0  0  0  0
 14 27  1  0  0  0  0
 15 16  1  0  0  0  0
 15 28  1  0  0  0  0
 16 17  2  0  0  0  0
 17 18  1  0  0  0  0
 18 19  1  0  0  0  0
 19 20  2  0  0  0  0
 20 12  1  0  0  0  0
 20 16  1  0  0  0  0
M  END
$$$$
