
 OpenBabel05232313393D

 33 35  0  0  0  0  0  0  0  0999 V2000
    5.3147   -0.6651   -1.1693 O   0  0  0  0  0  0  0  0  0  0  0  0
    5.0472   -0.2412   -0.0213 C   0  0  0  0  0  0  0  0  0  0  0  0
    6.0601    0.0486    0.8460 O   0  0  0  0  0  0  0  0  0  0  0  0
    3.6490   -0.0713    0.3495 C   0  0  0  0  0  0  0  0  0  0  0  0
    3.2820    0.3962    1.6091 C   0  0  0  0  0  0  0  0  0  0  0  0
    1.9620    0.5569    1.9564 C   0  0  0  0  0  0  0  0  0  0  0  0
    0.9847    0.2394    1.0129 C   0  0  0  0  0  0  0  0  0  0  0  0
    1.2775   -0.2246   -0.2439 C   0  0  0  0  0  0  0  0  0  0  0  0
    0.2919   -0.5545   -1.3040 C   0  0  0  0  0  0  0  0  0  0  0  0
   -1.0262   -0.9578   -0.8603 C   0  0  0  0  0  0  0  0  0  0  0  0
   -1.3928   -2.2417   -0.6894 N   0  0  0  0  0  0  0  0  0  0  0  0
   -2.5971   -2.5987   -0.2537 N   0  0  0  0  0  0  0  0  0  0  0  0
   -3.5364   -1.7155    0.0477 C   0  0  0  0  0  0  0  0  0  0  0  0
   -4.6775   -2.0919    0.4621 O   0  0  0  0  0  0  0  0  0  0  0  0
   -3.2612   -0.3752   -0.0938 C   0  0  0  0  0  0  0  0  0  0  0  0
   -4.2335    0.5751    0.1963 C   0  0  0  0  0  0  0  0  0  0  0  0
   -3.9312    1.9110    0.0228 C   0  0  0  0  0  0  0  0  0  0  0  0
   -2.6909    2.3246   -0.4298 C   0  0  0  0  0  0  0  0  0  0  0  0
   -1.7743    1.3320   -0.6968 C   0  0  0  0  0  0  0  0  0  0  0  0
   -2.0026   -0.0016   -0.5490 C   0  0  0  0  0  0  0  0  0  0  0  0
    2.6466   -0.3654   -0.5312 C   0  0  0  0  0  0  0  0  0  0  0  0
    6.9451    0.4415    0.5064 H   0  0  0  0  0  0  0  0  0  0  0  0
    4.0451    0.6321    2.3150 H   0  0  0  0  0  0  0  0  0  0  0  0
    1.6582    0.9220    2.9409 H   0  0  0  0  0  0  0  0  0  0  0  0
   -0.0737    0.3476    1.2742 H   0  0  0  0  0  0  0  0  0  0  0  0
    0.2759    0.2484   -2.0963 H   0  0  0  0  0  0  0  0  0  0  0  0
    0.7572   -1.4255   -1.8618 H   0  0  0  0  0  0  0  0  0  0  0  0
   -2.7709   -3.6371   -0.1578 H   0  0  0  0  0  0  0  0  0  0  0  0
   -5.2056    0.2312    0.5511 H   0  0  0  0  0  0  0  0  0  0  0  0
   -4.6782    2.6741    0.2415 H   0  0  0  0  0  0  0  0  0  0  0  0
   -2.4480    3.3871   -0.5692 H   0  0  0  0  0  0  0  0  0  0  0  0
   -0.7980    1.6288   -1.0493 H   0  0  0  0  0  0  0  0  0  0  0  0
    2.9007   -0.7293   -1.5156 H   0  0  0  0  0  0  0  0  0  0  0  0
  1  2  2  0  0  0  0
  2  3  1  0  0  0  0
  2  4  1  0  0  0  0
  3 22  1  0  0  0  0
  4  5  2  0  0  0  0
  5  6  1  0  0  0  0
  5 23  1  0  0  0  0
  6  7  2  0  0  0  0
  6 24  1  0  0  0  0
  7  8  1  0  0  0  0
  7 25  1  0  0  0  0
  8  9  1  0  0  0  0
  8 21  2  0  0  0  0
  9 10  1  0  0  0  0
  9 26  1  0  0  0  0
  9 27  1  0  0  0  0
 10 11  2  0  0  0  0
 11 12  1  0  0  0  0
 12 13  1  0  0  0  0
 12 28  1  0  0  0  0
 13 14  2  0  0  0  0
 13 15  1  0  0  0  0
 15 16  2  0  0  0  0
 16 17  1  0  0  0  0
 16 29  1  0  0  0  0
 17 18  2  0  0  0  0
 17 30  1  0  0  0  0
 18 19  1  0  0  0  0
 18 31  1  0  0  0  0
 19 20  2  0  0  0  0
 19 32  1  0  0  0  0
 20 10  1  0  0  0  0
 20 15  1  0  0  0  0
 21  4  1  0  0  0  0
 21 33  1  0  0  0  0
M  END
$$$$
