
 OpenBabel05232313403D

 38 40  0  0  0  0  0  0  0  0999 V2000
    0.0532   -0.7386   -1.2761 O   0  0  0  0  0  0  0  0  0  0  0  0
    0.0043    0.4506   -0.8680 C   0  0  0  0  0  0  0  0  0  0  0  0
   -1.1531    1.3541   -1.1050 C   0  0  0  0  0  0  0  0  0  0  0  0
   -2.4402    0.8763   -0.6033 C   0  0  0  0  0  0  0  0  0  0  0  0
   -3.2523    0.0529   -1.2864 N   0  0  0  0  0  0  0  0  0  0  0  0
   -4.4447   -0.3458   -0.8341 C   0  0  0  0  0  0  0  0  0  0  0  0
   -5.3191   -1.1716   -1.4886 C   0  0  0  0  0  0  0  0  0  0  0  0
   -6.5409   -1.5311   -0.9658 C   0  0  0  0  0  0  0  0  0  0  0  0
   -6.9183   -1.0594    0.2525 C   0  0  0  0  0  0  0  0  0  0  0  0
   -6.0651   -0.2225    0.9465 C   0  0  0  0  0  0  0  0  0  0  0  0
   -4.8444    0.1308    0.4113 C   0  0  0  0  0  0  0  0  0  0  0  0
   -3.9981    0.9812    1.1150 C   0  0  0  0  0  0  0  0  0  0  0  0
   -4.3436    1.4280    2.2572 O   0  0  0  0  0  0  0  0  0  0  0  0
   -2.8325    1.3348    0.6089 N   0  0  0  0  0  0  0  0  0  0  0  0
    1.1552    0.9193   -0.1407 N   0  0  0  0  0  0  0  0  0  0  0  0
    2.2955    0.1833    0.1367 N   0  0  0  0  0  0  0  0  0  0  0  0
    3.5578    0.6601   -0.2908 C   0  0  0  0  0  0  0  0  0  0  0  0
    3.5601    1.7713   -0.9277 O   0  0  0  0  0  0  0  0  0  0  0  0
    4.8157    0.0113   -0.0722 C   0  0  0  0  0  0  0  0  0  0  0  0
    5.9732    0.7623   -0.1416 C   0  0  0  0  0  0  0  0  0  0  0  0
    7.2095    0.2136    0.0551 C   0  0  0  0  0  0  0  0  0  0  0  0
    7.2657   -1.1361    0.3287 C   0  0  0  0  0  0  0  0  0  0  0  0
    8.4950   -1.6910    0.5280 F   0  0  0  0  0  0  0  0  0  0  0  0
    6.1354   -1.9055    0.4020 C   0  0  0  0  0  0  0  0  0  0  0  0
    4.9052   -1.3164    0.1983 C   0  0  0  0  0  0  0  0  0  0  0  0
   -0.9244    2.3694   -0.6655 H   0  0  0  0  0  0  0  0  0  0  0  0
   -1.1725    1.5488   -2.2106 H   0  0  0  0  0  0  0  0  0  0  0  0
   -5.0473   -1.5639   -2.4744 H   0  0  0  0  0  0  0  0  0  0  0  0
   -7.2041   -2.1860   -1.5040 H   0  0  0  0  0  0  0  0  0  0  0  0
   -7.8687   -1.3043    0.7256 H   0  0  0  0  0  0  0  0  0  0  0  0
   -6.3417    0.1694    1.9211 H   0  0  0  0  0  0  0  0  0  0  0  0
   -2.2351    1.9810    1.1826 H   0  0  0  0  0  0  0  0  0  0  0  0
    1.0880    1.9263    0.2020 H   0  0  0  0  0  0  0  0  0  0  0  0
    2.2506   -0.7104    0.6530 H   0  0  0  0  0  0  0  0  0  0  0  0
    5.9122    1.8342   -0.3605 H   0  0  0  0  0  0  0  0  0  0  0  0
    8.0795    0.8511   -0.0081 H   0  0  0  0  0  0  0  0  0  0  0  0
    6.1706   -2.9746    0.6134 H   0  0  0  0  0  0  0  0  0  0  0  0
    4.0194   -1.9530    0.2628 H   0  0  0  0  0  0  0  0  0  0  0  0
  1  2  2  0  0  0  0
  2  3  1  0  0  0  0
  2 15  1  0  0  0  0
  3  4  1  0  0  0  0
  3 26  1  0  0  0  0
  3 27  1  0  0  0  0
  4  5  2  0  0  0  0
  5  6  1  0  0  0  0
  6  7  2  0  0  0  0
  7  8  1  0  0  0  0
  7 28  1  0  0  0  0
  8  9  2  0  0  0  0
  8 29  1  0  0  0  0
  9 10  1  0  0  0  0
  9 30  1  0  0  0  0
 10 11  2  0  0  0  0
 10 31  1  0  0  0  0
 11 12  1  0  0  0  0
 11  6  1  0  0  0  0
 12 13  2  0  0  0  0
 12 14  1  0  0  0  0
 14  4  1  0  0  0  0
 14 32  1  0  0  0  0
 15 16  1  0  0  0  0
 15 33  1  0  0  0  0
 16 17  1  0  0  0  0
 16 34  1  0  0  0  0
 17 18  2  0  0  0  0
 17 19  1  0  0  0  0
 19 20  2  0  0  0  0
 20 21  1  0  0  0  0
 20 35  1  0  0  0  0
 21 22  2  0  0  0  0
 21 36  1  0  0  0  0
 22 23  1  0  0  0  0
 22 24  1  0  0  0  0
 24 25  2  0  0  0  0
 24 37  1  0  0  0  0
 25 19  1  0  0  0  0
 25 38  1  0  0  0  0
M  END
$$$$
