
 OpenBabel05232313393D

 43 45  0  0  0  0  0  0  0  0999 V2000
   -8.6631   -1.1040    0.8282 C   0  0  0  0  0  0  0  0  0  0  0  0
   -7.3924   -0.7239    0.0962 C   0  0  0  0  0  0  0  0  0  0  0  0
   -7.4791   -0.3614   -1.0930 O   0  0  0  0  0  0  0  0  0  0  0  0
   -6.1776   -0.7912    0.7706 N   0  0  0  0  0  0  0  0  0  0  0  0
   -4.9099   -0.4657    0.2196 C   0  0  0  0  0  0  0  0  0  0  0  0
   -4.6782    0.0551   -1.0172 C   0  0  0  0  0  0  0  0  0  0  0  0
   -3.3831    0.3445   -1.4947 C   0  0  0  0  0  0  0  0  0  0  0  0
   -2.2858    0.1116   -0.7252 C   0  0  0  0  0  0  0  0  0  0  0  0
   -0.9014    0.3908   -1.1618 C   0  0  0  0  0  0  0  0  0  0  0  0
   -0.6688    0.9143   -2.4058 C   0  0  0  0  0  0  0  0  0  0  0  0
    0.6478    1.1772   -2.8145 C   0  0  0  0  0  0  0  0  0  0  0  0
    1.6090    0.8956   -1.9499 N   0  0  0  0  0  0  0  0  0  0  0  0
    1.4165    0.3820   -0.7229 C   0  0  0  0  0  0  0  0  0  0  0  0
    2.4319    0.0796    0.2029 N   0  0  0  0  0  0  0  0  0  0  0  0
    3.8270    0.2444    0.0493 C   0  0  0  0  0  0  0  0  0  0  0  0
    4.4004    0.7500   -1.0898 C   0  0  0  0  0  0  0  0  0  0  0  0
    5.7699    0.8981   -1.2070 C   0  0  0  0  0  0  0  0  0  0  0  0
    6.5783    0.5325   -0.1632 C   0  0  0  0  0  0  0  0  0  0  0  0
    6.0512    0.0146    1.0145 C   0  0  0  0  0  0  0  0  0  0  0  0
    6.9003   -0.3760    2.1271 C   0  0  0  0  0  0  0  0  0  0  0  0
    8.3107   -0.2477    2.0660 N   0  0  0  0  0  0  0  0  0  0  0  0
    6.3909   -0.8398    3.1751 O   0  0  0  0  0  0  0  0  0  0  0  0
    4.6943   -0.1169    1.0931 C   0  0  0  0  0  0  0  0  0  0  0  0
    0.1252    0.1313   -0.3396 N   0  0  0  0  0  0  0  0  0  0  0  0
   -2.4998   -0.4216    0.5459 C   0  0  0  0  0  0  0  0  0  0  0  0
   -3.7636   -0.6980    0.9969 C   0  0  0  0  0  0  0  0  0  0  0  0
   -8.4917   -0.9389    1.9199 H   0  0  0  0  0  0  0  0  0  0  0  0
   -9.4448   -0.3735    0.5271 H   0  0  0  0  0  0  0  0  0  0  0  0
   -8.9402   -2.1480    0.6162 H   0  0  0  0  0  0  0  0  0  0  0  0
   -6.2341   -1.1194    1.7931 H   0  0  0  0  0  0  0  0  0  0  0  0
   -5.4998    0.2691   -1.6795 H   0  0  0  0  0  0  0  0  0  0  0  0
   -3.2688    0.7589   -2.4920 H   0  0  0  0  0  0  0  0  0  0  0  0
   -1.4628    1.1450   -3.1156 H   0  0  0  0  0  0  0  0  0  0  0  0
    0.7885    1.5888   -3.8005 H   0  0  0  0  0  0  0  0  0  0  0  0
    2.1197   -0.3223    1.1341 H   0  0  0  0  0  0  0  0  0  0  0  0
    3.8244    1.0582   -1.9507 H   0  0  0  0  0  0  0  0  0  0  0  0
    6.2338    1.3014   -2.1144 H   0  0  0  0  0  0  0  0  0  0  0  0
    7.6539    0.6387   -0.2304 H   0  0  0  0  0  0  0  0  0  0  0  0
    8.7849   -0.4354    1.1584 H   0  0  0  0  0  0  0  0  0  0  0  0
    8.8574    0.0266    2.9060 H   0  0  0  0  0  0  0  0  0  0  0  0
    4.2375   -0.5115    1.9805 H   0  0  0  0  0  0  0  0  0  0  0  0
   -1.6077   -0.5979    1.1391 H   0  0  0  0  0  0  0  0  0  0  0  0
   -3.9006   -1.1154    1.9974 H   0  0  0  0  0  0  0  0  0  0  0  0
  1  2  1  0  0  0  0
  1 27  1  0  0  0  0
  1 28  1  0  0  0  0
  1 29  1  0  0  0  0
  2  3  2  0  0  0  0
  2  4  1  0  0  0  0
  4  5  1  0  0  0  0
  4 30  1  0  0  0  0
  5  6  2  0  0  0  0
  6  7  1  0  0  0  0
  6 31  1  0  0  0  0
  7  8  2  0  0  0  0
  7 32  1  0  0  0  0
  8  9  1  0  0  0  0
  8 25  1  0  0  0  0
  9 10  2  0  0  0  0
 10 11  1  0  0  0  0
 10 33  1  0  0  0  0
 11 12  2  0  0  0  0
 11 34  1  0  0  0  0
 12 13  1  0  0  0  0
 13 14  1  0  0  0  0
 13 24  2  0  0  0  0
 14 15  1  0  0  0  0
 14 35  1  0  0  0  0
 15 16  2  0  0  0  0
 16 17  1  0  0  0  0
 16 36  1  0  0  0  0
 17 18  2  0  0  0  0
 17 37  1  0  0  0  0
 18 19  1  0  0  0  0
 18 38  1  0  0  0  0
 19 20  1  0  0  0  0
 19 23  2  0  0  0  0
 20 21  1  0  0  0  0
 20 22  2  0  0  0  0
 21 39  1  0  0  0  0
 21 40  1  0  0  0  0
 23 15  1  0  0  0  0
 23 41  1  0  0  0  0
 24  9  1  0  0  0  0
 25 26  2  0  0  0  0
 25 42  1  0  0  0  0
 26  5  1  0  0  0  0
 26 43  1  0  0  0  0
M  END
$$$$
