
 OpenBabel05232313393D

 41 43  0  0  0  0  0  0  0  0999 V2000
    0.3730   -0.9309   -2.6516 C   0  0  0  0  0  0  0  0  0  0  0  0
    0.4633   -0.9614   -1.1545 C   0  0  2  0  0  0  0  0  0  0  0  0
   -0.7117   -0.6003   -0.5046 O   0  0  0  0  0  0  0  0  0  0  0  0
   -1.4226   -1.3926    0.3481 C   0  0  0  0  0  0  0  0  0  0  0  0
   -0.8639   -2.5614    0.4923 O   0  0  0  0  0  0  0  0  0  0  0  0
   -2.6356   -1.1367    1.0721 C   0  0  0  0  0  0  0  0  0  0  0  0
   -3.1916   -2.1119    1.9005 C   0  0  0  0  0  0  0  0  0  0  0  0
   -4.3299   -1.9159    2.6000 C   0  0  0  0  0  0  0  0  0  0  0  0
   -4.8175   -2.8113    3.3448 O   0  0  0  0  0  0  0  0  0  0  0  0
   -4.9724   -0.7435    2.5123 N   0  0  0  0  0  0  0  0  0  0  0  0
   -4.4856    0.2531    1.7220 C   0  0  0  0  0  0  0  0  0  0  0  0
   -5.1440    1.4485    1.6348 C   0  0  0  0  0  0  0  0  0  0  0  0
   -4.6533    2.4617    0.8343 C   0  0  0  0  0  0  0  0  0  0  0  0
   -3.5028    2.2982    0.1116 C   0  0  0  0  0  0  0  0  0  0  0  0
   -2.8380    1.0837    0.2030 C   0  0  0  0  0  0  0  0  0  0  0  0
   -3.3057    0.0507    0.9966 C   0  0  0  0  0  0  0  0  0  0  0  0
    1.5988   -0.0666   -0.6954 C   0  0  0  0  0  0  0  0  0  0  0  0
    1.3853    0.8321    0.1481 O   0  0  0  0  0  0  0  0  0  0  0  0
    2.8794   -0.2567   -1.2225 N   0  0  0  0  0  0  0  0  0  0  0  0
    4.0413    0.4844   -0.9049 C   0  0  0  0  0  0  0  0  0  0  0  0
    4.1291    1.5247   -0.0232 C   0  0  0  0  0  0  0  0  0  0  0  0
    5.3214    2.2100    0.2373 C   0  0  0  0  0  0  0  0  0  0  0  0
    6.4863    1.8523   -0.4033 C   0  0  0  0  0  0  0  0  0  0  0  0
    6.4223    0.8069   -1.2962 C   0  0  0  0  0  0  0  0  0  0  0  0
    5.2368    0.1456   -1.5376 C   0  0  0  0  0  0  0  0  0  0  0  0
    5.2115   -0.8940   -2.4363 F   0  0  0  0  0  0  0  0  0  0  0  0
    0.2742   -1.9439   -3.0646 H   0  0  0  0  0  0  0  0  0  0  0  0
   -0.4208   -0.2378   -3.0166 H   0  0  0  0  0  0  0  0  0  0  0  0
    1.3279   -0.5197   -3.0397 H   0  0  0  0  0  0  0  0  0  0  0  0
    0.7131   -2.0008   -0.8550 H   0  0  0  0  0  0  0  0  0  0  0  0
   -2.6603   -3.0499    1.9588 H   0  0  0  0  0  0  0  0  0  0  0  0
   -5.8649   -0.5614    3.0478 H   0  0  0  0  0  0  0  0  0  0  0  0
   -6.0565    1.5722    2.2107 H   0  0  0  0  0  0  0  0  0  0  0  0
   -5.2097    3.3782    0.8032 H   0  0  0  0  0  0  0  0  0  0  0  0
   -3.1374    3.0950   -0.5037 H   0  0  0  0  0  0  0  0  0  0  0  0
   -1.9506    1.0141   -0.3801 H   0  0  0  0  0  0  0  0  0  0  0  0
    2.9588   -1.0548   -1.9399 H   0  0  0  0  0  0  0  0  0  0  0  0
    3.2635    1.8614    0.5146 H   0  0  0  0  0  0  0  0  0  0  0  0
    5.3311    3.0300    0.9490 H   0  0  0  0  0  0  0  0  0  0  0  0
    7.4266    2.3797   -0.2093 H   0  0  0  0  0  0  0  0  0  0  0  0
    7.3312    0.5202   -1.8027 H   0  0  0  0  0  0  0  0  0  0  0  0
  1  2  1  0  0  0  0
  1 27  1  0  0  0  0
  1 28  1  0  0  0  0
  1 29  1  0  0  0  0
  2  3  1  0  0  0  0
  2 17  1  0  0  0  0
  2 30  1  1  0  0  0
  3  4  1  0  0  0  0
  4  5  2  0  0  0  0
  4  6  1  0  0  0  0
  6  7  2  0  0  0  0
  7  8  1  0  0  0  0
  7 31  1  0  0  0  0
  8  9  2  0  0  0  0
  8 10  1  0  0  0  0
 10 11  1  0  0  0  0
 10 32  1  0  0  0  0
 11 12  2  0  0  0  0
 12 13  1  0  0  0  0
 12 33  1  0  0  0  0
 13 14  2  0  0  0  0
 13 34  1  0  0  0  0
 14 15  1  0  0  0  0
 14 35  1  0  0  0  0
 15 16  2  0  0  0  0
 15 36  1  0  0  0  0
 16  6  1  0  0  0  0
 16 11  1  0  0  0  0
 17 18  2  0  0  0  0
 17 19  1  0  0  0  0
 19 20  1  0  0  0  0
 19 37  1  0  0  0  0
 20 21  2  0  0  0  0
 21 22  1  0  0  0  0
 21 38  1  0  0  0  0
 22 23  2  0  0  0  0
 22 39  1  0  0  0  0
 23 24  1  0  0  0  0
 23 40  1  0  0  0  0
 24 25  2  0  0  0  0
 24 41  1  0  0  0  0
 25 26  1  0  0  0  0
 25 20  1  0  0  0  0
M  END
$$$$
