
 OpenBabel05232313393D

 37 39  0  0  0  0  0  0  0  0999 V2000
    0.0221    0.1890   -1.4375 O   0  0  0  0  0  0  0  0  0  0  0  0
   -0.4695   -0.3020   -0.3890 C   0  0  0  0  0  0  0  0  0  0  0  0
    0.4144   -1.0302    0.5379 C   0  0  0  0  0  0  0  0  0  0  0  0
    1.8204   -1.0698    0.0596 C   0  0  0  0  0  0  0  0  0  0  0  0
    2.3809   -2.2000   -0.5027 C   0  0  0  0  0  0  0  0  0  0  0  0
    3.6843   -2.2495   -0.9503 C   0  0  0  0  0  0  0  0  0  0  0  0
    4.4783   -1.1483   -0.8455 C   0  0  0  0  0  0  0  0  0  0  0  0
    3.9353    0.0005   -0.2828 C   0  0  0  0  0  0  0  0  0  0  0  0
    4.7468    1.1222   -0.1770 C   0  0  0  0  0  0  0  0  0  0  0  0
    4.2594    2.3003    0.3771 C   0  0  0  0  0  0  0  0  0  0  0  0
    2.9664    2.3491    0.8209 C   0  0  0  0  0  0  0  0  0  0  0  0
    2.1713    1.2330    0.7116 C   0  0  0  0  0  0  0  0  0  0  0  0
    2.6304    0.0423    0.1626 C   0  0  0  0  0  0  0  0  0  0  0  0
   -1.8870   -0.1340   -0.1302 C   0  0  0  0  0  0  0  0  0  0  0  0
   -2.4285   -0.6728    1.0199 C   0  0  0  0  0  0  0  0  0  0  0  0
   -3.7696   -0.5614    1.3477 C   0  0  0  0  0  0  0  0  0  0  0  0
   -4.2855   -1.1160    2.5154 O   0  0  0  0  0  0  0  0  0  0  0  0
   -4.5779    0.1329    0.4522 C   0  0  0  0  0  0  0  0  0  0  0  0
   -5.9078    0.2764    0.7198 O   0  0  0  0  0  0  0  0  0  0  0  0
   -4.0750    0.6872   -0.7098 C   0  0  0  0  0  0  0  0  0  0  0  0
   -4.9462    1.3824   -1.5816 N   0  3  0  0  0  0  0  0  0  0  0  0
   -5.9475    2.0208   -1.1683 O   0  0  0  0  0  0  0  0  0  0  0  0
   -4.7634    1.4136   -2.9622 O   0  5  0  0  0  0  0  0  0  0  0  0
   -2.7147    0.5427   -0.9877 C   0  0  0  0  0  0  0  0  0  0  0  0
    0.0936   -2.0765    0.7204 H   0  0  0  0  0  0  0  0  0  0  0  0
    0.3816   -0.5275    1.5365 H   0  0  0  0  0  0  0  0  0  0  0  0
    1.7940   -3.1077   -0.6111 H   0  0  0  0  0  0  0  0  0  0  0  0
    4.0966   -3.1690   -1.3934 H   0  0  0  0  0  0  0  0  0  0  0  0
    5.5047   -1.1631   -1.1895 H   0  0  0  0  0  0  0  0  0  0  0  0
    5.7617    1.0545   -0.5349 H   0  0  0  0  0  0  0  0  0  0  0  0
    4.9282    3.1405    0.4360 H   0  0  0  0  0  0  0  0  0  0  0  0
    2.6096    3.2775    1.2486 H   0  0  0  0  0  0  0  0  0  0  0  0
    1.1540    1.3016    1.0708 H   0  0  0  0  0  0  0  0  0  0  0  0
   -1.7756   -1.2026    1.6894 H   0  0  0  0  0  0  0  0  0  0  0  0
   -3.6354   -1.6057    3.1154 H   0  0  0  0  0  0  0  0  0  0  0  0
   -6.3130   -0.1090    1.5497 H   0  0  0  0  0  0  0  0  0  0  0  0
   -2.3375    0.9788   -1.8948 H   0  0  0  0  0  0  0  0  0  0  0  0
  1  2  2  0  0  0  0
  2  3  1  0  0  0  0
  2 14  1  0  0  0  0
  3  4  1  0  0  0  0
  3 25  1  0  0  0  0
  3 26  1  0  0  0  0
  4  5  2  0  0  0  0
  5  6  1  0  0  0  0
  5 27  1  0  0  0  0
  6  7  2  0  0  0  0
  6 28  1  0  0  0  0
  7  8  1  0  0  0  0
  7 29  1  0  0  0  0
  8  9  2  0  0  0  0
  9 10  1  0  0  0  0
  9 30  1  0  0  0  0
 10 11  2  0  0  0  0
 10 31  1  0  0  0  0
 11 12  1  0  0  0  0
 11 32  1  0  0  0  0
 12 13  2  0  0  0  0
 12 33  1  0  0  0  0
 13  4  1  0  0  0  0
 13  8  1  0  0  0  0
 14 15  2  0  0  0  0
 15 16  1  0  0  0  0
 15 34  1  0  0  0  0
 16 17  1  0  0  0  0
 16 18  2  0  0  0  0
 17 35  1  0  0  0  0
 18 19  1  0  0  0  0
 18 20  1  0  0  0  0
 19 36  1  0  0  0  0
 20 21  1  0  0  0  0
 20 24  2  0  0  0  0
 21 22  2  0  0  0  0
 21 23  1  0  0  0  0
 24 14  1  0  0  0  0
 24 37  1  0  0  0  0
M  CHG  2  21   1  23  -1
M  END
$$$$
