
 OpenBabel05232313403D

 48 50  0  0  0  0  0  0  0  0999 V2000
    5.2734   -1.3283   -2.2358 C   0  0  0  0  0  0  0  0  0  0  0  0
    5.5615   -0.6938   -0.8797 C   0  0  1  0  0  0  0  0  0  0  0  0
    5.8303    0.7926   -1.0667 C   0  0  0  0  0  0  0  0  0  0  0  0
    4.4698    1.4162   -1.0497 C   0  0  0  0  0  0  0  0  0  0  0  0
    3.5292    0.4282   -0.3863 C   0  0  2  0  0  0  0  0  0  0  0  0
    2.8627    1.2498    1.0468 S   0  0  0  0  0  0  0  0  0  0  0  0
    3.9291    1.5202    2.0738 O   0  0  0  0  0  0  0  0  0  0  0  0
    2.1958    2.5093    0.5813 O   0  0  0  0  0  0  0  0  0  0  0  0
    1.7112    0.1712    1.7830 C   0  0  0  0  0  0  0  0  0  0  0  0
    2.1554   -0.7422    2.7131 C   0  0  0  0  0  0  0  0  0  0  0  0
    1.2450   -1.6005    3.3079 C   0  0  0  0  0  0  0  0  0  0  0  0
   -0.0738   -1.5112    2.9487 C   0  0  0  0  0  0  0  0  0  0  0  0
   -0.5312   -0.6032    2.0211 C   0  0  0  0  0  0  0  0  0  0  0  0
   -1.9305   -0.5060    1.6518 C   0  0  0  0  0  0  0  0  0  0  0  0
   -2.7668   -1.2014    2.2904 O   0  0  0  0  0  0  0  0  0  0  0  0
   -2.4592    0.3087    0.6248 N   0  0  0  0  0  0  0  0  0  0  0  0
   -3.8213    0.3590    0.3190 N   0  0  0  0  0  0  0  0  0  0  0  0
   -4.4168   -0.0500   -0.8899 C   0  0  0  0  0  0  0  0  0  0  0  0
   -3.6456   -0.5114   -1.8007 O   0  0  0  0  0  0  0  0  0  0  0  0
   -5.8456    0.0153   -1.1723 C   0  0  0  0  0  0  0  0  0  0  0  0
   -6.7431    0.5255   -0.2716 C   0  0  0  0  0  0  0  0  0  0  0  0
   -8.1154    0.5812   -0.5446 C   0  0  0  0  0  0  0  0  0  0  0  0
   -8.5437    0.1018   -1.7600 C   0  0  0  0  0  0  0  0  0  0  0  0
   -7.6337   -0.4047   -2.6483 C   0  0  0  0  0  0  0  0  0  0  0  0
   -6.3039   -0.4407   -2.3429 N   0  0  0  0  0  0  0  0  0  0  0  0
    0.3624    0.2523    1.4252 C   0  0  0  0  0  0  0  0  0  0  0  0
    4.3338   -0.7717   -0.0296 C   0  0  0  0  0  0  0  0  0  0  0  0
    5.9251   -0.8596   -3.0235 H   0  0  0  0  0  0  0  0  0  0  0  0
    5.3812   -2.4183   -2.2268 H   0  0  0  0  0  0  0  0  0  0  0  0
    4.2014   -1.1305   -2.4693 H   0  0  0  0  0  0  0  0  0  0  0  0
    6.4385   -1.2199   -0.4410 H   0  0  0  0  0  0  0  0  0  0  0  0
    6.3446    0.9949   -2.0323 H   0  0  0  0  0  0  0  0  0  0  0  0
    6.4524    1.1295   -0.1879 H   0  0  0  0  0  0  0  0  0  0  0  0
    4.4944    2.4032   -0.5304 H   0  0  0  0  0  0  0  0  0  0  0  0
    4.1063    1.6049   -2.0891 H   0  0  0  0  0  0  0  0  0  0  0  0
    2.6677    0.1931   -1.0540 H   0  0  0  0  0  0  0  0  0  0  0  0
    3.2018   -0.8318    3.0178 H   0  0  0  0  0  0  0  0  0  0  0  0
    1.5477   -2.3467    4.0546 H   0  0  0  0  0  0  0  0  0  0  0  0
   -0.7766   -2.1989    3.4299 H   0  0  0  0  0  0  0  0  0  0  0  0
   -1.7963    0.8924    0.0773 H   0  0  0  0  0  0  0  0  0  0  0  0
   -4.4373    0.7382    1.0685 H   0  0  0  0  0  0  0  0  0  0  0  0
   -6.4177    0.9054    0.6867 H   0  0  0  0  0  0  0  0  0  0  0  0
   -8.8374    0.9817    0.1552 H   0  0  0  0  0  0  0  0  0  0  0  0
   -9.6073    0.1423   -1.9766 H   0  0  0  0  0  0  0  0  0  0  0  0
   -7.9804   -0.7839   -3.6156 H   0  0  0  0  0  0  0  0  0  0  0  0
    0.1161    1.0032    0.6868 H   0  0  0  0  0  0  0  0  0  0  0  0
    3.7864   -1.6906   -0.2934 H   0  0  0  0  0  0  0  0  0  0  0  0
    4.5604   -0.8540    1.0542 H   0  0  0  0  0  0  0  0  0  0  0  0
  1  2  1  0  0  0  0
  1 28  1  0  0  0  0
  1 29  1  0  0  0  0
  1 30  1  0  0  0  0
  2  3  1  0  0  0  0
  2 31  1  1  0  0  0
  3  4  1  0  0  0  0
  3 32  1  0  0  0  0
  3 33  1  0  0  0  0
  4  5  1  0  0  0  0
  4 34  1  0  0  0  0
  4 35  1  0  0  0  0
  5  6  1  0  0  0  0
  5 27  1  0  0  0  0
  5 36  1  6  0  0  0
  6  7  2  0  0  0  0
  6  8  2  0  0  0  0
  6  9  1  0  0  0  0
  9 10  2  0  0  0  0
 10 11  1  0  0  0  0
 10 37  1  0  0  0  0
 11 12  2  0  0  0  0
 11 38  1  0  0  0  0
 12 13  1  0  0  0  0
 12 39  1  0  0  0  0
 13 14  1  0  0  0  0
 13 26  2  0  0  0  0
 14 15  2  0  0  0  0
 14 16  1  0  0  0  0
 16 17  1  0  0  0  0
 16 40  1  0  0  0  0
 17 18  1  0  0  0  0
 17 41  1  0  0  0  0
 18 19  2  0  0  0  0
 18 20  1  0  0  0  0
 20 21  2  0  0  0  0
 21 22  1  0  0  0  0
 21 42  1  0  0  0  0
 22 23  2  0  0  0  0
 22 43  1  0  0  0  0
 23 24  1  0  0  0  0
 23 44  1  0  0  0  0
 24 25  2  0  0  0  0
 24 45  1  0  0  0  0
 25 20  1  0  0  0  0
 26  9  1  0  0  0  0
 26 46  1  0  0  0  0
 27  2  1  0  0  0  0
 27 47  1  0  0  0  0
 27 48  1  0  0  0  0
M  END
$$$$
