
 OpenBabel05232313403D

 35 36  0  0  0  0  0  0  0  0999 V2000
    6.7709   -0.4195    0.5006 C   0  0  0  0  0  0  0  0  0  0  0  0
    5.3424   -0.1324    0.2427 C   0  0  0  0  0  0  0  0  0  0  0  0
    4.3422   -0.5572    1.1056 C   0  0  0  0  0  0  0  0  0  0  0  0
    3.0234   -0.2704    0.8349 C   0  0  0  0  0  0  0  0  0  0  0  0
    2.6313    0.4357   -0.2798 C   0  0  0  0  0  0  0  0  0  0  0  0
    1.1872    0.7095   -0.5135 C   0  0  0  0  0  0  0  0  0  0  0  0
    0.4528    0.1202    0.4853 O   0  0  0  0  0  0  0  0  0  0  0  0
   -0.8545    0.3661    0.2769 N   0  0  0  0  0  0  0  0  0  0  0  0
   -1.8059   -0.6708    0.1671 C   0  0  0  0  0  0  0  0  0  0  0  0
   -1.4536   -1.8657    0.2608 O   0  0  0  0  0  0  0  0  0  0  0  0
   -3.1996   -0.3296   -0.0545 C   0  0  0  0  0  0  0  0  0  0  0  0
   -3.5968    0.8708   -0.6511 C   0  0  0  0  0  0  0  0  0  0  0  0
   -4.9258    1.1219   -0.8132 C   0  0  0  0  0  0  0  0  0  0  0  0
   -5.8532    0.1868   -0.3843 C   0  0  0  0  0  0  0  0  0  0  0  0
   -5.4933   -1.0023    0.2064 C   0  0  0  0  0  0  0  0  0  0  0  0
   -6.4852   -1.9408    0.6393 N   0  3  0  0  0  0  0  0  0  0  0  0
   -7.6713   -1.6589    0.4727 O   0  0  0  0  0  0  0  0  0  0  0  0
   -6.1562   -3.1273    1.2237 O   0  5  0  0  0  0  0  0  0  0  0  0
   -4.1434   -1.2419    0.3628 C   0  0  0  0  0  0  0  0  0  0  0  0
    3.6306    0.8542   -1.1331 C   0  0  0  0  0  0  0  0  0  0  0  0
    4.9637    0.5753   -0.8773 C   0  0  0  0  0  0  0  0  0  0  0  0
    6.9073   -0.8694    1.5046 H   0  0  0  0  0  0  0  0  0  0  0  0
    7.3853    0.5182    0.4944 H   0  0  0  0  0  0  0  0  0  0  0  0
    7.1111   -1.1273   -0.2767 H   0  0  0  0  0  0  0  0  0  0  0  0
    4.6621   -1.1171    1.9900 H   0  0  0  0  0  0  0  0  0  0  0  0
    2.2408   -0.5990    1.5016 H   0  0  0  0  0  0  0  0  0  0  0  0
    0.9775    1.8163   -0.4441 H   0  0  0  0  0  0  0  0  0  0  0  0
    0.9066    0.4333   -1.5370 H   0  0  0  0  0  0  0  0  0  0  0  0
   -1.1609    1.3794    0.1964 H   0  0  0  0  0  0  0  0  0  0  0  0
   -2.8224    1.5665   -0.9670 H   0  0  0  0  0  0  0  0  0  0  0  0
   -5.2612    2.0523   -1.2791 H   0  0  0  0  0  0  0  0  0  0  0  0
   -6.9029    0.3884   -0.5125 H   0  0  0  0  0  0  0  0  0  0  0  0
   -3.8373   -2.1657    0.8273 H   0  0  0  0  0  0  0  0  0  0  0  0
    3.3475    1.4132   -2.0138 H   0  0  0  0  0  0  0  0  0  0  0  0
    5.7404    0.9092   -1.5561 H   0  0  0  0  0  0  0  0  0  0  0  0
  1  2  1  0  0  0  0
  1 22  1  0  0  0  0
  1 23  1  0  0  0  0
  1 24  1  0  0  0  0
  2  3  2  0  0  0  0
  3  4  1  0  0  0  0
  3 25  1  0  0  0  0
  4  5  2  0  0  0  0
  4 26  1  0  0  0  0
  5  6  1  0  0  0  0
  5 20  1  0  0  0  0
  6  7  1  0  0  0  0
  6 27  1  0  0  0  0
  6 28  1  0  0  0  0
  7  8  1  0  0  0  0
  8  9  1  0  0  0  0
  8 29  1  0  0  0  0
  9 10  2  0  0  0  0
  9 11  1  0  0  0  0
 11 12  2  0  0  0  0
 12 13  1  0  0  0  0
 12 30  1  0  0  0  0
 13 14  2  0  0  0  0
 13 31  1  0  0  0  0
 14 15  1  0  0  0  0
 14 32  1  0  0  0  0
 15 16  1  0  0  0  0
 15 19  2  0  0  0  0
 16 17  2  0  0  0  0
 16 18  1  0  0  0  0
 19 11  1  0  0  0  0
 19 33  1  0  0  0  0
 20 21  2  0  0  0  0
 20 34  1  0  0  0  0
 21  2  1  0  0  0  0
 21 35  1  0  0  0  0
M  CHG  2  16   1  18  -1
M  END
$$$$
