
 OpenBabel05232313403D

 34 36  0  0  0  0  0  0  0  0999 V2000
   -3.6107    2.2196    0.2650 C   0  0  0  0  0  0  0  0  0  0  0  0
   -4.0427    1.4206   -0.6564 C   0  0  0  0  0  0  0  0  0  0  0  0
   -3.6443    0.1274   -1.0813 C   0  0  0  0  0  0  0  0  0  0  0  0
   -4.3842   -0.3884   -2.0501 O   0  0  0  0  0  0  0  0  0  0  0  0
   -2.5557   -0.6833   -0.5974 C   0  0  0  0  0  0  0  0  0  0  0  0
   -2.5340   -2.0262   -1.0425 C   0  0  0  0  0  0  0  0  0  0  0  0
   -1.4993   -2.8207   -0.6452 C   0  0  0  0  0  0  0  0  0  0  0  0
   -1.5036   -4.1178   -1.0914 F   0  0  0  0  0  0  0  0  0  0  0  0
   -0.5010   -2.3350    0.1662 C   0  0  0  0  0  0  0  0  0  0  0  0
    0.4219   -3.1198    0.4953 O   0  0  0  0  0  0  0  0  0  0  0  0
   -0.5276   -1.0458    0.5889 N   0  0  0  0  0  0  0  0  0  0  0  0
    0.4643   -0.5644    1.4391 C   0  0  0  0  0  0  0  0  0  0  0  0
    1.6929    0.0365    1.0193 C   0  0  0  0  0  0  0  0  0  0  0  0
    2.5506    0.4329    2.0648 C   0  0  0  0  0  0  0  0  0  0  0  0
    3.7596    1.0208    1.7938 C   0  0  0  0  0  0  0  0  0  0  0  0
    4.1465    1.2294    0.4879 C   0  0  0  0  0  0  0  0  0  0  0  0
    3.3269    0.8513   -0.5536 C   0  0  0  0  0  0  0  0  0  0  0  0
    3.4224    0.9200   -1.8915 N   0  0  0  0  0  0  0  0  0  0  0  0
    2.3479    0.4107   -2.4327 N   0  0  0  0  0  0  0  0  0  0  0  0
    1.4869   -0.0210   -1.4685 C   0  0  0  0  0  0  0  0  0  0  0  0
    2.0925    0.2509   -0.2675 C   0  0  0  0  0  0  0  0  0  0  0  0
   -1.5521   -0.2657    0.1926 C   0  0  0  0  0  0  0  0  0  0  0  0
   -2.8324    2.1398    0.9738 H   0  0  0  0  0  0  0  0  0  0  0  0
   -4.1302    3.2204    0.3850 H   0  0  0  0  0  0  0  0  0  0  0  0
   -4.9365    1.8421   -1.2620 H   0  0  0  0  0  0  0  0  0  0  0  0
   -3.3392   -2.4094   -1.6913 H   0  0  0  0  0  0  0  0  0  0  0  0
    0.0219    0.1765    2.2144 H   0  0  0  0  0  0  0  0  0  0  0  0
    0.7772   -1.3930    2.1872 H   0  0  0  0  0  0  0  0  0  0  0  0
    2.2562    0.2737    3.0846 H   0  0  0  0  0  0  0  0  0  0  0  0
    4.4257    1.3289    2.5850 H   0  0  0  0  0  0  0  0  0  0  0  0
    5.0907    1.6891    0.2399 H   0  0  0  0  0  0  0  0  0  0  0  0
    4.2704    1.3371   -2.3614 H   0  0  0  0  0  0  0  0  0  0  0  0
    0.5347   -0.4776   -1.6224 H   0  0  0  0  0  0  0  0  0  0  0  0
   -1.4956    0.7402    0.5324 H   0  0  0  0  0  0  0  0  0  0  0  0
  1  2  2  0  0  0  0
  1 23  1  0  0  0  0
  1 24  1  0  0  0  0
  2  3  1  0  0  0  0
  2 25  1  0  0  0  0
  3  4  2  0  0  0  0
  3  5  1  0  0  0  0
  5  6  1  0  0  0  0
  6  7  2  0  0  0  0
  6 26  1  0  0  0  0
  7  8  1  0  0  0  0
  7  9  1  0  0  0  0
  9 10  2  0  0  0  0
  9 11  1  0  0  0  0
 11 12  1  0  0  0  0
 11 22  1  0  0  0  0
 12 13  1  0  0  0  0
 12 27  1  0  0  0  0
 12 28  1  0  0  0  0
 13 14  2  0  0  0  0
 14 15  1  0  0  0  0
 14 29  1  0  0  0  0
 15 16  2  0  0  0  0
 15 30  1  0  0  0  0
 16 17  1  0  0  0  0
 16 31  1  0  0  0  0
 17 18  1  0  0  0  0
 18 19  1  0  0  0  0
 18 32  1  0  0  0  0
 19 20  2  0  0  0  0
 20 21  1  0  0  0  0
 20 33  1  0  0  0  0
 21 13  1  0  0  0  0
 21 17  2  0  0  0  0
 22  5  2  0  0  0  0
 22 34  1  0  0  0  0
M  END
$$$$
