
 OpenBabel05232313393D

 59 63  0  0  0  0  0  0  0  0999 V2000
   -1.3599    1.9632    2.8270 O   0  0  0  0  0  0  0  0  0  0  0  0
   -1.1213    1.1791    1.7800 C   0  0  0  0  0  0  0  0  0  0  0  0
   -0.0128    0.2638    1.9168 C   0  0  0  0  0  0  0  0  0  0  0  0
    0.5720    0.1646    3.1999 C   0  0  0  0  0  0  0  0  0  0  0  0
    1.6430   -0.6586    3.3810 C   0  0  0  0  0  0  0  0  0  0  0  0
    2.1775   -1.4009    2.3519 C   0  0  0  0  0  0  0  0  0  0  0  0
    1.6525   -1.3437    1.0881 C   0  0  0  0  0  0  0  0  0  0  0  0
    2.1622   -2.0994   -0.0926 C   0  0  0  0  0  0  0  0  0  0  0  0
    2.8661   -1.2935   -1.0791 C   0  0  0  0  0  0  0  0  0  0  0  0
    2.1962   -0.7969   -2.1673 N   0  0  0  0  0  0  0  0  0  0  0  0
    2.7948   -0.0241   -3.0495 N   0  0  0  0  0  0  0  0  0  0  0  0
    4.0841    0.3375   -2.9626 C   0  0  0  0  0  0  0  0  0  0  0  0
    4.6361    1.0792   -3.8191 O   0  0  0  0  0  0  0  0  0  0  0  0
    4.8106   -0.1205   -1.9071 C   0  0  0  0  0  0  0  0  0  0  0  0
    4.1662   -0.9443   -0.9724 C   0  0  0  0  0  0  0  0  0  0  0  0
    5.0725   -1.4211    0.1104 C   0  0  0  0  0  0  0  0  0  0  0  0
    5.6282   -0.1511    0.7420 C   0  0  0  0  0  0  0  0  0  0  0  0
    6.5644    0.4790   -0.2405 C   0  0  0  0  0  0  0  0  0  0  0  0
    6.2438    0.1963   -1.6701 C   0  0  0  0  0  0  0  0  0  0  0  0
    0.5413   -0.4814    0.9243 C   0  0  0  0  0  0  0  0  0  0  0  0
   -1.9761    1.3503    0.6991 N   0  0  0  0  0  0  0  0  0  0  0  0
   -2.9935    2.4155    0.8611 C   0  0  0  0  0  0  0  0  0  0  0  0
   -4.3365    1.6902    0.8752 C   0  0  0  0  0  0  0  0  0  0  0  0
   -4.4356    0.9337   -0.3825 N   0  0  0  0  0  0  0  0  0  0  0  0
   -5.6647    0.3205   -0.6857 C   0  0  0  0  0  0  0  0  0  0  0  0
   -5.9567   -0.3782   -1.8277 C   0  0  0  0  0  0  0  0  0  0  0  0
   -7.1918   -0.9658   -2.0795 C   0  0  0  0  0  0  0  0  0  0  0  0
   -8.1991   -0.8601   -1.1542 C   0  0  0  0  0  0  0  0  0  0  0  0
   -7.8997   -0.1464    0.0119 C   0  0  0  0  0  0  0  0  0  0  0  0
   -6.6987    0.3987    0.2057 N   0  0  0  0  0  0  0  0  0  0  0  0
   -3.3031    0.8505   -1.2451 C   0  0  0  0  0  0  0  0  0  0  0  0
   -1.9866    0.6016   -0.4871 C   0  0  0  0  0  0  0  0  0  0  0  0
    0.1633    0.7448    4.0433 H   0  0  0  0  0  0  0  0  0  0  0  0
    2.1183   -0.7600    4.3544 H   0  0  0  0  0  0  0  0  0  0  0  0
    3.0273   -2.0535    2.5602 H   0  0  0  0  0  0  0  0  0  0  0  0
    2.7681   -2.9311    0.3274 H   0  0  0  0  0  0  0  0  0  0  0  0
    1.2862   -2.6166   -0.5845 H   0  0  0  0  0  0  0  0  0  0  0  0
    2.2505    0.3324   -3.8619 H   0  0  0  0  0  0  0  0  0  0  0  0
    4.5543   -1.9922    0.8597 H   0  0  0  0  0  0  0  0  0  0  0  0
    5.9058   -1.9999   -0.3793 H   0  0  0  0  0  0  0  0  0  0  0  0
    4.7354    0.4897    0.9430 H   0  0  0  0  0  0  0  0  0  0  0  0
    6.1442   -0.4562    1.6623 H   0  0  0  0  0  0  0  0  0  0  0  0
    6.5683    1.5857   -0.0192 H   0  0  0  0  0  0  0  0  0  0  0  0
    7.5887    0.0797   -0.0068 H   0  0  0  0  0  0  0  0  0  0  0  0
    6.9027   -0.6249   -2.0806 H   0  0  0  0  0  0  0  0  0  0  0  0
    6.5265    1.1038   -2.2677 H   0  0  0  0  0  0  0  0  0  0  0  0
    0.1806   -0.4443   -0.0735 H   0  0  0  0  0  0  0  0  0  0  0  0
   -2.8336    2.9650    1.7845 H   0  0  0  0  0  0  0  0  0  0  0  0
   -2.9556    3.0329   -0.0579 H   0  0  0  0  0  0  0  0  0  0  0  0
   -5.1144    2.4654    0.8714 H   0  0  0  0  0  0  0  0  0  0  0  0
   -4.3463    1.0047    1.7121 H   0  0  0  0  0  0  0  0  0  0  0  0
   -5.1669   -0.4733   -2.5794 H   0  0  0  0  0  0  0  0  0  0  0  0
   -7.3930   -1.5094   -2.9880 H   0  0  0  0  0  0  0  0  0  0  0  0
   -9.1849   -1.2936   -1.2881 H   0  0  0  0  0  0  0  0  0  0  0  0
   -8.7118   -0.0786    0.7239 H   0  0  0  0  0  0  0  0  0  0  0  0
   -3.3542    0.0690   -2.0194 H   0  0  0  0  0  0  0  0  0  0  0  0
   -3.1781    1.8166   -1.7765 H   0  0  0  0  0  0  0  0  0  0  0  0
   -1.9797   -0.4962   -0.2670 H   0  0  0  0  0  0  0  0  0  0  0  0
   -1.1773    0.9024   -1.2165 H   0  0  0  0  0  0  0  0  0  0  0  0
  1  2  2  0  0  0  0
  2  3  1  0  0  0  0
  2 21  1  0  0  0  0
  3  4  2  0  0  0  0
  4  5  1  0  0  0  0
  4 33  1  0  0  0  0
  5  6  2  0  0  0  0
  5 34  1  0  0  0  0
  6  7  1  0  0  0  0
  6 35  1  0  0  0  0
  7  8  1  0  0  0  0
  7 20  2  0  0  0  0
  8  9  1  0  0  0  0
  8 36  1  0  0  0  0
  8 37  1  0  0  0  0
  9 10  2  0  0  0  0
 10 11  1  0  0  0  0
 11 12  1  0  0  0  0
 11 38  1  0  0  0  0
 12 13  2  0  0  0  0
 12 14  1  0  0  0  0
 14 15  2  0  0  0  0
 15 16  1  0  0  0  0
 15  9  1  0  0  0  0
 16 17  1  0  0  0  0
 16 39  1  0  0  0  0
 16 40  1  0  0  0  0
 17 18  1  0  0  0  0
 17 41  1  0  0  0  0
 17 42  1  0  0  0  0
 18 19  1  0  0  0  0
 18 43  1  0  0  0  0
 18 44  1  0  0  0  0
 19 14  1  0  0  0  0
 19 45  1  0  0  0  0
 19 46  1  0  0  0  0
 20  3  1  0  0  0  0
 20 47  1  0  0  0  0
 21 22  1  0  0  0  0
 22 23  1  0  0  0  0
 22 48  1  0  0  0  0
 22 49  1  0  0  0  0
 23 24  1  0  0  0  0
 23 50  1  0  0  0  0
 23 51  1  0  0  0  0
 24 25  1  0  0  0  0
 24 31  1  0  0  0  0
 25 26  2  0  0  0  0
 26 27  1  0  0  0  0
 26 52  1  0  0  0  0
 27 28  2  0  0  0  0
 27 53  1  0  0  0  0
 28 29  1  0  0  0  0
 28 54  1  0  0  0  0
 29 30  2  0  0  0  0
 29 55  1  0  0  0  0
 30 25  1  0  0  0  0
 31 32  1  0  0  0  0
 31 56  1  0  0  0  0
 31 57  1  0  0  0  0
 32 21  1  0  0  0  0
 32 58  1  0  0  0  0
 32 59  1  0  0  0  0
M  END
$$$$
