
 OpenBabel05232313403D

 47 50  0  0  0  0  0  0  0  0999 V2000
    5.6296    2.9076   -0.3109 N   0  0  0  0  0  0  0  0  0  0  0  0
    4.7976    1.9689    0.3600 C   0  0  0  0  0  0  0  0  0  0  0  0
    4.3334    0.8076   -0.2544 C   0  0  0  0  0  0  0  0  0  0  0  0
    3.5279   -0.0931    0.4073 C   0  0  0  0  0  0  0  0  0  0  0  0
    3.0651   -1.2941   -0.2476 C   0  0  0  0  0  0  0  0  0  0  0  0
    3.9170   -2.1451   -0.9628 C   0  0  0  0  0  0  0  0  0  0  0  0
    3.1269   -3.1316   -1.4094 N   0  0  0  0  0  0  0  0  0  0  0  0
    1.8832   -2.9372   -1.0205 N   0  0  0  0  0  0  0  0  0  0  0  0
    1.8065   -1.8096   -0.2993 C   0  0  0  0  0  0  0  0  0  0  0  0
    0.5914   -1.2677    0.2968 C   0  0  2  0  0  0  0  0  0  0  0  0
   -0.6439   -2.0999   -0.0907 C   0  0  0  0  0  0  0  0  0  0  0  0
   -1.7450   -1.1117    0.3270 C   0  0  0  0  0  0  0  0  0  0  0  0
   -1.2382    0.1450   -0.1611 N   0  0  0  0  0  0  0  0  0  0  0  0
   -2.0228    1.2842   -0.4364 C   0  0  0  0  0  0  0  0  0  0  0  0
   -1.4124    2.3274   -0.8664 O   0  0  0  0  0  0  0  0  0  0  0  0
   -3.4748    1.4017   -0.2818 C   0  0  0  0  0  0  0  0  0  0  0  0
   -3.9451    1.1269    1.1192 C   0  0  0  0  0  0  0  0  0  0  0  0
   -4.9376    0.0190    1.0809 C   0  0  0  0  0  0  0  0  0  0  0  0
   -5.3700   -0.0553   -0.3456 C   0  0  0  0  0  0  0  0  0  0  0  0
   -4.2855    0.5310   -1.1947 C   0  0  0  0  0  0  0  0  0  0  0  0
    0.1960    0.0667   -0.3260 C   0  0  0  0  0  0  0  0  0  0  0  0
    3.2031    0.2102    1.7080 C   0  0  0  0  0  0  0  0  0  0  0  0
    3.6683    1.3736    2.3227 C   0  0  0  0  0  0  0  0  0  0  0  0
    4.4512    2.2280    1.6466 N   0  0  0  0  0  0  0  0  0  0  0  0
    6.3080    2.5253   -1.0077 H   0  0  0  0  0  0  0  0  0  0  0  0
    5.5575    3.9129   -0.1107 H   0  0  0  0  0  0  0  0  0  0  0  0
    4.6298    0.6448   -1.2636 H   0  0  0  0  0  0  0  0  0  0  0  0
    4.9768   -1.9813   -1.0885 H   0  0  0  0  0  0  0  0  0  0  0  0
    3.5141   -3.9276   -1.9902 H   0  0  0  0  0  0  0  0  0  0  0  0
    0.5659   -1.2220    1.3861 H   0  0  0  0  0  0  0  0  0  0  0  0
   -0.6818   -2.1843   -1.1759 H   0  0  0  0  0  0  0  0  0  0  0  0
   -0.6943   -3.0281    0.4724 H   0  0  0  0  0  0  0  0  0  0  0  0
   -1.7108   -1.0528    1.4453 H   0  0  0  0  0  0  0  0  0  0  0  0
   -2.7151   -1.4176   -0.0501 H   0  0  0  0  0  0  0  0  0  0  0  0
   -3.7470    2.4837   -0.4783 H   0  0  0  0  0  0  0  0  0  0  0  0
   -3.0885    0.8718    1.7948 H   0  0  0  0  0  0  0  0  0  0  0  0
   -4.4575    2.0254    1.5706 H   0  0  0  0  0  0  0  0  0  0  0  0
   -4.5303   -0.9495    1.4604 H   0  0  0  0  0  0  0  0  0  0  0  0
   -5.8012    0.2364    1.7737 H   0  0  0  0  0  0  0  0  0  0  0  0
   -6.3419    0.5007   -0.4265 H   0  0  0  0  0  0  0  0  0  0  0  0
   -5.6132   -1.1049   -0.6121 H   0  0  0  0  0  0  0  0  0  0  0  0
   -4.8190    1.1958   -1.9399 H   0  0  0  0  0  0  0  0  0  0  0  0
   -3.7225   -0.1730   -1.8075 H   0  0  0  0  0  0  0  0  0  0  0  0
    0.7195    0.8453    0.3035 H   0  0  0  0  0  0  0  0  0  0  0  0
    0.5268    0.1546   -1.3645 H   0  0  0  0  0  0  0  0  0  0  0  0
    2.5874   -0.4215    2.3158 H   0  0  0  0  0  0  0  0  0  0  0  0
    3.4156    1.6136    3.3404 H   0  0  0  0  0  0  0  0  0  0  0  0
  1  2  1  0  0  0  0
  1 25  1  0  0  0  0
  1 26  1  0  0  0  0
  2  3  2  0  0  0  0
  3  4  1  0  0  0  0
  3 27  1  0  0  0  0
  4  5  1  0  0  0  0
  4 22  2  0  0  0  0
  5  6  2  0  0  0  0
  6  7  1  0  0  0  0
  6 28  1  0  0  0  0
  7  8  1  0  0  0  0
  7 29  1  0  0  0  0
  8  9  2  0  0  0  0
  9 10  1  0  0  0  0
  9  5  1  0  0  0  0
 10 11  1  0  0  0  0
 10 30  1  1  0  0  0
 11 12  1  0  0  0  0
 11 31  1  0  0  0  0
 11 32  1  0  0  0  0
 12 13  1  0  0  0  0
 12 33  1  0  0  0  0
 12 34  1  0  0  0  0
 13 14  1  0  0  0  0
 13 21  1  0  0  0  0
 14 15  2  0  0  0  0
 14 16  1  0  0  0  0
 16 17  1  0  0  0  0
 16 35  1  0  0  0  0
 17 18  1  0  0  0  0
 17 36  1  0  0  0  0
 17 37  1  0  0  0  0
 18 19  1  0  0  0  0
 18 38  1  0  0  0  0
 18 39  1  0  0  0  0
 19 20  1  0  0  0  0
 19 40  1  0  0  0  0
 19 41  1  0  0  0  0
 20 16  1  0  0  0  0
 20 42  1  0  0  0  0
 20 43  1  0  0  0  0
 21 10  1  0  0  0  0
 21 44  1  0  0  0  0
 21 45  1  0  0  0  0
 22 23  1  0  0  0  0
 22 46  1  0  0  0  0
 23 24  2  0  0  0  0
 23 47  1  0  0  0  0
 24  2  1  0  0  0  0
M  END
$$$$
