
 OpenBabel05232313393D

 48 50  0  0  0  0  0  0  0  0999 V2000
    5.8490    2.1540    2.7077 C   0  0  0  0  0  0  0  0  0  0  0  0
    5.4162    1.2012    1.6514 C   0  0  0  0  0  0  0  0  0  0  0  0
    4.6824    1.5742    0.5445 C   0  0  0  0  0  0  0  0  0  0  0  0
    4.2864    0.6694   -0.4337 C   0  0  0  0  0  0  0  0  0  0  0  0
    3.5076    1.1188   -1.5828 C   0  0  0  0  0  0  0  0  0  0  0  0
    2.0652    0.8085   -1.5398 C   0  0  0  0  0  0  0  0  0  0  0  0
    1.5215   -0.3018   -2.1436 C   0  0  0  0  0  0  0  0  0  0  0  0
    0.1618   -0.5797   -2.0855 C   0  0  0  0  0  0  0  0  0  0  0  0
   -0.7139    0.2544   -1.4128 C   0  0  0  0  0  0  0  0  0  0  0  0
   -2.4357   -0.1100   -1.3511 S   0  0  0  0  0  0  0  0  0  0  0  0
   -3.1318    1.2235   -1.1602 O   0  0  0  0  0  0  0  0  0  0  0  0
   -2.9149   -0.6504   -2.6643 O   0  0  0  0  0  0  0  0  0  0  0  0
   -2.7761   -1.1433   -0.0433 N   0  0  0  0  0  0  0  0  0  0  0  0
   -2.4498   -0.5604    1.2115 C   0  0  0  0  0  0  0  0  0  0  0  0
   -3.6457   -0.3766    2.1192 C   0  0  0  0  0  0  0  0  0  0  0  0
   -4.8493    0.1258    1.3878 C   0  0  0  0  0  0  0  0  0  0  0  0
   -5.1841   -0.7590    0.2167 C   0  0  0  0  0  0  0  0  0  0  0  0
   -4.0752   -1.7316   -0.0566 C   0  0  1  0  0  0  0  0  0  0  0  0
   -4.3602   -2.5626   -1.2734 C   0  0  0  0  0  0  0  0  0  0  0  0
   -0.1704    1.3716   -0.8055 C   0  0  0  0  0  0  0  0  0  0  0  0
    1.1836    1.6488   -0.8627 C   0  0  0  0  0  0  0  0  0  0  0  0
    4.6423   -0.6487   -0.2887 C   0  0  0  0  0  0  0  0  0  0  0  0
    4.3375   -1.5563   -1.1157 O   0  0  0  0  0  0  0  0  0  0  0  0
    5.3643   -0.9800    0.8131 N   0  0  0  0  0  0  0  0  0  0  0  0
    5.7341   -0.1104    1.7352 N   0  0  0  0  0  0  0  0  0  0  0  0
    5.0817    2.9133    2.8963 H   0  0  0  0  0  0  0  0  0  0  0  0
    6.1548    1.5916    3.6014 H   0  0  0  0  0  0  0  0  0  0  0  0
    6.7293    2.7016    2.2823 H   0  0  0  0  0  0  0  0  0  0  0  0
    4.4211    2.6223    0.4659 H   0  0  0  0  0  0  0  0  0  0  0  0
    3.9820    0.7576   -2.5316 H   0  0  0  0  0  0  0  0  0  0  0  0
    3.5757    2.2450   -1.6556 H   0  0  0  0  0  0  0  0  0  0  0  0
    2.1985   -0.9636   -2.6809 H   0  0  0  0  0  0  0  0  0  0  0  0
   -0.2346   -1.4468   -2.5613 H   0  0  0  0  0  0  0  0  0  0  0  0
   -1.8973    0.3903    1.1023 H   0  0  0  0  0  0  0  0  0  0  0  0
   -1.7605   -1.2690    1.7466 H   0  0  0  0  0  0  0  0  0  0  0  0
   -3.8300   -1.3320    2.6412 H   0  0  0  0  0  0  0  0  0  0  0  0
   -3.3418    0.3707    2.8873 H   0  0  0  0  0  0  0  0  0  0  0  0
   -4.7207    1.1709    1.0820 H   0  0  0  0  0  0  0  0  0  0  0  0
   -5.6917    0.1404    2.1403 H   0  0  0  0  0  0  0  0  0  0  0  0
   -5.5192   -0.1931   -0.6669 H   0  0  0  0  0  0  0  0  0  0  0  0
   -6.0754   -1.3803    0.5249 H   0  0  0  0  0  0  0  0  0  0  0  0
   -4.0937   -2.4585    0.8103 H   0  0  0  0  0  0  0  0  0  0  0  0
   -3.4495   -3.1738   -1.4691 H   0  0  0  0  0  0  0  0  0  0  0  0
   -4.7328   -2.0157   -2.1374 H   0  0  0  0  0  0  0  0  0  0  0  0
   -5.1638   -3.3117   -1.0117 H   0  0  0  0  0  0  0  0  0  0  0  0
   -0.8655    2.0250   -0.2817 H   0  0  0  0  0  0  0  0  0  0  0  0
    1.5578    2.5371   -0.3697 H   0  0  0  0  0  0  0  0  0  0  0  0
    5.6306   -2.0009    0.9106 H   0  0  0  0  0  0  0  0  0  0  0  0
  1  2  1  0  0  0  0
  1 26  1  0  0  0  0
  1 27  1  0  0  0  0
  1 28  1  0  0  0  0
  2  3  1  0  0  0  0
  3  4  2  0  0  0  0
  3 29  1  0  0  0  0
  4  5  1  0  0  0  0
  4 22  1  0  0  0  0
  5  6  1  0  0  0  0
  5 30  1  0  0  0  0
  5 31  1  0  0  0  0
  6  7  2  0  0  0  0
  7  8  1  0  0  0  0
  7 32  1  0  0  0  0
  8  9  2  0  0  0  0
  8 33  1  0  0  0  0
  9 10  1  0  0  0  0
  9 20  1  0  0  0  0
 10 11  2  0  0  0  0
 10 12  2  0  0  0  0
 10 13  1  0  0  0  0
 13 14  1  0  0  0  0
 14 15  1  0  0  0  0
 14 34  1  0  0  0  0
 14 35  1  0  0  0  0
 15 16  1  0  0  0  0
 15 36  1  0  0  0  0
 15 37  1  0  0  0  0
 16 17  1  0  0  0  0
 16 38  1  0  0  0  0
 16 39  1  0  0  0  0
 17 18  1  0  0  0  0
 17 40  1  0  0  0  0
 17 41  1  0  0  0  0
 18 19  1  0  0  0  0
 18 13  1  0  0  0  0
 18 42  1  1  0  0  0
 19 43  1  0  0  0  0
 19 44  1  0  0  0  0
 19 45  1  0  0  0  0
 20 21  2  0  0  0  0
 20 46  1  0  0  0  0
 21  6  1  0  0  0  0
 21 47  1  0  0  0  0
 22 23  2  0  0  0  0
 22 24  1  0  0  0  0
 24 25  1  0  0  0  0
 24 48  1  0  0  0  0
 25  2  2  0  0  0  0
M  END
$$$$
