
 OpenBabel05232313393D

 35 37  0  0  0  0  0  0  0  0999 V2000
    6.7492   -0.2332    0.0020 N   0  0  0  0  0  0  0  0  0  0  0  0
    5.4360   -0.7620   -0.0437 C   0  0  0  0  0  0  0  0  0  0  0  0
    5.1573   -1.8857    0.4639 O   0  0  0  0  0  0  0  0  0  0  0  0
    4.4013    0.0319   -0.6988 C   0  0  0  0  0  0  0  0  0  0  0  0
    4.6759    1.2595   -1.2605 C   0  0  0  0  0  0  0  0  0  0  0  0
    3.6996    1.9937   -1.8710 C   0  0  0  0  0  0  0  0  0  0  0  0
    2.4257    1.4734   -1.9116 C   0  0  0  0  0  0  0  0  0  0  0  0
    2.0998    0.2523   -1.3655 C   0  0  0  0  0  0  0  0  0  0  0  0
    0.7881   -0.1818   -1.4592 O   0  0  0  0  0  0  0  0  0  0  0  0
   -0.1653    0.1050   -0.4907 C   0  0  0  0  0  0  0  0  0  0  0  0
    0.2225    0.8363    0.5748 N   0  0  0  0  0  0  0  0  0  0  0  0
   -0.6176    1.1685    1.5650 C   0  0  0  0  0  0  0  0  0  0  0  0
   -1.9409    0.7161    1.4455 C   0  0  0  0  0  0  0  0  0  0  0  0
   -2.3671   -0.0285    0.3760 C   0  0  0  0  0  0  0  0  0  0  0  0
   -3.7319   -0.4982    0.2473 C   0  0  0  0  0  0  0  0  0  0  0  0
   -4.7227   -0.2576    1.1551 C   0  0  0  0  0  0  0  0  0  0  0  0
   -6.0273   -0.7420    0.9711 C   0  0  0  0  0  0  0  0  0  0  0  0
   -6.3413   -1.4737   -0.1321 C   0  0  0  0  0  0  0  0  0  0  0  0
   -5.3612   -1.7312   -1.0638 C   0  0  0  0  0  0  0  0  0  0  0  0
   -4.0808   -1.2536   -0.8793 C   0  0  0  0  0  0  0  0  0  0  0  0
   -1.4370   -0.3172   -0.5841 N   0  0  0  0  0  0  0  0  0  0  0  0
    3.1035   -0.4666   -0.7563 C   0  0  0  0  0  0  0  0  0  0  0  0
    7.5629   -0.7875   -0.3992 H   0  0  0  0  0  0  0  0  0  0  0  0
    6.9588    0.6874    0.4164 H   0  0  0  0  0  0  0  0  0  0  0  0
    5.7084    1.6359   -1.2046 H   0  0  0  0  0  0  0  0  0  0  0  0
    3.8936    2.9533   -2.3152 H   0  0  0  0  0  0  0  0  0  0  0  0
    1.6428    2.0358   -2.3877 H   0  0  0  0  0  0  0  0  0  0  0  0
   -0.3281    1.7549    2.4303 H   0  0  0  0  0  0  0  0  0  0  0  0
   -2.6449    0.9759    2.2434 H   0  0  0  0  0  0  0  0  0  0  0  0
   -4.5091    0.3141    2.0331 H   0  0  0  0  0  0  0  0  0  0  0  0
   -6.8038   -0.5390    1.7076 H   0  0  0  0  0  0  0  0  0  0  0  0
   -7.3601   -1.8304   -0.2387 H   0  0  0  0  0  0  0  0  0  0  0  0
   -5.6406   -2.3216   -1.9411 H   0  0  0  0  0  0  0  0  0  0  0  0
   -3.3249   -1.4584   -1.6084 H   0  0  0  0  0  0  0  0  0  0  0  0
    2.8794   -1.4257   -0.3196 H   0  0  0  0  0  0  0  0  0  0  0  0
  1  2  1  0  0  0  0
  1 23  1  0  0  0  0
  1 24  1  0  0  0  0
  2  3  2  0  0  0  0
  2  4  1  0  0  0  0
  4  5  2  0  0  0  0
  5  6  1  0  0  0  0
  5 25  1  0  0  0  0
  6  7  2  0  0  0  0
  6 26  1  0  0  0  0
  7  8  1  0  0  0  0
  7 27  1  0  0  0  0
  8  9  1  0  0  0  0
  8 22  2  0  0  0  0
  9 10  1  0  0  0  0
 10 11  2  0  0  0  0
 11 12  1  0  0  0  0
 12 13  2  0  0  0  0
 12 28  1  0  0  0  0
 13 14  1  0  0  0  0
 13 29  1  0  0  0  0
 14 15  1  0  0  0  0
 14 21  2  0  0  0  0
 15 16  2  0  0  0  0
 16 17  1  0  0  0  0
 16 30  1  0  0  0  0
 17 18  2  0  0  0  0
 17 31  1  0  0  0  0
 18 19  1  0  0  0  0
 18 32  1  0  0  0  0
 19 20  2  0  0  0  0
 19 33  1  0  0  0  0
 20 15  1  0  0  0  0
 20 34  1  0  0  0  0
 21 10  1  0  0  0  0
 22  4  1  0  0  0  0
 22 35  1  0  0  0  0
M  END
$$$$
