
 OpenBabel05232313403D

 43 45  0  0  0  0  0  0  0  0999 V2000
    4.5498   -2.3823    0.2441 C   0  0  0  0  0  0  0  0  0  0  0  0
    4.2578   -1.1847   -0.6668 C   0  0  0  0  0  0  0  0  0  0  0  0
    5.5511   -0.6351   -1.2387 C   0  0  0  0  0  0  0  0  0  0  0  0
    3.4830   -0.1574    0.0747 C   0  0  0  0  0  0  0  0  0  0  0  0
    3.9900    0.4260    1.2211 C   0  0  0  0  0  0  0  0  0  0  0  0
    3.2952    1.4061    1.8990 C   0  0  0  0  0  0  0  0  0  0  0  0
    2.0738    1.8504    1.4753 C   0  0  0  0  0  0  0  0  0  0  0  0
    1.5408    1.2734    0.3164 C   0  0  0  0  0  0  0  0  0  0  0  0
    0.3019    1.7695   -0.1615 N   0  0  0  0  0  0  0  0  0  0  0  0
   -0.6804    0.9277   -0.7694 C   0  0  0  0  0  0  0  0  0  0  0  0
   -0.3913   -0.2875   -0.8287 O   0  0  0  0  0  0  0  0  0  0  0  0
   -1.9541    1.4962   -1.2882 C   0  0  0  0  0  0  0  0  0  0  0  0
   -3.0567    1.2702   -0.3427 C   0  0  0  0  0  0  0  0  0  0  0  0
   -3.4073    2.2530    0.5261 N   0  0  0  0  0  0  0  0  0  0  0  0
   -4.3444    2.1589    1.4358 N   0  0  0  0  0  0  0  0  0  0  0  0
   -5.0359    0.9946    1.5388 C   0  0  0  0  0  0  0  0  0  0  0  0
   -5.9469    0.8206    2.3819 O   0  0  0  0  0  0  0  0  0  0  0  0
   -4.7198   -0.0329    0.6792 C   0  0  0  0  0  0  0  0  0  0  0  0
   -5.4305   -1.2415    0.7514 C   0  0  0  0  0  0  0  0  0  0  0  0
   -5.1422   -2.2684   -0.1063 C   0  0  0  0  0  0  0  0  0  0  0  0
   -4.1586   -2.1580   -1.0591 C   0  0  0  0  0  0  0  0  0  0  0  0
   -3.4447   -0.9738   -1.1464 C   0  0  0  0  0  0  0  0  0  0  0  0
   -3.7314    0.0793   -0.2736 C   0  0  0  0  0  0  0  0  0  0  0  0
    2.2473    0.2978   -0.3446 C   0  0  0  0  0  0  0  0  0  0  0  0
    3.6817   -2.4498    0.9432 H   0  0  0  0  0  0  0  0  0  0  0  0
    5.4485   -2.1464    0.8528 H   0  0  0  0  0  0  0  0  0  0  0  0
    4.5994   -3.3137   -0.3196 H   0  0  0  0  0  0  0  0  0  0  0  0
    3.6975   -1.5857   -1.5373 H   0  0  0  0  0  0  0  0  0  0  0  0
    5.8649   -1.2389   -2.1392 H   0  0  0  0  0  0  0  0  0  0  0  0
    5.3907    0.4037   -1.5774 H   0  0  0  0  0  0  0  0  0  0  0  0
    6.3889   -0.7006   -0.4993 H   0  0  0  0  0  0  0  0  0  0  0  0
    4.9574    0.0804    1.5554 H   0  0  0  0  0  0  0  0  0  0  0  0
    3.7544    1.8102    2.7803 H   0  0  0  0  0  0  0  0  0  0  0  0
    1.5001    2.6287    1.9999 H   0  0  0  0  0  0  0  0  0  0  0  0
    0.0413    2.7869   -0.0909 H   0  0  0  0  0  0  0  0  0  0  0  0
   -2.1600    1.0132   -2.2584 H   0  0  0  0  0  0  0  0  0  0  0  0
   -1.7780    2.6069   -1.4358 H   0  0  0  0  0  0  0  0  0  0  0  0
   -4.5909    2.9383    2.0891 H   0  0  0  0  0  0  0  0  0  0  0  0
   -6.2153   -1.3345    1.5113 H   0  0  0  0  0  0  0  0  0  0  0  0
   -5.6769   -3.2071   -0.0638 H   0  0  0  0  0  0  0  0  0  0  0  0
   -3.9152   -2.9737   -1.7563 H   0  0  0  0  0  0  0  0  0  0  0  0
   -2.6796   -0.8637   -1.9035 H   0  0  0  0  0  0  0  0  0  0  0  0
    1.8442   -0.1564   -1.2518 H   0  0  0  0  0  0  0  0  0  0  0  0
  1  2  1  0  0  0  0
  1 25  1  0  0  0  0
  1 26  1  0  0  0  0
  1 27  1  0  0  0  0
  2  3  1  0  0  0  0
  2  4  1  0  0  0  0
  2 28  1  0  0  0  0
  3 29  1  0  0  0  0
  3 30  1  0  0  0  0
  3 31  1  0  0  0  0
  4  5  2  0  0  0  0
  5  6  1  0  0  0  0
  5 32  1  0  0  0  0
  6  7  2  0  0  0  0
  6 33  1  0  0  0  0
  7  8  1  0  0  0  0
  7 34  1  0  0  0  0
  8  9  1  0  0  0  0
  8 24  2  0  0  0  0
  9 10  1  0  0  0  0
  9 35  1  0  0  0  0
 10 11  2  0  0  0  0
 10 12  1  0  0  0  0
 12 13  1  0  0  0  0
 12 36  1  0  0  0  0
 12 37  1  0  0  0  0
 13 14  2  0  0  0  0
 14 15  1  0  0  0  0
 15 16  1  0  0  0  0
 15 38  1  0  0  0  0
 16 17  2  0  0  0  0
 16 18  1  0  0  0  0
 18 19  2  0  0  0  0
 19 20  1  0  0  0  0
 19 39  1  0  0  0  0
 20 21  2  0  0  0  0
 20 40  1  0  0  0  0
 21 22  1  0  0  0  0
 21 41  1  0  0  0  0
 22 23  2  0  0  0  0
 22 42  1  0  0  0  0
 23 13  1  0  0  0  0
 23 18  1  0  0  0  0
 24  4  1  0  0  0  0
 24 43  1  0  0  0  0
M  END
$$$$
