
 OpenBabel05232313393D

 46 49  0  0  0  0  0  0  0  0999 V2000
    7.7461   -0.8573   -0.0122 C   0  0  0  0  0  0  0  0  0  0  0  0
    6.7250    0.2163   -0.1908 C   0  0  0  0  0  0  0  0  0  0  0  0
    6.9771    1.4719   -0.6856 C   0  0  0  0  0  0  0  0  0  0  0  0
    5.8139    2.1457   -0.6916 N   0  0  0  0  0  0  0  0  0  0  0  0
    4.8732    1.3358   -0.2173 N   0  0  0  0  0  0  0  0  0  0  0  0
    5.3692    0.1432    0.1055 C   0  0  0  0  0  0  0  0  0  0  0  0
    4.7480   -1.0687    0.6522 C   0  0  0  0  0  0  0  0  0  0  0  0
    3.3794   -0.9786    0.8958 O   0  0  0  0  0  0  0  0  0  0  0  0
    2.3913   -0.7071   -0.0244 C   0  0  0  0  0  0  0  0  0  0  0  0
    2.7425   -0.5159   -1.2083 O   0  0  0  0  0  0  0  0  0  0  0  0
    0.9762   -0.6382    0.3384 C   0  0  0  0  0  0  0  0  0  0  0  0
    0.0395   -0.3429   -0.6158 C   0  0  0  0  0  0  0  0  0  0  0  0
   -1.3239   -0.2582   -0.3918 C   0  0  0  0  0  0  0  0  0  0  0  0
   -2.2736    0.0949   -1.4723 C   0  0  0  0  0  0  0  0  0  0  0  0
   -3.4813    0.7718   -1.0385 C   0  0  0  0  0  0  0  0  0  0  0  0
   -3.5026    2.1222   -1.0216 N   0  0  0  0  0  0  0  0  0  0  0  0
   -4.5129    2.8502   -0.6135 N   0  0  0  0  0  0  0  0  0  0  0  0
   -5.6489    2.3032   -0.1622 C   0  0  0  0  0  0  0  0  0  0  0  0
   -6.6405    2.9429    0.2401 O   0  0  0  0  0  0  0  0  0  0  0  0
   -5.6927    0.9086   -0.1551 C   0  0  0  0  0  0  0  0  0  0  0  0
   -6.8226    0.2544    0.2700 C   0  0  0  0  0  0  0  0  0  0  0  0
   -6.8902   -1.1270    0.2641 C   0  0  0  0  0  0  0  0  0  0  0  0
   -5.8002   -1.8660   -0.1781 C   0  0  0  0  0  0  0  0  0  0  0  0
   -4.6602   -1.2283   -0.6059 C   0  0  0  0  0  0  0  0  0  0  0  0
   -4.6263    0.1453   -0.5863 C   0  0  0  0  0  0  0  0  0  0  0  0
   -1.7245   -0.4939    0.9013 C   0  0  0  0  0  0  0  0  0  0  0  0
   -0.7910   -0.7976    1.9025 C   0  0  0  0  0  0  0  0  0  0  0  0
    0.5460   -0.8680    1.6206 C   0  0  0  0  0  0  0  0  0  0  0  0
    1.4139   -1.1636    2.6163 F   0  0  0  0  0  0  0  0  0  0  0  0
    7.2492   -1.8473   -0.1213 H   0  0  0  0  0  0  0  0  0  0  0  0
    8.5312   -0.7610   -0.7953 H   0  0  0  0  0  0  0  0  0  0  0  0
    8.2082   -0.8150    0.9920 H   0  0  0  0  0  0  0  0  0  0  0  0
    7.9518    1.8527   -1.0146 H   0  0  0  0  0  0  0  0  0  0  0  0
    5.7482    3.1339   -1.0278 H   0  0  0  0  0  0  0  0  0  0  0  0
    4.9563   -1.9150   -0.0475 H   0  0  0  0  0  0  0  0  0  0  0  0
    5.2325   -1.3712    1.6190 H   0  0  0  0  0  0  0  0  0  0  0  0
    0.3729   -0.1570   -1.6459 H   0  0  0  0  0  0  0  0  0  0  0  0
   -2.4470   -0.7613   -2.1629 H   0  0  0  0  0  0  0  0  0  0  0  0
   -1.6998    0.8229   -2.1352 H   0  0  0  0  0  0  0  0  0  0  0  0
   -4.4907    3.9165   -0.6131 H   0  0  0  0  0  0  0  0  0  0  0  0
   -7.6462    0.8692    0.6046 H   0  0  0  0  0  0  0  0  0  0  0  0
   -7.8035   -1.6279    0.6079 H   0  0  0  0  0  0  0  0  0  0  0  0
   -5.8464   -2.9466   -0.1889 H   0  0  0  0  0  0  0  0  0  0  0  0
   -3.7832   -1.7511   -0.9600 H   0  0  0  0  0  0  0  0  0  0  0  0
   -2.7418   -0.4562    1.2478 H   0  0  0  0  0  0  0  0  0  0  0  0
   -1.1415   -0.9810    2.9328 H   0  0  0  0  0  0  0  0  0  0  0  0
  1  2  1  0  0  0  0
  1 30  1  0  0  0  0
  1 31  1  0  0  0  0
  1 32  1  0  0  0  0
  2  3  2  0  0  0  0
  3  4  1  0  0  0  0
  3 33  1  0  0  0  0
  4  5  1  0  0  0  0
  4 34  1  0  0  0  0
  5  6  2  0  0  0  0
  6  7  1  0  0  0  0
  6  2  1  0  0  0  0
  7  8  1  0  0  0  0
  7 35  1  0  0  0  0
  7 36  1  0  0  0  0
  8  9  1  0  0  0  0
  9 10  2  0  0  0  0
  9 11  1  0  0  0  0
 11 12  2  0  0  0  0
 12 13  1  0  0  0  0
 12 37  1  0  0  0  0
 13 14  1  0  0  0  0
 13 26  2  0  0  0  0
 14 15  1  0  0  0  0
 14 38  1  0  0  0  0
 14 39  1  0  0  0  0
 15 16  2  0  0  0  0
 16 17  1  0  0  0  0
 17 18  1  0  0  0  0
 17 40  1  0  0  0  0
 18 19  2  0  0  0  0
 18 20  1  0  0  0  0
 20 21  2  0  0  0  0
 21 22  1  0  0  0  0
 21 41  1  0  0  0  0
 22 23  2  0  0  0  0
 22 42  1  0  0  0  0
 23 24  1  0  0  0  0
 23 43  1  0  0  0  0
 24 25  2  0  0  0  0
 24 44  1  0  0  0  0
 25 15  1  0  0  0  0
 25 20  1  0  0  0  0
 26 27  1  0  0  0  0
 26 45  1  0  0  0  0
 27 28  2  0  0  0  0
 27 46  1  0  0  0  0
 28 29  1  0  0  0  0
 28 11  1  0  0  0  0
M  END
$$$$
