
 OpenBabel05232313393D

 32 33  0  0  0  0  0  0  0  0999 V2000
   -3.4385   -1.6867    1.2187 N   0  0  0  0  0  0  0  0  0  0  0  0
   -2.7532   -0.1220    1.4176 S   0  0  0  0  0  0  0  0  0  0  0  0
   -3.7554    0.8585    1.9438 O   0  0  0  0  0  0  0  0  0  0  0  0
   -1.6167   -0.1658    2.4295 O   0  0  0  0  0  0  0  0  0  0  0  0
   -2.1535    0.5189   -0.1163 C   0  0  0  0  0  0  0  0  0  0  0  0
   -2.6532    1.6716   -0.6569 C   0  0  0  0  0  0  0  0  0  0  0  0
   -2.1784    2.1423   -1.8387 C   0  0  0  0  0  0  0  0  0  0  0  0
   -1.1845    1.4470   -2.4933 C   0  0  0  0  0  0  0  0  0  0  0  0
   -0.6915    0.2858   -1.9345 C   0  0  0  0  0  0  0  0  0  0  0  0
   -1.1465   -0.2242   -0.7370 C   0  0  0  0  0  0  0  0  0  0  0  0
   -0.6359   -1.4227   -0.1914 N   0  0  0  0  0  0  0  0  0  0  0  0
    0.9923   -1.8950   -0.2836 S   0  0  0  0  0  0  0  0  0  0  0  0
    1.2175   -3.2643    0.3213 O   0  0  0  0  0  0  0  0  0  0  0  0
    1.4662   -2.0183   -1.7233 O   0  0  0  0  0  0  0  0  0  0  0  0
    2.0986   -0.8103    0.5084 C   0  0  0  0  0  0  0  0  0  0  0  0
    2.6996    0.1878   -0.2083 C   0  0  0  0  0  0  0  0  0  0  0  0
    2.4740    0.3478   -1.5251 F   0  0  0  0  0  0  0  0  0  0  0  0
    3.5928    1.1018    0.3665 C   0  0  0  0  0  0  0  0  0  0  0  0
    4.1697    2.0770   -0.3691 F   0  0  0  0  0  0  0  0  0  0  0  0
    3.8431    0.9460    1.7124 C   0  0  0  0  0  0  0  0  0  0  0  0
    4.7057    1.8203    2.2919 F   0  0  0  0  0  0  0  0  0  0  0  0
    3.2596   -0.0418    2.4607 C   0  0  0  0  0  0  0  0  0  0  0  0
    3.5498   -0.1352    3.7693 F   0  0  0  0  0  0  0  0  0  0  0  0
    2.3910   -0.9146    1.8564 C   0  0  0  0  0  0  0  0  0  0  0  0
    1.7886   -1.9076    2.5514 F   0  0  0  0  0  0  0  0  0  0  0  0
   -3.6796   -1.7782    0.1915 H   0  0  0  0  0  0  0  0  0  0  0  0
   -4.3019   -1.7986    1.8074 H   0  0  0  0  0  0  0  0  0  0  0  0
   -3.4430    2.1866   -0.0965 H   0  0  0  0  0  0  0  0  0  0  0  0
   -2.5783    3.0557   -2.2611 H   0  0  0  0  0  0  0  0  0  0  0  0
   -0.8085    1.8391   -3.4503 H   0  0  0  0  0  0  0  0  0  0  0  0
    0.0683   -0.2402   -2.4614 H   0  0  0  0  0  0  0  0  0  0  0  0
   -1.2982   -2.0608    0.2991 H   0  0  0  0  0  0  0  0  0  0  0  0
  1  2  1  0  0  0  0
  1 26  1  0  0  0  0
  1 27  1  0  0  0  0
  2  3  2  0  0  0  0
  2  4  2  0  0  0  0
  2  5  1  0  0  0  0
  5  6  2  0  0  0  0
  6  7  1  0  0  0  0
  6 28  1  0  0  0  0
  7  8  2  0  0  0  0
  7 29  1  0  0  0  0
  8  9  1  0  0  0  0
  8 30  1  0  0  0  0
  9 10  2  0  0  0  0
  9 31  1  0  0  0  0
 10 11  1  0  0  0  0
 10  5  1  0  0  0  0
 11 12  1  0  0  0  0
 11 32  1  0  0  0  0
 12 13  2  0  0  0  0
 12 14  2  0  0  0  0
 12 15  1  0  0  0  0
 15 16  2  0  0  0  0
 16 17  1  0  0  0  0
 16 18  1  0  0  0  0
 18 19  1  0  0  0  0
 18 20  2  0  0  0  0
 20 21  1  0  0  0  0
 20 22  1  0  0  0  0
 22 23  1  0  0  0  0
 22 24  2  0  0  0  0
 24 25  1  0  0  0  0
 24 15  1  0  0  0  0
M  END
$$$$
