
 OpenBabel05232313393D

 37 39  0  0  0  0  0  0  0  0999 V2000
   -0.2161    0.4645    0.0228 O   0  0  0  0  0  0  0  0  0  0  0  0
   -0.2340   -0.4035   -0.8823 C   0  0  0  0  0  0  0  0  0  0  0  0
    0.8792   -1.3689   -0.9523 C   0  0  0  0  0  0  0  0  0  0  0  0
    1.8971   -1.1513    0.1033 C   0  0  0  0  0  0  0  0  0  0  0  0
    1.9505   -1.9679    1.1718 N   0  0  0  0  0  0  0  0  0  0  0  0
    2.8548   -1.8022    2.1391 N   0  0  0  0  0  0  0  0  0  0  0  0
    3.7734   -0.8214    2.1276 C   0  0  0  0  0  0  0  0  0  0  0  0
    4.6226   -0.6761    3.0489 O   0  0  0  0  0  0  0  0  0  0  0  0
    3.7709    0.0494    1.0586 C   0  0  0  0  0  0  0  0  0  0  0  0
    4.6912    1.0771    0.9923 C   0  0  0  0  0  0  0  0  0  0  0  0
    4.6666    1.9360   -0.0904 C   0  0  0  0  0  0  0  0  0  0  0  0
    3.7161    1.7344   -1.0739 C   0  0  0  0  0  0  0  0  0  0  0  0
    2.7909    0.7091   -1.0166 C   0  0  0  0  0  0  0  0  0  0  0  0
    2.8168   -0.1342    0.0487 C   0  0  0  0  0  0  0  0  0  0  0  0
   -1.2999   -0.4526   -1.8140 N   0  0  0  0  0  0  0  0  0  0  0  0
   -2.3615    0.4926   -1.7245 C   0  0  0  0  0  0  0  0  0  0  0  0
   -3.3302    0.2488   -0.6564 C   0  0  0  0  0  0  0  0  0  0  0  0
   -4.4245    1.1018   -0.5929 C   0  0  0  0  0  0  0  0  0  0  0  0
   -5.4070    0.9851    0.3584 C   0  0  0  0  0  0  0  0  0  0  0  0
   -5.3282   -0.0011    1.2909 C   0  0  0  0  0  0  0  0  0  0  0  0
   -4.2415   -0.8674    1.2473 C   0  0  0  0  0  0  0  0  0  0  0  0
   -4.1391   -2.1416    2.4525 Cl  0  0  0  0  0  0  0  0  0  0  0  0
   -3.2582   -0.7435    0.2879 C   0  0  0  0  0  0  0  0  0  0  0  0
    0.4348   -2.3909   -0.8688 H   0  0  0  0  0  0  0  0  0  0  0  0
    1.3538   -1.3641   -1.9767 H   0  0  0  0  0  0  0  0  0  0  0  0
    2.8646   -2.4551    2.9511 H   0  0  0  0  0  0  0  0  0  0  0  0
    5.4400    1.2472    1.7516 H   0  0  0  0  0  0  0  0  0  0  0  0
    5.3941    2.7519   -0.1474 H   0  0  0  0  0  0  0  0  0  0  0  0
    3.7074    2.4236   -1.9285 H   0  0  0  0  0  0  0  0  0  0  0  0
    2.0718    0.5893   -1.7998 H   0  0  0  0  0  0  0  0  0  0  0  0
   -1.3154   -1.1817   -2.5729 H   0  0  0  0  0  0  0  0  0  0  0  0
   -2.9315    0.5073   -2.6907 H   0  0  0  0  0  0  0  0  0  0  0  0
   -1.8993    1.5154   -1.6085 H   0  0  0  0  0  0  0  0  0  0  0  0
   -4.5338    1.9016   -1.3103 H   0  0  0  0  0  0  0  0  0  0  0  0
   -6.2478    1.6857    0.3611 H   0  0  0  0  0  0  0  0  0  0  0  0
   -6.1062   -0.0870    2.0381 H   0  0  0  0  0  0  0  0  0  0  0  0
   -2.4226   -1.4101    0.2551 H   0  0  0  0  0  0  0  0  0  0  0  0
  1  2  2  0  0  0  0
  2  3  1  0  0  0  0
  2 15  1  0  0  0  0
  3  4  1  0  0  0  0
  3 24  1  0  0  0  0
  3 25  1  0  0  0  0
  4  5  2  0  0  0  0
  5  6  1  0  0  0  0
  6  7  1  0  0  0  0
  6 26  1  0  0  0  0
  7  8  2  0  0  0  0
  7  9  1  0  0  0  0
  9 10  2  0  0  0  0
 10 11  1  0  0  0  0
 10 27  1  0  0  0  0
 11 12  2  0  0  0  0
 11 28  1  0  0  0  0
 12 13  1  0  0  0  0
 12 29  1  0  0  0  0
 13 14  2  0  0  0  0
 13 30  1  0  0  0  0
 14  4  1  0  0  0  0
 14  9  1  0  0  0  0
 15 16  1  0  0  0  0
 15 31  1  0  0  0  0
 16 17  1  0  0  0  0
 16 32  1  0  0  0  0
 16 33  1  0  0  0  0
 17 18  2  0  0  0  0
 18 19  1  0  0  0  0
 18 34  1  0  0  0  0
 19 20  2  0  0  0  0
 19 35  1  0  0  0  0
 20 21  1  0  0  0  0
 20 36  1  0  0  0  0
 21 22  1  0  0  0  0
 21 23  2  0  0  0  0
 23 17  1  0  0  0  0
 23 37  1  0  0  0  0
M  END
$$$$
