@<TRIPOS>MOLECULE
../data/bude_mols_rdkit_confs/molecule_38.pdb
 40 43 0 0 0
SMALL
GASTEIGER

@<TRIPOS>ATOM
      1  O1         0.8860   -2.7900   -0.5280 O.2     1  UNL1       -0.2702
      2  C1         1.2050   -1.6260   -0.0920 C.2     1  UNL1        0.2450
      3  N1         0.1380   -0.7220    0.0690 N.am    1  UNL1       -0.3057
      4  C2        -1.2460   -1.0460   -0.2520 C.3     1  UNL1        0.0565
      5  C3        -2.1200    0.0930    0.0100 C.ar    1  UNL1        0.0863
      6  N2        -1.5940    1.2520    0.4740 N.ar    1  UNL1       -0.1737
      7  N3        -2.3680    2.3050    0.7190 N.ar    1  UNL1       -0.2424
      8  C4        -3.6930    2.2790    0.5230 C.ar    1  UNL1        0.2725
      9  O2        -4.4270    3.2740    0.7540 O.2     1  UNL1       -0.2658
     10  C5        -4.2530    1.1150    0.0520 C.ar    1  UNL1        0.0496
     11  C6        -5.5930    1.0440   -0.1600 C.ar    1  UNL1       -0.0487
     12  C7        -6.1730   -0.1240   -0.6330 C.ar    1  UNL1       -0.0610
     13  C8        -5.3520   -1.2220   -0.8850 C.ar    1  UNL1       -0.0611
     14  C9        -3.9920   -1.1710   -0.6770 C.ar    1  UNL1       -0.0520
     15  C10       -3.4630    0.0130   -0.2050 C.ar    1  UNL1        0.0118
     16  C11        2.6070   -1.3880    0.1900 C.ar    1  UNL1        0.0444
     17  C12        3.3050   -2.3580    0.9370 C.ar    1  UNL1       -0.0490
     18  C13        4.5940   -2.1190    1.3150 C.ar    1  UNL1       -0.0605
     19  C14        5.2250   -0.9480    0.9760 C.ar    1  UNL1       -0.0540
     20  C15        4.5750    0.0430    0.2350 C.ar    1  UNL1       -0.0172
     21  C16        5.2480    1.2000   -0.1020 C.ar    1  UNL1       -0.0540
     22  C17        4.5670    2.1300   -0.8540 C.ar    1  UNL1       -0.0612
     23  C18        3.2680    1.9060   -1.2510 C.ar    1  UNL1       -0.0611
     24  C19        2.6070    0.7450   -0.9070 C.ar    1  UNL1       -0.0533
     25  C20        3.2520   -0.2140   -0.1480 C.ar    1  UNL1       -0.0058
     26 H           0.3374    0.1771    0.4170 H       1  UNL1        0.1494
     27 H          -1.5604   -1.8744    0.3478 H       1  UNL1        0.0528
     28 H          -1.3078   -1.2933   -1.2912 H       1  UNL1        0.0528
     29 H          -1.9533    3.1319    1.0559 H       1  UNL1        0.1921
     30 H          -6.1852    1.8669    0.0327 H       1  UNL1        0.0625
     31 H          -7.1907   -0.1789   -0.7949 H       1  UNL1        0.0618
     32 H          -5.7745   -2.0955   -1.2365 H       1  UNL1        0.0618
     33 H          -3.3905   -1.9878   -0.8670 H       1  UNL1        0.0624
     34 H           2.8438   -3.2440    1.1966 H       1  UNL1        0.0625
     35 H           5.1024   -2.8295    1.8642 H       1  UNL1        0.0618
     36 H           6.2010   -0.7960    1.2749 H       1  UNL1        0.0624
     37 H           6.2223    1.3612    0.1977 H       1  UNL1        0.0624
     38 H           5.0370    3.0081   -1.1242 H       1  UNL1        0.0618
     39 H           2.7803    2.6189   -1.8157 H       1  UNL1        0.0618
     40 H           1.6340    0.5927   -1.2153 H       1  UNL1        0.0624
@<TRIPOS>BOND
     1     1     2    2
     2     2     3   am
     3     2    16    1
     4     3     4    1
     5     4     5    1
     6     5     6   ar
     7     5    15   ar
     8     6     7   ar
     9     7     8   ar
    10     8     9    2
    11     8    10   ar
    12    10    11   ar
    13    10    15   ar
    14    11    12   ar
    15    12    13   ar
    16    13    14   ar
    17    14    15   ar
    18    16    17   ar
    19    16    25   ar
    20    17    18   ar
    21    18    19   ar
    22    19    20   ar
    23    20    21   ar
    24    20    25   ar
    25    21    22   ar
    26    22    23   ar
    27    23    24   ar
    28    24    25   ar
    29     3    26    1
    30     4    27    1
    31     4    28    1
    32     7    29    1
    33    11    30    1
    34    12    31    1
    35    13    32    1
    36    14    33    1
    37    17    34    1
    38    18    35    1
    39    19    36    1
    40    21    37    1
    41    22    38    1
    42    23    39    1
    43    24    40    1
@<TRIPOS>MOLECULE
../data/bude_mols_rdkit_confs/molecule_38.pdb
 40 43 0 0 0
SMALL
GASTEIGER

@<TRIPOS>ATOM
      1  O1        -1.2560    0.7970   -1.7260 O.2     1  UNL1       -0.2702
      2  C1        -1.2610   -0.0040   -0.7620 C.2     1  UNL1        0.2450
      3  N1        -0.0270   -0.3300   -0.1520 N.am    1  UNL1       -0.3057
      4  C2         1.2370    0.2280   -0.6040 C.3     1  UNL1        0.0565
      5  C3         2.3600   -0.2940    0.2080 C.ar    1  UNL1        0.0863
      6  N2         2.2350   -1.1540    1.2240 N.ar    1  UNL1       -0.1737
      7  N3         3.2940   -1.5800    1.9150 N.ar    1  UNL1       -0.2424
      8  C4         4.5430   -1.1760    1.6350 C.ar    1  UNL1        0.2725
      9  O2         5.5550   -1.5860    2.2990 O.2     1  UNL1       -0.2658
     10  C5         4.7620   -0.2870    0.6000 C.ar    1  UNL1        0.0496
     11  C6         6.0180    0.1630    0.2640 C.ar    1  UNL1       -0.0487
     12  C7         6.1900    1.0500   -0.7780 C.ar    1  UNL1       -0.0610
     13  C8         5.0800    1.4880   -1.4900 C.ar    1  UNL1       -0.0611
     14  C9         3.8360    1.0270   -1.1400 C.ar    1  UNL1       -0.0520
     15  C10        3.6330    0.1340   -0.0970 C.ar    1  UNL1        0.0118
     16  C11       -2.5080   -0.5750   -0.2990 C.ar    1  UNL1        0.0444
     17  C12       -2.6560   -1.9560   -0.1840 C.ar    1  UNL1       -0.0490
     18  C13       -3.8110   -2.5690    0.2420 C.ar    1  UNL1       -0.0605
     19  C14       -4.8810   -1.7310    0.5700 C.ar    1  UNL1       -0.0540
     20  C15       -4.7840   -0.3710    0.4730 C.ar    1  UNL1       -0.0172
     21  C16       -5.8510    0.4180    0.8050 C.ar    1  UNL1       -0.0540
     22  C17       -5.7890    1.8040    0.7210 C.ar    1  UNL1       -0.0612
     23  C18       -4.6250    2.3940    0.2950 C.ar    1  UNL1       -0.0611
     24  C19       -3.5420    1.5820   -0.0410 C.ar    1  UNL1       -0.0533
     25  C20       -3.5970    0.1960    0.0390 C.ar    1  UNL1       -0.0058
     26 H          -0.0241   -0.9577    0.6064 H       1  UNL1        0.1494
     27 H           1.2032    1.2936   -0.5127 H       1  UNL1        0.0528
     28 H           1.3913   -0.0525   -1.6250 H       1  UNL1        0.0528
     29 H           3.1544   -2.2128    2.6562 H       1  UNL1        0.1921
     30 H           6.8386   -0.1661    0.7963 H       1  UNL1        0.0625
     31 H           7.1339    1.3852   -1.0265 H       1  UNL1        0.0618
     32 H           5.1900    2.1519   -2.2724 H       1  UNL1        0.0618
     33 H           3.0174    1.3579   -1.6743 H       1  UNL1        0.0624
     34 H          -1.8521   -2.5533   -0.4330 H       1  UNL1        0.0625
     35 H          -3.8842   -3.5957    0.3158 H       1  UNL1        0.0618
     36 H          -5.7668   -2.1500    0.8937 H       1  UNL1        0.0624
     37 H          -6.7247   -0.0274    1.1262 H       1  UNL1        0.0624
     38 H          -6.6060    2.3810    0.9751 H       1  UNL1        0.0618
     39 H          -4.5525    3.4210    0.2246 H       1  UNL1        0.0618
     40 H          -2.6675    2.0270   -0.3608 H       1  UNL1        0.0624
@<TRIPOS>BOND
     1     1     2    2
     2     2     3   am
     3     2    16    1
     4     3     4    1
     5     4     5    1
     6     5     6   ar
     7     5    15   ar
     8     6     7   ar
     9     7     8   ar
    10     8     9    2
    11     8    10   ar
    12    10    11   ar
    13    10    15   ar
    14    11    12   ar
    15    12    13   ar
    16    13    14   ar
    17    14    15   ar
    18    16    17   ar
    19    16    25   ar
    20    17    18   ar
    21    18    19   ar
    22    19    20   ar
    23    20    21   ar
    24    20    25   ar
    25    21    22   ar
    26    22    23   ar
    27    23    24   ar
    28    24    25   ar
    29     3    26    1
    30     4    27    1
    31     4    28    1
    32     7    29    1
    33    11    30    1
    34    12    31    1
    35    13    32    1
    36    14    33    1
    37    17    34    1
    38    18    35    1
    39    19    36    1
    40    21    37    1
    41    22    38    1
    42    23    39    1
    43    24    40    1
@<TRIPOS>MOLECULE
../data/bude_mols_rdkit_confs/molecule_38.pdb
 40 43 0 0 0
SMALL
GASTEIGER

@<TRIPOS>ATOM
      1  O1        -1.1230   -2.0240   -1.8010 O.2     1  UNL1       -0.2702
      2  C1        -1.2930   -1.3340   -0.7370 C.2     1  UNL1        0.2450
      3  N1        -0.1770   -0.6670   -0.2040 N.am    1  UNL1       -0.3057
      4  C2         1.1020   -0.7400   -0.8640 C.3     1  UNL1        0.0565
      5  C3         2.1260    0.0140   -0.1180 C.ar    1  UNL1        0.0863
      6  N2         1.7830    0.6010    1.0390 N.ar    1  UNL1       -0.1737
      7  N3         2.6670    1.2780    1.7590 N.ar    1  UNL1       -0.2424
      8  C4         3.9400    1.3990    1.3560 C.ar    1  UNL1        0.2725
      9  O2         4.7620    2.0480    2.0620 O.2     1  UNL1       -0.2658
     10  C5         4.3500    0.8180    0.1770 C.ar    1  UNL1        0.0496
     11  C6         5.6470    0.9140   -0.3000 C.ar    1  UNL1       -0.0487
     12  C7         5.9610    0.3070   -1.4970 C.ar    1  UNL1       -0.0610
     13  C8         5.0280   -0.3900   -2.2290 C.ar    1  UNL1       -0.0611
     14  C9         3.7480   -0.4870   -1.7610 C.ar    1  UNL1       -0.0520
     15  C10        3.4310    0.1180   -0.5670 C.ar    1  UNL1        0.0118
     16  C11       -2.6350   -1.3320   -0.2030 C.ar    1  UNL1        0.0444
     17  C12       -3.3270   -2.5300   -0.0020 C.ar    1  UNL1       -0.0490
     18  C13       -4.5590   -2.5270    0.6040 C.ar    1  UNL1       -0.0605
     19  C14       -5.1260   -1.3520    1.0170 C.ar    1  UNL1       -0.0540
     20  C15       -4.4740   -0.1760    0.8300 C.ar    1  UNL1       -0.0172
     21  C16       -5.0770    0.9920    1.2290 C.ar    1  UNL1       -0.0540
     22  C17       -4.4310    2.1870    1.0140 C.ar    1  UNL1       -0.0612
     23  C18       -3.2030    2.2610    0.4130 C.ar    1  UNL1       -0.0611
     24  C19       -2.6110    1.0640    0.0180 C.ar    1  UNL1       -0.0533
     25  C20       -3.2200   -0.1520    0.2160 C.ar    1  UNL1       -0.0058
     26 H          -0.2695   -0.1461    0.6263 H       1  UNL1        0.1494
     27 H           1.0120   -0.3286   -1.8476 H       1  UNL1        0.0528
     28 H           1.4022   -1.7659   -0.9124 H       1  UNL1        0.0528
     29 H           2.3841    1.6985    2.6030 H       1  UNL1        0.1921
     30 H           6.3652    1.4307    0.2313 H       1  UNL1        0.0625
     31 H           6.9262    0.3777   -1.8552 H       1  UNL1        0.0618
     32 H           5.2920   -0.8348   -3.1220 H       1  UNL1        0.0618
     33 H           3.0318   -1.0049   -2.2938 H       1  UNL1        0.0624
     34 H          -2.9094   -3.4217   -0.3109 H       1  UNL1        0.0625
     35 H          -5.0609   -3.4170    0.7490 H       1  UNL1        0.0618
     36 H          -6.0522   -1.3599    1.4721 H       1  UNL1        0.0624
     37 H          -6.0029    0.9730    1.6843 H       1  UNL1        0.0624
     38 H          -4.8891    3.0607    1.3170 H       1  UNL1        0.0618
     39 H          -2.7348    3.1677    0.2589 H       1  UNL1        0.0618
     40 H          -1.6856    1.0909   -0.4379 H       1  UNL1        0.0624
@<TRIPOS>BOND
     1     1     2    2
     2     2     3   am
     3     2    16    1
     4     3     4    1
     5     4     5    1
     6     5     6   ar
     7     5    15   ar
     8     6     7   ar
     9     7     8   ar
    10     8     9    2
    11     8    10   ar
    12    10    11   ar
    13    10    15   ar
    14    11    12   ar
    15    12    13   ar
    16    13    14   ar
    17    14    15   ar
    18    16    17   ar
    19    16    25   ar
    20    17    18   ar
    21    18    19   ar
    22    19    20   ar
    23    20    21   ar
    24    20    25   ar
    25    21    22   ar
    26    22    23   ar
    27    23    24   ar
    28    24    25   ar
    29     3    26    1
    30     4    27    1
    31     4    28    1
    32     7    29    1
    33    11    30    1
    34    12    31    1
    35    13    32    1
    36    14    33    1
    37    17    34    1
    38    18    35    1
    39    19    36    1
    40    21    37    1
    41    22    38    1
    42    23    39    1
    43    24    40    1
@<TRIPOS>MOLECULE
../data/bude_mols_rdkit_confs/molecule_38.pdb
 40 43 0 0 0
SMALL
GASTEIGER

@<TRIPOS>ATOM
      1  O1        -0.4220    1.0270   -0.0330 O.2     1  UNL1       -0.2702
      2  C1        -0.8720   -0.1160   -0.2510 C.2     1  UNL1        0.2450
      3  N1        -0.0400   -1.0890   -0.8760 N.am    1  UNL1       -0.3057
      4  C2         1.3150   -0.8410   -1.2820 C.3     1  UNL1        0.0565
      5  C3         2.1620   -0.4060   -0.1290 C.ar    1  UNL1        0.0863
      6  N2         1.6520   -0.2620    1.1030 N.ar    1  UNL1       -0.1737
      7  N3         2.3820    0.1320    2.1320 N.ar    1  UNL1       -0.2424
      8  C4         3.6810    0.3980    1.9330 C.ar    1  UNL1        0.2725
      9  O2         4.4120    0.7800    2.8990 O.2     1  UNL1       -0.2658
     10  C5         4.2690    0.2710    0.6870 C.ar    1  UNL1        0.0496
     11  C6         5.5980    0.5450    0.4900 C.ar    1  UNL1       -0.0487
     12  C7         6.1320    0.4040   -0.7640 C.ar    1  UNL1       -0.0610
     13  C8         5.4040   -0.0040   -1.8540 C.ar    1  UNL1       -0.0611
     14  C9         4.0600   -0.2750   -1.6240 C.ar    1  UNL1       -0.0520
     15  C10        3.4800   -0.1430   -0.3670 C.ar    1  UNL1        0.0118
     16  C11       -2.2510   -0.4410    0.1440 C.ar    1  UNL1        0.0444
     17  C12       -2.4890   -1.5530    0.9580 C.ar    1  UNL1       -0.0490
     18  C13       -3.7430   -1.9140    1.3710 C.ar    1  UNL1       -0.0605
     19  C14       -4.8100   -1.1430    0.9640 C.ar    1  UNL1       -0.0540
     20  C15       -4.6370   -0.0510    0.1720 C.ar    1  UNL1       -0.0172
     21  C16       -5.7340    0.6900   -0.2070 C.ar    1  UNL1       -0.0540
     22  C17       -5.5000    1.7860   -1.0060 C.ar    1  UNL1       -0.0612
     23  C18       -4.2470    2.1390   -1.4140 C.ar    1  UNL1       -0.0611
     24  C19       -3.1500    1.3920   -1.0310 C.ar    1  UNL1       -0.0533
     25  C20       -3.3510    0.2930   -0.2340 C.ar    1  UNL1       -0.0058
     26 H          -0.4161   -1.9841   -1.0392 H       1  UNL1        0.1494
     27 H           1.3197   -0.0723   -2.0263 H       1  UNL1        0.0528
     28 H           1.7205   -1.7513   -1.6717 H       1  UNL1        0.0528
     29 H           1.9804    0.2281    3.0257 H       1  UNL1        0.1921
     30 H           6.1894    0.8539    1.2773 H       1  UNL1        0.0625
     31 H           7.1334    0.6155   -0.8959 H       1  UNL1        0.0618
     32 H           5.8293   -0.1037   -2.7890 H       1  UNL1        0.0618
     33 H           3.4722   -0.5849   -2.4136 H       1  UNL1        0.0624
     34 H          -1.6852   -2.1255    1.2600 H       1  UNL1        0.0625
     35 H          -3.8855   -2.7414    1.9711 H       1  UNL1        0.0618
     36 H          -5.7624   -1.4001    1.2671 H       1  UNL1        0.0624
     37 H          -6.6877    0.4353    0.0942 H       1  UNL1        0.0624
     38 H          -6.3017    2.3618   -1.3074 H       1  UNL1        0.0618
     39 H          -4.1178    2.9696   -2.0127 H       1  UNL1        0.0618
     40 H          -2.2002    1.6546   -1.3375 H       1  UNL1        0.0624
@<TRIPOS>BOND
     1     1     2    2
     2     2     3   am
     3     2    16    1
     4     3     4    1
     5     4     5    1
     6     5     6   ar
     7     5    15   ar
     8     6     7   ar
     9     7     8   ar
    10     8     9    2
    11     8    10   ar
    12    10    11   ar
    13    10    15   ar
    14    11    12   ar
    15    12    13   ar
    16    13    14   ar
    17    14    15   ar
    18    16    17   ar
    19    16    25   ar
    20    17    18   ar
    21    18    19   ar
    22    19    20   ar
    23    20    21   ar
    24    20    25   ar
    25    21    22   ar
    26    22    23   ar
    27    23    24   ar
    28    24    25   ar
    29     3    26    1
    30     4    27    1
    31     4    28    1
    32     7    29    1
    33    11    30    1
    34    12    31    1
    35    13    32    1
    36    14    33    1
    37    17    34    1
    38    18    35    1
    39    19    36    1
    40    21    37    1
    41    22    38    1
    42    23    39    1
    43    24    40    1
@<TRIPOS>MOLECULE
../data/bude_mols_rdkit_confs/molecule_38.pdb
 40 43 0 0 0
SMALL
GASTEIGER

@<TRIPOS>ATOM
      1  O1         0.3270   -0.1350    1.3350 O.2     1  UNL1       -0.2702
      2  C1         0.9040   -0.9030    0.5220 C.2     1  UNL1        0.2450
      3  N1         0.0390   -1.8180   -0.1780 N.am    1  UNL1       -0.3057
      4  C2        -1.3930   -1.8000    0.0850 C.3     1  UNL1        0.0565
      5  C3        -2.0030   -0.4940   -0.2600 C.ar    1  UNL1        0.0863
      6  N2        -1.2360    0.4750   -0.7640 N.ar    1  UNL1       -0.1737
      7  N3        -1.7670    1.6520   -1.0870 N.ar    1  UNL1       -0.2424
      8  C4        -3.0850    1.8430   -0.8940 C.ar    1  UNL1        0.2725
      9  O2        -3.6270    2.9420   -1.1860 O.2     1  UNL1       -0.2658
     10  C5        -3.9160    0.8710   -0.3760 C.ar    1  UNL1        0.0496
     11  C6        -5.2630    1.0600   -0.1740 C.ar    1  UNL1       -0.0487
     12  C7        -6.0240    0.0420    0.3500 C.ar    1  UNL1       -0.0610
     13  C8        -5.4390   -1.1710    0.6740 C.ar    1  UNL1       -0.0611
     14  C9        -4.1080   -1.3810    0.4820 C.ar    1  UNL1       -0.0520
     15  C10       -3.3580   -0.3440   -0.0460 C.ar    1  UNL1        0.0118
     16  C11        2.3410   -0.8830    0.2910 C.ar    1  UNL1        0.0444
     17  C12        3.0670   -2.0770    0.3460 C.ar    1  UNL1       -0.0490
     18  C13        4.4300   -2.1120    0.1420 C.ar    1  UNL1       -0.0605
     19  C14        5.1100   -0.9400   -0.1250 C.ar    1  UNL1       -0.0540
     20  C15        4.4280    0.2630   -0.1880 C.ar    1  UNL1       -0.0172
     21  C16        5.1260    1.4210   -0.4570 C.ar    1  UNL1       -0.0540
     22  C17        4.4910    2.6390   -0.5290 C.ar    1  UNL1       -0.0612
     23  C18        3.1290    2.6460   -0.3220 C.ar    1  UNL1       -0.0611
     24  C19        2.4090    1.4790   -0.0500 C.ar    1  UNL1       -0.0533
     25  C20        3.0500    0.2590    0.0230 C.ar    1  UNL1       -0.0058
     26 H           0.4142   -2.4522   -0.8309 H       1  UNL1        0.1494
     27 H          -1.5560   -1.9939    1.1246 H       1  UNL1        0.0528
     28 H          -1.8511   -2.5508   -0.5245 H       1  UNL1        0.0528
     29 H          -1.2058    2.3696   -1.4602 H       1  UNL1        0.1921
     30 H          -5.7011    1.9628   -0.4149 H       1  UNL1        0.0625
     31 H          -7.0350    0.1821    0.5025 H       1  UNL1        0.0618
     32 H          -6.0212   -1.9271    1.0670 H       1  UNL1        0.0618
     33 H          -3.6716   -2.2848    0.7224 H       1  UNL1        0.0624
     34 H           2.5677   -2.9579    0.5452 H       1  UNL1        0.0625
     35 H           4.9391   -3.0085    0.1885 H       1  UNL1        0.0618
     36 H           6.1304   -0.9611   -0.2781 H       1  UNL1        0.0624
     37 H           6.1458    1.3730   -0.6074 H       1  UNL1        0.0624
     38 H           5.0110    3.5077   -0.7289 H       1  UNL1        0.0618
     39 H           2.6226    3.5440   -0.3694 H       1  UNL1        0.0618
     40 H           1.3889    1.5303    0.0975 H       1  UNL1        0.0624
@<TRIPOS>BOND
     1     1     2    2
     2     2     3   am
     3     2    16    1
     4     3     4    1
     5     4     5    1
     6     5     6   ar
     7     5    15   ar
     8     6     7   ar
     9     7     8   ar
    10     8     9    2
    11     8    10   ar
    12    10    11   ar
    13    10    15   ar
    14    11    12   ar
    15    12    13   ar
    16    13    14   ar
    17    14    15   ar
    18    16    17   ar
    19    16    25   ar
    20    17    18   ar
    21    18    19   ar
    22    19    20   ar
    23    20    21   ar
    24    20    25   ar
    25    21    22   ar
    26    22    23   ar
    27    23    24   ar
    28    24    25   ar
    29     3    26    1
    30     4    27    1
    31     4    28    1
    32     7    29    1
    33    11    30    1
    34    12    31    1
    35    13    32    1
    36    14    33    1
    37    17    34    1
    38    18    35    1
    39    19    36    1
    40    21    37    1
    41    22    38    1
    42    23    39    1
    43    24    40    1
@<TRIPOS>MOLECULE
../data/bude_mols_rdkit_confs/molecule_38.pdb
 40 43 0 0 0
SMALL
GASTEIGER

@<TRIPOS>ATOM
      1  O1        -0.1260   -0.5960   -1.1390 O.2     1  UNL1       -0.2702
      2  C1        -0.7650   -0.1470   -0.1270 C.2     1  UNL1        0.2450
      3  N1        -0.2790    0.9560    0.5980 N.am    1  UNL1       -0.3057
      4  C2         0.9760    1.6050    0.1860 C.3     1  UNL1        0.0565
      5  C3         2.0030    0.4830    0.1710 C.ar    1  UNL1        0.0863
      6  N2         1.6920   -0.7750    0.5070 N.ar    1  UNL1       -0.1737
      7  N3         2.5520   -1.7900    0.4640 N.ar    1  UNL1       -0.2424
      8  C4         3.8340   -1.5700    0.0570 C.ar    1  UNL1        0.2725
      9  O2         4.6590   -2.4990    0.0020 O.2     1  UNL1       -0.2658
     10  C5         4.2420   -0.3030   -0.3060 C.ar    1  UNL1        0.0496
     11  C6         5.5450   -0.0660   -0.7410 C.ar    1  UNL1       -0.0487
     12  C7         5.9450    1.1910   -1.1200 C.ar    1  UNL1       -0.0610
     13  C8         5.0030    2.1940   -1.0490 C.ar    1  UNL1       -0.0611
     14  C9         3.7170    1.9840   -0.6250 C.ar    1  UNL1       -0.0520
     15  C10        3.2940    0.7220   -0.2390 C.ar    1  UNL1        0.0118
     16  C11       -1.9820   -0.8390    0.2160 C.ar    1  UNL1        0.0444
     17  C12       -1.9210   -2.1750    0.6470 C.ar    1  UNL1       -0.0490
     18  C13       -3.0430   -2.8800    1.0030 C.ar    1  UNL1       -0.0605
     19  C14       -4.2780   -2.2610    0.9370 C.ar    1  UNL1       -0.0540
     20  C15       -4.3650   -0.9590    0.5190 C.ar    1  UNL1       -0.0172
     21  C16       -5.6280   -0.3760    0.4400 C.ar    1  UNL1       -0.0540
     22  C17       -5.7110    0.9200   -0.0050 C.ar    1  UNL1       -0.0612
     23  C18       -4.5660    1.6010   -0.3530 C.ar    1  UNL1       -0.0611
     24  C19       -3.3060    1.0570   -0.2860 C.ar    1  UNL1       -0.0533
     25  C20       -3.2300   -0.2650    0.1660 C.ar    1  UNL1       -0.0058
     26 H          -0.7764    1.2926    1.3781 H       1  UNL1        0.1494
     27 H           1.2562    2.3639    0.8864 H       1  UNL1        0.0528
     28 H           0.8893    2.0877   -0.7650 H       1  UNL1        0.0528
     29 H           2.2637   -2.6945    0.7247 H       1  UNL1        0.1921
     30 H           6.2186   -0.8470   -0.7786 H       1  UNL1        0.0625
     31 H           6.9073    1.3764   -1.4434 H       1  UNL1        0.0618
     32 H           5.2790    3.1484   -1.3283 H       1  UNL1        0.0618
     33 H           3.0554    2.7753   -0.5927 H       1  UNL1        0.0624
     34 H          -1.0018   -2.6414    0.6975 H       1  UNL1        0.0625
     35 H          -2.9663   -3.8603    1.3162 H       1  UNL1        0.0618
     36 H          -5.1311   -2.7779    1.2017 H       1  UNL1        0.0624
     37 H          -6.4746   -0.9020    0.7076 H       1  UNL1        0.0624
     38 H          -6.6303    1.3832   -0.0786 H       1  UNL1        0.0618
     39 H          -4.6594    2.5745   -0.6826 H       1  UNL1        0.0618
     40 H          -2.4650    1.5921   -0.5534 H       1  UNL1        0.0624
@<TRIPOS>BOND
     1     1     2    2
     2     2     3   am
     3     2    16    1
     4     3     4    1
     5     4     5    1
     6     5     6   ar
     7     5    15   ar
     8     6     7   ar
     9     7     8   ar
    10     8     9    2
    11     8    10   ar
    12    10    11   ar
    13    10    15   ar
    14    11    12   ar
    15    12    13   ar
    16    13    14   ar
    17    14    15   ar
    18    16    17   ar
    19    16    25   ar
    20    17    18   ar
    21    18    19   ar
    22    19    20   ar
    23    20    21   ar
    24    20    25   ar
    25    21    22   ar
    26    22    23   ar
    27    23    24   ar
    28    24    25   ar
    29     3    26    1
    30     4    27    1
    31     4    28    1
    32     7    29    1
    33    11    30    1
    34    12    31    1
    35    13    32    1
    36    14    33    1
    37    17    34    1
    38    18    35    1
    39    19    36    1
    40    21    37    1
    41    22    38    1
    42    23    39    1
    43    24    40    1
@<TRIPOS>MOLECULE
../data/bude_mols_rdkit_confs/molecule_38.pdb
 40 43 0 0 0
SMALL
GASTEIGER

@<TRIPOS>ATOM
      1  O1        -0.1380   -0.7330    1.7220 O.2     1  UNL1       -0.2702
      2  C1        -0.9280    0.0250    1.0550 C.2     1  UNL1        0.2450
      3  N1        -0.3180    1.1360    0.4540 N.am    1  UNL1       -0.3057
      4  C2         1.0990    1.4260    0.5370 C.3     1  UNL1        0.0565
      5  C3         1.9440    0.3630   -0.0230 C.ar    1  UNL1        0.0863
      6  N2         1.4910   -0.7800   -0.5700 N.ar    1  UNL1       -0.1737
      7  N3         2.2920   -1.7080   -1.0620 N.ar    1  UNL1       -0.2424
      8  C4         3.6300   -1.5780   -1.0530 C.ar    1  UNL1        0.2725
      9  O2         4.3680   -2.5040   -1.5420 O.2     1  UNL1       -0.2658
     10  C5         4.1750   -0.4400   -0.5130 C.ar    1  UNL1        0.0496
     11  C6         5.5440   -0.2870   -0.4940 C.ar    1  UNL1       -0.0487
     12  C7         6.0900    0.8740    0.0580 C.ar    1  UNL1       -0.0610
     13  C8         5.2530    1.8470    0.5730 C.ar    1  UNL1       -0.0611
     14  C9         3.8890    1.6580    0.5360 C.ar    1  UNL1       -0.0520
     15  C10        3.3200    0.5120   -0.0070 C.ar    1  UNL1        0.0118
     16  C11       -2.3180   -0.3730    1.0300 C.ar    1  UNL1        0.0444
     17  C12       -2.8610   -0.7850    2.2670 C.ar    1  UNL1       -0.0490
     18  C13       -4.1890   -1.0870    2.3980 C.ar    1  UNL1       -0.0605
     19  C14       -4.9800   -0.9750    1.2770 C.ar    1  UNL1       -0.0540
     20  C15       -4.4610   -0.5720    0.0530 C.ar    1  UNL1       -0.0172
     21  C16       -5.3370   -0.5130   -1.0400 C.ar    1  UNL1       -0.0540
     22  C17       -4.8250   -0.1450   -2.2620 C.ar    1  UNL1       -0.0612
     23  C18       -3.4870    0.1510   -2.3800 C.ar    1  UNL1       -0.0611
     24  C19       -2.6230    0.0880   -1.2780 C.ar    1  UNL1       -0.0533
     25  C20       -3.1200   -0.2730   -0.0600 C.ar    1  UNL1       -0.0058
     26 H          -0.8877    1.7567   -0.0554 H       1  UNL1        0.1494
     27 H           1.3586    1.5591    1.5665 H       1  UNL1        0.0528
     28 H           1.2759    2.3088   -0.0412 H       1  UNL1        0.0528
     29 H           1.8958   -2.5223   -1.4483 H       1  UNL1        0.1921
     30 H           6.1577   -1.0202   -0.8823 H       1  UNL1        0.0625
     31 H           7.1134    1.0052    0.0814 H       1  UNL1        0.0618
     32 H           5.6474    2.7085    0.9821 H       1  UNL1        0.0618
     33 H           3.2715    2.3888    0.9228 H       1  UNL1        0.0624
     34 H          -2.2427   -0.8599    3.0899 H       1  UNL1        0.0625
     35 H          -4.5829   -1.3875    3.3033 H       1  UNL1        0.0618
     36 H          -5.9855   -1.1963    1.3477 H       1  UNL1        0.0624
     37 H          -6.3379   -0.7394   -0.9305 H       1  UNL1        0.0624
     38 H          -5.4422   -0.0911   -3.0873 H       1  UNL1        0.0618
     39 H          -3.1106    0.4257   -3.3008 H       1  UNL1        0.0618
     40 H          -1.6216    0.3123   -1.3870 H       1  UNL1        0.0624
@<TRIPOS>BOND
     1     1     2    2
     2     2     3   am
     3     2    16    1
     4     3     4    1
     5     4     5    1
     6     5     6   ar
     7     5    15   ar
     8     6     7   ar
     9     7     8   ar
    10     8     9    2
    11     8    10   ar
    12    10    11   ar
    13    10    15   ar
    14    11    12   ar
    15    12    13   ar
    16    13    14   ar
    17    14    15   ar
    18    16    17   ar
    19    16    25   ar
    20    17    18   ar
    21    18    19   ar
    22    19    20   ar
    23    20    21   ar
    24    20    25   ar
    25    21    22   ar
    26    22    23   ar
    27    23    24   ar
    28    24    25   ar
    29     3    26    1
    30     4    27    1
    31     4    28    1
    32     7    29    1
    33    11    30    1
    34    12    31    1
    35    13    32    1
    36    14    33    1
    37    17    34    1
    38    18    35    1
    39    19    36    1
    40    21    37    1
    41    22    38    1
    42    23    39    1
    43    24    40    1
@<TRIPOS>MOLECULE
../data/bude_mols_rdkit_confs/molecule_38.pdb
 40 43 0 0 0
SMALL
GASTEIGER

@<TRIPOS>ATOM
      1  O1         0.4520   -0.7480   -1.3910 O.2     1  UNL1       -0.2702
      2  C1         0.8810   -1.1780   -0.2970 C.2     1  UNL1        0.2450
      3  N1        -0.0850   -1.6160    0.6540 N.am    1  UNL1       -0.3057
      4  C2        -1.4730   -1.5470    0.3330 C.3     1  UNL1        0.0565
      5  C3        -2.0000   -0.1920    0.1160 C.ar    1  UNL1        0.0863
      6  N2        -1.2750    0.9260    0.2390 N.ar    1  UNL1       -0.1737
      7  N3        -1.7130    2.1520    0.0730 N.ar    1  UNL1       -0.2424
      8  C4        -3.0120    2.3270   -0.2530 C.ar    1  UNL1        0.2725
      9  O2        -3.4560    3.4930   -0.4180 O.2     1  UNL1       -0.2658
     10  C5        -3.8610    1.2550   -0.4090 C.ar    1  UNL1        0.0496
     11  C6        -5.1920    1.4070   -0.7440 C.ar    1  UNL1       -0.0487
     12  C7        -6.0000    0.2940   -0.8900 C.ar    1  UNL1       -0.0610
     13  C8        -5.4560   -0.9640   -0.6960 C.ar    1  UNL1       -0.0611
     14  C9        -4.1390   -1.1370   -0.3640 C.ar    1  UNL1       -0.0520
     15  C10       -3.3260   -0.0290   -0.2160 C.ar    1  UNL1        0.0118
     16  C11        2.3170   -1.2090   -0.0660 C.ar    1  UNL1        0.0444
     17  C12        2.9850   -2.4030    0.1890 C.ar    1  UNL1       -0.0490
     18  C13        4.3420   -2.4480    0.4230 C.ar    1  UNL1       -0.0605
     19  C14        5.0840   -1.2940    0.4110 C.ar    1  UNL1       -0.0540
     20  C15        4.4050   -0.1020    0.1530 C.ar    1  UNL1       -0.0172
     21  C16        5.1730    1.0520    0.1350 C.ar    1  UNL1       -0.0540
     22  C17        4.5910    2.2720   -0.1190 C.ar    1  UNL1       -0.0612
     23  C18        3.2230    2.2880   -0.3510 C.ar    1  UNL1       -0.0611
     24  C19        2.4340    1.1790   -0.3420 C.ar    1  UNL1       -0.0533
     25  C20        3.0420   -0.0500   -0.0830 C.ar    1  UNL1       -0.0058
     26 H           0.2040   -1.9645    1.5282 H       1  UNL1        0.1494
     27 H          -2.0211   -1.9901    1.1381 H       1  UNL1        0.0528
     28 H          -1.5878   -2.0622   -0.5978 H       1  UNL1        0.0528
     29 H          -1.1110    2.9232    0.1831 H       1  UNL1        0.1921
     30 H          -5.5839    2.3512   -0.8854 H       1  UNL1        0.0625
     31 H          -6.9955    0.4000   -1.1403 H       1  UNL1        0.0618
     32 H          -6.0595   -1.7941   -0.8046 H       1  UNL1        0.0618
     33 H          -3.7570   -2.0856   -0.2256 H       1  UNL1        0.0624
     34 H           2.4464   -3.2832    0.2033 H       1  UNL1        0.0625
     35 H           4.8020   -3.3531    0.6080 H       1  UNL1        0.0618
     36 H           6.1011   -1.3067    0.5853 H       1  UNL1        0.0624
     37 H           6.1879    0.9953    0.3133 H       1  UNL1        0.0624
     38 H           5.1489    3.1400   -0.1363 H       1  UNL1        0.0618
     39 H           2.7757    3.1981   -0.5424 H       1  UNL1        0.0618
     40 H           1.4197    1.2449   -0.5208 H       1  UNL1        0.0624
@<TRIPOS>BOND
     1     1     2    2
     2     2     3   am
     3     2    16    1
     4     3     4    1
     5     4     5    1
     6     5     6   ar
     7     5    15   ar
     8     6     7   ar
     9     7     8   ar
    10     8     9    2
    11     8    10   ar
    12    10    11   ar
    13    10    15   ar
    14    11    12   ar
    15    12    13   ar
    16    13    14   ar
    17    14    15   ar
    18    16    17   ar
    19    16    25   ar
    20    17    18   ar
    21    18    19   ar
    22    19    20   ar
    23    20    21   ar
    24    20    25   ar
    25    21    22   ar
    26    22    23   ar
    27    23    24   ar
    28    24    25   ar
    29     3    26    1
    30     4    27    1
    31     4    28    1
    32     7    29    1
    33    11    30    1
    34    12    31    1
    35    13    32    1
    36    14    33    1
    37    17    34    1
    38    18    35    1
    39    19    36    1
    40    21    37    1
    41    22    38    1
    42    23    39    1
    43    24    40    1
@<TRIPOS>MOLECULE
../data/bude_mols_rdkit_confs/molecule_38.pdb
 40 43 0 0 0
SMALL
GASTEIGER

@<TRIPOS>ATOM
      1  O1        -0.0220   -1.0020    1.3450 O.2     1  UNL1       -0.2702
      2  C1         0.8140   -0.5070    0.5420 C.2     1  UNL1        0.2450
      3  N1         0.3470    0.5340   -0.3070 N.am    1  UNL1       -0.3057
      4  C2        -0.9990    1.0110   -0.2160 C.3     1  UNL1        0.0565
      5  C3        -2.0400   -0.0210   -0.3940 C.ar    1  UNL1        0.0863
      6  N2        -1.8090   -1.3180   -0.6190 N.ar    1  UNL1       -0.1737
      7  N3        -2.8200   -2.1820   -0.7460 N.ar    1  UNL1       -0.2424
      8  C4        -4.1020   -1.8030   -0.6580 C.ar    1  UNL1        0.2725
      9  O2        -5.0390   -2.6400   -0.7830 O.2     1  UNL1       -0.2658
     10  C5        -4.4060   -0.4890   -0.4290 C.ar    1  UNL1        0.0496
     11  C6        -5.7080   -0.0650   -0.3240 C.ar    1  UNL1       -0.0487
     12  C7        -5.9820    1.2640   -0.0850 C.ar    1  UNL1       -0.0610
     13  C8        -4.9590    2.1560    0.0470 C.ar    1  UNL1       -0.0611
     14  C9        -3.6560    1.7430   -0.0560 C.ar    1  UNL1       -0.0520
     15  C10       -3.3590    0.3920   -0.2990 C.ar    1  UNL1        0.0118
     16  C11        2.1870   -0.9750    0.4800 C.ar    1  UNL1        0.0444
     17  C12        2.4770   -2.3180    0.3260 C.ar    1  UNL1       -0.0490
     18  C13        3.7800   -2.7760    0.1710 C.ar    1  UNL1       -0.0605
     19  C14        4.8270   -1.8630    0.1700 C.ar    1  UNL1       -0.0540
     20  C15        4.5630   -0.5140    0.3240 C.ar    1  UNL1       -0.0172
     21  C16        5.5900    0.3890    0.3620 C.ar    1  UNL1       -0.0540
     22  C17        5.3660    1.7420    0.5540 C.ar    1  UNL1       -0.0612
     23  C18        4.0850    2.2190    0.7130 C.ar    1  UNL1       -0.0611
     24  C19        3.0550    1.2750    0.6710 C.ar    1  UNL1       -0.0533
     25  C20        3.2520   -0.0720    0.4790 C.ar    1  UNL1       -0.0058
     26 H           0.9590    0.9324   -0.9673 H       1  UNL1        0.1494
     27 H          -1.1386    1.7569   -0.9704 H       1  UNL1        0.0528
     28 H          -1.1168    1.3861    0.7791 H       1  UNL1        0.0528
     29 H          -2.6157   -3.1310   -0.9101 H       1  UNL1        0.1921
     30 H          -6.4809   -0.7415   -0.4241 H       1  UNL1        0.0625
     31 H          -6.9600    1.5839   -0.0060 H       1  UNL1        0.0618
     32 H          -5.1676    3.1507    0.2260 H       1  UNL1        0.0618
     33 H          -2.8903    2.4274    0.0454 H       1  UNL1        0.0624
     34 H           1.7030   -3.0006    0.3261 H       1  UNL1        0.0625
     35 H           3.9679   -3.7844    0.0578 H       1  UNL1        0.0618
     36 H           5.7989   -2.1903    0.0547 H       1  UNL1        0.0624
     37 H           6.5585    0.0526    0.2443 H       1  UNL1        0.0624
     38 H           6.1639    2.3960    0.5780 H       1  UNL1        0.0618
     39 H           3.8944    3.2231    0.8560 H       1  UNL1        0.0618
     40 H           2.0864    1.6100    0.7916 H       1  UNL1        0.0624
@<TRIPOS>BOND
     1     1     2    2
     2     2     3   am
     3     2    16    1
     4     3     4    1
     5     4     5    1
     6     5     6   ar
     7     5    15   ar
     8     6     7   ar
     9     7     8   ar
    10     8     9    2
    11     8    10   ar
    12    10    11   ar
    13    10    15   ar
    14    11    12   ar
    15    12    13   ar
    16    13    14   ar
    17    14    15   ar
    18    16    17   ar
    19    16    25   ar
    20    17    18   ar
    21    18    19   ar
    22    19    20   ar
    23    20    21   ar
    24    20    25   ar
    25    21    22   ar
    26    22    23   ar
    27    23    24   ar
    28    24    25   ar
    29     3    26    1
    30     4    27    1
    31     4    28    1
    32     7    29    1
    33    11    30    1
    34    12    31    1
    35    13    32    1
    36    14    33    1
    37    17    34    1
    38    18    35    1
    39    19    36    1
    40    21    37    1
    41    22    38    1
    42    23    39    1
    43    24    40    1
@<TRIPOS>MOLECULE
../data/bude_mols_rdkit_confs/molecule_38.pdb
 40 43 0 0 0
SMALL
GASTEIGER

@<TRIPOS>ATOM
      1  O1         0.7140   -0.8420   -2.1340 O.2     1  UNL1       -0.2702
      2  C1         0.8600   -0.3020   -0.9620 C.2     1  UNL1        0.2450
      3  N1        -0.0610    0.6220   -0.4910 N.am    1  UNL1       -0.3057
      4  C2        -1.2240    0.8920   -1.3810 C.3     1  UNL1        0.0565
      5  C3        -2.3290    1.2310   -0.3960 C.ar    1  UNL1        0.0863
      6  N2        -2.4910    2.3980    0.1960 N.ar    1  UNL1       -0.1737
      7  N3        -3.5090    2.6720    1.0110 N.ar    1  UNL1       -0.2424
      8  C4        -4.4420    1.7070    1.2580 C.ar    1  UNL1        0.2725
      9  O2        -5.3960    1.9450    2.0130 O.2     1  UNL1       -0.2658
     10  C5        -4.3190    0.4650    0.6670 C.ar    1  UNL1        0.0496
     11  C6        -5.2120   -0.5560    0.9980 C.ar    1  UNL1       -0.0487
     12  C7        -5.0170   -1.8270    0.4710 C.ar    1  UNL1       -0.0610
     13  C8        -3.9590   -2.0560   -0.3600 C.ar    1  UNL1       -0.0611
     14  C9        -3.0640   -1.0210   -0.6880 C.ar    1  UNL1       -0.0520
     15  C10       -3.2610    0.2230   -0.1640 C.ar    1  UNL1        0.0118
     16  C11        2.0090   -0.7510   -0.1830 C.ar    1  UNL1        0.0444
     17  C12        1.8430   -1.7810    0.7150 C.ar    1  UNL1       -0.0490
     18  C13        2.8530   -2.1960    1.5840 C.ar    1  UNL1       -0.0605
     19  C14        4.0460   -1.5070    1.4870 C.ar    1  UNL1       -0.0540
     20  C15        4.2550   -0.4690    0.5900 C.ar    1  UNL1       -0.0172
     21  C16        5.4850    0.1920    0.4930 C.ar    1  UNL1       -0.0540
     22  C17        5.7350    1.2030   -0.4000 C.ar    1  UNL1       -0.0612
     23  C18        4.6450    1.5330   -1.2340 C.ar    1  UNL1       -0.0611
     24  C19        3.4640    0.9060   -1.1470 C.ar    1  UNL1       -0.0533
     25  C20        3.2070   -0.1250   -0.2280 C.ar    1  UNL1       -0.0058
     26 H           0.0475    1.0716    0.3781 H       1  UNL1        0.1494
     27 H          -1.4753    0.0279   -1.9599 H       1  UNL1        0.0528
     28 H          -1.0402    1.6673   -2.0952 H       1  UNL1        0.0528
     29 H          -3.5871    3.5596    1.4298 H       1  UNL1        0.1921
     30 H          -6.0083   -0.3688    1.6272 H       1  UNL1        0.0625
     31 H          -5.6678   -2.5925    0.7065 H       1  UNL1        0.0618
     32 H          -3.8136   -2.9993   -0.7524 H       1  UNL1        0.0618
     33 H          -2.2670   -1.2011   -1.3183 H       1  UNL1        0.0624
     34 H           0.9331   -2.2669    0.7470 H       1  UNL1        0.0625
     35 H           2.7172   -2.9677    2.2556 H       1  UNL1        0.0618
     36 H           4.8207   -1.7776    2.1128 H       1  UNL1        0.0624
     37 H           6.2454   -0.0970    1.1280 H       1  UNL1        0.0624
     38 H           6.6465    1.6835   -0.4574 H       1  UNL1        0.0618
     39 H           4.7616    2.2822   -1.9341 H       1  UNL1        0.0618
     40 H           2.7066    1.1944   -1.7859 H       1  UNL1        0.0624
@<TRIPOS>BOND
     1     1     2    2
     2     2     3   am
     3     2    16    1
     4     3     4    1
     5     4     5    1
     6     5     6   ar
     7     5    15   ar
     8     6     7   ar
     9     7     8   ar
    10     8     9    2
    11     8    10   ar
    12    10    11   ar
    13    10    15   ar
    14    11    12   ar
    15    12    13   ar
    16    13    14   ar
    17    14    15   ar
    18    16    17   ar
    19    16    25   ar
    20    17    18   ar
    21    18    19   ar
    22    19    20   ar
    23    20    21   ar
    24    20    25   ar
    25    21    22   ar
    26    22    23   ar
    27    23    24   ar
    28    24    25   ar
    29     3    26    1
    30     4    27    1
    31     4    28    1
    32     7    29    1
    33    11    30    1
    34    12    31    1
    35    13    32    1
    36    14    33    1
    37    17    34    1
    38    18    35    1
    39    19    36    1
    40    21    37    1
    41    22    38    1
    42    23    39    1
    43    24    40    1
@<TRIPOS>MOLECULE
../data/bude_mols_rdkit_confs/molecule_38.pdb
 40 43 0 0 0
SMALL
GASTEIGER

@<TRIPOS>ATOM
      1  O1         0.1880    1.2140    0.8310 O.2     1  UNL1       -0.2702
      2  C1         0.8730    0.4200    0.1030 C.2     1  UNL1        0.2450
      3  N1         0.2310   -0.7560   -0.3660 N.am    1  UNL1       -0.3057
      4  C2        -1.1250   -1.0470   -0.0280 C.3     1  UNL1        0.0565
      5  C3        -2.1160    0.0200   -0.3380 C.ar    1  UNL1        0.0863
      6  N2        -1.7900    1.2190   -0.8630 N.ar    1  UNL1       -0.1737
      7  N3        -2.6900    2.1490   -1.0990 N.ar    1  UNL1       -0.2424
      8  C4        -3.9640    1.8800   -0.8030 C.ar    1  UNL1        0.2725
      9  O2        -4.8240    2.7820   -1.0290 O.2     1  UNL1       -0.2658
     10  C5        -4.4130    0.6800   -0.2610 C.ar    1  UNL1        0.0496
     11  C6        -5.7390    0.4280    0.0270 C.ar    1  UNL1       -0.0487
     12  C7        -6.1540   -0.7980    0.5690 C.ar    1  UNL1       -0.0610
     13  C8        -5.1780   -1.7400    0.8010 C.ar    1  UNL1       -0.0611
     14  C9        -3.8560   -1.4800    0.5090 C.ar    1  UNL1       -0.0520
     15  C10       -3.4320   -0.2880   -0.0210 C.ar    1  UNL1        0.0118
     16  C11        2.2510    0.7060   -0.2370 C.ar    1  UNL1        0.0444
     17  C12        2.5610    1.7480   -1.1250 C.ar    1  UNL1       -0.0490
     18  C13        3.8360    2.0430   -1.5180 C.ar    1  UNL1       -0.0605
     19  C14        4.8770    1.3070   -1.0400 C.ar    1  UNL1       -0.0540
     20  C15        4.6170    0.2540   -0.1490 C.ar    1  UNL1       -0.0172
     21  C16        5.6960   -0.4700    0.3540 C.ar    1  UNL1       -0.0540
     22  C17        5.4420   -1.4820    1.2530 C.ar    1  UNL1       -0.0612
     23  C18        4.1610   -1.7740    1.6470 C.ar    1  UNL1       -0.0611
     24  C19        3.0940   -1.0620    1.1490 C.ar    1  UNL1       -0.0533
     25  C20        3.3100   -0.0310    0.2380 C.ar    1  UNL1       -0.0058
     26 H           0.7312   -1.3838   -0.9361 H       1  UNL1        0.1494
     27 H          -1.1669   -1.2377    1.0240 H       1  UNL1        0.0528
     28 H          -1.4014   -1.8839   -0.6348 H       1  UNL1        0.0528
     29 H          -2.4317    3.0181   -1.4827 H       1  UNL1        0.1921
     30 H          -6.4426    1.1592   -0.1609 H       1  UNL1        0.0625
     31 H          -7.1460   -0.9847    0.7838 H       1  UNL1        0.0618
     32 H          -5.4397   -2.6552    1.1997 H       1  UNL1        0.0618
     33 H          -3.1552   -2.2138    0.6973 H       1  UNL1        0.0624
     34 H           1.7877    2.3196   -1.4996 H       1  UNL1        0.0625
     35 H           4.0092    2.8203   -2.1743 H       1  UNL1        0.0618
     36 H           5.8444    1.5205   -1.3290 H       1  UNL1        0.0624
     37 H           6.6613   -0.2534    0.0603 H       1  UNL1        0.0624
     38 H           6.2283   -2.0295    1.6364 H       1  UNL1        0.0618
     39 H           3.9958   -2.5354    2.3238 H       1  UNL1        0.0618
     40 H           2.1342   -1.2919    1.4504 H       1  UNL1        0.0624
@<TRIPOS>BOND
     1     1     2    2
     2     2     3   am
     3     2    16    1
     4     3     4    1
     5     4     5    1
     6     5     6   ar
     7     5    15   ar
     8     6     7   ar
     9     7     8   ar
    10     8     9    2
    11     8    10   ar
    12    10    11   ar
    13    10    15   ar
    14    11    12   ar
    15    12    13   ar
    16    13    14   ar
    17    14    15   ar
    18    16    17   ar
    19    16    25   ar
    20    17    18   ar
    21    18    19   ar
    22    19    20   ar
    23    20    21   ar
    24    20    25   ar
    25    21    22   ar
    26    22    23   ar
    27    23    24   ar
    28    24    25   ar
    29     3    26    1
    30     4    27    1
    31     4    28    1
    32     7    29    1
    33    11    30    1
    34    12    31    1
    35    13    32    1
    36    14    33    1
    37    17    34    1
    38    18    35    1
    39    19    36    1
    40    21    37    1
    41    22    38    1
    42    23    39    1
    43    24    40    1
@<TRIPOS>MOLECULE
../data/bude_mols_rdkit_confs/molecule_38.pdb
 40 43 0 0 0
SMALL
GASTEIGER

@<TRIPOS>ATOM
      1  O1         1.3830    0.6640   -3.0400 O.2     1  UNL1       -0.2702
      2  C1         1.2160    0.0580   -1.9860 C.2     1  UNL1        0.2450
      3  N1        -0.0680   -0.0770   -1.4480 N.am    1  UNL1       -0.3057
      4  C2        -1.3820    0.3980   -1.8580 C.3     1  UNL1        0.0565
      5  C3        -2.2430   -0.2930   -0.8810 C.ar    1  UNL1        0.0863
      6  N2        -1.9820   -1.6380   -0.7870 N.ar    1  UNL1       -0.1737
      7  N3        -2.7030   -2.4040    0.0810 N.ar    1  UNL1       -0.2424
      8  C4        -3.6190   -1.8190    0.8020 C.ar    1  UNL1        0.2725
      9  O2        -4.3380   -2.5200    1.6370 O.2     1  UNL1       -0.2658
     10  C5        -3.9160   -0.5190    0.7630 C.ar    1  UNL1        0.0496
     11  C6        -4.7920    0.1640    1.6040 C.ar    1  UNL1       -0.0487
     12  C7        -4.9550    1.4940    1.5470 C.ar    1  UNL1       -0.0610
     13  C8        -4.2150    2.2970    0.6090 C.ar    1  UNL1       -0.0611
     14  C9        -3.3570    1.6410   -0.1900 C.ar    1  UNL1       -0.0520
     15  C10       -3.1850    0.2830   -0.1370 C.ar    1  UNL1        0.0118
     16  C11        2.2740   -0.5840   -1.1690 C.ar    1  UNL1        0.0444
     17  C12        2.4390   -1.9380   -1.1530 C.ar    1  UNL1       -0.0490
     18  C13        3.3340   -2.5480   -0.2990 C.ar    1  UNL1       -0.0605
     19  C14        4.0700   -1.7740    0.5630 C.ar    1  UNL1       -0.0540
     20  C15        3.9180   -0.4110    0.5640 C.ar    1  UNL1       -0.0172
     21  C16        4.7350    0.3460    1.4350 C.ar    1  UNL1       -0.0540
     22  C17        4.6330    1.6930    1.4280 C.ar    1  UNL1       -0.0612
     23  C18        3.7410    2.3290    0.5880 C.ar    1  UNL1       -0.0611
     24  C19        2.9210    1.5760   -0.2790 C.ar    1  UNL1       -0.0533
     25  C20        3.0350    0.1980   -0.2800 C.ar    1  UNL1       -0.0058
     26 H          -0.0875   -0.6044   -0.6169 H       1  UNL1        0.1494
     27 H          -1.6112    0.1051   -2.8613 H       1  UNL1        0.0528
     28 H          -1.4858    1.4629   -1.8646 H       1  UNL1        0.0528
     29 H          -2.5368   -3.3711    0.1611 H       1  UNL1        0.1921
     30 H          -5.3359   -0.3737    2.2969 H       1  UNL1        0.0625
     31 H          -5.6233    1.9502    2.1875 H       1  UNL1        0.0618
     32 H          -4.3369    3.3203    0.5534 H       1  UNL1        0.0618
     33 H          -2.8042    2.1830   -0.8724 H       1  UNL1        0.0624
     34 H           1.8802   -2.5205   -1.7960 H       1  UNL1        0.0625
     35 H           3.4488   -3.5736   -0.3081 H       1  UNL1        0.0618
     36 H           4.7388   -2.2183    1.2113 H       1  UNL1        0.0624
     37 H           5.4007   -0.1245    2.0679 H       1  UNL1        0.0624
     38 H           5.2287    2.2530    2.0578 H       1  UNL1        0.0618
     39 H           3.6737    3.3588    0.5942 H       1  UNL1        0.0618
     40 H           2.2467    2.0465   -0.9027 H       1  UNL1        0.0624
@<TRIPOS>BOND
     1     1     2    2
     2     2     3   am
     3     2    16    1
     4     3     4    1
     5     4     5    1
     6     5     6   ar
     7     5    15   ar
     8     6     7   ar
     9     7     8   ar
    10     8     9    2
    11     8    10   ar
    12    10    11   ar
    13    10    15   ar
    14    11    12   ar
    15    12    13   ar
    16    13    14   ar
    17    14    15   ar
    18    16    17   ar
    19    16    25   ar
    20    17    18   ar
    21    18    19   ar
    22    19    20   ar
    23    20    21   ar
    24    20    25   ar
    25    21    22   ar
    26    22    23   ar
    27    23    24   ar
    28    24    25   ar
    29     3    26    1
    30     4    27    1
    31     4    28    1
    32     7    29    1
    33    11    30    1
    34    12    31    1
    35    13    32    1
    36    14    33    1
    37    17    34    1
    38    18    35    1
    39    19    36    1
    40    21    37    1
    41    22    38    1
    42    23    39    1
    43    24    40    1
@<TRIPOS>MOLECULE
../data/bude_mols_rdkit_confs/molecule_38.pdb
 40 43 0 0 0
SMALL
GASTEIGER

@<TRIPOS>ATOM
      1  O1         0.4410   -0.3070    1.0180 O.2     1  UNL1       -0.2702
      2  C1        -0.4910   -0.2580    0.2350 C.2     1  UNL1        0.2450
      3  N1        -0.3150    0.3470   -1.0630 N.am    1  UNL1       -0.3057
      4  C2         0.9130    0.7820   -1.5490 C.3     1  UNL1        0.0565
      5  C3         2.0040    1.2820   -0.7470 C.ar    1  UNL1        0.0863
      6  N2         2.2800    2.5100   -0.3620 N.ar    1  UNL1       -0.1737
      7  N3         3.4710    2.8440    0.1450 N.ar    1  UNL1       -0.2424
      8  C4         4.4860    1.9840    0.3160 C.ar    1  UNL1        0.2725
      9  O2         5.6120    2.2860    0.7670 O.2     1  UNL1       -0.2658
     10  C5         4.2570    0.6350   -0.0670 C.ar    1  UNL1        0.0496
     11  C6         5.2050   -0.3170    0.1690 C.ar    1  UNL1       -0.0487
     12  C7         4.9170   -1.6460   -0.1110 C.ar    1  UNL1       -0.0610
     13  C8         3.7050   -1.9940   -0.6110 C.ar    1  UNL1       -0.0611
     14  C9         2.7520   -1.0260   -0.8510 C.ar    1  UNL1       -0.0520
     15  C10        3.0410    0.3040   -0.5870 C.ar    1  UNL1        0.0118
     16  C11       -1.8220   -0.8050    0.4820 C.ar    1  UNL1        0.0444
     17  C12       -1.8940   -2.1860    0.7810 C.ar    1  UNL1       -0.0490
     18  C13       -3.1110   -2.7950    0.8560 C.ar    1  UNL1       -0.0605
     19  C14       -4.2790   -2.0590    0.6410 C.ar    1  UNL1       -0.0540
     20  C15       -4.2000   -0.6870    0.3540 C.ar    1  UNL1       -0.0172
     21  C16       -5.3600    0.0310    0.1150 C.ar    1  UNL1       -0.0540
     22  C17       -5.2750    1.3820   -0.1950 C.ar    1  UNL1       -0.0612
     23  C18       -4.0430    1.9900   -0.2660 C.ar    1  UNL1       -0.0611
     24  C19       -2.8960    1.2610   -0.0330 C.ar    1  UNL1       -0.0533
     25  C20       -2.9670   -0.0980    0.2810 C.ar    1  UNL1       -0.0058
     26 H          -1.1079    0.4579   -1.6360 H       1  UNL1        0.1494
     27 H           0.6823    1.5701   -2.2349 H       1  UNL1        0.0528
     28 H           1.3284   -0.1508   -1.8689 H       1  UNL1        0.0528
     29 H           3.6122    3.7816    0.4099 H       1  UNL1        0.1921
     30 H           6.1262   -0.0523    0.5515 H       1  UNL1        0.0625
     31 H           5.6288   -2.3729    0.0622 H       1  UNL1        0.0618
     32 H           3.4956   -2.9843   -0.8121 H       1  UNL1        0.0618
     33 H           1.8276   -1.2908   -1.2256 H       1  UNL1        0.0624
     34 H          -1.0309   -2.7285    0.9412 H       1  UNL1        0.0625
     35 H          -3.1699   -3.8024    1.0722 H       1  UNL1        0.0618
     36 H          -5.1991   -2.5235    0.6931 H       1  UNL1        0.0624
     37 H          -6.2798   -0.4341    0.1669 H       1  UNL1        0.0624
     38 H          -6.1329    1.9279   -0.3715 H       1  UNL1        0.0618
     39 H          -3.9771    2.9943   -0.4942 H       1  UNL1        0.0618
     40 H          -1.9757    1.7243   -0.0912 H       1  UNL1        0.0624
@<TRIPOS>BOND
     1     1     2    2
     2     2     3   am
     3     2    16    1
     4     3     4    1
     5     4     5    1
     6     5     6   ar
     7     5    15   ar
     8     6     7   ar
     9     7     8   ar
    10     8     9    2
    11     8    10   ar
    12    10    11   ar
    13    10    15   ar
    14    11    12   ar
    15    12    13   ar
    16    13    14   ar
    17    14    15   ar
    18    16    17   ar
    19    16    25   ar
    20    17    18   ar
    21    18    19   ar
    22    19    20   ar
    23    20    21   ar
    24    20    25   ar
    25    21    22   ar
    26    22    23   ar
    27    23    24   ar
    28    24    25   ar
    29     3    26    1
    30     4    27    1
    31     4    28    1
    32     7    29    1
    33    11    30    1
    34    12    31    1
    35    13    32    1
    36    14    33    1
    37    17    34    1
    38    18    35    1
    39    19    36    1
    40    21    37    1
    41    22    38    1
    42    23    39    1
    43    24    40    1
@<TRIPOS>MOLECULE
../data/bude_mols_rdkit_confs/molecule_38.pdb
 40 43 0 0 0
SMALL
GASTEIGER

@<TRIPOS>ATOM
      1  O1         0.4870   -0.0030   -1.9890 O.2     1  UNL1       -0.2702
      2  C1         0.8460   -0.2000   -0.7580 C.2     1  UNL1        0.2450
      3  N1         0.1240   -1.1470    0.0040 N.am    1  UNL1       -0.3057
      4  C2        -1.0640   -1.7770   -0.7020 C.3     1  UNL1        0.0565
      5  C3        -2.2540   -1.4590    0.1020 C.ar    1  UNL1        0.0863
      6  N2        -2.5900   -2.0340    1.2550 N.ar    1  UNL1       -0.1737
      7  N3        -3.7060   -1.7810    1.9110 N.ar    1  UNL1       -0.2424
      8  C4        -4.6300   -0.8860    1.4580 C.ar    1  UNL1        0.2725
      9  O2        -5.6990   -0.6180    2.0430 O.2     1  UNL1       -0.2658
     10  C5        -4.3260   -0.2600    0.2660 C.ar    1  UNL1        0.0496
     11  C6        -5.1610    0.7700   -0.1930 C.ar    1  UNL1       -0.0487
     12  C7        -4.7950    1.4610   -1.3060 C.ar    1  UNL1       -0.0610
     13  C8        -3.6650    1.2170   -2.0180 C.ar    1  UNL1       -0.0611
     14  C9        -2.8600    0.2000   -1.5440 C.ar    1  UNL1       -0.0520
     15  C10       -3.1440   -0.5560   -0.4090 C.ar    1  UNL1        0.0118
     16  C11        1.9490    0.6490   -0.3760 C.ar    1  UNL1        0.0444
     17  C12        1.6400    2.0220   -0.3230 C.ar    1  UNL1       -0.0490
     18  C13        2.6180    2.9000    0.0150 C.ar    1  UNL1       -0.0605
     19  C14        3.8650    2.3870    0.2870 C.ar    1  UNL1       -0.0540
     20  C15        4.1640    1.0190    0.2390 C.ar    1  UNL1       -0.0172
     21  C16        5.4120    0.4960    0.4830 C.ar    1  UNL1       -0.0540
     22  C17        5.6820   -0.8850    0.3930 C.ar    1  UNL1       -0.0612
     23  C18        4.6740   -1.7310    0.0500 C.ar    1  UNL1       -0.0611
     24  C19        3.4190   -1.2560   -0.1960 C.ar    1  UNL1       -0.0533
     25  C20        3.1610    0.1340   -0.1040 C.ar    1  UNL1       -0.0058
     26 H           0.3737   -1.3815    0.9270 H       1  UNL1        0.1494
     27 H          -0.9349   -2.8373   -0.7654 H       1  UNL1        0.0528
     28 H          -1.1622   -1.4003   -1.6987 H       1  UNL1        0.0528
     29 H          -3.8779   -2.2546    2.7568 H       1  UNL1        0.1921
     30 H          -6.0359    0.9989    0.3042 H       1  UNL1        0.0625
     31 H          -5.4158    2.2191   -1.6299 H       1  UNL1        0.0618
     32 H          -3.4224    1.7587   -2.8622 H       1  UNL1        0.0618
     33 H          -1.9939   -0.0133   -2.0631 H       1  UNL1        0.0624
     34 H           0.6868    2.3545   -0.5374 H       1  UNL1        0.0625
     35 H           2.4332    3.9140    0.0660 H       1  UNL1        0.0618
     36 H           4.6197    3.0440    0.5396 H       1  UNL1        0.0624
     37 H           6.1784    1.1371    0.7412 H       1  UNL1        0.0624
     38 H           6.6290   -1.2478    0.5843 H       1  UNL1        0.0618
     39 H           4.8604   -2.7432   -0.0250 H       1  UNL1        0.0618
     40 H           2.6595   -1.9075   -0.4485 H       1  UNL1        0.0624
@<TRIPOS>BOND
     1     1     2    2
     2     2     3   am
     3     2    16    1
     4     3     4    1
     5     4     5    1
     6     5     6   ar
     7     5    15   ar
     8     6     7   ar
     9     7     8   ar
    10     8     9    2
    11     8    10   ar
    12    10    11   ar
    13    10    15   ar
    14    11    12   ar
    15    12    13   ar
    16    13    14   ar
    17    14    15   ar
    18    16    17   ar
    19    16    25   ar
    20    17    18   ar
    21    18    19   ar
    22    19    20   ar
    23    20    21   ar
    24    20    25   ar
    25    21    22   ar
    26    22    23   ar
    27    23    24   ar
    28    24    25   ar
    29     3    26    1
    30     4    27    1
    31     4    28    1
    32     7    29    1
    33    11    30    1
    34    12    31    1
    35    13    32    1
    36    14    33    1
    37    17    34    1
    38    18    35    1
    39    19    36    1
    40    21    37    1
    41    22    38    1
    42    23    39    1
    43    24    40    1
@<TRIPOS>MOLECULE
../data/bude_mols_rdkit_confs/molecule_38.pdb
 40 43 0 0 0
SMALL
GASTEIGER

@<TRIPOS>ATOM
      1  O1         0.2310    0.1470    2.0140 O.2     1  UNL1       -0.2702
      2  C1         0.8130    0.3280    0.9770 C.2     1  UNL1        0.2450
      3  N1         0.2380   -0.1350   -0.2720 N.am    1  UNL1       -0.3057
      4  C2        -0.8990   -0.7960   -0.6410 C.3     1  UNL1        0.0565
      5  C3        -2.0230   -1.0840    0.2390 C.ar    1  UNL1        0.0863
      6  N2        -2.1010   -2.1870    0.9560 N.ar    1  UNL1       -0.1737
      7  N3        -3.2250   -2.5760    1.5570 N.ar    1  UNL1       -0.2424
      8  C4        -4.3510   -1.8300    1.4530 C.ar    1  UNL1        0.2725
      9  O2        -5.3840   -2.2550    2.0410 O.2     1  UNL1       -0.2658
     10  C5        -4.3160   -0.6630    0.7190 C.ar    1  UNL1        0.0496
     11  C6        -5.4150    0.1460    0.6880 C.ar    1  UNL1       -0.0487
     12  C7        -5.3270    1.3530    0.0240 C.ar    1  UNL1       -0.0610
     13  C8        -4.1400    1.7430   -0.6050 C.ar    1  UNL1       -0.0611
     14  C9        -3.0560    0.9270   -0.5590 C.ar    1  UNL1       -0.0520
     15  C10       -3.1490   -0.2890    0.1120 C.ar    1  UNL1        0.0118
     16  C11        2.1200    1.0000    0.7090 C.ar    1  UNL1        0.0444
     17  C12        2.1980    2.3390    0.5860 C.ar    1  UNL1       -0.0490
     18  C13        3.3440    2.8960   -0.0300 C.ar    1  UNL1       -0.0605
     19  C14        4.3370    2.0540   -0.4710 C.ar    1  UNL1       -0.0540
     20  C15        4.2600    0.6640   -0.3330 C.ar    1  UNL1       -0.0172
     21  C16        5.2410   -0.1700   -0.7700 C.ar    1  UNL1       -0.0540
     22  C17        5.1560   -1.5370   -0.6350 C.ar    1  UNL1       -0.0612
     23  C18        3.9980   -2.0360   -0.0250 C.ar    1  UNL1       -0.0611
     24  C19        3.0120   -1.2020    0.4130 C.ar    1  UNL1       -0.0533
     25  C20        3.1160    0.1710    0.2710 C.ar    1  UNL1       -0.0058
     26 H           0.8085    0.0806   -1.0448 H       1  UNL1        0.1494
     27 H          -0.5703   -1.7474   -1.0038 H       1  UNL1        0.0528
     28 H          -1.3430   -0.0679   -1.2873 H       1  UNL1        0.0528
     29 H          -3.2371   -3.4103    2.0796 H       1  UNL1        0.1921
     30 H          -6.2924   -0.1385    1.1508 H       1  UNL1        0.0625
     31 H          -6.1487    1.9765   -0.0088 H       1  UNL1        0.0618
     32 H          -4.0886    2.6463   -1.1014 H       1  UNL1        0.0618
     33 H          -2.1735    1.2049   -1.0161 H       1  UNL1        0.0624
     34 H           1.4387    2.9455    0.9333 H       1  UNL1        0.0625
     35 H           3.4327    3.9176   -0.1462 H       1  UNL1        0.0618
     36 H           5.1710    2.4628   -0.9210 H       1  UNL1        0.0624
     37 H           6.0775    0.2357   -1.2180 H       1  UNL1        0.0624
     38 H           5.9071   -2.1625   -0.9663 H       1  UNL1        0.0618
     39 H           3.8888   -3.0551    0.0954 H       1  UNL1        0.0618
     40 H           2.1719   -1.6023    0.8591 H       1  UNL1        0.0624
@<TRIPOS>BOND
     1     1     2    2
     2     2     3   am
     3     2    16    1
     4     3     4    1
     5     4     5    1
     6     5     6   ar
     7     5    15   ar
     8     6     7   ar
     9     7     8   ar
    10     8     9    2
    11     8    10   ar
    12    10    11   ar
    13    10    15   ar
    14    11    12   ar
    15    12    13   ar
    16    13    14   ar
    17    14    15   ar
    18    16    17   ar
    19    16    25   ar
    20    17    18   ar
    21    18    19   ar
    22    19    20   ar
    23    20    21   ar
    24    20    25   ar
    25    21    22   ar
    26    22    23   ar
    27    23    24   ar
    28    24    25   ar
    29     3    26    1
    30     4    27    1
    31     4    28    1
    32     7    29    1
    33    11    30    1
    34    12    31    1
    35    13    32    1
    36    14    33    1
    37    17    34    1
    38    18    35    1
    39    19    36    1
    40    21    37    1
    41    22    38    1
    42    23    39    1
    43    24    40    1
@<TRIPOS>MOLECULE
../data/bude_mols_rdkit_confs/molecule_38.pdb
 40 43 0 0 0
SMALL
GASTEIGER

@<TRIPOS>ATOM
      1  O1        -0.8400    1.4310   -1.9610 O.2     1  UNL1       -0.2702
      2  C1        -1.1560    0.5460   -1.1460 C.2     1  UNL1        0.2450
      3  N1        -0.2020    0.1650   -0.1360 N.am    1  UNL1       -0.3057
      4  C2         1.0830    0.8120   -0.0540 C.3     1  UNL1        0.0565
      5  C3         2.1310   -0.2270   -0.0440 C.ar    1  UNL1        0.0863
      6  N2         1.8740   -1.5400   -0.1760 N.ar    1  UNL1       -0.1737
      7  N3         2.8840   -2.4080   -0.2060 N.ar    1  UNL1       -0.2424
      8  C4         4.1610   -2.0160   -0.1080 C.ar    1  UNL1        0.2725
      9  O2         5.1490   -2.8190   -0.1350 O.2     1  UNL1       -0.2658
     10  C5         4.4800   -0.6820    0.0300 C.ar    1  UNL1        0.0496
     11  C6         5.7850   -0.2470    0.1420 C.ar    1  UNL1       -0.0487
     12  C7         6.0100    1.1030    0.2880 C.ar    1  UNL1       -0.0610
     13  C8         4.9920    2.0140    0.3220 C.ar    1  UNL1       -0.0611
     14  C9         3.7010    1.5810    0.2090 C.ar    1  UNL1       -0.0520
     15  C10        3.4380    0.2260    0.0620 C.ar    1  UNL1        0.0118
     16  C11       -2.4270   -0.1230   -1.1600 C.ar    1  UNL1        0.0444
     17  C12       -2.7860   -1.0430   -2.0830 C.ar    1  UNL1       -0.0490
     18  C13       -4.0190   -1.6860   -2.0050 C.ar    1  UNL1       -0.0605
     19  C14       -4.9100   -1.4070   -0.9900 C.ar    1  UNL1       -0.0540
     20  C15       -4.5540   -0.4660   -0.0400 C.ar    1  UNL1       -0.0172
     21  C16       -5.4210   -0.1250    0.9900 C.ar    1  UNL1       -0.0540
     22  C17       -5.1080    0.8270    1.9400 C.ar    1  UNL1       -0.0612
     23  C18       -3.8680    1.4590    1.8440 C.ar    1  UNL1       -0.0611
     24  C19       -3.0230    1.1120    0.8240 C.ar    1  UNL1       -0.0533
     25  C20       -3.3320    0.1620   -0.1280 C.ar    1  UNL1       -0.0058
     26 H          -0.4306   -0.5457    0.5057 H       1  UNL1        0.1494
     27 H           1.1393    1.3900    0.8447 H       1  UNL1        0.0528
     28 H           1.2199    1.4626   -0.8924 H       1  UNL1        0.0528
     29 H           2.6857   -3.3674   -0.3032 H       1  UNL1        0.1921
     30 H           6.5707   -0.9157    0.1170 H       1  UNL1        0.0625
     31 H           6.9819    1.4391    0.3749 H       1  UNL1        0.0618
     32 H           5.1964    3.0196    0.4320 H       1  UNL1        0.0618
     33 H           2.9237    2.2594    0.2329 H       1  UNL1        0.0624
     34 H          -2.1393   -1.2715   -2.8541 H       1  UNL1        0.0625
     35 H          -4.2709   -2.3852   -2.7210 H       1  UNL1        0.0618
     36 H          -5.8212   -1.8889   -0.9401 H       1  UNL1        0.0624
     37 H          -6.3346   -0.6016    1.0476 H       1  UNL1        0.0624
     38 H          -5.7695    1.0632    2.6961 H       1  UNL1        0.0618
     39 H          -3.5917    2.1773    2.5315 H       1  UNL1        0.0618
     40 H          -2.1079    1.5853    0.7641 H       1  UNL1        0.0624
@<TRIPOS>BOND
     1     1     2    2
     2     2     3   am
     3     2    16    1
     4     3     4    1
     5     4     5    1
     6     5     6   ar
     7     5    15   ar
     8     6     7   ar
     9     7     8   ar
    10     8     9    2
    11     8    10   ar
    12    10    11   ar
    13    10    15   ar
    14    11    12   ar
    15    12    13   ar
    16    13    14   ar
    17    14    15   ar
    18    16    17   ar
    19    16    25   ar
    20    17    18   ar
    21    18    19   ar
    22    19    20   ar
    23    20    21   ar
    24    20    25   ar
    25    21    22   ar
    26    22    23   ar
    27    23    24   ar
    28    24    25   ar
    29     3    26    1
    30     4    27    1
    31     4    28    1
    32     7    29    1
    33    11    30    1
    34    12    31    1
    35    13    32    1
    36    14    33    1
    37    17    34    1
    38    18    35    1
    39    19    36    1
    40    21    37    1
    41    22    38    1
    42    23    39    1
    43    24    40    1
@<TRIPOS>MOLECULE
../data/bude_mols_rdkit_confs/molecule_38.pdb
 40 43 0 0 0
SMALL
GASTEIGER

@<TRIPOS>ATOM
      1  O1        -0.0870   -0.7520    1.5600 O.2     1  UNL1       -0.2702
      2  C1        -0.8400   -0.2300    0.6620 C.2     1  UNL1        0.2450
      3  N1        -0.2770    0.8150   -0.0680 N.am    1  UNL1       -0.3057
      4  C2         1.0770    1.3250    0.1500 C.3     1  UNL1        0.0565
      5  C3         2.0900    0.2860   -0.0410 C.ar    1  UNL1        0.0863
      6  N2         1.7450   -0.9700   -0.3640 N.ar    1  UNL1       -0.1737
      7  N3         2.6430   -1.9330   -0.5420 N.ar    1  UNL1       -0.2424
      8  C4         3.9550   -1.6720   -0.4010 C.ar    1  UNL1        0.2725
      9  O2         4.8210   -2.5720   -0.5650 O.2     1  UNL1       -0.2658
     10  C5         4.4010   -0.4130   -0.0710 C.ar    1  UNL1        0.0496
     11  C6         5.7500   -0.1260    0.0750 C.ar    1  UNL1       -0.0487
     12  C7         6.0890    1.1620    0.4010 C.ar    1  UNL1       -0.0610
     13  C8         5.1290    2.1340    0.5770 C.ar    1  UNL1       -0.0611
     14  C9         3.7970    1.8540    0.4350 C.ar    1  UNL1       -0.0520
     15  C10        3.4220    0.5760    0.1090 C.ar    1  UNL1        0.0118
     16  C11       -2.1610   -0.8170    0.5410 C.ar    1  UNL1        0.0444
     17  C12       -2.2420   -2.2150    0.5360 C.ar    1  UNL1       -0.0490
     18  C13       -3.4290   -2.8500    0.3160 C.ar    1  UNL1       -0.0605
     19  C14       -4.5990   -2.1710    0.0910 C.ar    1  UNL1       -0.0540
     20  C15       -4.5220   -0.7950    0.0990 C.ar    1  UNL1       -0.0172
     21  C16       -5.6850   -0.0970   -0.0950 C.ar    1  UNL1       -0.0540
     22  C17       -5.6640    1.2810   -0.0650 C.ar    1  UNL1       -0.0612
     23  C18       -4.4730    1.9440    0.1610 C.ar    1  UNL1       -0.0611
     24  C19       -3.2850    1.2520    0.3570 C.ar    1  UNL1       -0.0533
     25  C20       -3.3160   -0.1180    0.3220 C.ar    1  UNL1       -0.0058
     26 H          -0.8224    1.2349   -0.7719 H       1  UNL1        0.1494
     27 H           1.1490    1.6983    1.1502 H       1  UNL1        0.0528
     28 H           1.2582    2.0997   -0.5654 H       1  UNL1        0.0528
     29 H           2.3468   -2.8417   -0.7782 H       1  UNL1        0.1921
     30 H           6.4703   -0.8532   -0.0565 H       1  UNL1        0.0625
     31 H           7.0844    1.4084    0.5169 H       1  UNL1        0.0618
     32 H           5.4203    3.0935    0.8211 H       1  UNL1        0.0618
     33 H           3.0877    2.5912    0.5708 H       1  UNL1        0.0624
     34 H          -1.3902   -2.7737    0.7014 H       1  UNL1        0.0625
     35 H          -3.4473   -3.8818    0.3190 H       1  UNL1        0.0618
     36 H          -5.4900   -2.6643   -0.0755 H       1  UNL1        0.0624
     37 H          -6.5707   -0.5995   -0.2624 H       1  UNL1        0.0624
     38 H          -6.5347    1.8155   -0.2108 H       1  UNL1        0.0618
     39 H          -4.4661    2.9757    0.1847 H       1  UNL1        0.0618
     40 H          -2.4006    1.7567    0.5249 H       1  UNL1        0.0624
@<TRIPOS>BOND
     1     1     2    2
     2     2     3   am
     3     2    16    1
     4     3     4    1
     5     4     5    1
     6     5     6   ar
     7     5    15   ar
     8     6     7   ar
     9     7     8   ar
    10     8     9    2
    11     8    10   ar
    12    10    11   ar
    13    10    15   ar
    14    11    12   ar
    15    12    13   ar
    16    13    14   ar
    17    14    15   ar
    18    16    17   ar
    19    16    25   ar
    20    17    18   ar
    21    18    19   ar
    22    19    20   ar
    23    20    21   ar
    24    20    25   ar
    25    21    22   ar
    26    22    23   ar
    27    23    24   ar
    28    24    25   ar
    29     3    26    1
    30     4    27    1
    31     4    28    1
    32     7    29    1
    33    11    30    1
    34    12    31    1
    35    13    32    1
    36    14    33    1
    37    17    34    1
    38    18    35    1
    39    19    36    1
    40    21    37    1
    41    22    38    1
    42    23    39    1
    43    24    40    1
@<TRIPOS>MOLECULE
../data/bude_mols_rdkit_confs/molecule_38.pdb
 40 43 0 0 0
SMALL
GASTEIGER

@<TRIPOS>ATOM
      1  O1         0.3810    0.4980    0.7900 O.2     1  UNL1       -0.2702
      2  C1         0.8340   -0.1230   -0.2320 C.2     1  UNL1        0.2450
      3  N1         0.0670   -0.0780   -1.4090 N.am    1  UNL1       -0.3057
      4  C2        -1.2100    0.6250   -1.5310 C.3     1  UNL1        0.0565
      5  C3        -2.1360    0.0850   -0.5440 C.ar    1  UNL1        0.0863
      6  N2        -1.7240   -0.8770    0.2880 N.ar    1  UNL1       -0.1737
      7  N3        -2.4690   -1.4200    1.2320 N.ar    1  UNL1       -0.2424
      8  C4        -3.7430   -1.0160    1.4150 C.ar    1  UNL1        0.2725
      9  O2        -4.4930   -1.5090    2.3090 O.2     1  UNL1       -0.2658
     10  C5        -4.2440   -0.0370    0.6070 C.ar    1  UNL1        0.0496
     11  C6        -5.5600    0.4180    0.7440 C.ar    1  UNL1       -0.0487
     12  C7        -6.0470    1.4040   -0.0870 C.ar    1  UNL1       -0.0610
     13  C8        -5.2030    1.9240   -1.0500 C.ar    1  UNL1       -0.0611
     14  C9        -3.9060    1.5010   -1.2160 C.ar    1  UNL1       -0.0520
     15  C10       -3.4360    0.5160   -0.3780 C.ar    1  UNL1        0.0118
     16  C11        2.0920   -0.8290   -0.0980 C.ar    1  UNL1        0.0444
     17  C12        2.1700   -2.1990   -0.0150 C.ar    1  UNL1       -0.0490
     18  C13        3.3700   -2.8540    0.0750 C.ar    1  UNL1       -0.0605
     19  C14        4.5570   -2.1500    0.0840 C.ar    1  UNL1       -0.0540
     20  C15        4.5050   -0.7580    0.0020 C.ar    1  UNL1       -0.0172
     21  C16        5.6720   -0.0180    0.0330 C.ar    1  UNL1       -0.0540
     22  C17        5.6750    1.3520   -0.0200 C.ar    1  UNL1       -0.0612
     23  C18        4.4630    1.9860   -0.1090 C.ar    1  UNL1       -0.0611
     24  C19        3.2760    1.2740   -0.1430 C.ar    1  UNL1       -0.0533
     25  C20        3.2900   -0.1250   -0.0880 C.ar    1  UNL1       -0.0058
     26 H           0.4111   -0.5496   -2.2017 H       1  UNL1        0.1494
     27 H          -1.6075    0.4818   -2.5140 H       1  UNL1        0.0528
     28 H          -1.0675    1.6721   -1.3631 H       1  UNL1        0.0528
     29 H          -2.0924   -2.1250    1.8069 H       1  UNL1        0.1921
     30 H          -6.1697    0.0130    1.4715 H       1  UNL1        0.0625
     31 H          -7.0164    1.7450    0.0074 H       1  UNL1        0.0618
     32 H          -5.5632    2.6638   -1.6729 H       1  UNL1        0.0618
     33 H          -3.3029    1.9097   -1.9469 H       1  UNL1        0.0624
     34 H           1.2980   -2.7509   -0.0207 H       1  UNL1        0.0625
     35 H           3.3864   -3.8840    0.1367 H       1  UNL1        0.0618
     36 H           5.4620   -2.6416    0.1498 H       1  UNL1        0.0624
     37 H           6.5741   -0.5149    0.0984 H       1  UNL1        0.0624
     38 H           6.5575    1.8863    0.0062 H       1  UNL1        0.0618
     39 H           4.4346    3.0167   -0.1516 H       1  UNL1        0.0618
     40 H           2.3771    1.7766   -0.2092 H       1  UNL1        0.0624
@<TRIPOS>BOND
     1     1     2    2
     2     2     3   am
     3     2    16    1
     4     3     4    1
     5     4     5    1
     6     5     6   ar
     7     5    15   ar
     8     6     7   ar
     9     7     8   ar
    10     8     9    2
    11     8    10   ar
    12    10    11   ar
    13    10    15   ar
    14    11    12   ar
    15    12    13   ar
    16    13    14   ar
    17    14    15   ar
    18    16    17   ar
    19    16    25   ar
    20    17    18   ar
    21    18    19   ar
    22    19    20   ar
    23    20    21   ar
    24    20    25   ar
    25    21    22   ar
    26    22    23   ar
    27    23    24   ar
    28    24    25   ar
    29     3    26    1
    30     4    27    1
    31     4    28    1
    32     7    29    1
    33    11    30    1
    34    12    31    1
    35    13    32    1
    36    14    33    1
    37    17    34    1
    38    18    35    1
    39    19    36    1
    40    21    37    1
    41    22    38    1
    42    23    39    1
    43    24    40    1
@<TRIPOS>MOLECULE
../data/bude_mols_rdkit_confs/molecule_38.pdb
 40 43 0 0 0
SMALL
GASTEIGER

@<TRIPOS>ATOM
      1  O1        -0.0170    1.9610    0.6630 O.2     1  UNL1       -0.2702
      2  C1         0.7860    1.3020   -0.0720 C.2     1  UNL1        0.2450
      3  N1         0.2320    0.5480   -1.1370 N.am    1  UNL1       -0.3057
      4  C2        -1.2350    0.5290   -1.3380 C.3     1  UNL1        0.0565
      5  C3        -1.9060   -0.0840   -0.1860 C.ar    1  UNL1        0.0863
      6  N2        -1.2140   -0.5780    0.8560 N.ar    1  UNL1       -0.1737
      7  N3        -1.7920   -1.1590    1.9110 N.ar    1  UNL1       -0.2424
      8  C4        -3.1280   -1.2650    1.9550 C.ar    1  UNL1        0.2725
      9  O2        -3.6440   -1.8270    2.9800 O.2     1  UNL1       -0.2658
     10  C5        -3.9340   -0.7940    0.9440 C.ar    1  UNL1        0.0496
     11  C6        -5.3100   -0.8990    1.0030 C.ar    1  UNL1       -0.0487
     12  C7        -6.0400   -0.3970   -0.0420 C.ar    1  UNL1       -0.0610
     13  C8        -5.4080    0.2000   -1.1290 C.ar    1  UNL1       -0.0611
     14  C9        -4.0310    0.2940   -1.1620 C.ar    1  UNL1       -0.0520
     15  C10       -3.2940   -0.2010   -0.1300 C.ar    1  UNL1        0.0118
     16  C11        2.2080    1.3230    0.1620 C.ar    1  UNL1        0.0444
     17  C12        2.8400    2.5560    0.2790 C.ar    1  UNL1       -0.0490
     18  C13        4.2030    2.6670    0.4310 C.ar    1  UNL1       -0.0605
     19  C14        4.9460    1.5080    0.4670 C.ar    1  UNL1       -0.0540
     20  C15        4.3470    0.2790    0.3550 C.ar    1  UNL1       -0.0172
     21  C16        5.1630   -0.8530    0.4280 C.ar    1  UNL1       -0.0540
     22  C17        4.6120   -2.1010    0.3530 C.ar    1  UNL1       -0.0612
     23  C18        3.2530   -2.1900    0.2050 C.ar    1  UNL1       -0.0611
     24  C19        2.4240   -1.0880    0.1280 C.ar    1  UNL1       -0.0533
     25  C20        2.9680    0.1860    0.2020 C.ar    1  UNL1       -0.0058
     26 H           0.8202    0.0391   -1.7405 H       1  UNL1        0.1494
     27 H          -1.4621   -0.0351   -2.2184 H       1  UNL1        0.0528
     28 H          -1.5818    1.5357   -1.4439 H       1  UNL1        0.0528
     29 H          -1.2418   -1.5064    2.6498 H       1  UNL1        0.1921
     30 H          -5.7746   -1.3426    1.8107 H       1  UNL1        0.0625
     31 H          -7.0698   -0.4622   -0.0230 H       1  UNL1        0.0618
     32 H          -5.9691    0.5726   -1.9108 H       1  UNL1        0.0618
     33 H          -3.5618    0.7382   -1.9667 H       1  UNL1        0.0624
     34 H           2.2687    3.4150    0.2509 H       1  UNL1        0.0625
     35 H           4.6549    3.5909    0.5155 H       1  UNL1        0.0618
     36 H           5.9702    1.5650    0.5801 H       1  UNL1        0.0624
     37 H           6.1835   -0.7462    0.5387 H       1  UNL1        0.0624
     38 H           5.1996   -2.9478    0.4060 H       1  UNL1        0.0618
     39 H           2.8270   -3.1282    0.1481 H       1  UNL1        0.0618
     40 H           1.4056   -1.2116    0.0160 H       1  UNL1        0.0624
@<TRIPOS>BOND
     1     1     2    2
     2     2     3   am
     3     2    16    1
     4     3     4    1
     5     4     5    1
     6     5     6   ar
     7     5    15   ar
     8     6     7   ar
     9     7     8   ar
    10     8     9    2
    11     8    10   ar
    12    10    11   ar
    13    10    15   ar
    14    11    12   ar
    15    12    13   ar
    16    13    14   ar
    17    14    15   ar
    18    16    17   ar
    19    16    25   ar
    20    17    18   ar
    21    18    19   ar
    22    19    20   ar
    23    20    21   ar
    24    20    25   ar
    25    21    22   ar
    26    22    23   ar
    27    23    24   ar
    28    24    25   ar
    29     3    26    1
    30     4    27    1
    31     4    28    1
    32     7    29    1
    33    11    30    1
    34    12    31    1
    35    13    32    1
    36    14    33    1
    37    17    34    1
    38    18    35    1
    39    19    36    1
    40    21    37    1
    41    22    38    1
    42    23    39    1
    43    24    40    1
@<TRIPOS>MOLECULE
../data/bude_mols_rdkit_confs/molecule_38.pdb
 40 43 0 0 0
SMALL
GASTEIGER

@<TRIPOS>ATOM
      1  O1        -0.2860   -0.5070    1.5180 O.2     1  UNL1       -0.2702
      2  C1        -0.8260    0.0700    0.4830 C.2     1  UNL1        0.2450
      3  N1        -0.1310   -0.1000   -0.6970 N.am    1  UNL1       -0.3057
      4  C2         1.0150   -0.8490   -1.0550 C.3     1  UNL1        0.0565
      5  C3         2.1370   -1.0940   -0.1590 C.ar    1  UNL1        0.0863
      6  N2         2.1900   -2.1590    0.6720 N.ar    1  UNL1       -0.1737
      7  N3         3.3130   -2.5440    1.2920 N.ar    1  UNL1       -0.2424
      8  C4         4.4360   -1.8610    1.0980 C.ar    1  UNL1        0.2725
      9  O2         5.5190   -2.2020    1.6650 O.2     1  UNL1       -0.2658
     10  C5         4.4440   -0.7650    0.2710 C.ar    1  UNL1        0.0496
     11  C6         5.5840    0.0200    0.1390 C.ar    1  UNL1       -0.0487
     12  C7         5.5100    1.1610   -0.6180 C.ar    1  UNL1       -0.0610
     13  C8         4.3440    1.5530   -1.2500 C.ar    1  UNL1       -0.0611
     14  C9         3.2140    0.7990   -1.1390 C.ar    1  UNL1       -0.0520
     15  C10        3.2880   -0.3750   -0.3600 C.ar    1  UNL1        0.0118
     16  C11       -2.0520    0.8150    0.6890 C.ar    1  UNL1        0.0444
     17  C12       -2.2260    1.9220    1.4590 C.ar    1  UNL1       -0.0490
     18  C13       -3.4830    2.5150    1.6380 C.ar    1  UNL1       -0.0605
     19  C14       -4.5730    1.9450    0.9990 C.ar    1  UNL1       -0.0540
     20  C15       -4.4490    0.8160    0.1960 C.ar    1  UNL1       -0.0172
     21  C16       -5.5720    0.2760   -0.4190 C.ar    1  UNL1       -0.0540
     22  C17       -5.4050   -0.8510   -1.1990 C.ar    1  UNL1       -0.0612
     23  C18       -4.1720   -1.4130   -1.3580 C.ar    1  UNL1       -0.0611
     24  C19       -3.0720   -0.8340   -0.7190 C.ar    1  UNL1       -0.0533
     25  C20       -3.2110    0.2770    0.0540 C.ar    1  UNL1       -0.0058
     26 H          -0.5135    0.4073   -1.4491 H       1  UNL1        0.1494
     27 H           1.4283   -0.3569   -1.9105 H       1  UNL1        0.0528
     28 H           0.6000   -1.8318   -1.1371 H       1  UNL1        0.0528
     29 H           3.3064   -3.3279    1.8876 H       1  UNL1        0.1921
     30 H           6.4666   -0.2502    0.6007 H       1  UNL1        0.0625
     31 H           6.3532    1.7472   -0.7196 H       1  UNL1        0.0618
     32 H           4.3294    2.4207   -1.8084 H       1  UNL1        0.0618
     33 H           2.3372    1.0764   -1.6072 H       1  UNL1        0.0624
     34 H          -1.4060    2.3390    1.9267 H       1  UNL1        0.0625
     35 H          -3.5942    3.3533    2.2295 H       1  UNL1        0.0618
     36 H          -5.5047    2.3711    1.1228 H       1  UNL1        0.0624
     37 H          -6.5028    0.7044   -0.2964 H       1  UNL1        0.0624
     38 H          -6.2222   -1.2731   -1.6671 H       1  UNL1        0.0618
     39 H          -4.0530   -2.2550   -1.9427 H       1  UNL1        0.0618
     40 H          -2.1378   -1.2567   -0.8356 H       1  UNL1        0.0624
@<TRIPOS>BOND
     1     1     2    2
     2     2     3   am
     3     2    16    1
     4     3     4    1
     5     4     5    1
     6     5     6   ar
     7     5    15   ar
     8     6     7   ar
     9     7     8   ar
    10     8     9    2
    11     8    10   ar
    12    10    11   ar
    13    10    15   ar
    14    11    12   ar
    15    12    13   ar
    16    13    14   ar
    17    14    15   ar
    18    16    17   ar
    19    16    25   ar
    20    17    18   ar
    21    18    19   ar
    22    19    20   ar
    23    20    21   ar
    24    20    25   ar
    25    21    22   ar
    26    22    23   ar
    27    23    24   ar
    28    24    25   ar
    29     3    26    1
    30     4    27    1
    31     4    28    1
    32     7    29    1
    33    11    30    1
    34    12    31    1
    35    13    32    1
    36    14    33    1
    37    17    34    1
    38    18    35    1
    39    19    36    1
    40    21    37    1
    41    22    38    1
    42    23    39    1
    43    24    40    1
@<TRIPOS>MOLECULE
../data/bude_mols_rdkit_confs/molecule_38.pdb
 40 43 0 0 0
SMALL
GASTEIGER

@<TRIPOS>ATOM
      1  O1        -0.1470   -0.5190    1.4790 O.2     1  UNL1       -0.2702
      2  C1         0.6580   -0.1920    0.5370 C.2     1  UNL1        0.2450
      3  N1         0.2110   -0.3000   -0.7860 N.am    1  UNL1       -0.3057
      4  C2        -1.0140   -0.7560   -1.2740 C.3     1  UNL1        0.0565
      5  C3        -2.1710   -0.9560   -0.3930 C.ar    1  UNL1        0.0863
      6  N2        -2.3740   -2.0250    0.3620 N.ar    1  UNL1       -0.1737
      7  N3        -3.5350   -2.2920    0.9380 N.ar    1  UNL1       -0.2424
      8  C4        -4.5820   -1.4990    0.8070 C.ar    1  UNL1        0.2725
      9  O2        -5.6790   -1.7920    1.3700 O.2     1  UNL1       -0.2658
     10  C5        -4.4390   -0.3460    0.0260 C.ar    1  UNL1        0.0496
     11  C6        -5.4590    0.5700   -0.0750 C.ar    1  UNL1       -0.0487
     12  C7        -5.2410    1.7420   -0.7780 C.ar    1  UNL1       -0.0610
     13  C8        -4.0330    1.9950   -1.3740 C.ar    1  UNL1       -0.0611
     14  C9        -2.9800    1.1000   -1.3010 C.ar    1  UNL1       -0.0520
     15  C10       -3.2170   -0.0630   -0.5870 C.ar    1  UNL1        0.0118
     16  C11        2.0110    0.2950    0.8310 C.ar    1  UNL1        0.0444
     17  C12        2.1960    1.3180    1.7940 C.ar    1  UNL1       -0.0490
     18  C13        3.4070    1.8930    2.0280 C.ar    1  UNL1       -0.0605
     19  C14        4.5260    1.5070    1.3410 C.ar    1  UNL1       -0.0540
     20  C15        4.4130    0.4930    0.3670 C.ar    1  UNL1       -0.0172
     21  C16        5.4970    0.0570   -0.3210 C.ar    1  UNL1       -0.0540
     22  C17        5.4440   -0.9460   -1.2600 C.ar    1  UNL1       -0.0612
     23  C18        4.2000   -1.4970   -1.4680 C.ar    1  UNL1       -0.0611
     24  C19        3.0880   -1.0890   -0.7970 C.ar    1  UNL1       -0.0533
     25  C20        3.1310   -0.0730    0.1600 C.ar    1  UNL1       -0.0058
     26 H           0.8556   -0.0120   -1.4721 H       1  UNL1        0.1494
     27 H          -0.8205   -1.7019   -1.7353 H       1  UNL1        0.0528
     28 H          -1.3332    0.0617   -1.8858 H       1  UNL1        0.0528
     29 H          -3.6206   -3.1083    1.4817 H       1  UNL1        0.1921
     30 H          -6.3735    0.3865    0.3667 H       1  UNL1        0.0625
     31 H          -6.0003    2.4367   -0.8547 H       1  UNL1        0.0618
     32 H          -3.9050    2.8783   -1.8921 H       1  UNL1        0.0618
     33 H          -2.0711    1.2881   -1.7522 H       1  UNL1        0.0624
     34 H           1.3807    1.6394    2.3390 H       1  UNL1        0.0625
     35 H           3.4833    2.6367    2.7394 H       1  UNL1        0.0618
     36 H           5.4378    1.9507    1.5325 H       1  UNL1        0.0624
     37 H           6.4089    0.5009   -0.1300 H       1  UNL1        0.0624
     38 H           6.2804   -1.2642   -1.7740 H       1  UNL1        0.0618
     39 H           4.1060   -2.2533   -2.1638 H       1  UNL1        0.0618
     40 H           2.1851   -1.5448   -1.0020 H       1  UNL1        0.0624
@<TRIPOS>BOND
     1     1     2    2
     2     2     3   am
     3     2    16    1
     4     3     4    1
     5     4     5    1
     6     5     6   ar
     7     5    15   ar
     8     6     7   ar
     9     7     8   ar
    10     8     9    2
    11     8    10   ar
    12    10    11   ar
    13    10    15   ar
    14    11    12   ar
    15    12    13   ar
    16    13    14   ar
    17    14    15   ar
    18    16    17   ar
    19    16    25   ar
    20    17    18   ar
    21    18    19   ar
    22    19    20   ar
    23    20    21   ar
    24    20    25   ar
    25    21    22   ar
    26    22    23   ar
    27    23    24   ar
    28    24    25   ar
    29     3    26    1
    30     4    27    1
    31     4    28    1
    32     7    29    1
    33    11    30    1
    34    12    31    1
    35    13    32    1
    36    14    33    1
    37    17    34    1
    38    18    35    1
    39    19    36    1
    40    21    37    1
    41    22    38    1
    42    23    39    1
    43    24    40    1
@<TRIPOS>MOLECULE
../data/bude_mols_rdkit_confs/molecule_38.pdb
 40 43 0 0 0
SMALL
GASTEIGER

@<TRIPOS>ATOM
      1  O1        -0.0320   -1.8650   -1.1080 O.2     1  UNL1       -0.2702
      2  C1         0.8140   -0.9120   -1.0510 C.2     1  UNL1        0.2450
      3  N1         0.2470    0.3950   -1.1750 N.am    1  UNL1       -0.3057
      4  C2        -1.1470    0.6950   -1.3490 C.3     1  UNL1        0.0565
      5  C3        -1.8960    0.3560   -0.1370 C.ar    1  UNL1        0.0863
      6  N2        -1.3040   -0.1140    0.9500 N.ar    1  UNL1       -0.1737
      7  N3        -1.9920   -0.3660    2.0480 N.ar    1  UNL1       -0.2424
      8  C4        -3.3230   -0.1760    2.1710 C.ar    1  UNL1        0.2725
      9  O2        -3.9750   -0.4120    3.2090 O.2     1  UNL1       -0.2658
     10  C5        -3.9760    0.3190    1.0320 C.ar    1  UNL1        0.0496
     11  C6        -5.3430    0.5470    1.0530 C.ar    1  UNL1       -0.0487
     12  C7        -5.9610    1.0310   -0.0700 C.ar    1  UNL1       -0.0610
     13  C8        -5.2180    1.2900   -1.2240 C.ar    1  UNL1       -0.0611
     14  C9        -3.8730    1.0780   -1.2790 C.ar    1  UNL1       -0.0520
     15  C10       -3.2650    0.5850   -0.1180 C.ar    1  UNL1        0.0118
     16  C11        2.2390   -1.1120   -0.8850 C.ar    1  UNL1        0.0444
     17  C12        2.8790   -1.9510   -1.8020 C.ar    1  UNL1       -0.0490
     18  C13        4.2570   -2.1300   -1.7820 C.ar    1  UNL1       -0.0605
     19  C14        5.0230   -1.4800   -0.8470 C.ar    1  UNL1       -0.0540
     20  C15        4.3640   -0.6520    0.0580 C.ar    1  UNL1       -0.0172
     21  C16        5.1230   -0.0090    1.0250 C.ar    1  UNL1       -0.0540
     22  C17        4.5450    0.8090    1.9780 C.ar    1  UNL1       -0.0612
     23  C18        3.1850    0.9750    1.9500 C.ar    1  UNL1       -0.0611
     24  C19        2.3860    0.3410    0.9830 C.ar    1  UNL1       -0.0533
     25  C20        2.9850   -0.4660    0.0460 C.ar    1  UNL1       -0.0058
     26 H           0.8681    1.1580   -1.1378 H       1  UNL1        0.1494
     27 H          -1.5302    0.1271   -2.1709 H       1  UNL1        0.0528
     28 H          -1.2557    1.7415   -1.5436 H       1  UNL1        0.0528
     29 H          -1.5028   -0.7151    2.8278 H       1  UNL1        0.1921
     30 H          -5.8902    0.3540    1.9064 H       1  UNL1        0.0625
     31 H          -6.9783    1.2047   -0.0632 H       1  UNL1        0.0618
     32 H          -5.7021    1.6528   -2.0601 H       1  UNL1        0.0618
     33 H          -3.3291    1.2713   -2.1345 H       1  UNL1        0.0624
     34 H           2.3157   -2.4484   -2.5094 H       1  UNL1        0.0625
     35 H           4.7053   -2.7531   -2.4718 H       1  UNL1        0.0618
     36 H           6.0475   -1.6002   -0.8159 H       1  UNL1        0.0624
     37 H           6.1460   -0.1449    1.0332 H       1  UNL1        0.0624
     38 H           5.1221    1.2818    2.6911 H       1  UNL1        0.0618
     39 H           2.7368    1.5800    2.6558 H       1  UNL1        0.0618
     40 H           1.3634    0.4797    0.9768 H       1  UNL1        0.0624
@<TRIPOS>BOND
     1     1     2    2
     2     2     3   am
     3     2    16    1
     4     3     4    1
     5     4     5    1
     6     5     6   ar
     7     5    15   ar
     8     6     7   ar
     9     7     8   ar
    10     8     9    2
    11     8    10   ar
    12    10    11   ar
    13    10    15   ar
    14    11    12   ar
    15    12    13   ar
    16    13    14   ar
    17    14    15   ar
    18    16    17   ar
    19    16    25   ar
    20    17    18   ar
    21    18    19   ar
    22    19    20   ar
    23    20    21   ar
    24    20    25   ar
    25    21    22   ar
    26    22    23   ar
    27    23    24   ar
    28    24    25   ar
    29     3    26    1
    30     4    27    1
    31     4    28    1
    32     7    29    1
    33    11    30    1
    34    12    31    1
    35    13    32    1
    36    14    33    1
    37    17    34    1
    38    18    35    1
    39    19    36    1
    40    21    37    1
    41    22    38    1
    42    23    39    1
    43    24    40    1
