@<TRIPOS>MOLECULE
../data/bude_mols_rdkit_confs/molecule_17.pdb
 43 45 0 0 0
SMALL
GASTEIGER

@<TRIPOS>ATOM
      1  C1        -3.5410    0.8770   -3.6690 C.3     1  UNL1        0.0340
      2  N1        -3.3700    0.4910   -2.2700 N.ar    1  UNL1       -0.2318
      3  N2        -2.2240   -0.0340   -1.8540 N.ar    1  UNL1       -0.1724
      4  C2        -1.9940   -0.4130   -0.5860 C.ar    1  UNL1        0.0783
      5  C3        -0.6940   -0.9800   -0.2280 C.3     1  UNL1        0.0685
      6  C4         0.0660    0.0840    0.4910 C.2     1  UNL1        0.2189
      7  O1        -0.3920    1.2340    0.7100 O.2     1  UNL1       -0.2754
      8  N3         1.3760   -0.2050    0.9580 N.am    1  UNL1       -0.3147
      9  C5         2.1240    0.8160    1.6540 C.3     1  UNL1        0.0157
     10  C6         3.4900    0.3060    2.0680 C.3     1  UNL1       -0.0093
     11  C7         4.2320   -0.0950    0.8630 C.ar    1  UNL1       -0.0107
     12  C8         4.4300   -1.4070    0.4750 C.ar    1  UNL1       -0.0558
     13  C9         5.1290   -1.7570   -0.6570 C.ar    1  UNL1       -0.0613
     14  C10        5.6470   -0.7260   -1.4230 C.ar    1  UNL1       -0.0590
     15  C11        5.4700    0.5960   -1.0670 C.ar    1  UNL1       -0.0262
     16  C12        4.7650    0.8970    0.0710 C.ar    1  UNL1        0.1266
     17  F1         4.6230    2.2150    0.3710 F       1  UNL1       -0.2052
     18  C13       -3.0310   -0.2330    0.3140 C.ar    1  UNL1        0.0108
     19  C14       -2.8530   -0.6030    1.6270 C.ar    1  UNL1       -0.0521
     20  C15       -3.8450   -0.4540    2.5880 C.ar    1  UNL1       -0.0611
     21  C16       -5.0360    0.0820    2.1970 C.ar    1  UNL1       -0.0610
     22  C17       -5.2210    0.4570    0.8770 C.ar    1  UNL1       -0.0487
     23  C18       -4.2310    0.3060   -0.0720 C.ar    1  UNL1        0.0498
     24  C19       -4.3760    0.6650   -1.3920 C.ar    1  UNL1        0.2748
     25  O2        -5.4790    1.1650   -1.7710 O.2     1  UNL1       -0.2656
     26 H          -2.6423    0.6655   -4.2098 H       1  UNL1        0.0474
     27 H          -3.7539    1.9240   -3.7266 H       1  UNL1        0.0474
     28 H          -4.3521    0.3241   -4.0950 H       1  UNL1        0.0474
     29 H          -0.1665   -1.2748   -1.1110 H       1  UNL1        0.0423
     30 H          -0.8132   -1.8459    0.3892 H       1  UNL1        0.0423
     31 H           1.7710   -1.0943    0.8085 H       1  UNL1        0.1487
     32 H           1.5819    1.1116    2.5279 H       1  UNL1        0.0465
     33 H           2.2577    1.6480    0.9946 H       1  UNL1        0.0465
     34 H           3.3774   -0.5365    2.7179 H       1  UNL1        0.0329
     35 H           4.0242    1.0761    2.5842 H       1  UNL1        0.0329
     36 H           4.0352   -2.1586    1.0617 H       1  UNL1        0.0621
     37 H           5.2616   -2.7450   -0.9238 H       1  UNL1        0.0618
     38 H           6.1773   -0.9511   -2.2792 H       1  UNL1        0.0618
     39 H           5.8639    1.3503   -1.6509 H       1  UNL1        0.0646
     40 H          -1.9464   -1.0073    1.9093 H       1  UNL1        0.0624
     41 H          -3.6855   -0.7399    3.5667 H       1  UNL1        0.0618
     42 H          -5.7971    0.2078    2.8825 H       1  UNL1        0.0618
     43 H          -6.1272    0.8619    0.5944 H       1  UNL1        0.0625
@<TRIPOS>BOND
     1     1     2    1
     2     2     3   ar
     3     2    24   ar
     4     3     4   ar
     5     4     5    1
     6     4    18   ar
     7     5     6    1
     8     6     7    2
     9     6     8   am
    10     8     9    1
    11     9    10    1
    12    10    11    1
    13    11    12   ar
    14    11    16   ar
    15    12    13   ar
    16    13    14   ar
    17    14    15   ar
    18    15    16   ar
    19    16    17    1
    20    18    19   ar
    21    18    23   ar
    22    19    20   ar
    23    20    21   ar
    24    21    22   ar
    25    22    23   ar
    26    23    24   ar
    27    24    25    2
    28     1    26    1
    29     1    27    1
    30     1    28    1
    31     5    29    1
    32     5    30    1
    33     8    31    1
    34     9    32    1
    35     9    33    1
    36    10    34    1
    37    10    35    1
    38    12    36    1
    39    13    37    1
    40    14    38    1
    41    15    39    1
    42    19    40    1
    43    20    41    1
    44    21    42    1
    45    22    43    1
@<TRIPOS>MOLECULE
../data/bude_mols_rdkit_confs/molecule_17.pdb
 43 45 0 0 0
SMALL
GASTEIGER

@<TRIPOS>ATOM
      1  C1         3.9030    3.5730   -0.9560 C.3     1  UNL1        0.0340
      2  N1         3.6100    2.1940   -0.6280 N.ar    1  UNL1       -0.2318
      3  N2         2.7230    1.5040   -1.3210 N.ar    1  UNL1       -0.1724
      4  C2         2.4010    0.2240   -1.0760 C.ar    1  UNL1        0.0783
      5  C3         1.3680   -0.4080   -1.8910 C.3     1  UNL1        0.0685
      6  C4         0.0830   -0.2630   -1.1430 C.2     1  UNL1        0.2189
      7  O1        -0.3980    0.9240   -1.0220 O.2     1  UNL1       -0.2754
      8  N3        -0.6490   -1.3020   -0.5540 N.am    1  UNL1       -0.3147
      9  C5        -1.8910   -1.0940    0.1540 C.3     1  UNL1        0.0157
     10  C6        -2.9280   -0.5690   -0.8490 C.3     1  UNL1       -0.0093
     11  C7        -4.1800   -0.3320   -0.0520 C.ar    1  UNL1       -0.0107
     12  C8        -5.2450   -1.1900   -0.0870 C.ar    1  UNL1       -0.0558
     13  C9        -6.3910   -0.9620    0.6840 C.ar    1  UNL1       -0.0613
     14  C10       -6.4740    0.1580    1.5160 C.ar    1  UNL1       -0.0590
     15  C11       -5.3840    1.0090    1.5330 C.ar    1  UNL1       -0.0262
     16  C12       -4.2540    0.7860    0.7730 C.ar    1  UNL1        0.1266
     17  F1        -3.1740    1.6210    0.7710 F       1  UNL1       -0.2052
     18  C13        3.0510   -0.3780   -0.0340 C.ar    1  UNL1        0.0108
     19  C14        2.7910   -1.6790    0.2550 C.ar    1  UNL1       -0.0521
     20  C15        3.4730   -2.2950    1.3030 C.ar    1  UNL1       -0.0611
     21  C16        4.4110   -1.6020    2.0550 C.ar    1  UNL1       -0.0610
     22  C17        4.6690   -0.2760    1.7520 C.ar    1  UNL1       -0.0487
     23  C18        3.9800    0.3290    0.7000 C.ar    1  UNL1        0.0498
     24  C19        4.2710    1.6480    0.4010 C.ar    1  UNL1        0.2748
     25  O2         5.1290    2.3240    1.0680 O.2     1  UNL1       -0.2656
     26 H           3.3071    3.8752   -1.7917 H       1  UNL1        0.0474
     27 H           4.9395    3.6681   -1.2040 H       1  UNL1        0.0474
     28 H           3.6790    4.1951   -0.1147 H       1  UNL1        0.0474
     29 H           1.5952   -1.4434   -2.0366 H       1  UNL1        0.0423
     30 H           1.3054    0.0497   -2.8562 H       1  UNL1        0.0423
     31 H          -0.2997   -2.2196   -0.6261 H       1  UNL1        0.1487
     32 H          -1.7475   -0.3779    0.9359 H       1  UNL1        0.0465
     33 H          -2.2277   -2.0111    0.5903 H       1  UNL1        0.0465
     34 H          -3.1055   -1.2936   -1.6160 H       1  UNL1        0.0329
     35 H          -2.5926    0.3244   -1.3330 H       1  UNL1        0.0329
     36 H          -5.2027   -2.0230   -0.6947 H       1  UNL1        0.0621
     37 H          -7.1801   -1.6255    0.6377 H       1  UNL1        0.0618
     38 H          -7.3107    0.3416    2.0915 H       1  UNL1        0.0618
     39 H          -5.4170    1.8442    2.1383 H       1  UNL1        0.0646
     40 H           2.0955   -2.2064   -0.2957 H       1  UNL1        0.0624
     41 H           3.2769   -3.2839    1.5235 H       1  UNL1        0.0618
     42 H           4.9092   -2.0684    2.8291 H       1  UNL1        0.0618
     43 H           5.3627    0.2588    2.2977 H       1  UNL1        0.0625
@<TRIPOS>BOND
     1     1     2    1
     2     2     3   ar
     3     2    24   ar
     4     3     4   ar
     5     4     5    1
     6     4    18   ar
     7     5     6    1
     8     6     7    2
     9     6     8   am
    10     8     9    1
    11     9    10    1
    12    10    11    1
    13    11    12   ar
    14    11    16   ar
    15    12    13   ar
    16    13    14   ar
    17    14    15   ar
    18    15    16   ar
    19    16    17    1
    20    18    19   ar
    21    18    23   ar
    22    19    20   ar
    23    20    21   ar
    24    21    22   ar
    25    22    23   ar
    26    23    24   ar
    27    24    25    2
    28     1    26    1
    29     1    27    1
    30     1    28    1
    31     5    29    1
    32     5    30    1
    33     8    31    1
    34     9    32    1
    35     9    33    1
    36    10    34    1
    37    10    35    1
    38    12    36    1
    39    13    37    1
    40    14    38    1
    41    15    39    1
    42    19    40    1
    43    20    41    1
    44    21    42    1
    45    22    43    1
@<TRIPOS>MOLECULE
../data/bude_mols_rdkit_confs/molecule_17.pdb
 43 45 0 0 0
SMALL
GASTEIGER

@<TRIPOS>ATOM
      1  C1        -4.6300    2.5820    1.7060 C.3     1  UNL1        0.0340
      2  N1        -4.0690    1.4800    0.9110 N.ar    1  UNL1       -0.2318
      3  N2        -3.0440    1.6300    0.1230 N.ar    1  UNL1       -0.1724
      4  C2        -2.4790    0.6730   -0.6300 C.ar    1  UNL1        0.0783
      5  C3        -1.3080    0.9530   -1.4990 C.3     1  UNL1        0.0685
      6  C4        -0.0520    0.4420   -0.9410 C.2     1  UNL1        0.2189
      7  O1        -0.0420   -0.1570    0.1550 O.2     1  UNL1       -0.2754
      8  N3         1.1510    0.6450   -1.6790 N.am    1  UNL1       -0.3147
      9  C5         2.4390    0.1790   -1.2130 C.3     1  UNL1        0.0157
     10  C6         2.8060    0.8060    0.1170 C.3     1  UNL1       -0.0093
     11  C7         4.1120    0.3470    0.6070 C.ar    1  UNL1       -0.0107
     12  C8         5.2010    1.1840    0.5070 C.ar    1  UNL1       -0.0558
     13  C9         6.4560    0.7950    0.9560 C.ar    1  UNL1       -0.0613
     14  C10        6.6120   -0.4600    1.5160 C.ar    1  UNL1       -0.0590
     15  C11        5.5440   -1.3250    1.6330 C.ar    1  UNL1       -0.0262
     16  C12        4.3280   -0.8900    1.1730 C.ar    1  UNL1        0.1266
     17  F1         3.2800   -1.7380    1.2870 F       1  UNL1       -0.2052
     18  C13       -3.0280   -0.5900   -0.5700 C.ar    1  UNL1        0.0108
     19  C14       -2.5030   -1.6490   -1.3210 C.ar    1  UNL1       -0.0521
     20  C15       -3.0860   -2.8800   -1.2230 C.ar    1  UNL1       -0.0611
     21  C16       -4.1800   -3.1060   -0.4020 C.ar    1  UNL1       -0.0610
     22  C17       -4.6780   -2.0460    0.3280 C.ar    1  UNL1       -0.0487
     23  C18       -4.1160   -0.7810    0.2570 C.ar    1  UNL1        0.0498
     24  C19       -4.6340    0.2600    0.9980 C.ar    1  UNL1        0.2748
     25  O2        -5.6340    0.1080    1.7650 O.2     1  UNL1       -0.2656
     26 H          -4.0699    3.4751    1.5228 H       1  UNL1        0.0474
     27 H          -4.5771    2.3347    2.7457 H       1  UNL1        0.0474
     28 H          -5.6514    2.7383    1.4281 H       1  UNL1        0.0474
     29 H          -1.2207    2.0120   -1.6244 H       1  UNL1        0.0423
     30 H          -1.4724    0.4554   -2.4319 H       1  UNL1        0.0423
     31 H           1.1033    1.1210   -2.5395 H       1  UNL1        0.1487
     32 H           3.1846    0.4356   -1.9363 H       1  UNL1        0.0465
     33 H           2.3860   -0.8816   -1.0820 H       1  UNL1        0.0465
     34 H           2.0580    0.5480    0.8373 H       1  UNL1        0.0329
     35 H           2.8628    1.8651   -0.0245 H       1  UNL1        0.0329
     36 H           5.0818    2.1202    0.0895 H       1  UNL1        0.0621
     37 H           7.2620    1.4341    0.8729 H       1  UNL1        0.0618
     38 H           7.5425   -0.7540    1.8517 H       1  UNL1        0.0618
     39 H           5.6558   -2.2623    2.0502 H       1  UNL1        0.0646
     40 H          -1.6891   -1.5016   -1.9382 H       1  UNL1        0.0624
     41 H          -2.7019   -3.6630   -1.7748 H       1  UNL1        0.0618
     42 H          -4.6104   -4.0418   -0.3384 H       1  UNL1        0.0618
     43 H          -5.4916   -2.1995    0.9440 H       1  UNL1        0.0625
@<TRIPOS>BOND
     1     1     2    1
     2     2     3   ar
     3     2    24   ar
     4     3     4   ar
     5     4     5    1
     6     4    18   ar
     7     5     6    1
     8     6     7    2
     9     6     8   am
    10     8     9    1
    11     9    10    1
    12    10    11    1
    13    11    12   ar
    14    11    16   ar
    15    12    13   ar
    16    13    14   ar
    17    14    15   ar
    18    15    16   ar
    19    16    17    1
    20    18    19   ar
    21    18    23   ar
    22    19    20   ar
    23    20    21   ar
    24    21    22   ar
    25    22    23   ar
    26    23    24   ar
    27    24    25    2
    28     1    26    1
    29     1    27    1
    30     1    28    1
    31     5    29    1
    32     5    30    1
    33     8    31    1
    34     9    32    1
    35     9    33    1
    36    10    34    1
    37    10    35    1
    38    12    36    1
    39    13    37    1
    40    14    38    1
    41    15    39    1
    42    19    40    1
    43    20    41    1
    44    21    42    1
    45    22    43    1
@<TRIPOS>MOLECULE
../data/bude_mols_rdkit_confs/molecule_17.pdb
 43 45 0 0 0
SMALL
GASTEIGER

@<TRIPOS>ATOM
      1  C1        -5.0370   -2.9550   -0.2270 C.3     1  UNL1        0.0340
      2  N1        -4.1360   -1.8370    0.0630 N.ar    1  UNL1       -0.2318
      3  N2        -2.9470   -2.0790    0.5390 N.ar    1  UNL1       -0.1724
      4  C2        -2.0620   -1.0720    0.8290 C.ar    1  UNL1        0.0783
      5  C3        -0.7050   -1.4150    1.3260 C.3     1  UNL1        0.0685
      6  C4         0.2200   -1.3810    0.1350 C.2     1  UNL1        0.2189
      7  O1        -0.2020   -1.0280   -0.9670 O.2     1  UNL1       -0.2754
      8  N3         1.5920   -1.7610    0.2400 N.am    1  UNL1       -0.3147
      9  C5         2.5430   -1.7960   -0.8160 C.3     1  UNL1        0.0157
     10  C6         2.9270   -0.5590   -1.5190 C.3     1  UNL1       -0.0093
     11  C7         3.6050    0.4840   -0.7700 C.ar    1  UNL1       -0.0107
     12  C8         5.0060    0.5730   -0.8430 C.ar    1  UNL1       -0.0558
     13  C9         5.7450    1.4970   -0.1660 C.ar    1  UNL1       -0.0613
     14  C10        5.1000    2.4030    0.6420 C.ar    1  UNL1       -0.0590
     15  C11        3.7330    2.3630    0.7520 C.ar    1  UNL1       -0.0262
     16  C12        3.0050    1.3970    0.0380 C.ar    1  UNL1        0.1266
     17  F1         1.6800    1.4050    0.1540 F       1  UNL1       -0.2052
     18  C13       -2.4000    0.2320    0.6280 C.ar    1  UNL1        0.0108
     19  C14       -1.5680    1.2830    0.9090 C.ar    1  UNL1       -0.0521
     20  C15       -1.9380    2.6080    0.7040 C.ar    1  UNL1       -0.0611
     21  C16       -3.1910    2.8700    0.1990 C.ar    1  UNL1       -0.0610
     22  C17       -4.0360    1.7980   -0.0850 C.ar    1  UNL1       -0.0487
     23  C18       -3.6630    0.5010    0.1200 C.ar    1  UNL1        0.0498
     24  C19       -4.5150   -0.5690   -0.1540 C.ar    1  UNL1        0.2748
     25  O2        -5.6550   -0.3280   -0.6130 O.2     1  UNL1       -0.2656
     26 H          -4.5501   -3.8770    0.0131 H       1  UNL1        0.0474
     27 H          -5.2927   -2.9467   -1.2660 H       1  UNL1        0.0474
     28 H          -5.9263   -2.8579    0.3600 H       1  UNL1        0.0474
     29 H          -0.7088   -2.3926    1.7610 H       1  UNL1        0.0423
     30 H          -0.3866   -0.7234    2.0778 H       1  UNL1        0.0423
     31 H           1.9115   -2.0252    1.1329 H       1  UNL1        0.1487
     32 H           2.1530   -2.4614   -1.5576 H       1  UNL1        0.0465
     33 H           3.4461   -2.0789   -0.3167 H       1  UNL1        0.0465
     34 H           2.0305   -0.1304   -1.9158 H       1  UNL1        0.0329
     35 H           3.6541   -0.8807   -2.2351 H       1  UNL1        0.0329
     36 H           5.5046   -0.1011   -1.4447 H       1  UNL1        0.0621
     37 H           6.7727    1.5161   -0.2586 H       1  UNL1        0.0618
     38 H           5.6415    3.1100    1.1635 H       1  UNL1        0.0618
     39 H           3.2417    3.0397    1.3567 H       1  UNL1        0.0646
     40 H          -0.6290    1.0839    1.2880 H       1  UNL1        0.0624
     41 H          -1.2872    3.3776    0.9257 H       1  UNL1        0.0618
     42 H          -3.4992    3.8409    0.0337 H       1  UNL1        0.0618
     43 H          -4.9763    1.9918   -0.4634 H       1  UNL1        0.0625
@<TRIPOS>BOND
     1     1     2    1
     2     2     3   ar
     3     2    24   ar
     4     3     4   ar
     5     4     5    1
     6     4    18   ar
     7     5     6    1
     8     6     7    2
     9     6     8   am
    10     8     9    1
    11     9    10    1
    12    10    11    1
    13    11    12   ar
    14    11    16   ar
    15    12    13   ar
    16    13    14   ar
    17    14    15   ar
    18    15    16   ar
    19    16    17    1
    20    18    19   ar
    21    18    23   ar
    22    19    20   ar
    23    20    21   ar
    24    21    22   ar
    25    22    23   ar
    26    23    24   ar
    27    24    25    2
    28     1    26    1
    29     1    27    1
    30     1    28    1
    31     5    29    1
    32     5    30    1
    33     8    31    1
    34     9    32    1
    35     9    33    1
    36    10    34    1
    37    10    35    1
    38    12    36    1
    39    13    37    1
    40    14    38    1
    41    15    39    1
    42    19    40    1
    43    20    41    1
    44    21    42    1
    45    22    43    1
@<TRIPOS>MOLECULE
../data/bude_mols_rdkit_confs/molecule_17.pdb
 43 45 0 0 0
SMALL
GASTEIGER

@<TRIPOS>ATOM
      1  C1        -4.5440    2.9500   -1.2010 C.3     1  UNL1        0.0340
      2  N1        -4.0630    1.6850   -0.6170 N.ar    1  UNL1       -0.2318
      3  N2        -3.0620    1.6520    0.2250 N.ar    1  UNL1       -0.1724
      4  C2        -2.5490    0.5570    0.8140 C.ar    1  UNL1        0.0783
      5  C3        -1.4400    0.6810    1.7260 C.3     1  UNL1        0.0685
      6  C4        -0.1140    0.2720    1.1290 C.2     1  UNL1        0.2189
      7  O1        -0.0220   -0.1370   -0.0580 O.2     1  UNL1       -0.2754
      8  N3         1.0810    0.3350    1.8860 N.am    1  UNL1       -0.3147
      9  C5         2.3920   -0.0280    1.4050 C.3     1  UNL1        0.0157
     10  C6         2.8360    0.7940    0.2160 C.3     1  UNL1       -0.0093
     11  C7         4.1900    0.3520   -0.1920 C.ar    1  UNL1       -0.0107
     12  C8         5.2790    1.1500    0.1610 C.ar    1  UNL1       -0.0558
     13  C9         6.5450    0.7530   -0.2060 C.ar    1  UNL1       -0.0613
     14  C10        6.7710   -0.4200   -0.9190 C.ar    1  UNL1       -0.0590
     15  C11        5.6660   -1.1660   -1.2400 C.ar    1  UNL1       -0.0262
     16  C12        4.3790   -0.8200   -0.9000 C.ar    1  UNL1        0.1266
     17  F1         3.3020   -1.5540   -1.2160 F       1  UNL1       -0.2052
     18  C13       -3.1490   -0.6530    0.4880 C.ar    1  UNL1        0.0108
     19  C14       -2.6530   -1.7910    1.0720 C.ar    1  UNL1       -0.0521
     20  C15       -3.2280   -3.0290    0.7740 C.ar    1  UNL1       -0.0611
     21  C16       -4.2860   -3.0560   -0.1080 C.ar    1  UNL1       -0.0610
     22  C17       -4.7650   -1.8910   -0.6820 C.ar    1  UNL1       -0.0487
     23  C18       -4.2090   -0.6580   -0.3990 C.ar    1  UNL1        0.0498
     24  C19       -4.6650    0.5240   -0.9530 C.ar    1  UNL1        0.2748
     25  O2        -5.6330    0.4850   -1.7570 O.2     1  UNL1       -0.2656
     26 H          -3.9562    3.7619   -0.8266 H       1  UNL1        0.0474
     27 H          -5.5693    3.0991   -0.9338 H       1  UNL1        0.0474
     28 H          -4.4557    2.9073   -2.2665 H       1  UNL1        0.0474
     29 H          -1.6322    0.0624    2.5776 H       1  UNL1        0.0423
     30 H          -1.3610    1.7166    1.9831 H       1  UNL1        0.0423
     31 H           1.0117    0.6521    2.8155 H       1  UNL1        0.1487
     32 H           2.3766   -1.0591    1.1195 H       1  UNL1        0.0465
     33 H           3.0857    0.1577    2.1982 H       1  UNL1        0.0465
     34 H           2.8615    1.8295    0.4842 H       1  UNL1        0.0329
     35 H           2.1505    0.6601   -0.5946 H       1  UNL1        0.0329
     36 H           5.1373    2.0250    0.6895 H       1  UNL1        0.0621
     37 H           7.3503    1.3430    0.0555 H       1  UNL1        0.0618
     38 H           7.7218   -0.7138   -1.1924 H       1  UNL1        0.0618
     39 H           5.8089   -2.0405   -1.7690 H       1  UNL1        0.0646
     40 H          -1.8588   -1.7329    1.7284 H       1  UNL1        0.0624
     41 H          -2.8708   -3.8975    1.2019 H       1  UNL1        0.0618
     42 H          -4.7280   -3.9581   -0.3443 H       1  UNL1        0.0618
     43 H          -5.5589   -1.9448   -1.3391 H       1  UNL1        0.0625
@<TRIPOS>BOND
     1     1     2    1
     2     2     3   ar
     3     2    24   ar
     4     3     4   ar
     5     4     5    1
     6     4    18   ar
     7     5     6    1
     8     6     7    2
     9     6     8   am
    10     8     9    1
    11     9    10    1
    12    10    11    1
    13    11    12   ar
    14    11    16   ar
    15    12    13   ar
    16    13    14   ar
    17    14    15   ar
    18    15    16   ar
    19    16    17    1
    20    18    19   ar
    21    18    23   ar
    22    19    20   ar
    23    20    21   ar
    24    21    22   ar
    25    22    23   ar
    26    23    24   ar
    27    24    25    2
    28     1    26    1
    29     1    27    1
    30     1    28    1
    31     5    29    1
    32     5    30    1
    33     8    31    1
    34     9    32    1
    35     9    33    1
    36    10    34    1
    37    10    35    1
    38    12    36    1
    39    13    37    1
    40    14    38    1
    41    15    39    1
    42    19    40    1
    43    20    41    1
    44    21    42    1
    45    22    43    1
@<TRIPOS>MOLECULE
../data/bude_mols_rdkit_confs/molecule_17.pdb
 43 45 0 0 0
SMALL
GASTEIGER

@<TRIPOS>ATOM
      1  C1        -3.0660   -1.3760   -3.4320 C.3     1  UNL1        0.0340
      2  N1        -3.3290   -0.7780   -2.1140 N.ar    1  UNL1       -0.2318
      3  N2        -2.4150   -0.7860   -1.1650 N.ar    1  UNL1       -0.1724
      4  C2        -2.5750   -0.2560    0.0660 C.ar    1  UNL1        0.0783
      5  C3        -1.4790   -0.2750    1.0560 C.3     1  UNL1        0.0685
      6  C4        -0.1900   -0.2180    0.2760 C.2     1  UNL1        0.2189
      7  O1        -0.1630   -0.2010   -0.9750 O.2     1  UNL1       -0.2754
      8  N3         1.0460   -0.1810    0.9820 N.am    1  UNL1       -0.3147
      9  C5         2.3250   -0.1390    0.3330 C.3     1  UNL1        0.0157
     10  C6         3.3970   -0.0970    1.4050 C.3     1  UNL1       -0.0093
     11  C7         4.7550   -0.0860    0.8250 C.ar    1  UNL1       -0.0107
     12  C8         5.4780    1.0780    0.7500 C.ar    1  UNL1       -0.0558
     13  C9         6.7560    1.1240    0.2130 C.ar    1  UNL1       -0.0613
     14  C10        7.3480   -0.0300   -0.2750 C.ar    1  UNL1       -0.0590
     15  C11        6.6360   -1.2030   -0.2070 C.ar    1  UNL1       -0.0262
     16  C12        5.3590   -1.2380    0.3330 C.ar    1  UNL1        0.1266
     17  F1         4.6650   -2.3990    0.3950 F       1  UNL1       -0.2052
     18  C13       -3.7690    0.3390    0.3790 C.ar    1  UNL1        0.0108
     19  C14       -4.0420    0.8920    1.6030 C.ar    1  UNL1       -0.0521
     20  C15       -5.2590    1.4760    1.9170 C.ar    1  UNL1       -0.0611
     21  C16       -6.2240    1.4920    0.9370 C.ar    1  UNL1       -0.0610
     22  C17       -5.9810    0.9410   -0.3200 C.ar    1  UNL1       -0.0487
     23  C18       -4.7650    0.3650   -0.6090 C.ar    1  UNL1        0.0498
     24  C19       -4.5130   -0.2020   -1.8410 C.ar    1  UNL1        0.2748
     25  O2        -5.3990   -0.1790   -2.7190 O.2     1  UNL1       -0.2656
     26 H          -2.0750   -1.7792   -3.4494 H       1  UNL1        0.0474
     27 H          -3.1591   -0.6257   -4.1891 H       1  UNL1        0.0474
     28 H          -3.7726   -2.1581   -3.6162 H       1  UNL1        0.0474
     29 H          -1.5204   -1.1740    1.6348 H       1  UNL1        0.0423
     30 H          -1.5566    0.5506    1.7322 H       1  UNL1        0.0423
     31 H           1.0218   -0.1844    1.9662 H       1  UNL1        0.1487
     32 H           2.3916    0.7349   -0.2808 H       1  UNL1        0.0465
     33 H           2.4544   -1.0017   -0.2866 H       1  UNL1        0.0465
     34 H           3.2949   -0.9591    2.0304 H       1  UNL1        0.0329
     35 H           3.2690    0.8044    1.9671 H       1  UNL1        0.0329
     36 H           5.0559    1.9499    1.1057 H       1  UNL1        0.0621
     37 H           7.2672    2.0197    0.1768 H       1  UNL1        0.0618
     38 H           8.2976   -0.0089   -0.6784 H       1  UNL1        0.0618
     39 H           7.0591   -2.0739   -0.5642 H       1  UNL1        0.0646
     40 H          -3.3057    0.8726    2.3258 H       1  UNL1        0.0624
     41 H          -5.4342    1.8827    2.8491 H       1  UNL1        0.0618
     42 H          -7.1424    1.9187    1.1355 H       1  UNL1        0.0618
     43 H          -6.7195    0.9652   -1.0404 H       1  UNL1        0.0625
@<TRIPOS>BOND
     1     1     2    1
     2     2     3   ar
     3     2    24   ar
     4     3     4   ar
     5     4     5    1
     6     4    18   ar
     7     5     6    1
     8     6     7    2
     9     6     8   am
    10     8     9    1
    11     9    10    1
    12    10    11    1
    13    11    12   ar
    14    11    16   ar
    15    12    13   ar
    16    13    14   ar
    17    14    15   ar
    18    15    16   ar
    19    16    17    1
    20    18    19   ar
    21    18    23   ar
    22    19    20   ar
    23    20    21   ar
    24    21    22   ar
    25    22    23   ar
    26    23    24   ar
    27    24    25    2
    28     1    26    1
    29     1    27    1
    30     1    28    1
    31     5    29    1
    32     5    30    1
    33     8    31    1
    34     9    32    1
    35     9    33    1
    36    10    34    1
    37    10    35    1
    38    12    36    1
    39    13    37    1
    40    14    38    1
    41    15    39    1
    42    19    40    1
    43    20    41    1
    44    21    42    1
    45    22    43    1
@<TRIPOS>MOLECULE
../data/bude_mols_rdkit_confs/molecule_17.pdb
 43 45 0 0 0
SMALL
GASTEIGER

@<TRIPOS>ATOM
      1  C1         4.5800    3.3400   -0.1210 C.3     1  UNL1        0.0340
      2  N1         3.9440    2.0470    0.1110 N.ar    1  UNL1       -0.2318
      3  N2         2.6930    1.9500    0.4950 N.ar    1  UNL1       -0.1724
      4  C2         2.0650    0.7860    0.7200 C.ar    1  UNL1        0.0783
      5  C3         0.6470    0.6850    1.1290 C.3     1  UNL1        0.0685
      6  C4        -0.2450    0.3600   -0.0050 C.2     1  UNL1        0.2189
      7  O1        -0.2100    1.0890   -1.0500 O.2     1  UNL1       -0.2754
      8  N3        -1.1410   -0.7410    0.0290 N.am    1  UNL1       -0.3147
      9  C5        -2.0190   -1.1120   -1.0080 C.3     1  UNL1        0.0157
     10  C6        -3.1170   -0.2000   -1.4030 C.3     1  UNL1       -0.0093
     11  C7        -4.1130    0.0110   -0.3210 C.ar    1  UNL1       -0.0107
     12  C8        -5.2570   -0.8120   -0.3740 C.ar    1  UNL1       -0.0558
     13  C9        -6.1850   -0.6880    0.6230 C.ar    1  UNL1       -0.0613
     14  C10       -6.0550    0.1910    1.6590 C.ar    1  UNL1       -0.0590
     15  C11       -4.9420    0.9970    1.7150 C.ar    1  UNL1       -0.0262
     16  C12       -3.9670    0.8960    0.7070 C.ar    1  UNL1        0.1266
     17  F1        -2.8820    1.7160    0.7540 F       1  UNL1       -0.2052
     18  C13        2.7790   -0.3790    0.5370 C.ar    1  UNL1        0.0108
     19  C14        2.2420   -1.6300    0.7450 C.ar    1  UNL1       -0.0521
     20  C15        3.0190   -2.7510    0.5470 C.ar    1  UNL1       -0.0611
     21  C16        4.3320   -2.6750    0.1440 C.ar    1  UNL1       -0.0610
     22  C17        4.8700   -1.4440   -0.0630 C.ar    1  UNL1       -0.0487
     23  C18        4.1070   -0.3100    0.1300 C.ar    1  UNL1        0.0498
     24  C19        4.6730    0.9170   -0.0780 C.ar    1  UNL1        0.2748
     25  O2         5.8930    0.9690   -0.4530 O.2     1  UNL1       -0.2656
     26 H           3.8764    4.1230    0.0705 H       1  UNL1        0.0474
     27 H           4.9102    3.3978   -1.1371 H       1  UNL1        0.0474
     28 H           5.4196    3.4470    0.5336 H       1  UNL1        0.0474
     29 H           0.3427    1.6213    1.5482 H       1  UNL1        0.0423
     30 H           0.5691   -0.1080    1.8431 H       1  UNL1        0.0423
     31 H          -1.1492   -1.2909    0.8455 H       1  UNL1        0.1487
     32 H          -2.4733   -2.0351   -0.7142 H       1  UNL1        0.0465
     33 H          -1.3887   -1.1311   -1.8724 H       1  UNL1        0.0465
     34 H          -3.6182   -0.6170   -2.2514 H       1  UNL1        0.0329
     35 H          -2.6794    0.7507   -1.6255 H       1  UNL1        0.0329
     36 H          -5.3900   -1.4879   -1.1424 H       1  UNL1        0.0621
     37 H          -7.0240   -1.2880    0.5904 H       1  UNL1        0.0618
     38 H          -6.7813    0.2500    2.3897 H       1  UNL1        0.0618
     39 H          -4.8237    1.6692    2.4891 H       1  UNL1        0.0646
     40 H           1.2604   -1.7278    1.0483 H       1  UNL1        0.0624
     41 H           2.6007   -3.6808    0.7068 H       1  UNL1        0.0618
     42 H           4.8933   -3.5294    0.0027 H       1  UNL1        0.0618
     43 H           5.8528   -1.3569   -0.3656 H       1  UNL1        0.0625
@<TRIPOS>BOND
     1     1     2    1
     2     2     3   ar
     3     2    24   ar
     4     3     4   ar
     5     4     5    1
     6     4    18   ar
     7     5     6    1
     8     6     7    2
     9     6     8   am
    10     8     9    1
    11     9    10    1
    12    10    11    1
    13    11    12   ar
    14    11    16   ar
    15    12    13   ar
    16    13    14   ar
    17    14    15   ar
    18    15    16   ar
    19    16    17    1
    20    18    19   ar
    21    18    23   ar
    22    19    20   ar
    23    20    21   ar
    24    21    22   ar
    25    22    23   ar
    26    23    24   ar
    27    24    25    2
    28     1    26    1
    29     1    27    1
    30     1    28    1
    31     5    29    1
    32     5    30    1
    33     8    31    1
    34     9    32    1
    35     9    33    1
    36    10    34    1
    37    10    35    1
    38    12    36    1
    39    13    37    1
    40    14    38    1
    41    15    39    1
    42    19    40    1
    43    20    41    1
    44    21    42    1
    45    22    43    1
@<TRIPOS>MOLECULE
../data/bude_mols_rdkit_confs/molecule_17.pdb
 43 45 0 0 0
SMALL
GASTEIGER

@<TRIPOS>ATOM
      1  C1        -3.7600    0.1450   -2.6680 C.3     1  UNL1        0.0340
      2  N1        -3.4590    0.2260   -1.2390 N.ar    1  UNL1       -0.2318
      3  N2        -2.2380    0.3880   -0.7840 N.ar    1  UNL1       -0.1724
      4  C2        -1.8960    0.4520    0.5130 C.ar    1  UNL1        0.0783
      5  C3        -0.4970    0.6140    0.8630 C.3     1  UNL1        0.0685
      6  C4         0.2960   -0.1250   -0.2020 C.2     1  UNL1        0.2189
      7  O1         0.1500   -1.3640   -0.2760 O.2     1  UNL1       -0.2754
      8  N3         1.1710    0.5730   -1.0840 N.am    1  UNL1       -0.3147
      9  C5         1.8840   -0.1910   -2.0610 C.3     1  UNL1        0.0157
     10  C6         2.8710   -1.1250   -1.4860 C.3     1  UNL1       -0.0093
     11  C7         3.9770   -0.4230   -0.8140 C.ar    1  UNL1       -0.0107
     12  C8         5.1320   -0.2790   -1.6170 C.ar    1  UNL1       -0.0558
     13  C9         6.2170    0.3820   -1.1070 C.ar    1  UNL1       -0.0613
     14  C10        6.1780    0.9020    0.1870 C.ar    1  UNL1       -0.0590
     15  C11        5.0620    0.7650    0.9710 C.ar    1  UNL1       -0.0262
     16  C12        3.9560    0.0890    0.4420 C.ar    1  UNL1        0.1266
     17  F1         2.8570   -0.0640    1.2550 F       1  UNL1       -0.2052
     18  C13       -2.8950    0.3390    1.4330 C.ar    1  UNL1        0.0108
     19  C14       -2.6290    0.4060    2.7680 C.ar    1  UNL1       -0.0521
     20  C15       -3.6360    0.3060    3.7400 C.ar    1  UNL1       -0.0611
     21  C16       -4.9350    0.1360    3.3480 C.ar    1  UNL1       -0.0610
     22  C17       -5.2100    0.0680    1.9770 C.ar    1  UNL1       -0.0487
     23  C18       -4.2210    0.1660    1.0340 C.ar    1  UNL1        0.0498
     24  C19       -4.4570    0.1140   -0.3210 C.ar    1  UNL1        0.2748
     25  O2        -5.6310   -0.0420   -0.7180 O.2     1  UNL1       -0.2656
     26 H          -2.8558    0.2539   -3.2297 H       1  UNL1        0.0474
     27 H          -4.4413    0.9261   -2.9338 H       1  UNL1        0.0474
     28 H          -4.2031   -0.8043   -2.8859 H       1  UNL1        0.0474
     29 H          -0.3049    0.1924    1.8275 H       1  UNL1        0.0423
     30 H          -0.2233    1.6475    0.9053 H       1  UNL1        0.0423
     31 H           1.2813    1.5494   -1.0230 H       1  UNL1        0.1487
     32 H           2.3994    0.4872   -2.7085 H       1  UNL1        0.0465
     33 H           1.1604   -0.7845   -2.5797 H       1  UNL1        0.0465
     34 H           3.2735   -1.7281   -2.2729 H       1  UNL1        0.0329
     35 H           2.3692   -1.7228   -0.7541 H       1  UNL1        0.0329
     36 H           5.1567   -0.6664   -2.5732 H       1  UNL1        0.0621
     37 H           7.0666    0.4960   -1.6817 H       1  UNL1        0.0618
     38 H           7.0027    1.3978    0.5600 H       1  UNL1        0.0618
     39 H           5.0376    1.1508    1.9279 H       1  UNL1        0.0646
     40 H          -1.6522    0.5349    3.0749 H       1  UNL1        0.0624
     41 H          -3.3982    0.3603    4.7428 H       1  UNL1        0.0618
     42 H          -5.6927    0.0598    4.0445 H       1  UNL1        0.0618
     43 H          -6.1862   -0.0597    1.6676 H       1  UNL1        0.0625
@<TRIPOS>BOND
     1     1     2    1
     2     2     3   ar
     3     2    24   ar
     4     3     4   ar
     5     4     5    1
     6     4    18   ar
     7     5     6    1
     8     6     7    2
     9     6     8   am
    10     8     9    1
    11     9    10    1
    12    10    11    1
    13    11    12   ar
    14    11    16   ar
    15    12    13   ar
    16    13    14   ar
    17    14    15   ar
    18    15    16   ar
    19    16    17    1
    20    18    19   ar
    21    18    23   ar
    22    19    20   ar
    23    20    21   ar
    24    21    22   ar
    25    22    23   ar
    26    23    24   ar
    27    24    25    2
    28     1    26    1
    29     1    27    1
    30     1    28    1
    31     5    29    1
    32     5    30    1
    33     8    31    1
    34     9    32    1
    35     9    33    1
    36    10    34    1
    37    10    35    1
    38    12    36    1
    39    13    37    1
    40    14    38    1
    41    15    39    1
    42    19    40    1
    43    20    41    1
    44    21    42    1
    45    22    43    1
@<TRIPOS>MOLECULE
../data/bude_mols_rdkit_confs/molecule_17.pdb
 43 45 0 0 0
SMALL
GASTEIGER

@<TRIPOS>ATOM
      1  C1        -4.1310   -1.1360    3.5280 C.3     1  UNL1        0.0340
      2  N1        -3.6660   -0.8260    2.1670 N.ar    1  UNL1       -0.2318
      3  N2        -2.8900   -1.6390    1.5060 N.ar    1  UNL1       -0.1724
      4  C2        -2.4260   -1.4170    0.2650 C.ar    1  UNL1        0.0783
      5  C3        -1.5200   -2.3020   -0.4790 C.3     1  UNL1        0.0685
      6  C4        -0.0970   -1.8660   -0.3880 C.2     1  UNL1        0.2189
      7  O1         0.4660   -1.7970    0.7690 O.2     1  UNL1       -0.2754
      8  N3         0.7420   -1.5020   -1.4610 N.am    1  UNL1       -0.3147
      9  C5         2.1110   -1.0820   -1.3180 C.3     1  UNL1        0.0157
     10  C6         2.2920    0.1350   -0.4850 C.3     1  UNL1       -0.0093
     11  C7         3.6830    0.5690   -0.3150 C.ar    1  UNL1       -0.0107
     12  C8         4.3010    0.2740    0.8990 C.ar    1  UNL1       -0.0558
     13  C9         5.6030    0.6340    1.1680 C.ar    1  UNL1       -0.0613
     14  C10        6.3600    1.3100    0.2390 C.ar    1  UNL1       -0.0590
     15  C11        5.7540    1.6030   -0.9650 C.ar    1  UNL1       -0.0262
     16  C12        4.4400    1.2410   -1.2380 C.ar    1  UNL1        0.1266
     17  F1         3.8880    1.5530   -2.4310 F       1  UNL1       -0.2052
     18  C13       -2.8390   -0.2190   -0.3000 C.ar    1  UNL1        0.0108
     19  C14       -2.4340    0.1130   -1.5820 C.ar    1  UNL1       -0.0521
     20  C15       -2.8560    1.3000   -2.1420 C.ar    1  UNL1       -0.0611
     21  C16       -3.6800    2.1720   -1.4500 C.ar    1  UNL1       -0.0610
     22  C17       -4.0880    1.8490   -0.1760 C.ar    1  UNL1       -0.0487
     23  C18       -3.6590    0.6580    0.3760 C.ar    1  UNL1        0.0498
     24  C19       -4.0750    0.3360    1.6390 C.ar    1  UNL1        0.2748
     25  O2        -4.8310    1.1370    2.2740 O.2     1  UNL1       -0.2656
     26 H          -3.7379   -2.0836    3.8320 H       1  UNL1        0.0474
     27 H          -5.2003   -1.1730    3.5398 H       1  UNL1        0.0474
     28 H          -3.7930   -0.3768    4.2020 H       1  UNL1        0.0474
     29 H          -1.8127   -2.3066   -1.5082 H       1  UNL1        0.0423
     30 H          -1.5901   -3.2783   -0.0467 H       1  UNL1        0.0423
     31 H           0.3657   -1.5376   -2.3700 H       1  UNL1        0.1487
     32 H           2.5042   -0.8826   -2.2930 H       1  UNL1        0.0465
     33 H           2.6250   -1.8759   -0.8175 H       1  UNL1        0.0465
     34 H           1.8853   -0.0630    0.4847 H       1  UNL1        0.0329
     35 H           1.7925    0.9278   -1.0016 H       1  UNL1        0.0329
     36 H           3.7645   -0.2316    1.6212 H       1  UNL1        0.0621
     37 H           6.0177    0.3926    2.0817 H       1  UNL1        0.0618
     38 H           7.3354    1.5849    0.4338 H       1  UNL1        0.0618
     39 H           6.2934    2.1071   -1.6861 H       1  UNL1        0.0646
     40 H          -1.8206   -0.5236   -2.1144 H       1  UNL1        0.0624
     41 H          -2.5514    1.5440   -3.0973 H       1  UNL1        0.0618
     42 H          -3.9853    3.0562   -1.8859 H       1  UNL1        0.0618
     43 H          -4.7026    2.4844    0.3565 H       1  UNL1        0.0625
@<TRIPOS>BOND
     1     1     2    1
     2     2     3   ar
     3     2    24   ar
     4     3     4   ar
     5     4     5    1
     6     4    18   ar
     7     5     6    1
     8     6     7    2
     9     6     8   am
    10     8     9    1
    11     9    10    1
    12    10    11    1
    13    11    12   ar
    14    11    16   ar
    15    12    13   ar
    16    13    14   ar
    17    14    15   ar
    18    15    16   ar
    19    16    17    1
    20    18    19   ar
    21    18    23   ar
    22    19    20   ar
    23    20    21   ar
    24    21    22   ar
    25    22    23   ar
    26    23    24   ar
    27    24    25    2
    28     1    26    1
    29     1    27    1
    30     1    28    1
    31     5    29    1
    32     5    30    1
    33     8    31    1
    34     9    32    1
    35     9    33    1
    36    10    34    1
    37    10    35    1
    38    12    36    1
    39    13    37    1
    40    14    38    1
    41    15    39    1
    42    19    40    1
    43    20    41    1
    44    21    42    1
    45    22    43    1
@<TRIPOS>MOLECULE
../data/bude_mols_rdkit_confs/molecule_17.pdb
 43 45 0 0 0
SMALL
GASTEIGER

@<TRIPOS>ATOM
      1  C1        -4.4830   -2.3500    1.7940 C.3     1  UNL1        0.0340
      2  N1        -3.9280   -1.3620    0.8590 N.ar    1  UNL1       -0.2318
      3  N2        -2.9180   -1.6760    0.0580 N.ar    1  UNL1       -0.1724
      4  C2        -2.3510   -0.8440   -0.8270 C.ar    1  UNL1        0.0783
      5  C3        -1.2280   -1.3040   -1.6920 C.3     1  UNL1        0.0685
      6  C4         0.0720   -0.7470   -1.3350 C.2     1  UNL1        0.2189
      7  O1         0.9480   -0.6550   -2.2250 O.2     1  UNL1       -0.2754
      8  N3         0.3660   -0.3120   -0.0280 N.am    1  UNL1       -0.3147
      9  C5         1.6490    0.2380    0.3750 C.3     1  UNL1        0.0157
     10  C6         2.7030   -0.8030    0.2060 C.3     1  UNL1       -0.0093
     11  C7         4.0570   -0.3570    0.5840 C.ar    1  UNL1       -0.0107
     12  C8         4.6030   -0.7210    1.7940 C.ar    1  UNL1       -0.0558
     13  C9         5.8890   -0.2850    2.1320 C.ar    1  UNL1       -0.0613
     14  C10        6.6160    0.5030    1.2680 C.ar    1  UNL1       -0.0590
     15  C11        6.0720    0.8660    0.0580 C.ar    1  UNL1       -0.0262
     16  C12        4.7850    0.4300   -0.2790 C.ar    1  UNL1        0.1266
     17  F1         4.3380    0.8350   -1.4960 F       1  UNL1       -0.2052
     18  C13       -2.8620    0.4290   -0.9010 C.ar    1  UNL1        0.0108
     19  C14       -2.2960    1.3230   -1.8020 C.ar    1  UNL1       -0.0521
     20  C15       -2.8090    2.5980   -1.8660 C.ar    1  UNL1       -0.0611
     21  C16       -3.8690    2.9780   -1.0460 C.ar    1  UNL1       -0.0610
     22  C17       -4.4130    2.0740   -0.1620 C.ar    1  UNL1       -0.0487
     23  C18       -3.9280    0.7860   -0.0670 C.ar    1  UNL1        0.0498
     24  C19       -4.4560   -0.1310    0.8180 C.ar    1  UNL1        0.2748
     25  O2        -5.4070    0.1970    1.5570 O.2     1  UNL1       -0.2656
     26 H          -3.9490   -3.2721    1.6970 H       1  UNL1        0.0474
     27 H          -5.5168   -2.5113    1.5703 H       1  UNL1        0.0474
     28 H          -4.3874   -1.9861    2.7957 H       1  UNL1        0.0474
     29 H          -1.4465   -1.0246   -2.7015 H       1  UNL1        0.0423
     30 H          -1.1540   -2.3633   -1.5603 H       1  UNL1        0.0423
     31 H          -0.3406   -0.3850    0.6537 H       1  UNL1        0.1487
     32 H           1.6035    0.5380    1.4011 H       1  UNL1        0.0465
     33 H           1.8825    1.0880   -0.2315 H       1  UNL1        0.0465
     34 H           2.7215   -1.0984   -0.8223 H       1  UNL1        0.0329
     35 H           2.4491   -1.6083    0.8632 H       1  UNL1        0.0329
     36 H           4.0669   -1.3122    2.4483 H       1  UNL1        0.0621
     37 H           6.2975   -0.5573    3.0398 H       1  UNL1        0.0618
     38 H           7.5636    0.8194    1.5268 H       1  UNL1        0.0618
     39 H           6.6089    1.4557   -0.5970 H       1  UNL1        0.0646
     40 H          -1.5107    1.0377   -2.4078 H       1  UNL1        0.0624
     41 H          -2.4048    3.2791   -2.5276 H       1  UNL1        0.0618
     42 H          -4.2463    3.9370   -1.1013 H       1  UNL1        0.0618
     43 H          -5.1983    2.3651    0.4410 H       1  UNL1        0.0625
@<TRIPOS>BOND
     1     1     2    1
     2     2     3   ar
     3     2    24   ar
     4     3     4   ar
     5     4     5    1
     6     4    18   ar
     7     5     6    1
     8     6     7    2
     9     6     8   am
    10     8     9    1
    11     9    10    1
    12    10    11    1
    13    11    12   ar
    14    11    16   ar
    15    12    13   ar
    16    13    14   ar
    17    14    15   ar
    18    15    16   ar
    19    16    17    1
    20    18    19   ar
    21    18    23   ar
    22    19    20   ar
    23    20    21   ar
    24    21    22   ar
    25    22    23   ar
    26    23    24   ar
    27    24    25    2
    28     1    26    1
    29     1    27    1
    30     1    28    1
    31     5    29    1
    32     5    30    1
    33     8    31    1
    34     9    32    1
    35     9    33    1
    36    10    34    1
    37    10    35    1
    38    12    36    1
    39    13    37    1
    40    14    38    1
    41    15    39    1
    42    19    40    1
    43    20    41    1
    44    21    42    1
    45    22    43    1
@<TRIPOS>MOLECULE
../data/bude_mols_rdkit_confs/molecule_17.pdb
 43 45 0 0 0
SMALL
GASTEIGER

@<TRIPOS>ATOM
      1  C1        -4.6740    2.2420    2.7050 C.3     1  UNL1        0.0340
      2  N1        -4.0680    1.5350    1.5970 N.ar    1  UNL1       -0.2318
      3  N2        -3.1020    1.9950    0.8330 N.ar    1  UNL1       -0.1724
      4  C2        -2.5380    1.3430   -0.1930 C.ar    1  UNL1        0.0783
      5  C3        -1.4320    1.9220   -0.9360 C.3     1  UNL1        0.0685
      6  C4        -0.0780    1.5990   -0.4540 C.2     1  UNL1        0.2189
      7  O1         0.3690    2.3390    0.4780 O.2     1  UNL1       -0.2754
      8  N3         0.7720    0.5710   -0.9010 N.am    1  UNL1       -0.3147
      9  C5         2.1160    0.4290   -0.3020 C.3     1  UNL1        0.0157
     10  C6         2.8280   -0.7840   -0.8050 C.3     1  UNL1       -0.0093
     11  C7         4.1930   -0.7910   -0.1800 C.ar    1  UNL1       -0.0107
     12  C8         5.3170   -0.6050   -0.9780 C.ar    1  UNL1       -0.0558
     13  C9         6.5930   -0.6410   -0.4610 C.ar    1  UNL1       -0.0613
     14  C10        6.7500   -0.8660    0.8700 C.ar    1  UNL1       -0.0590
     15  C11        5.6270   -1.0550    1.6930 C.ar    1  UNL1       -0.0262
     16  C12        4.3590   -1.0160    1.1630 C.ar    1  UNL1        0.1266
     17  F1         3.2520   -1.1920    1.9520 F       1  UNL1       -0.2052
     18  C13       -3.0270    0.0710   -0.4650 C.ar    1  UNL1        0.0108
     19  C14       -2.5050   -0.6360   -1.5240 C.ar    1  UNL1       -0.0521
     20  C15       -3.0070   -1.9020   -1.8150 C.ar    1  UNL1       -0.0611
     21  C16       -4.0210   -2.4230   -1.0310 C.ar    1  UNL1       -0.0610
     22  C17       -4.5450   -1.7180    0.0280 C.ar    1  UNL1       -0.0487
     23  C18       -4.0490   -0.4440    0.3260 C.ar    1  UNL1        0.0498
     24  C19       -4.5720    0.2940    1.3650 C.ar    1  UNL1        0.2748
     25  O2        -5.4880   -0.2160    2.0460 O.2     1  UNL1       -0.2656
     26 H          -4.2147    3.2028    2.8091 H       1  UNL1        0.0474
     27 H          -4.5347    1.6807    3.6052 H       1  UNL1        0.0474
     28 H          -5.7206    2.3652    2.5198 H       1  UNL1        0.0474
     29 H          -1.5424    2.9859   -0.9075 H       1  UNL1        0.0423
     30 H          -1.4939    1.4958   -1.9155 H       1  UNL1        0.0423
     31 H           0.4745   -0.0482   -1.6063 H       1  UNL1        0.1487
     32 H           2.0144    0.3541    0.7605 H       1  UNL1        0.0465
     33 H           2.6923    1.2878   -0.5763 H       1  UNL1        0.0465
     34 H           2.9134   -0.7430   -1.8708 H       1  UNL1        0.0329
     35 H           2.2896   -1.6727   -0.5496 H       1  UNL1        0.0329
     36 H           5.1910   -0.4349   -1.9880 H       1  UNL1        0.0621
     37 H           7.4129   -0.5000   -1.0717 H       1  UNL1        0.0618
     38 H           7.6975   -0.8982    1.2777 H       1  UNL1        0.0618
     39 H           5.7549   -1.2244    2.7029 H       1  UNL1        0.0646
     40 H          -1.7482   -0.2316   -2.0974 H       1  UNL1        0.0624
     41 H          -2.6272   -2.4451   -2.6061 H       1  UNL1        0.0618
     42 H          -4.3927   -3.3616   -1.2454 H       1  UNL1        0.0618
     43 H          -5.3004   -2.1270    0.5999 H       1  UNL1        0.0625
@<TRIPOS>BOND
     1     1     2    1
     2     2     3   ar
     3     2    24   ar
     4     3     4   ar
     5     4     5    1
     6     4    18   ar
     7     5     6    1
     8     6     7    2
     9     6     8   am
    10     8     9    1
    11     9    10    1
    12    10    11    1
    13    11    12   ar
    14    11    16   ar
    15    12    13   ar
    16    13    14   ar
    17    14    15   ar
    18    15    16   ar
    19    16    17    1
    20    18    19   ar
    21    18    23   ar
    22    19    20   ar
    23    20    21   ar
    24    21    22   ar
    25    22    23   ar
    26    23    24   ar
    27    24    25    2
    28     1    26    1
    29     1    27    1
    30     1    28    1
    31     5    29    1
    32     5    30    1
    33     8    31    1
    34     9    32    1
    35     9    33    1
    36    10    34    1
    37    10    35    1
    38    12    36    1
    39    13    37    1
    40    14    38    1
    41    15    39    1
    42    19    40    1
    43    20    41    1
    44    21    42    1
    45    22    43    1
@<TRIPOS>MOLECULE
../data/bude_mols_rdkit_confs/molecule_17.pdb
 43 45 0 0 0
SMALL
GASTEIGER

@<TRIPOS>ATOM
      1  C1         4.1720   -2.4760    0.9380 C.3     1  UNL1        0.0340
      2  N1         3.7270   -1.1920    0.3770 N.ar    1  UNL1       -0.2318
      3  N2         2.8840   -1.1490   -0.6220 N.ar    1  UNL1       -0.1724
      4  C2         2.4160    0.0100   -1.1910 C.ar    1  UNL1        0.0783
      5  C3         1.4260   -0.1180   -2.2640 C.3     1  UNL1        0.0685
      6  C4         0.0240   -0.0110   -1.7830 C.2     1  UNL1        0.2189
      7  O1        -0.4480    1.0880   -1.5000 O.2     1  UNL1       -0.2754
      8  N3        -0.7880   -1.1790   -1.6410 N.am    1  UNL1       -0.3147
      9  C5        -2.1510   -1.1250   -1.1880 C.3     1  UNL1        0.0157
     10  C6        -2.3320   -0.4440    0.1430 C.3     1  UNL1       -0.0093
     11  C7        -3.7740   -0.5300    0.5020 C.ar    1  UNL1       -0.0107
     12  C8        -4.1380   -1.4380    1.4800 C.ar    1  UNL1       -0.0558
     13  C9        -5.4700   -1.5170    1.8080 C.ar    1  UNL1       -0.0613
     14  C10       -6.4280   -0.7310    1.1990 C.ar    1  UNL1       -0.0590
     15  C11       -6.0540    0.1870    0.2110 C.ar    1  UNL1       -0.0262
     16  C12       -4.7070    0.2630   -0.1180 C.ar    1  UNL1        0.1266
     17  F1        -4.3450    1.1510   -1.0880 F       1  UNL1       -0.2052
     18  C13        2.8710    1.1770   -0.6710 C.ar    1  UNL1        0.0108
     19  C14        2.4530    2.4110   -1.1850 C.ar    1  UNL1       -0.0521
     20  C15        2.9380    3.5700   -0.6260 C.ar    1  UNL1       -0.0611
     21  C16        3.8260    3.5110    0.4260 C.ar    1  UNL1       -0.0610
     22  C17        4.2430    2.3000    0.9350 C.ar    1  UNL1       -0.0487
     23  C18        3.7720    1.1260    0.3950 C.ar    1  UNL1        0.0498
     24  C19        4.2100   -0.0710    0.9330 C.ar    1  UNL1        0.2748
     25  O2         5.0220   -0.1260    1.8900 O.2     1  UNL1       -0.2656
     26 H           3.7108   -3.2787    0.4014 H       1  UNL1        0.0474
     27 H           3.8935   -2.5302    1.9697 H       1  UNL1        0.0474
     28 H           5.2356   -2.5537    0.8512 H       1  UNL1        0.0474
     29 H           1.5531   -1.0718   -2.7319 H       1  UNL1        0.0423
     30 H           1.5905    0.6896   -2.9463 H       1  UNL1        0.0423
     31 H          -0.3980   -2.0554   -1.8624 H       1  UNL1        0.1487
     32 H          -2.5171   -2.1270   -1.1049 H       1  UNL1        0.0465
     33 H          -2.6913   -0.5448   -1.9065 H       1  UNL1        0.0465
     34 H          -2.0347    0.5814    0.0713 H       1  UNL1        0.0329
     35 H          -1.7304   -0.9166    0.8911 H       1  UNL1        0.0329
     36 H          -3.4356   -2.0336    1.9457 H       1  UNL1        0.0621
     37 H          -5.7647   -2.1874    2.5351 H       1  UNL1        0.0618
     38 H          -7.4192   -0.8204    1.4722 H       1  UNL1        0.0618
     39 H          -6.7534    0.7853   -0.2558 H       1  UNL1        0.0646
     40 H           1.7889    2.4500   -1.9739 H       1  UNL1        0.0624
     41 H           2.6365    4.4854   -0.9949 H       1  UNL1        0.0618
     42 H           4.1841    4.3864    0.8388 H       1  UNL1        0.0618
     43 H           4.9096    2.2741    1.7224 H       1  UNL1        0.0625
@<TRIPOS>BOND
     1     1     2    1
     2     2     3   ar
     3     2    24   ar
     4     3     4   ar
     5     4     5    1
     6     4    18   ar
     7     5     6    1
     8     6     7    2
     9     6     8   am
    10     8     9    1
    11     9    10    1
    12    10    11    1
    13    11    12   ar
    14    11    16   ar
    15    12    13   ar
    16    13    14   ar
    17    14    15   ar
    18    15    16   ar
    19    16    17    1
    20    18    19   ar
    21    18    23   ar
    22    19    20   ar
    23    20    21   ar
    24    21    22   ar
    25    22    23   ar
    26    23    24   ar
    27    24    25    2
    28     1    26    1
    29     1    27    1
    30     1    28    1
    31     5    29    1
    32     5    30    1
    33     8    31    1
    34     9    32    1
    35     9    33    1
    36    10    34    1
    37    10    35    1
    38    12    36    1
    39    13    37    1
    40    14    38    1
    41    15    39    1
    42    19    40    1
    43    20    41    1
    44    21    42    1
    45    22    43    1
@<TRIPOS>MOLECULE
../data/bude_mols_rdkit_confs/molecule_17.pdb
 43 45 0 0 0
SMALL
GASTEIGER

@<TRIPOS>ATOM
      1  C1        -3.4320   -2.9390   -1.5350 C.3     1  UNL1        0.0340
      2  N1        -3.4840   -1.6470   -0.8670 N.ar    1  UNL1       -0.2318
      3  N2        -2.4140   -1.0710   -0.3590 N.ar    1  UNL1       -0.1724
      4  C2        -2.3940    0.1280    0.3030 C.ar    1  UNL1        0.0783
      5  C3        -1.1840    0.6690    0.9130 C.3     1  UNL1        0.0685
      6  C4         0.1230    0.3280    0.2810 C.2     1  UNL1        0.2189
      7  O1         0.5060    1.0120   -0.7020 O.2     1  UNL1       -0.2754
      8  N3         0.9230   -0.7230    0.7690 N.am    1  UNL1       -0.3147
      9  C5         2.2640   -1.0890    0.2780 C.3     1  UNL1        0.0157
     10  C6         3.1560    0.0700    0.6150 C.3     1  UNL1       -0.0093
     11  C7         4.5660   -0.0060    0.3570 C.ar    1  UNL1       -0.0107
     12  C8         5.2570   -0.8860   -0.4280 C.ar    1  UNL1       -0.0558
     13  C9         6.6450   -0.8400   -0.5380 C.ar    1  UNL1       -0.0613
     14  C10        7.3720    0.0880    0.1310 C.ar    1  UNL1       -0.0590
     15  C11        6.7260    0.9870    0.9240 C.ar    1  UNL1       -0.0262
     16  C12        5.3610    0.9450    1.0410 C.ar    1  UNL1        0.1266
     17  F1         4.7450    1.8560    1.8490 F       1  UNL1       -0.2052
     18  C13       -3.5850    0.8140    0.4630 C.ar    1  UNL1        0.0108
     19  C14       -3.6810    2.0340    1.1180 C.ar    1  UNL1       -0.0521
     20  C15       -4.8940    2.6940    1.2670 C.ar    1  UNL1       -0.0611
     21  C16       -6.0030    2.0880    0.7390 C.ar    1  UNL1       -0.0610
     22  C17       -5.9240    0.8900    0.0930 C.ar    1  UNL1       -0.0487
     23  C18       -4.7240    0.2060   -0.0720 C.ar    1  UNL1        0.0498
     24  C19       -4.6760   -1.0040   -0.7260 C.ar    1  UNL1        0.2748
     25  O2        -5.7270   -1.5150   -1.1960 O.2     1  UNL1       -0.2656
     26 H          -2.4216   -3.2907   -1.5533 H       1  UNL1        0.0474
     27 H          -3.7923   -2.8370   -2.5373 H       1  UNL1        0.0474
     28 H          -4.0438   -3.6392   -1.0055 H       1  UNL1        0.0474
     29 H          -1.1514    0.3186    1.9235 H       1  UNL1        0.0423
     30 H          -1.2727    1.7289    0.7958 H       1  UNL1        0.0423
     31 H           0.5532   -1.2624    1.5049 H       1  UNL1        0.1487
     32 H           2.2426   -1.2469   -0.7801 H       1  UNL1        0.0465
     33 H           2.6123   -1.9961    0.7261 H       1  UNL1        0.0465
     34 H           3.0440    0.2502    1.6637 H       1  UNL1        0.0329
     35 H           2.8259    0.8353   -0.0560 H       1  UNL1        0.0329
     36 H           4.7358   -1.6048   -0.9541 H       1  UNL1        0.0621
     37 H           7.1285   -1.5249   -1.1398 H       1  UNL1        0.0618
     38 H           8.3997    0.1129    0.0407 H       1  UNL1        0.0618
     39 H           7.2652    1.7013    1.4379 H       1  UNL1        0.0646
     40 H          -2.8262    2.4632    1.5056 H       1  UNL1        0.0624
     41 H          -4.9569    3.6015    1.7543 H       1  UNL1        0.0618
     42 H          -6.9212    2.5497    0.8325 H       1  UNL1        0.0618
     43 H          -6.7882    0.4744   -0.2885 H       1  UNL1        0.0625
@<TRIPOS>BOND
     1     1     2    1
     2     2     3   ar
     3     2    24   ar
     4     3     4   ar
     5     4     5    1
     6     4    18   ar
     7     5     6    1
     8     6     7    2
     9     6     8   am
    10     8     9    1
    11     9    10    1
    12    10    11    1
    13    11    12   ar
    14    11    16   ar
    15    12    13   ar
    16    13    14   ar
    17    14    15   ar
    18    15    16   ar
    19    16    17    1
    20    18    19   ar
    21    18    23   ar
    22    19    20   ar
    23    20    21   ar
    24    21    22   ar
    25    22    23   ar
    26    23    24   ar
    27    24    25    2
    28     1    26    1
    29     1    27    1
    30     1    28    1
    31     5    29    1
    32     5    30    1
    33     8    31    1
    34     9    32    1
    35     9    33    1
    36    10    34    1
    37    10    35    1
    38    12    36    1
    39    13    37    1
    40    14    38    1
    41    15    39    1
    42    19    40    1
    43    20    41    1
    44    21    42    1
    45    22    43    1
@<TRIPOS>MOLECULE
../data/bude_mols_rdkit_confs/molecule_17.pdb
 43 45 0 0 0
SMALL
GASTEIGER

@<TRIPOS>ATOM
      1  C1        -4.0930   -3.5750   -0.9150 C.3     1  UNL1        0.0340
      2  N1        -3.7210   -2.2310   -0.5080 N.ar    1  UNL1       -0.2318
      3  N2        -2.4980   -1.9580   -0.0680 N.ar    1  UNL1       -0.1724
      4  C2        -2.1330   -0.7240    0.3130 C.ar    1  UNL1        0.0783
      5  C3        -0.7780   -0.3790    0.8130 C.3     1  UNL1        0.0685
      6  C4         0.0060    0.3530   -0.2070 C.2     1  UNL1        0.2189
      7  O1        -0.3830    0.6470   -1.3410 O.2     1  UNL1       -0.2754
      8  N3         1.3590    0.7680    0.1470 N.am    1  UNL1       -0.3147
      9  C5         2.1440    1.4750   -0.8050 C.3     1  UNL1        0.0157
     10  C6         3.5020    1.8540   -0.3650 C.3     1  UNL1       -0.0093
     11  C7         4.3460    0.6910   -0.0140 C.ar    1  UNL1       -0.0107
     12  C8         5.0740    0.0600   -1.0470 C.ar    1  UNL1       -0.0558
     13  C9         5.8290   -1.0600   -0.8100 C.ar    1  UNL1       -0.0613
     14  C10        5.9260   -1.6390    0.4380 C.ar    1  UNL1       -0.0590
     15  C11        5.2170   -1.0220    1.4440 C.ar    1  UNL1       -0.0262
     16  C12        4.4480    0.1150    1.2200 C.ar    1  UNL1        0.1266
     17  F1         3.8190    0.7240    2.2770 F       1  UNL1       -0.2052
     18  C13       -3.0330    0.3450    0.2630 C.ar    1  UNL1        0.0108
     19  C14       -2.6670    1.6170    0.6500 C.ar    1  UNL1       -0.0521
     20  C15       -3.5460    2.6810    0.6030 C.ar    1  UNL1       -0.0611
     21  C16       -4.8210    2.4160    0.1470 C.ar    1  UNL1       -0.0610
     22  C17       -5.1900    1.1350   -0.2420 C.ar    1  UNL1       -0.0487
     23  C18       -4.3060    0.0790   -0.1920 C.ar    1  UNL1        0.0498
     24  C19       -4.5930   -1.1990   -0.5570 C.ar    1  UNL1        0.2748
     25  O2        -5.7570   -1.4440   -0.9740 O.2     1  UNL1       -0.2656
     26 H          -3.2547   -4.2290   -0.7947 H       1  UNL1        0.0474
     27 H          -4.3941   -3.5663   -1.9417 H       1  UNL1        0.0474
     28 H          -4.9042   -3.9197   -0.3083 H       1  UNL1        0.0474
     29 H          -0.2613   -1.2807    1.0677 H       1  UNL1        0.0423
     30 H          -0.8869    0.2524    1.6699 H       1  UNL1        0.0423
     31 H           1.7253    0.5605    1.0369 H       1  UNL1        0.1487
     32 H           1.6198    2.3719   -1.0613 H       1  UNL1        0.0465
     33 H           2.2819    0.8016   -1.6250 H       1  UNL1        0.0465
     34 H           3.4172    2.4848    0.4951 H       1  UNL1        0.0329
     35 H           3.9742    2.3540   -1.1847 H       1  UNL1        0.0329
     36 H           5.0369    0.4506   -2.0015 H       1  UNL1        0.0621
     37 H           6.3446   -1.4861   -1.5959 H       1  UNL1        0.0618
     38 H           6.4952   -2.4830    0.6074 H       1  UNL1        0.0618
     39 H           5.2575   -1.4166    2.3967 H       1  UNL1        0.0646
     40 H          -1.7047    1.7791    0.9857 H       1  UNL1        0.0624
     41 H          -3.2627    3.6294    0.8951 H       1  UNL1        0.0618
     42 H          -5.5110    3.1816    0.0942 H       1  UNL1        0.0618
     43 H          -6.1518    0.9694   -0.5775 H       1  UNL1        0.0625
@<TRIPOS>BOND
     1     1     2    1
     2     2     3   ar
     3     2    24   ar
     4     3     4   ar
     5     4     5    1
     6     4    18   ar
     7     5     6    1
     8     6     7    2
     9     6     8   am
    10     8     9    1
    11     9    10    1
    12    10    11    1
    13    11    12   ar
    14    11    16   ar
    15    12    13   ar
    16    13    14   ar
    17    14    15   ar
    18    15    16   ar
    19    16    17    1
    20    18    19   ar
    21    18    23   ar
    22    19    20   ar
    23    20    21   ar
    24    21    22   ar
    25    22    23   ar
    26    23    24   ar
    27    24    25    2
    28     1    26    1
    29     1    27    1
    30     1    28    1
    31     5    29    1
    32     5    30    1
    33     8    31    1
    34     9    32    1
    35     9    33    1
    36    10    34    1
    37    10    35    1
    38    12    36    1
    39    13    37    1
    40    14    38    1
    41    15    39    1
    42    19    40    1
    43    20    41    1
    44    21    42    1
    45    22    43    1
@<TRIPOS>MOLECULE
../data/bude_mols_rdkit_confs/molecule_17.pdb
 43 45 0 0 0
SMALL
GASTEIGER

@<TRIPOS>ATOM
      1  C1        -4.2050    2.4240   -2.6080 C.3     1  UNL1        0.0340
      2  N1        -3.8310    1.4710   -1.5880 N.ar    1  UNL1       -0.2318
      3  N2        -2.8540    0.6260   -1.8580 N.ar    1  UNL1       -0.1724
      4  C2        -2.4380   -0.3010   -0.9530 C.ar    1  UNL1        0.0783
      5  C3        -1.3240   -1.2330   -1.2700 C.3     1  UNL1        0.0685
      6  C4        -0.0290   -0.8350   -0.7190 C.2     1  UNL1        0.2189
      7  O1         0.4630    0.2570   -1.1900 O.2     1  UNL1       -0.2754
      8  N3         0.7450   -1.4760    0.2450 N.am    1  UNL1       -0.3147
      9  C5         2.0040   -0.9730    0.6940 C.3     1  UNL1        0.0157
     10  C6         3.0710   -0.8740   -0.3750 C.3     1  UNL1       -0.0093
     11  C7         4.2740   -0.3130    0.3120 C.ar    1  UNL1       -0.0107
     12  C8         5.3280   -1.1080    0.7350 C.ar    1  UNL1       -0.0558
     13  C9         6.4110   -0.5520    1.3900 C.ar    1  UNL1       -0.0613
     14  C10        6.4880    0.7980    1.6500 C.ar    1  UNL1       -0.0590
     15  C11        5.4450    1.5990    1.2330 C.ar    1  UNL1       -0.0262
     16  C12        4.3720    1.0440    0.5820 C.ar    1  UNL1        0.1266
     17  F1         3.3350    1.8360    0.1630 F       1  UNL1       -0.2052
     18  C13       -3.0970   -0.2980    0.2470 C.ar    1  UNL1        0.0108
     19  C14       -2.7490   -1.2120    1.2140 C.ar    1  UNL1       -0.0521
     20  C15       -3.3850   -1.2780    2.4630 C.ar    1  UNL1       -0.0611
     21  C16       -4.3950   -0.3820    2.7040 C.ar    1  UNL1       -0.0610
     22  C17       -4.7760    0.5450    1.7720 C.ar    1  UNL1       -0.0487
     23  C18       -4.1290    0.5780    0.5630 C.ar    1  UNL1        0.0498
     24  C19       -4.4890    1.4870   -0.4100 C.ar    1  UNL1        0.2748
     25  O2        -5.4230    2.3160   -0.1910 O.2     1  UNL1       -0.2656
     26 H          -3.5921    2.2794   -3.4731 H       1  UNL1        0.0474
     27 H          -4.0675    3.4176   -2.2355 H       1  UNL1        0.0474
     28 H          -5.2323    2.2806   -2.8707 H       1  UNL1        0.0474
     29 H          -1.2307   -1.2936   -2.3342 H       1  UNL1        0.0423
     30 H          -1.5727   -2.1711   -0.8194 H       1  UNL1        0.0423
     31 H           0.4086   -2.3150    0.6352 H       1  UNL1        0.1487
     32 H           2.3651   -1.6219    1.4644 H       1  UNL1        0.0465
     33 H           1.8240    0.0266    1.0305 H       1  UNL1        0.0465
     34 H           2.7524   -0.2230   -1.1622 H       1  UNL1        0.0329
     35 H           3.2758   -1.8250   -0.8206 H       1  UNL1        0.0329
     36 H           5.3039   -2.1246    0.5592 H       1  UNL1        0.0621
     37 H           7.1834   -1.1659    1.6926 H       1  UNL1        0.0618
     38 H           7.3018    1.1987    2.1422 H       1  UNL1        0.0618
     39 H           5.4717    2.6153    1.4106 H       1  UNL1        0.0646
     40 H          -1.9871   -1.8782    1.0122 H       1  UNL1        0.0624
     41 H          -3.1039   -1.9731    3.1721 H       1  UNL1        0.0618
     42 H          -4.8814   -0.4075    3.6138 H       1  UNL1        0.0618
     43 H          -5.5389    1.2094    1.9759 H       1  UNL1        0.0625
@<TRIPOS>BOND
     1     1     2    1
     2     2     3   ar
     3     2    24   ar
     4     3     4   ar
     5     4     5    1
     6     4    18   ar
     7     5     6    1
     8     6     7    2
     9     6     8   am
    10     8     9    1
    11     9    10    1
    12    10    11    1
    13    11    12   ar
    14    11    16   ar
    15    12    13   ar
    16    13    14   ar
    17    14    15   ar
    18    15    16   ar
    19    16    17    1
    20    18    19   ar
    21    18    23   ar
    22    19    20   ar
    23    20    21   ar
    24    21    22   ar
    25    22    23   ar
    26    23    24   ar
    27    24    25    2
    28     1    26    1
    29     1    27    1
    30     1    28    1
    31     5    29    1
    32     5    30    1
    33     8    31    1
    34     9    32    1
    35     9    33    1
    36    10    34    1
    37    10    35    1
    38    12    36    1
    39    13    37    1
    40    14    38    1
    41    15    39    1
    42    19    40    1
    43    20    41    1
    44    21    42    1
    45    22    43    1
@<TRIPOS>MOLECULE
../data/bude_mols_rdkit_confs/molecule_17.pdb
 43 45 0 0 0
SMALL
GASTEIGER

@<TRIPOS>ATOM
      1  C1        -3.1120    2.6850   -2.3010 C.3     1  UNL1        0.0340
      2  N1        -3.0480    1.5220   -1.4200 N.ar    1  UNL1       -0.2318
      3  N2        -2.0700    1.4570   -0.5630 N.ar    1  UNL1       -0.1724
      4  C2        -1.8810    0.4510    0.3080 C.ar    1  UNL1        0.0783
      5  C3        -0.7800    0.3840    1.2680 C.3     1  UNL1        0.0685
      6  C4         0.2830   -0.5870    0.8400 C.2     1  UNL1        0.2189
      7  O1         0.1920   -1.2440   -0.2290 O.2     1  UNL1       -0.2754
      8  N3         1.4460   -0.8080    1.6270 N.am    1  UNL1       -0.3147
      9  C5         2.4950   -1.7110    1.2840 C.3     1  UNL1        0.0157
     10  C6         3.1650   -1.3820   -0.0290 C.3     1  UNL1       -0.0093
     11  C7         3.7790   -0.0530   -0.0650 C.ar    1  UNL1       -0.0107
     12  C8         3.1400    0.9570   -0.7540 C.ar    1  UNL1       -0.0558
     13  C9         3.6390    2.2350   -0.8440 C.ar    1  UNL1       -0.0613
     14  C10        4.8340    2.5120   -0.2140 C.ar    1  UNL1       -0.0590
     15  C11        5.4880    1.5040    0.4840 C.ar    1  UNL1       -0.0262
     16  C12        4.9730    0.2290    0.5630 C.ar    1  UNL1        0.1266
     17  F1         5.6510   -0.7410    1.2640 F       1  UNL1       -0.2052
     18  C13       -2.8080   -0.5830    0.2740 C.ar    1  UNL1        0.0108
     19  C14       -2.6920   -1.6610    1.1360 C.ar    1  UNL1       -0.0521
     20  C15       -3.6310   -2.6550    1.0640 C.ar    1  UNL1       -0.0611
     21  C16       -4.6810   -2.6350    0.1790 C.ar    1  UNL1       -0.0610
     22  C17       -4.7640   -1.5460   -0.6630 C.ar    1  UNL1       -0.0487
     23  C18       -3.8450   -0.5170   -0.6320 C.ar    1  UNL1        0.0498
     24  C19       -3.9810    0.5590   -1.5100 C.ar    1  UNL1        0.2748
     25  O2        -4.9210    0.6100   -2.3260 O.2     1  UNL1       -0.2656
     26 H          -2.2935    3.3401   -2.0870 H       1  UNL1        0.0474
     27 H          -4.0345    3.2030   -2.1414 H       1  UNL1        0.0474
     28 H          -3.0549    2.3640   -3.3201 H       1  UNL1        0.0474
     29 H          -1.1674    0.0758    2.2166 H       1  UNL1        0.0423
     30 H          -0.3350    1.3552    1.3280 H       1  UNL1        0.0423
     31 H           1.5333   -0.3025    2.4673 H       1  UNL1        0.1487
     32 H           2.0853   -2.6972    1.2178 H       1  UNL1        0.0465
     33 H           3.2408   -1.6329    2.0472 H       1  UNL1        0.0465
     34 H           2.4300   -1.4347   -0.8048 H       1  UNL1        0.0329
     35 H           3.9540   -2.0925   -0.1618 H       1  UNL1        0.0329
     36 H           2.2462    0.7434   -1.2235 H       1  UNL1        0.0621
     37 H           3.1335    2.9663   -1.3682 H       1  UNL1        0.0618
     38 H           5.2392    3.4600   -0.2605 H       1  UNL1        0.0618
     39 H           6.3816    1.7159    0.9548 H       1  UNL1        0.0646
     40 H          -1.9171   -1.7137    1.8156 H       1  UNL1        0.0624
     41 H          -3.5455   -3.4584    1.7061 H       1  UNL1        0.0618
     42 H          -5.3747   -3.3984    0.1457 H       1  UNL1        0.0618
     43 H          -5.5411   -1.4989   -1.3405 H       1  UNL1        0.0625
@<TRIPOS>BOND
     1     1     2    1
     2     2     3   ar
     3     2    24   ar
     4     3     4   ar
     5     4     5    1
     6     4    18   ar
     7     5     6    1
     8     6     7    2
     9     6     8   am
    10     8     9    1
    11     9    10    1
    12    10    11    1
    13    11    12   ar
    14    11    16   ar
    15    12    13   ar
    16    13    14   ar
    17    14    15   ar
    18    15    16   ar
    19    16    17    1
    20    18    19   ar
    21    18    23   ar
    22    19    20   ar
    23    20    21   ar
    24    21    22   ar
    25    22    23   ar
    26    23    24   ar
    27    24    25    2
    28     1    26    1
    29     1    27    1
    30     1    28    1
    31     5    29    1
    32     5    30    1
    33     8    31    1
    34     9    32    1
    35     9    33    1
    36    10    34    1
    37    10    35    1
    38    12    36    1
    39    13    37    1
    40    14    38    1
    41    15    39    1
    42    19    40    1
    43    20    41    1
    44    21    42    1
    45    22    43    1
@<TRIPOS>MOLECULE
../data/bude_mols_rdkit_confs/molecule_17.pdb
 43 45 0 0 0
SMALL
GASTEIGER

@<TRIPOS>ATOM
      1  C1        -4.8320   -3.4090    0.9340 C.3     1  UNL1        0.0340
      2  N1        -4.1460   -2.1470    0.6590 N.ar    1  UNL1       -0.2318
      3  N2        -3.1090   -1.7490    1.3730 N.ar    1  UNL1       -0.1724
      4  C2        -2.4490   -0.5880    1.1510 C.ar    1  UNL1        0.0783
      5  C3        -1.3000   -0.1750    1.9760 C.3     1  UNL1        0.0685
      6  C4         0.0120   -0.3230    1.2930 C.2     1  UNL1        0.2189
      7  O1         0.0360   -0.7460    0.1300 O.2     1  UNL1       -0.2754
      8  N3         1.1580    0.0360    2.0330 N.am    1  UNL1       -0.3147
      9  C5         2.4660   -0.0670    1.4500 C.3     1  UNL1        0.0157
     10  C6         2.5310    0.8430    0.2470 C.3     1  UNL1       -0.0093
     11  C7         3.8880    0.7300   -0.3300 C.ar    1  UNL1       -0.0107
     12  C8         4.7960    1.7380   -0.1040 C.ar    1  UNL1       -0.0558
     13  C9         6.0900    1.6640   -0.6310 C.ar    1  UNL1       -0.0613
     14  C10        6.4000    0.5520   -1.3730 C.ar    1  UNL1       -0.0590
     15  C11        5.4950   -0.4730   -1.6100 C.ar    1  UNL1       -0.0262
     16  C12        4.2170   -0.3740   -1.0740 C.ar    1  UNL1        0.1266
     17  F1         3.3220   -1.3880   -1.3100 F       1  UNL1       -0.2052
     18  C13       -2.8630    0.2490    0.1260 C.ar    1  UNL1        0.0108
     19  C14       -2.1740    1.4280   -0.0840 C.ar    1  UNL1       -0.0521
     20  C15       -2.6150    2.2440   -1.1250 C.ar    1  UNL1       -0.0611
     21  C16       -3.6930    1.8580   -1.8890 C.ar    1  UNL1       -0.0610
     22  C17       -4.3680    0.6780   -1.6630 C.ar    1  UNL1       -0.0487
     23  C18       -3.9400   -0.1380   -0.6350 C.ar    1  UNL1        0.0498
     24  C19       -4.5550   -1.3410   -0.3390 C.ar    1  UNL1        0.2748
     25  O2        -5.5370   -1.6940   -1.0320 O.2     1  UNL1       -0.2656
     26 H          -4.3591   -3.8996    1.7589 H       1  UNL1        0.0474
     27 H          -4.7828   -4.0375    0.0694 H       1  UNL1        0.0474
     28 H          -5.8560   -3.2132    1.1749 H       1  UNL1        0.0474
     29 H          -1.2884   -0.7740    2.8626 H       1  UNL1        0.0423
     30 H          -1.4260    0.8663    2.1874 H       1  UNL1        0.0423
     31 H           1.0601    0.3601    2.9575 H       1  UNL1        0.1487
     32 H           2.6473   -1.0773    1.1478 H       1  UNL1        0.0465
     33 H           3.2083    0.2196    2.1653 H       1  UNL1        0.0465
     34 H           2.3445    1.8538    0.5443 H       1  UNL1        0.0329
     35 H           1.7925    0.5629   -0.4749 H       1  UNL1        0.0329
     36 H           4.5201    2.5571    0.4599 H       1  UNL1        0.0621
     37 H           6.7812    2.4130   -0.4688 H       1  UNL1        0.0618
     38 H           7.3484    0.4746   -1.7725 H       1  UNL1        0.0618
     39 H           5.7662   -1.2936   -2.1740 H       1  UNL1        0.0646
     40 H          -1.3683    1.6931    0.5039 H       1  UNL1        0.0624
     41 H          -2.1342    3.1356   -1.3223 H       1  UNL1        0.0618
     42 H          -4.0061    2.4727   -2.6565 H       1  UNL1        0.0618
     43 H          -5.1746    0.4106   -2.2486 H       1  UNL1        0.0625
@<TRIPOS>BOND
     1     1     2    1
     2     2     3   ar
     3     2    24   ar
     4     3     4   ar
     5     4     5    1
     6     4    18   ar
     7     5     6    1
     8     6     7    2
     9     6     8   am
    10     8     9    1
    11     9    10    1
    12    10    11    1
    13    11    12   ar
    14    11    16   ar
    15    12    13   ar
    16    13    14   ar
    17    14    15   ar
    18    15    16   ar
    19    16    17    1
    20    18    19   ar
    21    18    23   ar
    22    19    20   ar
    23    20    21   ar
    24    21    22   ar
    25    22    23   ar
    26    23    24   ar
    27    24    25    2
    28     1    26    1
    29     1    27    1
    30     1    28    1
    31     5    29    1
    32     5    30    1
    33     8    31    1
    34     9    32    1
    35     9    33    1
    36    10    34    1
    37    10    35    1
    38    12    36    1
    39    13    37    1
    40    14    38    1
    41    15    39    1
    42    19    40    1
    43    20    41    1
    44    21    42    1
    45    22    43    1
@<TRIPOS>MOLECULE
../data/bude_mols_rdkit_confs/molecule_17.pdb
 43 45 0 0 0
SMALL
GASTEIGER

@<TRIPOS>ATOM
      1  C1        -4.4500   -3.4730    0.3610 C.3     1  UNL1        0.0340
      2  N1        -3.9860   -2.1070    0.1270 N.ar    1  UNL1       -0.2318
      3  N2        -2.9250   -1.8420   -0.5990 N.ar    1  UNL1       -0.1724
      4  C2        -2.4550   -0.6020   -0.8420 C.ar    1  UNL1        0.0783
      5  C3        -1.2750   -0.3070   -1.6640 C.3     1  UNL1        0.0685
      6  C4        -0.0390   -0.0010   -0.9470 C.2     1  UNL1        0.2189
      7  O1         0.0870   -0.0420    0.2950 O.2     1  UNL1       -0.2754
      8  N3         1.0890    0.3720   -1.7620 N.am    1  UNL1       -0.3147
      9  C5         2.3810    0.7060   -1.2110 C.3     1  UNL1        0.0157
     10  C6         3.0010   -0.4450   -0.4880 C.3     1  UNL1       -0.0093
     11  C7         4.3250   -0.0930    0.0840 C.ar    1  UNL1       -0.0107
     12  C8         4.7300    1.2150    0.2560 C.ar    1  UNL1       -0.0558
     13  C9         5.9620    1.5130    0.7910 C.ar    1  UNL1       -0.0613
     14  C10        6.7930    0.4860    1.1560 C.ar    1  UNL1       -0.0590
     15  C11        6.4040   -0.8100    0.9880 C.ar    1  UNL1       -0.0262
     16  C12        5.1720   -1.1090    0.4540 C.ar    1  UNL1        0.1266
     17  F1         4.8690   -2.4320    0.3190 F       1  UNL1       -0.2052
     18  C13       -3.1900    0.4260   -0.2530 C.ar    1  UNL1        0.0108
     19  C14       -2.8280    1.7630   -0.4200 C.ar    1  UNL1       -0.0521
     20  C15       -3.5570    2.7930    0.1570 C.ar    1  UNL1       -0.0611
     21  C16       -4.6610    2.5000    0.9110 C.ar    1  UNL1       -0.0610
     22  C17       -5.0480    1.1760    1.0960 C.ar    1  UNL1       -0.0487
     23  C18       -4.3100    0.1670    0.5150 C.ar    1  UNL1        0.0498
     24  C19       -4.7200   -1.1340    0.7100 C.ar    1  UNL1        0.2748
     25  O2        -5.7260   -1.4030    1.3980 O.2     1  UNL1       -0.2656
     26 H          -3.8025   -4.1607   -0.1417 H       1  UNL1        0.0474
     27 H          -5.4459   -3.5808   -0.0152 H       1  UNL1        0.0474
     28 H          -4.4413   -3.6776    1.4112 H       1  UNL1        0.0474
     29 H          -1.5105    0.5359   -2.2796 H       1  UNL1        0.0423
     30 H          -1.0732   -1.2093   -2.2026 H       1  UNL1        0.0423
     31 H           0.9735    0.4004   -2.7393 H       1  UNL1        0.1487
     32 H           2.2637    1.5200   -0.5265 H       1  UNL1        0.0465
     33 H           3.0261    0.9697   -2.0229 H       1  UNL1        0.0465
     34 H           3.1255   -1.2571   -1.1734 H       1  UNL1        0.0329
     35 H           2.3533   -0.7164    0.3193 H       1  UNL1        0.0329
     36 H           4.0982    1.9824   -0.0213 H       1  UNL1        0.0621
     37 H           6.2558    2.4944    0.9155 H       1  UNL1        0.0618
     38 H           7.7191    0.6950    1.5606 H       1  UNL1        0.0618
     39 H           7.0402   -1.5742    1.2642 H       1  UNL1        0.0646
     40 H          -1.9967    1.9918   -0.9872 H       1  UNL1        0.0624
     41 H          -3.2685    3.7741    0.0184 H       1  UNL1        0.0618
     42 H          -5.2071    3.2617    1.3429 H       1  UNL1        0.0618
     43 H          -5.8804    0.9515    1.6633 H       1  UNL1        0.0625
@<TRIPOS>BOND
     1     1     2    1
     2     2     3   ar
     3     2    24   ar
     4     3     4   ar
     5     4     5    1
     6     4    18   ar
     7     5     6    1
     8     6     7    2
     9     6     8   am
    10     8     9    1
    11     9    10    1
    12    10    11    1
    13    11    12   ar
    14    11    16   ar
    15    12    13   ar
    16    13    14   ar
    17    14    15   ar
    18    15    16   ar
    19    16    17    1
    20    18    19   ar
    21    18    23   ar
    22    19    20   ar
    23    20    21   ar
    24    21    22   ar
    25    22    23   ar
    26    23    24   ar
    27    24    25    2
    28     1    26    1
    29     1    27    1
    30     1    28    1
    31     5    29    1
    32     5    30    1
    33     8    31    1
    34     9    32    1
    35     9    33    1
    36    10    34    1
    37    10    35    1
    38    12    36    1
    39    13    37    1
    40    14    38    1
    41    15    39    1
    42    19    40    1
    43    20    41    1
    44    21    42    1
    45    22    43    1
@<TRIPOS>MOLECULE
../data/bude_mols_rdkit_confs/molecule_17.pdb
 43 45 0 0 0
SMALL
GASTEIGER

@<TRIPOS>ATOM
      1  C1        -3.1130   -2.4760    2.3570 C.3     1  UNL1        0.0340
      2  N1        -3.2260   -1.4400    1.3440 N.ar    1  UNL1       -0.2318
      3  N2        -2.2140   -0.6520    0.9950 N.ar    1  UNL1       -0.1724
      4  C2        -2.3250    0.3300    0.0600 C.ar    1  UNL1        0.0783
      5  C3        -1.1530    1.1810   -0.2830 C.3     1  UNL1        0.0685
      6  C4         0.1430    0.6030    0.0800 C.2     1  UNL1        0.2189
      7  O1         0.5240   -0.4230   -0.5710 O.2     1  UNL1       -0.2754
      8  N3         0.9540    1.1250    1.0950 N.am    1  UNL1       -0.3147
      9  C5         2.2540    0.5120    1.3960 C.3     1  UNL1        0.0157
     10  C6         3.1060    0.6670    0.1730 C.3     1  UNL1       -0.0093
     11  C7         4.4480    0.0860    0.3140 C.ar    1  UNL1       -0.0107
     12  C8         4.8490   -0.5430    1.4760 C.ar    1  UNL1       -0.0558
     13  C9         6.1160   -1.0500    1.5200 C.ar    1  UNL1       -0.0613
     14  C10        7.0050   -0.9600    0.4500 C.ar    1  UNL1       -0.0590
     15  C11        6.6000   -0.3340   -0.7060 C.ar    1  UNL1       -0.0262
     16  C12        5.3180    0.1880   -0.7680 C.ar    1  UNL1        0.1266
     17  F1         4.9520    0.7940   -1.9200 F       1  UNL1       -0.2052
     18  C13       -3.5200    0.5610   -0.5850 C.ar    1  UNL1        0.0108
     19  C14       -3.6760    1.5640   -1.5570 C.ar    1  UNL1       -0.0521
     20  C15       -4.8960    1.7470   -2.1740 C.ar    1  UNL1       -0.0611
     21  C16       -5.9560    0.9530   -1.8390 C.ar    1  UNL1       -0.0610
     22  C17       -5.7920   -0.0470   -0.8660 C.ar    1  UNL1       -0.0487
     23  C18       -4.5910   -0.2420   -0.2460 C.ar    1  UNL1        0.0498
     24  C19       -4.3890   -1.2170    0.7160 C.ar    1  UNL1        0.2748
     25  O2        -5.3680   -1.9450    1.0210 O.2     1  UNL1       -0.2656
     26 H          -2.1127   -2.4964    2.7363 H       1  UNL1        0.0474
     27 H          -3.3497   -3.4255    1.9241 H       1  UNL1        0.0474
     28 H          -3.7934   -2.2689    3.1564 H       1  UNL1        0.0474
     29 H          -1.2573    2.1154    0.2278 H       1  UNL1        0.0423
     30 H          -1.1529    1.2847   -1.3480 H       1  UNL1        0.0423
     31 H           0.6509    1.9075    1.6098 H       1  UNL1        0.1487
     32 H           2.1266   -0.5252    1.6259 H       1  UNL1        0.0465
     33 H           2.7110    0.9823    2.2415 H       1  UNL1        0.0465
     34 H           3.2097    1.7111   -0.0370 H       1  UNL1        0.0329
     35 H           2.6171    0.1393   -0.6191 H       1  UNL1        0.0329
     36 H           4.2125   -0.6271    2.2840 H       1  UNL1        0.0621
     37 H           6.4293   -1.5206    2.3834 H       1  UNL1        0.0618
     38 H           7.9544   -1.3577    0.5242 H       1  UNL1        0.0618
     39 H           7.2393   -0.2546   -1.5123 H       1  UNL1        0.0646
     40 H          -2.8760    2.1649   -1.8097 H       1  UNL1        0.0624
     41 H          -5.0080    2.4834   -2.8883 H       1  UNL1        0.0618
     42 H          -6.8708    1.0868   -2.2975 H       1  UNL1        0.0618
     43 H          -6.5943   -0.6456   -0.6150 H       1  UNL1        0.0625
@<TRIPOS>BOND
     1     1     2    1
     2     2     3   ar
     3     2    24   ar
     4     3     4   ar
     5     4     5    1
     6     4    18   ar
     7     5     6    1
     8     6     7    2
     9     6     8   am
    10     8     9    1
    11     9    10    1
    12    10    11    1
    13    11    12   ar
    14    11    16   ar
    15    12    13   ar
    16    13    14   ar
    17    14    15   ar
    18    15    16   ar
    19    16    17    1
    20    18    19   ar
    21    18    23   ar
    22    19    20   ar
    23    20    21   ar
    24    21    22   ar
    25    22    23   ar
    26    23    24   ar
    27    24    25    2
    28     1    26    1
    29     1    27    1
    30     1    28    1
    31     5    29    1
    32     5    30    1
    33     8    31    1
    34     9    32    1
    35     9    33    1
    36    10    34    1
    37    10    35    1
    38    12    36    1
    39    13    37    1
    40    14    38    1
    41    15    39    1
    42    19    40    1
    43    20    41    1
    44    21    42    1
    45    22    43    1
@<TRIPOS>MOLECULE
../data/bude_mols_rdkit_confs/molecule_17.pdb
 43 45 0 0 0
SMALL
GASTEIGER

@<TRIPOS>ATOM
      1  C1        -4.6620   -3.5780    1.4580 C.3     1  UNL1        0.0340
      2  N1        -4.1360   -2.2690    1.0410 N.ar    1  UNL1       -0.2318
      3  N2        -3.1470   -2.1680    0.1700 N.ar    1  UNL1       -0.1724
      4  C2        -2.6710   -0.9770   -0.2060 C.ar    1  UNL1        0.0783
      5  C3        -1.5520   -0.8400   -1.1850 C.3     1  UNL1        0.0685
      6  C4        -0.2980   -0.5100   -0.5000 C.2     1  UNL1        0.2189
      7  O1        -0.3090   -0.3930    0.7540 O.2     1  UNL1       -0.2754
      8  N3         0.9210   -0.3200   -1.2100 N.am    1  UNL1       -0.3147
      9  C5         2.1240    0.0060   -0.4440 C.3     1  UNL1        0.0157
     10  C6         3.2910    0.1610   -1.3980 C.3     1  UNL1       -0.0093
     11  C7         4.4990    0.4860   -0.6170 C.ar    1  UNL1       -0.0107
     12  C8         5.4350   -0.5110   -0.4070 C.ar    1  UNL1       -0.0558
     13  C9         6.5830   -0.2580    0.3190 C.ar    1  UNL1       -0.0613
     14  C10        6.7770    0.9890    0.8230 C.ar    1  UNL1       -0.0590
     15  C11        5.8460    1.9960    0.6190 C.ar    1  UNL1       -0.0262
     16  C12        4.6900    1.7560   -0.1070 C.ar    1  UNL1        0.1266
     17  F1         3.7800    2.7460   -0.3050 F       1  UNL1       -0.2052
     18  C13       -3.1830    0.2150    0.2900 C.ar    1  UNL1        0.0108
     19  C14       -2.7030    1.4490   -0.0900 C.ar    1  UNL1       -0.0521
     20  C15       -3.2190    2.6410    0.4080 C.ar    1  UNL1       -0.0611
     21  C16       -4.2510    2.5290    1.3160 C.ar    1  UNL1       -0.0610
     22  C17       -4.7310    1.2910    1.6960 C.ar    1  UNL1       -0.0487
     23  C18       -4.2150    0.1130    1.1980 C.ar    1  UNL1        0.0498
     24  C19       -4.6600   -1.1360    1.5450 C.ar    1  UNL1        0.2748
     25  O2        -5.5990   -1.2250    2.3720 O.2     1  UNL1       -0.2656
     26 H          -4.1248   -4.3549    0.9553 H       1  UNL1        0.0474
     27 H          -5.7001   -3.6418    1.2065 H       1  UNL1        0.0474
     28 H          -4.5438   -3.6894    2.5156 H       1  UNL1        0.0474
     29 H          -1.7874   -0.0613   -1.8801 H       1  UNL1        0.0423
     30 H          -1.4283   -1.7714   -1.6969 H       1  UNL1        0.0423
     31 H           0.9537   -0.4057   -2.1902 H       1  UNL1        0.1487
     32 H           2.3309   -0.7811    0.2507 H       1  UNL1        0.0465
     33 H           1.9734    0.9189    0.0934 H       1  UNL1        0.0465
     34 H           3.0872    0.9501   -2.0913 H       1  UNL1        0.0329
     35 H           3.4414   -0.7484   -1.9414 H       1  UNL1        0.0329
     36 H           5.2741   -1.4530   -0.7965 H       1  UNL1        0.0621
     37 H           7.2804   -1.0024    0.4757 H       1  UNL1        0.0618
     38 H           7.6311    1.1897    1.3664 H       1  UNL1        0.0618
     39 H           6.0157    2.9349    1.0122 H       1  UNL1        0.0646
     40 H          -1.9293    1.4909   -0.7717 H       1  UNL1        0.0624
     41 H          -2.8498    3.5588    0.1141 H       1  UNL1        0.0618
     42 H          -4.6705    3.3823    1.7172 H       1  UNL1        0.0618
     43 H          -5.5044    1.2458    2.3778 H       1  UNL1        0.0625
@<TRIPOS>BOND
     1     1     2    1
     2     2     3   ar
     3     2    24   ar
     4     3     4   ar
     5     4     5    1
     6     4    18   ar
     7     5     6    1
     8     6     7    2
     9     6     8   am
    10     8     9    1
    11     9    10    1
    12    10    11    1
    13    11    12   ar
    14    11    16   ar
    15    12    13   ar
    16    13    14   ar
    17    14    15   ar
    18    15    16   ar
    19    16    17    1
    20    18    19   ar
    21    18    23   ar
    22    19    20   ar
    23    20    21   ar
    24    21    22   ar
    25    22    23   ar
    26    23    24   ar
    27    24    25    2
    28     1    26    1
    29     1    27    1
    30     1    28    1
    31     5    29    1
    32     5    30    1
    33     8    31    1
    34     9    32    1
    35     9    33    1
    36    10    34    1
    37    10    35    1
    38    12    36    1
    39    13    37    1
    40    14    38    1
    41    15    39    1
    42    19    40    1
    43    20    41    1
    44    21    42    1
    45    22    43    1
@<TRIPOS>MOLECULE
../data/bude_mols_rdkit_confs/molecule_17.pdb
 43 45 0 0 0
SMALL
GASTEIGER

@<TRIPOS>ATOM
      1  C1        -4.6870   -1.7950    2.5250 C.3     1  UNL1        0.0340
      2  N1        -4.0320   -1.1000    1.4120 N.ar    1  UNL1       -0.2318
      3  N2        -3.1220   -1.8120    0.7620 N.ar    1  UNL1       -0.1724
      4  C2        -2.4420   -1.2960   -0.2810 C.ar    1  UNL1        0.0783
      5  C3        -1.4250   -2.1140   -0.9640 C.3     1  UNL1        0.0685
      6  C4        -0.0360   -1.7720   -0.5450 C.2     1  UNL1        0.2189
      7  O1         0.9320   -2.5070   -0.9360 O.2     1  UNL1       -0.2754
      8  N3         0.2970   -0.6600    0.2780 N.am    1  UNL1       -0.3147
      9  C5         1.6370   -0.3150    0.6870 C.3     1  UNL1        0.0157
     10  C6         2.4580   -0.0300   -0.5270 C.3     1  UNL1       -0.0093
     11  C7         3.8610    0.3070   -0.2220 C.ar    1  UNL1       -0.0107
     12  C8         4.2950    1.6020   -0.2830 C.ar    1  UNL1       -0.0558
     13  C9         5.6100    1.9500   -0.0000 C.ar    1  UNL1       -0.0613
     14  C10        6.5190    0.9880    0.3520 C.ar    1  UNL1       -0.0590
     15  C11        6.0850   -0.3190    0.4140 C.ar    1  UNL1       -0.0262
     16  C12        4.7790   -0.6690    0.1340 C.ar    1  UNL1        0.1266
     17  F1         4.3590   -1.9720    0.2010 F       1  UNL1       -0.2052
     18  C13       -2.7240    0.0010   -0.6520 C.ar    1  UNL1        0.0108
     19  C14       -2.0710    0.6010   -1.7180 C.ar    1  UNL1       -0.0521
     20  C15       -2.3520    1.8920   -2.0950 C.ar    1  UNL1       -0.0611
     21  C16       -3.3000    2.6350   -1.4180 C.ar    1  UNL1       -0.0610
     22  C17       -3.9610    2.0630   -0.3580 C.ar    1  UNL1       -0.0487
     23  C18       -3.6740    0.7700    0.0140 C.ar    1  UNL1        0.0498
     24  C19       -4.3260    0.1560    1.0780 C.ar    1  UNL1        0.2748
     25  O2        -5.1990    0.7770    1.7360 O.2     1  UNL1       -0.2656
     26 H          -4.2943   -2.7870    2.6066 H       1  UNL1        0.0474
     27 H          -5.7408   -1.8422    2.3454 H       1  UNL1        0.0474
     28 H          -4.5038   -1.2629    3.4351 H       1  UNL1        0.0474
     29 H          -1.5125   -1.9585   -2.0190 H       1  UNL1        0.0423
     30 H          -1.6004   -3.1357   -0.6990 H       1  UNL1        0.0423
     31 H          -0.4389   -0.0854    0.5904 H       1  UNL1        0.1487
     32 H           2.0682   -1.1312    1.2281 H       1  UNL1        0.0465
     33 H           1.6112    0.5496    1.3169 H       1  UNL1        0.0465
     34 H           2.0173    0.7940   -1.0482 H       1  UNL1        0.0329
     35 H           2.4696   -0.9231   -1.1161 H       1  UNL1        0.0329
     36 H           3.6265    2.3426   -0.5469 H       1  UNL1        0.0621
     37 H           5.9031    2.9379   -0.0553 H       1  UNL1        0.0618
     38 H           7.4985    1.2339    0.5643 H       1  UNL1        0.0618
     39 H           6.7559   -1.0575    0.6774 H       1  UNL1        0.0646
     40 H          -1.3587    0.0664   -2.2394 H       1  UNL1        0.0624
     41 H          -1.8494    2.3114   -2.8928 H       1  UNL1        0.0618
     42 H          -3.5083    3.6044   -1.7041 H       1  UNL1        0.0618
     43 H          -4.6725    2.6031    0.1589 H       1  UNL1        0.0625
@<TRIPOS>BOND
     1     1     2    1
     2     2     3   ar
     3     2    24   ar
     4     3     4   ar
     5     4     5    1
     6     4    18   ar
     7     5     6    1
     8     6     7    2
     9     6     8   am
    10     8     9    1
    11     9    10    1
    12    10    11    1
    13    11    12   ar
    14    11    16   ar
    15    12    13   ar
    16    13    14   ar
    17    14    15   ar
    18    15    16   ar
    19    16    17    1
    20    18    19   ar
    21    18    23   ar
    22    19    20   ar
    23    20    21   ar
    24    21    22   ar
    25    22    23   ar
    26    23    24   ar
    27    24    25    2
    28     1    26    1
    29     1    27    1
    30     1    28    1
    31     5    29    1
    32     5    30    1
    33     8    31    1
    34     9    32    1
    35     9    33    1
    36    10    34    1
    37    10    35    1
    38    12    36    1
    39    13    37    1
    40    14    38    1
    41    15    39    1
    42    19    40    1
    43    20    41    1
    44    21    42    1
    45    22    43    1
@<TRIPOS>MOLECULE
../data/bude_mols_rdkit_confs/molecule_17.pdb
 43 45 0 0 0
SMALL
GASTEIGER

@<TRIPOS>ATOM
      1  C1        -4.2220   -2.7530    1.9360 C.3     1  UNL1        0.0340
      2  N1        -3.8220   -1.5490    1.2350 N.ar    1  UNL1       -0.2318
      3  N2        -2.5780   -1.1660    1.2840 N.ar    1  UNL1       -0.1724
      4  C2        -2.0890   -0.0520    0.6620 C.ar    1  UNL1        0.0783
      5  C3        -0.6760    0.3610    0.7210 C.3     1  UNL1        0.0685
      6  C4         0.0470    0.0020   -0.5510 C.2     1  UNL1        0.2189
      7  O1        -0.5280   -0.5940   -1.4870 O.2     1  UNL1       -0.2754
      8  N3         1.4150    0.3390   -0.7080 N.am    1  UNL1       -0.3147
      9  C5         2.1870    0.0230   -1.9010 C.3     1  UNL1        0.0157
     10  C6         3.5740    0.5400   -1.7490 C.3     1  UNL1       -0.0093
     11  C7         4.3480    0.0230   -0.6220 C.ar    1  UNL1       -0.0107
     12  C8         4.5210    0.8050    0.5180 C.ar    1  UNL1       -0.0558
     13  C9         5.2370    0.3750    1.6110 C.ar    1  UNL1       -0.0613
     14  C10        5.8160   -0.8730    1.6060 C.ar    1  UNL1       -0.0590
     15  C11        5.6600   -1.6620    0.4960 C.ar    1  UNL1       -0.0262
     16  C12        4.9350   -1.2210   -0.6060 C.ar    1  UNL1        0.1266
     17  F1         4.8220   -2.0510   -1.6660 F       1  UNL1       -0.2052
     18  C13       -3.0060    0.6860   -0.0550 C.ar    1  UNL1        0.0108
     19  C14       -2.5920    1.8340   -0.7130 C.ar    1  UNL1       -0.0521
     20  C15       -3.4650    2.6130   -1.4410 C.ar    1  UNL1       -0.0611
     21  C16       -4.8150    2.2490   -1.5290 C.ar    1  UNL1       -0.0610
     22  C17       -5.1890    1.1030   -0.8620 C.ar    1  UNL1       -0.0487
     23  C18       -4.3310    0.3330   -0.1430 C.ar    1  UNL1        0.0498
     24  C19       -4.7190   -0.8230    0.5320 C.ar    1  UNL1        0.2748
     25  O2        -5.9080   -1.1740    0.4740 O.2     1  UNL1       -0.2656
     26 H          -3.3722   -3.1784    2.4278 H       1  UNL1        0.0474
     27 H          -4.6189   -3.4581    1.2359 H       1  UNL1        0.0474
     28 H          -4.9701   -2.5113    2.6618 H       1  UNL1        0.0474
     29 H          -0.2018   -0.1321    1.5437 H       1  UNL1        0.0423
     30 H          -0.6370    1.4229    0.8462 H       1  UNL1        0.0423
     31 H           1.8665    0.8115    0.0283 H       1  UNL1        0.1487
     32 H           1.7283    0.4792   -2.7533 H       1  UNL1        0.0465
     33 H           2.2158   -1.0382   -2.0350 H       1  UNL1        0.0465
     34 H           3.5137    1.6028   -1.6404 H       1  UNL1        0.0329
     35 H           4.0947    0.2086   -2.6230 H       1  UNL1        0.0329
     36 H           4.0949    1.7446    0.5435 H       1  UNL1        0.0621
     37 H           5.3398    0.9884    2.4345 H       1  UNL1        0.0618
     38 H           6.3556   -1.2076    2.4196 H       1  UNL1        0.0618
     39 H           6.0885   -2.6007    0.4776 H       1  UNL1        0.0646
     40 H          -1.6002    2.1135   -0.6559 H       1  UNL1        0.0624
     41 H          -3.1254    3.4618   -1.9198 H       1  UNL1        0.0618
     42 H          -5.4944    2.8105   -2.0659 H       1  UNL1        0.0618
     43 H          -6.1781    0.8126   -0.9113 H       1  UNL1        0.0625
@<TRIPOS>BOND
     1     1     2    1
     2     2     3   ar
     3     2    24   ar
     4     3     4   ar
     5     4     5    1
     6     4    18   ar
     7     5     6    1
     8     6     7    2
     9     6     8   am
    10     8     9    1
    11     9    10    1
    12    10    11    1
    13    11    12   ar
    14    11    16   ar
    15    12    13   ar
    16    13    14   ar
    17    14    15   ar
    18    15    16   ar
    19    16    17    1
    20    18    19   ar
    21    18    23   ar
    22    19    20   ar
    23    20    21   ar
    24    21    22   ar
    25    22    23   ar
    26    23    24   ar
    27    24    25    2
    28     1    26    1
    29     1    27    1
    30     1    28    1
    31     5    29    1
    32     5    30    1
    33     8    31    1
    34     9    32    1
    35     9    33    1
    36    10    34    1
    37    10    35    1
    38    12    36    1
    39    13    37    1
    40    14    38    1
    41    15    39    1
    42    19    40    1
    43    20    41    1
    44    21    42    1
    45    22    43    1
@<TRIPOS>MOLECULE
../data/bude_mols_rdkit_confs/molecule_17.pdb
 43 45 0 0 0
SMALL
GASTEIGER

@<TRIPOS>ATOM
      1  C1        -5.2200   -0.8520    2.9790 C.3     1  UNL1        0.0340
      2  N1        -4.5060   -0.6160    1.7330 N.ar    1  UNL1       -0.2318
      3  N2        -3.3550   -1.2160    1.5240 N.ar    1  UNL1       -0.1724
      4  C2        -2.6420   -1.0450    0.3990 C.ar    1  UNL1        0.0783
      5  C3        -1.3650   -1.7190    0.1540 C.3     1  UNL1        0.0685
      6  C4        -0.1990   -0.8020    0.2820 C.2     1  UNL1        0.2189
      7  O1        -0.3940    0.3970    0.5760 O.2     1  UNL1       -0.2754
      8  N3         1.1370   -1.2330    0.0820 N.am    1  UNL1       -0.3147
      9  C5         2.2740   -0.3280    0.2100 C.3     1  UNL1        0.0157
     10  C6         3.5750   -1.0110   -0.0480 C.3     1  UNL1       -0.0093
     11  C7         4.6630   -0.0370    0.1000 C.ar    1  UNL1       -0.0107
     12  C8         5.3160    0.5160   -0.9790 C.ar    1  UNL1       -0.0558
     13  C9         6.3410    1.4350   -0.8270 C.ar    1  UNL1       -0.0613
     14  C10        6.7240    1.8120    0.4630 C.ar    1  UNL1       -0.0590
     15  C11        6.0860    1.2730    1.5450 C.ar    1  UNL1       -0.0262
     16  C12        5.0620    0.3540    1.3760 C.ar    1  UNL1        0.1266
     17  F1         4.4690   -0.1460    2.4730 F       1  UNL1       -0.2052
     18  C13       -3.1680   -0.1950   -0.5610 C.ar    1  UNL1        0.0108
     19  C14       -2.4850    0.0320   -1.7430 C.ar    1  UNL1       -0.0521
     20  C15       -2.9960    0.8780   -2.7060 C.ar    1  UNL1       -0.0611
     21  C16       -4.2030    1.5090   -2.4910 C.ar    1  UNL1       -0.0610
     22  C17       -4.9210    1.3080   -1.3170 C.ar    1  UNL1       -0.0487
     23  C18       -4.3920    0.4590   -0.3670 C.ar    1  UNL1        0.0498
     24  C19       -5.0500    0.2140    0.8280 C.ar    1  UNL1        0.2748
     25  O2        -6.1510    0.7820    1.0400 O.2     1  UNL1       -0.2656
     26 H          -4.6600   -1.5307    3.5879 H       1  UNL1        0.0474
     27 H          -6.1801   -1.2733    2.7656 H       1  UNL1        0.0474
     28 H          -5.3448    0.0745    3.4996 H       1  UNL1        0.0474
     29 H          -1.3756   -2.1234   -0.8366 H       1  UNL1        0.0423
     30 H          -1.2566   -2.4856    0.8925 H       1  UNL1        0.0423
     31 H           1.3029   -2.1750   -0.1512 H       1  UNL1        0.1487
     32 H           2.2860    0.0708    1.2028 H       1  UNL1        0.0465
     33 H           2.1602    0.4450   -0.5210 H       1  UNL1        0.0465
     34 H           3.5812   -1.4077   -1.0417 H       1  UNL1        0.0329
     35 H           3.7082   -1.8110    0.6500 H       1  UNL1        0.0329
     36 H           5.0326    0.2367   -1.9312 H       1  UNL1        0.0621
     37 H           6.8140    1.8347   -1.6526 H       1  UNL1        0.0618
     38 H           7.4858    2.4949    0.5982 H       1  UNL1        0.0618
     39 H           6.3694    1.5529    2.4970 H       1  UNL1        0.0646
     40 H          -1.5809   -0.4380   -1.9065 H       1  UNL1        0.0624
     41 H          -2.4769    1.0378   -3.5835 H       1  UNL1        0.0618
     42 H          -4.5802    2.1415   -3.2139 H       1  UNL1        0.0618
     43 H          -5.8248    1.7810   -1.1608 H       1  UNL1        0.0625
@<TRIPOS>BOND
     1     1     2    1
     2     2     3   ar
     3     2    24   ar
     4     3     4   ar
     5     4     5    1
     6     4    18   ar
     7     5     6    1
     8     6     7    2
     9     6     8   am
    10     8     9    1
    11     9    10    1
    12    10    11    1
    13    11    12   ar
    14    11    16   ar
    15    12    13   ar
    16    13    14   ar
    17    14    15   ar
    18    15    16   ar
    19    16    17    1
    20    18    19   ar
    21    18    23   ar
    22    19    20   ar
    23    20    21   ar
    24    21    22   ar
    25    22    23   ar
    26    23    24   ar
    27    24    25    2
    28     1    26    1
    29     1    27    1
    30     1    28    1
    31     5    29    1
    32     5    30    1
    33     8    31    1
    34     9    32    1
    35     9    33    1
    36    10    34    1
    37    10    35    1
    38    12    36    1
    39    13    37    1
    40    14    38    1
    41    15    39    1
    42    19    40    1
    43    20    41    1
    44    21    42    1
    45    22    43    1
@<TRIPOS>MOLECULE
../data/bude_mols_rdkit_confs/molecule_17.pdb
 43 45 0 0 0
SMALL
GASTEIGER

@<TRIPOS>ATOM
      1  C1        -4.2360   -3.3780    1.1500 C.3     1  UNL1        0.0340
      2  N1        -3.8440   -2.0440    0.6690 N.ar    1  UNL1       -0.2318
      3  N2        -2.8720   -1.8830   -0.2370 N.ar    1  UNL1       -0.1724
      4  C2        -2.4960   -0.6840   -0.6850 C.ar    1  UNL1        0.0783
      5  C3        -1.3660   -0.5680   -1.6240 C.3     1  UNL1        0.0685
      6  C4        -0.0910   -0.4640   -0.8670 C.2     1  UNL1        0.2189
      7  O1         0.4960   -1.5670   -0.5010 O.2     1  UNL1       -0.2754
      8  N3         0.5780    0.7000   -0.4800 N.am    1  UNL1       -0.3147
      9  C5         1.8680    0.6700    0.2380 C.3     1  UNL1        0.0157
     10  C6         2.8570    0.1370   -0.7610 C.3     1  UNL1       -0.0093
     11  C7         4.2380    0.0050   -0.2490 C.ar    1  UNL1       -0.0107
     12  C8         4.8540   -1.2120   -0.0650 C.ar    1  UNL1       -0.0558
     13  C9         6.1680   -1.2250    0.3650 C.ar    1  UNL1       -0.0613
     14  C10        6.9040   -0.0850    0.6220 C.ar    1  UNL1       -0.0590
     15  C11        6.2720    1.1230    0.4340 C.ar    1  UNL1       -0.0262
     16  C12        4.9530    1.1500    0.0020 C.ar    1  UNL1        0.1266
     17  F1         4.3540    2.3620   -0.1690 F       1  UNL1       -0.2052
     18  C13       -3.1170    0.4850   -0.2200 C.ar    1  UNL1        0.0108
     19  C14       -2.7810    1.7410   -0.6810 C.ar    1  UNL1       -0.0521
     20  C15       -3.4300    2.8980   -0.2330 C.ar    1  UNL1       -0.0611
     21  C16       -4.4250    2.7490    0.6960 C.ar    1  UNL1       -0.0610
     22  C17       -4.7670    1.4720    1.1650 C.ar    1  UNL1       -0.0487
     23  C18       -4.1210    0.3410    0.7120 C.ar    1  UNL1        0.0498
     24  C19       -4.4430   -0.9330    1.1200 C.ar    1  UNL1        0.2748
     25  O2        -5.3560   -1.0700    1.9700 O.2     1  UNL1       -0.2656
     26 H          -3.6376   -4.1216    0.6664 H       1  UNL1        0.0474
     27 H          -5.2680   -3.5491    0.9252 H       1  UNL1        0.0474
     28 H          -4.0875   -3.4335    2.2082 H       1  UNL1        0.0474
     29 H          -1.4935    0.3067   -2.2269 H       1  UNL1        0.0423
     30 H          -1.3358   -1.4357   -2.2494 H       1  UNL1        0.0423
     31 H           0.1745    1.5722   -0.6939 H       1  UNL1        0.1487
     32 H           1.8093    0.0252    1.0899 H       1  UNL1        0.0465
     33 H           2.1470    1.6361    0.6036 H       1  UNL1        0.0465
     34 H           2.8741    0.8004   -1.6004 H       1  UNL1        0.0329
     35 H           2.5312   -0.8505   -1.0134 H       1  UNL1        0.0329
     36 H           4.3475   -2.0932   -0.2436 H       1  UNL1        0.0621
     37 H           6.6255   -2.1399    0.5019 H       1  UNL1        0.0618
     38 H           7.8842   -0.1367    0.9408 H       1  UNL1        0.0618
     39 H           6.7766    2.0052    0.6134 H       1  UNL1        0.0646
     40 H          -2.0263    1.8308   -1.3792 H       1  UNL1        0.0624
     41 H          -3.1678    3.8300   -0.5903 H       1  UNL1        0.0618
     42 H          -4.9247    3.5787    1.0521 H       1  UNL1        0.0618
     43 H          -5.5192    1.3767    1.8651 H       1  UNL1        0.0625
@<TRIPOS>BOND
     1     1     2    1
     2     2     3   ar
     3     2    24   ar
     4     3     4   ar
     5     4     5    1
     6     4    18   ar
     7     5     6    1
     8     6     7    2
     9     6     8   am
    10     8     9    1
    11     9    10    1
    12    10    11    1
    13    11    12   ar
    14    11    16   ar
    15    12    13   ar
    16    13    14   ar
    17    14    15   ar
    18    15    16   ar
    19    16    17    1
    20    18    19   ar
    21    18    23   ar
    22    19    20   ar
    23    20    21   ar
    24    21    22   ar
    25    22    23   ar
    26    23    24   ar
    27    24    25    2
    28     1    26    1
    29     1    27    1
    30     1    28    1
    31     5    29    1
    32     5    30    1
    33     8    31    1
    34     9    32    1
    35     9    33    1
    36    10    34    1
    37    10    35    1
    38    12    36    1
    39    13    37    1
    40    14    38    1
    41    15    39    1
    42    19    40    1
    43    20    41    1
    44    21    42    1
    45    22    43    1
@<TRIPOS>MOLECULE
../data/bude_mols_rdkit_confs/molecule_17.pdb
 43 45 0 0 0
SMALL
GASTEIGER

@<TRIPOS>ATOM
      1  C1        -4.9510   -2.9670    1.3070 C.3     1  UNL1        0.0340
      2  N1        -4.2320   -1.7960    0.7860 N.ar    1  UNL1       -0.2318
      3  N2        -3.2440   -1.9320   -0.0670 N.ar    1  UNL1       -0.1724
      4  C2        -2.5350   -0.9030   -0.5920 C.ar    1  UNL1        0.0783
      5  C3        -1.4280   -1.1380   -1.5560 C.3     1  UNL1        0.0685
      6  C4        -0.1010   -0.9690   -0.9160 C.2     1  UNL1        0.2189
      7  O1        -0.0390   -0.6570    0.2950 O.2     1  UNL1       -0.2754
      8  N3         1.1060   -1.1480   -1.6290 N.am    1  UNL1       -0.3147
      9  C5         2.4270   -0.9960   -1.0590 C.3     1  UNL1        0.0157
     10  C6         2.6490    0.4060   -0.5280 C.3     1  UNL1       -0.0093
     11  C7         4.0000    0.5650    0.0540 C.ar    1  UNL1       -0.0107
     12  C8         4.9950    1.2350   -0.6330 C.ar    1  UNL1       -0.0558
     13  C9         6.2620    1.3780   -0.0760 C.ar    1  UNL1       -0.0613
     14  C10        6.5540    0.8590    1.1670 C.ar    1  UNL1       -0.0590
     15  C11        5.5440    0.1960    1.8320 C.ar    1  UNL1       -0.0262
     16  C12        4.2890    0.0450    1.2980 C.ar    1  UNL1        0.1266
     17  F1         3.2760   -0.6100    1.9450 F       1  UNL1       -0.2052
     18  C13       -2.9070    0.3590   -0.1760 C.ar    1  UNL1        0.0108
     19  C14       -2.2360    1.4730   -0.6610 C.ar    1  UNL1       -0.0521
     20  C15       -2.5980    2.7470   -0.2530 C.ar    1  UNL1       -0.0611
     21  C16       -3.6400    2.8610    0.6440 C.ar    1  UNL1       -0.0610
     22  C17       -4.3230    1.7680    1.1400 C.ar    1  UNL1       -0.0487
     23  C18       -3.9540    0.5150    0.7280 C.ar    1  UNL1        0.0498
     24  C19       -4.6300   -0.5840    1.2190 C.ar    1  UNL1        0.2748
     25  O2        -5.5740   -0.4710    2.0310 O.2     1  UNL1       -0.2656
     26 H          -4.5356   -3.8578    0.8841 H       1  UNL1        0.0474
     27 H          -5.9858   -2.8963    1.0440 H       1  UNL1        0.0474
     28 H          -4.8552   -2.9995    2.3722 H       1  UNL1        0.0474
     29 H          -1.5159   -0.4402   -2.3624 H       1  UNL1        0.0423
     30 H          -1.5021   -2.1445   -1.9115 H       1  UNL1        0.0423
     31 H           1.0435   -1.3934   -2.5804 H       1  UNL1        0.1487
     32 H           3.1566   -1.2005   -1.8145 H       1  UNL1        0.0465
     33 H           2.5193   -1.6811   -0.2423 H       1  UNL1        0.0465
     34 H           1.9199    0.6096    0.2282 H       1  UNL1        0.0329
     35 H           2.5561    1.0901   -1.3455 H       1  UNL1        0.0329
     36 H           4.7968    1.6316   -1.5649 H       1  UNL1        0.0621
     37 H           6.9943    1.8804   -0.6016 H       1  UNL1        0.0618
     38 H           7.4923    0.9625    1.5840 H       1  UNL1        0.0618
     39 H           5.7390   -0.2007    2.7645 H       1  UNL1        0.0646
     40 H          -1.4608    1.3515   -1.3313 H       1  UNL1        0.0624
     41 H          -2.1052    3.5814   -0.6078 H       1  UNL1        0.0618
     42 H          -3.9210    3.8032    0.9577 H       1  UNL1        0.0618
     43 H          -5.0982    1.8932    1.8097 H       1  UNL1        0.0625
@<TRIPOS>BOND
     1     1     2    1
     2     2     3   ar
     3     2    24   ar
     4     3     4   ar
     5     4     5    1
     6     4    18   ar
     7     5     6    1
     8     6     7    2
     9     6     8   am
    10     8     9    1
    11     9    10    1
    12    10    11    1
    13    11    12   ar
    14    11    16   ar
    15    12    13   ar
    16    13    14   ar
    17    14    15   ar
    18    15    16   ar
    19    16    17    1
    20    18    19   ar
    21    18    23   ar
    22    19    20   ar
    23    20    21   ar
    24    21    22   ar
    25    22    23   ar
    26    23    24   ar
    27    24    25    2
    28     1    26    1
    29     1    27    1
    30     1    28    1
    31     5    29    1
    32     5    30    1
    33     8    31    1
    34     9    32    1
    35     9    33    1
    36    10    34    1
    37    10    35    1
    38    12    36    1
    39    13    37    1
    40    14    38    1
    41    15    39    1
    42    19    40    1
    43    20    41    1
    44    21    42    1
    45    22    43    1
@<TRIPOS>MOLECULE
../data/bude_mols_rdkit_confs/molecule_17.pdb
 43 45 0 0 0
SMALL
GASTEIGER

@<TRIPOS>ATOM
      1  C1        -3.5870    2.3340    2.2280 C.3     1  UNL1        0.0340
      2  N1        -3.4340    1.4240    1.0770 N.ar    1  UNL1       -0.2318
      3  N2        -2.3050    1.4090    0.3940 N.ar    1  UNL1       -0.1724
      4  C2        -2.0960    0.5960   -0.6610 C.ar    1  UNL1        0.0783
      5  C3        -0.7660    0.6370   -1.2650 C.3     1  UNL1        0.0685
      6  C4         0.0090   -0.4560   -0.6110 C.2     1  UNL1        0.2189
      7  O1        -0.3260   -1.6510   -0.7060 O.2     1  UNL1       -0.2754
      8  N3         1.1890   -0.1640    0.1670 N.am    1  UNL1       -0.3147
      9  C5         1.9240   -1.2250    0.7970 C.3     1  UNL1        0.0157
     10  C6         3.1130   -0.8680    1.5870 C.3     1  UNL1       -0.0093
     11  C7         4.2050   -0.1760    0.9200 C.ar    1  UNL1       -0.0107
     12  C8         5.2580   -0.9240    0.3820 C.ar    1  UNL1       -0.0558
     13  C9         6.3010   -0.3510   -0.2940 C.ar    1  UNL1       -0.0613
     14  C10        6.3540    1.0160   -0.4720 C.ar    1  UNL1       -0.0590
     15  C11        5.3400    1.7730    0.0440 C.ar    1  UNL1       -0.0262
     16  C12        4.2980    1.1830    0.7220 C.ar    1  UNL1        0.1266
     17  F1         3.3760    2.0380    1.2330 F       1  UNL1       -0.2052
     18  C13       -3.1120   -0.2460   -1.0300 C.ar    1  UNL1        0.0108
     19  C14       -2.9570   -1.0780   -2.0960 C.ar    1  UNL1       -0.0521
     20  C15       -3.9880   -1.9180   -2.4630 C.ar    1  UNL1       -0.0611
     21  C16       -5.1790   -1.9370   -1.7760 C.ar    1  UNL1       -0.0610
     22  C17       -5.3650   -1.1050   -0.6950 C.ar    1  UNL1       -0.0487
     23  C18       -4.3270   -0.2660   -0.3350 C.ar    1  UNL1        0.0498
     24  C19       -4.4420    0.6060    0.7350 C.ar    1  UNL1        0.2748
     25  O2        -5.5220    0.6260    1.3940 O.2     1  UNL1       -0.2656
     26 H          -2.6913    2.9061    2.3519 H       1  UNL1        0.0474
     27 H          -3.7699    1.7616    3.1133 H       1  UNL1        0.0474
     28 H          -4.4107    2.9943    2.0536 H       1  UNL1        0.0474
     29 H          -0.3024    1.5838   -1.0821 H       1  UNL1        0.0423
     30 H          -0.8105    0.5086   -2.3263 H       1  UNL1        0.0423
     31 H           1.4918    0.7675    0.2664 H       1  UNL1        0.1487
     32 H           2.2441   -1.8926    0.0245 H       1  UNL1        0.0465
     33 H           1.2415   -1.6347    1.5120 H       1  UNL1        0.0465
     34 H           3.5118   -1.7769    1.9867 H       1  UNL1        0.0329
     35 H           2.7505   -0.1593    2.3020 H       1  UNL1        0.0329
     36 H           5.2478   -1.9492    0.4997 H       1  UNL1        0.0621
     37 H           7.0538   -0.9462   -0.6736 H       1  UNL1        0.0618
     38 H           7.1375    1.4547   -0.9806 H       1  UNL1        0.0618
     39 H           5.3559    2.7979   -0.0761 H       1  UNL1        0.0646
     40 H          -2.0723   -1.0805   -2.6273 H       1  UNL1        0.0624
     41 H          -3.8625   -2.5466   -3.2718 H       1  UNL1        0.0618
     42 H          -5.9342   -2.5755   -2.0710 H       1  UNL1        0.0618
     43 H          -6.2529   -1.1076   -0.1691 H       1  UNL1        0.0625
@<TRIPOS>BOND
     1     1     2    1
     2     2     3   ar
     3     2    24   ar
     4     3     4   ar
     5     4     5    1
     6     4    18   ar
     7     5     6    1
     8     6     7    2
     9     6     8   am
    10     8     9    1
    11     9    10    1
    12    10    11    1
    13    11    12   ar
    14    11    16   ar
    15    12    13   ar
    16    13    14   ar
    17    14    15   ar
    18    15    16   ar
    19    16    17    1
    20    18    19   ar
    21    18    23   ar
    22    19    20   ar
    23    20    21   ar
    24    21    22   ar
    25    22    23   ar
    26    23    24   ar
    27    24    25    2
    28     1    26    1
    29     1    27    1
    30     1    28    1
    31     5    29    1
    32     5    30    1
    33     8    31    1
    34     9    32    1
    35     9    33    1
    36    10    34    1
    37    10    35    1
    38    12    36    1
    39    13    37    1
    40    14    38    1
    41    15    39    1
    42    19    40    1
    43    20    41    1
    44    21    42    1
    45    22    43    1
@<TRIPOS>MOLECULE
../data/bude_mols_rdkit_confs/molecule_17.pdb
 43 45 0 0 0
SMALL
GASTEIGER

@<TRIPOS>ATOM
      1  C1        -3.6480   -3.3400   -0.5460 C.3     1  UNL1        0.0340
      2  N1        -3.5160   -1.9060   -0.2220 N.ar    1  UNL1       -0.2318
      3  N2        -2.4110   -1.4370    0.3220 N.ar    1  UNL1       -0.1724
      4  C2        -2.1960   -0.1400    0.6350 C.ar    1  UNL1        0.0783
      5  C3        -0.8860    0.3160    1.1650 C.3     1  UNL1        0.0685
      6  C4         0.0040    0.7620    0.0830 C.2     1  UNL1        0.2189
      7  O1        -0.2920    1.7150   -0.6420 O.2     1  UNL1       -0.2754
      8  N3         1.2480    0.0790   -0.1490 N.am    1  UNL1       -0.3147
      9  C5         2.0440    0.5710   -1.2510 C.3     1  UNL1        0.0157
     10  C6         3.2960   -0.1690   -1.5230 C.3     1  UNL1       -0.0093
     11  C7         4.3210   -0.2040   -0.4990 C.ar    1  UNL1       -0.0107
     12  C8         4.4300    0.6820    0.5510 C.ar    1  UNL1       -0.0558
     13  C9         5.5020    0.5250    1.4290 C.ar    1  UNL1       -0.0613
     14  C10        6.4360   -0.4740    1.2760 C.ar    1  UNL1       -0.0590
     15  C11        6.3350   -1.3710    0.2240 C.ar    1  UNL1       -0.0262
     16  C12        5.2830   -1.2150   -0.6370 C.ar    1  UNL1        0.1266
     17  F1         5.2080   -2.1180   -1.6660 F       1  UNL1       -0.2052
     18  C13       -3.1980    0.7470    0.3720 C.ar    1  UNL1        0.0108
     19  C14       -3.0830    2.0810    0.6680 C.ar    1  UNL1       -0.0521
     20  C15       -4.1200    2.9700    0.4020 C.ar    1  UNL1       -0.0611
     21  C16       -5.2770    2.5300   -0.1590 C.ar    1  UNL1       -0.0610
     22  C17       -5.4140    1.1780   -0.4670 C.ar    1  UNL1       -0.0487
     23  C18       -4.4020    0.2940   -0.2110 C.ar    1  UNL1        0.0498
     24  C19       -4.5100   -1.0560   -0.4900 C.ar    1  UNL1        0.2748
     25  O2        -5.5910   -1.4580   -1.0110 O.2     1  UNL1       -0.2656
     26 H          -2.7548   -3.8543   -0.2586 H       1  UNL1        0.0474
     27 H          -3.8029   -3.4551   -1.5985 H       1  UNL1        0.0474
     28 H          -4.4820   -3.7502   -0.0158 H       1  UNL1        0.0474
     29 H          -0.4207   -0.4938    1.6872 H       1  UNL1        0.0423
     30 H          -1.0577    1.1426    1.8224 H       1  UNL1        0.0423
     31 H           1.5400   -0.6778    0.4088 H       1  UNL1        0.1487
     32 H           2.3029    1.5877   -1.0405 H       1  UNL1        0.0465
     33 H           1.4383    0.4474   -2.1244 H       1  UNL1        0.0465
     34 H           3.7367    0.2677   -2.3948 H       1  UNL1        0.0329
     35 H           2.9814   -1.1880   -1.6102 H       1  UNL1        0.0329
     36 H           3.7400    1.4379    0.6833 H       1  UNL1        0.0621
     37 H           5.5982    1.1803    2.2204 H       1  UNL1        0.0618
     38 H           7.2153   -0.5558    1.9476 H       1  UNL1        0.0618
     39 H           7.0260   -2.1267    0.0952 H       1  UNL1        0.0646
     40 H          -2.2118    2.4319    1.0957 H       1  UNL1        0.0624
     41 H          -4.0097    3.9699    0.6322 H       1  UNL1        0.0618
     42 H          -6.0458    3.1901   -0.3548 H       1  UNL1        0.0618
     43 H          -6.2904    0.8392   -0.8938 H       1  UNL1        0.0625
@<TRIPOS>BOND
     1     1     2    1
     2     2     3   ar
     3     2    24   ar
     4     3     4   ar
     5     4     5    1
     6     4    18   ar
     7     5     6    1
     8     6     7    2
     9     6     8   am
    10     8     9    1
    11     9    10    1
    12    10    11    1
    13    11    12   ar
    14    11    16   ar
    15    12    13   ar
    16    13    14   ar
    17    14    15   ar
    18    15    16   ar
    19    16    17    1
    20    18    19   ar
    21    18    23   ar
    22    19    20   ar
    23    20    21   ar
    24    21    22   ar
    25    22    23   ar
    26    23    24   ar
    27    24    25    2
    28     1    26    1
    29     1    27    1
    30     1    28    1
    31     5    29    1
    32     5    30    1
    33     8    31    1
    34     9    32    1
    35     9    33    1
    36    10    34    1
    37    10    35    1
    38    12    36    1
    39    13    37    1
    40    14    38    1
    41    15    39    1
    42    19    40    1
    43    20    41    1
    44    21    42    1
    45    22    43    1
