@<TRIPOS>MOLECULE
../data/bude_mols_rdkit_confs/molecule_36.pdb
 37 39 0 0 0
SMALL
GASTEIGER

@<TRIPOS>ATOM
      1  O1         1.0640   -3.2610   -1.1340 O.2     1  UNL1       -0.2702
      2  C1         1.3130   -2.1250   -0.8290 C.2     1  UNL1        0.2444
      3  N1         0.2920   -1.1080   -0.6180 N.am    1  UNL1       -0.3057
      4  C2        -1.0990   -1.3070   -0.7040 C.3     1  UNL1        0.0565
      5  C3        -1.7340   -0.0470   -0.2080 C.ar    1  UNL1        0.0863
      6  N2        -0.9460    1.0330    0.0270 N.ar    1  UNL1       -0.1737
      7  N3        -1.4990    2.1520    0.4280 N.ar    1  UNL1       -0.2424
      8  C4        -2.8190    2.3210    0.6410 C.ar    1  UNL1        0.2725
      9  O2        -3.3330    3.3690    1.0280 O.2     1  UNL1       -0.2658
     10  C5        -3.6310    1.2260    0.4100 C.ar    1  UNL1        0.0496
     11  C6        -5.0050    1.3070    0.6420 C.ar    1  UNL1       -0.0487
     12  C7        -5.8100    0.2090    0.4310 C.ar    1  UNL1       -0.0610
     13  C8        -5.2220   -0.9600   -0.0090 C.ar    1  UNL1       -0.0611
     14  C9        -3.8610   -1.0290   -0.2250 C.ar    1  UNL1       -0.0520
     15  C10       -3.0520    0.0700   -0.0140 C.ar    1  UNL1        0.0118
     16  C11        2.6500   -1.5060   -0.5920 C.ar    1  UNL1        0.0367
     17  C12        3.1470   -0.6260   -1.5150 C.ar    1  UNL1       -0.0491
     18  C13        4.1790    0.2440   -1.1730 C.ar    1  UNL1       -0.0494
     19  C14        4.6940    0.2120    0.0950 C.ar    1  UNL1        0.0549
     20  C15        5.6020    1.3230    0.5230 C.3     1  UNL1        0.4174
     21  F1         6.9050    1.0350    0.6350 F       1  UNL1       -0.1659
     22  F2         5.1180    1.8040    1.7650 F       1  UNL1       -0.1659
     23  F3         5.4090    2.4200   -0.3530 F       1  UNL1       -0.1659
     24  C16        4.2000   -0.6790    1.0020 C.ar    1  UNL1       -0.0494
     25  C17        3.1750   -1.5460    0.6640 C.ar    1  UNL1       -0.0491
     26 H           0.6022   -0.2006   -0.3954 H       1  UNL1        0.1494
     27 H          -1.3933   -2.1354   -0.0940 H       1  UNL1        0.0528
     28 H          -1.3996   -1.5255   -1.7074 H       1  UNL1        0.0528
     29 H          -0.9080    2.9237    0.5847 H       1  UNL1        0.1921
     30 H          -5.4193    2.1924    0.9727 H       1  UNL1        0.0625
     31 H          -6.8272    0.2592    0.5977 H       1  UNL1        0.0618
     32 H          -5.8077   -1.7926   -0.1785 H       1  UNL1        0.0618
     33 H          -3.4417   -1.9146   -0.5489 H       1  UNL1        0.0624
     34 H           2.7548   -0.6072   -2.4694 H       1  UNL1        0.0625
     35 H           4.5525    0.9074   -1.8697 H       1  UNL1        0.0623
     36 H           4.5963   -0.7072    1.9545 H       1  UNL1        0.0623
     37 H           2.8116   -2.2174    1.3584 H       1  UNL1        0.0625
@<TRIPOS>BOND
     1     1     2    2
     2     2     3   am
     3     2    16    1
     4     3     4    1
     5     4     5    1
     6     5     6   ar
     7     5    15   ar
     8     6     7   ar
     9     7     8   ar
    10     8     9    2
    11     8    10   ar
    12    10    11   ar
    13    10    15   ar
    14    11    12   ar
    15    12    13   ar
    16    13    14   ar
    17    14    15   ar
    18    16    17   ar
    19    16    25   ar
    20    17    18   ar
    21    18    19   ar
    22    19    20    1
    23    19    24   ar
    24    20    21    1
    25    20    22    1
    26    20    23    1
    27    24    25   ar
    28     3    26    1
    29     4    27    1
    30     4    28    1
    31     7    29    1
    32    11    30    1
    33    12    31    1
    34    13    32    1
    35    14    33    1
    36    17    34    1
    37    18    35    1
    38    24    36    1
    39    25    37    1
@<TRIPOS>MOLECULE
../data/bude_mols_rdkit_confs/molecule_36.pdb
 37 39 0 0 0
SMALL
GASTEIGER

@<TRIPOS>ATOM
      1  O1         1.0530   -2.2640   -0.5150 O.2     1  UNL1       -0.2702
      2  C1         1.2520   -1.0400   -0.4160 C.2     1  UNL1        0.2444
      3  N1         0.1590   -0.1600   -0.6240 N.am    1  UNL1       -0.3057
      4  C2        -1.1000   -0.8130   -0.9080 C.3     1  UNL1        0.0565
      5  C3        -2.2570    0.0330   -1.1490 C.ar    1  UNL1        0.0863
      6  N2        -2.4940    0.7450   -2.2670 N.ar    1  UNL1       -0.1737
      7  N3        -3.6580    1.3540   -2.4710 N.ar    1  UNL1       -0.2424
      8  C4        -4.6580    1.3300   -1.6190 C.ar    1  UNL1        0.2725
      9  O2        -5.7690    1.9380   -1.8410 O.2     1  UNL1       -0.2658
     10  C5        -4.4920    0.6180   -0.4300 C.ar    1  UNL1        0.0496
     11  C6        -5.4450    0.5690    0.5560 C.ar    1  UNL1       -0.0487
     12  C7        -5.2280   -0.0970    1.7340 C.ar    1  UNL1       -0.0610
     13  C8        -4.0210   -0.7330    1.9510 C.ar    1  UNL1       -0.0611
     14  C9        -3.0750   -0.6870    0.9810 C.ar    1  UNL1       -0.0520
     15  C10       -3.2840   -0.0090   -0.2480 C.ar    1  UNL1        0.0118
     16  C11        2.5860   -0.5590   -0.0930 C.ar    1  UNL1        0.0367
     17  C12        3.6190   -1.4610   -0.0400 C.ar    1  UNL1       -0.0491
     18  C13        4.9250   -1.1090    0.1790 C.ar    1  UNL1       -0.0494
     19  C14        5.2240    0.2300    0.3700 C.ar    1  UNL1        0.0549
     20  C15        6.6370    0.6000    0.5090 C.3     1  UNL1        0.4174
     21  F1         7.2990    0.5150   -0.7050 F       1  UNL1       -0.1659
     22  F2         6.7620    1.8500    1.0590 F       1  UNL1       -0.1659
     23  F3         7.2500   -0.3020    1.3710 F       1  UNL1       -0.1659
     24  C16        4.2010    1.1580    0.3210 C.ar    1  UNL1       -0.0494
     25  C17        2.8580    0.7740    0.0820 C.ar    1  UNL1       -0.0491
     26 H           0.2503    0.8192   -0.5786 H       1  UNL1        0.1494
     27 H          -1.3307   -1.4407   -0.0727 H       1  UNL1        0.0528
     28 H          -0.9387   -1.3234   -1.8345 H       1  UNL1        0.0528
     29 H          -3.7780    1.8531   -3.3111 H       1  UNL1        0.1921
     30 H          -6.3480    1.0457    0.4068 H       1  UNL1        0.0625
     31 H          -5.9641   -0.1233    2.4568 H       1  UNL1        0.0618
     32 H          -3.8427   -1.2340    2.8354 H       1  UNL1        0.0618
     33 H          -2.1725   -1.1610    1.1418 H       1  UNL1        0.0624
     34 H           3.3998   -2.4607   -0.1726 H       1  UNL1        0.0625
     35 H           5.6683   -1.8246    0.2011 H       1  UNL1        0.0623
     36 H           4.4208    2.1564    0.4621 H       1  UNL1        0.0623
     37 H           2.1049    1.4783    0.0407 H       1  UNL1        0.0625
@<TRIPOS>BOND
     1     1     2    2
     2     2     3   am
     3     2    16    1
     4     3     4    1
     5     4     5    1
     6     5     6   ar
     7     5    15   ar
     8     6     7   ar
     9     7     8   ar
    10     8     9    2
    11     8    10   ar
    12    10    11   ar
    13    10    15   ar
    14    11    12   ar
    15    12    13   ar
    16    13    14   ar
    17    14    15   ar
    18    16    17   ar
    19    16    25   ar
    20    17    18   ar
    21    18    19   ar
    22    19    20    1
    23    19    24   ar
    24    20    21    1
    25    20    22    1
    26    20    23    1
    27    24    25   ar
    28     3    26    1
    29     4    27    1
    30     4    28    1
    31     7    29    1
    32    11    30    1
    33    12    31    1
    34    13    32    1
    35    14    33    1
    36    17    34    1
    37    18    35    1
    38    24    36    1
    39    25    37    1
@<TRIPOS>MOLECULE
../data/bude_mols_rdkit_confs/molecule_36.pdb
 37 39 0 0 0
SMALL
GASTEIGER

@<TRIPOS>ATOM
      1  O1         1.0020   -0.7750    2.2200 O.2     1  UNL1       -0.2702
      2  C1         1.3160   -0.4350    1.0540 C.2     1  UNL1        0.2444
      3  N1         0.2950   -0.1750    0.0620 N.am    1  UNL1       -0.3057
      4  C2        -1.0460   -0.2930    0.5420 C.3     1  UNL1        0.0565
      5  C3        -2.1140   -0.0500   -0.4360 C.ar    1  UNL1        0.0863
      6  N2        -1.9680    0.1380   -1.7520 N.ar    1  UNL1       -0.1737
      7  N3        -3.0140    0.3150   -2.5620 N.ar    1  UNL1       -0.2424
      8  C4        -4.2740    0.3190   -2.1280 C.ar    1  UNL1        0.2725
      9  O2        -5.2510    0.4890   -2.9290 O.2     1  UNL1       -0.2658
     10  C5        -4.5100    0.1360   -0.7860 C.ar    1  UNL1        0.0496
     11  C6        -5.7860    0.1460   -0.2400 C.ar    1  UNL1       -0.0487
     12  C7        -5.9710   -0.0210    1.1010 C.ar    1  UNL1       -0.0610
     13  C8        -4.9030   -0.2060    1.9540 C.ar    1  UNL1       -0.0611
     14  C9        -3.6670   -0.2130    1.4010 C.ar    1  UNL1       -0.0520
     15  C10       -3.4130   -0.0500    0.0540 C.ar    1  UNL1        0.0118
     16  C11        2.7170   -0.2950    0.7180 C.ar    1  UNL1        0.0367
     17  C12        3.6400   -1.2620    0.9100 C.ar    1  UNL1       -0.0491
     18  C13        4.9850   -1.0340    0.6000 C.ar    1  UNL1       -0.0494
     19  C14        5.4160    0.1700    0.0940 C.ar    1  UNL1        0.0549
     20  C15        6.8530    0.4380   -0.2100 C.3     1  UNL1        0.4174
     21  F1         7.2620    1.6270    0.3610 F       1  UNL1       -0.1659
     22  F2         7.5890   -0.6200    0.2890 F       1  UNL1       -0.1659
     23  F3         7.0150    0.4400   -1.5850 F       1  UNL1       -0.1659
     24  C16        4.4600    1.1480   -0.0920 C.ar    1  UNL1       -0.0494
     25  C17        3.1320    0.9460    0.2030 C.ar    1  UNL1       -0.0491
     26 H           0.5072    0.0641   -0.8692 H       1  UNL1        0.1494
     27 H          -1.1691    0.4096    1.3396 H       1  UNL1        0.0528
     28 H          -1.1545   -1.3171    0.8324 H       1  UNL1        0.0528
     29 H          -2.8472    0.4486   -3.5230 H       1  UNL1        0.1921
     30 H          -6.6035    0.2812   -0.8552 H       1  UNL1        0.0625
     31 H          -6.9288   -0.0087    1.4849 H       1  UNL1        0.0618
     32 H          -5.0399   -0.3335    2.9689 H       1  UNL1        0.0618
     33 H          -2.8599   -0.3495    2.0294 H       1  UNL1        0.0624
     34 H           3.3505   -2.1773    1.2888 H       1  UNL1        0.0625
     35 H           5.6715   -1.7888    0.7550 H       1  UNL1        0.0623
     36 H           4.7524    2.0643   -0.4661 H       1  UNL1        0.0623
     37 H           2.4447    1.7000    0.0475 H       1  UNL1        0.0625
@<TRIPOS>BOND
     1     1     2    2
     2     2     3   am
     3     2    16    1
     4     3     4    1
     5     4     5    1
     6     5     6   ar
     7     5    15   ar
     8     6     7   ar
     9     7     8   ar
    10     8     9    2
    11     8    10   ar
    12    10    11   ar
    13    10    15   ar
    14    11    12   ar
    15    12    13   ar
    16    13    14   ar
    17    14    15   ar
    18    16    17   ar
    19    16    25   ar
    20    17    18   ar
    21    18    19   ar
    22    19    20    1
    23    19    24   ar
    24    20    21    1
    25    20    22    1
    26    20    23    1
    27    24    25   ar
    28     3    26    1
    29     4    27    1
    30     4    28    1
    31     7    29    1
    32    11    30    1
    33    12    31    1
    34    13    32    1
    35    14    33    1
    36    17    34    1
    37    18    35    1
    38    24    36    1
    39    25    37    1
@<TRIPOS>MOLECULE
../data/bude_mols_rdkit_confs/molecule_36.pdb
 37 39 0 0 0
SMALL
GASTEIGER

@<TRIPOS>ATOM
      1  O1         0.3730   -1.1780    1.8970 O.2     1  UNL1       -0.2702
      2  C1         0.9430   -0.2770    1.2760 C.2     1  UNL1        0.2444
      3  N1         0.1640    0.7520    0.6940 N.am    1  UNL1       -0.3057
      4  C2        -1.2420    0.9290    0.6760 C.3     1  UNL1        0.0565
      5  C3        -1.9010   -0.1180   -0.1740 C.ar    1  UNL1        0.0863
      6  N2        -1.2210   -1.1370   -0.7200 N.ar    1  UNL1       -0.1737
      7  N3        -1.8740   -2.0190   -1.4810 N.ar    1  UNL1       -0.2424
      8  C4        -3.2100   -1.8780   -1.6910 C.ar    1  UNL1        0.2725
      9  O2        -3.8010   -2.7390   -2.4300 O.2     1  UNL1       -0.2658
     10  C5        -3.9500   -0.8480   -1.1460 C.ar    1  UNL1        0.0496
     11  C6        -5.2990   -0.6720   -1.3760 C.ar    1  UNL1       -0.0487
     12  C7        -5.9270    0.4210   -0.8070 C.ar    1  UNL1       -0.0610
     13  C8        -5.2840    1.3450   -0.0230 C.ar    1  UNL1       -0.0611
     14  C9        -3.9160    1.1570    0.2030 C.ar    1  UNL1       -0.0520
     15  C10       -3.2710    0.0780   -0.3500 C.ar    1  UNL1        0.0118
     16  C11        2.4100   -0.1670    1.0700 C.ar    1  UNL1        0.0367
     17  C12        3.0060    1.0570    0.8950 C.ar    1  UNL1       -0.0491
     18  C13        4.3410    1.1630    0.5700 C.ar    1  UNL1       -0.0494
     19  C14        5.1180    0.0200    0.4110 C.ar    1  UNL1        0.0549
     20  C15        6.5540    0.1700    0.0000 C.3     1  UNL1        0.4174
     21  F1         6.6190    1.4020   -0.6860 F       1  UNL1       -0.1659
     22  F2         7.4150    0.2850    1.0410 F       1  UNL1       -0.1659
     23  F3         6.8840   -0.8070   -0.8850 F       1  UNL1       -0.1659
     24  C16        4.5100   -1.1920    0.5940 C.ar    1  UNL1       -0.0494
     25  C17        3.1510   -1.2910    0.9260 C.ar    1  UNL1       -0.0491
     26 H           0.6780    1.4522    0.2306 H       1  UNL1        0.1494
     27 H          -1.4686    1.8965    0.2791 H       1  UNL1        0.0528
     28 H          -1.6113    0.8405    1.6763 H       1  UNL1        0.0528
     29 H          -1.3881   -2.7713   -1.8899 H       1  UNL1        0.1921
     30 H          -5.8270   -1.3402   -1.9589 H       1  UNL1        0.0625
     31 H          -6.9360    0.5486   -0.9820 H       1  UNL1        0.0618
     32 H          -5.7895    2.1473    0.3842 H       1  UNL1        0.0618
     33 H          -3.3919    1.8290    0.7851 H       1  UNL1        0.0624
     34 H           2.4434    1.9146    1.0090 H       1  UNL1        0.0625
     35 H           4.7664    2.0948    0.4440 H       1  UNL1        0.0623
     36 H           5.0654   -2.0550    0.4850 H       1  UNL1        0.0623
     37 H           2.7171   -2.2177    1.0601 H       1  UNL1        0.0625
@<TRIPOS>BOND
     1     1     2    2
     2     2     3   am
     3     2    16    1
     4     3     4    1
     5     4     5    1
     6     5     6   ar
     7     5    15   ar
     8     6     7   ar
     9     7     8   ar
    10     8     9    2
    11     8    10   ar
    12    10    11   ar
    13    10    15   ar
    14    11    12   ar
    15    12    13   ar
    16    13    14   ar
    17    14    15   ar
    18    16    17   ar
    19    16    25   ar
    20    17    18   ar
    21    18    19   ar
    22    19    20    1
    23    19    24   ar
    24    20    21    1
    25    20    22    1
    26    20    23    1
    27    24    25   ar
    28     3    26    1
    29     4    27    1
    30     4    28    1
    31     7    29    1
    32    11    30    1
    33    12    31    1
    34    13    32    1
    35    14    33    1
    36    17    34    1
    37    18    35    1
    38    24    36    1
    39    25    37    1
@<TRIPOS>MOLECULE
../data/bude_mols_rdkit_confs/molecule_36.pdb
 37 39 0 0 0
SMALL
GASTEIGER

@<TRIPOS>ATOM
      1  O1         0.9550   -1.2370   -1.5090 O.2     1  UNL1       -0.2702
      2  C1         1.3400   -0.5730   -0.4760 C.2     1  UNL1        0.2444
      3  N1         0.2470   -0.0300    0.3410 N.am    1  UNL1       -0.3057
      4  C2        -1.0570   -0.2060   -0.2140 C.3     1  UNL1        0.0565
      5  C3        -2.2150    0.2150    0.5330 C.ar    1  UNL1        0.0863
      6  N2        -2.2630    0.6180    1.7950 N.ar    1  UNL1       -0.1737
      7  N3        -3.4140    0.9710    2.4070 N.ar    1  UNL1       -0.2424
      8  C4        -4.6020    0.9350    1.7810 C.ar    1  UNL1        0.2725
      9  O2        -5.6330    1.2870    2.4250 O.2     1  UNL1       -0.2658
     10  C5        -4.6290    0.5300    0.4770 C.ar    1  UNL1        0.0496
     11  C6        -5.8420    0.5090   -0.1950 C.ar    1  UNL1       -0.0487
     12  C7        -5.8560    0.1350   -1.5170 C.ar    1  UNL1       -0.0610
     13  C8        -4.6710   -0.2260   -2.1890 C.ar    1  UNL1       -0.0611
     14  C9        -3.4600   -0.2090   -1.4860 C.ar    1  UNL1       -0.0520
     15  C10       -3.4470    0.1670   -0.1660 C.ar    1  UNL1        0.0118
     16  C11        2.7260   -0.3690   -0.1690 C.ar    1  UNL1        0.0367
     17  C12        3.3730    0.8010   -0.6710 C.ar    1  UNL1       -0.0491
     18  C13        4.7010    0.9890   -0.4560 C.ar    1  UNL1       -0.0494
     19  C14        5.4770    0.0510    0.2660 C.ar    1  UNL1        0.0549
     20  C15        6.9490    0.2980    0.4120 C.3     1  UNL1        0.4174
     21  F1         7.2290    0.6640    1.6970 F       1  UNL1       -0.1659
     22  F2         7.6410   -0.8090   -0.0170 F       1  UNL1       -0.1659
     23  F3         7.3280    1.4200   -0.3520 F       1  UNL1       -0.1659
     24  C16        4.8630   -1.0570    0.7450 C.ar    1  UNL1       -0.0494
     25  C17        3.4830   -1.2610    0.5280 C.ar    1  UNL1       -0.0491
     26 H           0.4011    0.4198    1.2031 H       1  UNL1        0.1494
     27 H          -1.1743   -1.2524   -0.4041 H       1  UNL1        0.0528
     28 H          -1.0568    0.4475   -1.0613 H       1  UNL1        0.0528
     29 H          -3.3812    1.2654    3.3459 H       1  UNL1        0.1921
     30 H          -6.7162    0.7690    0.2880 H       1  UNL1        0.0625
     31 H          -6.7523    0.1181   -2.0282 H       1  UNL1        0.0618
     32 H          -4.6953   -0.4987   -3.1840 H       1  UNL1        0.0618
     33 H          -2.5823   -0.4777   -1.9577 H       1  UNL1        0.0624
     34 H           2.8312    1.5041   -1.1975 H       1  UNL1        0.0625
     35 H           5.1556    1.8373   -0.8285 H       1  UNL1        0.0623
     36 H           5.4077   -1.7571    1.2724 H       1  UNL1        0.0623
     37 H           3.0355   -2.1097    0.9081 H       1  UNL1        0.0625
@<TRIPOS>BOND
     1     1     2    2
     2     2     3   am
     3     2    16    1
     4     3     4    1
     5     4     5    1
     6     5     6   ar
     7     5    15   ar
     8     6     7   ar
     9     7     8   ar
    10     8     9    2
    11     8    10   ar
    12    10    11   ar
    13    10    15   ar
    14    11    12   ar
    15    12    13   ar
    16    13    14   ar
    17    14    15   ar
    18    16    17   ar
    19    16    25   ar
    20    17    18   ar
    21    18    19   ar
    22    19    20    1
    23    19    24   ar
    24    20    21    1
    25    20    22    1
    26    20    23    1
    27    24    25   ar
    28     3    26    1
    29     4    27    1
    30     4    28    1
    31     7    29    1
    32    11    30    1
    33    12    31    1
    34    13    32    1
    35    14    33    1
    36    17    34    1
    37    18    35    1
    38    24    36    1
    39    25    37    1
@<TRIPOS>MOLECULE
../data/bude_mols_rdkit_confs/molecule_36.pdb
 37 39 0 0 0
SMALL
GASTEIGER

@<TRIPOS>ATOM
      1  O1         0.4310   -0.5190    1.3780 O.2     1  UNL1       -0.2702
      2  C1         1.0740    0.1020    0.4970 C.2     1  UNL1        0.2444
      3  N1         0.4400    1.1750   -0.1890 N.am    1  UNL1       -0.3057
      4  C2        -0.9260    1.5720    0.1030 C.3     1  UNL1        0.0565
      5  C3        -1.9250    0.5520   -0.2150 C.ar    1  UNL1        0.0863
      6  N2        -1.5980   -0.6040   -0.7880 N.ar    1  UNL1       -0.1737
      7  N3        -2.5020   -1.5060   -1.1040 N.ar    1  UNL1       -0.2424
      8  C4        -3.8010   -1.3500   -0.8830 C.ar    1  UNL1        0.2725
      9  O2        -4.6190   -2.2350   -1.2000 O.2     1  UNL1       -0.2658
     10  C5        -4.2150   -0.1750   -0.2900 C.ar    1  UNL1        0.0496
     11  C6        -5.5400    0.0420   -0.0240 C.ar    1  UNL1       -0.0487
     12  C7        -5.8800    1.2410    0.5880 C.ar    1  UNL1       -0.0610
     13  C8        -4.9360    2.1860    0.9190 C.ar    1  UNL1       -0.0611
     14  C9        -3.5960    1.9730    0.6520 C.ar    1  UNL1       -0.0520
     15  C10       -3.2680    0.7820    0.0460 C.ar    1  UNL1        0.0118
     16  C11        2.4420   -0.3050    0.2200 C.ar    1  UNL1        0.0367
     17  C12        3.2200   -0.8820    1.2040 C.ar    1  UNL1       -0.0491
     18  C13        4.5250   -1.2800    1.0180 C.ar    1  UNL1       -0.0494
     19  C14        5.1270   -1.1090   -0.2100 C.ar    1  UNL1        0.0549
     20  C15        6.5500   -1.5110   -0.4370 C.3     1  UNL1        0.4174
     21  F1         7.3050   -0.3790   -0.0820 F       1  UNL1       -0.1659
     22  F2         6.8810   -2.5560    0.3720 F       1  UNL1       -0.1659
     23  F3         6.6930   -1.7570   -1.7750 F       1  UNL1       -0.1659
     24  C16        4.3590   -0.5300   -1.2150 C.ar    1  UNL1       -0.0494
     25  C17        3.0560   -0.1370   -1.0170 C.ar    1  UNL1       -0.0491
     26 H           0.9418    1.6625   -0.8817 H       1  UNL1        0.1494
     27 H          -1.1496    2.4503   -0.4658 H       1  UNL1        0.0528
     28 H          -0.9801    1.7385    1.1586 H       1  UNL1        0.0528
     29 H          -2.1984   -2.3415   -1.5271 H       1  UNL1        0.1921
     30 H          -6.2579   -0.6579   -0.2686 H       1  UNL1        0.0625
     31 H          -6.8720    1.4295    0.8014 H       1  UNL1        0.0618
     32 H          -5.2318    3.0647    1.3722 H       1  UNL1        0.0618
     33 H          -2.8775    2.6727    0.8952 H       1  UNL1        0.0624
     34 H           2.7980   -1.0235    2.1351 H       1  UNL1        0.0625
     35 H           5.0515   -1.7057    1.7969 H       1  UNL1        0.0623
     36 H           4.7834   -0.3899   -2.1452 H       1  UNL1        0.0623
     37 H           2.5275    0.2875   -1.7952 H       1  UNL1        0.0625
@<TRIPOS>BOND
     1     1     2    2
     2     2     3   am
     3     2    16    1
     4     3     4    1
     5     4     5    1
     6     5     6   ar
     7     5    15   ar
     8     6     7   ar
     9     7     8   ar
    10     8     9    2
    11     8    10   ar
    12    10    11   ar
    13    10    15   ar
    14    11    12   ar
    15    12    13   ar
    16    13    14   ar
    17    14    15   ar
    18    16    17   ar
    19    16    25   ar
    20    17    18   ar
    21    18    19   ar
    22    19    20    1
    23    19    24   ar
    24    20    21    1
    25    20    22    1
    26    20    23    1
    27    24    25   ar
    28     3    26    1
    29     4    27    1
    30     4    28    1
    31     7    29    1
    32    11    30    1
    33    12    31    1
    34    13    32    1
    35    14    33    1
    36    17    34    1
    37    18    35    1
    38    24    36    1
    39    25    37    1
@<TRIPOS>MOLECULE
../data/bude_mols_rdkit_confs/molecule_36.pdb
 37 39 0 0 0
SMALL
GASTEIGER

@<TRIPOS>ATOM
      1  O1         0.4640    1.4860   -0.7580 O.2     1  UNL1       -0.2702
      2  C1         1.0680    0.4640   -0.3600 C.2     1  UNL1        0.2444
      3  N1         0.2980   -0.7330   -0.2020 N.am    1  UNL1       -0.3057
      4  C2        -1.0820   -0.8580   -0.5150 C.3     1  UNL1        0.0565
      5  C3        -2.0190   -0.0180    0.2140 C.ar    1  UNL1        0.0863
      6  N2        -1.6700    0.8280    1.1750 N.ar    1  UNL1       -0.1737
      7  N3        -2.5650    1.5780    1.8280 N.ar    1  UNL1       -0.2424
      8  C4        -3.8760    1.5230    1.5540 C.ar    1  UNL1        0.2725
      9  O2        -4.6990    2.2490    2.1900 O.2     1  UNL1       -0.2658
     10  C5        -4.2830    0.6670    0.5740 C.ar    1  UNL1        0.0496
     11  C6        -5.6260    0.5420    0.1970 C.ar    1  UNL1       -0.0487
     12  C7        -6.0190   -0.3200   -0.8080 C.ar    1  UNL1       -0.0610
     13  C8        -5.0760   -1.0880   -1.4730 C.ar    1  UNL1       -0.0611
     14  C9        -3.7360   -0.9670   -1.0990 C.ar    1  UNL1       -0.0520
     15  C10       -3.3820   -0.0970   -0.0940 C.ar    1  UNL1        0.0118
     16  C11        2.5160    0.4840   -0.0780 C.ar    1  UNL1        0.0367
     17  C12        3.1280    0.8750    1.0500 C.ar    1  UNL1       -0.0491
     18  C13        4.5140    0.8500    1.1650 C.ar    1  UNL1       -0.0494
     19  C14        5.3280    0.4260    0.1410 C.ar    1  UNL1        0.0549
     20  C15        6.8010    0.4060    0.2450 C.3     1  UNL1        0.4174
     21  F1         7.3370    0.1000   -1.0150 F       1  UNL1       -0.1659
     22  F2         7.2690    1.6160    0.6930 F       1  UNL1       -0.1659
     23  F3         7.2690   -0.6030    1.0910 F       1  UNL1       -0.1659
     24  C16        4.6930    0.0170   -1.0340 C.ar    1  UNL1       -0.0494
     25  C17        3.3300    0.0420   -1.1440 C.ar    1  UNL1       -0.0491
     26 H           0.7593   -1.5284    0.1497 H       1  UNL1        0.1494
     27 H          -1.3594   -1.8759   -0.3363 H       1  UNL1        0.0528
     28 H          -1.1597   -0.5314   -1.5310 H       1  UNL1        0.0528
     29 H          -2.2507    2.1899    2.5323 H       1  UNL1        0.1921
     30 H          -6.3396    1.1080    0.6822 H       1  UNL1        0.0625
     31 H          -7.0161   -0.3924   -1.0642 H       1  UNL1        0.0618
     32 H          -5.3576   -1.7341   -2.2269 H       1  UNL1        0.0618
     33 H          -3.0132   -1.5288   -1.5754 H       1  UNL1        0.0624
     34 H           2.5597    1.2005    1.8475 H       1  UNL1        0.0625
     35 H           4.9463    1.1603    2.0492 H       1  UNL1        0.0623
     36 H           5.2611   -0.3091   -1.8314 H       1  UNL1        0.0623
     37 H           2.8877   -0.2682   -2.0233 H       1  UNL1        0.0625
@<TRIPOS>BOND
     1     1     2    2
     2     2     3   am
     3     2    16    1
     4     3     4    1
     5     4     5    1
     6     5     6   ar
     7     5    15   ar
     8     6     7   ar
     9     7     8   ar
    10     8     9    2
    11     8    10   ar
    12    10    11   ar
    13    10    15   ar
    14    11    12   ar
    15    12    13   ar
    16    13    14   ar
    17    14    15   ar
    18    16    17   ar
    19    16    25   ar
    20    17    18   ar
    21    18    19   ar
    22    19    20    1
    23    19    24   ar
    24    20    21    1
    25    20    22    1
    26    20    23    1
    27    24    25   ar
    28     3    26    1
    29     4    27    1
    30     4    28    1
    31     7    29    1
    32    11    30    1
    33    12    31    1
    34    13    32    1
    35    14    33    1
    36    17    34    1
    37    18    35    1
    38    24    36    1
    39    25    37    1
@<TRIPOS>MOLECULE
../data/bude_mols_rdkit_confs/molecule_36.pdb
 37 39 0 0 0
SMALL
GASTEIGER

@<TRIPOS>ATOM
      1  O1         1.2670   -1.1250   -2.6800 O.2     1  UNL1       -0.2702
      2  C1         1.3450   -0.6490   -1.5190 C.2     1  UNL1        0.2444
      3  N1         0.1720   -0.4950   -0.7780 N.am    1  UNL1       -0.3057
      4  C2        -1.2030   -0.7780   -1.2120 C.3     1  UNL1        0.0565
      5  C3        -2.0420   -0.4300   -0.0110 C.ar    1  UNL1        0.0863
      6  N2        -1.4290   -0.5300    1.2250 N.ar    1  UNL1       -0.1737
      7  N3        -2.0870   -0.3850    2.3400 N.ar    1  UNL1       -0.2424
      8  C4        -3.4290   -0.1060    2.3520 C.ar    1  UNL1        0.2725
      9  O2        -4.0050    0.0270    3.4530 O.2     1  UNL1       -0.2658
     10  C5        -4.0540    0.0130    1.1460 C.ar    1  UNL1        0.0496
     11  C6        -5.3950    0.4580    1.1080 C.ar    1  UNL1       -0.0487
     12  C7        -5.9470    0.7080   -0.1290 C.ar    1  UNL1       -0.0610
     13  C8        -5.2880    0.5570   -1.3430 C.ar    1  UNL1       -0.0611
     14  C9        -3.9590    0.1070   -1.2350 C.ar    1  UNL1       -0.0520
     15  C10       -3.3730   -0.1500   -0.0350 C.ar    1  UNL1        0.0118
     16  C11        2.6370   -0.2420   -0.9400 C.ar    1  UNL1        0.0367
     17  C12        2.7260    0.2840    0.3290 C.ar    1  UNL1       -0.0491
     18  C13        3.9460    0.7070    0.8500 C.ar    1  UNL1       -0.0494
     19  C14        5.1060    0.6200    0.1390 C.ar    1  UNL1        0.0549
     20  C15        6.4090    0.9800    0.7930 C.3     1  UNL1        0.4174
     21  F1         7.3660    0.0220    0.5030 F       1  UNL1       -0.1659
     22  F2         6.2070    0.8870    2.1710 F       1  UNL1       -0.1659
     23  F3         6.7770    2.2170    0.4520 F       1  UNL1       -0.1659
     24  C16        5.0470    0.0840   -1.1470 C.ar    1  UNL1       -0.0494
     25  C17        3.8050   -0.3300   -1.6510 C.ar    1  UNL1       -0.0491
     26 H           0.2782   -0.1581    0.1409 H       1  UNL1        0.1494
     27 H          -1.3160   -1.8106   -1.4688 H       1  UNL1        0.0528
     28 H          -1.4821   -0.2245   -2.0841 H       1  UNL1        0.0528
     29 H          -1.6085   -0.4781    3.1953 H       1  UNL1        0.1921
     30 H          -5.9400    0.5906    1.9743 H       1  UNL1        0.0625
     31 H          -6.9262    1.0327   -0.1563 H       1  UNL1        0.0618
     32 H          -5.7368    0.7585   -2.2502 H       1  UNL1        0.0618
     33 H          -3.4095   -0.0330   -2.0972 H       1  UNL1        0.0624
     34 H           1.8733    0.3663    0.9045 H       1  UNL1        0.0625
     35 H           3.9730    1.0987    1.8044 H       1  UNL1        0.0623
     36 H           5.9019   -0.0065   -1.7179 H       1  UNL1        0.0623
     37 H           3.7692   -0.7206   -2.6056 H       1  UNL1        0.0625
@<TRIPOS>BOND
     1     1     2    2
     2     2     3   am
     3     2    16    1
     4     3     4    1
     5     4     5    1
     6     5     6   ar
     7     5    15   ar
     8     6     7   ar
     9     7     8   ar
    10     8     9    2
    11     8    10   ar
    12    10    11   ar
    13    10    15   ar
    14    11    12   ar
    15    12    13   ar
    16    13    14   ar
    17    14    15   ar
    18    16    17   ar
    19    16    25   ar
    20    17    18   ar
    21    18    19   ar
    22    19    20    1
    23    19    24   ar
    24    20    21    1
    25    20    22    1
    26    20    23    1
    27    24    25   ar
    28     3    26    1
    29     4    27    1
    30     4    28    1
    31     7    29    1
    32    11    30    1
    33    12    31    1
    34    13    32    1
    35    14    33    1
    36    17    34    1
    37    18    35    1
    38    24    36    1
    39    25    37    1
@<TRIPOS>MOLECULE
../data/bude_mols_rdkit_confs/molecule_36.pdb
 37 39 0 0 0
SMALL
GASTEIGER

@<TRIPOS>ATOM
      1  O1         0.4490    1.2230    1.2790 O.2     1  UNL1       -0.2702
      2  C1         1.0990    0.5890    0.4040 C.2     1  UNL1        0.2444
      3  N1         0.3890    0.1540   -0.7340 N.am    1  UNL1       -0.3057
      4  C2        -0.9770    0.3450   -1.0500 C.3     1  UNL1        0.0565
      5  C3        -1.9870   -0.2310   -0.1460 C.ar    1  UNL1        0.0863
      6  N2        -1.7820   -0.9710    0.9480 N.ar    1  UNL1       -0.1737
      7  N3        -2.7470   -1.4920    1.6960 N.ar    1  UNL1       -0.2424
      8  C4        -4.0490   -1.3070    1.3990 C.ar    1  UNL1        0.2725
      9  O2        -4.9540   -1.8260    2.1410 O.2     1  UNL1       -0.2658
     10  C5        -4.3630   -0.5610    0.2970 C.ar    1  UNL1        0.0496
     11  C6        -5.6790   -0.3480   -0.0230 C.ar    1  UNL1       -0.0487
     12  C7        -6.0260    0.4210   -1.1520 C.ar    1  UNL1       -0.0610
     13  C8        -4.9790    0.9190   -1.8700 C.ar    1  UNL1       -0.0611
     14  C9        -3.6400    0.7280   -1.5810 C.ar    1  UNL1       -0.0520
     15  C10       -3.3580   -0.0280   -0.4720 C.ar    1  UNL1        0.0118
     16  C11        2.5440    0.3400    0.5880 C.ar    1  UNL1        0.0367
     17  C12        3.2740   -0.5390   -0.1760 C.ar    1  UNL1       -0.0491
     18  C13        4.6410   -0.6970   -0.0140 C.ar    1  UNL1       -0.0494
     19  C14        5.3350    0.0230    0.9230 C.ar    1  UNL1        0.0549
     20  C15        6.7950   -0.1720    1.0190 C.3     1  UNL1        0.4174
     21  F1         7.3650    0.4560    2.1070 F       1  UNL1       -0.1659
     22  F2         7.0360   -1.5410    1.1070 F       1  UNL1       -0.1659
     23  F3         7.3960    0.2530   -0.1710 F       1  UNL1       -0.1659
     24  C16        4.6240    0.9120    1.7020 C.ar    1  UNL1       -0.0494
     25  C17        3.2410    1.0720    1.5400 C.ar    1  UNL1       -0.0491
     26 H           0.9138   -0.3499   -1.3973 H       1  UNL1        0.1494
     27 H          -1.1406   -0.0777   -2.0192 H       1  UNL1        0.0528
     28 H          -1.1223    1.4021   -0.9711 H       1  UNL1        0.0528
     29 H          -2.5060   -2.0265    2.4869 H       1  UNL1        0.1921
     30 H          -6.4215   -0.7540    0.5676 H       1  UNL1        0.0625
     31 H          -7.0078    0.5957   -1.4178 H       1  UNL1        0.0618
     32 H          -5.2054    1.4876   -2.7009 H       1  UNL1        0.0618
     33 H          -2.8937    1.1324   -2.1679 H       1  UNL1        0.0624
     34 H           2.7882   -1.0995   -0.8936 H       1  UNL1        0.0625
     35 H           5.1466   -1.3702   -0.6108 H       1  UNL1        0.0623
     36 H           5.1188    1.4688    2.4163 H       1  UNL1        0.0623
     37 H           2.7334    1.7436    2.1369 H       1  UNL1        0.0625
@<TRIPOS>BOND
     1     1     2    2
     2     2     3   am
     3     2    16    1
     4     3     4    1
     5     4     5    1
     6     5     6   ar
     7     5    15   ar
     8     6     7   ar
     9     7     8   ar
    10     8     9    2
    11     8    10   ar
    12    10    11   ar
    13    10    15   ar
    14    11    12   ar
    15    12    13   ar
    16    13    14   ar
    17    14    15   ar
    18    16    17   ar
    19    16    25   ar
    20    17    18   ar
    21    18    19   ar
    22    19    20    1
    23    19    24   ar
    24    20    21    1
    25    20    22    1
    26    20    23    1
    27    24    25   ar
    28     3    26    1
    29     4    27    1
    30     4    28    1
    31     7    29    1
    32    11    30    1
    33    12    31    1
    34    13    32    1
    35    14    33    1
    36    17    34    1
    37    18    35    1
    38    24    36    1
    39    25    37    1
@<TRIPOS>MOLECULE
../data/bude_mols_rdkit_confs/molecule_36.pdb
 37 39 0 0 0
SMALL
GASTEIGER

@<TRIPOS>ATOM
      1  O1         0.4200   -0.3780    1.3940 O.2     1  UNL1       -0.2702
      2  C1         1.0030   -0.5810    0.2890 C.2     1  UNL1        0.2444
      3  N1         0.1820   -0.9820   -0.8120 N.am    1  UNL1       -0.3057
      4  C2        -1.2240   -1.1240   -0.5970 C.3     1  UNL1        0.0565
      5  C3        -1.9260    0.0920   -0.1770 C.ar    1  UNL1        0.0863
      6  N2        -1.3320    1.2800   -0.0180 N.ar    1  UNL1       -0.1737
      7  N3        -2.0240    2.3670    0.3600 N.ar    1  UNL1       -0.2424
      8  C4        -3.3530    2.2960    0.5910 C.ar    1  UNL1        0.2725
      9  O2        -3.9660    3.3190    0.9400 O.2     1  UNL1       -0.2658
     10  C5        -4.0320    1.0970    0.4440 C.ar    1  UNL1        0.0496
     11  C6        -5.3850    0.9960    0.6750 C.ar    1  UNL1       -0.0487
     12  C7        -6.0620   -0.2070    0.5280 C.ar    1  UNL1       -0.0610
     13  C8        -5.3200   -1.3010    0.1410 C.ar    1  UNL1       -0.0611
     14  C9        -3.9670   -1.1950   -0.0890 C.ar    1  UNL1       -0.0520
     15  C10       -3.2810    0.0010    0.0540 C.ar    1  UNL1        0.0118
     16  C11        2.4450   -0.4090    0.1650 C.ar    1  UNL1        0.0367
     17  C12        3.1750    0.0360    1.2520 C.ar    1  UNL1       -0.0491
     18  C13        4.5440    0.2130    1.1970 C.ar    1  UNL1       -0.0494
     19  C14        5.2410   -0.0520    0.0390 C.ar    1  UNL1        0.0549
     20  C15        6.7190    0.1180   -0.0930 C.3     1  UNL1        0.4174
     21  F1         6.9900    1.0150   -1.1390 F       1  UNL1       -0.1659
     22  F2         7.3510   -1.0860   -0.3740 F       1  UNL1       -0.1659
     23  F3         7.2240    0.6820    1.0490 F       1  UNL1       -0.1659
     24  C16        4.5180   -0.4960   -1.0510 C.ar    1  UNL1       -0.0494
     25  C17        3.1410   -0.6730   -0.9890 C.ar    1  UNL1       -0.0491
     26 H           0.5763   -1.1561   -1.6971 H       1  UNL1        0.1494
     27 H          -1.3680   -1.8657    0.1607 H       1  UNL1        0.0528
     28 H          -1.6401   -1.3893   -1.5464 H       1  UNL1        0.0528
     29 H          -1.5568    3.2265    0.4702 H       1  UNL1        0.1921
     30 H          -5.9097    1.8361    0.9649 H       1  UNL1        0.0625
     31 H          -7.0769   -0.2785    0.7011 H       1  UNL1        0.0618
     32 H          -5.7856   -2.2142    0.0216 H       1  UNL1        0.0618
     33 H          -3.4444   -2.0365   -0.3784 H       1  UNL1        0.0624
     34 H           2.6805    0.2428    2.1339 H       1  UNL1        0.0625
     35 H           5.0497    0.5472    2.0322 H       1  UNL1        0.0623
     36 H           5.0126   -0.7014   -1.9332 H       1  UNL1        0.0623
     37 H           2.6337   -1.0080   -1.8230 H       1  UNL1        0.0625
@<TRIPOS>BOND
     1     1     2    2
     2     2     3   am
     3     2    16    1
     4     3     4    1
     5     4     5    1
     6     5     6   ar
     7     5    15   ar
     8     6     7   ar
     9     7     8   ar
    10     8     9    2
    11     8    10   ar
    12    10    11   ar
    13    10    15   ar
    14    11    12   ar
    15    12    13   ar
    16    13    14   ar
    17    14    15   ar
    18    16    17   ar
    19    16    25   ar
    20    17    18   ar
    21    18    19   ar
    22    19    20    1
    23    19    24   ar
    24    20    21    1
    25    20    22    1
    26    20    23    1
    27    24    25   ar
    28     3    26    1
    29     4    27    1
    30     4    28    1
    31     7    29    1
    32    11    30    1
    33    12    31    1
    34    13    32    1
    35    14    33    1
    36    17    34    1
    37    18    35    1
    38    24    36    1
    39    25    37    1
@<TRIPOS>MOLECULE
../data/bude_mols_rdkit_confs/molecule_36.pdb
 37 39 0 0 0
SMALL
GASTEIGER

@<TRIPOS>ATOM
      1  O1         0.4740    0.0050   -1.5830 O.2     1  UNL1       -0.2702
      2  C1         0.9910    0.5450   -0.5820 C.2     1  UNL1        0.2444
      3  N1         0.1950    1.2810    0.3100 N.am    1  UNL1       -0.3057
      4  C2        -1.2480    1.4830    0.1790 C.3     1  UNL1        0.0565
      5  C3        -1.8930    0.1730    0.1950 C.ar    1  UNL1        0.0863
      6  N2        -1.2050   -0.9770    0.2500 N.ar    1  UNL1       -0.1737
      7  N3        -1.7840   -2.1810    0.2430 N.ar    1  UNL1       -0.2424
      8  C4        -3.1320   -2.3150    0.1790 C.ar    1  UNL1        0.2725
      9  O2        -3.7280   -3.4110    0.1640 O.2     1  UNL1       -0.2658
     10  C5        -3.9110   -1.1590    0.1190 C.ar    1  UNL1        0.0496
     11  C6        -5.3020   -1.2310    0.0660 C.ar    1  UNL1       -0.0487
     12  C7        -6.0610   -0.0760    0.0220 C.ar    1  UNL1       -0.0610
     13  C8        -5.4400    1.1480    0.0300 C.ar    1  UNL1       -0.0611
     14  C9        -4.0630    1.1870    0.0830 C.ar    1  UNL1       -0.0520
     15  C10       -3.2610    0.0730    0.1300 C.ar    1  UNL1        0.0118
     16  C11        2.4170    0.3770   -0.3860 C.ar    1  UNL1        0.0367
     17  C12        2.8660   -0.5410    0.5650 C.ar    1  UNL1       -0.0491
     18  C13        4.2280   -0.7130    0.7530 C.ar    1  UNL1       -0.0494
     19  C14        5.1120    0.0270   -0.0080 C.ar    1  UNL1        0.0549
     20  C15        6.5770   -0.2190    0.2270 C.3     1  UNL1        0.4174
     21  F1         7.3440    0.7870   -0.2960 F       1  UNL1       -0.1659
     22  F2         6.8890   -1.4430   -0.3740 F       1  UNL1       -0.1659
     23  F3         6.7930   -0.3380    1.5750 F       1  UNL1       -0.1659
     24  C16        4.6740    0.9330   -0.9480 C.ar    1  UNL1       -0.0494
     25  C17        3.3320    1.1010   -1.1290 C.ar    1  UNL1       -0.0491
     26 H           0.6427    1.6932    1.0839 H       1  UNL1        0.1494
     27 H          -1.4622    1.9814   -0.7433 H       1  UNL1        0.0528
     28 H          -1.6125    2.0854    0.9847 H       1  UNL1        0.0528
     29 H          -1.2207   -2.9873    0.2852 H       1  UNL1        0.1921
     30 H          -5.7681   -2.1517    0.0596 H       1  UNL1        0.0625
     31 H          -7.0906   -0.1341   -0.0167 H       1  UNL1        0.0618
     32 H          -5.9916    2.0196   -0.0029 H       1  UNL1        0.0618
     33 H          -3.6057    2.1121    0.0877 H       1  UNL1        0.0624
     34 H           2.1901   -1.0862    1.1226 H       1  UNL1        0.0625
     35 H           4.5777   -1.3858    1.4531 H       1  UNL1        0.0623
     36 H           5.3502    1.4765   -1.5069 H       1  UNL1        0.0623
     37 H           2.9946    1.7783   -1.8307 H       1  UNL1        0.0625
@<TRIPOS>BOND
     1     1     2    2
     2     2     3   am
     3     2    16    1
     4     3     4    1
     5     4     5    1
     6     5     6   ar
     7     5    15   ar
     8     6     7   ar
     9     7     8   ar
    10     8     9    2
    11     8    10   ar
    12    10    11   ar
    13    10    15   ar
    14    11    12   ar
    15    12    13   ar
    16    13    14   ar
    17    14    15   ar
    18    16    17   ar
    19    16    25   ar
    20    17    18   ar
    21    18    19   ar
    22    19    20    1
    23    19    24   ar
    24    20    21    1
    25    20    22    1
    26    20    23    1
    27    24    25   ar
    28     3    26    1
    29     4    27    1
    30     4    28    1
    31     7    29    1
    32    11    30    1
    33    12    31    1
    34    13    32    1
    35    14    33    1
    36    17    34    1
    37    18    35    1
    38    24    36    1
    39    25    37    1
@<TRIPOS>MOLECULE
../data/bude_mols_rdkit_confs/molecule_36.pdb
 37 39 0 0 0
SMALL
GASTEIGER

@<TRIPOS>ATOM
      1  O1         1.3500    2.3840    0.7370 O.2     1  UNL1       -0.2702
      2  C1         1.4070    1.1570    0.5200 C.2     1  UNL1        0.2444
      3  N1         0.2000    0.4330    0.4000 N.am    1  UNL1       -0.3057
      4  C2        -1.0940    1.1040    0.4260 C.3     1  UNL1        0.0565
      5  C3        -2.0950    0.0010    0.1880 C.ar    1  UNL1        0.0863
      6  N2        -1.7270   -1.2780    0.2890 N.ar    1  UNL1       -0.1737
      7  N3        -2.5000   -2.3170    0.1590 N.ar    1  UNL1       -0.2424
      8  C4        -3.8140   -2.0790   -0.1070 C.ar    1  UNL1        0.2725
      9  O2        -4.6020   -3.0720   -0.2460 O.2     1  UNL1       -0.2658
     10  C5        -4.2960   -0.8150   -0.2310 C.ar    1  UNL1        0.0496
     11  C6        -5.6360   -0.5680   -0.5680 C.ar    1  UNL1       -0.0487
     12  C7        -6.0670    0.7450   -0.7400 C.ar    1  UNL1       -0.0610
     13  C8        -5.1850    1.8030   -0.5820 C.ar    1  UNL1       -0.0611
     14  C9        -3.8710    1.5490   -0.2490 C.ar    1  UNL1       -0.0520
     15  C10       -3.4220    0.2590   -0.0770 C.ar    1  UNL1        0.0118
     16  C11        2.7480    0.5600    0.3860 C.ar    1  UNL1        0.0367
     17  C12        3.6090    1.2240   -0.5170 C.ar    1  UNL1       -0.0491
     18  C13        4.8610    0.7270   -0.7620 C.ar    1  UNL1       -0.0494
     19  C14        5.2650   -0.4290   -0.1170 C.ar    1  UNL1        0.0549
     20  C15        6.6160   -0.9450   -0.4160 C.3     1  UNL1        0.4174
     21  F1         6.9890   -1.9390    0.4090 F       1  UNL1       -0.1659
     22  F2         6.5370   -1.4630   -1.7310 F       1  UNL1       -0.1659
     23  F3         7.5670    0.0580   -0.3370 F       1  UNL1       -0.1659
     24  C16        4.4370   -1.0800    0.7610 C.ar    1  UNL1       -0.0494
     25  C17        3.1810   -0.5630    0.9950 C.ar    1  UNL1       -0.0491
     26 H           0.2333   -0.5455    0.2966 H       1  UNL1        0.1494
     27 H          -1.1532    1.8419   -0.3466 H       1  UNL1        0.0528
     28 H          -1.2672    1.6193    1.3476 H       1  UNL1        0.0528
     29 H          -2.1507   -3.2330    0.2489 H       1  UNL1        0.1921
     30 H          -6.2959   -1.3524   -0.6872 H       1  UNL1        0.0625
     31 H          -7.0513    0.9321   -0.9872 H       1  UNL1        0.0618
     32 H          -5.5095    2.7739   -0.7127 H       1  UNL1        0.0618
     33 H          -3.2154    2.3366   -0.1271 H       1  UNL1        0.0624
     34 H           3.2937    2.0842   -0.9921 H       1  UNL1        0.0625
     35 H           5.4951    1.2080   -1.4189 H       1  UNL1        0.0623
     36 H           4.7484   -1.9408    1.2376 H       1  UNL1        0.0623
     37 H           2.5539   -1.0490    1.6550 H       1  UNL1        0.0625
@<TRIPOS>BOND
     1     1     2    2
     2     2     3   am
     3     2    16    1
     4     3     4    1
     5     4     5    1
     6     5     6   ar
     7     5    15   ar
     8     6     7   ar
     9     7     8   ar
    10     8     9    2
    11     8    10   ar
    12    10    11   ar
    13    10    15   ar
    14    11    12   ar
    15    12    13   ar
    16    13    14   ar
    17    14    15   ar
    18    16    17   ar
    19    16    25   ar
    20    17    18   ar
    21    18    19   ar
    22    19    20    1
    23    19    24   ar
    24    20    21    1
    25    20    22    1
    26    20    23    1
    27    24    25   ar
    28     3    26    1
    29     4    27    1
    30     4    28    1
    31     7    29    1
    32    11    30    1
    33    12    31    1
    34    13    32    1
    35    14    33    1
    36    17    34    1
    37    18    35    1
    38    24    36    1
    39    25    37    1
@<TRIPOS>MOLECULE
../data/bude_mols_rdkit_confs/molecule_36.pdb
 37 39 0 0 0
SMALL
GASTEIGER

@<TRIPOS>ATOM
      1  O1         0.5580   -2.4980   -0.8500 O.2     1  UNL1       -0.2702
      2  C1         0.9300   -1.6250   -0.1560 C.2     1  UNL1        0.2444
      3  N1         0.1470   -1.0350    0.8780 N.am    1  UNL1       -0.3057
      4  C2        -1.1720   -1.2740    1.2600 C.3     1  UNL1        0.0565
      5  C3        -2.0440   -0.9980    0.1150 C.ar    1  UNL1        0.0863
      6  N2        -2.0920   -1.8220   -0.9410 N.ar    1  UNL1       -0.1737
      7  N3        -2.9330   -1.7640   -1.9610 N.ar    1  UNL1       -0.2424
      8  C4        -3.8460   -0.7300   -1.9150 C.ar    1  UNL1        0.2725
      9  O2        -4.6410   -0.6410   -2.8550 O.2     1  UNL1       -0.2658
     10  C5        -3.8390    0.1490   -0.8650 C.ar    1  UNL1        0.0496
     11  C6        -4.6740    1.2770   -0.8510 C.ar    1  UNL1       -0.0487
     12  C7        -4.5700    2.2190    0.1780 C.ar    1  UNL1       -0.0610
     13  C8        -3.6550    2.0480    1.1810 C.ar    1  UNL1       -0.0611
     14  C9        -2.8400    0.9440    1.1730 C.ar    1  UNL1       -0.0520
     15  C10       -2.9300    0.0300    0.1910 C.ar    1  UNL1        0.0118
     16  C11        2.2900   -0.9740   -0.2590 C.ar    1  UNL1        0.0367
     17  C12        2.2680    0.4350   -0.4580 C.ar    1  UNL1       -0.0491
     18  C13        3.4090    1.1520   -0.4280 C.ar    1  UNL1       -0.0494
     19  C14        4.6040    0.5180   -0.2040 C.ar    1  UNL1        0.0549
     20  C15        5.8550    1.3360   -0.1400 C.3     1  UNL1        0.4174
     21  F1         6.9590    0.5450    0.0650 F       1  UNL1       -0.1659
     22  F2         5.7500    2.1600    1.0220 F       1  UNL1       -0.1659
     23  F3         5.9250    2.1270   -1.2500 F       1  UNL1       -0.1659
     24  C16        4.6170   -0.8580   -0.0260 C.ar    1  UNL1       -0.0494
     25  C17        3.4630   -1.6260   -0.0450 C.ar    1  UNL1       -0.0491
     26 H           0.6125   -0.3481    1.4078 H       1  UNL1        0.1494
     27 H          -1.4335   -0.6329    2.0758 H       1  UNL1        0.0528
     28 H          -1.2854   -2.2916    1.5708 H       1  UNL1        0.0528
     29 H          -2.9091   -2.4130   -2.7009 H       1  UNL1        0.1921
     30 H          -5.3677    1.4121   -1.6030 H       1  UNL1        0.0625
     31 H          -5.1863    3.0468    0.1807 H       1  UNL1        0.0618
     32 H          -3.5784    2.7447    1.9385 H       1  UNL1        0.0618
     33 H          -2.1501    0.8138    1.9294 H       1  UNL1        0.0624
     34 H           1.3690    0.9128   -0.6270 H       1  UNL1        0.0625
     35 H           3.3833    2.1734   -0.5730 H       1  UNL1        0.0623
     36 H           5.5225   -1.3289    0.1267 H       1  UNL1        0.0623
     37 H           3.4934   -2.6477    0.0971 H       1  UNL1        0.0625
@<TRIPOS>BOND
     1     1     2    2
     2     2     3   am
     3     2    16    1
     4     3     4    1
     5     4     5    1
     6     5     6   ar
     7     5    15   ar
     8     6     7   ar
     9     7     8   ar
    10     8     9    2
    11     8    10   ar
    12    10    11   ar
    13    10    15   ar
    14    11    12   ar
    15    12    13   ar
    16    13    14   ar
    17    14    15   ar
    18    16    17   ar
    19    16    25   ar
    20    17    18   ar
    21    18    19   ar
    22    19    20    1
    23    19    24   ar
    24    20    21    1
    25    20    22    1
    26    20    23    1
    27    24    25   ar
    28     3    26    1
    29     4    27    1
    30     4    28    1
    31     7    29    1
    32    11    30    1
    33    12    31    1
    34    13    32    1
    35    14    33    1
    36    17    34    1
    37    18    35    1
    38    24    36    1
    39    25    37    1
@<TRIPOS>MOLECULE
../data/bude_mols_rdkit_confs/molecule_36.pdb
 37 39 0 0 0
SMALL
GASTEIGER

@<TRIPOS>ATOM
      1  O1        -0.1230    0.9680   -0.1110 O.2     1  UNL1       -0.2702
      2  C1         0.7940    0.1030   -0.0620 C.2     1  UNL1        0.2444
      3  N1         0.3770   -1.2810    0.0240 N.am    1  UNL1       -0.3057
      4  C2        -0.9870   -1.6490   -0.0290 C.3     1  UNL1        0.0565
      5  C3        -2.0140   -1.0160    0.7150 C.ar    1  UNL1        0.0863
      6  N2        -2.2000   -0.9830    2.0130 N.ar    1  UNL1       -0.1737
      7  N3        -3.2750   -0.5320    2.6090 N.ar    1  UNL1       -0.2424
      8  C4        -4.3270   -0.0340    1.9320 C.ar    1  UNL1        0.2725
      9  O2        -5.3750    0.4000    2.4350 O.2     1  UNL1       -0.2658
     10  C5        -4.1890   -0.0340    0.5410 C.ar    1  UNL1        0.0496
     11  C6        -5.1780    0.5500   -0.2760 C.ar    1  UNL1       -0.0487
     12  C7        -4.9770    0.6330   -1.6150 C.ar    1  UNL1       -0.0610
     13  C8        -3.8400    0.1660   -2.2200 C.ar    1  UNL1       -0.0611
     14  C9        -2.8310   -0.4360   -1.4470 C.ar    1  UNL1       -0.0520
     15  C10       -3.0780   -0.5030   -0.0580 C.ar    1  UNL1        0.0118
     16  C11        2.1930    0.4600   -0.1200 C.ar    1  UNL1        0.0367
     17  C12        2.7880    1.5700    0.3790 C.ar    1  UNL1       -0.0491
     18  C13        4.1400    1.7700    0.3340 C.ar    1  UNL1       -0.0494
     19  C14        4.9730    0.8220   -0.2250 C.ar    1  UNL1        0.0549
     20  C15        6.4440    0.8530   -0.1470 C.3     1  UNL1        0.4174
     21  F1         7.0330    0.9890   -1.3570 F       1  UNL1       -0.1659
     22  F2         6.8350    1.7670    0.8210 F       1  UNL1       -0.1659
     23  F3         6.8430   -0.4390    0.3590 F       1  UNL1       -0.1659
     24  C16        4.3710   -0.3050   -0.7330 C.ar    1  UNL1       -0.0494
     25  C17        3.0530   -0.5120   -0.7000 C.ar    1  UNL1       -0.0491
     26 H           1.0602   -1.9831    0.1218 H       1  UNL1        0.1494
     27 H          -1.0190   -2.6803    0.2542 H       1  UNL1        0.0528
     28 H          -1.2395   -1.3405   -1.0220 H       1  UNL1        0.0528
     29 H          -3.3158   -0.5581    3.5923 H       1  UNL1        0.1921
     30 H          -6.0494    0.9121    0.1418 H       1  UNL1        0.0625
     31 H          -5.7089    1.0647   -2.2006 H       1  UNL1        0.0618
     32 H          -3.7241    0.2558   -3.2415 H       1  UNL1        0.0618
     33 H          -1.9644   -0.8056   -1.8683 H       1  UNL1        0.0624
     34 H           2.1955    2.2958    0.8117 H       1  UNL1        0.0625
     35 H           4.5414    2.6381    0.7217 H       1  UNL1        0.0623
     36 H           4.9693   -1.0282   -1.1620 H       1  UNL1        0.0623
     37 H           2.6576   -1.3790   -1.0961 H       1  UNL1        0.0625
@<TRIPOS>BOND
     1     1     2    2
     2     2     3   am
     3     2    16    1
     4     3     4    1
     5     4     5    1
     6     5     6   ar
     7     5    15   ar
     8     6     7   ar
     9     7     8   ar
    10     8     9    2
    11     8    10   ar
    12    10    11   ar
    13    10    15   ar
    14    11    12   ar
    15    12    13   ar
    16    13    14   ar
    17    14    15   ar
    18    16    17   ar
    19    16    25   ar
    20    17    18   ar
    21    18    19   ar
    22    19    20    1
    23    19    24   ar
    24    20    21    1
    25    20    22    1
    26    20    23    1
    27    24    25   ar
    28     3    26    1
    29     4    27    1
    30     4    28    1
    31     7    29    1
    32    11    30    1
    33    12    31    1
    34    13    32    1
    35    14    33    1
    36    17    34    1
    37    18    35    1
    38    24    36    1
    39    25    37    1
@<TRIPOS>MOLECULE
../data/bude_mols_rdkit_confs/molecule_36.pdb
 37 39 0 0 0
SMALL
GASTEIGER

@<TRIPOS>ATOM
      1  O1         0.4620    0.4470   -0.8610 O.2     1  UNL1       -0.2702
      2  C1         1.0460   -0.0950    0.1150 C.2     1  UNL1        0.2444
      3  N1         0.2350   -0.8120    1.0610 N.am    1  UNL1       -0.3057
      4  C2        -1.1440   -0.9280    0.7690 C.3     1  UNL1        0.0565
      5  C3        -2.0020    0.2320    0.6120 C.ar    1  UNL1        0.0863
      6  N2        -1.7150    1.5060    0.7990 N.ar    1  UNL1       -0.1737
      7  N3        -2.5890    2.4790    0.6070 N.ar    1  UNL1       -0.2424
      8  C4        -3.8630    2.2460    0.1980 C.ar    1  UNL1        0.2725
      9  O2        -4.6750    3.2180    0.0210 O.2     1  UNL1       -0.2658
     10  C5        -4.2230    0.9370   -0.0110 C.ar    1  UNL1        0.0496
     11  C6        -5.4840    0.5980   -0.4270 C.ar    1  UNL1       -0.0487
     12  C7        -5.8860   -0.7100   -0.6520 C.ar    1  UNL1       -0.0610
     13  C8        -4.9810   -1.7330   -0.4490 C.ar    1  UNL1       -0.0611
     14  C9        -3.7120   -1.3860   -0.0290 C.ar    1  UNL1       -0.0520
     15  C10       -3.3150   -0.0830    0.1910 C.ar    1  UNL1        0.0118
     16  C11        2.4940    0.0360    0.1880 C.ar    1  UNL1        0.0367
     17  C12        3.2290   -1.1230    0.5130 C.ar    1  UNL1       -0.0491
     18  C13        4.5800   -1.1670    0.4530 C.ar    1  UNL1       -0.0494
     19  C14        5.3170   -0.0510    0.0620 C.ar    1  UNL1        0.0549
     20  C15        6.7910   -0.0810   -0.0910 C.3     1  UNL1        0.4174
     21  F1         7.1190    0.5970   -1.2610 F       1  UNL1       -0.1659
     22  F2         7.4150    0.4200    0.9830 F       1  UNL1       -0.1659
     23  F3         7.1780   -1.4160   -0.2440 F       1  UNL1       -0.1659
     24  C16        4.6080    1.0860   -0.2460 C.ar    1  UNL1       -0.0494
     25  C17        3.2150    1.1250   -0.1830 C.ar    1  UNL1       -0.0491
     26 H           0.6225   -1.2050    1.8763 H       1  UNL1        0.1494
     27 H          -1.5690   -1.5086    1.5610 H       1  UNL1        0.0528
     28 H          -1.1282   -1.3287   -0.2230 H       1  UNL1        0.0528
     29 H          -2.3055    3.4082    0.7666 H       1  UNL1        0.1921
     30 H          -6.1691    1.3544   -0.5806 H       1  UNL1        0.0625
     31 H          -6.8471   -0.9158   -0.9665 H       1  UNL1        0.0618
     32 H          -5.2429   -2.7189   -0.6051 H       1  UNL1        0.0618
     33 H          -3.0253   -2.1401    0.1284 H       1  UNL1        0.0624
     34 H           2.7172   -1.9693    0.8076 H       1  UNL1        0.0625
     35 H           5.0718   -2.0399    0.7005 H       1  UNL1        0.0623
     36 H           5.1209    1.9347   -0.5319 H       1  UNL1        0.0623
     37 H           2.7224    1.9994   -0.4233 H       1  UNL1        0.0625
@<TRIPOS>BOND
     1     1     2    2
     2     2     3   am
     3     2    16    1
     4     3     4    1
     5     4     5    1
     6     5     6   ar
     7     5    15   ar
     8     6     7   ar
     9     7     8   ar
    10     8     9    2
    11     8    10   ar
    12    10    11   ar
    13    10    15   ar
    14    11    12   ar
    15    12    13   ar
    16    13    14   ar
    17    14    15   ar
    18    16    17   ar
    19    16    25   ar
    20    17    18   ar
    21    18    19   ar
    22    19    20    1
    23    19    24   ar
    24    20    21    1
    25    20    22    1
    26    20    23    1
    27    24    25   ar
    28     3    26    1
    29     4    27    1
    30     4    28    1
    31     7    29    1
    32    11    30    1
    33    12    31    1
    34    13    32    1
    35    14    33    1
    36    17    34    1
    37    18    35    1
    38    24    36    1
    39    25    37    1
@<TRIPOS>MOLECULE
../data/bude_mols_rdkit_confs/molecule_36.pdb
 37 39 0 0 0
SMALL
GASTEIGER

@<TRIPOS>ATOM
      1  O1         0.6360   -0.0790   -1.7190 O.2     1  UNL1       -0.2702
      2  C1         1.1570    0.0500   -0.6100 C.2     1  UNL1        0.2444
      3  N1         0.3190    0.3790    0.5000 N.am    1  UNL1       -0.3057
      4  C2        -1.0460    0.6500    0.5150 C.3     1  UNL1        0.0565
      5  C3        -2.0060   -0.2660   -0.1010 C.ar    1  UNL1        0.0863
      6  N2        -1.7720   -1.4150   -0.7330 N.ar    1  UNL1       -0.1737
      7  N3        -2.6940   -2.1830   -1.2780 N.ar    1  UNL1       -0.2424
      8  C4        -3.9920   -1.8400   -1.2370 C.ar    1  UNL1        0.2725
      9  O2        -4.8770   -2.5930   -1.7620 O.2     1  UNL1       -0.2658
     10  C5        -4.3520   -0.6680   -0.6080 C.ar    1  UNL1        0.0496
     11  C6        -5.7050   -0.3140   -0.5620 C.ar    1  UNL1       -0.0487
     12  C7        -6.0290    0.8660    0.0770 C.ar    1  UNL1       -0.0610
     13  C8        -5.0490    1.6480    0.6420 C.ar    1  UNL1       -0.0611
     14  C9        -3.7100    1.2950    0.5940 C.ar    1  UNL1       -0.0520
     15  C10       -3.3690    0.1010   -0.0540 C.ar    1  UNL1        0.0118
     16  C11        2.5990   -0.0910   -0.3730 C.ar    1  UNL1        0.0367
     17  C12        3.4180   -1.0590   -0.8060 C.ar    1  UNL1       -0.0491
     18  C13        4.7950   -1.0650   -0.5060 C.ar    1  UNL1       -0.0494
     19  C14        5.3580   -0.0800    0.2470 C.ar    1  UNL1        0.0549
     20  C15        6.7790    0.0320    0.6520 C.3     1  UNL1        0.4174
     21  F1         7.5040   -1.1200    0.5590 F       1  UNL1       -0.1659
     22  F2         7.3660    0.9640   -0.2470 F       1  UNL1       -0.1659
     23  F3         6.9100    0.5940    1.9030 F       1  UNL1       -0.1659
     24  C16        4.5260    0.9350    0.7080 C.ar    1  UNL1       -0.0494
     25  C17        3.1860    0.9320    0.4080 C.ar    1  UNL1       -0.0491
     26 H           0.7694    0.4195    1.3745 H       1  UNL1        0.1494
     27 H          -1.1732    1.5948    0.0292 H       1  UNL1        0.0528
     28 H          -1.2874    0.5771    1.5549 H       1  UNL1        0.0528
     29 H          -2.4274   -3.0204   -1.7217 H       1  UNL1        0.1921
     30 H          -6.4310   -0.9107   -0.9884 H       1  UNL1        0.0625
     31 H          -7.0156    1.1640    0.1312 H       1  UNL1        0.0618
     32 H          -5.3190    2.5241    1.1160 H       1  UNL1        0.0618
     33 H          -2.9864    1.8933    1.0224 H       1  UNL1        0.0624
     34 H           3.0280   -1.8247   -1.3775 H       1  UNL1        0.0625
     35 H           5.3878   -1.8303   -0.8637 H       1  UNL1        0.0623
     36 H           4.9196    1.6977    1.2810 H       1  UNL1        0.0623
     37 H           2.5908    1.6971    0.7621 H       1  UNL1        0.0625
@<TRIPOS>BOND
     1     1     2    2
     2     2     3   am
     3     2    16    1
     4     3     4    1
     5     4     5    1
     6     5     6   ar
     7     5    15   ar
     8     6     7   ar
     9     7     8   ar
    10     8     9    2
    11     8    10   ar
    12    10    11   ar
    13    10    15   ar
    14    11    12   ar
    15    12    13   ar
    16    13    14   ar
    17    14    15   ar
    18    16    17   ar
    19    16    25   ar
    20    17    18   ar
    21    18    19   ar
    22    19    20    1
    23    19    24   ar
    24    20    21    1
    25    20    22    1
    26    20    23    1
    27    24    25   ar
    28     3    26    1
    29     4    27    1
    30     4    28    1
    31     7    29    1
    32    11    30    1
    33    12    31    1
    34    13    32    1
    35    14    33    1
    36    17    34    1
    37    18    35    1
    38    24    36    1
    39    25    37    1
@<TRIPOS>MOLECULE
../data/bude_mols_rdkit_confs/molecule_36.pdb
 37 39 0 0 0
SMALL
GASTEIGER

@<TRIPOS>ATOM
      1  O1         0.5620    1.2310    0.8270 O.2     1  UNL1       -0.2702
      2  C1         1.0980    0.1680    0.3620 C.2     1  UNL1        0.2444
      3  N1         0.2510   -0.9200    0.0440 N.am    1  UNL1       -0.3057
      4  C2        -1.1470   -0.9800    0.2190 C.3     1  UNL1        0.0565
      5  C3        -1.9930   -0.0060   -0.4700 C.ar    1  UNL1        0.0863
      6  N2        -1.6150    0.9800   -1.2750 N.ar    1  UNL1       -0.1737
      7  N3        -2.4910    1.7780   -1.8030 N.ar    1  UNL1       -0.2424
      8  C4        -3.8320    1.7060   -1.6050 C.ar    1  UNL1        0.2725
      9  O2        -4.6400    2.4940   -2.1310 O.2     1  UNL1       -0.2658
     10  C5        -4.2900    0.7030   -0.7800 C.ar    1  UNL1        0.0496
     11  C6        -5.6360    0.5530   -0.5180 C.ar    1  UNL1       -0.0487
     12  C7        -6.0980   -0.4530    0.3140 C.ar    1  UNL1       -0.0610
     13  C8        -5.1950   -1.3150    0.8900 C.ar    1  UNL1       -0.0611
     14  C9        -3.8390   -1.1530    0.6160 C.ar    1  UNL1       -0.0520
     15  C10       -3.3680   -0.1510   -0.2150 C.ar    1  UNL1        0.0118
     16  C11        2.5500    0.1800    0.2110 C.ar    1  UNL1        0.0367
     17  C12        3.3200   -0.9100    0.6730 C.ar    1  UNL1       -0.0491
     18  C13        4.6740   -0.9650    0.5980 C.ar    1  UNL1       -0.0494
     19  C14        5.3760    0.0850    0.0430 C.ar    1  UNL1        0.0549
     20  C15        6.8520   -0.0510    0.0180 C.3     1  UNL1        0.4174
     21  F1         7.2270   -1.3740    0.0550 F       1  UNL1       -0.1659
     22  F2         7.4450    0.5050   -1.0890 F       1  UNL1       -0.1659
     23  F3         7.3590    0.5240    1.1970 F       1  UNL1       -0.1659
     24  C16        4.6720    1.1640   -0.4220 C.ar    1  UNL1       -0.0494
     25  C17        3.2790    1.2010   -0.3350 C.ar    1  UNL1       -0.0491
     26 H           0.6824   -1.7177   -0.3391 H       1  UNL1        0.1494
     27 H          -1.3361   -0.8731    1.2667 H       1  UNL1        0.0528
     28 H          -1.4200   -1.9145   -0.2249 H       1  UNL1        0.0528
     29 H          -2.1571    2.4916   -2.3934 H       1  UNL1        0.1921
     30 H          -6.3114    1.2027   -0.9502 H       1  UNL1        0.0625
     31 H          -7.1081   -0.5545    0.4995 H       1  UNL1        0.0618
     32 H          -5.5168   -2.0701    1.5155 H       1  UNL1        0.0618
     33 H          -3.1624   -1.8021    1.0472 H       1  UNL1        0.0624
     34 H           2.8239   -1.7119    1.0923 H       1  UNL1        0.0625
     35 H           5.1780   -1.7915    0.9558 H       1  UNL1        0.0623
     36 H           5.1776    1.9596   -0.8420 H       1  UNL1        0.0623
     37 H           2.7806    2.0294   -0.6960 H       1  UNL1        0.0625
@<TRIPOS>BOND
     1     1     2    2
     2     2     3   am
     3     2    16    1
     4     3     4    1
     5     4     5    1
     6     5     6   ar
     7     5    15   ar
     8     6     7   ar
     9     7     8   ar
    10     8     9    2
    11     8    10   ar
    12    10    11   ar
    13    10    15   ar
    14    11    12   ar
    15    12    13   ar
    16    13    14   ar
    17    14    15   ar
    18    16    17   ar
    19    16    25   ar
    20    17    18   ar
    21    18    19   ar
    22    19    20    1
    23    19    24   ar
    24    20    21    1
    25    20    22    1
    26    20    23    1
    27    24    25   ar
    28     3    26    1
    29     4    27    1
    30     4    28    1
    31     7    29    1
    32    11    30    1
    33    12    31    1
    34    13    32    1
    35    14    33    1
    36    17    34    1
    37    18    35    1
    38    24    36    1
    39    25    37    1
@<TRIPOS>MOLECULE
../data/bude_mols_rdkit_confs/molecule_36.pdb
 37 39 0 0 0
SMALL
GASTEIGER

@<TRIPOS>ATOM
      1  O1         1.3140    1.3580   -1.6130 O.2     1  UNL1       -0.2702
      2  C1         1.4280    0.5300   -0.6390 C.2     1  UNL1        0.2444
      3  N1         0.2690   -0.0390   -0.0630 N.am    1  UNL1       -0.3057
      4  C2        -1.0120    0.3690   -0.6070 C.3     1  UNL1        0.0565
      5  C3        -2.1660   -0.2590    0.0470 C.ar    1  UNL1        0.0863
      6  N2        -2.0940   -1.1410    1.0670 N.ar    1  UNL1       -0.1737
      7  N3        -3.1690   -1.6760    1.6200 N.ar    1  UNL1       -0.2424
      8  C4        -4.3950   -1.3560    1.1770 C.ar    1  UNL1        0.2725
      9  O2        -5.4230   -1.8560    1.6990 O.2     1  UNL1       -0.2658
     10  C5        -4.5690   -0.4740    0.1510 C.ar    1  UNL1        0.0496
     11  C6        -5.8210   -0.1490   -0.2940 C.ar    1  UNL1       -0.0487
     12  C7        -5.9570    0.7630   -1.3450 C.ar    1  UNL1       -0.0610
     13  C8        -4.8420    1.3140   -1.9110 C.ar    1  UNL1       -0.0611
     14  C9        -3.5930    0.9690   -1.4440 C.ar    1  UNL1       -0.0520
     15  C10       -3.4270    0.0710   -0.4090 C.ar    1  UNL1        0.0118
     16  C11        2.7950    0.2590   -0.2100 C.ar    1  UNL1        0.0367
     17  C12        3.4700   -0.8540   -0.6570 C.ar    1  UNL1       -0.0491
     18  C13        4.7810   -1.0170   -0.2250 C.ar    1  UNL1       -0.0494
     19  C14        5.3900   -0.1240    0.6070 C.ar    1  UNL1        0.0549
     20  C15        6.8010   -0.3050    1.0340 C.3     1  UNL1        0.4174
     21  F1         6.8730   -0.4600    2.3930 F       1  UNL1       -0.1659
     22  F2         7.5050    0.8260    0.6270 F       1  UNL1       -0.1659
     23  F3         7.3710   -1.4350    0.4540 F       1  UNL1       -0.1659
     24  C16        4.7200    0.9780    1.0500 C.ar    1  UNL1       -0.0494
     25  C17        3.4330    1.1610    0.6410 C.ar    1  UNL1       -0.0491
     26 H           0.3290   -0.6856    0.6770 H       1  UNL1        0.1494
     27 H          -1.0334    0.1127   -1.6456 H       1  UNL1        0.0528
     28 H          -1.0975    1.4225   -0.4405 H       1  UNL1        0.0528
     29 H          -3.0695   -2.3144    2.3629 H       1  UNL1        0.1921
     30 H          -6.6557   -0.5721    0.1411 H       1  UNL1        0.0625
     31 H          -6.8948    1.0188   -1.6916 H       1  UNL1        0.0618
     32 H          -4.9356    1.9876   -2.6872 H       1  UNL1        0.0618
     33 H          -2.7591    1.3932   -1.8795 H       1  UNL1        0.0624
     34 H           3.0218   -1.5384   -1.2861 H       1  UNL1        0.0625
     35 H           5.3120   -1.8421   -0.5448 H       1  UNL1        0.0623
     36 H           5.1763    1.6567    1.6795 H       1  UNL1        0.0623
     37 H           2.9156    1.9909    0.9705 H       1  UNL1        0.0625
@<TRIPOS>BOND
     1     1     2    2
     2     2     3   am
     3     2    16    1
     4     3     4    1
     5     4     5    1
     6     5     6   ar
     7     5    15   ar
     8     6     7   ar
     9     7     8   ar
    10     8     9    2
    11     8    10   ar
    12    10    11   ar
    13    10    15   ar
    14    11    12   ar
    15    12    13   ar
    16    13    14   ar
    17    14    15   ar
    18    16    17   ar
    19    16    25   ar
    20    17    18   ar
    21    18    19   ar
    22    19    20    1
    23    19    24   ar
    24    20    21    1
    25    20    22    1
    26    20    23    1
    27    24    25   ar
    28     3    26    1
    29     4    27    1
    30     4    28    1
    31     7    29    1
    32    11    30    1
    33    12    31    1
    34    13    32    1
    35    14    33    1
    36    17    34    1
    37    18    35    1
    38    24    36    1
    39    25    37    1
@<TRIPOS>MOLECULE
../data/bude_mols_rdkit_confs/molecule_36.pdb
 37 39 0 0 0
SMALL
GASTEIGER

@<TRIPOS>ATOM
      1  O1         0.9770    0.8640   -1.7830 O.2     1  UNL1       -0.2702
      2  C1         1.2720    0.8160   -0.4940 C.2     1  UNL1        0.2444
      3  N1         0.0880    0.9860    0.3470 N.am    1  UNL1       -0.3057
      4  C2        -1.1310    0.9920   -0.4260 C.3     1  UNL1        0.0565
      5  C3        -2.4190    1.1440    0.0880 C.ar    1  UNL1        0.0863
      6  N2        -3.0070    2.3580    0.3940 N.ar    1  UNL1       -0.1737
      7  N3        -4.3380    2.3810    0.5520 N.ar    1  UNL1       -0.2424
      8  C4        -5.1700    1.3550    0.4550 C.ar    1  UNL1        0.2725
      9  O2        -6.3860    1.5050    0.6320 O.2     1  UNL1       -0.2658
     10  C5        -4.6170    0.1210    0.1660 C.ar    1  UNL1        0.0496
     11  C6        -5.4640   -0.9720    0.1930 C.ar    1  UNL1       -0.0487
     12  C7        -4.8470   -2.2200    0.0180 C.ar    1  UNL1       -0.0610
     13  C8        -3.5040   -2.3260   -0.1670 C.ar    1  UNL1       -0.0611
     14  C9        -2.7300   -1.2060   -0.1770 C.ar    1  UNL1       -0.0520
     15  C10       -3.2640    0.0390   -0.0100 C.ar    1  UNL1        0.0118
     16  C11        2.6380    0.5770   -0.1250 C.ar    1  UNL1        0.0367
     17  C12        2.9260   -0.7290    0.3470 C.ar    1  UNL1       -0.0491
     18  C13        4.2080   -1.1670    0.5330 C.ar    1  UNL1       -0.0494
     19  C14        5.3130   -0.3620    0.2680 C.ar    1  UNL1        0.0549
     20  C15        6.6690   -0.9960    0.3730 C.3     1  UNL1        0.4174
     21  F1         6.6200   -2.2210   -0.3640 F       1  UNL1       -0.1659
     22  F2         7.6570   -0.2860   -0.3000 F       1  UNL1       -0.1659
     23  F3         7.1080   -1.2780    1.6310 F       1  UNL1       -0.1659
     24  C16        5.0400    0.8880   -0.1900 C.ar    1  UNL1       -0.0494
     25  C17        3.7260    1.3580   -0.3820 C.ar    1  UNL1       -0.0491
     26 H           0.1187    1.0848    1.3260 H       1  UNL1        0.1494
     27 H          -1.1421    0.0550   -0.9426 H       1  UNL1        0.0528
     28 H          -1.0230    1.9262   -0.9364 H       1  UNL1        0.0528
     29 H          -4.7403    3.2545    0.7628 H       1  UNL1        0.1921
     30 H          -6.4820   -0.8761    0.3326 H       1  UNL1        0.0625
     31 H          -5.4245   -3.0752    0.0299 H       1  UNL1        0.0618
     32 H          -3.0722   -3.2539   -0.2996 H       1  UNL1        0.0618
     33 H          -1.7116   -1.3009   -0.3146 H       1  UNL1        0.0624
     34 H           2.1438   -1.3687    0.5566 H       1  UNL1        0.0625
     35 H           4.3618   -2.1262    0.8814 H       1  UNL1        0.0623
     36 H           5.8277    1.5188   -0.4060 H       1  UNL1        0.0623
     37 H           3.5827    2.3201   -0.7267 H       1  UNL1        0.0625
@<TRIPOS>BOND
     1     1     2    2
     2     2     3   am
     3     2    16    1
     4     3     4    1
     5     4     5    1
     6     5     6   ar
     7     5    15   ar
     8     6     7   ar
     9     7     8   ar
    10     8     9    2
    11     8    10   ar
    12    10    11   ar
    13    10    15   ar
    14    11    12   ar
    15    12    13   ar
    16    13    14   ar
    17    14    15   ar
    18    16    17   ar
    19    16    25   ar
    20    17    18   ar
    21    18    19   ar
    22    19    20    1
    23    19    24   ar
    24    20    21    1
    25    20    22    1
    26    20    23    1
    27    24    25   ar
    28     3    26    1
    29     4    27    1
    30     4    28    1
    31     7    29    1
    32    11    30    1
    33    12    31    1
    34    13    32    1
    35    14    33    1
    36    17    34    1
    37    18    35    1
    38    24    36    1
    39    25    37    1
@<TRIPOS>MOLECULE
../data/bude_mols_rdkit_confs/molecule_36.pdb
 37 39 0 0 0
SMALL
GASTEIGER

@<TRIPOS>ATOM
      1  O1         0.6590   -1.8950   -0.2840 O.2     1  UNL1       -0.2702
      2  C1         1.1610   -0.7590   -0.3710 C.2     1  UNL1        0.2444
      3  N1         0.3030    0.3110   -0.6190 N.am    1  UNL1       -0.3057
      4  C2        -1.0540    0.5340   -0.8300 C.3     1  UNL1        0.0565
      5  C3        -2.0640   -0.1940   -0.0990 C.ar    1  UNL1        0.0863
      6  N2        -1.8630   -1.4090    0.4260 N.ar    1  UNL1       -0.1737
      7  N3        -2.7800   -2.2170    0.9010 N.ar    1  UNL1       -0.2424
      8  C4        -4.0870   -1.8090    0.8740 C.ar    1  UNL1        0.2725
      9  O2        -4.9690   -2.5660    1.3240 O.2     1  UNL1       -0.2658
     10  C5        -4.3870   -0.5710    0.3520 C.ar    1  UNL1        0.0496
     11  C6        -5.7020   -0.1010    0.3750 C.ar    1  UNL1       -0.0487
     12  C7        -6.0240    1.1620   -0.0700 C.ar    1  UNL1       -0.0610
     13  C8        -5.0460    2.0040   -0.5670 C.ar    1  UNL1       -0.0611
     14  C9        -3.7380    1.4880   -0.5750 C.ar    1  UNL1       -0.0520
     15  C10       -3.4080    0.2270   -0.1240 C.ar    1  UNL1        0.0118
     16  C11        2.6190   -0.5170   -0.2130 C.ar    1  UNL1        0.0367
     17  C12        3.5780   -1.4720   -0.3680 C.ar    1  UNL1       -0.0491
     18  C13        4.9520   -1.1940   -0.2310 C.ar    1  UNL1       -0.0494
     19  C14        5.3860    0.0740    0.0740 C.ar    1  UNL1        0.0549
     20  C15        6.8290    0.4090    0.2340 C.3     1  UNL1        0.4174
     21  F1         7.6000   -0.7100    0.2690 F       1  UNL1       -0.1659
     22  F2         7.2410    1.3210   -0.7390 F       1  UNL1       -0.1659
     23  F3         6.9640    1.1400    1.4360 F       1  UNL1       -0.1659
     24  C16        4.4420    1.0430    0.2360 C.ar    1  UNL1       -0.0494
     25  C17        3.0900    0.7530    0.0940 C.ar    1  UNL1       -0.0491
     26 H           0.8043    1.1575   -0.6556 H       1  UNL1        0.1494
     27 H          -1.2336    0.3394   -1.8667 H       1  UNL1        0.0528
     28 H          -1.1812    1.5313   -0.4637 H       1  UNL1        0.0528
     29 H          -2.5346   -3.0967    1.2686 H       1  UNL1        0.1921
     30 H          -6.4501   -0.7146    0.7339 H       1  UNL1        0.0625
     31 H          -7.0041    1.4830   -0.0322 H       1  UNL1        0.0618
     32 H          -5.2628    2.9526   -0.9108 H       1  UNL1        0.0618
     33 H          -2.9811    2.0875   -0.9394 H       1  UNL1        0.0624
     34 H           3.2867   -2.4358   -0.5944 H       1  UNL1        0.0625
     35 H           5.6409   -1.9513   -0.3612 H       1  UNL1        0.0623
     36 H           4.7347    2.0052    0.4672 H       1  UNL1        0.0623
     37 H           2.4060    1.5150    0.2224 H       1  UNL1        0.0625
@<TRIPOS>BOND
     1     1     2    2
     2     2     3   am
     3     2    16    1
     4     3     4    1
     5     4     5    1
     6     5     6   ar
     7     5    15   ar
     8     6     7   ar
     9     7     8   ar
    10     8     9    2
    11     8    10   ar
    12    10    11   ar
    13    10    15   ar
    14    11    12   ar
    15    12    13   ar
    16    13    14   ar
    17    14    15   ar
    18    16    17   ar
    19    16    25   ar
    20    17    18   ar
    21    18    19   ar
    22    19    20    1
    23    19    24   ar
    24    20    21    1
    25    20    22    1
    26    20    23    1
    27    24    25   ar
    28     3    26    1
    29     4    27    1
    30     4    28    1
    31     7    29    1
    32    11    30    1
    33    12    31    1
    34    13    32    1
    35    14    33    1
    36    17    34    1
    37    18    35    1
    38    24    36    1
    39    25    37    1
@<TRIPOS>MOLECULE
../data/bude_mols_rdkit_confs/molecule_36.pdb
 37 39 0 0 0
SMALL
GASTEIGER

@<TRIPOS>ATOM
      1  O1         0.8830    1.4700   -1.0050 O.2     1  UNL1       -0.2702
      2  C1         1.2930    0.6100   -0.1170 C.2     1  UNL1        0.2444
      3  N1         0.2820    0.1320    0.7630 N.am    1  UNL1       -0.3057
      4  C2        -1.0740    0.6680    0.6950 C.3     1  UNL1        0.0565
      5  C3        -2.1030   -0.3580    0.5840 C.ar    1  UNL1        0.0863
      6  N2        -1.9230   -1.6520    0.4580 N.ar    1  UNL1       -0.1737
      7  N3        -2.9360   -2.5320    0.3040 N.ar    1  UNL1       -0.2424
      8  C4        -4.2210   -2.1300    0.2660 C.ar    1  UNL1        0.2725
      9  O2        -5.1470   -2.9550    0.0990 O.2     1  UNL1       -0.2658
     10  C5        -4.5260   -0.7680    0.3930 C.ar    1  UNL1        0.0496
     11  C6        -5.8360   -0.3390    0.3710 C.ar    1  UNL1       -0.0487
     12  C7        -6.1250    1.0000    0.5120 C.ar    1  UNL1       -0.0610
     13  C8        -5.0410    1.8640    0.6780 C.ar    1  UNL1       -0.0611
     14  C9        -3.7510    1.4020    0.6980 C.ar    1  UNL1       -0.0520
     15  C10       -3.4570    0.0670    0.5510 C.ar    1  UNL1        0.0118
     16  C11        2.7040    0.2510   -0.1130 C.ar    1  UNL1        0.0367
     17  C12        3.5440    1.2280    0.4510 C.ar    1  UNL1       -0.0491
     18  C13        4.8950    1.0500    0.5050 C.ar    1  UNL1       -0.0494
     19  C14        5.4930   -0.1210   -0.0070 C.ar    1  UNL1        0.0549
     20  C15        6.9800   -0.2830    0.0660 C.3     1  UNL1        0.4174
     21  F1         7.4590    0.6100    1.0140 F       1  UNL1       -0.1659
     22  F2         7.4120    0.2470   -1.1870 F       1  UNL1       -0.1659
     23  F3         7.4040   -1.5330    0.2600 F       1  UNL1       -0.1659
     24  C16        4.6630   -1.0580   -0.5470 C.ar    1  UNL1       -0.0494
     25  C17        3.2680   -0.8730   -0.6000 C.ar    1  UNL1       -0.0491
     26 H           0.4988   -0.5657    1.4229 H       1  UNL1        0.1494
     27 H          -1.1418    1.3087   -0.1593 H       1  UNL1        0.0528
     28 H          -1.2506    1.1910    1.6116 H       1  UNL1        0.0528
     29 H          -2.7301   -3.4908    0.2174 H       1  UNL1        0.1921
     30 H          -6.6003   -1.0216    0.2488 H       1  UNL1        0.0625
     31 H          -7.0964    1.3481    0.4957 H       1  UNL1        0.0618
     32 H          -5.2154    2.8752    0.7883 H       1  UNL1        0.0618
     33 H          -2.9790    2.0746    0.8269 H       1  UNL1        0.0624
     34 H           3.1310    2.0943    0.8304 H       1  UNL1        0.0625
     35 H           5.4882    1.7819    0.9262 H       1  UNL1        0.0623
     36 H           5.0684   -1.9274   -0.9277 H       1  UNL1        0.0623
     37 H           2.6712   -1.6051   -1.0158 H       1  UNL1        0.0625
@<TRIPOS>BOND
     1     1     2    2
     2     2     3   am
     3     2    16    1
     4     3     4    1
     5     4     5    1
     6     5     6   ar
     7     5    15   ar
     8     6     7   ar
     9     7     8   ar
    10     8     9    2
    11     8    10   ar
    12    10    11   ar
    13    10    15   ar
    14    11    12   ar
    15    12    13   ar
    16    13    14   ar
    17    14    15   ar
    18    16    17   ar
    19    16    25   ar
    20    17    18   ar
    21    18    19   ar
    22    19    20    1
    23    19    24   ar
    24    20    21    1
    25    20    22    1
    26    20    23    1
    27    24    25   ar
    28     3    26    1
    29     4    27    1
    30     4    28    1
    31     7    29    1
    32    11    30    1
    33    12    31    1
    34    13    32    1
    35    14    33    1
    36    17    34    1
    37    18    35    1
    38    24    36    1
    39    25    37    1
@<TRIPOS>MOLECULE
../data/bude_mols_rdkit_confs/molecule_36.pdb
 37 39 0 0 0
SMALL
GASTEIGER

@<TRIPOS>ATOM
      1  O1         0.4860   -1.2680    1.2010 O.2     1  UNL1       -0.2702
      2  C1         1.1090   -0.3580    0.5980 C.2     1  UNL1        0.2444
      3  N1         0.3430    0.7470    0.1280 N.am    1  UNL1       -0.3057
      4  C2        -1.0420    0.9690    0.2590 C.3     1  UNL1        0.0565
      5  C3        -1.9860    0.0600   -0.3720 C.ar    1  UNL1        0.0863
      6  N2        -1.7130   -1.0240   -1.1010 N.ar    1  UNL1       -0.1737
      7  N3        -2.6610   -1.7870   -1.6560 N.ar    1  UNL1       -0.2424
      8  C4        -3.9730   -1.5060   -1.5110 C.ar    1  UNL1        0.2725
      9  O2        -4.9050   -2.1910   -2.0100 O.2     1  UNL1       -0.2658
     10  C5        -4.3470   -0.4020   -0.7720 C.ar    1  UNL1        0.0496
     11  C6        -5.6830   -0.0660   -0.5960 C.ar    1  UNL1       -0.0487
     12  C7        -6.0150    1.0420    0.1470 C.ar    1  UNL1       -0.0610
     13  C8        -5.0390    1.8250    0.7170 C.ar    1  UNL1       -0.0611
     14  C9        -3.7140    1.4790    0.5300 C.ar    1  UNL1       -0.0520
     15  C10       -3.3480    0.3730   -0.2080 C.ar    1  UNL1        0.0118
     16  C11        2.5740   -0.4120    0.3850 C.ar    1  UNL1        0.0367
     17  C12        3.3530    0.1740    1.3760 C.ar    1  UNL1       -0.0491
     18  C13        4.7160    0.1820    1.2490 C.ar    1  UNL1       -0.0494
     19  C14        5.3730   -0.3760    0.1620 C.ar    1  UNL1        0.0549
     20  C15        6.8600   -0.3620    0.0350 C.3     1  UNL1        0.4174
     21  F1         7.3920   -1.4450    0.6970 F       1  UNL1       -0.1659
     22  F2         7.2980    0.7830    0.6950 F       1  UNL1       -0.1659
     23  F3         7.2670   -0.3040   -1.2830 F       1  UNL1       -0.1659
     24  C16        4.5570   -0.9430   -0.7900 C.ar    1  UNL1       -0.0494
     25  C17        3.1890   -0.9610   -0.6830 C.ar    1  UNL1       -0.0491
     26 H           0.8461    1.4454   -0.3498 H       1  UNL1        0.1494
     27 H          -1.2379    1.9429   -0.1384 H       1  UNL1        0.0528
     28 H          -1.2177    0.8204    1.3040 H       1  UNL1        0.0528
     29 H          -2.3948   -2.5741   -2.1840 H       1  UNL1        0.1921
     30 H          -6.4234   -0.6456   -1.0212 H       1  UNL1        0.0625
     31 H          -7.0084    1.2889    0.2785 H       1  UNL1        0.0618
     32 H          -5.2913    2.6561    1.2744 H       1  UNL1        0.0618
     33 H          -2.9780    2.0647    0.9545 H       1  UNL1        0.0624
     34 H           2.9063    0.6006    2.2028 H       1  UNL1        0.0625
     35 H           5.2789    0.6219    1.9937 H       1  UNL1        0.0623
     36 H           4.9928   -1.3734   -1.6206 H       1  UNL1        0.0623
     37 H           2.6245   -1.3992   -1.4275 H       1  UNL1        0.0625
@<TRIPOS>BOND
     1     1     2    2
     2     2     3   am
     3     2    16    1
     4     3     4    1
     5     4     5    1
     6     5     6   ar
     7     5    15   ar
     8     6     7   ar
     9     7     8   ar
    10     8     9    2
    11     8    10   ar
    12    10    11   ar
    13    10    15   ar
    14    11    12   ar
    15    12    13   ar
    16    13    14   ar
    17    14    15   ar
    18    16    17   ar
    19    16    25   ar
    20    17    18   ar
    21    18    19   ar
    22    19    20    1
    23    19    24   ar
    24    20    21    1
    25    20    22    1
    26    20    23    1
    27    24    25   ar
    28     3    26    1
    29     4    27    1
    30     4    28    1
    31     7    29    1
    32    11    30    1
    33    12    31    1
    34    13    32    1
    35    14    33    1
    36    17    34    1
    37    18    35    1
    38    24    36    1
    39    25    37    1
@<TRIPOS>MOLECULE
../data/bude_mols_rdkit_confs/molecule_36.pdb
 37 39 0 0 0
SMALL
GASTEIGER

@<TRIPOS>ATOM
      1  O1         1.3360   -2.2610    1.0330 O.2     1  UNL1       -0.2702
      2  C1         1.3360   -1.2860    0.1720 C.2     1  UNL1        0.2444
      3  N1         0.0990   -0.9430   -0.4790 N.am    1  UNL1       -0.3057
      4  C2        -1.0370   -1.6530    0.0280 C.3     1  UNL1        0.0565
      5  C3        -2.3520   -1.3460   -0.4870 C.ar    1  UNL1        0.0863
      6  N2        -3.0330   -2.1620   -1.3160 N.ar    1  UNL1       -0.1737
      7  N3        -4.3340   -1.9710   -1.5520 N.ar    1  UNL1       -0.2424
      8  C4        -5.0530   -0.9800   -1.0110 C.ar    1  UNL1        0.2725
      9  O2        -6.2480   -0.8130   -1.2210 O.2     1  UNL1       -0.2658
     10  C5        -4.3580   -0.1030   -0.1470 C.ar    1  UNL1        0.0496
     11  C6        -5.0620    0.9760    0.3730 C.ar    1  UNL1       -0.0487
     12  C7        -4.3170    1.8750    1.1560 C.ar    1  UNL1       -0.0610
     13  C8        -2.9600    1.6810    1.3920 C.ar    1  UNL1       -0.0611
     14  C9        -2.2900    0.6010    0.8780 C.ar    1  UNL1       -0.0520
     15  C10       -3.0360   -0.2960    0.0940 C.ar    1  UNL1        0.0118
     16  C11        2.5660   -0.5930   -0.0590 C.ar    1  UNL1        0.0367
     17  C12        3.4060   -0.7100   -1.0810 C.ar    1  UNL1       -0.0491
     18  C13        4.5610    0.0650   -1.0760 C.ar    1  UNL1       -0.0494
     19  C14        4.8510    0.9440   -0.0550 C.ar    1  UNL1        0.0549
     20  C15        6.0990    1.7670   -0.0550 C.3     1  UNL1        0.4174
     21  F1         6.8210    1.5010   -1.1770 F       1  UNL1       -0.1659
     22  F2         6.7880    1.3860    1.1000 F       1  UNL1       -0.1659
     23  F3         5.7690    3.1310    0.0730 F       1  UNL1       -0.1659
     24  C16        3.9810    1.0420    0.9850 C.ar    1  UNL1       -0.0494
     25  C17        2.8440    0.3080    1.0280 C.ar    1  UNL1       -0.0491
     26 H           0.0392   -0.2815   -1.2057 H       1  UNL1        0.1494
     27 H          -1.0672   -1.4801    1.0835 H       1  UNL1        0.0528
     28 H          -0.8690   -2.6602   -0.2918 H       1  UNL1        0.0528
     29 H          -4.7910   -2.5962   -2.1599 H       1  UNL1        0.1921
     30 H          -6.0698    1.1093    0.1954 H       1  UNL1        0.0625
     31 H          -4.7875    2.6974    1.5649 H       1  UNL1        0.0618
     32 H          -2.4456    2.3660    1.9674 H       1  UNL1        0.0618
     33 H          -1.2846    0.4534    1.0583 H       1  UNL1        0.0624
     34 H           3.2070   -1.3589   -1.8584 H       1  UNL1        0.0625
     35 H           5.2229   -0.0211   -1.8631 H       1  UNL1        0.0623
     36 H           4.1920    1.6907    1.7594 H       1  UNL1        0.0623
     37 H           2.1912    0.3929    1.8228 H       1  UNL1        0.0625
@<TRIPOS>BOND
     1     1     2    2
     2     2     3   am
     3     2    16    1
     4     3     4    1
     5     4     5    1
     6     5     6   ar
     7     5    15   ar
     8     6     7   ar
     9     7     8   ar
    10     8     9    2
    11     8    10   ar
    12    10    11   ar
    13    10    15   ar
    14    11    12   ar
    15    12    13   ar
    16    13    14   ar
    17    14    15   ar
    18    16    17   ar
    19    16    25   ar
    20    17    18   ar
    21    18    19   ar
    22    19    20    1
    23    19    24   ar
    24    20    21    1
    25    20    22    1
    26    20    23    1
    27    24    25   ar
    28     3    26    1
    29     4    27    1
    30     4    28    1
    31     7    29    1
    32    11    30    1
    33    12    31    1
    34    13    32    1
    35    14    33    1
    36    17    34    1
    37    18    35    1
    38    24    36    1
    39    25    37    1
@<TRIPOS>MOLECULE
../data/bude_mols_rdkit_confs/molecule_36.pdb
 37 39 0 0 0
SMALL
GASTEIGER

@<TRIPOS>ATOM
      1  O1         0.6290   -0.3030    1.7150 O.2     1  UNL1       -0.2702
      2  C1         1.2000   -0.0760    0.6370 C.2     1  UNL1        0.2444
      3  N1         0.3620   -0.0350   -0.5550 N.am    1  UNL1       -0.3057
      4  C2        -0.9920   -0.2560   -0.6440 C.3     1  UNL1        0.0565
      5  C3        -2.0720    0.5450   -0.1370 C.ar    1  UNL1        0.0863
      6  N2        -2.0690    1.7110    0.4830 N.ar    1  UNL1       -0.1737
      7  N3        -3.2010    2.3410    0.8700 N.ar    1  UNL1       -0.2424
      8  C4        -4.4170    1.8130    0.6540 C.ar    1  UNL1        0.2725
      9  O2        -5.4880    2.3450    0.9760 O.2     1  UNL1       -0.2658
     10  C5        -4.5110    0.5940    0.0130 C.ar    1  UNL1        0.0496
     11  C6        -5.7600    0.0460   -0.2020 C.ar    1  UNL1       -0.0487
     12  C7        -5.8650   -1.1810   -0.8460 C.ar    1  UNL1       -0.0610
     13  C8        -4.7230   -1.8260   -1.2480 C.ar    1  UNL1       -0.0611
     14  C9        -3.4860   -1.2430   -1.0090 C.ar    1  UNL1       -0.0520
     15  C10       -3.3690   -0.0310   -0.3810 C.ar    1  UNL1        0.0118
     16  C11        2.6470    0.1230    0.5160 C.ar    1  UNL1        0.0367
     17  C12        3.3790   -1.0190    0.8970 C.ar    1  UNL1       -0.0491
     18  C13        4.7410   -1.1380    0.7940 C.ar    1  UNL1       -0.0494
     19  C14        5.4120   -0.0240    0.2660 C.ar    1  UNL1        0.0549
     20  C15        6.8940   -0.1480    0.1140 C.3     1  UNL1        0.4174
     21  F1         7.4020   -1.2460    0.7570 F       1  UNL1       -0.1659
     22  F2         7.4660    0.9930    0.5230 F       1  UNL1       -0.1659
     23  F3         7.1900   -0.3490   -1.2580 F       1  UNL1       -0.1659
     24  C16        4.7080    1.0960   -0.1120 C.ar    1  UNL1       -0.0494
     25  C17        3.3140    1.1700    0.0120 C.ar    1  UNL1       -0.0491
     26 H           0.8217    0.1768   -1.3994 H       1  UNL1        0.1494
     27 H          -1.1359   -1.2147   -0.1912 H       1  UNL1        0.0528
     28 H          -1.1143   -0.0360   -1.6840 H       1  UNL1        0.0528
     29 H          -3.1320    3.2122    1.3233 H       1  UNL1        0.1921
     30 H          -6.6079    0.5431    0.1127 H       1  UNL1        0.0625
     31 H          -6.7911   -1.6019   -1.0197 H       1  UNL1        0.0618
     32 H          -4.7831   -2.7391   -1.7252 H       1  UNL1        0.0618
     33 H          -2.6316   -1.7358   -1.3125 H       1  UNL1        0.0624
     34 H           2.8540   -1.8208    1.2798 H       1  UNL1        0.0625
     35 H           5.2410   -1.9922    1.0861 H       1  UNL1        0.0623
     36 H           5.2208    1.9043   -0.4977 H       1  UNL1        0.0623
     37 H           2.8077    2.0201   -0.2812 H       1  UNL1        0.0625
@<TRIPOS>BOND
     1     1     2    2
     2     2     3   am
     3     2    16    1
     4     3     4    1
     5     4     5    1
     6     5     6   ar
     7     5    15   ar
     8     6     7   ar
     9     7     8   ar
    10     8     9    2
    11     8    10   ar
    12    10    11   ar
    13    10    15   ar
    14    11    12   ar
    15    12    13   ar
    16    13    14   ar
    17    14    15   ar
    18    16    17   ar
    19    16    25   ar
    20    17    18   ar
    21    18    19   ar
    22    19    20    1
    23    19    24   ar
    24    20    21    1
    25    20    22    1
    26    20    23    1
    27    24    25   ar
    28     3    26    1
    29     4    27    1
    30     4    28    1
    31     7    29    1
    32    11    30    1
    33    12    31    1
    34    13    32    1
    35    14    33    1
    36    17    34    1
    37    18    35    1
    38    24    36    1
    39    25    37    1
@<TRIPOS>MOLECULE
../data/bude_mols_rdkit_confs/molecule_36.pdb
 37 39 0 0 0
SMALL
GASTEIGER

@<TRIPOS>ATOM
      1  O1         0.5130    0.7520   -1.2360 O.2     1  UNL1       -0.2702
      2  C1         1.0780   -0.1030   -0.5080 C.2     1  UNL1        0.2444
      3  N1         0.3100   -1.1480    0.0160 N.am    1  UNL1       -0.3057
      4  C2        -1.0910   -1.3030   -0.2280 C.3     1  UNL1        0.0565
      5  C3        -1.9360   -0.2000    0.2410 C.ar    1  UNL1        0.0863
      6  N2        -1.5260    0.9060    0.8670 N.ar    1  UNL1       -0.1737
      7  N3        -2.3850    1.8550    1.2610 N.ar    1  UNL1       -0.2424
      8  C4        -3.7150    1.7560    1.0510 C.ar    1  UNL1        0.2725
      9  O2        -4.5270    2.6480    1.4210 O.2     1  UNL1       -0.2658
     10  C5        -4.2010    0.6520    0.4160 C.ar    1  UNL1        0.0496
     11  C6        -5.5650    0.5340    0.1920 C.ar    1  UNL1       -0.0487
     12  C7        -6.0650   -0.5890   -0.4550 C.ar    1  UNL1       -0.0610
     13  C8        -5.1930   -1.5570   -0.8570 C.ar    1  UNL1       -0.0611
     14  C9        -3.8310   -1.4180   -0.6220 C.ar    1  UNL1       -0.0520
     15  C10       -3.3050   -0.3150    0.0180 C.ar    1  UNL1        0.0118
     16  C11        2.5240    0.0410   -0.2470 C.ar    1  UNL1        0.0367
     17  C12        3.2620    0.9760   -0.9440 C.ar    1  UNL1       -0.0491
     18  C13        4.6310    1.1520   -0.7320 C.ar    1  UNL1       -0.0494
     19  C14        5.2800    0.3820    0.1910 C.ar    1  UNL1        0.0549
     20  C15        6.7330    0.5300    0.4540 C.3     1  UNL1        0.4174
     21  F1         7.0310    1.8250    0.8880 F       1  UNL1       -0.1659
     22  F2         7.5220    0.2040   -0.6120 F       1  UNL1       -0.1659
     23  F3         7.0900   -0.3150    1.5020 F       1  UNL1       -0.1659
     24  C16        4.5310   -0.5520    0.8840 C.ar    1  UNL1       -0.0494
     25  C17        3.1810   -0.7210    0.6710 C.ar    1  UNL1       -0.0491
     26 H           0.7589   -1.8144    0.5848 H       1  UNL1        0.1494
     27 H          -1.4144   -2.1980    0.2612 H       1  UNL1        0.0528
     28 H          -1.2042   -1.3300   -1.2916 H       1  UNL1        0.0528
     29 H          -2.0344    2.6525    1.7197 H       1  UNL1        0.1921
     30 H          -6.2068    1.2789    0.5054 H       1  UNL1        0.0625
     31 H          -7.0775   -0.6887   -0.6281 H       1  UNL1        0.0618
     32 H          -5.5470   -2.3981   -1.3388 H       1  UNL1        0.0618
     33 H          -3.1916   -2.1645   -0.9366 H       1  UNL1        0.0624
     34 H           2.7862    1.5648   -1.6454 H       1  UNL1        0.0625
     35 H           5.1510    1.8619   -1.2712 H       1  UNL1        0.0623
     36 H           5.0012   -1.1439    1.5865 H       1  UNL1        0.0623
     37 H           2.6627   -1.4311    1.2116 H       1  UNL1        0.0625
@<TRIPOS>BOND
     1     1     2    2
     2     2     3   am
     3     2    16    1
     4     3     4    1
     5     4     5    1
     6     5     6   ar
     7     5    15   ar
     8     6     7   ar
     9     7     8   ar
    10     8     9    2
    11     8    10   ar
    12    10    11   ar
    13    10    15   ar
    14    11    12   ar
    15    12    13   ar
    16    13    14   ar
    17    14    15   ar
    18    16    17   ar
    19    16    25   ar
    20    17    18   ar
    21    18    19   ar
    22    19    20    1
    23    19    24   ar
    24    20    21    1
    25    20    22    1
    26    20    23    1
    27    24    25   ar
    28     3    26    1
    29     4    27    1
    30     4    28    1
    31     7    29    1
    32    11    30    1
    33    12    31    1
    34    13    32    1
    35    14    33    1
    36    17    34    1
    37    18    35    1
    38    24    36    1
    39    25    37    1
@<TRIPOS>MOLECULE
../data/bude_mols_rdkit_confs/molecule_36.pdb
 37 39 0 0 0
SMALL
GASTEIGER

@<TRIPOS>ATOM
      1  O1         0.3180    0.6370    1.8920 O.2     1  UNL1       -0.2702
      2  C1         0.9240   -0.1550    1.0860 C.2     1  UNL1        0.2444
      3  N1         0.2350   -1.2620    0.5800 N.am    1  UNL1       -0.3057
      4  C2        -1.0860   -1.7150    0.7320 C.3     1  UNL1        0.0565
      5  C3        -2.1410   -0.7280    0.8920 C.ar    1  UNL1        0.0863
      6  N2        -2.3880   -0.2250    2.1450 N.ar    1  UNL1       -0.1737
      7  N3        -3.4860    0.4910    2.3940 N.ar    1  UNL1       -0.2424
      8  C4        -4.3870    0.7450    1.4410 C.ar    1  UNL1        0.2725
      9  O2        -5.4240    1.4150    1.6840 O.2     1  UNL1       -0.2658
     10  C5        -4.1690    0.2590    0.1680 C.ar    1  UNL1        0.0496
     11  C6        -5.0500    0.6070   -0.8630 C.ar    1  UNL1       -0.0487
     12  C7        -4.7630    0.1930   -2.1710 C.ar    1  UNL1       -0.0610
     13  C8        -3.6120   -0.5550   -2.4050 C.ar    1  UNL1       -0.0611
     14  C9        -2.7530   -0.8920   -1.3920 C.ar    1  UNL1       -0.0520
     15  C10       -3.0360   -0.4810   -0.0980 C.ar    1  UNL1        0.0118
     16  C11        2.3070    0.1140    0.7100 C.ar    1  UNL1        0.0367
     17  C12        3.0120    1.1510    1.2670 C.ar    1  UNL1       -0.0491
     18  C13        4.3080    1.4150    0.8170 C.ar    1  UNL1       -0.0494
     19  C14        4.8990    0.6750   -0.1600 C.ar    1  UNL1        0.0549
     20  C15        6.3000    1.0110   -0.5920 C.3     1  UNL1        0.4174
     21  F1         6.6080    0.2670   -1.7280 F       1  UNL1       -0.1659
     22  F2         7.1730    0.6650    0.4420 F       1  UNL1       -0.1659
     23  F3         6.3330    2.3450   -0.8970 F       1  UNL1       -0.1659
     24  C16        4.1970   -0.3760   -0.7240 C.ar    1  UNL1       -0.0494
     25  C17        2.9220   -0.6300   -0.2810 C.ar    1  UNL1       -0.0491
     26 H           0.7854   -1.8386    0.0022 H       1  UNL1        0.1494
     27 H          -1.1072   -2.3439    1.5974 H       1  UNL1        0.0528
     28 H          -1.3099   -2.1907   -0.1999 H       1  UNL1        0.0528
     29 H          -3.6358    0.8406    3.3021 H       1  UNL1        0.1921
     30 H          -5.8980    1.1601   -0.6629 H       1  UNL1        0.0625
     31 H          -5.3951    0.4388   -2.9488 H       1  UNL1        0.0618
     32 H          -3.4003   -0.8637   -3.3667 H       1  UNL1        0.0618
     33 H          -1.9048   -1.4456   -1.5898 H       1  UNL1        0.0624
     34 H           2.5897    1.7295    2.0100 H       1  UNL1        0.0625
     35 H           4.8339    2.1962    1.2391 H       1  UNL1        0.0623
     36 H           4.6231   -0.9572   -1.4627 H       1  UNL1        0.0623
     37 H           2.3991   -1.4113   -0.7067 H       1  UNL1        0.0625
@<TRIPOS>BOND
     1     1     2    2
     2     2     3   am
     3     2    16    1
     4     3     4    1
     5     4     5    1
     6     5     6   ar
     7     5    15   ar
     8     6     7   ar
     9     7     8   ar
    10     8     9    2
    11     8    10   ar
    12    10    11   ar
    13    10    15   ar
    14    11    12   ar
    15    12    13   ar
    16    13    14   ar
    17    14    15   ar
    18    16    17   ar
    19    16    25   ar
    20    17    18   ar
    21    18    19   ar
    22    19    20    1
    23    19    24   ar
    24    20    21    1
    25    20    22    1
    26    20    23    1
    27    24    25   ar
    28     3    26    1
    29     4    27    1
    30     4    28    1
    31     7    29    1
    32    11    30    1
    33    12    31    1
    34    13    32    1
    35    14    33    1
    36    17    34    1
    37    18    35    1
    38    24    36    1
    39    25    37    1
@<TRIPOS>MOLECULE
../data/bude_mols_rdkit_confs/molecule_36.pdb
 37 39 0 0 0
SMALL
GASTEIGER

@<TRIPOS>ATOM
      1  O1         0.2740   -0.2670   -0.8630 O.2     1  UNL1       -0.2702
      2  C1         0.9210   -0.3470    0.2020 C.2     1  UNL1        0.2444
      3  N1         0.2500   -0.2970    1.3770 N.am    1  UNL1       -0.3057
      4  C2        -1.1080   -0.0530    1.4950 C.3     1  UNL1        0.0565
      5  C3        -1.8180    0.5100    0.2250 C.ar    1  UNL1        0.0863
      6  N2        -1.4080    1.7230   -0.2940 N.ar    1  UNL1       -0.1737
      7  N3        -2.5380    2.3200   -0.7870 N.ar    1  UNL1       -0.2424
      8  C4        -3.7830    1.9450   -0.8110 C.ar    1  UNL1        0.2725
      9  O2        -4.7560    2.6510   -1.2800 O.2     1  UNL1       -0.2658
     10  C5        -4.1280    0.6690   -0.2940 C.ar    1  UNL1        0.0496
     11  C6        -5.3660    0.1390   -0.4150 C.ar    1  UNL1       -0.0487
     12  C7        -5.5560   -1.1970   -0.0310 C.ar    1  UNL1       -0.0610
     13  C8        -4.4720   -1.9080    0.4570 C.ar    1  UNL1       -0.0611
     14  C9        -3.2480   -1.3260    0.5650 C.ar    1  UNL1       -0.0520
     15  C10       -3.0070    0.0660    0.1810 C.ar    1  UNL1        0.0118
     16  C11        2.3880   -0.4340    0.1250 C.ar    1  UNL1        0.0367
     17  C12        2.9760    0.7650   -0.0370 C.ar    1  UNL1       -0.0491
     18  C13        4.2240    1.0440   -0.3930 C.ar    1  UNL1       -0.0494
     19  C14        4.9680   -0.1550   -0.5670 C.ar    1  UNL1        0.0549
     20  C15        6.3990    0.0610   -0.9360 C.3     1  UNL1        0.4174
     21  F1         7.1820   -0.7560   -0.0910 F       1  UNL1       -0.1659
     22  F2         6.7930    1.3640   -0.6970 F       1  UNL1       -0.1659
     23  F3         6.6860   -0.2140   -2.2510 F       1  UNL1       -0.1659
     24  C16        4.4120   -1.3580   -0.3360 C.ar    1  UNL1       -0.0494
     25  C17        3.1000   -1.5880    0.0150 C.ar    1  UNL1       -0.0491
     26 H           0.7629   -0.4442    2.2044 H       1  UNL1        0.1494
     27 H          -1.2454    0.6538    2.2865 H       1  UNL1        0.0528
     28 H          -1.5565   -1.0076    1.6752 H       1  UNL1        0.0528
     29 H          -2.3774    3.1985   -1.2012 H       1  UNL1        0.1921
     30 H          -6.1501    0.7020   -0.7800 H       1  UNL1        0.0625
     31 H          -6.4843   -1.6409   -0.1105 H       1  UNL1        0.0618
     32 H          -4.5950   -2.8921    0.7423 H       1  UNL1        0.0618
     33 H          -2.4613   -1.8851    0.9305 H       1  UNL1        0.0624
     34 H           2.3720    1.5828    0.1404 H       1  UNL1        0.0625
     35 H           4.6006    1.9958   -0.5247 H       1  UNL1        0.0623
     36 H           5.0240   -2.1836   -0.4303 H       1  UNL1        0.0623
     37 H           2.7031   -2.5270    0.1759 H       1  UNL1        0.0625
@<TRIPOS>BOND
     1     1     2    2
     2     2     3   am
     3     2    16    1
     4     3     4    1
     5     4     5    1
     6     5     6   ar
     7     5    15   ar
     8     6     7   ar
     9     7     8   ar
    10     8     9    2
    11     8    10   ar
    12    10    11   ar
    13    10    15   ar
    14    11    12   ar
    15    12    13   ar
    16    13    14   ar
    17    14    15   ar
    18    16    17   ar
    19    16    25   ar
    20    17    18   ar
    21    18    19   ar
    22    19    20    1
    23    19    24   ar
    24    20    21    1
    25    20    22    1
    26    20    23    1
    27    24    25   ar
    28     3    26    1
    29     4    27    1
    30     4    28    1
    31     7    29    1
    32    11    30    1
    33    12    31    1
    34    13    32    1
    35    14    33    1
    36    17    34    1
    37    18    35    1
    38    24    36    1
    39    25    37    1
@<TRIPOS>MOLECULE
../data/bude_mols_rdkit_confs/molecule_36.pdb
 37 39 0 0 0
SMALL
GASTEIGER

@<TRIPOS>ATOM
      1  O1         0.4870   -0.4880   -1.5040 O.2     1  UNL1       -0.2702
      2  C1         1.1070   -0.3830   -0.4080 C.2     1  UNL1        0.2444
      3  N1         0.3370   -0.5560    0.7840 N.am    1  UNL1       -0.3057
      4  C2        -1.0420   -0.8380    0.8190 C.3     1  UNL1        0.0565
      5  C3        -1.9570    0.1830    0.2990 C.ar    1  UNL1        0.0863
      6  N2        -1.6530    1.3800   -0.1790 N.ar    1  UNL1       -0.1737
      7  N3        -2.5940    2.2300   -0.6120 N.ar    1  UNL1       -0.2424
      8  C4        -3.9010    1.9390   -0.5960 C.ar    1  UNL1        0.2725
      9  O2        -4.7830    2.7480   -1.0060 O.2     1  UNL1       -0.2658
     10  C5        -4.2990    0.7060   -0.1120 C.ar    1  UNL1        0.0496
     11  C6        -5.6350    0.3940   -0.0890 C.ar    1  UNL1       -0.0487
     12  C7        -6.0220   -0.8360    0.3940 C.ar    1  UNL1       -0.0610
     13  C8        -5.0740   -1.7200    0.8430 C.ar    1  UNL1       -0.0611
     14  C9        -3.7440   -1.3840    0.8120 C.ar    1  UNL1       -0.0520
     15  C10       -3.3070   -0.1500    0.3290 C.ar    1  UNL1        0.0118
     16  C11        2.5400   -0.1080   -0.3250 C.ar    1  UNL1        0.0367
     17  C12        3.0720    0.9660    0.3450 C.ar    1  UNL1       -0.0491
     18  C13        4.4690    1.1280    0.4270 C.ar    1  UNL1       -0.0494
     19  C14        5.3150    0.2230   -0.1620 C.ar    1  UNL1        0.0549
     20  C15        6.7970    0.3260   -0.0910 C.3     1  UNL1        0.4174
     21  F1         7.2570   -0.9630    0.1630 F       1  UNL1       -0.1659
     22  F2         7.2310    1.1290    0.9400 F       1  UNL1       -0.1659
     23  F3         7.2580    0.7330   -1.3220 F       1  UNL1       -0.1659
     24  C16        4.7790   -0.8730   -0.8510 C.ar    1  UNL1       -0.0494
     25  C17        3.4000   -1.0100   -0.9140 C.ar    1  UNL1       -0.0491
     26 H           0.8063   -0.4716    1.6453 H       1  UNL1        0.1494
     27 H          -1.3068   -1.0148    1.8405 H       1  UNL1        0.0528
     28 H          -1.1653   -1.6734    0.1619 H       1  UNL1        0.0528
     29 H          -2.3119    3.1077   -0.9573 H       1  UNL1        0.1921
     30 H          -6.3377    1.0696   -0.4279 H       1  UNL1        0.0625
     31 H          -7.0215   -1.0919    0.4181 H       1  UNL1        0.0618
     32 H          -5.3625   -2.6421    1.2058 H       1  UNL1        0.0618
     33 H          -3.0471   -2.0632    1.1557 H       1  UNL1        0.0624
     34 H           2.4468    1.6563    0.7896 H       1  UNL1        0.0625
     35 H           4.8601    1.9363    0.9357 H       1  UNL1        0.0623
     36 H           5.3978   -1.5645   -1.3026 H       1  UNL1        0.0623
     37 H           3.0034   -1.8169   -1.4205 H       1  UNL1        0.0625
@<TRIPOS>BOND
     1     1     2    2
     2     2     3   am
     3     2    16    1
     4     3     4    1
     5     4     5    1
     6     5     6   ar
     7     5    15   ar
     8     6     7   ar
     9     7     8   ar
    10     8     9    2
    11     8    10   ar
    12    10    11   ar
    13    10    15   ar
    14    11    12   ar
    15    12    13   ar
    16    13    14   ar
    17    14    15   ar
    18    16    17   ar
    19    16    25   ar
    20    17    18   ar
    21    18    19   ar
    22    19    20    1
    23    19    24   ar
    24    20    21    1
    25    20    22    1
    26    20    23    1
    27    24    25   ar
    28     3    26    1
    29     4    27    1
    30     4    28    1
    31     7    29    1
    32    11    30    1
    33    12    31    1
    34    13    32    1
    35    14    33    1
    36    17    34    1
    37    18    35    1
    38    24    36    1
    39    25    37    1
