@<TRIPOS>MOLECULE
../data/bude_mols_rdkit_confs/molecule_96.pdb
 58 62 0 0 0
SMALL
GASTEIGER

@<TRIPOS>ATOM
      1  O1         0.0280    1.7850    1.8530 O.2     1  UNL1       -0.2700
      2  C1         0.4840    0.5820    1.6330 C.2     1  UNL1        0.2466
      3  C2        -0.5470   -0.3830    1.3170 C.ar    1  UNL1        0.0372
      4  C3        -0.3430   -1.5990    0.7450 C.ar    1  UNL1       -0.0496
      5  C4        -1.4210   -2.4800    0.5780 C.ar    1  UNL1       -0.0608
      6  C5        -2.6950   -2.1240    0.9870 C.ar    1  UNL1       -0.0582
      7  C6        -2.9320   -0.9090    1.5610 C.ar    1  UNL1       -0.0408
      8  C7        -4.2590   -0.4130    2.0230 C.3     1  UNL1        0.0171
      9  C8        -4.8750    0.5520    1.0830 C.ar    1  UNL1        0.0736
     10  N1        -4.6770    1.8880    1.2730 N.ar    1  UNL1       -0.1750
     11  N2        -5.1330    2.8050    0.4600 N.ar    1  UNL1       -0.2425
     12  C9        -5.8320    2.4750   -0.6280 C.ar    1  UNL1        0.2725
     13  O2        -6.2670    3.3980   -1.4110 O.2     1  UNL1       -0.2658
     14  C10       -6.0930    1.1520   -0.9190 C.ar    1  UNL1        0.0496
     15  C11       -6.8290    0.8270   -2.0360 C.ar    1  UNL1       -0.0487
     16  C12       -7.0810   -0.5070   -2.2780 C.ar    1  UNL1       -0.0610
     17  C13       -6.5940   -1.4690   -1.4040 C.ar    1  UNL1       -0.0611
     18  C14       -5.8640   -1.1300   -0.2980 C.ar    1  UNL1       -0.0521
     19  C15       -5.5920    0.1980   -0.0270 C.ar    1  UNL1        0.0106
     20  C16       -1.8410   -0.0670    1.7110 C.ar    1  UNL1       -0.0461
     21  N3         1.8350    0.3550    1.7220 N.am    1  UNL1       -0.2974
     22  C17        2.7310    1.5240    1.9810 C.3     1  UNL1        0.0173
     23  C18        3.6940    1.6220    0.8430 C.3     1  UNL1       -0.0107
     24  C19        4.2320    0.3570    0.2960 C.3     1  UNL1        0.0619
     25  O3         4.5570    0.5840   -1.0570 O.3     1  UNL1       -0.3732
     26  C20        5.8840    0.3500   -1.3310 C.3     1  UNL1        0.0591
     27  C21        6.1920   -0.3270   -2.6390 C.3     1  UNL1       -0.0265
     28  C22        7.1880    0.7630   -2.9840 C.3     1  UNL1       -0.0484
     29  C23        6.5360    1.6100   -1.9100 C.3     1  UNL1       -0.0265
     30  C24        3.2730   -0.8200    0.3020 C.3     1  UNL1       -0.0107
     31  C25        2.5520   -0.8630    1.6670 C.3     1  UNL1        0.0173
     32 H           0.6023   -1.8730    0.4346 H       1  UNL1        0.0625
     33 H          -1.2631   -3.4037    0.1456 H       1  UNL1        0.0618
     34 H          -3.4756   -2.7863    0.8560 H       1  UNL1        0.0620
     35 H          -4.1325    0.0674    2.9707 H       1  UNL1        0.0377
     36 H          -4.9119   -1.2582    2.0879 H       1  UNL1        0.0377
     37 H          -4.9579    3.7543    0.6536 H       1  UNL1        0.1921
     38 H          -7.1812    1.5590   -2.6725 H       1  UNL1        0.0625
     39 H          -7.6294   -0.7889   -3.1055 H       1  UNL1        0.0618
     40 H          -6.7875   -2.4649   -1.5933 H       1  UNL1        0.0618
     41 H          -5.5157   -1.8668    0.3351 H       1  UNL1        0.0624
     42 H          -2.0008    0.8560    2.1442 H       1  UNL1        0.0628
     43 H           3.2639    1.3782    2.8973 H       1  UNL1        0.0465
     44 H           2.1574    2.4235    2.0639 H       1  UNL1        0.0465
     45 H           4.5257    2.2073    1.1757 H       1  UNL1        0.0305
     46 H           3.1279    2.0482    0.0412 H       1  UNL1        0.0305
     47 H           5.0560    0.0976    0.9274 H       1  UNL1        0.0597
     48 H           6.1761   -0.1233   -0.4169 H       1  UNL1        0.0596
     49 H           5.3582   -0.3816   -3.3074 H       1  UNL1        0.0290
     50 H           6.4925   -1.3538   -2.6547 H       1  UNL1        0.0290
     51 H           7.0965    1.1529   -3.9762 H       1  UNL1        0.0267
     52 H           8.2421    0.5792   -2.9921 H       1  UNL1        0.0267
     53 H           7.2277    2.0893   -1.2491 H       1  UNL1        0.0290
     54 H           5.9423    2.4609   -2.1714 H       1  UNL1        0.0290
     55 H           3.8175   -1.7290    0.1534 H       1  UNL1        0.0305
     56 H           2.5570   -0.7114   -0.4857 H       1  UNL1        0.0305
     57 H           1.8849   -1.6981    1.7172 H       1  UNL1        0.0465
     58 H           3.2323   -0.9742    2.4854 H       1  UNL1        0.0465
@<TRIPOS>BOND
     1     1     2    2
     2     2     3    1
     3     2    21   am
     4     3     4   ar
     5     3    20   ar
     6     4     5   ar
     7     5     6   ar
     8     6     7   ar
     9     7     8    1
    10     7    20   ar
    11     8     9    1
    12     9    10   ar
    13     9    19   ar
    14    10    11   ar
    15    11    12   ar
    16    12    13    2
    17    12    14   ar
    18    14    15   ar
    19    14    19   ar
    20    15    16   ar
    21    16    17   ar
    22    17    18   ar
    23    18    19   ar
    24    21    22    1
    25    21    31    1
    26    22    23    1
    27    23    24    1
    28    24    25    1
    29    24    30    1
    30    25    26    1
    31    26    27    1
    32    26    29    1
    33    27    28    1
    34    28    29    1
    35    30    31    1
    36     4    32    1
    37     5    33    1
    38     6    34    1
    39     8    35    1
    40     8    36    1
    41    11    37    1
    42    15    38    1
    43    16    39    1
    44    17    40    1
    45    18    41    1
    46    20    42    1
    47    22    43    1
    48    22    44    1
    49    23    45    1
    50    23    46    1
    51    24    47    1
    52    26    48    1
    53    27    49    1
    54    27    50    1
    55    28    51    1
    56    28    52    1
    57    29    53    1
    58    29    54    1
    59    30    55    1
    60    30    56    1
    61    31    57    1
    62    31    58    1
@<TRIPOS>MOLECULE
../data/bude_mols_rdkit_confs/molecule_96.pdb
 58 62 0 0 0
SMALL
GASTEIGER

@<TRIPOS>ATOM
      1  O1        -0.2670   -2.2200    0.8310 O.2     1  UNL1       -0.2700
      2  C1         0.1530   -1.7100   -0.3040 C.2     1  UNL1        0.2466
      3  C2        -0.8520   -0.9530   -1.0220 C.ar    1  UNL1        0.0372
      4  C3        -0.6180   -0.0980   -2.0690 C.ar    1  UNL1       -0.0496
      5  C4        -1.6240    0.5510   -2.7630 C.ar    1  UNL1       -0.0608
      6  C5        -2.9210    0.3290   -2.3810 C.ar    1  UNL1       -0.0582
      7  C6        -3.2080   -0.5350   -1.3160 C.ar    1  UNL1       -0.0408
      8  C7        -4.6690   -0.6910   -1.0280 C.3     1  UNL1        0.0171
      9  C8        -5.2150    0.4740   -0.3370 C.ar    1  UNL1        0.0736
     10  N1        -5.8450    1.4260   -1.0870 N.ar    1  UNL1       -0.1750
     11  N2        -6.3440    2.5310   -0.6110 N.ar    1  UNL1       -0.2425
     12  C9        -6.2580    2.7940    0.6980 C.ar    1  UNL1        0.2725
     13  O2        -6.7420    3.8600    1.1420 O.2     1  UNL1       -0.2658
     14  C10       -5.6480    1.9110    1.5540 C.ar    1  UNL1        0.0496
     15  C11       -5.5430    2.1330    2.9110 C.ar    1  UNL1       -0.0487
     16  C12       -4.9290    1.2120    3.7480 C.ar    1  UNL1       -0.0610
     17  C13       -4.4170    0.0560    3.2010 C.ar    1  UNL1       -0.0611
     18  C14       -4.5350   -0.1390    1.8400 C.ar    1  UNL1       -0.0521
     19  C15       -5.1330    0.7540    1.0060 C.ar    1  UNL1        0.0106
     20  C16       -2.1990   -1.1480   -0.6680 C.ar    1  UNL1       -0.0461
     21  N3         1.4760   -1.9990   -0.5890 N.am    1  UNL1       -0.2974
     22  C17        2.2970   -2.7460    0.4100 C.3     1  UNL1        0.0173
     23  C18        3.6760   -2.1930    0.2740 C.3     1  UNL1       -0.0107
     24  C19        3.7460   -0.7280   -0.1100 C.3     1  UNL1        0.0619
     25  O3         5.0840   -0.3670   -0.0350 O.3     1  UNL1       -0.3732
     26  C20        5.3850    0.6120    0.8680 C.3     1  UNL1        0.0591
     27  C21        6.3550    1.6590    0.3100 C.3     1  UNL1       -0.0265
     28  C22        7.1190    1.5460    1.6110 C.3     1  UNL1       -0.0484
     29  C23        6.5100    0.1700    1.7810 C.3     1  UNL1       -0.0265
     30  C24        3.2040   -0.5760   -1.5250 C.3     1  UNL1       -0.0107
     31  C25        2.2020   -1.7180   -1.7880 C.3     1  UNL1        0.0173
     32 H           0.3595    0.0700   -2.3540 H       1  UNL1        0.0625
     33 H          -1.4034    1.1849   -3.5469 H       1  UNL1        0.0618
     34 H          -3.6909    0.8009   -2.8806 H       1  UNL1        0.0620
     35 H          -4.8101   -1.5554   -0.4133 H       1  UNL1        0.0377
     36 H          -5.1820   -0.7936   -1.9614 H       1  UNL1        0.0377
     37 H          -6.7843    3.1725   -1.2142 H       1  UNL1        0.1921
     38 H          -5.9290    3.0019    3.3123 H       1  UNL1        0.0625
     39 H          -4.8572    1.3899    4.7620 H       1  UNL1        0.0618
     40 H          -3.9551   -0.6491    3.7963 H       1  UNL1        0.0618
     41 H          -4.1501   -1.0063    1.4343 H       1  UNL1        0.0624
     42 H          -2.4218   -1.7824    0.1149 H       1  UNL1        0.0628
     43 H           2.2898   -3.7938    0.1935 H       1  UNL1        0.0465
     44 H           1.9172   -2.6340    1.4040 H       1  UNL1        0.0465
     45 H           4.1870   -2.7576   -0.4777 H       1  UNL1        0.0305
     46 H           4.1246   -2.2692    1.2424 H       1  UNL1        0.0305
     47 H           3.1647   -0.1008    0.5332 H       1  UNL1        0.0597
     48 H           4.4136    0.8858    1.2235 H       1  UNL1        0.0596
     49 H           5.9197    2.6197    0.1299 H       1  UNL1        0.0290
     50 H           6.8352    1.5333   -0.6379 H       1  UNL1        0.0290
     51 H           6.8320    2.2554    2.3589 H       1  UNL1        0.0267
     52 H           8.1770    1.6999    1.6548 H       1  UNL1        0.0267
     53 H           7.1064   -0.6304    1.3956 H       1  UNL1        0.0290
     54 H           6.3144   -0.2380    2.7506 H       1  UNL1        0.0290
     55 H           4.0086   -0.6322   -2.2281 H       1  UNL1        0.0305
     56 H           2.7182    0.3712   -1.6327 H       1  UNL1        0.0305
     57 H           1.5195   -1.4237   -2.5578 H       1  UNL1        0.0465
     58 H           2.7323   -2.5941   -2.0980 H       1  UNL1        0.0465
@<TRIPOS>BOND
     1     1     2    2
     2     2     3    1
     3     2    21   am
     4     3     4   ar
     5     3    20   ar
     6     4     5   ar
     7     5     6   ar
     8     6     7   ar
     9     7     8    1
    10     7    20   ar
    11     8     9    1
    12     9    10   ar
    13     9    19   ar
    14    10    11   ar
    15    11    12   ar
    16    12    13    2
    17    12    14   ar
    18    14    15   ar
    19    14    19   ar
    20    15    16   ar
    21    16    17   ar
    22    17    18   ar
    23    18    19   ar
    24    21    22    1
    25    21    31    1
    26    22    23    1
    27    23    24    1
    28    24    25    1
    29    24    30    1
    30    25    26    1
    31    26    27    1
    32    26    29    1
    33    27    28    1
    34    28    29    1
    35    30    31    1
    36     4    32    1
    37     5    33    1
    38     6    34    1
    39     8    35    1
    40     8    36    1
    41    11    37    1
    42    15    38    1
    43    16    39    1
    44    17    40    1
    45    18    41    1
    46    20    42    1
    47    22    43    1
    48    22    44    1
    49    23    45    1
    50    23    46    1
    51    24    47    1
    52    26    48    1
    53    27    49    1
    54    27    50    1
    55    28    51    1
    56    28    52    1
    57    29    53    1
    58    29    54    1
    59    30    55    1
    60    30    56    1
    61    31    57    1
    62    31    58    1
@<TRIPOS>MOLECULE
../data/bude_mols_rdkit_confs/molecule_96.pdb
 58 62 0 0 0
SMALL
GASTEIGER

@<TRIPOS>ATOM
      1  O1        -0.0580    2.3430   -0.1730 O.2     1  UNL1       -0.2700
      2  C1         0.3600    1.3510   -0.9260 C.2     1  UNL1        0.2466
      3  C2        -0.6300    0.4100   -1.3740 C.ar    1  UNL1        0.0372
      4  C3        -0.4530   -0.8230   -1.9030 C.ar    1  UNL1       -0.0496
      5  C4        -1.5340   -1.5900   -2.3640 C.ar    1  UNL1       -0.0608
      6  C5        -2.8180   -1.1290   -2.3010 C.ar    1  UNL1       -0.0582
      7  C6        -3.0410    0.1220   -1.7660 C.ar    1  UNL1       -0.0408
      8  C7        -4.4040    0.7030   -1.6940 C.3     1  UNL1        0.0171
      9  C8        -5.3290    0.0210   -0.7950 C.ar    1  UNL1        0.0736
     10  N1        -6.1800   -0.8890   -1.3570 N.ar    1  UNL1       -0.1750
     11  N2        -7.0340   -1.6020   -0.6880 N.ar    1  UNL1       -0.2425
     12  C9        -7.1490   -1.4970    0.6460 C.ar    1  UNL1        0.2725
     13  O2        -7.9580   -2.1660    1.3280 O.2     1  UNL1       -0.2658
     14  C10       -6.3120   -0.5880    1.2780 C.ar    1  UNL1        0.0496
     15  C11       -6.3750   -0.4100    2.6540 C.ar    1  UNL1       -0.0487
     16  C12       -5.5570    0.4970    3.2910 C.ar    1  UNL1       -0.0610
     17  C13       -4.6500    1.2520    2.5570 C.ar    1  UNL1       -0.0611
     18  C14       -4.5710    1.0930    1.1920 C.ar    1  UNL1       -0.0521
     19  C15       -5.3920    0.1820    0.5580 C.ar    1  UNL1        0.0106
     20  C16       -1.9720    0.8490   -1.3260 C.ar    1  UNL1       -0.0461
     21  N3         1.7220    1.3380   -1.1990 N.am    1  UNL1       -0.2974
     22  C17        2.6040    2.3690   -0.5680 C.3     1  UNL1        0.0173
     23  C18        3.9670    1.7260   -0.4650 C.3     1  UNL1       -0.0107
     24  C19        3.9560    0.2680   -0.1560 C.3     1  UNL1        0.0619
     25  O3         5.2880   -0.1580   -0.0830 O.3     1  UNL1       -0.3732
     26  C20        5.6310   -0.6270    1.1750 C.3     1  UNL1        0.0591
     27  C21        6.9130   -0.0870    1.7640 C.3     1  UNL1       -0.0265
     28  C22        7.2640   -1.5150    2.1760 C.3     1  UNL1       -0.0484
     29  C23        6.2980   -2.0040    1.1260 C.3     1  UNL1       -0.0265
     30  C24        3.2120   -0.5000   -1.2420 C.3     1  UNL1       -0.0107
     31  C25        2.4200    0.4790   -2.0910 C.3     1  UNL1        0.0173
     32 H           0.5017   -1.2092   -1.9691 H       1  UNL1        0.0625
     33 H          -1.3542   -2.5257   -2.7605 H       1  UNL1        0.0618
     34 H          -3.6029   -1.7035   -2.6457 H       1  UNL1        0.0620
     35 H          -4.8241    0.6819   -2.6779 H       1  UNL1        0.0377
     36 H          -4.2830    1.6900   -1.2988 H       1  UNL1        0.0377
     37 H          -7.6121   -2.2359   -1.1709 H       1  UNL1        0.1921
     38 H          -7.0452   -0.9660    3.2079 H       1  UNL1        0.0625
     39 H          -5.6178    0.6160    4.3143 H       1  UNL1        0.0618
     40 H          -4.0367    1.9308    3.0346 H       1  UNL1        0.0618
     41 H          -3.8997    1.6534    0.6439 H       1  UNL1        0.0624
     42 H          -2.1573    1.7842   -0.9309 H       1  UNL1        0.0628
     43 H           2.2390    2.6293    0.4035 H       1  UNL1        0.0465
     44 H           2.6333    3.2714   -1.1422 H       1  UNL1        0.0465
     45 H           4.5113    2.2249    0.3094 H       1  UNL1        0.0305
     46 H           4.4161    1.8226   -1.4314 H       1  UNL1        0.0305
     47 H           3.4535    0.0863    0.7710 H       1  UNL1        0.0597
     48 H           4.6996   -0.4441    1.6690 H       1  UNL1        0.0596
     49 H           6.7758    0.5901    2.5811 H       1  UNL1        0.0290
     50 H           7.5867    0.5081    1.1836 H       1  UNL1        0.0290
     51 H           6.9928   -1.7665    3.1800 H       1  UNL1        0.0267
     52 H           8.2785   -1.8543    2.2009 H       1  UNL1        0.0267
     53 H           6.7484   -2.2464    0.1862 H       1  UNL1        0.0290
     54 H           5.7339   -2.9031    1.2614 H       1  UNL1        0.0290
     55 H           2.5444   -1.2033   -0.7898 H       1  UNL1        0.0305
     56 H           3.9134   -1.0242   -1.8569 H       1  UNL1        0.0305
     57 H           3.0828    1.0501   -2.7069 H       1  UNL1        0.0465
     58 H           1.7378   -0.0389   -2.7322 H       1  UNL1        0.0465
@<TRIPOS>BOND
     1     1     2    2
     2     2     3    1
     3     2    21   am
     4     3     4   ar
     5     3    20   ar
     6     4     5   ar
     7     5     6   ar
     8     6     7   ar
     9     7     8    1
    10     7    20   ar
    11     8     9    1
    12     9    10   ar
    13     9    19   ar
    14    10    11   ar
    15    11    12   ar
    16    12    13    2
    17    12    14   ar
    18    14    15   ar
    19    14    19   ar
    20    15    16   ar
    21    16    17   ar
    22    17    18   ar
    23    18    19   ar
    24    21    22    1
    25    21    31    1
    26    22    23    1
    27    23    24    1
    28    24    25    1
    29    24    30    1
    30    25    26    1
    31    26    27    1
    32    26    29    1
    33    27    28    1
    34    28    29    1
    35    30    31    1
    36     4    32    1
    37     5    33    1
    38     6    34    1
    39     8    35    1
    40     8    36    1
    41    11    37    1
    42    15    38    1
    43    16    39    1
    44    17    40    1
    45    18    41    1
    46    20    42    1
    47    22    43    1
    48    22    44    1
    49    23    45    1
    50    23    46    1
    51    24    47    1
    52    26    48    1
    53    27    49    1
    54    27    50    1
    55    28    51    1
    56    28    52    1
    57    29    53    1
    58    29    54    1
    59    30    55    1
    60    30    56    1
    61    31    57    1
    62    31    58    1
@<TRIPOS>MOLECULE
../data/bude_mols_rdkit_confs/molecule_96.pdb
 58 62 0 0 0
SMALL
GASTEIGER

@<TRIPOS>ATOM
      1  O1        -0.7370   -2.1510   -3.0390 O.2     1  UNL1       -0.2700
      2  C1        -0.5530   -1.4830   -1.9210 C.2     1  UNL1        0.2466
      3  C2         0.3150   -0.3260   -1.9950 C.ar    1  UNL1        0.0372
      4  C3         0.7420    0.0840   -3.2780 C.ar    1  UNL1       -0.0496
      5  C4         1.5900    1.1490   -3.4340 C.ar    1  UNL1       -0.0608
      6  C5         2.0690    1.8700   -2.3680 C.ar    1  UNL1       -0.0582
      7  C6         1.6640    1.4820   -1.1150 C.ar    1  UNL1       -0.0408
      8  C7         2.1620    2.2860    0.0350 C.3     1  UNL1        0.0171
      9  C8         3.6410    2.2230    0.1740 C.ar    1  UNL1        0.0736
     10  N1         4.4040    3.2380   -0.3370 N.ar    1  UNL1       -0.1750
     11  N2         5.7140    3.2670   -0.3010 N.ar    1  UNL1       -0.2425
     12  C9         6.3730    2.2460    0.2700 C.ar    1  UNL1        0.2725
     13  O2         7.6270    2.2690    0.3070 O.2     1  UNL1       -0.2658
     14  C10        5.6590    1.1910    0.8060 C.ar    1  UNL1        0.0496
     15  C11        6.3080    0.1420    1.4050 C.ar    1  UNL1       -0.0487
     16  C12        5.6220   -0.9100    1.9550 C.ar    1  UNL1       -0.0610
     17  C13        4.2550   -0.9460    1.9220 C.ar    1  UNL1       -0.0611
     18  C14        3.5760    0.1130    1.3160 C.ar    1  UNL1       -0.0521
     19  C15        4.2720    1.1600    0.7680 C.ar    1  UNL1        0.0106
     20  C16        0.8030    0.4020   -0.9520 C.ar    1  UNL1       -0.0461
     21  N3        -1.2180   -1.9730   -0.8120 N.am    1  UNL1       -0.2974
     22  C17       -1.2320   -1.4380    0.5040 C.3     1  UNL1        0.0173
     23  C18       -2.3310   -2.2040    1.2920 C.3     1  UNL1       -0.0107
     24  C19       -3.6470   -2.0890    0.5590 C.3     1  UNL1        0.0619
     25  O3        -3.8670   -0.7480    0.3450 O.3     1  UNL1       -0.3732
     26  C20       -5.0150   -0.2060    0.8390 C.3     1  UNL1        0.0591
     27  C21       -5.8700    0.5990   -0.0910 C.3     1  UNL1       -0.0265
     28  C22       -5.7620    1.7690    0.8360 C.3     1  UNL1       -0.0484
     29  C23       -4.8600    0.9980    1.7410 C.3     1  UNL1       -0.0265
     30  C24       -3.4580   -2.8400   -0.7610 C.3     1  UNL1       -0.0107
     31  C25       -2.0180   -3.2190   -0.9690 C.3     1  UNL1        0.0173
     32 H           0.4099   -0.4268   -4.1109 H       1  UNL1        0.0625
     33 H           1.8791    1.4190   -4.3872 H       1  UNL1        0.0618
     34 H           2.7067    2.6700   -2.5031 H       1  UNL1        0.0620
     35 H           1.7165    1.9129    0.9334 H       1  UNL1        0.0377
     36 H           1.8946    3.3069   -0.1413 H       1  UNL1        0.0377
     37 H           6.2075    4.0264   -0.6870 H       1  UNL1        0.1921
     38 H           7.3393    0.1444    1.4428 H       1  UNL1        0.0625
     39 H           6.1425   -1.6829    2.3986 H       1  UNL1        0.0618
     40 H           3.7375   -1.7374    2.3354 H       1  UNL1        0.0618
     41 H           2.5446    0.1078    1.2803 H       1  UNL1        0.0624
     42 H           0.5202    0.1394    0.0051 H       1  UNL1        0.0628
     43 H          -1.4615   -0.3933    0.4739 H       1  UNL1        0.0465
     44 H          -0.2767   -1.5500    0.9728 H       1  UNL1        0.0465
     45 H          -2.4291   -1.7813    2.2700 H       1  UNL1        0.0305
     46 H          -2.0576   -3.2351    1.3756 H       1  UNL1        0.0305
     47 H          -4.4809   -2.4966    1.0914 H       1  UNL1        0.0597
     48 H          -5.3861   -1.1334    1.2226 H       1  UNL1        0.0596
     49 H          -6.8649    0.2228   -0.2075 H       1  UNL1        0.0290
     50 H          -5.6081    0.6969   -1.1238 H       1  UNL1        0.0290
     51 H          -6.6901    2.0517    1.2871 H       1  UNL1        0.0267
     52 H          -5.4532    2.7218    0.4595 H       1  UNL1        0.0267
     53 H          -3.8621    1.3800    1.7965 H       1  UNL1        0.0290
     54 H          -5.0655    0.9274    2.7887 H       1  UNL1        0.0290
     55 H          -3.7739   -2.2124   -1.5680 H       1  UNL1        0.0305
     56 H          -4.0429   -3.7354   -0.7284 H       1  UNL1        0.0305
     57 H          -1.7188   -3.9431   -0.2403 H       1  UNL1        0.0465
     58 H          -1.8706   -3.6504   -1.9370 H       1  UNL1        0.0465
@<TRIPOS>BOND
     1     1     2    2
     2     2     3    1
     3     2    21   am
     4     3     4   ar
     5     3    20   ar
     6     4     5   ar
     7     5     6   ar
     8     6     7   ar
     9     7     8    1
    10     7    20   ar
    11     8     9    1
    12     9    10   ar
    13     9    19   ar
    14    10    11   ar
    15    11    12   ar
    16    12    13    2
    17    12    14   ar
    18    14    15   ar
    19    14    19   ar
    20    15    16   ar
    21    16    17   ar
    22    17    18   ar
    23    18    19   ar
    24    21    22    1
    25    21    31    1
    26    22    23    1
    27    23    24    1
    28    24    25    1
    29    24    30    1
    30    25    26    1
    31    26    27    1
    32    26    29    1
    33    27    28    1
    34    28    29    1
    35    30    31    1
    36     4    32    1
    37     5    33    1
    38     6    34    1
    39     8    35    1
    40     8    36    1
    41    11    37    1
    42    15    38    1
    43    16    39    1
    44    17    40    1
    45    18    41    1
    46    20    42    1
    47    22    43    1
    48    22    44    1
    49    23    45    1
    50    23    46    1
    51    24    47    1
    52    26    48    1
    53    27    49    1
    54    27    50    1
    55    28    51    1
    56    28    52    1
    57    29    53    1
    58    29    54    1
    59    30    55    1
    60    30    56    1
    61    31    57    1
    62    31    58    1
@<TRIPOS>MOLECULE
../data/bude_mols_rdkit_confs/molecule_96.pdb
 58 62 0 0 0
SMALL
GASTEIGER

@<TRIPOS>ATOM
      1  O1        -0.3120   -0.4360    3.3600 O.2     1  UNL1       -0.2700
      2  C1        -0.2060   -0.0970    2.1140 C.2     1  UNL1        0.2466
      3  C2         0.8520    0.8070    1.8060 C.ar    1  UNL1        0.0372
      4  C3         1.3810    1.6040    2.8550 C.ar    1  UNL1       -0.0496
      5  C4         2.4530    2.4050    2.5900 C.ar    1  UNL1       -0.0608
      6  C5         3.0210    2.4530    1.3500 C.ar    1  UNL1       -0.0582
      7  C6         2.5220    1.6860    0.3240 C.ar    1  UNL1       -0.0408
      8  C7         3.1060    1.7520   -1.0460 C.3     1  UNL1        0.0171
      9  C8         4.5220    1.3640   -1.0590 C.ar    1  UNL1        0.0736
     10  N1         5.4920    2.3260   -1.0150 N.ar    1  UNL1       -0.1750
     11  N2         6.7760    2.0570   -0.9810 N.ar    1  UNL1       -0.2425
     12  C9         7.2210    0.8030   -0.9880 C.ar    1  UNL1        0.2725
     13  O2         8.4300    0.4750   -0.9570 O.2     1  UNL1       -0.2658
     14  C10        6.2840   -0.2330   -1.0330 C.ar    1  UNL1        0.0496
     15  C11        6.6940   -1.5430   -1.0540 C.ar    1  UNL1       -0.0487
     16  C12        5.7850   -2.5710   -1.1120 C.ar    1  UNL1       -0.0610
     17  C13        4.4250   -2.2750   -1.1490 C.ar    1  UNL1       -0.0611
     18  C14        4.0340   -0.9650   -1.1270 C.ar    1  UNL1       -0.0521
     19  C15        4.9260    0.0660   -1.0690 C.ar    1  UNL1        0.0106
     20  C16        1.4340    0.8620    0.5600 C.ar    1  UNL1       -0.0461
     21  N3        -1.1370   -0.6450    1.1940 N.am    1  UNL1       -0.2974
     22  C17       -2.0740   -1.6750    1.7050 C.3     1  UNL1        0.0173
     23  C18       -3.4930   -1.3780    1.4390 C.3     1  UNL1       -0.0107
     24  C19       -3.7320   -1.0440   -0.0300 C.3     1  UNL1        0.0619
     25  O3        -5.0020   -0.4260   -0.0570 O.3     1  UNL1       -0.3732
     26  C20       -5.9350   -1.1630   -0.7570 C.3     1  UNL1        0.0591
     27  C21       -6.8060   -0.4250   -1.7090 C.3     1  UNL1       -0.0265
     28  C22       -8.0220   -0.9870   -1.0190 C.3     1  UNL1       -0.0484
     29  C23       -7.1370   -1.4350    0.1190 C.3     1  UNL1       -0.0265
     30  C24       -2.7480   -0.0560   -0.5250 C.3     1  UNL1       -0.0107
     31  C25       -1.3120   -0.2490   -0.1670 C.3     1  UNL1        0.0173
     32 H           0.9633    1.5780    3.7983 H       1  UNL1        0.0625
     33 H           2.8440    2.9890    3.3457 H       1  UNL1        0.0618
     34 H           3.8311    3.0696    1.1813 H       1  UNL1        0.0620
     35 H           3.0189    2.7541   -1.4108 H       1  UNL1        0.0377
     36 H           2.5694    1.0661   -1.6677 H       1  UNL1        0.0377
     37 H           7.4233    2.7982   -0.9497 H       1  UNL1        0.1921
     38 H           7.7027   -1.7591   -1.0257 H       1  UNL1        0.0625
     39 H           6.1063   -3.5516   -1.1280 H       1  UNL1        0.0618
     40 H           3.7242   -3.0313   -1.1923 H       1  UNL1        0.0618
     41 H           3.0256   -0.7476   -1.1553 H       1  UNL1        0.0624
     42 H           1.0559    0.2834   -0.2063 H       1  UNL1        0.0628
     43 H          -1.9398   -1.7567    2.7634 H       1  UNL1        0.0465
     44 H          -1.8458   -2.5846    1.1898 H       1  UNL1        0.0465
     45 H          -3.7909   -0.5427    2.0377 H       1  UNL1        0.0305
     46 H          -4.0677   -2.2473    1.6819 H       1  UNL1        0.0305
     47 H          -3.6553   -1.9234   -0.6347 H       1  UNL1        0.0597
     48 H          -5.3021   -1.9270   -1.1578 H       1  UNL1        0.0596
     49 H          -6.6997   -0.7322   -2.7284 H       1  UNL1        0.0290
     50 H          -6.6949    0.6309   -1.8420 H       1  UNL1        0.0290
     51 H          -8.4985   -1.7861   -1.5475 H       1  UNL1        0.0267
     52 H          -8.8831   -0.3778   -0.8392 H       1  UNL1        0.0267
     53 H          -7.1954   -0.8202    0.9928 H       1  UNL1        0.0290
     54 H          -7.2767   -2.3871    0.5868 H       1  UNL1        0.0290
     55 H          -3.0428    0.9011   -0.1483 H       1  UNL1        0.0305
     56 H          -2.7729   -0.1679   -1.5888 H       1  UNL1        0.0305
     57 H          -0.8990   -1.0059   -0.8006 H       1  UNL1        0.0465
     58 H          -0.8145    0.6890   -0.2996 H       1  UNL1        0.0465
@<TRIPOS>BOND
     1     1     2    2
     2     2     3    1
     3     2    21   am
     4     3     4   ar
     5     3    20   ar
     6     4     5   ar
     7     5     6   ar
     8     6     7   ar
     9     7     8    1
    10     7    20   ar
    11     8     9    1
    12     9    10   ar
    13     9    19   ar
    14    10    11   ar
    15    11    12   ar
    16    12    13    2
    17    12    14   ar
    18    14    15   ar
    19    14    19   ar
    20    15    16   ar
    21    16    17   ar
    22    17    18   ar
    23    18    19   ar
    24    21    22    1
    25    21    31    1
    26    22    23    1
    27    23    24    1
    28    24    25    1
    29    24    30    1
    30    25    26    1
    31    26    27    1
    32    26    29    1
    33    27    28    1
    34    28    29    1
    35    30    31    1
    36     4    32    1
    37     5    33    1
    38     6    34    1
    39     8    35    1
    40     8    36    1
    41    11    37    1
    42    15    38    1
    43    16    39    1
    44    17    40    1
    45    18    41    1
    46    20    42    1
    47    22    43    1
    48    22    44    1
    49    23    45    1
    50    23    46    1
    51    24    47    1
    52    26    48    1
    53    27    49    1
    54    27    50    1
    55    28    51    1
    56    28    52    1
    57    29    53    1
    58    29    54    1
    59    30    55    1
    60    30    56    1
    61    31    57    1
    62    31    58    1
@<TRIPOS>MOLECULE
../data/bude_mols_rdkit_confs/molecule_96.pdb
 58 62 0 0 0
SMALL
GASTEIGER

@<TRIPOS>ATOM
      1  O1        -0.1400    0.9380   -2.1240 O.2     1  UNL1       -0.2700
      2  C1         0.4160    1.3120   -0.9880 C.2     1  UNL1        0.2466
      3  C2        -0.5250    1.4870    0.0830 C.ar    1  UNL1        0.0372
      4  C3        -0.1670    1.8350    1.3520 C.ar    1  UNL1       -0.0496
      5  C4        -1.0960    2.0130    2.3900 C.ar    1  UNL1       -0.0608
      6  C5        -2.4290    1.8240    2.1070 C.ar    1  UNL1       -0.0582
      7  C6        -2.8290    1.4710    0.8370 C.ar    1  UNL1       -0.0408
      8  C7        -4.2740    1.2710    0.5430 C.3     1  UNL1        0.0171
      9  C8        -4.6890   -0.1450    0.7770 C.ar    1  UNL1        0.0736
     10  N1        -3.8310   -1.0760    1.2060 N.ar    1  UNL1       -0.1750
     11  N2        -4.2590   -2.3070    1.3940 N.ar    1  UNL1       -0.2425
     12  C9        -5.5280   -2.6780    1.1740 C.ar    1  UNL1        0.2725
     13  O2        -5.9470   -3.8570    1.3520 O.2     1  UNL1       -0.2658
     14  C10       -6.4370   -1.7410    0.7320 C.ar    1  UNL1        0.0496
     15  C11       -7.7560   -2.0710    0.4900 C.ar    1  UNL1       -0.0487
     16  C12       -8.6210   -1.1060    0.0510 C.ar    1  UNL1       -0.0610
     17  C13       -8.2240    0.2060   -0.1630 C.ar    1  UNL1       -0.0611
     18  C14       -6.9040    0.5210    0.0820 C.ar    1  UNL1       -0.0521
     19  C15       -6.0000   -0.4500    0.5320 C.ar    1  UNL1        0.0106
     20  C16       -1.9160    1.3000   -0.1720 C.ar    1  UNL1       -0.0461
     21  N3         1.7900    1.4510   -1.0900 N.am    1  UNL1       -0.2974
     22  C17        2.6360    1.8570   -0.0020 C.3     1  UNL1        0.0173
     23  C18        4.0760    1.8550   -0.6050 C.3     1  UNL1       -0.0107
     24  C19        4.3140    0.4000   -0.9810 C.3     1  UNL1        0.0619
     25  O3         5.6480    0.1660   -1.1880 O.3     1  UNL1       -0.3732
     26  C20        6.0850   -0.8060   -0.3270 C.3     1  UNL1        0.0591
     27  C21        6.8590   -1.9450   -0.9680 C.3     1  UNL1       -0.0265
     28  C22        7.7920   -1.8980    0.2240 C.3     1  UNL1       -0.0484
     29  C23        7.3320   -0.4740    0.4640 C.3     1  UNL1       -0.0265
     30  C24        3.5370    0.1840   -2.2620 C.3     1  UNL1       -0.0107
     31  C25        2.4020    1.1560   -2.4020 C.3     1  UNL1        0.0173
     32 H           0.8343    1.9742    1.5594 H       1  UNL1        0.0625
     33 H          -0.7874    2.2781    3.3384 H       1  UNL1        0.0618
     34 H          -3.1336    1.9475    2.8508 H       1  UNL1        0.0620
     35 H          -4.4588    1.5230   -0.4804 H       1  UNL1        0.0377
     36 H          -4.8402    1.8996    1.1981 H       1  UNL1        0.0377
     37 H          -3.6187   -2.9847    1.7101 H       1  UNL1        0.1921
     38 H          -8.0864   -3.0372    0.6390 H       1  UNL1        0.0625
     39 H          -9.6043   -1.3634   -0.1274 H       1  UNL1        0.0618
     40 H          -8.8920    0.9199   -0.4934 H       1  UNL1        0.0618
     41 H          -6.5767    1.4881   -0.0686 H       1  UNL1        0.0624
     42 H          -2.2357    1.0357   -1.1170 H       1  UNL1        0.0628
     43 H           2.5653    1.1647    0.8108 H       1  UNL1        0.0465
     44 H           2.3613    2.8130    0.3923 H       1  UNL1        0.0465
     45 H           4.7923    2.1830    0.1191 H       1  UNL1        0.0305
     46 H           4.1747    2.5179   -1.4391 H       1  UNL1        0.0305
     47 H           3.9994   -0.2654   -0.2044 H       1  UNL1        0.0597
     48 H           5.1472   -0.9714    0.1609 H       1  UNL1        0.0596
     49 H           7.3180   -1.7012   -1.9033 H       1  UNL1        0.0290
     50 H           6.3776   -2.8519   -1.2692 H       1  UNL1        0.0290
     51 H           8.8293   -1.9943   -0.0200 H       1  UNL1        0.0267
     52 H           7.7470   -2.6365    0.9970 H       1  UNL1        0.0267
     53 H           7.1561   -0.2300    1.4909 H       1  UNL1        0.0290
     54 H           7.9483    0.3639    0.2131 H       1  UNL1        0.0290
     55 H           3.1422   -0.8105   -2.2630 H       1  UNL1        0.0305
     56 H           4.2055    0.3360   -3.0836 H       1  UNL1        0.0305
     57 H           2.7712    2.0655   -2.8279 H       1  UNL1        0.0465
     58 H           1.6570    0.7201   -3.0344 H       1  UNL1        0.0465
@<TRIPOS>BOND
     1     1     2    2
     2     2     3    1
     3     2    21   am
     4     3     4   ar
     5     3    20   ar
     6     4     5   ar
     7     5     6   ar
     8     6     7   ar
     9     7     8    1
    10     7    20   ar
    11     8     9    1
    12     9    10   ar
    13     9    19   ar
    14    10    11   ar
    15    11    12   ar
    16    12    13    2
    17    12    14   ar
    18    14    15   ar
    19    14    19   ar
    20    15    16   ar
    21    16    17   ar
    22    17    18   ar
    23    18    19   ar
    24    21    22    1
    25    21    31    1
    26    22    23    1
    27    23    24    1
    28    24    25    1
    29    24    30    1
    30    25    26    1
    31    26    27    1
    32    26    29    1
    33    27    28    1
    34    28    29    1
    35    30    31    1
    36     4    32    1
    37     5    33    1
    38     6    34    1
    39     8    35    1
    40     8    36    1
    41    11    37    1
    42    15    38    1
    43    16    39    1
    44    17    40    1
    45    18    41    1
    46    20    42    1
    47    22    43    1
    48    22    44    1
    49    23    45    1
    50    23    46    1
    51    24    47    1
    52    26    48    1
    53    27    49    1
    54    27    50    1
    55    28    51    1
    56    28    52    1
    57    29    53    1
    58    29    54    1
    59    30    55    1
    60    30    56    1
    61    31    57    1
    62    31    58    1
@<TRIPOS>MOLECULE
../data/bude_mols_rdkit_confs/molecule_96.pdb
 58 62 0 0 0
SMALL
GASTEIGER

@<TRIPOS>ATOM
      1  O1        -0.4220    2.2630    1.1800 O.2     1  UNL1       -0.2700
      2  C1         0.0710    1.0600    1.3620 C.2     1  UNL1        0.2466
      3  C2        -0.8730   -0.0070    1.4830 C.ar    1  UNL1        0.0372
      4  C3        -0.6170   -1.3380    1.6360 C.ar    1  UNL1       -0.0496
      5  C4        -1.5850   -2.3310    1.7590 C.ar    1  UNL1       -0.0608
      6  C5        -2.8910   -1.9420    1.7230 C.ar    1  UNL1       -0.0582
      7  C6        -3.2250   -0.6070    1.5690 C.ar    1  UNL1       -0.0408
      8  C7        -4.6890   -0.2460    1.5670 C.3     1  UNL1        0.0171
      9  C8        -5.3360   -0.7770    0.3640 C.ar    1  UNL1        0.0736
     10  N1        -5.9820   -1.9890    0.4460 N.ar    1  UNL1       -0.1750
     11  N2        -6.5380   -2.5290   -0.6170 N.ar    1  UNL1       -0.2425
     12  C9        -6.5260   -1.9720   -1.8190 C.ar    1  UNL1        0.2725
     13  O2        -7.0720   -2.5170   -2.8320 O.2     1  UNL1       -0.2658
     14  C10       -5.8960   -0.7520   -1.9800 C.ar    1  UNL1        0.0496
     15  C11       -5.8800   -0.1450   -3.2150 C.ar    1  UNL1       -0.0487
     16  C12       -5.2600    1.0770   -3.3540 C.ar    1  UNL1       -0.0610
     17  C13       -4.6740    1.6600   -2.2540 C.ar    1  UNL1       -0.0611
     18  C14       -4.6830    1.0600   -1.0040 C.ar    1  UNL1       -0.0521
     19  C15       -5.3010   -0.1670   -0.8570 C.ar    1  UNL1        0.0106
     20  C16       -2.2390    0.3300    1.4530 C.ar    1  UNL1       -0.0461
     21  N3         1.4700    1.0700    1.4020 N.am    1  UNL1       -0.2974
     22  C17        2.2070    2.3560    1.2330 C.3     1  UNL1        0.0173
     23  C18        3.1440    2.1190    0.0700 C.3     1  UNL1       -0.0107
     24  C19        4.2090    1.1800    0.5490 C.3     1  UNL1        0.0619
     25  O3         4.6020    0.2420   -0.3900 O.3     1  UNL1       -0.3732
     26  C20        5.9460    0.3430   -0.7260 C.3     1  UNL1        0.0591
     27  C21        6.2840    0.1790   -2.1760 C.3     1  UNL1       -0.0265
     28  C22        7.3640   -0.8430   -1.7990 C.3     1  UNL1       -0.0484
     29  C23        6.6280   -0.9870   -0.4710 C.3     1  UNL1       -0.0265
     30  C24        3.7460    0.4510    1.7780 C.3     1  UNL1       -0.0107
     31  C25        2.2900   -0.0620    1.6010 C.3     1  UNL1        0.0173
     32 H           0.3719   -1.6320    1.6627 H       1  UNL1        0.0625
     33 H          -1.3240   -3.3229    1.8730 H       1  UNL1        0.0618
     34 H          -3.6376   -2.6489    1.8113 H       1  UNL1        0.0620
     35 H          -4.7911    0.8190    1.5832 H       1  UNL1        0.0377
     36 H          -5.1557   -0.6692    2.4319 H       1  UNL1        0.0377
     37 H          -6.9894   -3.3978   -0.5132 H       1  UNL1        0.1921
     38 H          -6.3268   -0.5996   -4.0266 H       1  UNL1        0.0625
     39 H          -5.2353    1.5492   -4.2713 H       1  UNL1        0.0618
     40 H          -4.2115    2.5761   -2.3632 H       1  UNL1        0.0618
     41 H          -4.2356    1.5221   -0.1970 H       1  UNL1        0.0624
     42 H          -2.5048    1.3207    1.3393 H       1  UNL1        0.0628
     43 H           2.7589    2.5926    2.1186 H       1  UNL1        0.0465
     44 H           1.5458    3.1784    1.0558 H       1  UNL1        0.0465
     45 H           3.5828    3.0435   -0.2425 H       1  UNL1        0.0305
     46 H           2.6184    1.7057   -0.7654 H       1  UNL1        0.0305
     47 H           5.0570    1.7987    0.7565 H       1  UNL1        0.0597
     48 H           6.1996    1.2627   -0.2416 H       1  UNL1        0.0596
     49 H           6.6626    1.0654   -2.6406 H       1  UNL1        0.0290
     50 H           5.5243   -0.0689   -2.8876 H       1  UNL1        0.0290
     51 H           8.3543   -0.4448   -1.7242 H       1  UNL1        0.0267
     52 H           7.5966   -1.6841   -2.4182 H       1  UNL1        0.0267
     53 H           5.9603   -1.8219   -0.4269 H       1  UNL1        0.0290
     54 H           7.1662   -1.1611    0.4372 H       1  UNL1        0.0290
     55 H           3.7840    1.1161    2.6153 H       1  UNL1        0.0305
     56 H           4.3880   -0.3896    1.9399 H       1  UNL1        0.0305
     57 H           2.2307   -0.7114    0.7527 H       1  UNL1        0.0465
     58 H           1.9741   -0.6133    2.4619 H       1  UNL1        0.0465
@<TRIPOS>BOND
     1     1     2    2
     2     2     3    1
     3     2    21   am
     4     3     4   ar
     5     3    20   ar
     6     4     5   ar
     7     5     6   ar
     8     6     7   ar
     9     7     8    1
    10     7    20   ar
    11     8     9    1
    12     9    10   ar
    13     9    19   ar
    14    10    11   ar
    15    11    12   ar
    16    12    13    2
    17    12    14   ar
    18    14    15   ar
    19    14    19   ar
    20    15    16   ar
    21    16    17   ar
    22    17    18   ar
    23    18    19   ar
    24    21    22    1
    25    21    31    1
    26    22    23    1
    27    23    24    1
    28    24    25    1
    29    24    30    1
    30    25    26    1
    31    26    27    1
    32    26    29    1
    33    27    28    1
    34    28    29    1
    35    30    31    1
    36     4    32    1
    37     5    33    1
    38     6    34    1
    39     8    35    1
    40     8    36    1
    41    11    37    1
    42    15    38    1
    43    16    39    1
    44    17    40    1
    45    18    41    1
    46    20    42    1
    47    22    43    1
    48    22    44    1
    49    23    45    1
    50    23    46    1
    51    24    47    1
    52    26    48    1
    53    27    49    1
    54    27    50    1
    55    28    51    1
    56    28    52    1
    57    29    53    1
    58    29    54    1
    59    30    55    1
    60    30    56    1
    61    31    57    1
    62    31    58    1
@<TRIPOS>MOLECULE
../data/bude_mols_rdkit_confs/molecule_96.pdb
 58 62 0 0 0
SMALL
GASTEIGER

@<TRIPOS>ATOM
      1  O1         0.1380    3.8080    1.8080 O.2     1  UNL1       -0.2700
      2  C1         0.2320    2.4880    1.7090 C.2     1  UNL1        0.2466
      3  C2        -0.9360    1.7290    2.0740 C.ar    1  UNL1        0.0372
      4  C3        -2.0030    2.4470    2.6360 C.ar    1  UNL1       -0.0496
      5  C4        -3.1670    1.8170    3.0010 C.ar    1  UNL1       -0.0608
      6  C5        -3.3470    0.4710    2.8380 C.ar    1  UNL1       -0.0582
      7  C6        -2.3130   -0.2590    2.2870 C.ar    1  UNL1       -0.0408
      8  C7        -2.4650   -1.7190    2.1250 C.3     1  UNL1        0.0171
      9  C8        -3.5640   -2.0520    1.1930 C.ar    1  UNL1        0.0736
     10  N1        -4.8040   -2.3900    1.6680 N.ar    1  UNL1       -0.1750
     11  N2        -5.8230   -2.6600    0.8740 N.ar    1  UNL1       -0.2425
     12  C9        -5.7510   -2.6310   -0.4720 C.ar    1  UNL1        0.2725
     13  O2        -6.7340   -2.8900   -1.2120 O.2     1  UNL1       -0.2658
     14  C10       -4.5220   -2.2960   -1.0020 C.ar    1  UNL1        0.0496
     15  C11       -4.3650   -2.2550   -2.3730 C.ar    1  UNL1       -0.0487
     16  C12       -3.1790   -1.9440   -2.9580 C.ar    1  UNL1       -0.0610
     17  C13       -2.1010   -1.6600   -2.1390 C.ar    1  UNL1       -0.0611
     18  C14       -2.2350   -1.6940   -0.7740 C.ar    1  UNL1       -0.0521
     19  C15       -3.4300   -2.0070   -0.1730 C.ar    1  UNL1        0.0106
     20  C16       -1.1220    0.3840    1.9130 C.ar    1  UNL1       -0.0461
     21  N3         1.4860    2.1040    1.2580 N.am    1  UNL1       -0.2974
     22  C17        1.8950    0.7340    1.0820 C.3     1  UNL1        0.0173
     23  C18        3.4490    0.7280    0.8900 C.3     1  UNL1       -0.0107
     24  C19        3.6970    1.4480   -0.3970 C.3     1  UNL1        0.0619
     25  O3         3.3310    0.7080   -1.5120 O.3     1  UNL1       -0.3732
     26  C20        4.3980    0.2840   -2.2710 C.3     1  UNL1        0.0591
     27  C21        4.2450    0.2830   -3.7670 C.3     1  UNL1       -0.0265
     28  C22        3.7010   -1.1260   -3.6750 C.3     1  UNL1       -0.0484
     29  C23        4.3630   -1.2430   -2.3240 C.3     1  UNL1       -0.0265
     30  C24        3.1930    2.8330   -0.3400 C.3     1  UNL1       -0.0107
     31  C25        2.4640    3.1580    0.9330 C.3     1  UNL1        0.0173
     32 H          -1.9111    3.4652    2.7772 H       1  UNL1        0.0625
     33 H          -3.9305    2.3770    3.4115 H       1  UNL1        0.0618
     34 H          -4.2292    0.0149    3.1185 H       1  UNL1        0.0620
     35 H          -2.6754   -2.1542    3.0796 H       1  UNL1        0.0377
     36 H          -1.5538   -2.1074    1.7203 H       1  UNL1        0.0377
     37 H          -6.6845   -2.8959    1.2880 H       1  UNL1        0.1921
     38 H          -5.1764   -2.4679   -2.9741 H       1  UNL1        0.0625
     39 H          -3.0848   -1.9203   -3.9854 H       1  UNL1        0.0618
     40 H          -1.1888   -1.4207   -2.5580 H       1  UNL1        0.0618
     41 H          -1.4166   -1.4788   -0.1833 H       1  UNL1        0.0624
     42 H          -0.3604   -0.1783    1.5022 H       1  UNL1        0.0628
     43 H           1.4186    0.3185    0.2187 H       1  UNL1        0.0465
     44 H           1.6179    0.1457    1.9317 H       1  UNL1        0.0465
     45 H           3.8146   -0.2760    0.8330 H       1  UNL1        0.0305
     46 H           3.9514    1.1973    1.7099 H       1  UNL1        0.0305
     47 H           4.7539    1.5519   -0.5280 H       1  UNL1        0.0597
     48 H           5.1798    0.8850   -1.8557 H       1  UNL1        0.0596
     49 H           5.1659    0.3669   -4.3054 H       1  UNL1        0.0290
     50 H           3.6988    1.0550   -4.2675 H       1  UNL1        0.0290
     51 H           4.0822   -1.7979   -4.4154 H       1  UNL1        0.0267
     52 H           2.6585   -1.3298   -3.8037 H       1  UNL1        0.0267
     53 H           3.7571   -1.7004   -1.5700 H       1  UNL1        0.0290
     54 H           5.2479   -1.8280   -2.1835 H       1  UNL1        0.0290
     55 H           2.5230    2.9828   -1.1607 H       1  UNL1        0.0305
     56 H           4.0453    3.4783   -0.3860 H       1  UNL1        0.0305
     57 H           3.1713    3.2390    1.7318 H       1  UNL1        0.0465
     58 H           1.9420    4.0830    0.8035 H       1  UNL1        0.0465
@<TRIPOS>BOND
     1     1     2    2
     2     2     3    1
     3     2    21   am
     4     3     4   ar
     5     3    20   ar
     6     4     5   ar
     7     5     6   ar
     8     6     7   ar
     9     7     8    1
    10     7    20   ar
    11     8     9    1
    12     9    10   ar
    13     9    19   ar
    14    10    11   ar
    15    11    12   ar
    16    12    13    2
    17    12    14   ar
    18    14    15   ar
    19    14    19   ar
    20    15    16   ar
    21    16    17   ar
    22    17    18   ar
    23    18    19   ar
    24    21    22    1
    25    21    31    1
    26    22    23    1
    27    23    24    1
    28    24    25    1
    29    24    30    1
    30    25    26    1
    31    26    27    1
    32    26    29    1
    33    27    28    1
    34    28    29    1
    35    30    31    1
    36     4    32    1
    37     5    33    1
    38     6    34    1
    39     8    35    1
    40     8    36    1
    41    11    37    1
    42    15    38    1
    43    16    39    1
    44    17    40    1
    45    18    41    1
    46    20    42    1
    47    22    43    1
    48    22    44    1
    49    23    45    1
    50    23    46    1
    51    24    47    1
    52    26    48    1
    53    27    49    1
    54    27    50    1
    55    28    51    1
    56    28    52    1
    57    29    53    1
    58    29    54    1
    59    30    55    1
    60    30    56    1
    61    31    57    1
    62    31    58    1
@<TRIPOS>MOLECULE
../data/bude_mols_rdkit_confs/molecule_96.pdb
 58 62 0 0 0
SMALL
GASTEIGER

@<TRIPOS>ATOM
      1  O1        -0.0740   -2.4570   -0.8890 O.2     1  UNL1       -0.2700
      2  C1         0.3400   -1.2420   -0.6420 C.2     1  UNL1        0.2466
      3  C2        -0.5940   -0.2330   -1.0590 C.ar    1  UNL1        0.0372
      4  C3        -0.2760    1.0920   -1.2110 C.ar    1  UNL1       -0.0496
      5  C4        -1.2340    2.0480   -1.5530 C.ar    1  UNL1       -0.0608
      6  C5        -2.5280    1.6330   -1.7420 C.ar    1  UNL1       -0.0582
      7  C6        -2.9260    0.3350   -1.6120 C.ar    1  UNL1       -0.0408
      8  C7        -4.2550   -0.1410   -1.7900 C.3     1  UNL1        0.0171
      9  C8        -5.1740   -0.5490   -0.8100 C.ar    1  UNL1        0.0736
     10  N1        -5.2840   -1.8980   -0.5700 N.ar    1  UNL1       -0.1750
     11  N2        -6.0690   -2.4020    0.3290 N.ar    1  UNL1       -0.2425
     12  C9        -6.8580   -1.6730    1.1210 C.ar    1  UNL1        0.2725
     13  O2        -7.6200   -2.1240    1.9900 O.2     1  UNL1       -0.2658
     14  C10       -6.8120   -0.2940    0.9470 C.ar    1  UNL1        0.0496
     15  C11       -7.5870    0.5490    1.7010 C.ar    1  UNL1       -0.0487
     16  C12       -7.5310    1.9120    1.5040 C.ar    1  UNL1       -0.0610
     17  C13       -6.6970    2.4430    0.5480 C.ar    1  UNL1       -0.0611
     18  C14       -5.9100    1.6100   -0.2210 C.ar    1  UNL1       -0.0521
     19  C15       -5.9580    0.2500   -0.0300 C.ar    1  UNL1        0.0106
     20  C16       -1.9260   -0.5680   -1.2690 C.ar    1  UNL1       -0.0461
     21  N3         1.5760   -1.0790   -0.0330 N.am    1  UNL1       -0.2974
     22  C17        2.3990   -2.2980    0.2010 C.3     1  UNL1        0.0173
     23  C18        3.8440   -2.0220    0.0070 C.3     1  UNL1       -0.0107
     24  C19        4.3290   -0.6640   -0.2410 C.3     1  UNL1        0.0619
     25  O3         5.2240   -0.2030    0.7490 O.3     1  UNL1       -0.3732
     26  C20        6.4660    0.0660    0.2260 C.3     1  UNL1        0.0591
     27  C21        7.6610   -0.4200    1.0030 C.3     1  UNL1       -0.0265
     28  C22        8.2780    0.9710    0.8530 C.3     1  UNL1       -0.0484
     29  C23        6.8770    1.5020    0.5670 C.3     1  UNL1       -0.0265
     30  C24        3.3120    0.4250   -0.4640 C.3     1  UNL1       -0.0107
     31  C25        2.1600    0.1260    0.4710 C.3     1  UNL1        0.0173
     32 H           0.7012    1.3916   -1.0683 H       1  UNL1        0.0625
     33 H          -0.9756    3.0413   -1.6609 H       1  UNL1        0.0618
     34 H          -3.2365    2.3392   -1.9955 H       1  UNL1        0.0620
     35 H          -4.1525   -0.9903   -2.4327 H       1  UNL1        0.0377
     36 H          -4.7179    0.7839   -2.0644 H       1  UNL1        0.0377
     37 H          -6.0844   -3.3807    0.4342 H       1  UNL1        0.1921
     38 H          -8.2164    0.1605    2.4207 H       1  UNL1        0.0625
     39 H          -8.1183    2.5377    2.0772 H       1  UNL1        0.0618
     40 H          -6.6597    3.4645    0.4057 H       1  UNL1        0.0618
     41 H          -5.2855    2.0084   -0.9395 H       1  UNL1        0.0624
     42 H          -2.1925   -1.5593   -1.1626 H       1  UNL1        0.0628
     43 H           2.0950   -3.0602   -0.4857 H       1  UNL1        0.0465
     44 H           2.2499   -2.6157    1.2118 H       1  UNL1        0.0465
     45 H           4.1563   -2.6130   -0.8285 H       1  UNL1        0.0305
     46 H           4.2555   -2.2448    0.9693 H       1  UNL1        0.0305
     47 H           4.8140   -0.8217   -1.1816 H       1  UNL1        0.0597
     48 H           6.3258   -0.3058   -0.7675 H       1  UNL1        0.0596
     49 H           8.2119   -1.2020    0.5234 H       1  UNL1        0.0290
     50 H           7.5479   -0.8743    1.9651 H       1  UNL1        0.0290
     51 H           8.9648    1.0672    0.0381 H       1  UNL1        0.0267
     52 H           8.8911    1.3962    1.6200 H       1  UNL1        0.0267
     53 H           6.3768    1.9183    1.4164 H       1  UNL1        0.0290
     54 H           6.7124    2.3090   -0.1161 H       1  UNL1        0.0290
     55 H           2.9766    0.4167   -1.4800 H       1  UNL1        0.0305
     56 H           3.7283    1.3919   -0.2725 H       1  UNL1        0.0305
     57 H           2.5144   -0.0174    1.4703 H       1  UNL1        0.0465
     58 H           1.4541    0.9293    0.5082 H       1  UNL1        0.0465
@<TRIPOS>BOND
     1     1     2    2
     2     2     3    1
     3     2    21   am
     4     3     4   ar
     5     3    20   ar
     6     4     5   ar
     7     5     6   ar
     8     6     7   ar
     9     7     8    1
    10     7    20   ar
    11     8     9    1
    12     9    10   ar
    13     9    19   ar
    14    10    11   ar
    15    11    12   ar
    16    12    13    2
    17    12    14   ar
    18    14    15   ar
    19    14    19   ar
    20    15    16   ar
    21    16    17   ar
    22    17    18   ar
    23    18    19   ar
    24    21    22    1
    25    21    31    1
    26    22    23    1
    27    23    24    1
    28    24    25    1
    29    24    30    1
    30    25    26    1
    31    26    27    1
    32    26    29    1
    33    27    28    1
    34    28    29    1
    35    30    31    1
    36     4    32    1
    37     5    33    1
    38     6    34    1
    39     8    35    1
    40     8    36    1
    41    11    37    1
    42    15    38    1
    43    16    39    1
    44    17    40    1
    45    18    41    1
    46    20    42    1
    47    22    43    1
    48    22    44    1
    49    23    45    1
    50    23    46    1
    51    24    47    1
    52    26    48    1
    53    27    49    1
    54    27    50    1
    55    28    51    1
    56    28    52    1
    57    29    53    1
    58    29    54    1
    59    30    55    1
    60    30    56    1
    61    31    57    1
    62    31    58    1
@<TRIPOS>MOLECULE
../data/bude_mols_rdkit_confs/molecule_96.pdb
 58 62 0 0 0
SMALL
GASTEIGER

@<TRIPOS>ATOM
      1  O1        -0.1040    1.4230   -0.8710 O.2     1  UNL1       -0.2700
      2  C1         0.2400    0.6990    0.1680 C.2     1  UNL1        0.2466
      3  C2        -0.8690    0.3850    1.0370 C.ar    1  UNL1        0.0372
      4  C3        -0.8230   -0.4420    2.1280 C.ar    1  UNL1       -0.0496
      5  C4        -1.9280   -0.6920    2.9460 C.ar    1  UNL1       -0.0608
      6  C5        -3.1050   -0.1000    2.6660 C.ar    1  UNL1       -0.0582
      7  C6        -3.2290    0.7580    1.5670 C.ar    1  UNL1       -0.0408
      8  C7        -4.5690    1.3550    1.4000 C.3     1  UNL1        0.0171
      9  C8        -5.5240    0.3690    0.8870 C.ar    1  UNL1        0.0736
     10  N1        -6.2810   -0.3180    1.7830 N.ar    1  UNL1       -0.1750
     11  N2        -7.1240   -1.2500    1.4260 N.ar    1  UNL1       -0.2425
     12  C9        -7.2690   -1.5620    0.1220 C.ar    1  UNL1        0.2725
     13  O2        -8.0890   -2.4680   -0.2180 O.2     1  UNL1       -0.2658
     14  C10       -6.5450   -0.9180   -0.8570 C.ar    1  UNL1        0.0496
     15  C11       -6.7200   -1.2420   -2.1980 C.ar    1  UNL1       -0.0487
     16  C12       -5.9760   -0.5440   -3.1220 C.ar    1  UNL1       -0.0610
     17  C13       -5.0950    0.4390   -2.7040 C.ar    1  UNL1       -0.0611
     18  C14       -4.9350    0.7460   -1.3720 C.ar    1  UNL1       -0.0521
     19  C15       -5.6540    0.0730   -0.4340 C.ar    1  UNL1        0.0106
     20  C16       -2.1330    0.9720    0.8010 C.ar    1  UNL1       -0.0461
     21  N3         1.5740    0.3730    0.2440 N.am    1  UNL1       -0.2974
     22  C17        2.2200   -0.3640    1.2650 C.3     1  UNL1        0.0173
     23  C18        3.7390   -0.3420    1.1460 C.3     1  UNL1       -0.0107
     24  C19        4.2950   -0.5150   -0.2030 C.3     1  UNL1        0.0619
     25  O3         5.2140    0.4600   -0.5540 O.3     1  UNL1       -0.3732
     26  C20        6.3980    0.0280   -1.0250 C.3     1  UNL1        0.0591
     27  C21        6.8690    0.4960   -2.3670 C.3     1  UNL1       -0.0265
     28  C22        8.3000    0.3450   -1.8270 C.3     1  UNL1       -0.0484
     29  C23        7.6760    0.5580   -0.4420 C.3     1  UNL1       -0.0265
     30  C24        3.1980   -0.4140   -1.2670 C.3     1  UNL1       -0.0107
     31  C25        2.4140    0.8470   -0.9110 C.3     1  UNL1        0.0173
     32 H           0.0715   -0.9030    2.3570 H       1  UNL1        0.0625
     33 H          -1.8431   -1.3244    3.7571 H       1  UNL1        0.0618
     34 H          -3.9236   -0.2808    3.2678 H       1  UNL1        0.0620
     35 H          -4.5049    2.1711    0.7110 H       1  UNL1        0.0377
     36 H          -4.9113    1.6958    2.3548 H       1  UNL1        0.0377
     37 H          -7.6527   -1.7239    2.1080 H       1  UNL1        0.1921
     38 H          -7.3825   -1.9778   -2.4893 H       1  UNL1        0.0625
     39 H          -6.0749   -0.7536   -4.1276 H       1  UNL1        0.0618
     40 H          -4.5447    0.9542   -3.4088 H       1  UNL1        0.0618
     41 H          -4.2723    1.4837   -1.0862 H       1  UNL1        0.0624
     42 H          -2.2268    1.6054   -0.0084 H       1  UNL1        0.0628
     43 H           1.8888   -1.3801    1.2136 H       1  UNL1        0.0465
     44 H           1.9657    0.0926    2.1987 H       1  UNL1        0.0465
     45 H           4.1243   -1.1294    1.7595 H       1  UNL1        0.0305
     46 H           4.0318    0.6418    1.4482 H       1  UNL1        0.0305
     47 H           4.7623   -1.4770   -0.1705 H       1  UNL1        0.0597
     48 H           6.1037   -0.9878   -0.8624 H       1  UNL1        0.0596
     49 H           6.5875    1.4977   -2.6165 H       1  UNL1        0.0290
     50 H           6.5528    0.0259   -3.2747 H       1  UNL1        0.0290
     51 H           8.9841    1.1069   -2.1376 H       1  UNL1        0.0267
     52 H           8.9192   -0.4963   -2.0586 H       1  UNL1        0.0267
     53 H           8.0968   -0.0433    0.3366 H       1  UNL1        0.0290
     54 H           7.7217    1.5007    0.0621 H       1  UNL1        0.0290
     55 H           2.5620   -1.2738   -1.2337 H       1  UNL1        0.0305
     56 H           3.6022   -0.3690   -2.2567 H       1  UNL1        0.0305
     57 H           3.0674    1.6417   -0.6170 H       1  UNL1        0.0465
     58 H           1.8453    1.2471   -1.7243 H       1  UNL1        0.0465
@<TRIPOS>BOND
     1     1     2    2
     2     2     3    1
     3     2    21   am
     4     3     4   ar
     5     3    20   ar
     6     4     5   ar
     7     5     6   ar
     8     6     7   ar
     9     7     8    1
    10     7    20   ar
    11     8     9    1
    12     9    10   ar
    13     9    19   ar
    14    10    11   ar
    15    11    12   ar
    16    12    13    2
    17    12    14   ar
    18    14    15   ar
    19    14    19   ar
    20    15    16   ar
    21    16    17   ar
    22    17    18   ar
    23    18    19   ar
    24    21    22    1
    25    21    31    1
    26    22    23    1
    27    23    24    1
    28    24    25    1
    29    24    30    1
    30    25    26    1
    31    26    27    1
    32    26    29    1
    33    27    28    1
    34    28    29    1
    35    30    31    1
    36     4    32    1
    37     5    33    1
    38     6    34    1
    39     8    35    1
    40     8    36    1
    41    11    37    1
    42    15    38    1
    43    16    39    1
    44    17    40    1
    45    18    41    1
    46    20    42    1
    47    22    43    1
    48    22    44    1
    49    23    45    1
    50    23    46    1
    51    24    47    1
    52    26    48    1
    53    27    49    1
    54    27    50    1
    55    28    51    1
    56    28    52    1
    57    29    53    1
    58    29    54    1
    59    30    55    1
    60    30    56    1
    61    31    57    1
    62    31    58    1
@<TRIPOS>MOLECULE
../data/bude_mols_rdkit_confs/molecule_96.pdb
 58 62 0 0 0
SMALL
GASTEIGER

@<TRIPOS>ATOM
      1  O1         0.5760    0.9570   -3.6370 O.2     1  UNL1       -0.2700
      2  C1         0.4450    0.5250   -2.3970 C.2     1  UNL1        0.2466
      3  C2        -0.5060    1.2400   -1.5830 C.ar    1  UNL1        0.0372
      4  C3        -1.1080    2.3750   -2.1610 C.ar    1  UNL1       -0.0496
      5  C4        -2.0390    3.1260   -1.4970 C.ar    1  UNL1       -0.0608
      6  C5        -2.4000    2.7690   -0.2360 C.ar    1  UNL1       -0.0582
      7  C6        -1.8520    1.6630    0.4010 C.ar    1  UNL1       -0.0408
      8  C7        -2.2820    1.3670    1.7720 C.3     1  UNL1        0.0171
      9  C8        -3.6770    0.8670    1.8320 C.ar    1  UNL1        0.0736
     10  N1        -4.6350    1.8020    2.1110 N.ar    1  UNL1       -0.1750
     11  N2        -5.9020    1.5100    2.1530 N.ar    1  UNL1       -0.2425
     12  C9        -6.3440    0.2840    1.9270 C.ar    1  UNL1        0.2725
     13  O2        -7.5710   -0.0100    1.9650 O.2     1  UNL1       -0.2658
     14  C10       -5.4460   -0.7210    1.6390 C.ar    1  UNL1        0.0496
     15  C11       -5.8500   -2.0200    1.4050 C.ar    1  UNL1       -0.0487
     16  C12       -4.9190   -2.9940    1.1330 C.ar    1  UNL1       -0.0610
     17  C13       -3.5810   -2.6640    1.0950 C.ar    1  UNL1       -0.0611
     18  C14       -3.1530   -1.3740    1.3250 C.ar    1  UNL1       -0.0521
     19  C15       -4.0930   -0.4050    1.5960 C.ar    1  UNL1        0.0106
     20  C16       -0.9170    0.9380   -0.3110 C.ar    1  UNL1       -0.0461
     21  N3         1.2720   -0.5530   -2.1240 N.am    1  UNL1       -0.2974
     22  C17        2.1210   -1.0630   -3.2170 C.3     1  UNL1        0.0173
     23  C18        3.5530   -1.2180   -2.8450 C.3     1  UNL1       -0.0107
     24  C19        3.6920   -1.4150   -1.3830 C.3     1  UNL1        0.0619
     25  O3         3.9110   -0.2570   -0.6640 O.3     1  UNL1       -0.3732
     26  C20        5.1170   -0.2340    0.0190 C.3     1  UNL1        0.0591
     27  C21        5.8100    1.0940   -0.2220 C.3     1  UNL1       -0.0265
     28  C22        4.9780    1.6620    0.9090 C.3     1  UNL1       -0.0484
     29  C23        4.8610    0.2490    1.4430 C.3     1  UNL1       -0.0265
     30  C24        2.5240   -2.2150   -0.8760 C.3     1  UNL1       -0.0107
     31  C25        1.3630   -1.1840   -0.8350 C.3     1  UNL1        0.0173
     32 H          -0.8374    2.6494   -3.1183 H       1  UNL1        0.0625
     33 H          -2.4617    3.9527   -1.9475 H       1  UNL1        0.0618
     34 H          -3.1024    3.3369    0.2631 H       1  UNL1        0.0620
     35 H          -2.2124    2.2618    2.3546 H       1  UNL1        0.0377
     36 H          -1.6435    0.5987    2.1552 H       1  UNL1        0.0377
     37 H          -6.5503    2.2218    2.3588 H       1  UNL1        0.1921
     38 H          -6.8532   -2.2604    1.4343 H       1  UNL1        0.0625
     39 H          -5.2196   -3.9657    0.9584 H       1  UNL1        0.0618
     40 H          -2.8852   -3.3981    0.8901 H       1  UNL1        0.0618
     41 H          -2.1485   -1.1393    1.2947 H       1  UNL1        0.0624
     42 H          -0.4992    0.1124    0.1460 H       1  UNL1        0.0628
     43 H           2.0583   -0.3807   -4.0389 H       1  UNL1        0.0465
     44 H           1.7568   -2.0382   -3.4643 H       1  UNL1        0.0465
     45 H           4.0889   -0.3382   -3.1341 H       1  UNL1        0.0305
     46 H           3.9501   -2.0745   -3.3485 H       1  UNL1        0.0305
     47 H           4.5917   -1.9708   -1.2203 H       1  UNL1        0.0597
     48 H           5.5806   -1.1717   -0.2060 H       1  UNL1        0.0596
     49 H           5.6171    1.5301   -1.1799 H       1  UNL1        0.0290
     50 H           6.8767    1.1774   -0.2313 H       1  UNL1        0.0290
     51 H           4.0516    2.1021    0.6042 H       1  UNL1        0.0267
     52 H           5.3316    2.4669    1.5189 H       1  UNL1        0.0267
     53 H           5.6155   -0.0253    2.1504 H       1  UNL1        0.0290
     54 H           4.0086   -0.0736    2.0036 H       1  UNL1        0.0290
     55 H           2.7232   -2.6046    0.1004 H       1  UNL1        0.0305
     56 H           2.3042   -3.0634   -1.4899 H       1  UNL1        0.0305
     57 H           0.4436   -1.6835   -0.6113 H       1  UNL1        0.0465
     58 H           1.5486   -0.4505   -0.0784 H       1  UNL1        0.0465
@<TRIPOS>BOND
     1     1     2    2
     2     2     3    1
     3     2    21   am
     4     3     4   ar
     5     3    20   ar
     6     4     5   ar
     7     5     6   ar
     8     6     7   ar
     9     7     8    1
    10     7    20   ar
    11     8     9    1
    12     9    10   ar
    13     9    19   ar
    14    10    11   ar
    15    11    12   ar
    16    12    13    2
    17    12    14   ar
    18    14    15   ar
    19    14    19   ar
    20    15    16   ar
    21    16    17   ar
    22    17    18   ar
    23    18    19   ar
    24    21    22    1
    25    21    31    1
    26    22    23    1
    27    23    24    1
    28    24    25    1
    29    24    30    1
    30    25    26    1
    31    26    27    1
    32    26    29    1
    33    27    28    1
    34    28    29    1
    35    30    31    1
    36     4    32    1
    37     5    33    1
    38     6    34    1
    39     8    35    1
    40     8    36    1
    41    11    37    1
    42    15    38    1
    43    16    39    1
    44    17    40    1
    45    18    41    1
    46    20    42    1
    47    22    43    1
    48    22    44    1
    49    23    45    1
    50    23    46    1
    51    24    47    1
    52    26    48    1
    53    27    49    1
    54    27    50    1
    55    28    51    1
    56    28    52    1
    57    29    53    1
    58    29    54    1
    59    30    55    1
    60    30    56    1
    61    31    57    1
    62    31    58    1
@<TRIPOS>MOLECULE
../data/bude_mols_rdkit_confs/molecule_96.pdb
 58 62 0 0 0
SMALL
GASTEIGER

@<TRIPOS>ATOM
      1  O1        -0.1020    0.5370   -2.4640 O.2     1  UNL1       -0.2700
      2  C1         0.3420    1.1230   -1.3760 C.2     1  UNL1        0.2466
      3  C2        -0.7170    1.4610   -0.4640 C.ar    1  UNL1        0.0372
      4  C3        -0.5310    1.8740    0.8260 C.ar    1  UNL1       -0.0496
      5  C4        -1.6090    2.2370    1.6440 C.ar    1  UNL1       -0.0608
      6  C5        -2.9080    2.1970    1.1940 C.ar    1  UNL1       -0.0582
      7  C6        -3.1270    1.7890   -0.0800 C.ar    1  UNL1       -0.0408
      8  C7        -4.4890    1.6780   -0.6950 C.3     1  UNL1        0.0171
      9  C8        -4.8450    0.2710   -0.8810 C.ar    1  UNL1        0.0736
     10  N1        -4.6120   -0.3330   -2.0730 N.ar    1  UNL1       -0.1750
     11  N2        -4.8600   -1.6120   -2.2950 N.ar    1  UNL1       -0.2425
     12  C9        -5.3700   -2.4020   -1.3250 C.ar    1  UNL1        0.2725
     13  O2        -5.6100   -3.6210   -1.5220 O.2     1  UNL1       -0.2658
     14  C10       -5.6330   -1.8560   -0.0870 C.ar    1  UNL1        0.0496
     15  C11       -6.1670   -2.6270    0.9190 C.ar    1  UNL1       -0.0487
     16  C12       -6.4540   -2.0990    2.1580 C.ar    1  UNL1       -0.0610
     17  C13       -6.1970   -0.7820    2.3720 C.ar    1  UNL1       -0.0611
     18  C14       -5.6540    0.0000    1.3470 C.ar    1  UNL1       -0.0521
     19  C15       -5.3590   -0.5040    0.1060 C.ar    1  UNL1        0.0106
     20  C16       -2.0630    1.4320   -0.8850 C.ar    1  UNL1       -0.0461
     21  N3         1.6860    1.3340   -1.2450 N.am    1  UNL1       -0.2974
     22  C17        2.5440    0.8000   -2.3630 C.3     1  UNL1        0.0173
     23  C18        3.8280    0.3780   -1.7270 C.3     1  UNL1       -0.0107
     24  C19        3.7080   -0.1230   -0.3060 C.3     1  UNL1        0.0619
     25  O3         5.0150   -0.2480    0.1600 O.3     1  UNL1       -0.3732
     26  C20        5.3900   -1.5090    0.5310 C.3     1  UNL1        0.0591
     27  C21        6.1590   -1.5390    1.8620 C.3     1  UNL1       -0.0265
     28  C22        7.3470   -1.0080    1.0490 C.3     1  UNL1       -0.0484
     29  C23        6.7520   -1.8200   -0.1130 C.3     1  UNL1       -0.0265
     30  C24        3.0500    0.9090    0.6230 C.3     1  UNL1       -0.0107
     31  C25        2.4420    2.0070   -0.2660 C.3     1  UNL1        0.0173
     32 H           0.4272    1.9195    1.2066 H       1  UNL1        0.0625
     33 H          -1.4230    2.5431    2.6118 H       1  UNL1        0.0618
     34 H          -3.6920    2.4693    1.8074 H       1  UNL1        0.0620
     35 H          -4.4896    2.1715   -1.6444 H       1  UNL1        0.0377
     36 H          -5.2046    2.1367   -0.0451 H       1  UNL1        0.0377
     37 H          -4.6700   -1.9953   -3.1817 H       1  UNL1        0.1921
     38 H          -6.3572   -3.6256    0.7410 H       1  UNL1        0.0625
     39 H          -6.8540   -2.6884    2.9048 H       1  UNL1        0.0618
     40 H          -6.4023   -0.3587    3.2905 H       1  UNL1        0.0618
     41 H          -5.4676    0.9979    1.5324 H       1  UNL1        0.0624
     42 H          -2.2643    1.1265   -1.8500 H       1  UNL1        0.0628
     43 H           2.7226    1.5626   -3.0920 H       1  UNL1        0.0465
     44 H           2.0691   -0.0149   -2.8682 H       1  UNL1        0.0465
     45 H           4.4894    1.2191   -1.7267 H       1  UNL1        0.0305
     46 H           4.1877   -0.4483   -2.3039 H       1  UNL1        0.0305
     47 H           3.1279   -1.0221   -0.3050 H       1  UNL1        0.0597
     48 H           4.4930   -2.0748    0.3892 H       1  UNL1        0.0596
     49 H           6.2972   -2.5124    2.2842 H       1  UNL1        0.0290
     50 H           5.8020   -1.0572    2.7482 H       1  UNL1        0.0290
     51 H           8.3093   -1.3336    1.3850 H       1  UNL1        0.0267
     52 H           7.5785    0.0337    0.9712 H       1  UNL1        0.0267
     53 H           6.9016   -1.3984   -1.0850 H       1  UNL1        0.0290
     54 H           7.0691   -2.8145   -0.3483 H       1  UNL1        0.0290
     55 H           3.7835    1.3324    1.2769 H       1  UNL1        0.0305
     56 H           2.2942    0.4482    1.2242 H       1  UNL1        0.0305
     57 H           1.8129    2.6498    0.3137 H       1  UNL1        0.0465
     58 H           3.1995    2.6208   -0.7068 H       1  UNL1        0.0465
@<TRIPOS>BOND
     1     1     2    2
     2     2     3    1
     3     2    21   am
     4     3     4   ar
     5     3    20   ar
     6     4     5   ar
     7     5     6   ar
     8     6     7   ar
     9     7     8    1
    10     7    20   ar
    11     8     9    1
    12     9    10   ar
    13     9    19   ar
    14    10    11   ar
    15    11    12   ar
    16    12    13    2
    17    12    14   ar
    18    14    15   ar
    19    14    19   ar
    20    15    16   ar
    21    16    17   ar
    22    17    18   ar
    23    18    19   ar
    24    21    22    1
    25    21    31    1
    26    22    23    1
    27    23    24    1
    28    24    25    1
    29    24    30    1
    30    25    26    1
    31    26    27    1
    32    26    29    1
    33    27    28    1
    34    28    29    1
    35    30    31    1
    36     4    32    1
    37     5    33    1
    38     6    34    1
    39     8    35    1
    40     8    36    1
    41    11    37    1
    42    15    38    1
    43    16    39    1
    44    17    40    1
    45    18    41    1
    46    20    42    1
    47    22    43    1
    48    22    44    1
    49    23    45    1
    50    23    46    1
    51    24    47    1
    52    26    48    1
    53    27    49    1
    54    27    50    1
    55    28    51    1
    56    28    52    1
    57    29    53    1
    58    29    54    1
    59    30    55    1
    60    30    56    1
    61    31    57    1
    62    31    58    1
@<TRIPOS>MOLECULE
../data/bude_mols_rdkit_confs/molecule_96.pdb
 58 62 0 0 0
SMALL
GASTEIGER

@<TRIPOS>ATOM
      1  O1        -0.0440    0.7340    1.4440 O.2     1  UNL1       -0.2700
      2  C1         0.2580    0.6130    0.1640 C.2     1  UNL1        0.2466
      3  C2        -0.7720   -0.0360   -0.6230 C.ar    1  UNL1        0.0372
      4  C3        -0.7820   -0.1080   -1.9860 C.ar    1  UNL1       -0.0496
      5  C4        -1.7870   -0.7820   -2.6920 C.ar    1  UNL1       -0.0608
      6  C5        -2.8030   -1.3970   -2.0150 C.ar    1  UNL1       -0.0582
      7  C6        -2.8310   -1.3470   -0.6110 C.ar    1  UNL1       -0.0408
      8  C7        -3.9630   -2.0640    0.0470 C.3     1  UNL1        0.0171
      9  C8        -5.1450   -1.1820    0.0700 C.ar    1  UNL1        0.0736
     10  N1        -6.0150   -1.2300   -0.9820 N.ar    1  UNL1       -0.1750
     11  N2        -7.0570   -0.4500   -1.1060 N.ar    1  UNL1       -0.2425
     12  C9        -7.2870    0.4490   -0.1480 C.ar    1  UNL1        0.2725
     13  O2        -8.2950    1.2280   -0.2360 O.2     1  UNL1       -0.2658
     14  C10       -6.4880    0.5900    0.9520 C.ar    1  UNL1        0.0496
     15  C11       -6.7510    1.5120    1.9390 C.ar    1  UNL1       -0.0487
     16  C12       -5.9250    1.5990    3.0350 C.ar    1  UNL1       -0.0610
     17  C13       -4.8350    0.7540    3.1330 C.ar    1  UNL1       -0.0611
     18  C14       -4.5500   -0.1820    2.1530 C.ar    1  UNL1       -0.0521
     19  C15       -5.3780   -0.2620    1.0580 C.ar    1  UNL1        0.0106
     20  C16       -1.8330   -0.6800    0.0360 C.ar    1  UNL1       -0.0461
     21  N3         1.4830    1.1060   -0.2340 N.am    1  UNL1       -0.2974
     22  C17        2.0750    1.0740   -1.5200 C.3     1  UNL1        0.0173
     23  C18        3.5550    1.5010   -1.4520 C.3     1  UNL1       -0.0107
     24  C19        4.3090    0.9290   -0.3200 C.3     1  UNL1        0.0619
     25  O3         4.9860   -0.2600   -0.5790 O.3     1  UNL1       -0.3732
     26  C20        6.3550   -0.1510   -0.4560 C.3     1  UNL1        0.0591
     27  C21        6.8000   -1.1480    0.6350 C.3     1  UNL1       -0.0265
     28  C22        6.9230   -2.1670   -0.4860 C.3     1  UNL1       -0.0484
     29  C23        7.1970   -0.9660   -1.4050 C.3     1  UNL1       -0.0265
     30  C24        3.5060    0.8570    0.9480 C.3     1  UNL1       -0.0107
     31  C25        2.3190    1.7770    0.8020 C.3     1  UNL1        0.0173
     32 H          -0.0231    0.3498   -2.5147 H       1  UNL1        0.0625
     33 H          -1.7603   -0.8142   -3.7232 H       1  UNL1        0.0618
     34 H          -3.5447   -1.8948   -2.5318 H       1  UNL1        0.0620
     35 H          -3.6894   -2.3226    1.0486 H       1  UNL1        0.0377
     36 H          -4.1898   -2.9564   -0.4980 H       1  UNL1        0.0377
     37 H          -7.6550   -0.5242   -1.8846 H       1  UNL1        0.1921
     38 H          -7.5675    2.1377    1.8568 H       1  UNL1        0.0625
     39 H          -6.1170    2.2890    3.7780 H       1  UNL1        0.0618
     40 H          -4.2181    0.8226    3.9575 H       1  UNL1        0.0618
     41 H          -3.7333   -0.8065    2.2426 H       1  UNL1        0.0624
     42 H          -1.8583   -0.6463    1.0671 H       1  UNL1        0.0628
     43 H           1.5462    1.7429   -2.1664 H       1  UNL1        0.0465
     44 H           2.0235    0.0738   -1.8966 H       1  UNL1        0.0465
     45 H           3.5911    2.5674   -1.3720 H       1  UNL1        0.0305
     46 H           4.0183    1.1304   -2.3425 H       1  UNL1        0.0305
     47 H           5.0887    1.6458   -0.1676 H       1  UNL1        0.0597
     48 H           6.4778    0.9119   -0.4462 H       1  UNL1        0.0596
     49 H           6.0558   -1.3739    1.3699 H       1  UNL1        0.0290
     50 H           7.6038   -0.9383    1.3094 H       1  UNL1        0.0290
     51 H           6.0261   -2.7078   -0.7050 H       1  UNL1        0.0267
     52 H           7.5816   -3.0083   -0.4281 H       1  UNL1        0.0267
     53 H           8.2236   -0.6695   -1.4613 H       1  UNL1        0.0290
     54 H           6.9978   -0.9983   -2.4558 H       1  UNL1        0.0290
     55 H           4.1071    1.1687    1.7765 H       1  UNL1        0.0305
     56 H           3.1787   -0.1464    1.1239 H       1  UNL1        0.0305
     57 H           1.7864    1.8635    1.7260 H       1  UNL1        0.0465
     58 H           2.5960    2.7745    0.5316 H       1  UNL1        0.0465
@<TRIPOS>BOND
     1     1     2    2
     2     2     3    1
     3     2    21   am
     4     3     4   ar
     5     3    20   ar
     6     4     5   ar
     7     5     6   ar
     8     6     7   ar
     9     7     8    1
    10     7    20   ar
    11     8     9    1
    12     9    10   ar
    13     9    19   ar
    14    10    11   ar
    15    11    12   ar
    16    12    13    2
    17    12    14   ar
    18    14    15   ar
    19    14    19   ar
    20    15    16   ar
    21    16    17   ar
    22    17    18   ar
    23    18    19   ar
    24    21    22    1
    25    21    31    1
    26    22    23    1
    27    23    24    1
    28    24    25    1
    29    24    30    1
    30    25    26    1
    31    26    27    1
    32    26    29    1
    33    27    28    1
    34    28    29    1
    35    30    31    1
    36     4    32    1
    37     5    33    1
    38     6    34    1
    39     8    35    1
    40     8    36    1
    41    11    37    1
    42    15    38    1
    43    16    39    1
    44    17    40    1
    45    18    41    1
    46    20    42    1
    47    22    43    1
    48    22    44    1
    49    23    45    1
    50    23    46    1
    51    24    47    1
    52    26    48    1
    53    27    49    1
    54    27    50    1
    55    28    51    1
    56    28    52    1
    57    29    53    1
    58    29    54    1
    59    30    55    1
    60    30    56    1
    61    31    57    1
    62    31    58    1
@<TRIPOS>MOLECULE
../data/bude_mols_rdkit_confs/molecule_96.pdb
 58 62 0 0 0
SMALL
GASTEIGER

@<TRIPOS>ATOM
      1  O1        -0.1190   -1.9010   -0.1710 O.2     1  UNL1       -0.2700
      2  C1         0.2560   -0.6800    0.1530 C.2     1  UNL1        0.2466
      3  C2        -0.5890    0.3520   -0.3720 C.ar    1  UNL1        0.0372
      4  C3        -0.3530    1.6740   -0.1700 C.ar    1  UNL1       -0.0496
      5  C4        -1.2420    2.6090   -0.7200 C.ar    1  UNL1       -0.0608
      6  C5        -2.3400    2.2490   -1.4530 C.ar    1  UNL1       -0.0582
      7  C6        -2.5860    0.8860   -1.6610 C.ar    1  UNL1       -0.0408
      8  C7        -3.7920    0.5140   -2.4880 C.3     1  UNL1        0.0171
      9  C8        -5.0470    0.7620   -1.7610 C.ar    1  UNL1        0.0736
     10  N1        -5.6870    1.9500   -2.0050 N.ar    1  UNL1       -0.1750
     11  N2        -6.7900    2.2710   -1.3660 N.ar    1  UNL1       -0.2425
     12  C9        -7.3720    1.5010   -0.4530 C.ar    1  UNL1        0.2725
     13  O2        -8.4240    1.8330    0.1420 O.2     1  UNL1       -0.2658
     14  C10       -6.7920    0.2870   -0.1490 C.ar    1  UNL1        0.0496
     15  C11       -7.3640   -0.5550    0.7820 C.ar    1  UNL1       -0.0487
     16  C12       -6.7780   -1.7640    1.0590 C.ar    1  UNL1       -0.0610
     17  C13       -5.6310   -2.0980    0.3940 C.ar    1  UNL1       -0.0611
     18  C14       -5.0450   -1.2580   -0.5470 C.ar    1  UNL1       -0.0521
     19  C15       -5.6180   -0.0520   -0.8310 C.ar    1  UNL1        0.0106
     20  C16       -1.7210   -0.0200   -1.1250 C.ar    1  UNL1       -0.0461
     21  N3         1.4050   -0.6650    0.9440 N.am    1  UNL1       -0.2974
     22  C17        1.9990   -1.9880    1.2730 C.3     1  UNL1        0.0173
     23  C18        3.4630   -2.0560    1.0360 C.3     1  UNL1       -0.0107
     24  C19        4.0870   -0.7180    1.1720 C.3     1  UNL1        0.0619
     25  O3         5.4600   -0.7380    1.3990 O.3     1  UNL1       -0.3732
     26  C20        6.1610   -0.0590    0.4110 C.3     1  UNL1        0.0591
     27  C21        7.2330    0.8770    0.8660 C.3     1  UNL1       -0.0265
     28  C22        8.2060    0.1850   -0.0540 C.3     1  UNL1       -0.0484
     29  C23        7.2090   -0.9520   -0.2140 C.3     1  UNL1       -0.0265
     30  C24        3.3210    0.0430    2.2220 C.3     1  UNL1       -0.0107
     31  C25        2.0360    0.5180    1.4640 C.3     1  UNL1        0.0173
     32 H           0.4647    1.9846    0.3776 H       1  UNL1        0.0625
     33 H          -1.0600    3.6129   -0.5650 H       1  UNL1        0.0618
     34 H          -2.9721    2.9652   -1.8435 H       1  UNL1        0.0620
     35 H          -3.7348   -0.5251   -2.7369 H       1  UNL1        0.0377
     36 H          -3.7918    1.1198   -3.3700 H       1  UNL1        0.0377
     37 H          -7.2109    3.1356   -1.5770 H       1  UNL1        0.1921
     38 H          -8.2303   -0.2762    1.2687 H       1  UNL1        0.0625
     39 H          -7.1928   -2.4059    1.7525 H       1  UNL1        0.0618
     40 H          -5.1841   -3.0057    0.5975 H       1  UNL1        0.0618
     41 H          -4.1792   -1.5457   -1.0293 H       1  UNL1        0.0624
     42 H          -1.9029   -1.0244   -1.2773 H       1  UNL1        0.0628
     43 H           1.5233   -2.7323    0.6691 H       1  UNL1        0.0465
     44 H           1.8418   -2.1520    2.3186 H       1  UNL1        0.0465
     45 H           3.6405   -2.4258    0.0478 H       1  UNL1        0.0305
     46 H           3.8959   -2.7092    1.7646 H       1  UNL1        0.0305
     47 H           4.0172   -0.2139    0.2308 H       1  UNL1        0.0597
     48 H           5.3386    0.3523   -0.1361 H       1  UNL1        0.0596
     49 H           7.4762    0.7944    1.9047 H       1  UNL1        0.0290
     50 H           7.0915    1.9364    0.8151 H       1  UNL1        0.0290
     51 H           9.1265   -0.0989    0.4118 H       1  UNL1        0.0267
     52 H           8.6067    0.6885   -0.9089 H       1  UNL1        0.0267
     53 H           7.0093   -1.2272   -1.2285 H       1  UNL1        0.0290
     54 H           7.4114   -1.9284    0.1740 H       1  UNL1        0.0290
     55 H           3.8865    0.8790    2.5773 H       1  UNL1        0.0305
     56 H           3.1006   -0.5471    3.0869 H       1  UNL1        0.0305
     57 H           1.3755    1.0231    2.1375 H       1  UNL1        0.0465
     58 H           2.2819    1.2014    0.6782 H       1  UNL1        0.0465
@<TRIPOS>BOND
     1     1     2    2
     2     2     3    1
     3     2    21   am
     4     3     4   ar
     5     3    20   ar
     6     4     5   ar
     7     5     6   ar
     8     6     7   ar
     9     7     8    1
    10     7    20   ar
    11     8     9    1
    12     9    10   ar
    13     9    19   ar
    14    10    11   ar
    15    11    12   ar
    16    12    13    2
    17    12    14   ar
    18    14    15   ar
    19    14    19   ar
    20    15    16   ar
    21    16    17   ar
    22    17    18   ar
    23    18    19   ar
    24    21    22    1
    25    21    31    1
    26    22    23    1
    27    23    24    1
    28    24    25    1
    29    24    30    1
    30    25    26    1
    31    26    27    1
    32    26    29    1
    33    27    28    1
    34    28    29    1
    35    30    31    1
    36     4    32    1
    37     5    33    1
    38     6    34    1
    39     8    35    1
    40     8    36    1
    41    11    37    1
    42    15    38    1
    43    16    39    1
    44    17    40    1
    45    18    41    1
    46    20    42    1
    47    22    43    1
    48    22    44    1
    49    23    45    1
    50    23    46    1
    51    24    47    1
    52    26    48    1
    53    27    49    1
    54    27    50    1
    55    28    51    1
    56    28    52    1
    57    29    53    1
    58    29    54    1
    59    30    55    1
    60    30    56    1
    61    31    57    1
    62    31    58    1
@<TRIPOS>MOLECULE
../data/bude_mols_rdkit_confs/molecule_96.pdb
 58 62 0 0 0
SMALL
GASTEIGER

@<TRIPOS>ATOM
      1  O1        -0.2070    1.1960   -1.1110 O.2     1  UNL1       -0.2700
      2  C1         0.1440    0.3000   -0.2210 C.2     1  UNL1        0.2466
      3  C2        -0.9120   -0.5470    0.2950 C.ar    1  UNL1        0.0372
      4  C3        -0.8150   -1.2510    1.4500 C.ar    1  UNL1       -0.0496
      5  C4        -1.8660   -2.1070    1.8170 C.ar    1  UNL1       -0.0608
      6  C5        -2.9720   -2.2320    1.0310 C.ar    1  UNL1       -0.0582
      7  C6        -3.0700   -1.5020   -0.1580 C.ar    1  UNL1       -0.0408
      8  C7        -4.3350   -1.7420   -0.9640 C.3     1  UNL1        0.0171
      9  C8        -5.5280   -1.1800   -0.2850 C.ar    1  UNL1        0.0736
     10  N1        -6.2790   -2.0050    0.5210 N.ar    1  UNL1       -0.1750
     11  N2        -7.3110   -1.5590    1.1940 N.ar    1  UNL1       -0.2425
     12  C9        -7.6460   -0.2660    1.0960 C.ar    1  UNL1        0.2725
     13  O2        -8.6280    0.2260    1.7180 O.2     1  UNL1       -0.2658
     14  C10       -6.9360    0.6250    0.3000 C.ar    1  UNL1        0.0496
     15  C11       -7.2820    1.9360    0.1850 C.ar    1  UNL1       -0.0487
     16  C12       -6.5540    2.7800   -0.6320 C.ar    1  UNL1       -0.0610
     17  C13       -5.4730    2.2910   -1.3350 C.ar    1  UNL1       -0.0611
     18  C14       -5.0900    0.9440   -1.2370 C.ar    1  UNL1       -0.0521
     19  C15       -5.8400    0.1450   -0.4130 C.ar    1  UNL1        0.0106
     20  C16       -2.0710   -0.6890   -0.5090 C.ar    1  UNL1       -0.0461
     21  N3         1.4940    0.2730    0.1160 N.am    1  UNL1       -0.2974
     22  C17        2.1220   -0.6540    0.9690 C.3     1  UNL1        0.0173
     23  C18        3.5940   -0.9450    0.6620 C.3     1  UNL1       -0.0107
     24  C19        4.3460    0.1930    0.0780 C.3     1  UNL1        0.0619
     25  O3         5.5420   -0.2020   -0.4660 O.3     1  UNL1       -0.3732
     26  C20        6.6270    0.5430   -0.0460 C.3     1  UNL1        0.0591
     27  C21        7.7740   -0.2510    0.5410 C.3     1  UNL1       -0.0265
     28  C22        8.7200    0.6610   -0.2180 C.3     1  UNL1       -0.0484
     29  C23        7.5470    1.0570   -1.0920 C.3     1  UNL1       -0.0265
     30  C24        3.5180    0.7500   -1.1020 C.3     1  UNL1       -0.0107
     31  C25        2.3110    1.3600   -0.4490 C.3     1  UNL1        0.0173
     32 H           0.0192   -1.1590    2.0506 H       1  UNL1        0.0625
     33 H          -1.7999   -2.6483    2.6932 H       1  UNL1        0.0618
     34 H          -3.7369   -2.8649    1.3128 H       1  UNL1        0.0620
     35 H          -4.4715   -2.7956   -1.0910 H       1  UNL1        0.0377
     36 H          -4.2271   -1.2547   -1.9104 H       1  UNL1        0.0377
     37 H          -7.8339   -2.1671    1.7649 H       1  UNL1        0.1921
     38 H          -8.0916    2.3016    0.7102 H       1  UNL1        0.0625
     39 H          -6.8187    3.7739   -0.7158 H       1  UNL1        0.0618
     40 H          -4.9356    2.9272   -1.9445 H       1  UNL1        0.0618
     41 H          -4.2819    0.5726   -1.7606 H       1  UNL1        0.0624
     42 H          -2.1442   -0.1510   -1.3866 H       1  UNL1        0.0628
     43 H           1.5839   -1.5767    0.9055 H       1  UNL1        0.0465
     44 H           2.1084   -0.2111    1.9429 H       1  UNL1        0.0465
     45 H           3.6346   -1.7604   -0.0296 H       1  UNL1        0.0305
     46 H           4.0594   -1.1629    1.6005 H       1  UNL1        0.0305
     47 H           4.5204    0.9018    0.8603 H       1  UNL1        0.0597
     48 H           6.0605    1.2296    0.5478 H       1  UNL1        0.0596
     49 H           7.8061   -1.2767    0.2378 H       1  UNL1        0.0290
     50 H           7.8681   -0.4015    1.5962 H       1  UNL1        0.0290
     51 H           9.5082    0.1539   -0.7343 H       1  UNL1        0.0267
     52 H           9.3152    1.3938    0.2856 H       1  UNL1        0.0267
     53 H           7.4665    2.1088   -1.2713 H       1  UNL1        0.0290
     54 H           7.4750    0.7159   -2.1036 H       1  UNL1        0.0290
     55 H           3.2320   -0.0359   -1.7694 H       1  UNL1        0.0305
     56 H           4.0663    1.4555   -1.6907 H       1  UNL1        0.0305
     57 H           2.6185    2.0248    0.3310 H       1  UNL1        0.0465
     58 H           1.7431    1.9140   -1.1669 H       1  UNL1        0.0465
@<TRIPOS>BOND
     1     1     2    2
     2     2     3    1
     3     2    21   am
     4     3     4   ar
     5     3    20   ar
     6     4     5   ar
     7     5     6   ar
     8     6     7   ar
     9     7     8    1
    10     7    20   ar
    11     8     9    1
    12     9    10   ar
    13     9    19   ar
    14    10    11   ar
    15    11    12   ar
    16    12    13    2
    17    12    14   ar
    18    14    15   ar
    19    14    19   ar
    20    15    16   ar
    21    16    17   ar
    22    17    18   ar
    23    18    19   ar
    24    21    22    1
    25    21    31    1
    26    22    23    1
    27    23    24    1
    28    24    25    1
    29    24    30    1
    30    25    26    1
    31    26    27    1
    32    26    29    1
    33    27    28    1
    34    28    29    1
    35    30    31    1
    36     4    32    1
    37     5    33    1
    38     6    34    1
    39     8    35    1
    40     8    36    1
    41    11    37    1
    42    15    38    1
    43    16    39    1
    44    17    40    1
    45    18    41    1
    46    20    42    1
    47    22    43    1
    48    22    44    1
    49    23    45    1
    50    23    46    1
    51    24    47    1
    52    26    48    1
    53    27    49    1
    54    27    50    1
    55    28    51    1
    56    28    52    1
    57    29    53    1
    58    29    54    1
    59    30    55    1
    60    30    56    1
    61    31    57    1
    62    31    58    1
@<TRIPOS>MOLECULE
../data/bude_mols_rdkit_confs/molecule_96.pdb
 58 62 0 0 0
SMALL
GASTEIGER

@<TRIPOS>ATOM
      1  O1         0.3860   -1.9480   -1.7380 O.2     1  UNL1       -0.2700
      2  C1         0.5510   -1.1890   -0.6990 C.2     1  UNL1        0.2466
      3  C2        -0.4660   -1.2570    0.3070 C.ar    1  UNL1        0.0372
      4  C3        -0.2990   -0.8550    1.5950 C.ar    1  UNL1       -0.0496
      5  C4        -1.3490   -0.8730    2.5150 C.ar    1  UNL1       -0.0608
      6  C5        -2.5730   -1.3250    2.0510 C.ar    1  UNL1       -0.0582
      7  C6        -2.7720   -1.7350    0.7700 C.ar    1  UNL1       -0.0408
      8  C7        -4.1480   -2.1910    0.3460 C.3     1  UNL1        0.0171
      9  C8        -4.6650   -1.1820   -0.5720 C.ar    1  UNL1        0.0736
     10  N1        -4.4320   -1.3590   -1.9120 N.ar    1  UNL1       -0.1750
     11  N2        -4.7860   -0.4930   -2.8250 N.ar    1  UNL1       -0.2425
     12  C9        -5.4090    0.6340   -2.4690 C.ar    1  UNL1        0.2725
     13  O2        -5.7440    1.4570   -3.3370 O.2     1  UNL1       -0.2658
     14  C10       -5.6890    0.8990   -1.1370 C.ar    1  UNL1        0.0496
     15  C11       -6.3360    2.0210   -0.7310 C.ar    1  UNL1       -0.0487
     16  C12       -6.6130    2.2350    0.6100 C.ar    1  UNL1       -0.0610
     17  C13       -6.2420    1.3210    1.5620 C.ar    1  UNL1       -0.0611
     18  C14       -5.5730    0.1580    1.1590 C.ar    1  UNL1       -0.0521
     19  C15       -5.3010   -0.0450   -0.1750 C.ar    1  UNL1        0.0106
     20  C16       -1.7410   -1.7100   -0.1100 C.ar    1  UNL1       -0.0461
     21  N3         1.7130   -0.4020   -0.7110 N.am    1  UNL1       -0.2974
     22  C17        1.9830    0.5740    0.2890 C.3     1  UNL1        0.0173
     23  C18        2.6810    1.7980   -0.3310 C.3     1  UNL1       -0.0107
     24  C19        3.8900    1.2770   -1.0870 C.3     1  UNL1        0.0619
     25  O3         4.4910    0.3270   -0.2640 O.3     1  UNL1       -0.3732
     26  C20        5.7790    0.7140    0.0160 C.3     1  UNL1        0.0591
     27  C21        6.7990   -0.3750   -0.1690 C.3     1  UNL1       -0.0265
     28  C22        6.8540   -0.5360    1.3290 C.3     1  UNL1       -0.0484
     29  C23        5.9940    0.6860    1.5310 C.3     1  UNL1       -0.0265
     30  C24        3.3210    0.5340   -2.2870 C.3     1  UNL1       -0.0107
     31  C25        2.6720   -0.6930   -1.7610 C.3     1  UNL1        0.0173
     32 H           0.6304   -0.5272    1.9014 H       1  UNL1        0.0625
     33 H          -1.2195   -0.5650    3.4914 H       1  UNL1        0.0618
     34 H          -3.3695   -1.3518    2.7067 H       1  UNL1        0.0620
     35 H          -4.7875   -2.2737    1.1999 H       1  UNL1        0.0377
     36 H          -4.1050   -3.1509   -0.1248 H       1  UNL1        0.0377
     37 H          -4.5937   -0.6711   -3.7740 H       1  UNL1        0.1921
     38 H          -6.6253    2.7234   -1.4295 H       1  UNL1        0.0625
     39 H          -7.1059    3.0953    0.8962 H       1  UNL1        0.0618
     40 H          -6.4520    1.4869    2.5587 H       1  UNL1        0.0618
     41 H          -5.2854   -0.5435    1.8592 H       1  UNL1        0.0624
     42 H          -1.8854   -2.0210   -1.0834 H       1  UNL1        0.0628
     43 H           2.6184    0.1467    1.0364 H       1  UNL1        0.0465
     44 H           1.0585    0.8867    0.7277 H       1  UNL1        0.0465
     45 H           2.9908    2.4743    0.4382 H       1  UNL1        0.0305
     46 H           2.0190    2.3279   -0.9836 H       1  UNL1        0.0305
     47 H           4.5782    2.0472   -1.3666 H       1  UNL1        0.0597
     48 H           5.8826    1.6080   -0.5627 H       1  UNL1        0.0596
     49 H           7.7170   -0.0491   -0.6117 H       1  UNL1        0.0290
     50 H           6.6030   -1.2116   -0.8067 H       1  UNL1        0.0290
     51 H           7.8388   -0.4424    1.7368 H       1  UNL1        0.0267
     52 H           6.5638   -1.4658    1.7718 H       1  UNL1        0.0267
     53 H           5.1062    0.5156    2.1034 H       1  UNL1        0.0290
     54 H           6.3541    1.5427    2.0614 H       1  UNL1        0.0290
     55 H           4.1062    0.2738   -2.9657 H       1  UNL1        0.0305
     56 H           2.6197    1.1423   -2.8190 H       1  UNL1        0.0305
     57 H           2.1642   -1.1850   -2.5641 H       1  UNL1        0.0465
     58 H           3.4364   -1.3142   -1.3432 H       1  UNL1        0.0465
@<TRIPOS>BOND
     1     1     2    2
     2     2     3    1
     3     2    21   am
     4     3     4   ar
     5     3    20   ar
     6     4     5   ar
     7     5     6   ar
     8     6     7   ar
     9     7     8    1
    10     7    20   ar
    11     8     9    1
    12     9    10   ar
    13     9    19   ar
    14    10    11   ar
    15    11    12   ar
    16    12    13    2
    17    12    14   ar
    18    14    15   ar
    19    14    19   ar
    20    15    16   ar
    21    16    17   ar
    22    17    18   ar
    23    18    19   ar
    24    21    22    1
    25    21    31    1
    26    22    23    1
    27    23    24    1
    28    24    25    1
    29    24    30    1
    30    25    26    1
    31    26    27    1
    32    26    29    1
    33    27    28    1
    34    28    29    1
    35    30    31    1
    36     4    32    1
    37     5    33    1
    38     6    34    1
    39     8    35    1
    40     8    36    1
    41    11    37    1
    42    15    38    1
    43    16    39    1
    44    17    40    1
    45    18    41    1
    46    20    42    1
    47    22    43    1
    48    22    44    1
    49    23    45    1
    50    23    46    1
    51    24    47    1
    52    26    48    1
    53    27    49    1
    54    27    50    1
    55    28    51    1
    56    28    52    1
    57    29    53    1
    58    29    54    1
    59    30    55    1
    60    30    56    1
    61    31    57    1
    62    31    58    1
@<TRIPOS>MOLECULE
../data/bude_mols_rdkit_confs/molecule_96.pdb
 58 62 0 0 0
SMALL
GASTEIGER

@<TRIPOS>ATOM
      1  O1        -0.1040   -1.5300    0.8130 O.2     1  UNL1       -0.2700
      2  C1        -0.4920   -0.3350    0.4090 C.2     1  UNL1        0.2466
      3  C2         0.4340    0.3020   -0.4750 C.ar    1  UNL1        0.0372
      4  C3         0.1880    1.5050   -1.0790 C.ar    1  UNL1       -0.0496
      5  C4         1.1890    2.0520   -1.8930 C.ar    1  UNL1       -0.0608
      6  C5         2.4020    1.4380   -2.1110 C.ar    1  UNL1       -0.0582
      7  C6         2.6630    0.2280   -1.5120 C.ar    1  UNL1       -0.0408
      8  C7         3.9760   -0.5050   -1.6920 C.3     1  UNL1        0.0171
      9  C8         4.8500   -0.2750   -0.5250 C.ar    1  UNL1        0.0736
     10  N1         4.3400    0.0460    0.6780 N.ar    1  UNL1       -0.1750
     11  N2         5.1190    0.2570    1.7470 N.ar    1  UNL1       -0.2425
     12  C9         6.4520    0.1550    1.6620 C.ar    1  UNL1        0.2725
     13  O2         7.1600    0.3630    2.7010 O.2     1  UNL1       -0.2658
     14  C10        7.0470   -0.1720    0.4600 C.ar    1  UNL1        0.0496
     15  C11        8.4150   -0.2870    0.3510 C.ar    1  UNL1       -0.0487
     16  C12        9.0120   -0.6180   -0.8480 C.ar    1  UNL1       -0.0610
     17  C13        8.1850   -0.8270   -1.9200 C.ar    1  UNL1       -0.0611
     18  C14        6.8150   -0.7140   -1.8220 C.ar    1  UNL1       -0.0521
     19  C15        6.2060   -0.3860   -0.6410 C.ar    1  UNL1        0.0106
     20  C16        1.6850   -0.3060   -0.7160 C.ar    1  UNL1       -0.0461
     21  N3        -1.7240    0.0270    0.9490 N.am    1  UNL1       -0.2974
     22  C17       -2.3650    1.2790    0.6700 C.3     1  UNL1        0.0173
     23  C18       -3.7070    1.3520    1.4710 C.3     1  UNL1       -0.0107
     24  C19       -4.4450    0.0980    1.0590 C.3     1  UNL1        0.0619
     25  O3        -5.8110    0.2010    1.3330 O.3     1  UNL1       -0.3732
     26  C20       -6.5100   -0.0110    0.1700 C.3     1  UNL1        0.0591
     27  C21       -7.5240    1.0990   -0.1540 C.3     1  UNL1       -0.0265
     28  C22       -8.4170   -0.0280   -0.6860 C.3     1  UNL1       -0.0484
     29  C23       -7.7050   -0.9300    0.3150 C.3     1  UNL1       -0.0265
     30  C24       -3.8160   -1.0530    1.7910 C.3     1  UNL1       -0.0107
     31  C25       -2.3560   -0.9360    1.8580 C.3     1  UNL1        0.0173
     32 H          -0.7091    1.9955   -0.9390 H       1  UNL1        0.0625
     33 H           1.0083    2.9589   -2.3512 H       1  UNL1        0.0618
     34 H           3.1087    1.8817   -2.7182 H       1  UNL1        0.0620
     35 H           4.4630   -0.1468   -2.5748 H       1  UNL1        0.0377
     36 H           3.7820   -1.5533   -1.7828 H       1  UNL1        0.0377
     37 H           4.7052    0.4908    2.6092 H       1  UNL1        0.1921
     38 H           9.0047   -0.1225    1.1818 H       1  UNL1        0.0625
     39 H          10.0368   -0.7044   -0.9336 H       1  UNL1        0.0618
     40 H           8.6014   -1.0772   -2.8305 H       1  UNL1        0.0618
     41 H           6.2346   -0.8806   -2.6589 H       1  UNL1        0.0624
     42 H           1.8751   -1.2131   -0.2622 H       1  UNL1        0.0628
     43 H          -2.5679    1.3527   -0.3780 H       1  UNL1        0.0465
     44 H          -1.7254    2.0860    0.9607 H       1  UNL1        0.0465
     45 H          -4.2630    2.2262    1.2035 H       1  UNL1        0.0305
     46 H          -3.5538    1.4122    2.5283 H       1  UNL1        0.0305
     47 H          -4.3665   -0.0531    0.0026 H       1  UNL1        0.0597
     48 H          -5.6867   -0.2470   -0.4714 H       1  UNL1        0.0596
     49 H          -7.2014    1.8062   -0.8893 H       1  UNL1        0.0290
     50 H          -7.8597    1.8050    0.5766 H       1  UNL1        0.0290
     51 H          -8.2588   -0.2816   -1.7134 H       1  UNL1        0.0267
     52 H          -9.4830    0.0555   -0.7248 H       1  UNL1        0.0267
     53 H          -8.1411   -0.9476    1.2919 H       1  UNL1        0.0290
     54 H          -7.6283   -1.9876    0.1715 H       1  UNL1        0.0290
     55 H          -4.0659   -1.9615    1.2840 H       1  UNL1        0.0305
     56 H          -4.1919   -1.0497    2.7928 H       1  UNL1        0.0305
     57 H          -2.1001   -0.6527    2.8576 H       1  UNL1        0.0465
     58 H          -1.9856   -1.8921    1.5523 H       1  UNL1        0.0465
@<TRIPOS>BOND
     1     1     2    2
     2     2     3    1
     3     2    21   am
     4     3     4   ar
     5     3    20   ar
     6     4     5   ar
     7     5     6   ar
     8     6     7   ar
     9     7     8    1
    10     7    20   ar
    11     8     9    1
    12     9    10   ar
    13     9    19   ar
    14    10    11   ar
    15    11    12   ar
    16    12    13    2
    17    12    14   ar
    18    14    15   ar
    19    14    19   ar
    20    15    16   ar
    21    16    17   ar
    22    17    18   ar
    23    18    19   ar
    24    21    22    1
    25    21    31    1
    26    22    23    1
    27    23    24    1
    28    24    25    1
    29    24    30    1
    30    25    26    1
    31    26    27    1
    32    26    29    1
    33    27    28    1
    34    28    29    1
    35    30    31    1
    36     4    32    1
    37     5    33    1
    38     6    34    1
    39     8    35    1
    40     8    36    1
    41    11    37    1
    42    15    38    1
    43    16    39    1
    44    17    40    1
    45    18    41    1
    46    20    42    1
    47    22    43    1
    48    22    44    1
    49    23    45    1
    50    23    46    1
    51    24    47    1
    52    26    48    1
    53    27    49    1
    54    27    50    1
    55    28    51    1
    56    28    52    1
    57    29    53    1
    58    29    54    1
    59    30    55    1
    60    30    56    1
    61    31    57    1
    62    31    58    1
@<TRIPOS>MOLECULE
../data/bude_mols_rdkit_confs/molecule_96.pdb
 58 62 0 0 0
SMALL
GASTEIGER

@<TRIPOS>ATOM
      1  O1        -0.4960    0.4510   -2.6560 O.2     1  UNL1       -0.2700
      2  C1         0.1230   -0.4720   -1.9320 C.2     1  UNL1        0.2466
      3  C2        -0.7460   -1.2330   -1.0720 C.ar    1  UNL1        0.0372
      4  C3        -0.3260   -2.1860   -0.1920 C.ar    1  UNL1       -0.0496
      5  C4        -1.2090   -2.9220    0.6250 C.ar    1  UNL1       -0.0608
      6  C5        -2.5450   -2.7040    0.5670 C.ar    1  UNL1       -0.0582
      7  C6        -3.0100   -1.7300   -0.3270 C.ar    1  UNL1       -0.0408
      8  C7        -4.4620   -1.5010   -0.4380 C.3     1  UNL1        0.0171
      9  C8        -5.1190   -0.9530    0.7500 C.ar    1  UNL1        0.0736
     10  N1        -5.7370   -1.7750    1.6440 N.ar    1  UNL1       -0.1750
     11  N2        -6.2910   -1.3030    2.7290 N.ar    1  UNL1       -0.2425
     12  C9        -6.2890    0.0050    3.0300 C.ar    1  UNL1        0.2725
     13  O2        -6.8090    0.4990    4.0630 O.2     1  UNL1       -0.2658
     14  C10       -5.6800    0.8990    2.1670 C.ar    1  UNL1        0.0496
     15  C11       -5.6640    2.2350    2.4240 C.ar    1  UNL1       -0.0487
     16  C12       -5.0740    3.1690    1.5710 C.ar    1  UNL1       -0.0610
     17  C13       -4.4880    2.6820    0.4220 C.ar    1  UNL1       -0.0611
     18  C14       -4.5030    1.3290    0.1610 C.ar    1  UNL1       -0.0521
     19  C15       -5.0940    0.3860    1.0160 C.ar    1  UNL1        0.0106
     20  C16       -2.1420   -1.0300   -1.1090 C.ar    1  UNL1       -0.0461
     21  N3         1.4830   -0.5030   -2.1650 N.am    1  UNL1       -0.2974
     22  C17        2.4240   -1.3940   -1.5590 C.3     1  UNL1        0.0173
     23  C18        3.8440   -1.1470   -2.1190 C.3     1  UNL1       -0.0107
     24  C19        4.2570    0.3050   -1.8710 C.3     1  UNL1        0.0619
     25  O3         4.3310    0.4450   -0.4930 O.3     1  UNL1       -0.3732
     26  C20        5.5780    0.8280   -0.0560 C.3     1  UNL1        0.0591
     27  C21        6.2040   -0.0080    1.0410 C.3     1  UNL1       -0.0265
     28  C22        6.5160    1.2550    1.8360 C.3     1  UNL1       -0.0484
     29  C23        5.4940    1.9530    0.9440 C.3     1  UNL1       -0.0265
     30  C24        3.1940    1.2400   -2.3970 C.3     1  UNL1       -0.0107
     31  C25        2.1060    0.4590   -3.1190 C.3     1  UNL1        0.0173
     32 H           0.6855   -2.3777   -0.1204 H       1  UNL1        0.0625
     33 H          -0.8343   -3.6328    1.2726 H       1  UNL1        0.0618
     34 H          -3.1985   -3.2375    1.1614 H       1  UNL1        0.0620
     35 H          -4.9247   -2.4388   -0.6645 H       1  UNL1        0.0377
     36 H          -4.5791   -0.7590   -1.1999 H       1  UNL1        0.0377
     37 H          -6.7267   -1.9309    3.3497 H       1  UNL1        0.1921
     38 H          -6.1094    2.5739    3.2911 H       1  UNL1        0.0625
     39 H          -5.0763    4.1774    1.7902 H       1  UNL1        0.0618
     40 H          -4.0381    3.3307   -0.2426 H       1  UNL1        0.0618
     41 H          -4.0573    0.9923   -0.7067 H       1  UNL1        0.0624
     42 H          -2.5213   -0.3211   -1.7560 H       1  UNL1        0.0628
     43 H           2.1354   -2.4036   -1.7646 H       1  UNL1        0.0465
     44 H           2.4339   -1.2202   -0.5033 H       1  UNL1        0.0465
     45 H           3.8493   -1.3425   -3.1710 H       1  UNL1        0.0305
     46 H           4.5350   -1.7986   -1.6262 H       1  UNL1        0.0305
     47 H           5.1822    0.5353   -2.3566 H       1  UNL1        0.0597
     48 H           6.0652    0.9026   -1.0057 H       1  UNL1        0.0596
     49 H           7.0710   -0.5537    0.7320 H       1  UNL1        0.0290
     50 H           5.6522   -0.8062    1.4919 H       1  UNL1        0.0290
     51 H           7.5194    1.6132    1.7369 H       1  UNL1        0.0267
     52 H           6.4597    1.2872    2.9040 H       1  UNL1        0.0267
     53 H           4.5292    2.0645    1.3930 H       1  UNL1        0.0290
     54 H           5.6558    2.9632    0.6307 H       1  UNL1        0.0290
     55 H           3.6410    1.9332   -3.0786 H       1  UNL1        0.0305
     56 H           2.7552    1.7630   -1.5731 H       1  UNL1        0.0305
     57 H           1.3613    1.1352   -3.4839 H       1  UNL1        0.0465
     58 H           2.5311   -0.0743   -3.9435 H       1  UNL1        0.0465
@<TRIPOS>BOND
     1     1     2    2
     2     2     3    1
     3     2    21   am
     4     3     4   ar
     5     3    20   ar
     6     4     5   ar
     7     5     6   ar
     8     6     7   ar
     9     7     8    1
    10     7    20   ar
    11     8     9    1
    12     9    10   ar
    13     9    19   ar
    14    10    11   ar
    15    11    12   ar
    16    12    13    2
    17    12    14   ar
    18    14    15   ar
    19    14    19   ar
    20    15    16   ar
    21    16    17   ar
    22    17    18   ar
    23    18    19   ar
    24    21    22    1
    25    21    31    1
    26    22    23    1
    27    23    24    1
    28    24    25    1
    29    24    30    1
    30    25    26    1
    31    26    27    1
    32    26    29    1
    33    27    28    1
    34    28    29    1
    35    30    31    1
    36     4    32    1
    37     5    33    1
    38     6    34    1
    39     8    35    1
    40     8    36    1
    41    11    37    1
    42    15    38    1
    43    16    39    1
    44    17    40    1
    45    18    41    1
    46    20    42    1
    47    22    43    1
    48    22    44    1
    49    23    45    1
    50    23    46    1
    51    24    47    1
    52    26    48    1
    53    27    49    1
    54    27    50    1
    55    28    51    1
    56    28    52    1
    57    29    53    1
    58    29    54    1
    59    30    55    1
    60    30    56    1
    61    31    57    1
    62    31    58    1
@<TRIPOS>MOLECULE
../data/bude_mols_rdkit_confs/molecule_96.pdb
 58 62 0 0 0
SMALL
GASTEIGER

@<TRIPOS>ATOM
      1  O1        -0.2960    1.6790    0.4870 O.2     1  UNL1       -0.2700
      2  C1        -0.3340    0.7340   -0.4120 C.2     1  UNL1        0.2466
      3  C2         0.7260   -0.2380   -0.3690 C.ar    1  UNL1        0.0372
      4  C3         1.0020   -1.2060   -1.2900 C.ar    1  UNL1       -0.0496
      5  C4         2.0560   -2.1120   -1.0720 C.ar    1  UNL1       -0.0608
      6  C5         2.8380   -2.0630    0.0520 C.ar    1  UNL1       -0.0582
      7  C6         2.5880   -1.1020    0.9970 C.ar    1  UNL1       -0.0408
      8  C7         3.3970   -0.9580    2.2660 C.3     1  UNL1        0.0171
      9  C8         4.1880    0.2650    2.3080 C.ar    1  UNL1        0.0736
     10  N1         3.7040    1.3340    2.9930 N.ar    1  UNL1       -0.1750
     11  N2         4.3730    2.4740    3.0350 N.ar    1  UNL1       -0.2425
     12  C9         5.5450    2.6560    2.4250 C.ar    1  UNL1        0.2725
     13  O2         6.1860    3.7400    2.4620 O.2     1  UNL1       -0.2658
     14  C10        6.0930    1.6160    1.7150 C.ar    1  UNL1        0.0496
     15  C11        7.2960    1.7530    1.0800 C.ar    1  UNL1       -0.0487
     16  C12        7.8640    0.7150    0.3720 C.ar    1  UNL1       -0.0610
     17  C13        7.1950   -0.4780    0.3110 C.ar    1  UNL1       -0.0611
     18  C14        5.9820   -0.5980    0.9580 C.ar    1  UNL1       -0.0521
     19  C15        5.3810    0.4050    1.6710 C.ar    1  UNL1        0.0106
     20  C16        1.5510   -0.2320    0.7560 C.ar    1  UNL1       -0.0461
     21  N3        -1.4130    0.8310   -1.2710 N.am    1  UNL1       -0.2974
     22  C17       -2.3450    1.9830   -1.1170 C.3     1  UNL1        0.0173
     23  C18       -3.7350    1.5170   -0.8040 C.3     1  UNL1       -0.0107
     24  C19       -3.9810    0.1110   -1.3850 C.3     1  UNL1        0.0619
     25  O3        -5.3280   -0.0330   -1.5070 O.3     1  UNL1       -0.3732
     26  C20       -5.9250   -0.9880   -0.7340 C.3     1  UNL1        0.0591
     27  C21       -6.7870   -2.0170   -1.3510 C.3     1  UNL1       -0.0265
     28  C22       -8.0000   -1.3700   -0.7190 C.3     1  UNL1       -0.0484
     29  C23       -7.0560   -0.5640    0.1430 C.3     1  UNL1       -0.0265
     30  C24       -3.2100    0.0950   -2.6850 C.3     1  UNL1       -0.0107
     31  C25       -1.7270   -0.1420   -2.2890 C.3     1  UNL1        0.0173
     32 H           0.4354   -1.2739   -2.1499 H       1  UNL1        0.0625
     33 H           2.2463   -2.8368   -1.7815 H       1  UNL1        0.0618
     34 H           3.6049   -2.7405    0.1854 H       1  UNL1        0.0620
     35 H           4.0599   -1.7943    2.3432 H       1  UNL1        0.0377
     36 H           2.7048   -0.9166    3.0809 H       1  UNL1        0.0377
     37 H           3.9871    3.2250    3.5413 H       1  UNL1        0.1921
     38 H           7.7918    2.6566    1.1319 H       1  UNL1        0.0625
     39 H           8.7732    0.8347   -0.1014 H       1  UNL1        0.0618
     40 H           7.5917   -1.2751   -0.2107 H       1  UNL1        0.0618
     41 H           5.4944   -1.5057    0.9006 H       1  UNL1        0.0624
     42 H           1.3666    0.4894    1.4706 H       1  UNL1        0.0628
     43 H          -2.3615    2.5430   -2.0286 H       1  UNL1        0.0465
     44 H          -2.0009    2.5915   -0.3069 H       1  UNL1        0.0465
     45 H          -4.4391    2.2012   -1.2295 H       1  UNL1        0.0305
     46 H          -3.8534    1.4760    0.2586 H       1  UNL1        0.0305
     47 H          -3.6485   -0.7145   -0.7910 H       1  UNL1        0.0597
     48 H          -4.9838   -1.2864   -0.3218 H       1  UNL1        0.0596
     49 H          -6.5937   -3.0124   -1.0093 H       1  UNL1        0.0290
     50 H          -6.7527   -2.1941   -2.4057 H       1  UNL1        0.0290
     51 H          -8.6311   -2.0432   -0.1773 H       1  UNL1        0.0267
     52 H          -8.7543   -0.8980   -1.3132 H       1  UNL1        0.0267
     53 H          -7.2460    0.4890    0.1374 H       1  UNL1        0.0290
     54 H          -7.0155   -0.7157    1.2014 H       1  UNL1        0.0290
     55 H          -3.3158    1.0305   -3.1934 H       1  UNL1        0.0305
     56 H          -3.5686   -0.6642   -3.3483 H       1  UNL1        0.0305
     57 H          -1.6011   -1.1326   -1.9046 H       1  UNL1        0.0465
     58 H          -1.0799   -0.0388   -3.1349 H       1  UNL1        0.0465
@<TRIPOS>BOND
     1     1     2    2
     2     2     3    1
     3     2    21   am
     4     3     4   ar
     5     3    20   ar
     6     4     5   ar
     7     5     6   ar
     8     6     7   ar
     9     7     8    1
    10     7    20   ar
    11     8     9    1
    12     9    10   ar
    13     9    19   ar
    14    10    11   ar
    15    11    12   ar
    16    12    13    2
    17    12    14   ar
    18    14    15   ar
    19    14    19   ar
    20    15    16   ar
    21    16    17   ar
    22    17    18   ar
    23    18    19   ar
    24    21    22    1
    25    21    31    1
    26    22    23    1
    27    23    24    1
    28    24    25    1
    29    24    30    1
    30    25    26    1
    31    26    27    1
    32    26    29    1
    33    27    28    1
    34    28    29    1
    35    30    31    1
    36     4    32    1
    37     5    33    1
    38     6    34    1
    39     8    35    1
    40     8    36    1
    41    11    37    1
    42    15    38    1
    43    16    39    1
    44    17    40    1
    45    18    41    1
    46    20    42    1
    47    22    43    1
    48    22    44    1
    49    23    45    1
    50    23    46    1
    51    24    47    1
    52    26    48    1
    53    27    49    1
    54    27    50    1
    55    28    51    1
    56    28    52    1
    57    29    53    1
    58    29    54    1
    59    30    55    1
    60    30    56    1
    61    31    57    1
    62    31    58    1
@<TRIPOS>MOLECULE
../data/bude_mols_rdkit_confs/molecule_96.pdb
 58 62 0 0 0
SMALL
GASTEIGER

@<TRIPOS>ATOM
      1  O1        -0.3290   -1.6270   -0.1930 O.2     1  UNL1       -0.2700
      2  C1         0.1800   -0.4170   -0.3720 C.2     1  UNL1        0.2466
      3  C2        -0.8260    0.5440   -0.7700 C.ar    1  UNL1        0.0372
      4  C3        -0.6120    1.9010   -0.7320 C.ar    1  UNL1       -0.0496
      5  C4        -1.6100    2.7610   -1.2040 C.ar    1  UNL1       -0.0608
      6  C5        -2.7860    2.2650   -1.6960 C.ar    1  UNL1       -0.0582
      7  C6        -3.0110    0.8830   -1.7360 C.ar    1  UNL1       -0.0408
      8  C7        -4.3030    0.4410   -2.3050 C.3     1  UNL1        0.0171
      9  C8        -5.4610    0.6880   -1.4110 C.ar    1  UNL1        0.0736
     10  N1        -6.1840    1.8220   -1.6480 N.ar    1  UNL1       -0.1750
     11  N2        -7.1950    2.1570   -0.9030 N.ar    1  UNL1       -0.2425
     12  C9        -7.5950    1.4120    0.1450 C.ar    1  UNL1        0.2725
     13  O2        -8.5860    1.7580    0.8610 O.2     1  UNL1       -0.2658
     14  C10       -6.9300    0.2610    0.4530 C.ar    1  UNL1        0.0496
     15  C11       -7.3110   -0.5360    1.5110 C.ar    1  UNL1       -0.0487
     16  C12       -6.6310   -1.6870    1.7870 C.ar    1  UNL1       -0.0610
     17  C13       -5.5650   -2.0360    0.9940 C.ar    1  UNL1       -0.0611
     18  C14       -5.1850   -1.2330   -0.0670 C.ar    1  UNL1       -0.0521
     19  C15       -5.8470   -0.0770   -0.3620 C.ar    1  UNL1        0.0106
     20  C16       -2.0410    0.0430   -1.2790 C.ar    1  UNL1       -0.0461
     21  N3         1.5600   -0.2930   -0.1530 N.am    1  UNL1       -0.2974
     22  C17        2.2950    0.8980   -0.3470 C.3     1  UNL1        0.0173
     23  C18        3.7810    0.7010   -0.6270 C.3     1  UNL1       -0.0107
     24  C19        4.3640   -0.4820    0.0580 C.3     1  UNL1        0.0619
     25  O3         5.6880   -0.6410   -0.2610 O.3     1  UNL1       -0.3732
     26  C20        6.4380   -0.6200    0.9120 C.3     1  UNL1        0.0591
     27  C21        7.6160    0.3360    0.8460 C.3     1  UNL1       -0.0265
     28  C22        8.5610   -0.7810    1.1560 C.3     1  UNL1       -0.0484
     29  C23        7.4100   -1.7750    1.0520 C.3     1  UNL1       -0.0265
     30  C24        3.5250   -1.6790   -0.4240 C.3     1  UNL1       -0.0107
     31  C25        2.2230   -1.5280    0.3300 C.3     1  UNL1        0.0173
     32 H           0.2727    2.2807   -0.3604 H       1  UNL1        0.0625
     33 H          -1.4569    3.7813   -1.1806 H       1  UNL1        0.0618
     34 H          -3.5119    2.9129   -2.0398 H       1  UNL1        0.0620
     35 H          -4.2448   -0.6093   -2.5009 H       1  UNL1        0.0377
     36 H          -4.4660    1.0124   -3.1949 H       1  UNL1        0.0377
     37 H          -7.6856    2.9845   -1.1123 H       1  UNL1        0.1921
     38 H          -8.1144   -0.2612    2.0975 H       1  UNL1        0.0625
     39 H          -6.9133   -2.2855    2.5789 H       1  UNL1        0.0618
     40 H          -5.0432   -2.9043    1.1911 H       1  UNL1        0.0618
     41 H          -4.3812   -1.5154   -0.6494 H       1  UNL1        0.0624
     42 H          -2.1983   -0.9766   -1.3059 H       1  UNL1        0.0628
     43 H           2.2001    1.4941    0.5365 H       1  UNL1        0.0465
     44 H           1.8857    1.3627   -1.2196 H       1  UNL1        0.0465
     45 H           4.3056    1.5741   -0.2994 H       1  UNL1        0.0305
     46 H           3.8827    0.5359   -1.6793 H       1  UNL1        0.0305
     47 H           4.3341   -0.3788    1.1226 H       1  UNL1        0.0597
     48 H           5.6502   -0.4878    1.6238 H       1  UNL1        0.0596
     49 H           7.5936    1.1051    1.5896 H       1  UNL1        0.0290
     50 H           7.7676    0.9407   -0.0236 H       1  UNL1        0.0290
     51 H           9.0030   -0.7232    2.1287 H       1  UNL1        0.0267
     52 H           9.4506   -0.9169    0.5772 H       1  UNL1        0.0267
     53 H           7.4584   -2.4134    0.1947 H       1  UNL1        0.0290
     54 H           7.2647   -2.5209    1.8053 H       1  UNL1        0.0290
     55 H           4.0033   -2.6042   -0.1787 H       1  UNL1        0.0305
     56 H           3.3913   -1.6922   -1.4855 H       1  UNL1        0.0305
     57 H           1.5950   -2.3744    0.1451 H       1  UNL1        0.0465
     58 H           2.4056   -1.4669    1.3825 H       1  UNL1        0.0465
@<TRIPOS>BOND
     1     1     2    2
     2     2     3    1
     3     2    21   am
     4     3     4   ar
     5     3    20   ar
     6     4     5   ar
     7     5     6   ar
     8     6     7   ar
     9     7     8    1
    10     7    20   ar
    11     8     9    1
    12     9    10   ar
    13     9    19   ar
    14    10    11   ar
    15    11    12   ar
    16    12    13    2
    17    12    14   ar
    18    14    15   ar
    19    14    19   ar
    20    15    16   ar
    21    16    17   ar
    22    17    18   ar
    23    18    19   ar
    24    21    22    1
    25    21    31    1
    26    22    23    1
    27    23    24    1
    28    24    25    1
    29    24    30    1
    30    25    26    1
    31    26    27    1
    32    26    29    1
    33    27    28    1
    34    28    29    1
    35    30    31    1
    36     4    32    1
    37     5    33    1
    38     6    34    1
    39     8    35    1
    40     8    36    1
    41    11    37    1
    42    15    38    1
    43    16    39    1
    44    17    40    1
    45    18    41    1
    46    20    42    1
    47    22    43    1
    48    22    44    1
    49    23    45    1
    50    23    46    1
    51    24    47    1
    52    26    48    1
    53    27    49    1
    54    27    50    1
    55    28    51    1
    56    28    52    1
    57    29    53    1
    58    29    54    1
    59    30    55    1
    60    30    56    1
    61    31    57    1
    62    31    58    1
@<TRIPOS>MOLECULE
../data/bude_mols_rdkit_confs/molecule_96.pdb
 58 62 0 0 0
SMALL
GASTEIGER

@<TRIPOS>ATOM
      1  O1        -0.0160   -1.1020   -1.3860 O.2     1  UNL1       -0.2700
      2  C1        -0.2890   -0.0720   -0.6120 C.2     1  UNL1        0.2466
      3  C2         0.8310    0.8350   -0.4850 C.ar    1  UNL1        0.0372
      4  C3         0.8190    1.9900    0.2600 C.ar    1  UNL1       -0.0496
      5  C4         1.9540    2.7920    0.3140 C.ar    1  UNL1       -0.0608
      6  C5         3.1190    2.4900   -0.3520 C.ar    1  UNL1       -0.0582
      7  C6         3.1580    1.3480   -1.0990 C.ar    1  UNL1       -0.0408
      8  C7         4.3940    0.9300   -1.8510 C.3     1  UNL1        0.0171
      9  C8         5.0780   -0.2210   -1.2570 C.ar    1  UNL1        0.0736
     10  N1         4.8070   -1.4690   -1.7680 N.ar    1  UNL1       -0.1750
     11  N2         5.3350   -2.5700   -1.2800 N.ar    1  UNL1       -0.2425
     12  C9         6.1820   -2.5990   -0.2500 C.ar    1  UNL1        0.2725
     13  O2         6.6830   -3.6640    0.2090 O.2     1  UNL1       -0.2658
     14  C10        6.5110   -1.3900    0.3230 C.ar    1  UNL1        0.0496
     15  C11        7.3910   -1.3460    1.3850 C.ar    1  UNL1       -0.0487
     16  C12        7.7190   -0.1290    1.9400 C.ar    1  UNL1       -0.0610
     17  C13        7.1580    1.0260    1.4170 C.ar    1  UNL1       -0.0611
     18  C14        6.2820    0.9860    0.3610 C.ar    1  UNL1       -0.0521
     19  C15        5.9450   -0.2230   -0.2010 C.ar    1  UNL1        0.0106
     20  C16        2.0240    0.5580   -1.1460 C.ar    1  UNL1       -0.0461
     21  N3        -1.5590   -0.0420   -0.0740 N.am    1  UNL1       -0.2974
     22  C17       -2.4730   -1.1570   -0.4200 C.3     1  UNL1        0.0173
     23  C18       -3.6680   -0.4860   -1.0720 C.3     1  UNL1       -0.0107
     24  C19       -4.4280    0.2250    0.0320 C.3     1  UNL1        0.0619
     25  O3        -5.4770   -0.6170    0.3810 O.3     1  UNL1       -0.3732
     26  C20       -6.7200   -0.1010    0.0770 C.3     1  UNL1        0.0591
     27  C21       -7.5960   -0.1410    1.3150 C.3     1  UNL1       -0.0265
     28  C22       -8.1980   -1.4330    0.7520 C.3     1  UNL1       -0.0484
     29  C23       -7.6970   -1.0150   -0.5910 C.3     1  UNL1       -0.0265
     30  C24       -3.5540    0.5000    1.2140 C.3     1  UNL1       -0.0107
     31  C25       -2.1270    0.9320    0.7860 C.3     1  UNL1        0.0173
     32 H          -0.0309    2.2617    0.7785 H       1  UNL1        0.0625
     33 H           1.9205    3.6541    0.8803 H       1  UNL1        0.0618
     34 H           3.9415    3.1101   -0.2887 H       1  UNL1        0.0620
     35 H           5.0744    1.7556   -1.8699 H       1  UNL1        0.0377
     36 H           4.0820    0.6388   -2.8322 H       1  UNL1        0.0377
     37 H           5.0900   -3.4257   -1.7008 H       1  UNL1        0.1921
     38 H           7.7994   -2.2166    1.7597 H       1  UNL1        0.0625
     39 H           8.3744   -0.0774    2.7355 H       1  UNL1        0.0618
     40 H           7.4051    1.9381    1.8318 H       1  UNL1        0.0618
     41 H           5.8777    1.8601   -0.0099 H       1  UNL1        0.0624
     42 H           2.0655   -0.3023   -1.7144 H       1  UNL1        0.0628
     43 H          -2.7715   -1.6874    0.4600 H       1  UNL1        0.0465
     44 H          -2.0103   -1.8753   -1.0640 H       1  UNL1        0.0465
     45 H          -4.2937   -1.2190   -1.5369 H       1  UNL1        0.0305
     46 H          -3.3558    0.2033   -1.8285 H       1  UNL1        0.0305
     47 H          -4.7814    1.1775   -0.3037 H       1  UNL1        0.0597
     48 H          -6.4298    0.7888   -0.4417 H       1  UNL1        0.0596
     49 H          -8.2849    0.6730    1.4025 H       1  UNL1        0.0290
     50 H          -7.1847   -0.0909    2.3015 H       1  UNL1        0.0290
     51 H          -9.2632   -1.4980    0.8290 H       1  UNL1        0.0267
     52 H          -7.9574   -2.3897    1.1664 H       1  UNL1        0.0267
     53 H          -7.2454   -1.8033   -1.1563 H       1  UNL1        0.0290
     54 H          -8.3707   -0.6458   -1.3358 H       1  UNL1        0.0290
     55 H          -3.4840   -0.3878    1.8072 H       1  UNL1        0.0305
     56 H          -3.9912    1.3014    1.7721 H       1  UNL1        0.0305
     57 H          -2.1803    1.8692    0.2725 H       1  UNL1        0.0465
     58 H          -1.5145    1.0283    1.6581 H       1  UNL1        0.0465
@<TRIPOS>BOND
     1     1     2    2
     2     2     3    1
     3     2    21   am
     4     3     4   ar
     5     3    20   ar
     6     4     5   ar
     7     5     6   ar
     8     6     7   ar
     9     7     8    1
    10     7    20   ar
    11     8     9    1
    12     9    10   ar
    13     9    19   ar
    14    10    11   ar
    15    11    12   ar
    16    12    13    2
    17    12    14   ar
    18    14    15   ar
    19    14    19   ar
    20    15    16   ar
    21    16    17   ar
    22    17    18   ar
    23    18    19   ar
    24    21    22    1
    25    21    31    1
    26    22    23    1
    27    23    24    1
    28    24    25    1
    29    24    30    1
    30    25    26    1
    31    26    27    1
    32    26    29    1
    33    27    28    1
    34    28    29    1
    35    30    31    1
    36     4    32    1
    37     5    33    1
    38     6    34    1
    39     8    35    1
    40     8    36    1
    41    11    37    1
    42    15    38    1
    43    16    39    1
    44    17    40    1
    45    18    41    1
    46    20    42    1
    47    22    43    1
    48    22    44    1
    49    23    45    1
    50    23    46    1
    51    24    47    1
    52    26    48    1
    53    27    49    1
    54    27    50    1
    55    28    51    1
    56    28    52    1
    57    29    53    1
    58    29    54    1
    59    30    55    1
    60    30    56    1
    61    31    57    1
    62    31    58    1
@<TRIPOS>MOLECULE
../data/bude_mols_rdkit_confs/molecule_96.pdb
 58 62 0 0 0
SMALL
GASTEIGER

@<TRIPOS>ATOM
      1  O1         0.0830    0.1360   -1.9200 O.2     1  UNL1       -0.2700
      2  C1         0.3890    0.3480   -0.6700 C.2     1  UNL1        0.2466
      3  C2        -0.7000    0.6270    0.2230 C.ar    1  UNL1        0.0372
      4  C3        -0.6610    0.5910    1.5980 C.ar    1  UNL1       -0.0496
      5  C4        -1.7510    0.9590    2.3870 C.ar    1  UNL1       -0.0608
      6  C5        -2.9180    1.3740    1.7510 C.ar    1  UNL1       -0.0582
      7  C6        -3.0250    1.4300    0.4040 C.ar    1  UNL1       -0.0408
      8  C7        -4.2160    1.8440   -0.3360 C.3     1  UNL1        0.0171
      9  C8        -4.9890    0.7420   -0.9700 C.ar    1  UNL1        0.0736
     10  N1        -4.7250    0.4060   -2.2410 N.ar    1  UNL1       -0.1750
     11  N2        -5.3330   -0.5910   -2.8170 N.ar    1  UNL1       -0.2425
     12  C9        -6.2500   -1.3300   -2.1690 C.ar    1  UNL1        0.2725
     13  O2        -6.8430   -2.2980   -2.7180 O.2     1  UNL1       -0.2658
     14  C10       -6.5700   -1.0430   -0.8710 C.ar    1  UNL1        0.0496
     15  C11       -7.5220   -1.7690   -0.1770 C.ar    1  UNL1       -0.0487
     16  C12       -7.8230   -1.4290    1.1230 C.ar    1  UNL1       -0.0610
     17  C13       -7.1910   -0.3720    1.7490 C.ar    1  UNL1       -0.0611
     18  C14       -6.2430    0.3540    1.0650 C.ar    1  UNL1       -0.0521
     19  C15       -5.9120    0.0310   -0.2610 C.ar    1  UNL1        0.0106
     20  C16       -1.9230    1.0600   -0.3310 C.ar    1  UNL1       -0.0461
     21  N3         1.7730    0.2630   -0.4110 N.am    1  UNL1       -0.2974
     22  C17        2.6650   -0.1370   -1.5170 C.3     1  UNL1        0.0173
     23  C18        3.8820    0.7060   -1.6400 C.3     1  UNL1       -0.0107
     24  C19        4.6150    0.7670   -0.2980 C.3     1  UNL1        0.0619
     25  O3         5.2160   -0.4300    0.0040 O.3     1  UNL1       -0.3732
     26  C20        6.5990   -0.3840    0.0440 C.3     1  UNL1        0.0591
     27  C21        7.2950   -1.1260    1.1290 C.3     1  UNL1       -0.0265
     28  C22        7.4160   -2.3190    0.2070 C.3     1  UNL1       -0.0484
     29  C23        7.1570   -1.3870   -0.9550 C.3     1  UNL1       -0.0265
     30  C24        3.7040    1.1850    0.7880 C.3     1  UNL1       -0.0107
     31  C25        2.3380    0.5960    0.8490 C.3     1  UNL1        0.0173
     32 H           0.2065    0.2803    2.0626 H       1  UNL1        0.0625
     33 H          -1.6938    0.9245    3.4168 H       1  UNL1        0.0618
     34 H          -3.7291    1.6482    2.3272 H       1  UNL1        0.0620
     35 H          -3.9073    2.5173   -1.1082 H       1  UNL1        0.0377
     36 H          -4.8714    2.2870    0.3845 H       1  UNL1        0.0377
     37 H          -5.1153   -0.8094   -3.7520 H       1  UNL1        0.1921
     38 H          -8.0036   -2.5607   -0.6311 H       1  UNL1        0.0625
     39 H          -8.5326   -1.9729    1.6383 H       1  UNL1        0.0618
     40 H          -7.4283   -0.1284    2.7234 H       1  UNL1        0.0618
     41 H          -5.7704    1.1441    1.5313 H       1  UNL1        0.0624
     42 H          -1.9959    1.1021   -1.3596 H       1  UNL1        0.0628
     43 H           2.1161   -0.0729   -2.4332 H       1  UNL1        0.0465
     44 H           2.9954   -1.1327   -1.3066 H       1  UNL1        0.0465
     45 H           3.5995    1.6951   -1.9346 H       1  UNL1        0.0305
     46 H           4.5315    0.2795   -2.3756 H       1  UNL1        0.0305
     47 H           5.3856    1.5037   -0.3892 H       1  UNL1        0.0597
     48 H           6.7452    0.6752    0.0048 H       1  UNL1        0.0596
     49 H           6.6949   -1.3005    1.9975 H       1  UNL1        0.0290
     50 H           8.1581   -0.7140    1.6087 H       1  UNL1        0.0290
     51 H           6.6658   -3.0684    0.3504 H       1  UNL1        0.0267
     52 H           8.2759   -2.9553    0.2296 H       1  UNL1        0.0267
     53 H           8.0375   -1.0606   -1.4679 H       1  UNL1        0.0290
     54 H           6.5914   -1.7004   -1.8075 H       1  UNL1        0.0290
     55 H           3.5853    2.2453    0.7074 H       1  UNL1        0.0305
     56 H           4.1796    0.8242    1.6760 H       1  UNL1        0.0305
     57 H           2.3868   -0.2963    1.4375 H       1  UNL1        0.0465
     58 H           1.7056    1.3485    1.2718 H       1  UNL1        0.0465
@<TRIPOS>BOND
     1     1     2    2
     2     2     3    1
     3     2    21   am
     4     3     4   ar
     5     3    20   ar
     6     4     5   ar
     7     5     6   ar
     8     6     7   ar
     9     7     8    1
    10     7    20   ar
    11     8     9    1
    12     9    10   ar
    13     9    19   ar
    14    10    11   ar
    15    11    12   ar
    16    12    13    2
    17    12    14   ar
    18    14    15   ar
    19    14    19   ar
    20    15    16   ar
    21    16    17   ar
    22    17    18   ar
    23    18    19   ar
    24    21    22    1
    25    21    31    1
    26    22    23    1
    27    23    24    1
    28    24    25    1
    29    24    30    1
    30    25    26    1
    31    26    27    1
    32    26    29    1
    33    27    28    1
    34    28    29    1
    35    30    31    1
    36     4    32    1
    37     5    33    1
    38     6    34    1
    39     8    35    1
    40     8    36    1
    41    11    37    1
    42    15    38    1
    43    16    39    1
    44    17    40    1
    45    18    41    1
    46    20    42    1
    47    22    43    1
    48    22    44    1
    49    23    45    1
    50    23    46    1
    51    24    47    1
    52    26    48    1
    53    27    49    1
    54    27    50    1
    55    28    51    1
    56    28    52    1
    57    29    53    1
    58    29    54    1
    59    30    55    1
    60    30    56    1
    61    31    57    1
    62    31    58    1
@<TRIPOS>MOLECULE
../data/bude_mols_rdkit_confs/molecule_96.pdb
 58 62 0 0 0
SMALL
GASTEIGER

@<TRIPOS>ATOM
      1  O1         0.0910    0.5700   -1.8680 O.2     1  UNL1       -0.2700
      2  C1        -0.1850    0.7880   -0.5950 C.2     1  UNL1        0.2466
      3  C2         0.9570    1.1030    0.2030 C.ar    1  UNL1        0.0372
      4  C3         0.9080    1.2760    1.5560 C.ar    1  UNL1       -0.0496
      5  C4         2.0340    1.6210    2.3060 C.ar    1  UNL1       -0.0608
      6  C5         3.2340    1.7930    1.6780 C.ar    1  UNL1       -0.0582
      7  C6         3.3220    1.6270    0.3310 C.ar    1  UNL1       -0.0408
      8  C7         4.5840    1.7790   -0.4480 C.3     1  UNL1        0.0171
      9  C8         5.0540    0.4850   -0.9990 C.ar    1  UNL1        0.0736
     10  N1         4.7100    0.1580   -2.2840 N.ar    1  UNL1       -0.1750
     11  N2         5.0620   -0.9870   -2.7900 N.ar    1  UNL1       -0.2425
     12  C9         5.7630   -1.9030   -2.1180 C.ar    1  UNL1        0.2725
     13  O2         6.0890   -3.0190   -2.6520 O.2     1  UNL1       -0.2658
     14  C10        6.1420   -1.6370   -0.8220 C.ar    1  UNL1        0.0496
     15  C11        6.8790   -2.5530   -0.1060 C.ar    1  UNL1       -0.0487
     16  C12        7.2490   -2.2430    1.1740 C.ar    1  UNL1       -0.0610
     17  C13        6.9070   -1.0430    1.7650 C.ar    1  UNL1       -0.0611
     18  C14        6.1650   -0.1190    1.0470 C.ar    1  UNL1       -0.0521
     19  C15        5.7760   -0.4200   -0.2640 C.ar    1  UNL1        0.0106
     20  C16        2.2050    1.2840   -0.4270 C.ar    1  UNL1       -0.0461
     21  N3        -1.5200    0.6670   -0.3060 N.am    1  UNL1       -0.2974
     22  C17       -2.4870    0.3010   -1.4070 C.3     1  UNL1        0.0173
     23  C18       -3.2930   -0.8460   -0.7920 C.3     1  UNL1       -0.0107
     24  C19       -4.3060   -0.1950    0.1770 C.3     1  UNL1        0.0619
     25  O3        -5.5080    0.0020   -0.4070 O.3     1  UNL1       -0.3732
     26  C20       -6.6120   -0.6530   -0.0060 C.3     1  UNL1        0.0591
     27  C21       -7.9100    0.1270    0.0170 C.3     1  UNL1       -0.0265
     28  C22       -7.9530   -0.0700   -1.4920 C.3     1  UNL1       -0.0484
     29  C23       -7.2070   -1.3850   -1.2280 C.3     1  UNL1       -0.0265
     30  C24       -3.6980    1.0150    0.8080 C.3     1  UNL1       -0.0107
     31  C25       -2.1620    0.8620    0.9440 C.3     1  UNL1        0.0173
     32 H           0.0067    1.1472    2.0419 H       1  UNL1        0.0625
     33 H           1.9597    1.7451    3.3278 H       1  UNL1        0.0618
     34 H           4.0718    2.0482    2.2238 H       1  UNL1        0.0620
     35 H           5.3414    2.1766    0.1948 H       1  UNL1        0.0377
     36 H           4.3894    2.4374   -1.2687 H       1  UNL1        0.0377
     37 H           4.7978   -1.1888   -3.7167 H       1  UNL1        0.1921
     38 H           7.1473   -3.4563   -0.5268 H       1  UNL1        0.0625
     39 H           7.8008   -2.9273    1.7146 H       1  UNL1        0.0618
     40 H           7.2012   -0.8362    2.7323 H       1  UNL1        0.0618
     41 H           5.9015    0.7826    1.4745 H       1  UNL1        0.0624
     42 H           2.2909    1.1626   -1.4482 H       1  UNL1        0.0628
     43 H          -1.9663   -0.0222   -2.2841 H       1  UNL1        0.0465
     44 H          -3.0963    1.1220   -1.7226 H       1  UNL1        0.0465
     45 H          -2.6449   -1.5099   -0.2591 H       1  UNL1        0.0305
     46 H          -3.7902   -1.4195   -1.5462 H       1  UNL1        0.0305
     47 H          -4.5234   -0.8685    0.9795 H       1  UNL1        0.0597
     48 H          -6.2566   -1.0980    0.8999 H       1  UNL1        0.0596
     49 H          -7.8171    1.1445    0.3347 H       1  UNL1        0.0290
     50 H          -8.7277   -0.1467    0.6505 H       1  UNL1        0.0290
     51 H          -7.4064    0.6545   -2.0587 H       1  UNL1        0.0267
     52 H          -8.8624   -0.0254   -2.0540 H       1  UNL1        0.0267
     53 H          -7.8308   -2.2229   -0.9965 H       1  UNL1        0.0290
     54 H          -6.6029   -1.8691   -1.9666 H       1  UNL1        0.0290
     55 H          -4.1228    1.1527    1.7804 H       1  UNL1        0.0305
     56 H          -3.9011    1.8610    0.1852 H       1  UNL1        0.0305
     57 H          -1.7682    1.7478    1.3969 H       1  UNL1        0.0465
     58 H          -1.9746   -0.0045    1.5431 H       1  UNL1        0.0465
@<TRIPOS>BOND
     1     1     2    2
     2     2     3    1
     3     2    21   am
     4     3     4   ar
     5     3    20   ar
     6     4     5   ar
     7     5     6   ar
     8     6     7   ar
     9     7     8    1
    10     7    20   ar
    11     8     9    1
    12     9    10   ar
    13     9    19   ar
    14    10    11   ar
    15    11    12   ar
    16    12    13    2
    17    12    14   ar
    18    14    15   ar
    19    14    19   ar
    20    15    16   ar
    21    16    17   ar
    22    17    18   ar
    23    18    19   ar
    24    21    22    1
    25    21    31    1
    26    22    23    1
    27    23    24    1
    28    24    25    1
    29    24    30    1
    30    25    26    1
    31    26    27    1
    32    26    29    1
    33    27    28    1
    34    28    29    1
    35    30    31    1
    36     4    32    1
    37     5    33    1
    38     6    34    1
    39     8    35    1
    40     8    36    1
    41    11    37    1
    42    15    38    1
    43    16    39    1
    44    17    40    1
    45    18    41    1
    46    20    42    1
    47    22    43    1
    48    22    44    1
    49    23    45    1
    50    23    46    1
    51    24    47    1
    52    26    48    1
    53    27    49    1
    54    27    50    1
    55    28    51    1
    56    28    52    1
    57    29    53    1
    58    29    54    1
    59    30    55    1
    60    30    56    1
    61    31    57    1
    62    31    58    1
@<TRIPOS>MOLECULE
../data/bude_mols_rdkit_confs/molecule_96.pdb
 58 62 0 0 0
SMALL
GASTEIGER

@<TRIPOS>ATOM
      1  O1        -0.0810   -2.1980   -0.0640 O.2     1  UNL1       -0.2700
      2  C1         0.3880   -0.9730   -0.1310 C.2     1  UNL1        0.2466
      3  C2        -0.5500   -0.0530   -0.7340 C.ar    1  UNL1        0.0372
      4  C3        -0.2690    1.2340   -1.1130 C.ar    1  UNL1       -0.0496
      5  C4        -1.1950    2.1250   -1.6640 C.ar    1  UNL1       -0.0608
      6  C5        -2.4830    1.6780   -1.8410 C.ar    1  UNL1       -0.0582
      7  C6        -2.8380    0.3860   -1.4800 C.ar    1  UNL1       -0.0408
      8  C7        -4.2510   -0.0760   -1.6900 C.3     1  UNL1        0.0171
      9  C8        -5.0660    0.4220   -0.5270 C.ar    1  UNL1        0.0736
     10  N1        -4.6320    1.5210    0.1310 N.ar    1  UNL1       -0.1750
     11  N2        -5.2570    2.0570    1.1600 N.ar    1  UNL1       -0.2425
     12  C9        -6.3970    1.4940    1.5990 C.ar    1  UNL1        0.2725
     13  O2        -6.9760    2.0270    2.5840 O.2     1  UNL1       -0.2658
     14  C10       -6.8810    0.3610    0.9510 C.ar    1  UNL1        0.0496
     15  C11       -8.0590   -0.1890    1.4300 C.ar    1  UNL1       -0.0487
     16  C12       -8.5570   -1.3130    0.7990 C.ar    1  UNL1       -0.0610
     17  C13       -7.8790   -1.8280   -0.2560 C.ar    1  UNL1       -0.0611
     18  C14       -6.6980   -1.3140   -0.7710 C.ar    1  UNL1       -0.0521
     19  C15       -6.2150   -0.1930   -0.1300 C.ar    1  UNL1        0.0106
     20  C16       -1.8840   -0.4430   -0.9430 C.ar    1  UNL1       -0.0461
     21  N3         1.6770   -0.7440    0.3710 N.am    1  UNL1       -0.2974
     22  C17        2.4110    0.4630    0.4860 C.3     1  UNL1        0.0173
     23  C18        3.6430    0.3330    1.3630 C.3     1  UNL1       -0.0107
     24  C19        4.5920   -0.7220    0.8150 C.3     1  UNL1        0.0619
     25  O3         5.3130   -0.1060   -0.1460 O.3     1  UNL1       -0.3732
     26  C20        6.6650   -0.0520   -0.0740 C.3     1  UNL1        0.0591
     27  C21        7.4920   -0.3370   -1.2980 C.3     1  UNL1       -0.0265
     28  C22        8.4640    0.7090   -0.7970 C.3     1  UNL1       -0.0484
     29  C23        7.2930    1.3270   -0.0610 C.3     1  UNL1       -0.0265
     30  C24        3.7670   -1.8240    0.1380 C.3     1  UNL1       -0.0107
     31  C25        2.4180   -1.9410    0.8370 C.3     1  UNL1        0.0173
     32 H           0.6978    1.5703   -0.9819 H       1  UNL1        0.0625
     33 H          -0.9213    3.0843   -1.9285 H       1  UNL1        0.0618
     34 H          -3.1922    2.3090   -2.2460 H       1  UNL1        0.0620
     35 H          -4.2842   -1.1448   -1.7286 H       1  UNL1        0.0377
     36 H          -4.6388    0.3031   -2.6124 H       1  UNL1        0.0377
     37 H          -4.8944    2.8588    1.6015 H       1  UNL1        0.1921
     38 H          -8.5507    0.2290    2.2353 H       1  UNL1        0.0625
     39 H          -9.4312   -1.7534    1.1257 H       1  UNL1        0.0618
     40 H          -8.2717   -2.6669   -0.7109 H       1  UNL1        0.0618
     41 H          -6.2150   -1.7406   -1.5771 H       1  UNL1        0.0624
     42 H          -2.1608   -1.4016   -0.6794 H       1  UNL1        0.0628
     43 H           1.7717    1.2109    0.9065 H       1  UNL1        0.0465
     44 H           2.7460    0.7259   -0.4956 H       1  UNL1        0.0465
     45 H           3.3416    0.0535    2.3509 H       1  UNL1        0.0305
     46 H           4.1515    1.2743    1.3790 H       1  UNL1        0.0305
     47 H           5.2028   -1.1419    1.5866 H       1  UNL1        0.0597
     48 H           6.6979   -0.7167    0.7639 H       1  UNL1        0.0596
     49 H           7.0154   -0.0967   -2.2254 H       1  UNL1        0.0290
     50 H           7.8084   -1.3283   -1.5473 H       1  UNL1        0.0290
     51 H           8.8906    1.3265   -1.5596 H       1  UNL1        0.0267
     52 H           9.3733    0.4462   -0.2980 H       1  UNL1        0.0267
     53 H           7.5243    1.7055    0.9127 H       1  UNL1        0.0290
     54 H           6.7792    2.1889   -0.4325 H       1  UNL1        0.0290
     55 H           4.2884   -2.7557    0.2082 H       1  UNL1        0.0305
     56 H           3.6177   -1.5793   -0.8929 H       1  UNL1        0.0305
     57 H           1.9141   -2.8390    0.5464 H       1  UNL1        0.0465
     58 H           2.5051   -1.9866    1.9025 H       1  UNL1        0.0465
@<TRIPOS>BOND
     1     1     2    2
     2     2     3    1
     3     2    21   am
     4     3     4   ar
     5     3    20   ar
     6     4     5   ar
     7     5     6   ar
     8     6     7   ar
     9     7     8    1
    10     7    20   ar
    11     8     9    1
    12     9    10   ar
    13     9    19   ar
    14    10    11   ar
    15    11    12   ar
    16    12    13    2
    17    12    14   ar
    18    14    15   ar
    19    14    19   ar
    20    15    16   ar
    21    16    17   ar
    22    17    18   ar
    23    18    19   ar
    24    21    22    1
    25    21    31    1
    26    22    23    1
    27    23    24    1
    28    24    25    1
    29    24    30    1
    30    25    26    1
    31    26    27    1
    32    26    29    1
    33    27    28    1
    34    28    29    1
    35    30    31    1
    36     4    32    1
    37     5    33    1
    38     6    34    1
    39     8    35    1
    40     8    36    1
    41    11    37    1
    42    15    38    1
    43    16    39    1
    44    17    40    1
    45    18    41    1
    46    20    42    1
    47    22    43    1
    48    22    44    1
    49    23    45    1
    50    23    46    1
    51    24    47    1
    52    26    48    1
    53    27    49    1
    54    27    50    1
    55    28    51    1
    56    28    52    1
    57    29    53    1
    58    29    54    1
    59    30    55    1
    60    30    56    1
    61    31    57    1
    62    31    58    1
@<TRIPOS>MOLECULE
../data/bude_mols_rdkit_confs/molecule_96.pdb
 58 62 0 0 0
SMALL
GASTEIGER

@<TRIPOS>ATOM
      1  O1        -0.7780   -3.4580   -1.9330 O.2     1  UNL1       -0.2700
      2  C1        -0.4050   -2.3740   -1.2940 C.2     1  UNL1        0.2466
      3  C2         0.8730   -1.8300   -1.7040 C.ar    1  UNL1        0.0372
      4  C3         1.7030   -2.6470   -2.4980 C.ar    1  UNL1       -0.0496
      5  C4         2.8910   -2.1730   -2.9690 C.ar    1  UNL1       -0.0608
      6  C5         3.3120   -0.8720   -2.6760 C.ar    1  UNL1       -0.0582
      7  C6         2.5480   -0.0400   -1.9110 C.ar    1  UNL1       -0.0408
      8  C7         2.9120    1.3600   -1.5210 C.3     1  UNL1        0.0171
      9  C8         3.2980    1.3310   -0.0890 C.ar    1  UNL1        0.0736
     10  N1         2.3300    1.5780    0.8310 N.ar    1  UNL1       -0.1750
     11  N2         2.5360    1.5130    2.1210 N.ar    1  UNL1       -0.2425
     12  C9         3.7540    1.1890    2.5710 C.ar    1  UNL1        0.2725
     13  O2         4.0260    1.1060    3.7970 O.2     1  UNL1       -0.2658
     14  C10        4.7870    0.9270    1.6780 C.ar    1  UNL1        0.0496
     15  C11        6.0460    0.6120    2.1160 C.ar    1  UNL1       -0.0487
     16  C12        7.0640    0.3740    1.2140 C.ar    1  UNL1       -0.0610
     17  C13        6.8120    0.4540   -0.1390 C.ar    1  UNL1       -0.0611
     18  C14        5.5350    0.7740   -0.6290 C.ar    1  UNL1       -0.0521
     19  C15        4.5500    1.0010    0.3050 C.ar    1  UNL1        0.0106
     20  C16        1.3270   -0.5660   -1.4450 C.ar    1  UNL1       -0.0461
     21  N3        -1.2860   -1.9210   -0.3350 N.am    1  UNL1       -0.2974
     22  C17       -2.6030   -2.6180   -0.1850 C.3     1  UNL1        0.0173
     23  C18       -3.6500   -1.5560   -0.5330 C.3     1  UNL1       -0.0107
     24  C19       -3.4980   -0.3900    0.4080 C.3     1  UNL1        0.0619
     25  O3        -4.4950    0.5260    0.1030 O.3     1  UNL1       -0.3732
     26  C20       -5.2670    0.9130    1.1640 C.3     1  UNL1        0.0591
     27  C21       -5.4030    2.4000    1.3840 C.3     1  UNL1       -0.0265
     28  C22       -6.7970    2.2960    0.8040 C.3     1  UNL1       -0.0484
     29  C23       -6.7640    0.7760    1.0240 C.3     1  UNL1       -0.0265
     30  C24       -2.1080    0.2240    0.1700 C.3     1  UNL1       -0.0107
     31  C25       -1.1310   -0.8690    0.6230 C.3     1  UNL1        0.0173
     32 H           1.4093   -3.6101   -2.7241 H       1  UNL1        0.0625
     33 H           3.4879   -2.7825   -3.5497 H       1  UNL1        0.0618
     34 H           4.2154   -0.5358   -3.0445 H       1  UNL1        0.0620
     35 H           2.0732    2.0093   -1.6614 H       1  UNL1        0.0377
     36 H           3.7173    1.7247   -2.1238 H       1  UNL1        0.0377
     37 H           1.8045    1.7000    2.7528 H       1  UNL1        0.1921
     38 H           6.2353    0.5520    3.1287 H       1  UNL1        0.0625
     39 H           8.0101    0.1371    1.5515 H       1  UNL1        0.0618
     40 H           7.5784    0.2749   -0.8065 H       1  UNL1        0.0618
     41 H           5.3445    0.8359   -1.6414 H       1  UNL1        0.0624
     42 H           0.7318    0.0469   -0.8661 H       1  UNL1        0.0628
     43 H          -2.7349   -2.9623    0.8195 H       1  UNL1        0.0465
     44 H          -2.6776   -3.4800   -0.8145 H       1  UNL1        0.0465
     45 H          -4.6305   -1.9725   -0.4325 H       1  UNL1        0.0305
     46 H          -3.5096   -1.2271   -1.5415 H       1  UNL1        0.0305
     47 H          -3.5846   -0.6825    1.4336 H       1  UNL1        0.0597
     48 H          -4.7539    0.3064    1.8807 H       1  UNL1        0.0596
     49 H          -4.7258    2.9989    0.8117 H       1  UNL1        0.0290
     50 H          -5.2249    2.8445    2.3409 H       1  UNL1        0.0290
     51 H          -6.8675    2.5888   -0.2227 H       1  UNL1        0.0267
     52 H          -7.5970    2.8865    1.1992 H       1  UNL1        0.0267
     53 H          -7.2682    0.4392    1.9056 H       1  UNL1        0.0290
     54 H          -7.2099    0.0918    0.3326 H       1  UNL1        0.0290
     55 H          -1.9806    1.1122    0.7529 H       1  UNL1        0.0305
     56 H          -1.9564    0.5124   -0.8492 H       1  UNL1        0.0305
     57 H          -0.1262   -0.5011    0.6190 H       1  UNL1        0.0465
     58 H          -1.3309   -1.1999    1.6207 H       1  UNL1        0.0465
@<TRIPOS>BOND
     1     1     2    2
     2     2     3    1
     3     2    21   am
     4     3     4   ar
     5     3    20   ar
     6     4     5   ar
     7     5     6   ar
     8     6     7   ar
     9     7     8    1
    10     7    20   ar
    11     8     9    1
    12     9    10   ar
    13     9    19   ar
    14    10    11   ar
    15    11    12   ar
    16    12    13    2
    17    12    14   ar
    18    14    15   ar
    19    14    19   ar
    20    15    16   ar
    21    16    17   ar
    22    17    18   ar
    23    18    19   ar
    24    21    22    1
    25    21    31    1
    26    22    23    1
    27    23    24    1
    28    24    25    1
    29    24    30    1
    30    25    26    1
    31    26    27    1
    32    26    29    1
    33    27    28    1
    34    28    29    1
    35    30    31    1
    36     4    32    1
    37     5    33    1
    38     6    34    1
    39     8    35    1
    40     8    36    1
    41    11    37    1
    42    15    38    1
    43    16    39    1
    44    17    40    1
    45    18    41    1
    46    20    42    1
    47    22    43    1
    48    22    44    1
    49    23    45    1
    50    23    46    1
    51    24    47    1
    52    26    48    1
    53    27    49    1
    54    27    50    1
    55    28    51    1
    56    28    52    1
    57    29    53    1
    58    29    54    1
    59    30    55    1
    60    30    56    1
    61    31    57    1
    62    31    58    1
@<TRIPOS>MOLECULE
../data/bude_mols_rdkit_confs/molecule_96.pdb
 58 62 0 0 0
SMALL
GASTEIGER

@<TRIPOS>ATOM
      1  O1        -0.1240    1.1450    1.1480 O.2     1  UNL1       -0.2700
      2  C1        -0.4890    0.8600   -0.0860 C.2     1  UNL1        0.2466
      3  C2         0.6150    0.7440   -1.0100 C.ar    1  UNL1        0.0372
      4  C3         0.5240    0.4470   -2.3460 C.ar    1  UNL1       -0.0496
      5  C4         1.6790    0.3680   -3.1300 C.ar    1  UNL1       -0.0608
      6  C5         2.9300    0.5830   -2.6010 C.ar    1  UNL1       -0.0582
      7  C6         3.0500    0.8830   -1.2660 C.ar    1  UNL1       -0.0408
      8  C7         4.3950    1.1130   -0.7000 C.3     1  UNL1        0.0171
      9  C8         5.0160   -0.1290   -0.1950 C.ar    1  UNL1        0.0736
     10  N1         4.4420   -1.3310   -0.2370 N.ar    1  UNL1       -0.1750
     11  N2         5.0700   -2.3980    0.2400 N.ar    1  UNL1       -0.2425
     12  C9         6.2980   -2.3470    0.7860 C.ar    1  UNL1        0.2725
     13  O2         6.9020   -3.3440    1.2400 O.2     1  UNL1       -0.2658
     14  C10        6.9530   -1.1210    0.8610 C.ar    1  UNL1        0.0496
     15  C11        8.2130   -1.0260    1.4140 C.ar    1  UNL1       -0.0487
     16  C12        8.8380    0.2070    1.4740 C.ar    1  UNL1       -0.0610
     17  C13        8.2030    1.3210    0.9860 C.ar    1  UNL1       -0.0611
     18  C14        6.9470    1.2000    0.4390 C.ar    1  UNL1       -0.0521
     19  C15        6.2790   -0.0240    0.3580 C.ar    1  UNL1        0.0106
     20  C16        1.9080    0.9550   -0.5140 C.ar    1  UNL1       -0.0461
     21  N3        -1.8520    0.7240   -0.2710 N.am    1  UNL1       -0.2974
     22  C17       -2.5590    0.4250   -1.4640 C.3     1  UNL1        0.0173
     23  C18       -4.0830    0.5010   -1.2240 C.3     1  UNL1       -0.0107
     24  C19       -4.5310   -0.3630   -0.0920 C.3     1  UNL1        0.0619
     25  O3        -5.6820    0.1690    0.5290 O.3     1  UNL1       -0.3732
     26  C20       -6.7090   -0.7430    0.5210 C.3     1  UNL1        0.0591
     27  C21       -8.0220   -0.1590    0.0030 C.3     1  UNL1       -0.0265
     28  C22       -8.7080   -0.4100    1.3280 C.3     1  UNL1       -0.0484
     29  C23       -7.4010   -0.9620    1.8470 C.3     1  UNL1       -0.0265
     30  C24       -3.4810   -0.4260    0.9920 C.3     1  UNL1       -0.0107
     31  C25       -2.7200    0.9050    0.9160 C.3     1  UNL1        0.0173
     32 H          -0.4003    0.2813   -2.7741 H       1  UNL1        0.0625
     33 H           1.5903    0.1422   -4.1331 H       1  UNL1        0.0618
     34 H           3.7683    0.5197   -3.1996 H       1  UNL1        0.0620
     35 H           4.3127    1.8089    0.1086 H       1  UNL1        0.0377
     36 H           5.0171    1.4924   -1.4836 H       1  UNL1        0.0377
     37 H           4.6148   -3.2696    0.1919 H       1  UNL1        0.1921
     38 H           8.6855   -1.8673    1.7799 H       1  UNL1        0.0625
     39 H           9.7809    0.2886    1.8854 H       1  UNL1        0.0618
     40 H           8.6645    2.2431    1.0291 H       1  UNL1        0.0618
     41 H           6.4805    2.0454    0.0747 H       1  UNL1        0.0624
     42 H           2.0067    1.1805    0.4882 H       1  UNL1        0.0628
     43 H          -2.3024   -0.5622   -1.7872 H       1  UNL1        0.0465
     44 H          -2.2909    1.1402   -2.2133 H       1  UNL1        0.0465
     45 H          -4.5860    0.1867   -2.1146 H       1  UNL1        0.0305
     46 H          -4.3207    1.5134   -0.9720 H       1  UNL1        0.0305
     47 H          -4.7211   -1.3279   -0.5135 H       1  UNL1        0.0597
     48 H          -6.1998   -1.5488    0.0348 H       1  UNL1        0.0596
     49 H          -8.4455   -0.7082   -0.8118 H       1  UNL1        0.0290
     50 H          -8.0316    0.8250   -0.4173 H       1  UNL1        0.0290
     51 H          -9.5052   -1.1225    1.2867 H       1  UNL1        0.0267
     52 H          -9.2260    0.3716    1.8435 H       1  UNL1        0.0267
     53 H          -6.9825   -0.3886    2.6476 H       1  UNL1        0.0290
     54 H          -7.3859   -1.9371    2.2874 H       1  UNL1        0.0290
     55 H          -2.8156   -1.2459    0.8189 H       1  UNL1        0.0305
     56 H          -3.9197   -0.5740    1.9567 H       1  UNL1        0.0305
     57 H          -3.3928    1.7256    0.7791 H       1  UNL1        0.0465
     58 H          -2.1737    1.1304    1.8080 H       1  UNL1        0.0465
@<TRIPOS>BOND
     1     1     2    2
     2     2     3    1
     3     2    21   am
     4     3     4   ar
     5     3    20   ar
     6     4     5   ar
     7     5     6   ar
     8     6     7   ar
     9     7     8    1
    10     7    20   ar
    11     8     9    1
    12     9    10   ar
    13     9    19   ar
    14    10    11   ar
    15    11    12   ar
    16    12    13    2
    17    12    14   ar
    18    14    15   ar
    19    14    19   ar
    20    15    16   ar
    21    16    17   ar
    22    17    18   ar
    23    18    19   ar
    24    21    22    1
    25    21    31    1
    26    22    23    1
    27    23    24    1
    28    24    25    1
    29    24    30    1
    30    25    26    1
    31    26    27    1
    32    26    29    1
    33    27    28    1
    34    28    29    1
    35    30    31    1
    36     4    32    1
    37     5    33    1
    38     6    34    1
    39     8    35    1
    40     8    36    1
    41    11    37    1
    42    15    38    1
    43    16    39    1
    44    17    40    1
    45    18    41    1
    46    20    42    1
    47    22    43    1
    48    22    44    1
    49    23    45    1
    50    23    46    1
    51    24    47    1
    52    26    48    1
    53    27    49    1
    54    27    50    1
    55    28    51    1
    56    28    52    1
    57    29    53    1
    58    29    54    1
    59    30    55    1
    60    30    56    1
    61    31    57    1
    62    31    58    1
@<TRIPOS>MOLECULE
../data/bude_mols_rdkit_confs/molecule_96.pdb
 58 62 0 0 0
SMALL
GASTEIGER

@<TRIPOS>ATOM
      1  O1         0.7450   -0.1600   -3.3890 O.2     1  UNL1       -0.2700
      2  C1         0.4620    0.0000   -2.1170 C.2     1  UNL1        0.2466
      3  C2        -0.5800    0.9220   -1.8560 C.ar    1  UNL1        0.0372
      4  C3        -1.0700    1.7450   -2.8930 C.ar    1  UNL1       -0.0496
      5  C4        -2.0860    2.6280   -2.7400 C.ar    1  UNL1       -0.0608
      6  C5        -2.6800    2.7370   -1.5110 C.ar    1  UNL1       -0.0582
      7  C6        -2.2800    1.9860   -0.4480 C.ar    1  UNL1       -0.0408
      8  C7        -2.8740    2.0240    0.9150 C.3     1  UNL1        0.0171
      9  C8        -3.7870    0.8910    1.0770 C.ar    1  UNL1        0.0736
     10  N1        -3.2200   -0.2410    1.6070 N.ar    1  UNL1       -0.1750
     11  N2        -3.8960   -1.3440    1.7430 N.ar    1  UNL1       -0.2425
     12  C9        -5.1790   -1.3930    1.3600 C.ar    1  UNL1        0.2725
     13  O2        -5.8250   -2.4660    1.4950 O.2     1  UNL1       -0.2658
     14  C10       -5.8140   -0.2960    0.8210 C.ar    1  UNL1        0.0496
     15  C11       -7.1240   -0.3100    0.4410 C.ar    1  UNL1       -0.0487
     16  C12       -7.6980    0.8420   -0.0740 C.ar    1  UNL1       -0.0610
     17  C13       -6.9940    2.0200   -0.2200 C.ar    1  UNL1       -0.0611
     18  C14       -5.6530    2.0250    0.1720 C.ar    1  UNL1       -0.0521
     19  C15       -5.0870    0.8850    0.6780 C.ar    1  UNL1        0.0106
     20  C16       -1.2120    1.0780   -0.6660 C.ar    1  UNL1       -0.0461
     21  N3         1.2380   -0.7600   -1.2780 N.am    1  UNL1       -0.2974
     22  C17        2.2530   -1.7060   -1.8260 C.3     1  UNL1        0.0173
     23  C18        3.6010   -1.1360   -1.4510 C.3     1  UNL1       -0.0107
     24  C19        3.7410   -0.9820    0.0380 C.3     1  UNL1        0.0619
     25  O3         4.7750   -1.7830    0.4830 O.3     1  UNL1       -0.3732
     26  C20        5.7640   -0.9950    1.0080 C.3     1  UNL1        0.0591
     27  C21        7.1870   -1.3440    0.6300 C.3     1  UNL1       -0.0265
     28  C22        7.5770   -0.8410    2.0300 C.3     1  UNL1       -0.0484
     29  C23        6.1750   -1.3050    2.4560 C.3     1  UNL1       -0.0265
     30  C24        2.4950   -1.3380    0.7790 C.3     1  UNL1       -0.0107
     31  C25        1.2420   -0.7290    0.1520 C.3     1  UNL1        0.0173
     32 H          -0.6282    1.6696   -3.8226 H       1  UNL1        0.0625
     33 H          -2.4055    3.2062   -3.5328 H       1  UNL1        0.0618
     34 H          -3.4539    3.4083   -1.3868 H       1  UNL1        0.0620
     35 H          -3.4134    2.9390    1.0444 H       1  UNL1        0.0377
     36 H          -2.0957    1.9645    1.6468 H       1  UNL1        0.0377
     37 H          -3.4654   -2.1418    2.1269 H       1  UNL1        0.1921
     38 H          -7.6837   -1.1718    0.5362 H       1  UNL1        0.0625
     39 H          -8.6895    0.8178   -0.3591 H       1  UNL1        0.0618
     40 H          -7.4418    2.8664   -0.6047 H       1  UNL1        0.0618
     41 H          -5.0904    2.8853    0.0805 H       1  UNL1        0.0624
     42 H          -0.8967    0.5009    0.1294 H       1  UNL1        0.0628
     43 H           2.1613   -1.7740   -2.8899 H       1  UNL1        0.0465
     44 H           2.1218   -2.6921   -1.4320 H       1  UNL1        0.0465
     45 H           3.7128   -0.1767   -1.9115 H       1  UNL1        0.0305
     46 H           4.3571   -1.8128   -1.7904 H       1  UNL1        0.0305
     47 H           3.9423    0.0510    0.2309 H       1  UNL1        0.0597
     48 H           5.3164   -0.0658    0.7232 H       1  UNL1        0.0596
     49 H           7.5901   -0.7752   -0.1817 H       1  UNL1        0.0290
     50 H           7.4631   -2.3140    0.2725 H       1  UNL1        0.0290
     51 H           7.7473    0.2129    2.1021 H       1  UNL1        0.0267
     52 H           8.4684   -1.1562    2.5310 H       1  UNL1        0.0267
     53 H           6.1040   -2.3350    2.7370 H       1  UNL1        0.0290
     54 H           5.6629   -0.8986    3.3031 H       1  UNL1        0.0290
     55 H           2.5816   -0.9832    1.7847 H       1  UNL1        0.0305
     56 H           2.3901   -2.4022    0.7426 H       1  UNL1        0.0305
     57 H           0.3904   -1.2732    0.5035 H       1  UNL1        0.0465
     58 H           1.2182    0.3009    0.4412 H       1  UNL1        0.0465
@<TRIPOS>BOND
     1     1     2    2
     2     2     3    1
     3     2    21   am
     4     3     4   ar
     5     3    20   ar
     6     4     5   ar
     7     5     6   ar
     8     6     7   ar
     9     7     8    1
    10     7    20   ar
    11     8     9    1
    12     9    10   ar
    13     9    19   ar
    14    10    11   ar
    15    11    12   ar
    16    12    13    2
    17    12    14   ar
    18    14    15   ar
    19    14    19   ar
    20    15    16   ar
    21    16    17   ar
    22    17    18   ar
    23    18    19   ar
    24    21    22    1
    25    21    31    1
    26    22    23    1
    27    23    24    1
    28    24    25    1
    29    24    30    1
    30    25    26    1
    31    26    27    1
    32    26    29    1
    33    27    28    1
    34    28    29    1
    35    30    31    1
    36     4    32    1
    37     5    33    1
    38     6    34    1
    39     8    35    1
    40     8    36    1
    41    11    37    1
    42    15    38    1
    43    16    39    1
    44    17    40    1
    45    18    41    1
    46    20    42    1
    47    22    43    1
    48    22    44    1
    49    23    45    1
    50    23    46    1
    51    24    47    1
    52    26    48    1
    53    27    49    1
    54    27    50    1
    55    28    51    1
    56    28    52    1
    57    29    53    1
    58    29    54    1
    59    30    55    1
    60    30    56    1
    61    31    57    1
    62    31    58    1
@<TRIPOS>MOLECULE
../data/bude_mols_rdkit_confs/molecule_96.pdb
 58 62 0 0 0
SMALL
GASTEIGER

@<TRIPOS>ATOM
      1  O1         0.2190   -1.7300   -0.9430 O.2     1  UNL1       -0.2700
      2  C1         0.3470   -0.6960   -0.1440 C.2     1  UNL1        0.2466
      3  C2        -0.7620   -0.4610    0.7520 C.ar    1  UNL1        0.0372
      4  C3        -0.8520    0.4920    1.7260 C.ar    1  UNL1       -0.0496
      5  C4        -1.9950    0.6460    2.5280 C.ar    1  UNL1       -0.0608
      6  C5        -3.0790   -0.1640    2.3640 C.ar    1  UNL1       -0.0582
      7  C6        -3.0370   -1.1440    1.3920 C.ar    1  UNL1       -0.0408
      8  C7        -4.1820   -2.0740    1.1920 C.3     1  UNL1        0.0171
      9  C8        -5.4140   -1.4440    0.7420 C.ar    1  UNL1        0.0736
     10  N1        -6.3660   -1.1190    1.6720 N.ar    1  UNL1       -0.1750
     11  N2        -7.4840   -0.5090    1.3360 N.ar    1  UNL1       -0.2425
     12  C9        -7.7770   -0.1600    0.0680 C.ar    1  UNL1        0.2725
     13  O2        -8.8760    0.4330   -0.2090 O.2     1  UNL1       -0.2658
     14  C10       -6.8570   -0.4620   -0.9110 C.ar    1  UNL1        0.0496
     15  C11       -7.1340   -0.1300   -2.2180 C.ar    1  UNL1       -0.0487
     16  C12       -6.2530   -0.4250   -3.2290 C.ar    1  UNL1       -0.0610
     17  C13       -5.0920   -1.0640   -2.8610 C.ar    1  UNL1       -0.0611
     18  C14       -4.7660   -1.4170   -1.5720 C.ar    1  UNL1       -0.0521
     19  C15       -5.6690   -1.1110   -0.5560 C.ar    1  UNL1        0.0106
     20  C16       -1.9160   -1.2700    0.6300 C.ar    1  UNL1       -0.0461
     21  N3         1.5340   -0.0120   -0.3100 N.am    1  UNL1       -0.2974
     22  C17        1.9350    1.1580    0.4120 C.3     1  UNL1        0.0173
     23  C18        3.2440    1.7160   -0.2290 C.3     1  UNL1       -0.0107
     24  C19        4.2650    0.6280   -0.0590 C.3     1  UNL1        0.0619
     25  O3         5.5540    1.0610   -0.3630 O.3     1  UNL1       -0.3732
     26  C20        6.4160    1.1040    0.7000 C.3     1  UNL1        0.0591
     27  C21        7.6510    0.2470    0.3890 C.3     1  UNL1       -0.0265
     28  C22        8.3700    1.4980   -0.0240 C.3     1  UNL1       -0.0484
     29  C23        7.3370    2.3330    0.7140 C.3     1  UNL1       -0.0265
     30  C24        3.8810   -0.5540   -0.8760 C.3     1  UNL1       -0.0107
     31  C25        2.4680   -0.5480   -1.3330 C.3     1  UNL1        0.0173
     32 H          -0.0498    1.1230    1.8787 H       1  UNL1        0.0625
     33 H          -2.0143    1.3822    3.2510 H       1  UNL1        0.0618
     34 H          -3.9163   -0.0469    2.9558 H       1  UNL1        0.0620
     35 H          -4.3797   -2.5623    2.1233 H       1  UNL1        0.0377
     36 H          -3.8884   -2.7470    0.4137 H       1  UNL1        0.0377
     37 H          -8.1353   -0.2985    2.0436 H       1  UNL1        0.1921
     38 H          -8.0200    0.3494   -2.4420 H       1  UNL1        0.0625
     39 H          -6.4513   -0.1805   -4.2118 H       1  UNL1        0.0618
     40 H          -4.4164   -1.2955   -3.6060 H       1  UNL1        0.0618
     41 H          -3.8760   -1.8959   -1.3630 H       1  UNL1        0.0624
     42 H          -1.9074   -2.0099   -0.0894 H       1  UNL1        0.0628
     43 H           2.1147    0.9054    1.4361 H       1  UNL1        0.0465
     44 H           1.1627    1.8972    0.3671 H       1  UNL1        0.0465
     45 H           3.5578    2.6062    0.2749 H       1  UNL1        0.0305
     46 H           3.1049    1.9746   -1.2579 H       1  UNL1        0.0305
     47 H           4.2802    0.3461    0.9731 H       1  UNL1        0.0597
     48 H           5.7576    0.9251    1.5243 H       1  UNL1        0.0596
     49 H           7.5096   -0.4624   -0.3994 H       1  UNL1        0.0290
     50 H           8.0654   -0.4131    1.1221 H       1  UNL1        0.0290
     51 H           8.3901    1.6618   -1.0812 H       1  UNL1        0.0267
     52 H           9.4128    1.6177    0.1838 H       1  UNL1        0.0267
     53 H           7.6380    2.6521    1.6900 H       1  UNL1        0.0290
     54 H           7.0113    3.2804    0.3380 H       1  UNL1        0.0290
     55 H           4.0392   -1.4337   -0.2877 H       1  UNL1        0.0305
     56 H           4.4880   -0.5280   -1.7568 H       1  UNL1        0.0305
     57 H           2.3958    0.0573   -2.2124 H       1  UNL1        0.0465
     58 H           2.1874   -1.5625   -1.5251 H       1  UNL1        0.0465
@<TRIPOS>BOND
     1     1     2    2
     2     2     3    1
     3     2    21   am
     4     3     4   ar
     5     3    20   ar
     6     4     5   ar
     7     5     6   ar
     8     6     7   ar
     9     7     8    1
    10     7    20   ar
    11     8     9    1
    12     9    10   ar
    13     9    19   ar
    14    10    11   ar
    15    11    12   ar
    16    12    13    2
    17    12    14   ar
    18    14    15   ar
    19    14    19   ar
    20    15    16   ar
    21    16    17   ar
    22    17    18   ar
    23    18    19   ar
    24    21    22    1
    25    21    31    1
    26    22    23    1
    27    23    24    1
    28    24    25    1
    29    24    30    1
    30    25    26    1
    31    26    27    1
    32    26    29    1
    33    27    28    1
    34    28    29    1
    35    30    31    1
    36     4    32    1
    37     5    33    1
    38     6    34    1
    39     8    35    1
    40     8    36    1
    41    11    37    1
    42    15    38    1
    43    16    39    1
    44    17    40    1
    45    18    41    1
    46    20    42    1
    47    22    43    1
    48    22    44    1
    49    23    45    1
    50    23    46    1
    51    24    47    1
    52    26    48    1
    53    27    49    1
    54    27    50    1
    55    28    51    1
    56    28    52    1
    57    29    53    1
    58    29    54    1
    59    30    55    1
    60    30    56    1
    61    31    57    1
    62    31    58    1
@<TRIPOS>MOLECULE
../data/bude_mols_rdkit_confs/molecule_96.pdb
 58 62 0 0 0
SMALL
GASTEIGER

@<TRIPOS>ATOM
      1  O1        -0.8070   -3.2880   -2.1880 O.2     1  UNL1       -0.2700
      2  C1        -0.5230   -2.2520   -1.4570 C.2     1  UNL1        0.2466
      3  C2         0.7150   -2.3510   -0.7210 C.ar    1  UNL1        0.0372
      4  C3         1.4760   -3.5220   -0.8800 C.ar    1  UNL1       -0.0496
      5  C4         2.6580   -3.6860   -0.1990 C.ar    1  UNL1       -0.0608
      6  C5         3.1450   -2.7190    0.6630 C.ar    1  UNL1       -0.0582
      7  C6         2.4430   -1.5860    0.8380 C.ar    1  UNL1       -0.0408
      8  C7         2.8010   -0.4330    1.7090 C.3     1  UNL1        0.0171
      9  C8         3.3720    0.7130    1.0210 C.ar    1  UNL1        0.0736
     10  N1         2.5710    1.7510    0.6190 N.ar    1  UNL1       -0.1750
     11  N2         3.0230    2.7840   -0.0460 N.ar    1  UNL1       -0.2425
     12  C9         4.3090    2.9360   -0.4030 C.ar    1  UNL1        0.2725
     13  O2         4.7140    3.9430   -1.0450 O.2     1  UNL1       -0.2658
     14  C10        5.1810    1.9040   -0.0190 C.ar    1  UNL1        0.0496
     15  C11        6.5030    2.0580   -0.3670 C.ar    1  UNL1       -0.0487
     16  C12        7.4070    1.0890   -0.0050 C.ar    1  UNL1       -0.0610
     17  C13        6.9340    0.0030    0.6970 C.ar    1  UNL1       -0.0611
     18  C14        5.6160   -0.1670    1.0540 C.ar    1  UNL1       -0.0521
     19  C15        4.7010    0.8110    0.6870 C.ar    1  UNL1        0.0106
     20  C16        1.2360   -1.4190    0.1420 C.ar    1  UNL1       -0.0461
     21  N3        -1.4770   -1.2400   -1.5260 N.am    1  UNL1       -0.2974
     22  C17       -2.6550   -1.4850   -2.3870 C.3     1  UNL1        0.0173
     23  C18       -3.8620   -1.3120   -1.4860 C.3     1  UNL1       -0.0107
     24  C19       -3.9330    0.1460   -1.1360 C.3     1  UNL1        0.0619
     25  O3        -4.4480    0.3990    0.1230 O.3     1  UNL1       -0.3732
     26  C20       -5.6240    1.1060    0.1240 C.3     1  UNL1        0.0591
     27  C21       -5.4940    2.3420    1.0090 C.3     1  UNL1       -0.0265
     28  C22       -5.9850    1.4860    2.1590 C.3     1  UNL1       -0.0484
     29  C23       -6.6590    0.5980    1.1200 C.3     1  UNL1       -0.0265
     30  C24       -2.6330    0.8540   -1.3760 C.3     1  UNL1       -0.0107
     31  C25       -1.4380    0.0300   -0.8470 C.3     1  UNL1        0.0173
     32 H           1.1439   -4.2654   -1.5141 H       1  UNL1        0.0625
     33 H           3.1980   -4.5550   -0.3341 H       1  UNL1        0.0618
     34 H           4.0349   -2.8657    1.1646 H       1  UNL1        0.0620
     35 H           3.5134   -0.7733    2.4313 H       1  UNL1        0.0377
     36 H           1.8827   -0.0917    2.1393 H       1  UNL1        0.0377
     37 H           2.3843    3.4893   -0.2987 H       1  UNL1        0.1921
     38 H           6.8116    2.8905   -0.8931 H       1  UNL1        0.0625
     39 H           8.4059    1.1721   -0.2507 H       1  UNL1        0.0618
     40 H           7.6088   -0.7277    0.9721 H       1  UNL1        0.0618
     41 H           5.3148   -1.0011    1.5817 H       1  UNL1        0.0624
     42 H           0.7088   -0.5438    0.2875 H       1  UNL1        0.0628
     43 H          -2.6260   -2.4774   -2.7860 H       1  UNL1        0.0465
     44 H          -2.6832   -0.8136   -3.2196 H       1  UNL1        0.0465
     45 H          -3.7472   -1.8991   -0.5989 H       1  UNL1        0.0305
     46 H          -4.7572   -1.6346   -1.9754 H       1  UNL1        0.0305
     47 H          -4.6464    0.5624   -1.8162 H       1  UNL1        0.0597
     48 H          -5.8470    1.1387   -0.9220 H       1  UNL1        0.0596
     49 H          -6.1433    3.1505    0.7451 H       1  UNL1        0.0290
     50 H          -4.5819    2.8981    1.0698 H       1  UNL1        0.0290
     51 H          -6.6580    1.9803    2.8280 H       1  UNL1        0.0267
     52 H          -5.3142    1.0872    2.8910 H       1  UNL1        0.0267
     53 H          -6.6053   -0.4507    1.3253 H       1  UNL1        0.0290
     54 H          -7.7091    0.6554    0.9229 H       1  UNL1        0.0290
     55 H          -2.6534    1.7992   -0.8750 H       1  UNL1        0.0305
     56 H          -2.5108    0.9866   -2.4307 H       1  UNL1        0.0305
     57 H          -0.5189    0.5344   -1.0610 H       1  UNL1        0.0465
     58 H          -1.4991   -0.0988    0.2135 H       1  UNL1        0.0465
@<TRIPOS>BOND
     1     1     2    2
     2     2     3    1
     3     2    21   am
     4     3     4   ar
     5     3    20   ar
     6     4     5   ar
     7     5     6   ar
     8     6     7   ar
     9     7     8    1
    10     7    20   ar
    11     8     9    1
    12     9    10   ar
    13     9    19   ar
    14    10    11   ar
    15    11    12   ar
    16    12    13    2
    17    12    14   ar
    18    14    15   ar
    19    14    19   ar
    20    15    16   ar
    21    16    17   ar
    22    17    18   ar
    23    18    19   ar
    24    21    22    1
    25    21    31    1
    26    22    23    1
    27    23    24    1
    28    24    25    1
    29    24    30    1
    30    25    26    1
    31    26    27    1
    32    26    29    1
    33    27    28    1
    34    28    29    1
    35    30    31    1
    36     4    32    1
    37     5    33    1
    38     6    34    1
    39     8    35    1
    40     8    36    1
    41    11    37    1
    42    15    38    1
    43    16    39    1
    44    17    40    1
    45    18    41    1
    46    20    42    1
    47    22    43    1
    48    22    44    1
    49    23    45    1
    50    23    46    1
    51    24    47    1
    52    26    48    1
    53    27    49    1
    54    27    50    1
    55    28    51    1
    56    28    52    1
    57    29    53    1
    58    29    54    1
    59    30    55    1
    60    30    56    1
    61    31    57    1
    62    31    58    1
