@<TRIPOS>MOLECULE
../data/bude_mols_rdkit_confs/molecule_44.pdb
 31 32 0 0 0
SMALL
GASTEIGER

@<TRIPOS>ATOM
      1 O           0.5980    1.6400   -0.2620 O.2     1  UNL1       -0.2917
      2 C           0.2490    0.4480   -0.0630 C.2     1  UNL1        0.1678
      3 C           1.3030   -0.5870    0.0650 C.3     1  UNL1        0.0356
      4 C           2.6590   -0.0340   -0.0670 C.ar    1  UNL1       -0.0399
      5 C           3.2130    0.0220   -1.3440 C.ar    1  UNL1       -0.0582
      6 C           4.4670    0.5310   -1.4840 C.ar    1  UNL1       -0.0615
      7 C           5.1900    0.9860   -0.3910 C.ar    1  UNL1       -0.0617
      8 C           4.6390    0.9310    0.8870 C.ar    1  UNL1       -0.0615
      9 C           3.3710    0.4160    1.0190 C.ar    1  UNL1       -0.0582
     10 C          -1.1420    0.0420    0.0460 C.ar    1  UNL1        0.0278
     11 C          -1.4510   -1.2830    0.2660 C.ar    1  UNL1       -0.0056
     12 C          -2.7430   -1.7370    0.3790 C.ar    1  UNL1        0.1659
     13 O          -3.0330   -3.0770    0.6000 O.3     1  UNL1       -0.5031
     14 C          -3.7910   -0.7910    0.2620 C.ar    1  UNL1        0.2370
     15 O          -5.0660   -1.2520    0.3790 O.3     1  UNL1       -0.4989
     16 C          -3.5240    0.5360    0.0430 C.ar    1  UNL1        0.3184
     17 N          -4.5110    1.5280   -0.0790 N.pl3   1  UNL1        0.0836
     18 O          -5.5960    1.2980   -0.5960 O.2     1  UNL1        0.0416
     19 O          -4.2520    2.8050    0.3710 O.co2   1  UNL1       -0.5759
     20 C          -2.1780    0.9450   -0.0640 C.ar    1  UNL1        0.0301
     21 H           1.1566   -1.3212   -0.6994 H       1  UNL1        0.0394
     22 H           1.2211   -1.0131    1.0431 H       1  UNL1        0.0394
     23 H           2.6848   -0.3146   -2.1642 H       1  UNL1        0.0620
     24 H           4.8897    0.5797   -2.4242 H       1  UNL1        0.0618
     25 H           6.1398    1.3667   -0.5253 H       1  UNL1        0.0618
     26 H           5.1657    1.2661    1.7087 H       1  UNL1        0.0618
     27 H           2.9433    0.3661    1.9569 H       1  UNL1        0.0620
     28 H          -0.6793   -1.9631    0.3494 H       1  UNL1        0.0662
     29 H          -2.3377   -3.7003    0.6769 H       1  UNL1        0.2923
     30 H          -5.2227   -2.1636    0.5285 H       1  UNL1        0.2925
     31 H          -1.9644    1.9412   -0.2281 H       1  UNL1        0.0694
@<TRIPOS>UNITY_ATOM_ATTR
17 1
charge 1
19 1
charge -1
@<TRIPOS>BOND
     1     1     2    2
     2     2     3    1
     3     2    10    1
     4     3     4    1
     5     4     5   ar
     6     4     9   ar
     7     5     6   ar
     8     6     7   ar
     9     7     8   ar
    10     8     9   ar
    11    10    11   ar
    12    10    20   ar
    13    11    12   ar
    14    12    13    1
    15    12    14   ar
    16    14    15    1
    17    14    16   ar
    18    16    17    1
    19    16    20   ar
    20    17    18    2
    21    17    19    1
    22     3    21    1
    23     3    22    1
    24     5    23    1
    25     6    24    1
    26     7    25    1
    27     8    26    1
    28     9    27    1
    29    11    28    1
    30    13    29    1
    31    15    30    1
    32    20    31    1
@<TRIPOS>MOLECULE
../data/bude_mols_rdkit_confs/molecule_44.pdb
 31 32 0 0 0
SMALL
GASTEIGER

@<TRIPOS>ATOM
      1 O           0.5640    1.1420   -1.9860 O.2     1  UNL1       -0.2917
      2 C           0.3610    1.0910   -0.7180 C.2     1  UNL1        0.1678
      3 C           1.5150    1.4180    0.1160 C.3     1  UNL1        0.0356
      4 C           2.5540    0.3360    0.0830 C.ar    1  UNL1       -0.0399
      5 C           3.3330    0.1210   -1.0180 C.ar    1  UNL1       -0.0582
      6 C           4.2910   -0.8730   -1.0390 C.ar    1  UNL1       -0.0615
      7 C           4.4830   -1.6890    0.0870 C.ar    1  UNL1       -0.0617
      8 C           3.6940   -1.4650    1.1940 C.ar    1  UNL1       -0.0615
      9 C           2.7390   -0.4760    1.2150 C.ar    1  UNL1       -0.0582
     10 C          -0.9680    0.7210   -0.2800 C.ar    1  UNL1        0.0278
     11 C          -1.2960    0.6030    1.0480 C.ar    1  UNL1       -0.0056
     12 C          -2.5370    0.2360    1.5280 C.ar    1  UNL1        0.1659
     13 O          -2.8230    0.1290    2.8670 O.3     1  UNL1       -0.5031
     14 C          -3.5350   -0.0370    0.6090 C.ar    1  UNL1        0.2370
     15 O          -4.8090   -0.4110    0.9340 O.3     1  UNL1       -0.4989
     16 C          -3.2450    0.0700   -0.7540 C.ar    1  UNL1        0.3184
     17 N          -4.2360   -0.2250   -1.7250 N.pl3   1  UNL1        0.0836
     18 O          -5.1290   -1.0590   -1.5180 O.2     1  UNL1        0.0416
     19 O          -4.2230    0.4220   -2.9230 O.co2   1  UNL1       -0.5759
     20 C          -1.9840    0.4430   -1.1740 C.ar    1  UNL1        0.0301
     21 H           1.1858    1.5507    1.1254 H       1  UNL1        0.0394
     22 H           1.9573    2.3141   -0.2666 H       1  UNL1        0.0394
     23 H           3.2028    0.7143   -1.8523 H       1  UNL1        0.0620
     24 H           4.8666   -1.0163   -1.8835 H       1  UNL1        0.0618
     25 H           5.1953   -2.4358    0.0856 H       1  UNL1        0.0618
     26 H           3.8233   -2.0557    2.0303 H       1  UNL1        0.0618
     27 H           2.1611   -0.3308    2.0576 H       1  UNL1        0.0620
     28 H          -0.5579    0.8042    1.7406 H       1  UNL1        0.0662
     29 H          -2.1598    0.3100    3.5037 H       1  UNL1        0.2923
     30 H          -5.0567   -0.4979    1.8335 H       1  UNL1        0.2925
     31 H          -1.7946    0.5164   -2.1858 H       1  UNL1        0.0694
@<TRIPOS>UNITY_ATOM_ATTR
17 1
charge 1
19 1
charge -1
@<TRIPOS>BOND
     1     1     2    2
     2     2     3    1
     3     2    10    1
     4     3     4    1
     5     4     5   ar
     6     4     9   ar
     7     5     6   ar
     8     6     7   ar
     9     7     8   ar
    10     8     9   ar
    11    10    11   ar
    12    10    20   ar
    13    11    12   ar
    14    12    13    1
    15    12    14   ar
    16    14    15    1
    17    14    16   ar
    18    16    17    1
    19    16    20   ar
    20    17    18    2
    21    17    19    1
    22     3    21    1
    23     3    22    1
    24     5    23    1
    25     6    24    1
    26     7    25    1
    27     8    26    1
    28     9    27    1
    29    11    28    1
    30    13    29    1
    31    15    30    1
    32    20    31    1
@<TRIPOS>MOLECULE
../data/bude_mols_rdkit_confs/molecule_44.pdb
 31 32 0 0 0
SMALL
GASTEIGER

@<TRIPOS>ATOM
      1 O           0.9180    1.0700   -1.2660 O.2     1  UNL1       -0.2917
      2 C           0.3130    0.3540   -0.4500 C.2     1  UNL1        0.1678
      3 C           1.0540   -0.4700    0.5330 C.3     1  UNL1        0.0356
      4 C           2.5180   -0.3320    0.4180 C.ar    1  UNL1       -0.0399
      5 C           3.2160   -1.1890   -0.4230 C.ar    1  UNL1       -0.0582
      6 C           4.5650   -1.0660   -0.5300 C.ar    1  UNL1       -0.0615
      7 C           5.2140   -0.0930    0.1980 C.ar    1  UNL1       -0.0617
      8 C           4.5300    0.7670    1.0400 C.ar    1  UNL1       -0.0615
      9 C           3.1640    0.6450    1.1510 C.ar    1  UNL1       -0.0582
     10 C          -1.1420    0.2930   -0.4240 C.ar    1  UNL1        0.0278
     11 C          -1.8570    1.0490   -1.3270 C.ar    1  UNL1       -0.0056
     12 C          -3.2320    1.0540   -1.3760 C.ar    1  UNL1        0.1659
     13 O          -3.9230    1.8430   -2.3170 O.3     1  UNL1       -0.5031
     14 C          -3.9170    0.2650   -0.4770 C.ar    1  UNL1        0.2370
     15 O          -5.3160    0.2350   -0.4850 O.3     1  UNL1       -0.4989
     16 C          -3.2260   -0.5100    0.4480 C.ar    1  UNL1        0.3184
     17 N          -3.9190   -1.3210    1.3740 N.pl3   1  UNL1        0.0836
     18 O          -3.3650   -2.3360    1.8140 O.2     1  UNL1        0.0416
     19 O          -5.1780   -1.0110    1.7920 O.co2   1  UNL1       -0.5759
     20 C          -1.8370   -0.4910    0.4690 C.ar    1  UNL1        0.0301
     21 H           0.7958   -1.4970    0.3797 H       1  UNL1        0.0394
     22 H           0.7773   -0.1282    1.5085 H       1  UNL1        0.0394
     23 H           2.7147   -1.9126   -0.9617 H       1  UNL1        0.0620
     24 H           5.0981   -1.6952   -1.1504 H       1  UNL1        0.0618
     25 H           6.2385   -0.0027    0.1133 H       1  UNL1        0.0618
     26 H           5.0369    1.4885    1.5762 H       1  UNL1        0.0618
     27 H           2.6304    1.2733    1.7719 H       1  UNL1        0.0620
     28 H          -1.3379    1.6380   -1.9968 H       1  UNL1        0.0662
     29 H          -3.4457    2.3751   -2.9228 H       1  UNL1        0.2923
     30 H          -5.7922    0.7530   -1.1037 H       1  UNL1        0.2925
     31 H          -1.3248   -1.0662    1.1559 H       1  UNL1        0.0694
@<TRIPOS>UNITY_ATOM_ATTR
17 1
charge 1
19 1
charge -1
@<TRIPOS>BOND
     1     1     2    2
     2     2     3    1
     3     2    10    1
     4     3     4    1
     5     4     5   ar
     6     4     9   ar
     7     5     6   ar
     8     6     7   ar
     9     7     8   ar
    10     8     9   ar
    11    10    11   ar
    12    10    20   ar
    13    11    12   ar
    14    12    13    1
    15    12    14   ar
    16    14    15    1
    17    14    16   ar
    18    16    17    1
    19    16    20   ar
    20    17    18    2
    21    17    19    1
    22     3    21    1
    23     3    22    1
    24     5    23    1
    25     6    24    1
    26     7    25    1
    27     8    26    1
    28     9    27    1
    29    11    28    1
    30    13    29    1
    31    15    30    1
    32    20    31    1
@<TRIPOS>MOLECULE
../data/bude_mols_rdkit_confs/molecule_44.pdb
 31 32 0 0 0
SMALL
GASTEIGER

@<TRIPOS>ATOM
      1 O           0.8260   -1.7810    0.1070 O.2     1  UNL1       -0.2917
      2 C           0.2980   -0.6460   -0.1160 C.2     1  UNL1        0.1678
      3 C           1.1160    0.5500   -0.4330 C.3     1  UNL1        0.0356
      4 C           2.5530    0.2840   -0.4580 C.ar    1  UNL1       -0.0399
      5 C           3.2520   -0.1100   -1.5920 C.ar    1  UNL1       -0.0582
      6 C           4.6110   -0.3360   -1.5100 C.ar    1  UNL1       -0.0615
      7 C           5.3190   -0.1840   -0.3200 C.ar    1  UNL1       -0.0617
      8 C           4.6150    0.2080    0.8010 C.ar    1  UNL1       -0.0615
      9 C           3.2760    0.4280    0.7070 C.ar    1  UNL1       -0.0582
     10 C          -1.1430   -0.4920   -0.0640 C.ar    1  UNL1        0.0278
     11 C          -1.9290   -1.5810    0.2280 C.ar    1  UNL1       -0.0056
     12 C          -3.2980   -1.5030    0.2950 C.ar    1  UNL1        0.1659
     13 O          -4.0900   -2.6070    0.5910 O.3     1  UNL1       -0.5031
     14 C          -3.8990   -0.2550    0.0520 C.ar    1  UNL1        0.2370
     15 O          -5.2640   -0.2040    0.1220 O.3     1  UNL1       -0.4989
     16 C          -3.1410    0.8390   -0.2400 C.ar    1  UNL1        0.3184
     17 N          -3.7270    2.1000   -0.4880 N.pl3   1  UNL1        0.0836
     18 O          -4.7460    2.4690    0.0630 O.2     1  UNL1        0.0416
     19 O          -3.0870    2.9320   -1.3900 O.co2   1  UNL1       -0.5759
     20 C          -1.7440    0.7140   -0.2980 C.ar    1  UNL1        0.0301
     21 H           0.9230    1.2982    0.3072 H       1  UNL1        0.0394
     22 H           0.8381    0.8698   -1.4156 H       1  UNL1        0.0394
     23 H           2.7583   -0.2329   -2.4899 H       1  UNL1        0.0620
     24 H           5.1200   -0.6275   -2.3591 H       1  UNL1        0.0618
     25 H           6.3353   -0.3585   -0.2778 H       1  UNL1        0.0618
     26 H           5.1007    0.3331    1.7029 H       1  UNL1        0.0618
     27 H           2.7712    0.7201    1.5584 H       1  UNL1        0.0620
     28 H          -1.4736   -2.4903    0.4032 H       1  UNL1        0.0662
     29 H          -3.6916   -3.4394    0.7532 H       1  UNL1        0.2923
     30 H          -5.7519   -0.9776    0.3256 H       1  UNL1        0.2925
     31 H          -1.1654    1.5394   -0.5192 H       1  UNL1        0.0694
@<TRIPOS>UNITY_ATOM_ATTR
17 1
charge 1
19 1
charge -1
@<TRIPOS>BOND
     1     1     2    2
     2     2     3    1
     3     2    10    1
     4     3     4    1
     5     4     5   ar
     6     4     9   ar
     7     5     6   ar
     8     6     7   ar
     9     7     8   ar
    10     8     9   ar
    11    10    11   ar
    12    10    20   ar
    13    11    12   ar
    14    12    13    1
    15    12    14   ar
    16    14    15    1
    17    14    16   ar
    18    16    17    1
    19    16    20   ar
    20    17    18    2
    21    17    19    1
    22     3    21    1
    23     3    22    1
    24     5    23    1
    25     6    24    1
    26     7    25    1
    27     8    26    1
    28     9    27    1
    29    11    28    1
    30    13    29    1
    31    15    30    1
    32    20    31    1
@<TRIPOS>MOLECULE
../data/bude_mols_rdkit_confs/molecule_44.pdb
 31 32 0 0 0
SMALL
GASTEIGER

@<TRIPOS>ATOM
      1 O           1.1180    1.2550    0.4850 O.2     1  UNL1       -0.2917
      2 C           0.3670    0.3370    0.0670 C.2     1  UNL1        0.1678
      3 C           0.9120   -0.9500   -0.4130 C.3     1  UNL1        0.0356
      4 C           2.3720   -0.9160   -0.3020 C.ar    1  UNL1       -0.0399
      5 C           2.9980   -1.3480    0.8640 C.ar    1  UNL1       -0.0582
      6 C           4.3750   -1.3060    0.9410 C.ar    1  UNL1       -0.0615
      7 C           5.1180   -0.8440   -0.1190 C.ar    1  UNL1       -0.0617
      8 C           4.5230   -0.4030   -1.3030 C.ar    1  UNL1       -0.0615
      9 C           3.1480   -0.4590   -1.3460 C.ar    1  UNL1       -0.0582
     10 C          -1.0640    0.5950    0.0750 C.ar    1  UNL1        0.0278
     11 C          -1.6090    1.7810    0.5150 C.ar    1  UNL1       -0.0056
     12 C          -2.9670    2.0190    0.5210 C.ar    1  UNL1        0.1659
     13 O          -3.5300    3.2100    0.9610 O.3     1  UNL1       -0.5031
     14 C          -3.8000    1.0150    0.0620 C.ar    1  UNL1        0.2370
     15 O          -5.1900    1.2340    0.0580 O.3     1  UNL1       -0.4989
     16 C          -3.2840   -0.1820   -0.3840 C.ar    1  UNL1        0.3184
     17 N          -4.0980   -1.2310   -0.8590 N.pl3   1  UNL1        0.0836
     18 O          -5.2300   -1.3900   -0.3910 O.2     1  UNL1        0.0416
     19 O          -3.6590   -2.0810   -1.8310 O.co2   1  UNL1       -0.5759
     20 C          -1.9190   -0.3740   -0.3700 C.ar    1  UNL1        0.0301
     21 H           0.6326   -1.0999   -1.4349 H       1  UNL1        0.0394
     22 H           0.5215   -1.7525    0.1772 H       1  UNL1        0.0394
     23 H           2.4399   -1.6949    1.6597 H       1  UNL1        0.0620
     24 H           4.8502   -1.6236    1.8003 H       1  UNL1        0.0618
     25 H           6.1465   -0.8223   -0.0375 H       1  UNL1        0.0618
     26 H           5.0810   -0.0557   -2.0987 H       1  UNL1        0.0618
     27 H           2.6728   -0.1420   -2.2055 H       1  UNL1        0.0620
     28 H          -0.9751    2.5215    0.8539 H       1  UNL1        0.0662
     29 H          -2.9798    3.9004    1.2751 H       1  UNL1        0.2923
     30 H          -5.5367    2.0496    0.3622 H       1  UNL1        0.2925
     31 H          -1.5333   -1.2712   -0.7036 H       1  UNL1        0.0694
@<TRIPOS>UNITY_ATOM_ATTR
17 1
charge 1
19 1
charge -1
@<TRIPOS>BOND
     1     1     2    2
     2     2     3    1
     3     2    10    1
     4     3     4    1
     5     4     5   ar
     6     4     9   ar
     7     5     6   ar
     8     6     7   ar
     9     7     8   ar
    10     8     9   ar
    11    10    11   ar
    12    10    20   ar
    13    11    12   ar
    14    12    13    1
    15    12    14   ar
    16    14    15    1
    17    14    16   ar
    18    16    17    1
    19    16    20   ar
    20    17    18    2
    21    17    19    1
    22     3    21    1
    23     3    22    1
    24     5    23    1
    25     6    24    1
    26     7    25    1
    27     8    26    1
    28     9    27    1
    29    11    28    1
    30    13    29    1
    31    15    30    1
    32    20    31    1
@<TRIPOS>MOLECULE
../data/bude_mols_rdkit_confs/molecule_44.pdb
 31 32 0 0 0
SMALL
GASTEIGER

@<TRIPOS>ATOM
      1 O           0.9410   -1.3080   -1.0450 O.2     1  UNL1       -0.2917
      2 C           0.3210   -0.4310   -0.4490 C.2     1  UNL1        0.1678
      3 C           1.0400    0.6030    0.3270 C.3     1  UNL1        0.0356
      4 C           2.5090    0.4040    0.2590 C.ar    1  UNL1       -0.0399
      5 C           3.1280   -0.3930    1.2140 C.ar    1  UNL1       -0.0582
      6 C           4.5000   -0.6040    1.1890 C.ar    1  UNL1       -0.0615
      7 C           5.2710   -0.0220    0.2090 C.ar    1  UNL1       -0.0617
      8 C           4.6770    0.7620   -0.7330 C.ar    1  UNL1       -0.0615
      9 C           3.3060    0.9790   -0.7150 C.ar    1  UNL1       -0.0582
     10 C          -1.1290   -0.3720   -0.4800 C.ar    1  UNL1        0.0278
     11 C          -1.8820   -1.3090   -1.1870 C.ar    1  UNL1       -0.0056
     12 C          -3.2590   -1.2680   -1.2270 C.ar    1  UNL1        0.1659
     13 O          -3.9930   -2.2030   -1.9330 O.3     1  UNL1       -0.5031
     14 C          -3.9470   -0.2840   -0.5580 C.ar    1  UNL1        0.2370
     15 O          -5.3190   -0.1660   -0.5420 O.3     1  UNL1       -0.4989
     16 C          -3.2260    0.6610    0.1540 C.ar    1  UNL1        0.3184
     17 N          -3.8840    1.7010    0.8650 N.pl3   1  UNL1        0.0836
     18 O          -3.3660    2.8070    1.0960 O.2     1  UNL1        0.0416
     19 O          -5.1610    1.4850    1.3260 O.co2   1  UNL1       -0.5759
     20 C          -1.8470    0.6070    0.1850 C.ar    1  UNL1        0.0301
     21 H           0.7282    0.5512    1.3493 H       1  UNL1        0.0394
     22 H           0.8092    1.5605   -0.0912 H       1  UNL1        0.0394
     23 H           2.5593   -0.8349    1.9532 H       1  UNL1        0.0620
     24 H           4.9426   -1.1987    1.9070 H       1  UNL1        0.0618
     25 H           6.2909   -0.1783    0.1880 H       1  UNL1        0.0618
     26 H           5.2529    1.1999   -1.4689 H       1  UNL1        0.0618
     27 H           2.8756    1.5770   -1.4376 H       1  UNL1        0.0620
     28 H          -1.3910   -2.0592   -1.6980 H       1  UNL1        0.0662
     29 H          -3.5549   -2.8870   -2.4001 H       1  UNL1        0.2923
     30 H          -5.8477   -0.7824   -1.0094 H       1  UNL1        0.2925
     31 H          -1.3330    1.3220    0.7231 H       1  UNL1        0.0694
@<TRIPOS>UNITY_ATOM_ATTR
17 1
charge 1
19 1
charge -1
@<TRIPOS>BOND
     1     1     2    2
     2     2     3    1
     3     2    10    1
     4     3     4    1
     5     4     5   ar
     6     4     9   ar
     7     5     6   ar
     8     6     7   ar
     9     7     8   ar
    10     8     9   ar
    11    10    11   ar
    12    10    20   ar
    13    11    12   ar
    14    12    13    1
    15    12    14   ar
    16    14    15    1
    17    14    16   ar
    18    16    17    1
    19    16    20   ar
    20    17    18    2
    21    17    19    1
    22     3    21    1
    23     3    22    1
    24     5    23    1
    25     6    24    1
    26     7    25    1
    27     8    26    1
    28     9    27    1
    29    11    28    1
    30    13    29    1
    31    15    30    1
    32    20    31    1
@<TRIPOS>MOLECULE
../data/bude_mols_rdkit_confs/molecule_44.pdb
 31 32 0 0 0
SMALL
GASTEIGER

@<TRIPOS>ATOM
      1 O          -0.5060    2.1500   -0.0780 O.2     1  UNL1       -0.2917
      2 C          -0.2070    1.1010    0.5880 C.2     1  UNL1        0.1678
      3 C          -1.2640    0.6140    1.5040 C.3     1  UNL1        0.0356
      4 C          -2.4600    0.3300    0.6540 C.ar    1  UNL1       -0.0399
      5 C          -2.5690   -0.9700    0.1630 C.ar    1  UNL1       -0.0582
      6 C          -3.6520   -1.2670   -0.6280 C.ar    1  UNL1       -0.0615
      7 C          -4.6070   -0.3010   -0.9280 C.ar    1  UNL1       -0.0617
      8 C          -4.4690    0.9890   -0.4210 C.ar    1  UNL1       -0.0615
      9 C          -3.3900    1.3060    0.3740 C.ar    1  UNL1       -0.0582
     10 C           1.0960    0.4670    0.4190 C.ar    1  UNL1        0.0278
     11 C           1.4700   -0.6660    1.0970 C.ar    1  UNL1       -0.0056
     12 C           2.6990   -1.2600    0.9210 C.ar    1  UNL1        0.1659
     13 O           3.0480   -2.4180    1.6320 O.3     1  UNL1       -0.5031
     14 C           3.5730   -0.6880    0.0330 C.ar    1  UNL1        0.2370
     15 O           4.8160   -1.2480   -0.1780 O.3     1  UNL1       -0.4989
     16 C           3.2260    0.4630   -0.6720 C.ar    1  UNL1        0.3184
     17 N           4.1310    1.0520   -1.5820 N.pl3   1  UNL1        0.0836
     18 O           4.9220    0.3320   -2.2080 O.2     1  UNL1        0.0416
     19 O           4.1520    2.4090   -1.7870 O.co2   1  UNL1       -0.5759
     20 C           1.9910    1.0380   -0.4790 C.ar    1  UNL1        0.0301
     21 H          -1.4967    1.3627    2.2321 H       1  UNL1        0.0394
     22 H          -0.9469   -0.2606    2.0326 H       1  UNL1        0.0394
     23 H          -1.8596   -1.6855    0.3863 H       1  UNL1        0.0620
     24 H          -3.7588   -2.2215   -1.0056 H       1  UNL1        0.0618
     25 H          -5.4150   -0.5393   -1.5242 H       1  UNL1        0.0618
     26 H          -5.1759    1.7079   -0.6413 H       1  UNL1        0.0618
     27 H          -3.2803    2.2594    0.7536 H       1  UNL1        0.0620
     28 H           0.8050   -1.0883    1.7636 H       1  UNL1        0.0662
     29 H           2.4405   -2.7980    2.2357 H       1  UNL1        0.2923
     30 H           5.0663   -2.0219    0.2872 H       1  UNL1        0.2925
     31 H           1.7298    1.8903   -0.9990 H       1  UNL1        0.0694
@<TRIPOS>UNITY_ATOM_ATTR
17 1
charge 1
19 1
charge -1
@<TRIPOS>BOND
     1     1     2    2
     2     2     3    1
     3     2    10    1
     4     3     4    1
     5     4     5   ar
     6     4     9   ar
     7     5     6   ar
     8     6     7   ar
     9     7     8   ar
    10     8     9   ar
    11    10    11   ar
    12    10    20   ar
    13    11    12   ar
    14    12    13    1
    15    12    14   ar
    16    14    15    1
    17    14    16   ar
    18    16    17    1
    19    16    20   ar
    20    17    18    2
    21    17    19    1
    22     3    21    1
    23     3    22    1
    24     5    23    1
    25     6    24    1
    26     7    25    1
    27     8    26    1
    28     9    27    1
    29    11    28    1
    30    13    29    1
    31    15    30    1
    32    20    31    1
@<TRIPOS>MOLECULE
../data/bude_mols_rdkit_confs/molecule_44.pdb
 31 32 0 0 0
SMALL
GASTEIGER

@<TRIPOS>ATOM
      1 O          -0.6910   -2.3190   -0.9430 O.2     1  UNL1       -0.2917
      2 C          -0.3520   -1.0920   -0.9630 C.2     1  UNL1        0.1678
      3 C          -1.3210   -0.1010   -1.4280 C.3     1  UNL1        0.0356
      4 C          -2.4100    0.1010   -0.4100 C.ar    1  UNL1       -0.0399
      5 C          -2.3820    1.2180    0.4130 C.ar    1  UNL1       -0.0582
      6 C          -3.3200    1.4480    1.3700 C.ar    1  UNL1       -0.0615
      7 C          -4.3370    0.5160    1.5130 C.ar    1  UNL1       -0.0617
      8 C          -4.4190   -0.6120    0.7270 C.ar    1  UNL1       -0.0615
      9 C          -3.4220   -0.7820   -0.2360 C.ar    1  UNL1       -0.0582
     10 C           0.9710   -0.7590   -0.5180 C.ar    1  UNL1        0.0278
     11 C           1.8700   -1.7360   -0.1160 C.ar    1  UNL1       -0.0056
     12 C           3.1370   -1.4290    0.3500 C.ar    1  UNL1        0.1659
     13 O           4.0130   -2.4480    0.7460 O.3     1  UNL1       -0.5031
     14 C           3.4790   -0.0920    0.4010 C.ar    1  UNL1        0.2370
     15 O           4.7130    0.2840    0.8500 O.3     1  UNL1       -0.4989
     16 C           2.6040    0.9200    0.0060 C.ar    1  UNL1        0.3184
     17 N           2.9640    2.2850    0.0730 N.pl3   1  UNL1        0.0836
     18 O           2.0950    3.1490    0.2240 O.2     1  UNL1        0.0416
     19 O           4.2720    2.6380   -0.0280 O.co2   1  UNL1       -0.5759
     20 C           1.3580    0.5510   -0.4480 C.ar    1  UNL1        0.0301
     21 H          -1.7565   -0.4397   -2.3448 H       1  UNL1        0.0394
     22 H          -0.8145    0.8297   -1.5773 H       1  UNL1        0.0394
     23 H          -1.6183    1.9018    0.2938 H       1  UNL1        0.0620
     24 H          -3.2767    2.2871    1.9692 H       1  UNL1        0.0618
     25 H          -5.0582    0.6733    2.2342 H       1  UNL1        0.0618
     26 H          -5.1806   -1.2986    0.8441 H       1  UNL1        0.0618
     27 H          -3.4580   -1.6169   -0.8415 H       1  UNL1        0.0620
     28 H           1.5843   -2.7264   -0.1661 H       1  UNL1        0.0662
     29 H           3.7428   -3.3438    0.6961 H       1  UNL1        0.2923
     30 H           5.3297   -0.3658    1.1246 H       1  UNL1        0.2925
     31 H           0.6959    1.2849   -0.7445 H       1  UNL1        0.0694
@<TRIPOS>UNITY_ATOM_ATTR
17 1
charge 1
19 1
charge -1
@<TRIPOS>BOND
     1     1     2    2
     2     2     3    1
     3     2    10    1
     4     3     4    1
     5     4     5   ar
     6     4     9   ar
     7     5     6   ar
     8     6     7   ar
     9     7     8   ar
    10     8     9   ar
    11    10    11   ar
    12    10    20   ar
    13    11    12   ar
    14    12    13    1
    15    12    14   ar
    16    14    15    1
    17    14    16   ar
    18    16    17    1
    19    16    20   ar
    20    17    18    2
    21    17    19    1
    22     3    21    1
    23     3    22    1
    24     5    23    1
    25     6    24    1
    26     7    25    1
    27     8    26    1
    28     9    27    1
    29    11    28    1
    30    13    29    1
    31    15    30    1
    32    20    31    1
@<TRIPOS>MOLECULE
../data/bude_mols_rdkit_confs/molecule_44.pdb
 31 32 0 0 0
SMALL
GASTEIGER

@<TRIPOS>ATOM
      1 O           0.8760    0.8000    1.0560 O.2     1  UNL1       -0.2917
      2 C           0.2970    0.1650    0.1400 C.2     1  UNL1        0.1678
      3 C           1.1330   -0.4350   -0.9280 C.3     1  UNL1        0.0356
      4 C           2.5680   -0.1590   -0.6980 C.ar    1  UNL1       -0.0399
      5 C           3.3440   -1.0080    0.0310 C.ar    1  UNL1       -0.0582
      6 C           4.6710   -0.7520    0.2450 C.ar    1  UNL1       -0.0615
      7 C           5.2320    0.3990   -0.2950 C.ar    1  UNL1       -0.0617
      8 C           4.4810    1.2780   -1.0350 C.ar    1  UNL1       -0.0615
      9 C           3.1420    0.9800   -1.2260 C.ar    1  UNL1       -0.0582
     10 C          -1.1740    0.0190    0.1250 C.ar    1  UNL1        0.0278
     11 C          -1.8120   -0.6750   -0.8750 C.ar    1  UNL1       -0.0056
     12 C          -3.1820   -0.8190   -0.8990 C.ar    1  UNL1        0.1659
     13 O          -3.8300   -1.5200   -1.9090 O.3     1  UNL1       -0.5031
     14 C          -3.9800   -0.2550    0.1090 C.ar    1  UNL1        0.2370
     15 O          -5.3430   -0.4260    0.0390 O.3     1  UNL1       -0.4989
     16 C          -3.3450    0.4370    1.1080 C.ar    1  UNL1        0.3184
     17 N          -4.1000    1.0280    2.1510 N.pl3   1  UNL1        0.0836
     18 O          -5.1410    0.6240    2.6420 O.2     1  UNL1        0.0416
     19 O          -3.5720    2.2100    2.6770 O.co2   1  UNL1       -0.5759
     20 C          -1.9450    0.5730    1.1150 C.ar    1  UNL1        0.0301
     21 H           0.8443   -0.0216   -1.8717 H       1  UNL1        0.0394
     22 H           0.9849   -1.4947   -0.9211 H       1  UNL1        0.0394
     23 H           2.9228   -1.8615    0.4300 H       1  UNL1        0.0620
     24 H           5.2470   -1.4044    0.7996 H       1  UNL1        0.0618
     25 H           6.2324    0.5967   -0.1366 H       1  UNL1        0.0618
     26 H           4.8999    2.1319   -1.4354 H       1  UNL1        0.0618
     27 H           2.5575    1.6270   -1.7780 H       1  UNL1        0.0620
     28 H          -1.2495   -1.1000   -1.6286 H       1  UNL1        0.0662
     29 H          -3.3335   -1.9116   -2.6004 H       1  UNL1        0.2923
     30 H          -5.7186   -0.9101   -0.6699 H       1  UNL1        0.2925
     31 H          -1.4902    1.0985    1.8779 H       1  UNL1        0.0694
@<TRIPOS>UNITY_ATOM_ATTR
17 1
charge 1
19 1
charge -1
@<TRIPOS>BOND
     1     1     2    2
     2     2     3    1
     3     2    10    1
     4     3     4    1
     5     4     5   ar
     6     4     9   ar
     7     5     6   ar
     8     6     7   ar
     9     7     8   ar
    10     8     9   ar
    11    10    11   ar
    12    10    20   ar
    13    11    12   ar
    14    12    13    1
    15    12    14   ar
    16    14    15    1
    17    14    16   ar
    18    16    17    1
    19    16    20   ar
    20    17    18    2
    21    17    19    1
    22     3    21    1
    23     3    22    1
    24     5    23    1
    25     6    24    1
    26     7    25    1
    27     8    26    1
    28     9    27    1
    29    11    28    1
    30    13    29    1
    31    15    30    1
    32    20    31    1
@<TRIPOS>MOLECULE
../data/bude_mols_rdkit_confs/molecule_44.pdb
 31 32 0 0 0
SMALL
GASTEIGER

@<TRIPOS>ATOM
      1 O          -0.5240    1.1620   -1.2660 O.2     1  UNL1       -0.2917
      2 C          -0.2340    0.2980   -0.4140 C.2     1  UNL1        0.1678
      3 C          -1.2830   -0.4280    0.3180 C.3     1  UNL1        0.0356
      4 C          -2.6450   -0.0040   -0.0850 C.ar    1  UNL1       -0.0399
      5 C          -3.3020   -0.6490   -1.1310 C.ar    1  UNL1       -0.0582
      6 C          -4.5680   -0.2890   -1.5420 C.ar    1  UNL1       -0.0615
      7 C          -5.1860    0.7450   -0.8830 C.ar    1  UNL1       -0.0617
      8 C          -4.5740    1.4180    0.1640 C.ar    1  UNL1       -0.0615
      9 C          -3.3050    1.0300    0.5470 C.ar    1  UNL1       -0.0582
     10 C           1.1600    0.0040   -0.1400 C.ar    1  UNL1        0.0278
     11 C           1.5020   -0.9560    0.8080 C.ar    1  UNL1       -0.0056
     12 C           2.8590   -1.2170    1.0490 C.ar    1  UNL1        0.1659
     13 O           3.1880   -2.1760    1.9960 O.3     1  UNL1       -0.5031
     14 C           3.8070   -0.5200    0.3470 C.ar    1  UNL1        0.2370
     15 O           5.1410   -0.7290    0.5380 O.3     1  UNL1       -0.4989
     16 C           3.4750    0.4470   -0.6080 C.ar    1  UNL1        0.3184
     17 N           4.4860    1.1450   -1.3120 N.pl3   1  UNL1        0.0836
     18 O           4.2340    2.2820   -1.7330 O.2     1  UNL1        0.0416
     19 O           5.7120    0.6010   -1.5340 O.co2   1  UNL1       -0.5759
     20 C           2.1430    0.6910   -0.8330 C.ar    1  UNL1        0.0301
     21 H          -1.1613   -0.2454    1.3653 H       1  UNL1        0.0394
     22 H          -1.1824   -1.4684    0.0890 H       1  UNL1        0.0394
     23 H          -2.8236   -1.4244   -1.6157 H       1  UNL1        0.0620
     24 H          -5.0358   -0.7806   -2.3195 H       1  UNL1        0.0618
     25 H          -6.1339    1.0298   -1.1754 H       1  UNL1        0.0618
     26 H          -5.0565    2.1922    0.6466 H       1  UNL1        0.0618
     27 H          -2.8396    1.5249    1.3239 H       1  UNL1        0.0620
     28 H           0.7695   -1.4672    1.3249 H       1  UNL1        0.0662
     29 H           2.5108   -2.6320    2.4559 H       1  UNL1        0.2923
     30 H           5.4310   -1.3634    1.1636 H       1  UNL1        0.2925
     31 H           1.8689    1.3995   -1.5315 H       1  UNL1        0.0694
@<TRIPOS>UNITY_ATOM_ATTR
17 1
charge 1
19 1
charge -1
@<TRIPOS>BOND
     1     1     2    2
     2     2     3    1
     3     2    10    1
     4     3     4    1
     5     4     5   ar
     6     4     9   ar
     7     5     6   ar
     8     6     7   ar
     9     7     8   ar
    10     8     9   ar
    11    10    11   ar
    12    10    20   ar
    13    11    12   ar
    14    12    13    1
    15    12    14   ar
    16    14    15    1
    17    14    16   ar
    18    16    17    1
    19    16    20   ar
    20    17    18    2
    21    17    19    1
    22     3    21    1
    23     3    22    1
    24     5    23    1
    25     6    24    1
    26     7    25    1
    27     8    26    1
    28     9    27    1
    29    11    28    1
    30    13    29    1
    31    15    30    1
    32    20    31    1
@<TRIPOS>MOLECULE
../data/bude_mols_rdkit_confs/molecule_44.pdb
 31 32 0 0 0
SMALL
GASTEIGER

@<TRIPOS>ATOM
      1 O           0.5940    2.2170    0.3920 O.2     1  UNL1       -0.2917
      2 C           0.2480    1.2030   -0.3080 C.2     1  UNL1        0.1678
      3 C           1.2180    0.6360   -1.2770 C.3     1  UNL1        0.0356
      4 C           2.4300    0.2580   -0.5360 C.ar    1  UNL1       -0.0399
      5 C           3.4390    1.1640   -0.3350 C.ar    1  UNL1       -0.0582
      6 C           4.5960    0.7940    0.3740 C.ar    1  UNL1       -0.0615
      7 C           4.7070   -0.4960    0.8680 C.ar    1  UNL1       -0.0617
      8 C           3.6980   -1.4020    0.6650 C.ar    1  UNL1       -0.0615
      9 C           2.5690   -1.0110   -0.0360 C.ar    1  UNL1       -0.0582
     10 C          -1.0970    0.6910   -0.0810 C.ar    1  UNL1        0.0278
     11 C          -1.9540    1.2810    0.8320 C.ar    1  UNL1       -0.0056
     12 C          -3.2190    0.8020    1.0590 C.ar    1  UNL1        0.1659
     13 O          -4.0650    1.4050    1.9770 O.3     1  UNL1       -0.5031
     14 C          -3.7340   -0.3170    0.3840 C.ar    1  UNL1        0.2370
     15 O          -5.0200   -0.7250    0.6780 O.3     1  UNL1       -0.4989
     16 C          -2.8920   -0.9050   -0.5200 C.ar    1  UNL1        0.3184
     17 N          -3.3190   -2.0350   -1.2500 N.pl3   1  UNL1        0.0836
     18 O          -2.8410   -2.2330   -2.3680 O.2     1  UNL1        0.0416
     19 O          -4.2390   -2.8830   -0.7230 O.co2   1  UNL1       -0.5759
     20 C          -1.5960   -0.4050   -0.7450 C.ar    1  UNL1        0.0301
     21 H           1.4595    1.3675   -2.0197 H       1  UNL1        0.0394
     22 H           0.7992   -0.2184   -1.7663 H       1  UNL1        0.0394
     23 H           3.3491    2.1228   -0.7060 H       1  UNL1        0.0620
     24 H           5.3551    1.4767    0.5249 H       1  UNL1        0.0618
     25 H           5.5519   -0.7757    1.3904 H       1  UNL1        0.0618
     26 H           3.7787   -2.3639    1.0302 H       1  UNL1        0.0618
     27 H           1.8107   -1.6946   -0.1862 H       1  UNL1        0.0620
     28 H          -1.6308    2.1076    1.3586 H       1  UNL1        0.0662
     29 H          -3.7761    2.1556    2.4577 H       1  UNL1        0.2923
     30 H          -5.5253   -0.2589    1.3147 H       1  UNL1        0.2925
     31 H          -0.9954   -0.8803   -1.4367 H       1  UNL1        0.0694
@<TRIPOS>UNITY_ATOM_ATTR
17 1
charge 1
19 1
charge -1
@<TRIPOS>BOND
     1     1     2    2
     2     2     3    1
     3     2    10    1
     4     3     4    1
     5     4     5   ar
     6     4     9   ar
     7     5     6   ar
     8     6     7   ar
     9     7     8   ar
    10     8     9   ar
    11    10    11   ar
    12    10    20   ar
    13    11    12   ar
    14    12    13    1
    15    12    14   ar
    16    14    15    1
    17    14    16   ar
    18    16    17    1
    19    16    20   ar
    20    17    18    2
    21    17    19    1
    22     3    21    1
    23     3    22    1
    24     5    23    1
    25     6    24    1
    26     7    25    1
    27     8    26    1
    28     9    27    1
    29    11    28    1
    30    13    29    1
    31    15    30    1
    32    20    31    1
