@<TRIPOS>MOLECULE
../data/bude_mols_rdkit_confs/molecule_79.pdb
 42 44 0 0 0
SMALL
GASTEIGER

@<TRIPOS>ATOM
      1  N1         9.5510    1.1540   -0.7890 N.2     1  UNL1       -0.2986
      2  C1         8.3880    0.8730   -1.2890 C.2     1  UNL1        0.0685
      3  C2         7.2390    1.0970   -0.4990 C.1     1  UNL1       -0.0535
      4  C3         6.2590    1.2720    0.1550 C.1     1  UNL1       -0.0771
      5  C4         5.0310    1.4660    0.9660 C.3     1  UNL1        0.0742
      6  N2         3.8500    1.0490    0.2070 N.am    1  UNL1       -0.3004
      7  C5         2.5650    1.1420    0.7480 C.2     1  UNL1        0.2476
      8  O1         2.4890    1.6150    1.9400 O.2     1  UNL1       -0.2701
      9  C6         1.3380    0.7570    0.0720 C.ar    1  UNL1        0.0721
     10  C7         0.0990    1.1200    0.6290 C.ar    1  UNL1       -0.0433
     11  C8        -1.0990    0.8270    0.0410 C.ar    1  UNL1       -0.0406
     12  C9        -2.3590    1.2370    0.6790 C.3     1  UNL1        0.0171
     13  C10       -3.4720    0.4810    0.1160 C.ar    1  UNL1        0.0736
     14  N3        -4.2580    1.1230   -0.7700 N.ar    1  UNL1       -0.1750
     15  N4        -5.3020    0.5420   -1.3420 N.ar    1  UNL1       -0.2425
     16  C11       -5.6470   -0.7360   -1.0730 C.ar    1  UNL1        0.2725
     17  O2        -6.6300   -1.2980   -1.6070 O.2     1  UNL1       -0.2658
     18  C12       -4.8870   -1.4460   -0.1790 C.ar    1  UNL1        0.0496
     19  C13       -5.1760   -2.7510    0.1510 C.ar    1  UNL1       -0.0487
     20  C14       -4.4060   -3.4410    1.0510 C.ar    1  UNL1       -0.0610
     21  C15       -3.3130   -2.8180    1.6430 C.ar    1  UNL1       -0.0611
     22  C16       -3.0400   -1.5130    1.3010 C.ar    1  UNL1       -0.0521
     23  C17       -3.7940   -0.8110    0.4090 C.ar    1  UNL1        0.0106
     24  C18       -1.1410    0.1450   -1.1550 C.ar    1  UNL1       -0.0555
     25  C19        0.0530   -0.2270   -1.7280 C.ar    1  UNL1       -0.0254
     26  C20        1.2560    0.0820   -1.1140 C.ar    1  UNL1        0.1355
     27  F1         2.4020   -0.3160   -1.7210 F       1  UNL1       -0.2047
     28 H          10.3650    1.0056   -1.3224 H       1  UNL1        0.1867
     29 H           8.3038    0.4933   -2.2449 H       1  UNL1        0.0919
     30 H           4.9379    2.5003    1.2238 H       1  UNL1        0.0599
     31 H           5.1022    0.8722    1.8533 H       1  UNL1        0.0599
     32 H           3.9640    0.6953   -0.7047 H       1  UNL1        0.1499
     33 H           0.0943    1.6323    1.5249 H       1  UNL1        0.0629
     34 H          -2.5184    2.2814    0.5098 H       1  UNL1        0.0377
     35 H          -2.2995    1.0447    1.7299 H       1  UNL1        0.0377
     36 H          -5.8431    1.0575   -1.9829 H       1  UNL1        0.1921
     37 H          -5.9859   -3.2175   -0.2865 H       1  UNL1        0.0625
     38 H          -4.6365   -4.4186    1.2881 H       1  UNL1        0.0618
     39 H          -2.7211   -3.3216    2.3220 H       1  UNL1        0.0618
     40 H          -2.2301   -1.0465    1.7386 H       1  UNL1        0.0624
     41 H          -2.0408   -0.0800   -1.6074 H       1  UNL1        0.0621
     42 H           0.0527   -0.7407   -2.6230 H       1  UNL1        0.0646
@<TRIPOS>BOND
     1     1     2    2
     2     2     3    1
     3     3     4    3
     4     4     5    1
     5     5     6    1
     6     6     7   am
     7     7     8    2
     8     7     9    1
     9     9    10   ar
    10     9    26   ar
    11    10    11   ar
    12    11    12    1
    13    11    24   ar
    14    12    13    1
    15    13    14   ar
    16    13    23   ar
    17    14    15   ar
    18    15    16   ar
    19    16    17    2
    20    16    18   ar
    21    18    19   ar
    22    18    23   ar
    23    19    20   ar
    24    20    21   ar
    25    21    22   ar
    26    22    23   ar
    27    24    25   ar
    28    25    26   ar
    29    26    27    1
    30     1    28    1
    31     2    29    1
    32     5    30    1
    33     5    31    1
    34     6    32    1
    35    10    33    1
    36    12    34    1
    37    12    35    1
    38    15    36    1
    39    19    37    1
    40    20    38    1
    41    21    39    1
    42    22    40    1
    43    24    41    1
    44    25    42    1
@<TRIPOS>MOLECULE
../data/bude_mols_rdkit_confs/molecule_79.pdb
 42 44 0 0 0
SMALL
GASTEIGER

@<TRIPOS>ATOM
      1  N1         6.5470    2.1110   -0.9890 N.2     1  UNL1       -0.2986
      2  C1         5.7490    1.3100   -1.5990 C.2     1  UNL1        0.0685
      3  C2         5.3560    0.0520   -1.0480 C.1     1  UNL1       -0.0535
      4  C3         5.0420   -1.0130   -0.5780 C.1     1  UNL1       -0.0771
      5  C4         4.6580   -2.2980    0.0010 C.3     1  UNL1        0.0742
      6  N2         3.4970   -2.1610    0.8740 N.am    1  UNL1       -0.3004
      7  C5         2.2470   -1.7140    0.3980 C.2     1  UNL1        0.2476
      8  O1         2.2310   -1.4520   -0.8640 O.2     1  UNL1       -0.2701
      9  C6         1.0470   -1.5430    1.1810 C.ar    1  UNL1        0.0721
     10  C7        -0.2170   -1.4770    0.5510 C.ar    1  UNL1       -0.0433
     11  C8        -1.3850   -1.3370    1.2240 C.ar    1  UNL1       -0.0406
     12  C9        -2.7050   -1.2740    0.5740 C.3     1  UNL1        0.0171
     13  C10       -3.2780    0.0550    0.4230 C.ar    1  UNL1        0.0736
     14  N3        -4.1050    0.5160    1.4010 N.ar    1  UNL1       -0.1750
     15  N4        -4.6020    1.7350    1.3440 N.ar    1  UNL1       -0.2425
     16  C11       -4.3040    2.5620    0.3130 C.ar    1  UNL1        0.2725
     17  O2        -4.7950    3.7070    0.2990 O.2     1  UNL1       -0.2658
     18  C12       -3.4690    2.1630   -0.7230 C.ar    1  UNL1        0.0496
     19  C13       -3.2020    3.0140   -1.7580 C.ar    1  UNL1       -0.0487
     20  C14       -2.3910    2.5930   -2.7810 C.ar    1  UNL1       -0.0610
     21  C15       -1.8780    1.3230   -2.7210 C.ar    1  UNL1       -0.0611
     22  C16       -2.1500    0.4690   -1.6750 C.ar    1  UNL1       -0.0521
     23  C17       -2.9600    0.8610   -0.6300 C.ar    1  UNL1        0.0106
     24  C18       -1.3640   -1.2520    2.6290 C.ar    1  UNL1       -0.0555
     25  C19       -0.1550   -1.3130    3.2650 C.ar    1  UNL1       -0.0254
     26  C20        1.0470   -1.4580    2.5420 C.ar    1  UNL1        0.1355
     27  F1         2.2040   -1.5000    3.2350 F       1  UNL1       -0.2047
     28 H           6.7938    2.9696   -1.4026 H       1  UNL1        0.1867
     29 H           5.3780    1.5857   -2.5217 H       1  UNL1        0.0919
     30 H           5.4784   -2.6829    0.5700 H       1  UNL1        0.0599
     31 H           4.4040   -2.9649   -0.7962 H       1  UNL1        0.0599
     32 H           3.5893   -2.3883    1.8275 H       1  UNL1        0.1499
     33 H          -0.2522   -1.5389   -0.4785 H       1  UNL1        0.0629
     34 H          -3.3852   -1.8597    1.1564 H       1  UNL1        0.0377
     35 H          -2.5548   -1.6385   -0.4207 H       1  UNL1        0.0377
     36 H          -5.1987    2.0495    2.0612 H       1  UNL1        0.1921
     37 H          -3.6062    3.9635   -1.7700 H       1  UNL1        0.0625
     38 H          -2.1728    3.2156   -3.5746 H       1  UNL1        0.0618
     39 H          -1.2672    0.9956   -3.4857 H       1  UNL1        0.0618
     40 H          -1.7414   -0.4787   -1.6733 H       1  UNL1        0.0624
     41 H          -2.2392   -1.1463    3.1656 H       1  UNL1        0.0621
     42 H          -0.1216   -1.2517    4.2946 H       1  UNL1        0.0646
@<TRIPOS>BOND
     1     1     2    2
     2     2     3    1
     3     3     4    3
     4     4     5    1
     5     5     6    1
     6     6     7   am
     7     7     8    2
     8     7     9    1
     9     9    10   ar
    10     9    26   ar
    11    10    11   ar
    12    11    12    1
    13    11    24   ar
    14    12    13    1
    15    13    14   ar
    16    13    23   ar
    17    14    15   ar
    18    15    16   ar
    19    16    17    2
    20    16    18   ar
    21    18    19   ar
    22    18    23   ar
    23    19    20   ar
    24    20    21   ar
    25    21    22   ar
    26    22    23   ar
    27    24    25   ar
    28    25    26   ar
    29    26    27    1
    30     1    28    1
    31     2    29    1
    32     5    30    1
    33     5    31    1
    34     6    32    1
    35    10    33    1
    36    12    34    1
    37    12    35    1
    38    15    36    1
    39    19    37    1
    40    20    38    1
    41    21    39    1
    42    22    40    1
    43    24    41    1
    44    25    42    1
@<TRIPOS>MOLECULE
../data/bude_mols_rdkit_confs/molecule_79.pdb
 42 44 0 0 0
SMALL
GASTEIGER

@<TRIPOS>ATOM
      1  N1         3.0580    7.6810   -0.0130 N.2     1  UNL1       -0.2986
      2  C1         3.8920    7.0780    0.7960 C.2     1  UNL1        0.0685
      3  C2         3.5830    5.9000    1.4490 C.1     1  UNL1       -0.0535
      4  C3         3.2830    4.8190    2.0530 C.1     1  UNL1       -0.0771
      5  C4         2.9690    3.5990    2.7300 C.3     1  UNL1        0.0742
      6  N2         2.2110    2.6260    1.9750 N.am    1  UNL1       -0.3004
      7  C5         2.5690    2.0050    0.7750 C.2     1  UNL1        0.2476
      8  O1         3.6840    2.3070    0.2350 O.2     1  UNL1       -0.2701
      9  C6         1.7040    1.0210    0.1500 C.ar    1  UNL1        0.0721
     10  C7         0.6400    0.4290    0.7490 C.ar    1  UNL1       -0.0433
     11  C8        -0.1580   -0.5370    0.0750 C.ar    1  UNL1       -0.0406
     12  C9        -1.3020   -1.0800    0.8340 C.3     1  UNL1        0.0171
     13  C10       -1.6450   -2.4740    0.4770 C.ar    1  UNL1        0.0736
     14  N3        -1.1430   -3.5020    1.2020 N.ar    1  UNL1       -0.1750
     15  N4        -1.3680   -4.7590    0.9950 N.ar    1  UNL1       -0.2425
     16  C11       -2.1800   -5.1060   -0.0490 C.ar    1  UNL1        0.2725
     17  O2        -2.3830   -6.3110   -0.2410 O.2     1  UNL1       -0.2658
     18  C12       -2.7230   -4.1280   -0.8360 C.ar    1  UNL1        0.0496
     19  C13       -3.5480   -4.4580   -1.8720 C.ar    1  UNL1       -0.0487
     20  C14       -4.1200   -3.4710   -2.6640 C.ar    1  UNL1       -0.0610
     21  C15       -3.8630   -2.1470   -2.4100 C.ar    1  UNL1       -0.0611
     22  C16       -3.0410   -1.7830   -1.3800 C.ar    1  UNL1       -0.0521
     23  C17       -2.4670   -2.7890   -0.5820 C.ar    1  UNL1        0.0106
     24  C18        0.1220   -0.8960   -1.1890 C.ar    1  UNL1       -0.0555
     25  C19        1.2130   -0.2980   -1.8250 C.ar    1  UNL1       -0.0254
     26  C20        1.9630    0.6200   -1.1680 C.ar    1  UNL1        0.1355
     27  F1         3.0290    1.2130   -1.7810 F       1  UNL1       -0.2047
     28 H           3.3219    8.5193   -0.4567 H       1  UNL1        0.1867
     29 H           4.8203    7.5006    0.9529 H       1  UNL1        0.0919
     30 H           2.4032    3.8469    3.6037 H       1  UNL1        0.0599
     31 H           3.9109    3.1334    2.9323 H       1  UNL1        0.0599
     32 H           1.3380    2.3703    2.3514 H       1  UNL1        0.1499
     33 H           0.4032    0.6865    1.7199 H       1  UNL1        0.0629
     34 H          -2.1558   -0.4632    0.6454 H       1  UNL1        0.0377
     35 H          -1.0196   -1.0821    1.8661 H       1  UNL1        0.0377
     36 H          -0.9657   -5.4468    1.5732 H       1  UNL1        0.1921
     37 H          -3.7488   -5.4510   -2.0688 H       1  UNL1        0.0625
     38 H          -4.7402   -3.7339   -3.4459 H       1  UNL1        0.0618
     39 H          -4.2941   -1.4197   -3.0018 H       1  UNL1        0.0618
     40 H          -2.8451   -0.7875   -1.1913 H       1  UNL1        0.0624
     41 H          -0.4554   -1.5972   -1.6789 H       1  UNL1        0.0621
     42 H           1.4480   -0.5557   -2.7963 H       1  UNL1        0.0646
@<TRIPOS>BOND
     1     1     2    2
     2     2     3    1
     3     3     4    3
     4     4     5    1
     5     5     6    1
     6     6     7   am
     7     7     8    2
     8     7     9    1
     9     9    10   ar
    10     9    26   ar
    11    10    11   ar
    12    11    12    1
    13    11    24   ar
    14    12    13    1
    15    13    14   ar
    16    13    23   ar
    17    14    15   ar
    18    15    16   ar
    19    16    17    2
    20    16    18   ar
    21    18    19   ar
    22    18    23   ar
    23    19    20   ar
    24    20    21   ar
    25    21    22   ar
    26    22    23   ar
    27    24    25   ar
    28    25    26   ar
    29    26    27    1
    30     1    28    1
    31     2    29    1
    32     5    30    1
    33     5    31    1
    34     6    32    1
    35    10    33    1
    36    12    34    1
    37    12    35    1
    38    15    36    1
    39    19    37    1
    40    20    38    1
    41    21    39    1
    42    22    40    1
    43    24    41    1
    44    25    42    1
@<TRIPOS>MOLECULE
../data/bude_mols_rdkit_confs/molecule_79.pdb
 42 44 0 0 0
SMALL
GASTEIGER

@<TRIPOS>ATOM
      1  N1         8.1730   -0.9970    2.2660 N.2     1  UNL1       -0.2986
      2  C1         7.7950   -1.8430    1.3840 C.2     1  UNL1        0.0685
      3  C2         6.4230   -2.2690    1.1960 C.1     1  UNL1       -0.0535
      4  C3         5.3380   -2.6260    1.0430 C.1     1  UNL1       -0.0771
      5  C4         3.9160   -3.1020    0.8630 C.3     1  UNL1        0.0742
      6  N2         3.0170   -1.9930    0.9130 N.am    1  UNL1       -0.3004
      7  C5         2.9720   -0.9390   -0.0010 C.2     1  UNL1        0.2476
      8  O1         3.7740   -0.9330   -0.9810 O.2     1  UNL1       -0.2701
      9  C6         2.0180    0.1820    0.1070 C.ar    1  UNL1        0.0721
     10  C7         0.6650   -0.0750    0.0430 C.ar    1  UNL1       -0.0433
     11  C8        -0.2430    0.9760    0.2750 C.ar    1  UNL1       -0.0406
     12  C9        -1.6640    0.7190    0.3280 C.3     1  UNL1        0.0171
     13  C10       -2.4320    0.7530   -0.9330 C.ar    1  UNL1        0.0736
     14  N3        -1.9600    0.8470   -2.1510 N.ar    1  UNL1       -0.1750
     15  N4        -2.7580    0.8660   -3.2200 N.ar    1  UNL1       -0.2425
     16  C11       -4.0870    0.7900   -3.0850 C.ar    1  UNL1        0.2725
     17  O2        -4.8180    0.8120   -4.1420 O.2     1  UNL1       -0.2658
     18  C12       -4.6480    0.6920   -1.8570 C.ar    1  UNL1        0.0496
     19  C13       -6.0420    0.6160   -1.7110 C.ar    1  UNL1       -0.0487
     20  C14       -6.6170    0.5250   -0.4970 C.ar    1  UNL1       -0.0610
     21  C15       -5.8090    0.5050    0.6540 C.ar    1  UNL1       -0.0611
     22  C16       -4.4000    0.5790    0.5060 C.ar    1  UNL1       -0.0521
     23  C17       -3.8280    0.6700   -0.7390 C.ar    1  UNL1        0.0106
     24  C18        0.2490    2.2100    0.5480 C.ar    1  UNL1       -0.0555
     25  C19        1.5830    2.4900    0.6100 C.ar    1  UNL1       -0.0254
     26  C20        2.4760    1.4280    0.3800 C.ar    1  UNL1        0.1355
     27  F1         3.7860    1.7080    0.4310 F       1  UNL1       -0.2047
     28 H           9.1240   -0.7528    2.3381 H       1  UNL1        0.1867
     29 H           8.5147   -2.2488    0.7657 H       1  UNL1        0.0919
     30 H           3.6719   -3.7910    1.6444 H       1  UNL1        0.0599
     31 H           3.8256   -3.5834   -0.0883 H       1  UNL1        0.0599
     32 H           2.3729   -1.9701    1.6572 H       1  UNL1        0.1499
     33 H           0.3224   -1.0245   -0.1720 H       1  UNL1        0.0629
     34 H          -2.0936    1.4508    0.9797 H       1  UNL1        0.0377
     35 H          -1.7351   -0.2984    0.6516 H       1  UNL1        0.0377
     36 H          -2.3640    0.9368   -4.1195 H       1  UNL1        0.1921
     37 H          -6.6392    0.6302   -2.5526 H       1  UNL1        0.0625
     38 H          -7.6440    0.4703   -0.4116 H       1  UNL1        0.0618
     39 H          -6.2345    0.4375    1.5918 H       1  UNL1        0.0618
     40 H          -3.7978    0.5643    1.3440 H       1  UNL1        0.0624
     41 H          -0.4203    2.9770    0.7176 H       1  UNL1        0.0621
     42 H           1.9228    3.4422    0.8172 H       1  UNL1        0.0646
@<TRIPOS>BOND
     1     1     2    2
     2     2     3    1
     3     3     4    3
     4     4     5    1
     5     5     6    1
     6     6     7   am
     7     7     8    2
     8     7     9    1
     9     9    10   ar
    10     9    26   ar
    11    10    11   ar
    12    11    12    1
    13    11    24   ar
    14    12    13    1
    15    13    14   ar
    16    13    23   ar
    17    14    15   ar
    18    15    16   ar
    19    16    17    2
    20    16    18   ar
    21    18    19   ar
    22    18    23   ar
    23    19    20   ar
    24    20    21   ar
    25    21    22   ar
    26    22    23   ar
    27    24    25   ar
    28    25    26   ar
    29    26    27    1
    30     1    28    1
    31     2    29    1
    32     5    30    1
    33     5    31    1
    34     6    32    1
    35    10    33    1
    36    12    34    1
    37    12    35    1
    38    15    36    1
    39    19    37    1
    40    20    38    1
    41    21    39    1
    42    22    40    1
    43    24    41    1
    44    25    42    1
@<TRIPOS>MOLECULE
../data/bude_mols_rdkit_confs/molecule_79.pdb
 42 44 0 0 0
SMALL
GASTEIGER

@<TRIPOS>ATOM
      1  N1         5.3820    4.5530   -1.4450 N.2     1  UNL1       -0.2986
      2  C1         4.7910    3.9520   -0.4780 C.2     1  UNL1        0.0685
      3  C2         5.0810    2.5680   -0.1290 C.1     1  UNL1       -0.0535
      4  C3         5.3190    1.3930    0.1480 C.1     1  UNL1       -0.0771
      5  C4         5.5760    0.0080    0.4660 C.3     1  UNL1        0.0742
      6  N2         4.3400   -0.7550    0.4950 N.am    1  UNL1       -0.3004
      7  C5         3.2410   -0.3470    1.3040 C.2     1  UNL1        0.2476
      8  O1         3.4180    0.7270    1.9510 O.2     1  UNL1       -0.2701
      9  C6         1.9910   -1.0790    1.4020 C.ar    1  UNL1        0.0721
     10  C7         0.8070   -0.3660    1.4400 C.ar    1  UNL1       -0.0433
     11  C8        -0.4380   -0.9940    1.5090 C.ar    1  UNL1       -0.0406
     12  C9        -1.6900   -0.1970    1.4710 C.3     1  UNL1        0.0171
     13  C10       -2.5100   -0.6230    0.3000 C.ar    1  UNL1        0.0736
     14  N3        -2.1900   -1.8190   -0.2560 N.ar    1  UNL1       -0.1750
     15  N4        -2.9190   -2.2430   -1.3150 N.ar    1  UNL1       -0.2425
     16  C11       -3.9140   -1.5800   -1.8440 C.ar    1  UNL1        0.2725
     17  O2        -4.6050   -1.9670   -2.8350 O.2     1  UNL1       -0.2658
     18  C12       -4.2800   -0.3450   -1.3070 C.ar    1  UNL1        0.0496
     19  C13       -5.2860    0.4400   -1.7520 C.ar    1  UNL1       -0.0487
     20  C14       -5.6330    1.6680   -1.1960 C.ar    1  UNL1       -0.0610
     21  C15       -4.8590    2.0600   -0.1150 C.ar    1  UNL1       -0.0611
     22  C16       -3.8350    1.3140    0.3780 C.ar    1  UNL1       -0.0521
     23  C17       -3.5250    0.1050   -0.2020 C.ar    1  UNL1        0.0106
     24  C18       -0.4150   -2.3690    1.5420 C.ar    1  UNL1       -0.0555
     25  C19        0.7770   -3.1080    1.5030 C.ar    1  UNL1       -0.0254
     26  C20        1.9930   -2.4550    1.4320 C.ar    1  UNL1        0.1355
     27  F1         3.1290   -3.1900    1.3960 F       1  UNL1       -0.2047
     28 H           5.1598    5.4896   -1.6517 H       1  UNL1        0.1867
     29 H           4.0856    4.4670    0.0717 H       1  UNL1        0.0919
     30 H           6.0460   -0.0498    1.4255 H       1  UNL1        0.0599
     31 H           6.2141   -0.4033   -0.2880 H       1  UNL1        0.0599
     32 H           4.2607   -1.5683   -0.0541 H       1  UNL1        0.1499
     33 H           0.8448    0.6650    1.4166 H       1  UNL1        0.0629
     34 H          -1.4499    0.8418    1.3803 H       1  UNL1        0.0377
     35 H          -2.2434   -0.3555    2.3729 H       1  UNL1        0.0377
     36 H          -2.6835   -3.1113   -1.7148 H       1  UNL1        0.1921
     37 H          -5.8348    0.1060   -2.5597 H       1  UNL1        0.0625
     38 H          -6.4081    2.2432   -1.5611 H       1  UNL1        0.0618
     39 H          -5.0705    2.9628    0.3380 H       1  UNL1        0.0618
     40 H          -3.2907    1.6539    1.1863 H       1  UNL1        0.0624
     41 H          -1.3111   -2.8778    1.5977 H       1  UNL1        0.0621
     42 H           0.7458   -4.1392    1.5273 H       1  UNL1        0.0646
@<TRIPOS>BOND
     1     1     2    2
     2     2     3    1
     3     3     4    3
     4     4     5    1
     5     5     6    1
     6     6     7   am
     7     7     8    2
     8     7     9    1
     9     9    10   ar
    10     9    26   ar
    11    10    11   ar
    12    11    12    1
    13    11    24   ar
    14    12    13    1
    15    13    14   ar
    16    13    23   ar
    17    14    15   ar
    18    15    16   ar
    19    16    17    2
    20    16    18   ar
    21    18    19   ar
    22    18    23   ar
    23    19    20   ar
    24    20    21   ar
    25    21    22   ar
    26    22    23   ar
    27    24    25   ar
    28    25    26   ar
    29    26    27    1
    30     1    28    1
    31     2    29    1
    32     5    30    1
    33     5    31    1
    34     6    32    1
    35    10    33    1
    36    12    34    1
    37    12    35    1
    38    15    36    1
    39    19    37    1
    40    20    38    1
    41    21    39    1
    42    22    40    1
    43    24    41    1
    44    25    42    1
@<TRIPOS>MOLECULE
../data/bude_mols_rdkit_confs/molecule_79.pdb
 42 44 0 0 0
SMALL
GASTEIGER

@<TRIPOS>ATOM
      1  N1         5.3750    0.1850   -3.0520 N.2     1  UNL1       -0.2986
      2  C1         4.9580   -0.9180   -2.5410 C.2     1  UNL1        0.0685
      3  C2         4.8530   -1.1720   -1.1540 C.1     1  UNL1       -0.0535
      4  C3         4.7820   -1.3780    0.0330 C.1     1  UNL1       -0.0771
      5  C4         4.7120   -1.6120    1.4920 C.3     1  UNL1        0.0742
      6  N2         3.4980   -1.0280    2.0410 N.am    1  UNL1       -0.3004
      7  C5         2.2070   -1.4230    1.6120 C.2     1  UNL1        0.2476
      8  O1         2.2350   -2.3360    0.6980 O.2     1  UNL1       -0.2701
      9  C6         0.9450   -0.9170    2.0840 C.ar    1  UNL1        0.0721
     10  C7        -0.2060   -1.2270    1.3860 C.ar    1  UNL1       -0.0433
     11  C8        -1.4520   -0.7800    1.7370 C.ar    1  UNL1       -0.0406
     12  C9        -2.7110   -1.0600    1.0130 C.3     1  UNL1        0.0171
     13  C10       -3.1670    0.1650    0.3090 C.ar    1  UNL1        0.0736
     14  N3        -4.0850    0.9800    0.8810 N.ar    1  UNL1       -0.1750
     15  N4        -4.5420    2.0910    0.4140 N.ar    1  UNL1       -0.2425
     16  C11       -4.0640    2.5130   -0.7860 C.ar    1  UNL1        0.2725
     17  O2        -4.5180    3.5950   -1.2220 O.2     1  UNL1       -0.2658
     18  C12       -3.1330    1.7710   -1.4590 C.ar    1  UNL1        0.0496
     19  C13       -2.6520    2.2050   -2.7040 C.ar    1  UNL1       -0.0487
     20  C14       -1.7260    1.4450   -3.3780 C.ar    1  UNL1       -0.0610
     21  C15       -1.2850    0.2780   -2.8350 C.ar    1  UNL1       -0.0611
     22  C16       -1.7680   -0.1500   -1.5920 C.ar    1  UNL1       -0.0521
     23  C17       -2.6860    0.5910   -0.9050 C.ar    1  UNL1        0.0106
     24  C18       -1.5190    0.0350    2.8760 C.ar    1  UNL1       -0.0555
     25  C19       -0.4050    0.3730    3.6060 C.ar    1  UNL1       -0.0254
     26  C20        0.8440   -0.1250    3.1830 C.ar    1  UNL1        0.1355
     27  F1         1.8850    0.2440    3.9590 F       1  UNL1       -0.2047
     28 H           5.4206    0.2882   -4.0300 H       1  UNL1        0.1867
     29 H           4.6801   -1.6717   -3.1888 H       1  UNL1        0.0919
     30 H           5.5626   -1.1644    1.9622 H       1  UNL1        0.0599
     31 H           4.7037   -2.6663    1.6747 H       1  UNL1        0.0599
     32 H           3.5764   -0.3340    2.7349 H       1  UNL1        0.1499
     33 H          -0.1222   -1.8298    0.5525 H       1  UNL1        0.0629
     34 H          -3.4611   -1.3693    1.7106 H       1  UNL1        0.0377
     35 H          -2.5427   -1.8377    0.2976 H       1  UNL1        0.0377
     36 H          -5.2129    2.6148    0.9087 H       1  UNL1        0.1921
     37 H          -2.9918    3.0902   -3.1114 H       1  UNL1        0.0625
     38 H          -1.3664    1.7586   -4.2931 H       1  UNL1        0.0618
     39 H          -0.5915   -0.2944   -3.3414 H       1  UNL1        0.0618
     40 H          -1.4256   -1.0368   -1.1903 H       1  UNL1        0.0624
     41 H          -2.4385    0.3941    3.1770 H       1  UNL1        0.0621
     42 H          -0.4807    0.9748    4.4409 H       1  UNL1        0.0646
@<TRIPOS>BOND
     1     1     2    2
     2     2     3    1
     3     3     4    3
     4     4     5    1
     5     5     6    1
     6     6     7   am
     7     7     8    2
     8     7     9    1
     9     9    10   ar
    10     9    26   ar
    11    10    11   ar
    12    11    12    1
    13    11    24   ar
    14    12    13    1
    15    13    14   ar
    16    13    23   ar
    17    14    15   ar
    18    15    16   ar
    19    16    17    2
    20    16    18   ar
    21    18    19   ar
    22    18    23   ar
    23    19    20   ar
    24    20    21   ar
    25    21    22   ar
    26    22    23   ar
    27    24    25   ar
    28    25    26   ar
    29    26    27    1
    30     1    28    1
    31     2    29    1
    32     5    30    1
    33     5    31    1
    34     6    32    1
    35    10    33    1
    36    12    34    1
    37    12    35    1
    38    15    36    1
    39    19    37    1
    40    20    38    1
    41    21    39    1
    42    22    40    1
    43    24    41    1
    44    25    42    1
@<TRIPOS>MOLECULE
../data/bude_mols_rdkit_confs/molecule_79.pdb
 42 44 0 0 0
SMALL
GASTEIGER

@<TRIPOS>ATOM
      1  N1         9.2160    1.8200    0.0900 N.2     1  UNL1       -0.2986
      2  C1         8.2620    1.9710    0.9420 C.2     1  UNL1        0.0685
      3  C2         6.8740    2.0580    0.5160 C.1     1  UNL1       -0.0535
      4  C3         5.7180    2.1420    0.1660 C.1     1  UNL1       -0.0771
      5  C4         4.3430    2.2680   -0.2500 C.3     1  UNL1        0.0742
      6  N2         3.6230    0.9990   -0.0390 N.am    1  UNL1       -0.3004
      7  C5         2.2750    0.8920   -0.3850 C.2     1  UNL1        0.2476
      8  O1         1.7440    1.9500   -0.8840 O.2     1  UNL1       -0.2701
      9  C6         1.4140   -0.2670   -0.2470 C.ar    1  UNL1        0.0721
     10  C7         0.1660   -0.2930   -0.8800 C.ar    1  UNL1       -0.0433
     11  C8        -0.6850   -1.4020   -0.7960 C.ar    1  UNL1       -0.0406
     12  C9        -1.9540   -1.2550   -1.5590 C.3     1  UNL1        0.0171
     13  C10       -2.9320   -0.3450   -0.9940 C.ar    1  UNL1        0.0736
     14  N3        -3.0040    0.9120   -1.4610 N.ar    1  UNL1       -0.1750
     15  N4        -3.8200    1.8270   -1.0160 N.ar    1  UNL1       -0.2425
     16  C11       -4.6840    1.5670   -0.0180 C.ar    1  UNL1        0.2725
     17  O2        -5.4730    2.4470    0.4150 O.2     1  UNL1       -0.2658
     18  C12       -4.6600    0.2760    0.5100 C.ar    1  UNL1        0.0496
     19  C13       -5.5610   -0.0010    1.5390 C.ar    1  UNL1       -0.0487
     20  C14       -5.5510   -1.2660    2.0540 C.ar    1  UNL1       -0.0610
     21  C15       -4.6900   -2.2450    1.5870 C.ar    1  UNL1       -0.0611
     22  C16       -3.8140   -1.9440    0.5750 C.ar    1  UNL1       -0.0521
     23  C17       -3.7940   -0.6900    0.0360 C.ar    1  UNL1        0.0106
     24  C18       -0.3010   -2.4940   -0.0800 C.ar    1  UNL1       -0.0555
     25  C19        0.9280   -2.5060    0.5630 C.ar    1  UNL1       -0.0254
     26  C20        1.7600   -1.3780    0.4590 C.ar    1  UNL1        0.1355
     27  F1         2.9480   -1.4270    1.1130 F       1  UNL1       -0.2047
     28 H          10.1486    1.7634    0.4002 H       1  UNL1        0.1867
     29 H           8.4870    2.0315    1.9474 H       1  UNL1        0.0919
     30 H           4.3110    2.5228   -1.2887 H       1  UNL1        0.0599
     31 H           3.8736    3.0338    0.3315 H       1  UNL1        0.0599
     32 H           4.0940    0.2253    0.3468 H       1  UNL1        0.1499
     33 H          -0.1361    0.5297   -1.4249 H       1  UNL1        0.0629
     34 H          -2.4079   -2.2214   -1.6294 H       1  UNL1        0.0377
     35 H          -1.6770   -0.8326   -2.5023 H       1  UNL1        0.0377
     36 H          -3.8034    2.7254   -1.4182 H       1  UNL1        0.1921
     37 H          -6.2077    0.7197    1.8959 H       1  UNL1        0.0625
     38 H          -6.2065   -1.4999    2.8160 H       1  UNL1        0.0618
     39 H          -4.7072   -3.1921    1.9964 H       1  UNL1        0.0618
     40 H          -3.1688   -2.6672    0.2204 H       1  UNL1        0.0624
     41 H          -0.9247   -3.3137   -0.0155 H       1  UNL1        0.0621
     42 H           1.2265   -3.3295    1.1087 H       1  UNL1        0.0646
@<TRIPOS>BOND
     1     1     2    2
     2     2     3    1
     3     3     4    3
     4     4     5    1
     5     5     6    1
     6     6     7   am
     7     7     8    2
     8     7     9    1
     9     9    10   ar
    10     9    26   ar
    11    10    11   ar
    12    11    12    1
    13    11    24   ar
    14    12    13    1
    15    13    14   ar
    16    13    23   ar
    17    14    15   ar
    18    15    16   ar
    19    16    17    2
    20    16    18   ar
    21    18    19   ar
    22    18    23   ar
    23    19    20   ar
    24    20    21   ar
    25    21    22   ar
    26    22    23   ar
    27    24    25   ar
    28    25    26   ar
    29    26    27    1
    30     1    28    1
    31     2    29    1
    32     5    30    1
    33     5    31    1
    34     6    32    1
    35    10    33    1
    36    12    34    1
    37    12    35    1
    38    15    36    1
    39    19    37    1
    40    20    38    1
    41    21    39    1
    42    22    40    1
    43    24    41    1
    44    25    42    1
@<TRIPOS>MOLECULE
../data/bude_mols_rdkit_confs/molecule_79.pdb
 42 44 0 0 0
SMALL
GASTEIGER

@<TRIPOS>ATOM
      1  N1         7.3290    0.8210    0.3280 N.2     1  UNL1       -0.2986
      2  C1         7.3740    0.2820    1.4820 C.2     1  UNL1        0.0685
      3  C2         6.3010   -0.4860    1.9550 C.1     1  UNL1       -0.0535
      4  C3         5.3250   -1.1860    2.3620 C.1     1  UNL1       -0.0771
      5  C4         4.2080   -1.9660    2.8190 C.3     1  UNL1        0.0742
      6  N2         3.0750   -2.0170    2.0140 N.am    1  UNL1       -0.3004
      7  C5         2.2050   -0.9890    1.5620 C.2     1  UNL1        0.2476
      8  O1         2.5260    0.1740    1.9390 O.2     1  UNL1       -0.2701
      9  C6         1.0360   -1.2450    0.7390 C.ar    1  UNL1        0.0721
     10  C7         0.5900   -0.3940   -0.2210 C.ar    1  UNL1       -0.0433
     11  C8        -0.4980   -0.6930   -1.0470 C.ar    1  UNL1       -0.0406
     12  C9        -0.8540    0.3720   -2.0630 C.3     1  UNL1        0.0171
     13  C10       -1.6940    1.4070   -1.4040 C.ar    1  UNL1        0.0736
     14  N3        -1.1240    2.4540   -0.8320 N.ar    1  UNL1       -0.1750
     15  N4        -1.7410    3.3770   -0.1310 N.ar    1  UNL1       -0.2425
     16  C11       -3.0650    3.2540    0.0210 C.ar    1  UNL1        0.2725
     17  O2        -3.7020    4.1190    0.6930 O.2     1  UNL1       -0.2658
     18  C12       -3.7620    2.2120   -0.5320 C.ar    1  UNL1        0.0496
     19  C13       -5.1440    2.1600   -0.3580 C.ar    1  UNL1       -0.0487
     20  C14       -5.8430    1.1040   -0.9560 C.ar    1  UNL1       -0.0610
     21  C15       -5.1290    0.1770   -1.6820 C.ar    1  UNL1       -0.0611
     22  C16       -3.7330    0.2530   -1.8400 C.ar    1  UNL1       -0.0521
     23  C17       -3.0810    1.2710   -1.2580 C.ar    1  UNL1        0.0106
     24  C18       -1.1350   -1.8680   -0.8960 C.ar    1  UNL1       -0.0555
     25  C19       -0.7290   -2.7850    0.0690 C.ar    1  UNL1       -0.0254
     26  C20        0.3610   -2.4530    0.8810 C.ar    1  UNL1        0.1355
     27  F1         0.7180   -3.3300    1.8580 F       1  UNL1       -0.2047
     28 H           8.0883    1.3584    0.0058 H       1  UNL1        0.1867
     29 H           8.2090    0.4123    2.0743 H       1  UNL1        0.0919
     30 H           3.9080   -1.5681    3.7659 H       1  UNL1        0.0599
     31 H           4.5720   -2.9721    2.8326 H       1  UNL1        0.0599
     32 H           2.8348   -2.9202    1.7044 H       1  UNL1        0.1499
     33 H           1.0733    0.5092   -0.3458 H       1  UNL1        0.0629
     34 H          -1.3980   -0.0705   -2.8712 H       1  UNL1        0.0377
     35 H           0.0391    0.8204   -2.4453 H       1  UNL1        0.0377
     36 H          -1.2486    4.1306    0.2675 H       1  UNL1        0.1921
     37 H          -5.6374    2.8782    0.1950 H       1  UNL1        0.0625
     38 H          -6.8668    1.0227   -0.8552 H       1  UNL1        0.0618
     39 H          -5.6372   -0.6031   -2.1271 H       1  UNL1        0.0618
     40 H          -3.2234   -0.4564   -2.3897 H       1  UNL1        0.0624
     41 H          -1.9371   -2.0930   -1.5051 H       1  UNL1        0.0621
     42 H          -1.2190   -3.6861    0.1827 H       1  UNL1        0.0646
@<TRIPOS>BOND
     1     1     2    2
     2     2     3    1
     3     3     4    3
     4     4     5    1
     5     5     6    1
     6     6     7   am
     7     7     8    2
     8     7     9    1
     9     9    10   ar
    10     9    26   ar
    11    10    11   ar
    12    11    12    1
    13    11    24   ar
    14    12    13    1
    15    13    14   ar
    16    13    23   ar
    17    14    15   ar
    18    15    16   ar
    19    16    17    2
    20    16    18   ar
    21    18    19   ar
    22    18    23   ar
    23    19    20   ar
    24    20    21   ar
    25    21    22   ar
    26    22    23   ar
    27    24    25   ar
    28    25    26   ar
    29    26    27    1
    30     1    28    1
    31     2    29    1
    32     5    30    1
    33     5    31    1
    34     6    32    1
    35    10    33    1
    36    12    34    1
    37    12    35    1
    38    15    36    1
    39    19    37    1
    40    20    38    1
    41    21    39    1
    42    22    40    1
    43    24    41    1
    44    25    42    1
@<TRIPOS>MOLECULE
../data/bude_mols_rdkit_confs/molecule_79.pdb
 42 44 0 0 0
SMALL
GASTEIGER

@<TRIPOS>ATOM
      1  N1         6.0180    4.5190   -1.4900 N.2     1  UNL1       -0.2986
      2  C1         6.0030    3.8830   -0.4710 C.2     1  UNL1        0.0685
      3  C2         5.7760    2.3980   -0.5530 C.1     1  UNL1       -0.0535
      4  C3         5.5750    0.9190   -0.6270 C.1     1  UNL1       -0.0771
      5  C4         5.4140   -0.2220   -0.7030 C.3     1  UNL1        0.0742
      6  N2         4.1200   -0.7070   -0.0100 N.am    1  UNL1       -0.3004
      7  C5         2.8910   -0.0180   -0.0930 C.2     1  UNL1        0.2476
      8  O1         2.7510    1.0280   -0.7510 O.2     1  UNL1       -0.2701
      9  C6         1.7310   -0.5750    0.6390 C.ar    1  UNL1        0.0721
     10  C7         0.6250   -0.9650    0.0320 C.ar    1  UNL1       -0.0433
     11  C8        -0.4720   -1.6660    0.5450 C.ar    1  UNL1       -0.0406
     12  C9        -1.6010   -2.0290   -0.3150 C.3     1  UNL1        0.0171
     13  C10       -2.4110   -0.8600   -0.6760 C.ar    1  UNL1        0.0736
     14  N3        -1.7820    0.1440   -1.3880 N.ar    1  UNL1       -0.1750
     15  N4        -2.2910    1.3480   -1.5790 N.ar    1  UNL1       -0.2425
     16  C11       -3.5160    1.6590   -1.0500 C.ar    1  UNL1        0.2725
     17  O2        -4.0330    2.7820   -1.1920 O.2     1  UNL1       -0.2658
     18  C12       -4.2580    0.7140   -0.3050 C.ar    1  UNL1        0.0496
     19  C13       -5.5060    1.0090    0.1560 C.ar    1  UNL1       -0.0487
     20  C14       -6.2350   -0.0440    0.8150 C.ar    1  UNL1       -0.0610
     21  C15       -5.5690   -1.2200    0.8740 C.ar    1  UNL1       -0.0611
     22  C16       -4.3400   -1.5290    0.4330 C.ar    1  UNL1       -0.0521
     23  C17       -3.6130   -0.4970   -0.1930 C.ar    1  UNL1        0.0106
     24  C18       -0.3380   -1.9720    1.8960 C.ar    1  UNL1       -0.0555
     25  C19        0.8150   -1.5820    2.6470 C.ar    1  UNL1       -0.0254
     26  C20        1.8160   -0.9010    2.0040 C.ar    1  UNL1        0.1355
     27  F1         2.9180   -0.4350    2.7020 F       1  UNL1       -0.2047
     28 H           6.1648    5.4921   -1.4608 H       1  UNL1        0.1867
     29 H           6.1428    4.3453    0.4410 H       1  UNL1        0.0919
     30 H           6.2478   -0.7133   -0.2466 H       1  UNL1        0.0599
     31 H           5.3238   -0.4597   -1.7424 H       1  UNL1        0.0599
     32 H           4.1550   -1.5386    0.5158 H       1  UNL1        0.1499
     33 H           0.5602   -0.7163   -0.9675 H       1  UNL1        0.0629
     34 H          -2.2193   -2.7315    0.2037 H       1  UNL1        0.0377
     35 H          -1.2091   -2.4523   -1.2162 H       1  UNL1        0.0377
     36 H          -1.7923    2.0188   -2.0991 H       1  UNL1        0.1921
     37 H          -5.9128    1.9500    0.0376 H       1  UNL1        0.0625
     38 H          -7.1806    0.0869    1.2070 H       1  UNL1        0.0618
     39 H          -6.0819   -1.9938    1.3248 H       1  UNL1        0.0618
     40 H          -3.9464   -2.4762    0.5467 H       1  UNL1        0.0624
     41 H          -1.0916   -2.4949    2.3691 H       1  UNL1        0.0621
     42 H           0.8917   -1.8083    3.6510 H       1  UNL1        0.0646
@<TRIPOS>BOND
     1     1     2    2
     2     2     3    1
     3     3     4    3
     4     4     5    1
     5     5     6    1
     6     6     7   am
     7     7     8    2
     8     7     9    1
     9     9    10   ar
    10     9    26   ar
    11    10    11   ar
    12    11    12    1
    13    11    24   ar
    14    12    13    1
    15    13    14   ar
    16    13    23   ar
    17    14    15   ar
    18    15    16   ar
    19    16    17    2
    20    16    18   ar
    21    18    19   ar
    22    18    23   ar
    23    19    20   ar
    24    20    21   ar
    25    21    22   ar
    26    22    23   ar
    27    24    25   ar
    28    25    26   ar
    29    26    27    1
    30     1    28    1
    31     2    29    1
    32     5    30    1
    33     5    31    1
    34     6    32    1
    35    10    33    1
    36    12    34    1
    37    12    35    1
    38    15    36    1
    39    19    37    1
    40    20    38    1
    41    21    39    1
    42    22    40    1
    43    24    41    1
    44    25    42    1
@<TRIPOS>MOLECULE
../data/bude_mols_rdkit_confs/molecule_79.pdb
 42 44 0 0 0
SMALL
GASTEIGER

@<TRIPOS>ATOM
      1  N1         7.7970   -0.8170   -2.4680 N.2     1  UNL1       -0.2986
      2  C1         6.7520   -0.2080   -2.0440 C.2     1  UNL1        0.0685
      3  C2         6.3270   -0.3440   -0.6800 C.1     1  UNL1       -0.0535
      4  C3         5.9670   -0.4670    0.4490 C.1     1  UNL1       -0.0771
      5  C4         5.5120   -0.5970    1.8670 C.3     1  UNL1        0.0742
      6  N2         4.1850    0.0580    1.8470 N.am    1  UNL1       -0.3004
      7  C5         3.2040   -0.4940    1.0140 C.2     1  UNL1        0.2476
      8  O1         3.4970   -1.5440    0.3370 O.2     1  UNL1       -0.2701
      9  C6         1.8540   -0.0180    0.8120 C.ar    1  UNL1        0.0721
     10  C7         0.8080   -0.8210    0.4380 C.ar    1  UNL1       -0.0433
     11  C8        -0.4990   -0.4030    0.2560 C.ar    1  UNL1       -0.0406
     12  C9        -1.5370   -1.3340   -0.1720 C.3     1  UNL1        0.0171
     13  C10       -2.6720   -0.7910   -0.9050 C.ar    1  UNL1        0.0736
     14  N3        -2.8010   -0.7620   -2.2250 N.ar    1  UNL1       -0.1750
     15  N4        -3.8590   -0.2290   -2.8530 N.ar    1  UNL1       -0.2425
     16  C11       -4.8660    0.3150   -2.1810 C.ar    1  UNL1        0.2725
     17  O2        -5.8830    0.8310   -2.7440 O.2     1  UNL1       -0.2658
     18  C12       -4.8250    0.3330   -0.7950 C.ar    1  UNL1        0.0496
     19  C13       -5.8790    0.8840   -0.1050 C.ar    1  UNL1       -0.0487
     20  C14       -5.8590    0.8910    1.2630 C.ar    1  UNL1       -0.0610
     21  C15       -4.7890    0.3500    1.9210 C.ar    1  UNL1       -0.0611
     22  C16       -3.7430   -0.1970    1.2000 C.ar    1  UNL1       -0.0521
     23  C17       -3.7110   -0.2300   -0.1810 C.ar    1  UNL1        0.0106
     24  C18       -0.7340    0.9260    0.4740 C.ar    1  UNL1       -0.0555
     25  C19        0.2910    1.7950    0.8580 C.ar    1  UNL1       -0.0254
     26  C20        1.5680    1.3190    1.0230 C.ar    1  UNL1        0.1355
     27  F1         2.5560    2.2030    1.3830 F       1  UNL1       -0.2047
     28 H           8.0790   -0.7162   -3.4059 H       1  UNL1        0.1867
     29 H           6.2103    0.3866   -2.6905 H       1  UNL1        0.0919
     30 H           6.1803   -0.0935    2.5339 H       1  UNL1        0.0599
     31 H           5.4793   -1.6099    2.2102 H       1  UNL1        0.0599
     32 H           3.9989    0.8520    2.3986 H       1  UNL1        0.1499
     33 H           1.0118   -1.8201    0.2789 H       1  UNL1        0.0629
     34 H          -1.9214   -1.8098    0.7059 H       1  UNL1        0.0377
     35 H          -1.0488   -1.9816   -0.8699 H       1  UNL1        0.0377
     36 H          -3.8896   -0.2415   -3.8369 H       1  UNL1        0.1921
     37 H          -6.6793    1.2893   -0.6152 H       1  UNL1        0.0625
     38 H          -6.6438    1.3006    1.7933 H       1  UNL1        0.0618
     39 H          -4.7621    0.3499    2.9526 H       1  UNL1        0.0618
     40 H          -2.9474   -0.6003    1.7190 H       1  UNL1        0.0624
     41 H          -1.6897    1.2959    0.3523 H       1  UNL1        0.0621
     42 H           0.0880    2.7942    1.0175 H       1  UNL1        0.0646
@<TRIPOS>BOND
     1     1     2    2
     2     2     3    1
     3     3     4    3
     4     4     5    1
     5     5     6    1
     6     6     7   am
     7     7     8    2
     8     7     9    1
     9     9    10   ar
    10     9    26   ar
    11    10    11   ar
    12    11    12    1
    13    11    24   ar
    14    12    13    1
    15    13    14   ar
    16    13    23   ar
    17    14    15   ar
    18    15    16   ar
    19    16    17    2
    20    16    18   ar
    21    18    19   ar
    22    18    23   ar
    23    19    20   ar
    24    20    21   ar
    25    21    22   ar
    26    22    23   ar
    27    24    25   ar
    28    25    26   ar
    29    26    27    1
    30     1    28    1
    31     2    29    1
    32     5    30    1
    33     5    31    1
    34     6    32    1
    35    10    33    1
    36    12    34    1
    37    12    35    1
    38    15    36    1
    39    19    37    1
    40    20    38    1
    41    21    39    1
    42    22    40    1
    43    24    41    1
    44    25    42    1
@<TRIPOS>MOLECULE
../data/bude_mols_rdkit_confs/molecule_79.pdb
 42 44 0 0 0
SMALL
GASTEIGER

@<TRIPOS>ATOM
      1  N1         8.7140    2.1040    0.4820 N.2     1  UNL1       -0.2986
      2  C1         8.5630    1.3290   -0.4120 C.2     1  UNL1        0.0685
      3  C2         7.3210    0.4380    0.1730 C.1     1  UNL1       -0.0535
      4  C3         6.2180   -0.3240    0.6970 C.1     1  UNL1       -0.0771
      5  C4         5.1090   -1.0860    1.2490 C.3     1  UNL1        0.0742
      6  N2         3.9460   -0.4650    0.4650 N.am    1  UNL1       -0.3004
      7  C5         2.7140   -1.0680    0.5990 C.2     1  UNL1        0.2476
      8  O1         2.6440   -2.0820    1.2990 O.2     1  UNL1       -0.2701
      9  C6         1.5390   -0.4650   -0.0230 C.ar    1  UNL1        0.0721
     10  C7         0.4690   -0.1710    0.8350 C.ar    1  UNL1       -0.0433
     11  C8        -0.6170    0.6160    0.4290 C.ar    1  UNL1       -0.0406
     12  C9        -1.8010    0.7210    1.3210 C.3     1  UNL1        0.0171
     13  C10       -2.7000   -0.3540    0.8680 C.ar    1  UNL1        0.0736
     14  N3        -2.3300   -1.6580    0.6670 N.ar    1  UNL1       -0.1750
     15  N4        -3.1000   -2.4360    0.0640 N.ar    1  UNL1       -0.2425
     16  C11       -4.3240   -2.2580   -0.4680 C.ar    1  UNL1        0.2725
     17  O2        -4.9320   -3.1160   -0.9890 O.2     1  UNL1       -0.2658
     18  C12       -4.7610   -0.9240   -0.2920 C.ar    1  UNL1        0.0496
     19  C13       -6.0340   -0.6230   -0.7610 C.ar    1  UNL1       -0.0487
     20  C14       -6.5000    0.6470   -0.6000 C.ar    1  UNL1       -0.0610
     21  C15       -5.8000    1.6120   -0.0250 C.ar    1  UNL1       -0.0611
     22  C16       -4.4970    1.2990    0.4830 C.ar    1  UNL1       -0.0521
     23  C17       -3.9840    0.0200    0.3520 C.ar    1  UNL1        0.0106
     24  C18       -0.5040    1.0740   -0.8500 C.ar    1  UNL1       -0.0555
     25  C19        0.4740    0.8380   -1.7580 C.ar    1  UNL1       -0.0254
     26  C20        1.5410    0.0150   -1.2860 C.ar    1  UNL1        0.1355
     27  F1         2.4790   -0.3140   -2.1940 F       1  UNL1       -0.2047
     28 H           9.4143    2.7934    0.4228 H       1  UNL1        0.1867
     29 H           9.0731    1.2440   -1.3051 H       1  UNL1        0.0919
     30 H           5.0057   -0.9310    2.3027 H       1  UNL1        0.0599
     31 H           5.2002   -2.1480    1.1559 H       1  UNL1        0.0599
     32 H           4.0735    0.3264   -0.1065 H       1  UNL1        0.1499
     33 H           0.4820   -0.5464    1.7962 H       1  UNL1        0.0629
     34 H          -2.2707    1.6766    1.2153 H       1  UNL1        0.0377
     35 H          -1.5415    0.6260    2.3547 H       1  UNL1        0.0377
     36 H          -2.7458   -3.3485   -0.0417 H       1  UNL1        0.1921
     37 H          -6.6123   -1.3440   -1.2201 H       1  UNL1        0.0625
     38 H          -7.4475    0.8680   -0.9441 H       1  UNL1        0.0618
     39 H          -6.1833    2.5668    0.0556 H       1  UNL1        0.0618
     40 H          -3.9382    2.0309    0.9489 H       1  UNL1        0.0624
     41 H          -1.2702    1.6859   -1.1717 H       1  UNL1        0.0621
     42 H           0.4495    1.2228   -2.7152 H       1  UNL1        0.0646
@<TRIPOS>BOND
     1     1     2    2
     2     2     3    1
     3     3     4    3
     4     4     5    1
     5     5     6    1
     6     6     7   am
     7     7     8    2
     8     7     9    1
     9     9    10   ar
    10     9    26   ar
    11    10    11   ar
    12    11    12    1
    13    11    24   ar
    14    12    13    1
    15    13    14   ar
    16    13    23   ar
    17    14    15   ar
    18    15    16   ar
    19    16    17    2
    20    16    18   ar
    21    18    19   ar
    22    18    23   ar
    23    19    20   ar
    24    20    21   ar
    25    21    22   ar
    26    22    23   ar
    27    24    25   ar
    28    25    26   ar
    29    26    27    1
    30     1    28    1
    31     2    29    1
    32     5    30    1
    33     5    31    1
    34     6    32    1
    35    10    33    1
    36    12    34    1
    37    12    35    1
    38    15    36    1
    39    19    37    1
    40    20    38    1
    41    21    39    1
    42    22    40    1
    43    24    41    1
    44    25    42    1
@<TRIPOS>MOLECULE
../data/bude_mols_rdkit_confs/molecule_79.pdb
 42 44 0 0 0
SMALL
GASTEIGER

@<TRIPOS>ATOM
      1  N1         9.3910    2.1730   -1.4000 N.2     1  UNL1       -0.2986
      2  C1         8.2890    1.8640   -1.7920 C.2     1  UNL1        0.0685
      3  C2         7.3670    1.1450   -1.0000 C.1     1  UNL1       -0.0535
      4  C3         6.3720    0.3950   -0.1700 C.1     1  UNL1       -0.0771
      5  C4         5.4510   -0.2740    0.5960 C.3     1  UNL1        0.0742
      6  N2         4.1990   -0.5700   -0.2010 N.am    1  UNL1       -0.3004
      7  C5         3.0270   -1.0250    0.4730 C.2     1  UNL1        0.2476
      8  O1         3.1590   -1.1510    1.7570 O.2     1  UNL1       -0.2701
      9  C6         1.7400   -1.3050   -0.1560 C.ar    1  UNL1        0.0721
     10  C7         0.6140   -0.4010    0.0230 C.ar    1  UNL1       -0.0433
     11  C8        -0.5720   -0.5220   -0.6220 C.ar    1  UNL1       -0.0406
     12  C9        -1.7130    0.4490   -0.5080 C.3     1  UNL1        0.0171
     13  C10       -2.8180    0.0590    0.3000 C.ar    1  UNL1        0.0736
     14  N3        -2.6760   -0.9360    1.3190 N.ar    1  UNL1       -0.1750
     15  N4        -3.4960   -1.1660    2.0540 N.ar    1  UNL1       -0.2425
     16  C11       -4.7920   -0.7900    2.4140 C.ar    1  UNL1        0.2725
     17  O2        -5.5280   -1.0560    3.1620 O.2     1  UNL1       -0.2658
     18  C12       -5.0110    0.2650    1.3290 C.ar    1  UNL1        0.0496
     19  C13       -6.3050    0.7890    1.3940 C.ar    1  UNL1       -0.0487
     20  C14       -6.7510    1.7480    0.4490 C.ar    1  UNL1       -0.0610
     21  C15       -5.7460    2.0850   -0.4940 C.ar    1  UNL1       -0.0611
     22  C16       -4.4850    1.5490   -0.5050 C.ar    1  UNL1       -0.0521
     23  C17       -4.1230    0.6090    0.4280 C.ar    1  UNL1        0.0106
     24  C18       -0.6830   -1.6070   -1.5010 C.ar    1  UNL1       -0.0555
     25  C19        0.2920   -2.5180   -1.7280 C.ar    1  UNL1       -0.0254
     26  C20        1.5110   -2.2940   -0.9970 C.ar    1  UNL1        0.1355
     27  F1         2.4330   -3.2440   -1.2440 F       1  UNL1       -0.2047
     28 H          10.0000    2.6749   -1.9886 H       1  UNL1        0.1867
     29 H           8.0105    2.1379   -2.7472 H       1  UNL1        0.0919
     30 H           5.1937    0.3295    1.4413 H       1  UNL1        0.0599
     31 H           5.8802   -1.2007    0.9153 H       1  UNL1        0.0599
     32 H           4.1934   -0.4493   -1.1781 H       1  UNL1        0.1499
     33 H           0.7256    0.3835    0.6842 H       1  UNL1        0.0629
     34 H          -2.0834    0.6285   -1.4957 H       1  UNL1        0.0377
     35 H          -1.2998    1.3053   -0.0172 H       1  UNL1        0.0377
     36 H          -3.1938   -1.8852    2.6546 H       1  UNL1        0.1921
     37 H          -6.9448    0.4738    2.1399 H       1  UNL1        0.0625
     38 H          -7.6995    2.1547    0.4475 H       1  UNL1        0.0618
     39 H          -5.9803    2.7801   -1.2200 H       1  UNL1        0.0618
     40 H          -3.8040    1.8534   -1.2181 H       1  UNL1        0.0624
     41 H          -1.5723   -1.7199   -2.0124 H       1  UNL1        0.0621
     42 H           0.1704   -3.3123   -2.3756 H       1  UNL1        0.0646
@<TRIPOS>BOND
     1     1     2    2
     2     2     3    1
     3     3     4    3
     4     4     5    1
     5     5     6    1
     6     6     7   am
     7     7     8    2
     8     7     9    1
     9     9    10   ar
    10     9    26   ar
    11    10    11   ar
    12    11    12    1
    13    11    24   ar
    14    12    13    1
    15    13    14   ar
    16    13    23   ar
    17    14    15   ar
    18    15    16   ar
    19    16    17    2
    20    16    18   ar
    21    18    19   ar
    22    18    23   ar
    23    19    20   ar
    24    20    21   ar
    25    21    22   ar
    26    22    23   ar
    27    24    25   ar
    28    25    26   ar
    29    26    27    1
    30     1    28    1
    31     2    29    1
    32     5    30    1
    33     5    31    1
    34     6    32    1
    35    10    33    1
    36    12    34    1
    37    12    35    1
    38    15    36    1
    39    19    37    1
    40    20    38    1
    41    21    39    1
    42    22    40    1
    43    24    41    1
    44    25    42    1
@<TRIPOS>MOLECULE
../data/bude_mols_rdkit_confs/molecule_79.pdb
 42 44 0 0 0
SMALL
GASTEIGER

@<TRIPOS>ATOM
      1  N1         4.4140    2.6480   -3.7510 N.2     1  UNL1       -0.2986
      2  C1         4.8720    1.4250   -3.8980 C.2     1  UNL1        0.0685
      3  C2         5.1380    0.5920   -2.7750 C.1     1  UNL1       -0.0535
      4  C3         5.3710   -0.1340   -1.7610 C.1     1  UNL1       -0.0771
      5  C4         5.6110   -0.9610   -0.6300 C.3     1  UNL1        0.0742
      6  N2         4.3620   -1.6860   -0.3610 N.am    1  UNL1       -0.3004
      7  C5         3.1960   -0.9750   -0.0560 C.2     1  UNL1        0.2476
      8  O1         3.2740    0.2810   -0.0180 O.2     1  UNL1       -0.2701
      9  C6         1.9180   -1.6030    0.2160 C.ar    1  UNL1        0.0721
     10  C7         0.8750   -0.8520    0.7690 C.ar    1  UNL1       -0.0433
     11  C8        -0.3640   -1.3440    1.0760 C.ar    1  UNL1       -0.0406
     12  C9        -1.4380   -0.5100    1.6760 C.3     1  UNL1        0.0171
     13  C10       -2.2400    0.2300    0.7050 C.ar    1  UNL1        0.0736
     14  N3        -2.0650    0.2630   -0.6220 N.ar    1  UNL1       -0.1750
     15  N4        -2.8290    0.9650   -1.4400 N.ar    1  UNL1       -0.2425
     16  C11       -3.8640    1.7210   -1.0300 C.ar    1  UNL1        0.2725
     17  O2        -4.6020    2.3940   -1.7780 O.2     1  UNL1       -0.2658
     18  C12       -4.1010    1.7320    0.3410 C.ar    1  UNL1        0.0496
     19  C13       -5.1560    2.4880    0.8570 C.ar    1  UNL1       -0.0487
     20  C14       -5.3660    2.4740    2.2200 C.ar    1  UNL1       -0.0610
     21  C15       -4.5850    1.7510    3.0920 C.ar    1  UNL1       -0.0611
     22  C16       -3.5490    1.0120    2.5550 C.ar    1  UNL1       -0.0521
     23  C17       -3.3030    0.9960    1.2030 C.ar    1  UNL1        0.0106
     24  C18       -0.5880   -2.6950    0.8140 C.ar    1  UNL1       -0.0555
     25  C19        0.3850   -3.4940    0.2730 C.ar    1  UNL1       -0.0254
     26  C20        1.6210   -2.9280   -0.0150 C.ar    1  UNL1        0.1355
     27  F1         2.5420   -3.7620   -0.5600 F       1  UNL1       -0.2047
     28 H           4.2373    3.2059   -4.5427 H       1  UNL1        0.1867
     29 H           5.0425    1.0607   -4.8484 H       1  UNL1        0.0919
     30 H           5.8779   -0.3611    0.2149 H       1  UNL1        0.0599
     31 H           6.4167   -1.6403   -0.8154 H       1  UNL1        0.0599
     32 H           4.3453   -2.6698   -0.3952 H       1  UNL1        0.1499
     33 H           1.0535    0.1465    0.9593 H       1  UNL1        0.0629
     34 H          -0.9830    0.1944    2.3406 H       1  UNL1        0.0377
     35 H          -2.1048   -1.1824    2.1741 H       1  UNL1        0.0377
     36 H          -2.6299    0.9332   -2.4036 H       1  UNL1        0.1921
     37 H          -5.7632    3.0432    0.2340 H       1  UNL1        0.0625
     38 H          -6.1450    3.0316    2.6036 H       1  UNL1        0.0618
     39 H          -4.7662    1.7605    4.1079 H       1  UNL1        0.0618
     40 H          -2.9456    0.4590    3.1836 H       1  UNL1        0.0624
     41 H          -1.5100   -3.1036    1.0331 H       1  UNL1        0.0621
     42 H           0.2042   -4.4923    0.0840 H       1  UNL1        0.0646
@<TRIPOS>BOND
     1     1     2    2
     2     2     3    1
     3     3     4    3
     4     4     5    1
     5     5     6    1
     6     6     7   am
     7     7     8    2
     8     7     9    1
     9     9    10   ar
    10     9    26   ar
    11    10    11   ar
    12    11    12    1
    13    11    24   ar
    14    12    13    1
    15    13    14   ar
    16    13    23   ar
    17    14    15   ar
    18    15    16   ar
    19    16    17    2
    20    16    18   ar
    21    18    19   ar
    22    18    23   ar
    23    19    20   ar
    24    20    21   ar
    25    21    22   ar
    26    22    23   ar
    27    24    25   ar
    28    25    26   ar
    29    26    27    1
    30     1    28    1
    31     2    29    1
    32     5    30    1
    33     5    31    1
    34     6    32    1
    35    10    33    1
    36    12    34    1
    37    12    35    1
    38    15    36    1
    39    19    37    1
    40    20    38    1
    41    21    39    1
    42    22    40    1
    43    24    41    1
    44    25    42    1
@<TRIPOS>MOLECULE
../data/bude_mols_rdkit_confs/molecule_79.pdb
 42 44 0 0 0
SMALL
GASTEIGER

@<TRIPOS>ATOM
      1  N1         9.1340    1.4360   -1.5500 N.2     1  UNL1       -0.2986
      2  C1         8.1580    1.9040   -0.8830 C.2     1  UNL1        0.0685
      3  C2         7.0100    1.0570   -0.6360 C.1     1  UNL1       -0.0535
      4  C3         6.0500    0.3630   -0.4130 C.1     1  UNL1       -0.0771
      5  C4         4.9030   -0.4930   -0.1310 C.3     1  UNL1        0.0742
      6  N2         3.7220    0.3550    0.0140 N.am    1  UNL1       -0.3004
      7  C5         2.4750   -0.2180    0.3060 C.2     1  UNL1        0.2476
      8  O1         2.4560   -1.4910    0.4370 O.2     1  UNL1       -0.2701
      9  C6         1.2680    0.5670    0.4580 C.ar    1  UNL1        0.0721
     10  C7         0.1390   -0.0200    1.0590 C.ar    1  UNL1       -0.0433
     11  C8        -1.0410    0.6470    1.2730 C.ar    1  UNL1       -0.0406
     12  C9        -2.1550   -0.0810    1.9510 C.3     1  UNL1        0.0171
     13  C10       -2.8150   -1.0880    1.1160 C.ar    1  UNL1        0.0736
     14  N3        -2.3940   -2.3880    1.2230 N.ar    1  UNL1       -0.1750
     15  N4        -2.8880   -3.3660    0.4920 N.ar    1  UNL1       -0.2425
     16  C11       -3.8510   -3.1860   -0.4260 C.ar    1  UNL1        0.2725
     17  O2        -4.2820   -4.1600   -1.0930 O.2     1  UNL1       -0.2658
     18  C12       -4.3330   -1.9080   -0.5960 C.ar    1  UNL1        0.0496
     19  C13       -5.3300   -1.6610   -1.5100 C.ar    1  UNL1       -0.0487
     20  C14       -5.8380   -0.3880   -1.6840 C.ar    1  UNL1       -0.0610
     21  C15       -5.2860    0.6160   -0.8870 C.ar    1  UNL1       -0.0611
     22  C16       -4.2910    0.3980    0.0310 C.ar    1  UNL1       -0.0521
     23  C17       -3.7980   -0.8750    0.1890 C.ar    1  UNL1        0.0106
     24  C18       -1.1530    1.9580    0.8900 C.ar    1  UNL1       -0.0555
     25  C19       -0.0740    2.5670    0.3000 C.ar    1  UNL1       -0.0254
     26  C20        1.1030    1.8760    0.0950 C.ar    1  UNL1        0.1355
     27  F1         2.1600    2.5060   -0.5140 F       1  UNL1       -0.2047
     28 H           9.9230    1.9974   -1.7277 H       1  UNL1        0.1867
     29 H           8.1836    2.8711   -0.5238 H       1  UNL1        0.0919
     30 H           5.0714   -1.0367    0.7751 H       1  UNL1        0.0599
     31 H           4.7595   -1.1915   -0.9287 H       1  UNL1        0.0599
     32 H           3.8014    1.3304   -0.0934 H       1  UNL1        0.1499
     33 H           0.2020   -1.0066    1.3552 H       1  UNL1        0.0629
     34 H          -2.8889    0.6366    2.2534 H       1  UNL1        0.0377
     35 H          -1.7203   -0.6052    2.7763 H       1  UNL1        0.0377
     36 H          -2.5333   -4.2746    0.6255 H       1  UNL1        0.1921
     37 H          -5.7049   -2.4389   -2.0751 H       1  UNL1        0.0625
     38 H          -6.5859   -0.1900   -2.3670 H       1  UNL1        0.0618
     39 H          -5.6471    1.5768   -0.9947 H       1  UNL1        0.0618
     40 H          -3.9181    1.1779    0.5946 H       1  UNL1        0.0624
     41 H          -2.0318    2.4772    1.0423 H       1  UNL1        0.0621
     42 H          -0.1435    3.5538    0.0060 H       1  UNL1        0.0646
@<TRIPOS>BOND
     1     1     2    2
     2     2     3    1
     3     3     4    3
     4     4     5    1
     5     5     6    1
     6     6     7   am
     7     7     8    2
     8     7     9    1
     9     9    10   ar
    10     9    26   ar
    11    10    11   ar
    12    11    12    1
    13    11    24   ar
    14    12    13    1
    15    13    14   ar
    16    13    23   ar
    17    14    15   ar
    18    15    16   ar
    19    16    17    2
    20    16    18   ar
    21    18    19   ar
    22    18    23   ar
    23    19    20   ar
    24    20    21   ar
    25    21    22   ar
    26    22    23   ar
    27    24    25   ar
    28    25    26   ar
    29    26    27    1
    30     1    28    1
    31     2    29    1
    32     5    30    1
    33     5    31    1
    34     6    32    1
    35    10    33    1
    36    12    34    1
    37    12    35    1
    38    15    36    1
    39    19    37    1
    40    20    38    1
    41    21    39    1
    42    22    40    1
    43    24    41    1
    44    25    42    1
@<TRIPOS>MOLECULE
../data/bude_mols_rdkit_confs/molecule_79.pdb
 42 44 0 0 0
SMALL
GASTEIGER

@<TRIPOS>ATOM
      1  N1         6.5670   -3.8560   -0.0840 N.2     1  UNL1       -0.2986
      2  C1         6.0170   -2.8200   -0.5770 C.2     1  UNL1        0.0685
      3  C2         5.8550   -1.5450    0.1240 C.1     1  UNL1       -0.0535
      4  C3         5.7360   -0.5850    0.6300 C.1     1  UNL1       -0.0771
      5  C4         5.5910    0.7940    1.3580 C.3     1  UNL1        0.0742
      6  N2         4.1620    0.8910    1.6570 N.am    1  UNL1       -0.3004
      7  C5         3.1780    0.7380    0.6790 C.2     1  UNL1        0.2476
      8  O1         3.5680    0.4850   -0.5110 O.2     1  UNL1       -0.2701
      9  C6         1.7390    0.8340    0.9510 C.ar    1  UNL1        0.0721
     10  C7         0.8790    0.0160    0.2570 C.ar    1  UNL1       -0.0433
     11  C8        -0.5060    0.0040    0.5560 C.ar    1  UNL1       -0.0406
     12  C9        -1.2870   -0.9650   -0.2080 C.3     1  UNL1        0.0171
     13  C10       -2.1880   -0.4880   -1.2550 C.ar    1  UNL1        0.0736
     14  N3        -1.7420   -0.3580   -2.5410 N.ar    1  UNL1       -0.1750
     15  N4        -2.5620    0.1010   -3.4480 N.ar    1  UNL1       -0.2425
     16  C11       -3.8390    0.4700   -3.2370 C.ar    1  UNL1        0.2725
     17  O2        -4.5590    0.9000   -4.1620 O.2     1  UNL1       -0.2658
     18  C12       -4.3400    0.3580   -1.9530 C.ar    1  UNL1        0.0496
     19  C13       -5.6560    0.7070   -1.6880 C.ar    1  UNL1       -0.0487
     20  C14       -6.1790    0.5790   -0.4170 C.ar    1  UNL1       -0.0610
     21  C15       -5.3540    0.0960    0.5800 C.ar    1  UNL1       -0.0611
     22  C16       -4.0490   -0.2450    0.3010 C.ar    1  UNL1       -0.0521
     23  C17       -3.4880   -0.1270   -0.9740 C.ar    1  UNL1        0.0106
     24  C18       -0.9490    0.8400    1.5550 C.ar    1  UNL1       -0.0555
     25  C19       -0.0510    1.6460    2.2240 C.ar    1  UNL1       -0.0254
     26  C20        1.2840    1.6720    1.9570 C.ar    1  UNL1        0.1355
     27  F1         2.1450    2.4850    2.6430 F       1  UNL1       -0.2047
     28 H           6.6381   -4.6782   -0.6208 H       1  UNL1        0.1867
     29 H           5.6585   -2.8832   -1.5427 H       1  UNL1        0.0919
     30 H           5.9008    1.5949    0.7197 H       1  UNL1        0.0599
     31 H           6.1997    0.8613    2.2354 H       1  UNL1        0.0599
     32 H           3.8837    1.0712    2.5840 H       1  UNL1        0.1499
     33 H           1.2459   -0.5953   -0.4891 H       1  UNL1        0.0629
     34 H          -1.8838   -1.5087    0.4942 H       1  UNL1        0.0377
     35 H          -0.5472   -1.5224   -0.7436 H       1  UNL1        0.0377
     36 H          -2.2159    0.1843   -4.3659 H       1  UNL1        0.1921
     37 H          -6.2514    1.0667   -2.4503 H       1  UNL1        0.0625
     38 H          -7.1582    0.8367   -0.2174 H       1  UNL1        0.0618
     39 H          -5.7177   -0.0100    1.5400 H       1  UNL1        0.0618
     40 H          -3.4588   -0.6038    1.0678 H       1  UNL1        0.0624
     41 H          -1.9504    0.8641    1.8033 H       1  UNL1        0.0621
     42 H          -0.4112    2.2636    2.9682 H       1  UNL1        0.0646
@<TRIPOS>BOND
     1     1     2    2
     2     2     3    1
     3     3     4    3
     4     4     5    1
     5     5     6    1
     6     6     7   am
     7     7     8    2
     8     7     9    1
     9     9    10   ar
    10     9    26   ar
    11    10    11   ar
    12    11    12    1
    13    11    24   ar
    14    12    13    1
    15    13    14   ar
    16    13    23   ar
    17    14    15   ar
    18    15    16   ar
    19    16    17    2
    20    16    18   ar
    21    18    19   ar
    22    18    23   ar
    23    19    20   ar
    24    20    21   ar
    25    21    22   ar
    26    22    23   ar
    27    24    25   ar
    28    25    26   ar
    29    26    27    1
    30     1    28    1
    31     2    29    1
    32     5    30    1
    33     5    31    1
    34     6    32    1
    35    10    33    1
    36    12    34    1
    37    12    35    1
    38    15    36    1
    39    19    37    1
    40    20    38    1
    41    21    39    1
    42    22    40    1
    43    24    41    1
    44    25    42    1
@<TRIPOS>MOLECULE
../data/bude_mols_rdkit_confs/molecule_79.pdb
 42 44 0 0 0
SMALL
GASTEIGER

@<TRIPOS>ATOM
      1  N1         8.4160   -0.7040    0.7780 N.2     1  UNL1       -0.2986
      2  C1         8.4080    0.2120   -0.1480 C.2     1  UNL1        0.0685
      3  C2         7.2040    0.8430   -0.4680 C.1     1  UNL1       -0.0535
      4  C3         6.1770    1.3880   -0.7570 C.1     1  UNL1       -0.0771
      5  C4         4.8860    2.0710   -1.1210 C.3     1  UNL1        0.0742
      6  N2         3.8770    1.0720   -0.6410 N.am    1  UNL1       -0.3004
      7  C5         2.5810    0.9920   -1.0140 C.2     1  UNL1        0.2476
      8  O1         2.1020    1.7650   -1.8990 O.2     1  UNL1       -0.2701
      9  C6         1.7200   -0.0250   -0.3930 C.ar    1  UNL1        0.0721
     10  C7         0.3430    0.1040   -0.6370 C.ar    1  UNL1       -0.0433
     11  C8        -0.5500   -0.6800    0.1080 C.ar    1  UNL1       -0.0406
     12  C9        -1.8190   -0.9300   -0.5440 C.3     1  UNL1        0.0171
     13  C10       -2.9080   -0.0560   -0.8970 C.ar    1  UNL1        0.0736
     14  N3        -3.0000    0.3900   -2.1710 N.ar    1  UNL1       -0.1750
     15  N4        -4.1200    0.7780   -2.7010 N.ar    1  UNL1       -0.2425
     16  C11       -5.2640    0.7460   -2.0060 C.ar    1  UNL1        0.2725
     17  O2        -6.3500    1.0710   -2.5630 O.2     1  UNL1       -0.2658
     18  C12       -5.2630    0.3180   -0.7040 C.ar    1  UNL1        0.0496
     19  C13       -6.4100    0.2110    0.0580 C.ar    1  UNL1       -0.0487
     20  C14       -6.3310   -0.2570    1.3340 C.ar    1  UNL1       -0.0610
     21  C15       -5.1090   -0.6170    1.8730 C.ar    1  UNL1       -0.0611
     22  C16       -3.9450   -0.5390    1.1740 C.ar    1  UNL1       -0.0521
     23  C17       -4.0480   -0.0790   -0.1230 C.ar    1  UNL1        0.0106
     24  C18       -0.0590   -1.5240    1.0770 C.ar    1  UNL1       -0.0555
     25  C19        1.2940   -1.6460    1.2870 C.ar    1  UNL1       -0.0254
     26  C20        2.1760   -0.8970    0.5280 C.ar    1  UNL1        0.1355
     27  F1         3.4990   -1.2390    0.6040 F       1  UNL1       -0.2047
     28 H           9.2572   -1.1576    1.0145 H       1  UNL1        0.1867
     29 H           9.2793    0.4679   -0.6384 H       1  UNL1        0.0919
     30 H           4.8102    2.2274   -2.1768 H       1  UNL1        0.0599
     31 H           4.7722    3.0463   -0.6958 H       1  UNL1        0.0599
     32 H           4.1907    0.4062    0.0128 H       1  UNL1        0.1499
     33 H          -0.0051    0.7630   -1.3508 H       1  UNL1        0.0629
     34 H          -2.2804   -1.6684    0.0779 H       1  UNL1        0.0377
     35 H          -1.4275   -1.0424   -1.5334 H       1  UNL1        0.0377
     36 H          -4.1282    1.1016   -3.6308 H       1  UNL1        0.1921
     37 H          -7.3228    0.4846   -0.3381 H       1  UNL1        0.0625
     38 H          -7.1879   -0.3437    1.9025 H       1  UNL1        0.0618
     39 H          -5.0793   -0.9591    2.8462 H       1  UNL1        0.0618
     40 H          -3.0390   -0.8077    1.5887 H       1  UNL1        0.0624
     41 H          -0.7153   -2.0730    1.6541 H       1  UNL1        0.0621
     42 H           1.6504   -2.2933    2.0075 H       1  UNL1        0.0646
@<TRIPOS>BOND
     1     1     2    2
     2     2     3    1
     3     3     4    3
     4     4     5    1
     5     5     6    1
     6     6     7   am
     7     7     8    2
     8     7     9    1
     9     9    10   ar
    10     9    26   ar
    11    10    11   ar
    12    11    12    1
    13    11    24   ar
    14    12    13    1
    15    13    14   ar
    16    13    23   ar
    17    14    15   ar
    18    15    16   ar
    19    16    17    2
    20    16    18   ar
    21    18    19   ar
    22    18    23   ar
    23    19    20   ar
    24    20    21   ar
    25    21    22   ar
    26    22    23   ar
    27    24    25   ar
    28    25    26   ar
    29    26    27    1
    30     1    28    1
    31     2    29    1
    32     5    30    1
    33     5    31    1
    34     6    32    1
    35    10    33    1
    36    12    34    1
    37    12    35    1
    38    15    36    1
    39    19    37    1
    40    20    38    1
    41    21    39    1
    42    22    40    1
    43    24    41    1
    44    25    42    1
@<TRIPOS>MOLECULE
../data/bude_mols_rdkit_confs/molecule_79.pdb
 42 44 0 0 0
SMALL
GASTEIGER

@<TRIPOS>ATOM
      1  N1         6.9300    0.1760    1.7900 N.2     1  UNL1       -0.2986
      2  C1         7.2110    0.3790    0.6500 C.2     1  UNL1        0.0685
      3  C2         6.2810    1.0690   -0.2510 C.1     1  UNL1       -0.0535
      4  C3         5.5220    1.6100   -0.9890 C.1     1  UNL1       -0.0771
      5  C4         4.6190    2.2800   -1.8880 C.3     1  UNL1        0.0742
      6  N2         3.5100    1.4150   -2.3070 N.am    1  UNL1       -0.3004
      7  C5         2.6100    0.8650   -1.3890 C.2     1  UNL1        0.2476
      8  O1         2.8380    1.1840   -0.1610 O.2     1  UNL1       -0.2701
      9  C6         1.4740   -0.0050   -1.6640 C.ar    1  UNL1        0.0721
     10  C7         0.6360   -0.3270   -0.5760 C.ar    1  UNL1       -0.0433
     11  C8        -0.4490   -1.1320   -0.7790 C.ar    1  UNL1       -0.0406
     12  C9        -1.3240   -1.4640    0.3650 C.3     1  UNL1        0.0171
     13  C10       -2.4220   -0.4940    0.4690 C.ar    1  UNL1        0.0736
     14  N3        -2.5320    0.4920   -0.4380 N.ar    1  UNL1       -0.1750
     15  N4        -3.4990    1.4020   -0.4090 N.ar    1  UNL1       -0.2425
     16  C11       -4.4260    1.3600    0.5620 C.ar    1  UNL1        0.2725
     17  O2        -5.3350    2.2380    0.5660 O.2     1  UNL1       -0.2658
     18  C12       -4.4150    0.3960    1.5460 C.ar    1  UNL1        0.0496
     19  C13       -5.3500    0.3290    2.5490 C.ar    1  UNL1       -0.0487
     20  C14       -5.2900   -0.6570    3.5060 C.ar    1  UNL1       -0.0610
     21  C15       -4.2640   -1.5860    3.4380 C.ar    1  UNL1       -0.0611
     22  C16       -3.3300   -1.5120    2.4270 C.ar    1  UNL1       -0.0521
     23  C17       -3.3730   -0.5330    1.4610 C.ar    1  UNL1        0.0106
     24  C18       -0.7570   -1.6450   -2.0190 C.ar    1  UNL1       -0.0555
     25  C19        0.0700   -1.3200   -3.0680 C.ar    1  UNL1       -0.0254
     26  C20        1.1850   -0.5020   -2.8940 C.ar    1  UNL1        0.1355
     27  F1         1.9580   -0.2250   -3.9570 F       1  UNL1       -0.2047
     28 H           7.5676   -0.2887    2.3789 H       1  UNL1        0.1867
     29 H           8.1253    0.0637    0.2898 H       1  UNL1        0.0919
     30 H           5.1629    2.5879   -2.7565 H       1  UNL1        0.0599
     31 H           4.2033    3.1194   -1.3707 H       1  UNL1        0.0599
     32 H           3.3961    1.2157   -3.2644 H       1  UNL1        0.1499
     33 H           0.8408    0.0425    0.3656 H       1  UNL1        0.0629
     34 H          -0.7484   -1.4428    1.2667 H       1  UNL1        0.0377
     35 H          -1.7364   -2.4398    0.2145 H       1  UNL1        0.0377
     36 H          -3.5362    2.1051   -1.0971 H       1  UNL1        0.1921
     37 H          -6.1083    1.0281    2.5854 H       1  UNL1        0.0625
     38 H          -5.9943   -0.7040    4.2589 H       1  UNL1        0.0618
     39 H          -4.1991   -2.3345    4.1455 H       1  UNL1        0.0618
     40 H          -2.5739   -2.2136    2.3935 H       1  UNL1        0.0624
     41 H          -1.5800   -2.2523   -2.1562 H       1  UNL1        0.0621
     42 H          -0.1400   -1.6910   -4.0078 H       1  UNL1        0.0646
@<TRIPOS>BOND
     1     1     2    2
     2     2     3    1
     3     3     4    3
     4     4     5    1
     5     5     6    1
     6     6     7   am
     7     7     8    2
     8     7     9    1
     9     9    10   ar
    10     9    26   ar
    11    10    11   ar
    12    11    12    1
    13    11    24   ar
    14    12    13    1
    15    13    14   ar
    16    13    23   ar
    17    14    15   ar
    18    15    16   ar
    19    16    17    2
    20    16    18   ar
    21    18    19   ar
    22    18    23   ar
    23    19    20   ar
    24    20    21   ar
    25    21    22   ar
    26    22    23   ar
    27    24    25   ar
    28    25    26   ar
    29    26    27    1
    30     1    28    1
    31     2    29    1
    32     5    30    1
    33     5    31    1
    34     6    32    1
    35    10    33    1
    36    12    34    1
    37    12    35    1
    38    15    36    1
    39    19    37    1
    40    20    38    1
    41    21    39    1
    42    22    40    1
    43    24    41    1
    44    25    42    1
@<TRIPOS>MOLECULE
../data/bude_mols_rdkit_confs/molecule_79.pdb
 42 44 0 0 0
SMALL
GASTEIGER

@<TRIPOS>ATOM
      1  N1        -6.9430    2.8320   -1.7290 N.2     1  UNL1       -0.2986
      2  C1        -7.6230    1.6990   -1.9580 C.2     1  UNL1        0.0685
      3  C2        -6.7530    0.5400   -1.8250 C.1     1  UNL1       -0.0535
      4  C3        -6.0390   -0.4070   -1.7220 C.1     1  UNL1       -0.0771
      5  C4        -5.1080   -1.6020   -1.5820 C.3     1  UNL1        0.0742
      6  N2        -3.8350   -0.9990   -1.3180 N.am    1  UNL1       -0.3004
      7  C5        -2.6020   -1.6010   -0.9950 C.2     1  UNL1        0.2476
      8  O1        -2.5320   -2.8240   -0.8790 O.2     1  UNL1       -0.2701
      9  C6        -1.4290   -0.7470   -0.7960 C.ar    1  UNL1        0.0721
     10  C7        -0.6660   -0.7220    0.3410 C.ar    1  UNL1       -0.0433
     11  C8         0.3560    0.2410    0.5440 C.ar    1  UNL1       -0.0406
     12  C9         1.0620    0.2240    1.8580 C.3     1  UNL1        0.0171
     13  C10        2.3160   -0.4470    1.8260 C.ar    1  UNL1        0.0736
     14  N3         2.3620   -1.7740    2.0780 N.ar    1  UNL1       -0.1750
     15  N4         3.4080   -2.5410    2.0480 N.ar    1  UNL1       -0.2425
     16  C11        4.6520   -2.0340    1.7330 C.ar    1  UNL1        0.2725
     17  O2         5.6560   -2.7520    1.7020 O.2     1  UNL1       -0.2658
     18  C12        4.7000   -0.6880    1.4600 C.ar    1  UNL1        0.0496
     19  C13        5.9130   -0.0810    1.1600 C.ar    1  UNL1       -0.0487
     20  C14        5.9880    1.2770    0.9200 C.ar    1  UNL1       -0.0610
     21  C15        4.8440    2.0490    0.9740 C.ar    1  UNL1       -0.0611
     22  C16        3.6420    1.4390    1.2680 C.ar    1  UNL1       -0.0521
     23  C17        3.5720    0.0940    1.5040 C.ar    1  UNL1        0.0106
     24  C18        0.6180    1.1900   -0.4160 C.ar    1  UNL1       -0.0555
     25  C19       -0.1620    1.1580   -1.5830 C.ar    1  UNL1       -0.0254
     26  C20       -1.1430    0.2300   -1.7640 C.ar    1  UNL1        0.1355
     27  F1        -1.8930    0.1980   -2.9030 F       1  UNL1       -0.2047
     28 H          -7.4021    3.7012   -1.7834 H       1  UNL1        0.1867
     29 H          -8.6262    1.6550   -2.1960 H       1  UNL1        0.0919
     30 H          -5.0809   -2.1747   -2.4854 H       1  UNL1        0.0599
     31 H          -5.4148   -2.2844   -0.8171 H       1  UNL1        0.0599
     32 H          -3.8193   -0.0160   -1.3701 H       1  UNL1        0.1499
     33 H          -0.8402   -1.4269    1.0744 H       1  UNL1        0.0629
     34 H           0.4345   -0.2671    2.5721 H       1  UNL1        0.0377
     35 H           1.2595    1.2426    2.1195 H       1  UNL1        0.0377
     36 H           3.3127   -3.4992    2.2531 H       1  UNL1        0.1921
     37 H           6.7707   -0.6532    1.1158 H       1  UNL1        0.0625
     38 H           6.8969    1.7140    0.7008 H       1  UNL1        0.0618
     39 H           4.8876    3.0648    0.7974 H       1  UNL1        0.0618
     40 H           2.7815    2.0072    1.3105 H       1  UNL1        0.0624
     41 H           1.3580    1.8971   -0.2840 H       1  UNL1        0.0621
     42 H           0.0123    1.8557   -2.3231 H       1  UNL1        0.0646
@<TRIPOS>BOND
     1     1     2    2
     2     2     3    1
     3     3     4    3
     4     4     5    1
     5     5     6    1
     6     6     7   am
     7     7     8    2
     8     7     9    1
     9     9    10   ar
    10     9    26   ar
    11    10    11   ar
    12    11    12    1
    13    11    24   ar
    14    12    13    1
    15    13    14   ar
    16    13    23   ar
    17    14    15   ar
    18    15    16   ar
    19    16    17    2
    20    16    18   ar
    21    18    19   ar
    22    18    23   ar
    23    19    20   ar
    24    20    21   ar
    25    21    22   ar
    26    22    23   ar
    27    24    25   ar
    28    25    26   ar
    29    26    27    1
    30     1    28    1
    31     2    29    1
    32     5    30    1
    33     5    31    1
    34     6    32    1
    35    10    33    1
    36    12    34    1
    37    12    35    1
    38    15    36    1
    39    19    37    1
    40    20    38    1
    41    21    39    1
    42    22    40    1
    43    24    41    1
    44    25    42    1
@<TRIPOS>MOLECULE
../data/bude_mols_rdkit_confs/molecule_79.pdb
 42 44 0 0 0
SMALL
GASTEIGER

@<TRIPOS>ATOM
      1  N1         9.6160    0.6670   -2.4180 N.2     1  UNL1       -0.2986
      2  C1         8.6830   -0.0250   -1.8430 C.2     1  UNL1        0.0685
      3  C2         7.3290    0.4460   -1.7200 C.1     1  UNL1       -0.0535
      4  C3         6.1990    0.8370   -1.6380 C.1     1  UNL1       -0.0771
      5  C4         4.8360    1.3090   -1.5170 C.3     1  UNL1        0.0742
      6  N2         3.9350    0.1810   -1.2230 N.am    1  UNL1       -0.3004
      7  C5         2.5550    0.4090   -1.0640 C.2     1  UNL1        0.2476
      8  O1         2.1860    1.6290   -1.1950 O.2     1  UNL1       -0.2701
      9  C6         1.5350   -0.5730   -0.7740 C.ar    1  UNL1        0.0721
     10  C7         0.2160   -0.1480   -0.7290 C.ar    1  UNL1       -0.0433
     11  C8        -0.8480   -0.9780   -0.4700 C.ar    1  UNL1       -0.0406
     12  C9        -2.2350   -0.5610   -0.4160 C.3     1  UNL1        0.0171
     13  C10       -2.7500   -0.1410    0.8770 C.ar    1  UNL1        0.0736
     14  N3        -2.0400   -0.1130    2.0210 N.ar    1  UNL1       -0.1750
     15  N4        -2.5500    0.2760    3.1680 N.ar    1  UNL1       -0.2425
     16  C11       -3.8220    0.6840    3.3270 C.ar    1  UNL1        0.2725
     17  O2        -4.2950    1.0500    4.4180 O.2     1  UNL1       -0.2658
     18  C12       -4.6080    0.6760    2.1690 C.ar    1  UNL1        0.0496
     19  C13       -5.9160    1.0920    2.3100 C.ar    1  UNL1       -0.0487
     20  C14       -6.7090    1.0900    1.1740 C.ar    1  UNL1       -0.0610
     21  C15       -6.2130    0.6930   -0.0360 C.ar    1  UNL1       -0.0611
     22  C16       -4.9080    0.2860   -0.1400 C.ar    1  UNL1       -0.0521
     23  C17       -4.0670    0.2670    0.9680 C.ar    1  UNL1        0.0106
     24  C18       -0.5420   -2.3070   -0.2480 C.ar    1  UNL1       -0.0555
     25  C19        0.7600   -2.7660   -0.2850 C.ar    1  UNL1       -0.0254
     26  C20        1.8230   -1.8900   -0.5520 C.ar    1  UNL1        0.1355
     27  F1         3.0710   -2.3970   -0.5720 F       1  UNL1       -0.2047
     28 H          10.5297    0.3056   -2.4800 H       1  UNL1        0.1867
     29 H           8.9211   -0.9522   -1.4574 H       1  UNL1        0.0919
     30 H           4.5381    1.7701   -2.4355 H       1  UNL1        0.0599
     31 H           4.7805    2.0194   -0.7188 H       1  UNL1        0.0599
     32 H           4.2973   -0.7304   -1.1379 H       1  UNL1        0.1499
     33 H           0.0218    0.8510   -0.9002 H       1  UNL1        0.0629
     34 H          -2.8323   -1.3839   -0.7491 H       1  UNL1        0.0377
     35 H          -2.2857    0.3128   -1.0315 H       1  UNL1        0.0377
     36 H          -1.9650    0.2684    3.9598 H       1  UNL1        0.1921
     37 H          -6.2884    1.3924    3.2244 H       1  UNL1        0.0625
     38 H          -7.6928    1.3940    1.2428 H       1  UNL1        0.0618
     39 H          -6.8201    0.6996   -0.8705 H       1  UNL1        0.0618
     40 H          -4.5425   -0.0120   -1.0579 H       1  UNL1        0.0624
     41 H          -1.3051   -2.9729   -0.0497 H       1  UNL1        0.0621
     42 H           0.9534   -3.7652   -0.1142 H       1  UNL1        0.0646
@<TRIPOS>BOND
     1     1     2    2
     2     2     3    1
     3     3     4    3
     4     4     5    1
     5     5     6    1
     6     6     7   am
     7     7     8    2
     8     7     9    1
     9     9    10   ar
    10     9    26   ar
    11    10    11   ar
    12    11    12    1
    13    11    24   ar
    14    12    13    1
    15    13    14   ar
    16    13    23   ar
    17    14    15   ar
    18    15    16   ar
    19    16    17    2
    20    16    18   ar
    21    18    19   ar
    22    18    23   ar
    23    19    20   ar
    24    20    21   ar
    25    21    22   ar
    26    22    23   ar
    27    24    25   ar
    28    25    26   ar
    29    26    27    1
    30     1    28    1
    31     2    29    1
    32     5    30    1
    33     5    31    1
    34     6    32    1
    35    10    33    1
    36    12    34    1
    37    12    35    1
    38    15    36    1
    39    19    37    1
    40    20    38    1
    41    21    39    1
    42    22    40    1
    43    24    41    1
    44    25    42    1
@<TRIPOS>MOLECULE
../data/bude_mols_rdkit_confs/molecule_79.pdb
 42 44 0 0 0
SMALL
GASTEIGER

@<TRIPOS>ATOM
      1  N1         4.1120    2.8290    2.0040 N.2     1  UNL1       -0.2986
      2  C1         5.4450    2.4360    1.8750 C.2     1  UNL1        0.0685
      3  C2         5.5720    1.4060    1.0990 C.1     1  UNL1       -0.0535
      4  C3         5.7160    0.3530    0.2800 C.1     1  UNL1       -0.0771
      5  C4         5.8760   -0.8610   -0.6320 C.3     1  UNL1        0.0742
      6  N2         4.4450   -1.1560   -0.7240 N.am    1  UNL1       -0.3004
      7  C5         3.5870   -1.3970    0.4010 C.2     1  UNL1        0.2476
      8  O1         4.0850   -1.3920    1.5100 O.2     1  UNL1       -0.2701
      9  C6         2.1580   -1.6180    0.1940 C.ar    1  UNL1        0.0721
     10  C7         1.2010   -0.6470    0.5110 C.ar    1  UNL1       -0.0433
     11  C8        -0.1610   -0.8090    0.2040 C.ar    1  UNL1       -0.0406
     12  C9        -1.0950    0.2410    0.5730 C.3     1  UNL1        0.0171
     13  C10       -2.5240   -0.0840    0.4420 C.ar    1  UNL1        0.0736
     14  N3        -3.0070   -1.3000    0.6880 N.ar    1  UNL1       -0.1750
     15  N4        -4.2270   -1.7190    0.5410 N.ar    1  UNL1       -0.2425
     16  C11       -5.1040   -0.7820    0.0540 C.ar    1  UNL1        0.2725
     17  O2        -6.3000   -1.1250   -0.1310 O.2     1  UNL1       -0.2658
     18  C12       -4.7120    0.4920   -0.2300 C.ar    1  UNL1        0.0496
     19  C13       -5.6240    1.4340   -0.7000 C.ar    1  UNL1       -0.0487
     20  C14       -5.2850    2.6950   -0.9420 C.ar    1  UNL1       -0.0610
     21  C15       -3.9680    3.1170   -0.7120 C.ar    1  UNL1       -0.0611
     22  C16       -3.0370    2.1470   -0.2530 C.ar    1  UNL1       -0.0521
     23  C17       -3.3980    0.8860   -0.0380 C.ar    1  UNL1        0.0106
     24  C18       -0.5270   -1.9820   -0.4400 C.ar    1  UNL1       -0.0555
     25  C19        0.4100   -2.9790   -0.7690 C.ar    1  UNL1       -0.0254
     26  C20        1.7340   -2.7560   -0.4320 C.ar    1  UNL1        0.1355
     27  F1         2.6480   -3.7180   -0.6710 F       1  UNL1       -0.2047
     28 H           3.8789    3.6015    2.5681 H       1  UNL1        0.1867
     29 H           6.2347    2.9089    2.3416 H       1  UNL1        0.0919
     30 H           6.4348   -1.6518   -0.1768 H       1  UNL1        0.0599
     31 H           6.4106   -0.7221   -1.5484 H       1  UNL1        0.0599
     32 H           4.0425   -1.1916   -1.6217 H       1  UNL1        0.1499
     33 H           1.5057    0.2170    0.9861 H       1  UNL1        0.0629
     34 H          -0.8949    1.0888   -0.0483 H       1  UNL1        0.0377
     35 H          -0.9352    0.4119    1.6171 H       1  UNL1        0.0377
     36 H          -4.5020   -2.6381    0.7618 H       1  UNL1        0.1921
     37 H          -6.5995    1.1411   -0.8664 H       1  UNL1        0.0625
     38 H          -5.9880    3.3614   -1.2978 H       1  UNL1        0.0618
     39 H          -3.6851    4.0967   -0.8704 H       1  UNL1        0.0618
     40 H          -2.0586    2.4277   -0.0827 H       1  UNL1        0.0624
     41 H          -1.5186   -2.1282   -0.6858 H       1  UNL1        0.0621
     42 H           0.1199   -3.8472   -1.2455 H       1  UNL1        0.0646
@<TRIPOS>BOND
     1     1     2    2
     2     2     3    1
     3     3     4    3
     4     4     5    1
     5     5     6    1
     6     6     7   am
     7     7     8    2
     8     7     9    1
     9     9    10   ar
    10     9    26   ar
    11    10    11   ar
    12    11    12    1
    13    11    24   ar
    14    12    13    1
    15    13    14   ar
    16    13    23   ar
    17    14    15   ar
    18    15    16   ar
    19    16    17    2
    20    16    18   ar
    21    18    19   ar
    22    18    23   ar
    23    19    20   ar
    24    20    21   ar
    25    21    22   ar
    26    22    23   ar
    27    24    25   ar
    28    25    26   ar
    29    26    27    1
    30     1    28    1
    31     2    29    1
    32     5    30    1
    33     5    31    1
    34     6    32    1
    35    10    33    1
    36    12    34    1
    37    12    35    1
    38    15    36    1
    39    19    37    1
    40    20    38    1
    41    21    39    1
    42    22    40    1
    43    24    41    1
    44    25    42    1
@<TRIPOS>MOLECULE
../data/bude_mols_rdkit_confs/molecule_79.pdb
 42 44 0 0 0
SMALL
GASTEIGER

@<TRIPOS>ATOM
      1  N1         9.0450    1.2830   -0.3810 N.2     1  UNL1       -0.2986
      2  C1         7.9150    1.2280   -0.9620 C.2     1  UNL1        0.0685
      3  C2         6.7780    0.6930   -0.2790 C.1     1  UNL1       -0.0535
      4  C3         5.8210    0.2200    0.3000 C.1     1  UNL1       -0.0771
      5  C4         4.6710   -0.3200    0.9900 C.3     1  UNL1        0.0742
      6  N2         3.5590   -0.5950    0.0680 N.am    1  UNL1       -0.3004
      7  C5         2.3450   -1.1080    0.5860 C.2     1  UNL1        0.2476
      8  O1         2.3120   -1.2950    1.8500 O.2     1  UNL1       -0.2701
      9  C6         1.1480   -1.4350   -0.1630 C.ar    1  UNL1        0.0721
     10  C7        -0.0970   -1.4770    0.4890 C.ar    1  UNL1       -0.0433
     11  C8        -1.2780   -1.7330   -0.1620 C.ar    1  UNL1       -0.0406
     12  C9        -2.5600   -1.7350    0.5560 C.3     1  UNL1        0.0171
     13  C10       -3.5690   -0.7620    0.0480 C.ar    1  UNL1        0.0736
     14  N3        -4.5610   -1.1930   -0.7460 N.ar    1  UNL1       -0.1750
     15  N4        -5.4450   -0.3800   -1.2440 N.ar    1  UNL1       -0.2425
     16  C11       -5.4120    0.9370   -0.9910 C.ar    1  UNL1        0.2725
     17  O2        -6.2400    1.7760   -1.4460 O.2     1  UNL1       -0.2658
     18  C12       -4.4120    1.4360   -0.1770 C.ar    1  UNL1        0.0496
     19  C13       -4.3440    2.7780    0.1210 C.ar    1  UNL1       -0.0487
     20  C14       -3.3370    3.2590    0.9540 C.ar    1  UNL1       -0.0610
     21  C15       -2.4030    2.4080    1.4870 C.ar    1  UNL1       -0.0611
     22  C16       -2.4650    1.0620    1.1920 C.ar    1  UNL1       -0.0521
     23  C17       -3.4790    0.5670    0.3490 C.ar    1  UNL1        0.0106
     24  C18       -1.2750   -1.9690   -1.5390 C.ar    1  UNL1       -0.0555
     25  C19       -0.0680   -1.9350   -2.1980 C.ar    1  UNL1       -0.0254
     26  C20        1.1250   -1.6700   -1.5110 C.ar    1  UNL1        0.1355
     27  F1         2.2780   -1.6640   -2.2120 F       1  UNL1       -0.2047
     28 H           9.8249    1.6521   -0.8552 H       1  UNL1        0.1867
     29 H           7.8181    1.5709   -1.9305 H       1  UNL1        0.0919
     30 H           4.3449    0.3864    1.7246 H       1  UNL1        0.0599
     31 H           4.9607   -1.2437    1.4458 H       1  UNL1        0.0599
     32 H           3.6572   -0.4247   -0.8967 H       1  UNL1        0.1499
     33 H          -0.1242   -1.3071    1.5066 H       1  UNL1        0.0629
     34 H          -2.3655   -1.5056    1.5829 H       1  UNL1        0.0377
     35 H          -2.9826   -2.7071    0.4101 H       1  UNL1        0.0377
     36 H          -6.1566   -0.7400   -1.8213 H       1  UNL1        0.1921
     37 H          -5.0407    3.4291   -0.2737 H       1  UNL1        0.0625
     38 H          -3.2931    4.2666    1.1725 H       1  UNL1        0.0618
     39 H          -1.6598    2.7717    2.1038 H       1  UNL1        0.0618
     40 H          -1.7661    0.4155    1.5903 H       1  UNL1        0.0624
     41 H          -2.1523   -2.1631   -2.0467 H       1  UNL1        0.0621
     42 H          -0.0402   -2.1074   -3.2151 H       1  UNL1        0.0646
@<TRIPOS>BOND
     1     1     2    2
     2     2     3    1
     3     3     4    3
     4     4     5    1
     5     5     6    1
     6     6     7   am
     7     7     8    2
     8     7     9    1
     9     9    10   ar
    10     9    26   ar
    11    10    11   ar
    12    11    12    1
    13    11    24   ar
    14    12    13    1
    15    13    14   ar
    16    13    23   ar
    17    14    15   ar
    18    15    16   ar
    19    16    17    2
    20    16    18   ar
    21    18    19   ar
    22    18    23   ar
    23    19    20   ar
    24    20    21   ar
    25    21    22   ar
    26    22    23   ar
    27    24    25   ar
    28    25    26   ar
    29    26    27    1
    30     1    28    1
    31     2    29    1
    32     5    30    1
    33     5    31    1
    34     6    32    1
    35    10    33    1
    36    12    34    1
    37    12    35    1
    38    15    36    1
    39    19    37    1
    40    20    38    1
    41    21    39    1
    42    22    40    1
    43    24    41    1
    44    25    42    1
@<TRIPOS>MOLECULE
../data/bude_mols_rdkit_confs/molecule_79.pdb
 42 44 0 0 0
SMALL
GASTEIGER

@<TRIPOS>ATOM
      1  N1         7.7340   -3.1900   -2.4940 N.2     1  UNL1       -0.2986
      2  C1         7.2870   -2.3840   -3.3810 C.2     1  UNL1        0.0685
      3  C2         5.9220   -1.8750   -3.3850 C.1     1  UNL1       -0.0535
      4  C3         4.7920   -1.4540   -3.4100 C.1     1  UNL1       -0.0771
      5  C4         3.4040   -0.9440   -3.4200 C.3     1  UNL1        0.0742
      6  N2         2.8550   -1.1420   -2.0700 N.am    1  UNL1       -0.3004
      7  C5         1.5570   -0.7850   -1.6920 C.2     1  UNL1        0.2476
      8  O1         0.8270   -0.2660   -2.5930 O.2     1  UNL1       -0.2701
      9  C6         0.9630   -0.9530   -0.3620 C.ar    1  UNL1        0.0721
     10  C7        -0.4300   -0.8300   -0.2350 C.ar    1  UNL1       -0.0433
     11  C8        -1.1080   -0.9790    0.9590 C.ar    1  UNL1       -0.0406
     12  C9        -2.6010   -0.8740    0.9930 C.3     1  UNL1        0.0171
     13  C10       -3.1290    0.4360    0.6350 C.ar    1  UNL1        0.0736
     14  N3        -3.5930    0.6460   -0.6400 N.ar    1  UNL1       -0.1750
     15  N4        -4.0500    1.8130   -1.0220 N.ar    1  UNL1       -0.2425
     16  C11       -4.0970    2.8750   -0.2140 C.ar    1  UNL1        0.2725
     17  O2        -4.5290    4.0150   -0.5460 O.2     1  UNL1       -0.2658
     18  C12       -3.6530    2.7690    1.0950 C.ar    1  UNL1        0.0496
     19  C13       -3.6950    3.8230    1.9620 C.ar    1  UNL1       -0.0487
     20  C14       -3.2570    3.6550    3.2460 C.ar    1  UNL1       -0.0610
     21  C15       -2.7790    2.4150    3.6410 C.ar    1  UNL1       -0.0611
     22  C16       -2.7340    1.3540    2.7710 C.ar    1  UNL1       -0.0521
     23  C17       -3.1650    1.4960    1.4830 C.ar    1  UNL1        0.0106
     24  C18       -0.3300   -1.2630    2.0560 C.ar    1  UNL1       -0.0555
     25  C19        1.0290   -1.3930    1.9900 C.ar    1  UNL1       -0.0254
     26  C20        1.6970   -1.2390    0.7700 C.ar    1  UNL1        0.1355
     27  F1         3.0450   -1.3610    0.7130 F       1  UNL1       -0.2047
     28 H           8.6662   -3.5034   -2.5387 H       1  UNL1        0.1867
     29 H           7.9258   -2.0788   -4.1319 H       1  UNL1        0.0919
     30 H           2.8204   -1.4848   -4.1354 H       1  UNL1        0.0599
     31 H           3.3830    0.0914   -3.6891 H       1  UNL1        0.0599
     32 H           3.4377   -1.5514   -1.3902 H       1  UNL1        0.1499
     33 H          -0.9787   -0.6160   -1.0825 H       1  UNL1        0.0629
     34 H          -2.9286   -1.1053    1.9850 H       1  UNL1        0.0377
     35 H          -2.9683   -1.5585    0.2571 H       1  UNL1        0.0377
     36 H          -4.3734    1.9113   -1.9467 H       1  UNL1        0.1921
     37 H          -4.0544    4.7389    1.6505 H       1  UNL1        0.0625
     38 H          -3.2819    4.4418    3.9133 H       1  UNL1        0.0618
     39 H          -2.4497    2.2867    4.6106 H       1  UNL1        0.0618
     40 H          -2.3719    0.4427    3.0926 H       1  UNL1        0.0624
     41 H          -0.7928   -1.3835    2.9705 H       1  UNL1        0.0621
     42 H           1.5659   -1.6061    2.8452 H       1  UNL1        0.0646
@<TRIPOS>BOND
     1     1     2    2
     2     2     3    1
     3     3     4    3
     4     4     5    1
     5     5     6    1
     6     6     7   am
     7     7     8    2
     8     7     9    1
     9     9    10   ar
    10     9    26   ar
    11    10    11   ar
    12    11    12    1
    13    11    24   ar
    14    12    13    1
    15    13    14   ar
    16    13    23   ar
    17    14    15   ar
    18    15    16   ar
    19    16    17    2
    20    16    18   ar
    21    18    19   ar
    22    18    23   ar
    23    19    20   ar
    24    20    21   ar
    25    21    22   ar
    26    22    23   ar
    27    24    25   ar
    28    25    26   ar
    29    26    27    1
    30     1    28    1
    31     2    29    1
    32     5    30    1
    33     5    31    1
    34     6    32    1
    35    10    33    1
    36    12    34    1
    37    12    35    1
    38    15    36    1
    39    19    37    1
    40    20    38    1
    41    21    39    1
    42    22    40    1
    43    24    41    1
    44    25    42    1
@<TRIPOS>MOLECULE
../data/bude_mols_rdkit_confs/molecule_79.pdb
 42 44 0 0 0
SMALL
GASTEIGER

@<TRIPOS>ATOM
      1  N1         5.7750   -3.9640   -3.5060 N.2     1  UNL1       -0.2986
      2  C1         5.8160   -2.6130   -3.0560 C.2     1  UNL1        0.0685
      3  C2         5.5530   -2.4010   -1.7470 C.1     1  UNL1       -0.0535
      4  C3         5.2810   -2.1620   -0.4180 C.1     1  UNL1       -0.0771
      5  C4         5.0360   -1.9400    0.8780 C.3     1  UNL1        0.0742
      6  N2         3.9770   -0.9690    1.0930 N.am    1  UNL1       -0.3004
      7  C5         2.6700   -1.0720    0.5730 C.2     1  UNL1        0.2476
      8  O1         2.3870   -2.0550   -0.1540 O.2     1  UNL1       -0.2701
      9  C6         1.6300   -0.0820    0.8410 C.ar    1  UNL1        0.0721
     10  C7         0.7480    0.4250   -0.0200 C.ar    1  UNL1       -0.0433
     11  C8        -0.1660    1.4300    0.3170 C.ar    1  UNL1       -0.0406
     12  C9        -1.0840    1.9660   -0.7400 C.3     1  UNL1        0.0171
     13  C10       -2.2240    1.1100   -0.8720 C.ar    1  UNL1        0.0736
     14  N3        -2.1760    0.0970   -1.7260 N.ar    1  UNL1       -0.1750
     15  N4        -3.0760   -0.8120   -1.9420 N.ar    1  UNL1       -0.2425
     16  C11       -4.2490   -0.7790   -1.2330 C.ar    1  UNL1        0.2725
     17  O2        -5.1260   -1.6680   -1.4520 O.2     1  UNL1       -0.2658
     18  C12       -4.3850    0.2440   -0.3250 C.ar    1  UNL1        0.0496
     19  C13       -5.5760    0.3340    0.4050 C.ar    1  UNL1       -0.0487
     20  C14       -5.7580    1.3650    1.3020 C.ar    1  UNL1       -0.0610
     21  C15       -4.7560    2.2970    1.4670 C.ar    1  UNL1       -0.0611
     22  C16       -3.5670    2.2310    0.7570 C.ar    1  UNL1       -0.0521
     23  C17       -3.4100    1.2040   -0.1160 C.ar    1  UNL1        0.0106
     24  C18       -0.1770    1.9270    1.5820 C.ar    1  UNL1       -0.0555
     25  C19        0.7480    1.4050    2.5180 C.ar    1  UNL1       -0.0254
     26  C20        1.6410    0.4140    2.1550 C.ar    1  UNL1        0.1355
     27  F1         2.4800   -0.0620    3.0940 F       1  UNL1       -0.2047
     28 H           5.9588   -4.1742   -4.4501 H       1  UNL1        0.1867
     29 H           6.0355   -1.8349   -3.6973 H       1  UNL1        0.0919
     30 H           5.9313   -1.5767    1.3377 H       1  UNL1        0.0599
     31 H           4.7160   -2.8659    1.3084 H       1  UNL1        0.0599
     32 H           4.1874   -0.1800    1.6429 H       1  UNL1        0.1499
     33 H           0.7385    0.0578   -0.9844 H       1  UNL1        0.0629
     34 H          -0.5631    2.0104   -1.6736 H       1  UNL1        0.0377
     35 H          -1.4090    2.9466   -0.4614 H       1  UNL1        0.0377
     36 H          -2.9182   -1.5189   -2.6088 H       1  UNL1        0.1921
     37 H          -6.3176   -0.3712    0.2718 H       1  UNL1        0.0625
     38 H          -6.6336    1.4381    1.8432 H       1  UNL1        0.0618
     39 H          -4.8951    3.0674    2.1395 H       1  UNL1        0.0618
     40 H          -2.8270    2.9383    0.8879 H       1  UNL1        0.0624
     41 H          -0.8433    2.6668    1.8535 H       1  UNL1        0.0621
     42 H           0.7558    1.7689    3.4837 H       1  UNL1        0.0646
@<TRIPOS>BOND
     1     1     2    2
     2     2     3    1
     3     3     4    3
     4     4     5    1
     5     5     6    1
     6     6     7   am
     7     7     8    2
     8     7     9    1
     9     9    10   ar
    10     9    26   ar
    11    10    11   ar
    12    11    12    1
    13    11    24   ar
    14    12    13    1
    15    13    14   ar
    16    13    23   ar
    17    14    15   ar
    18    15    16   ar
    19    16    17    2
    20    16    18   ar
    21    18    19   ar
    22    18    23   ar
    23    19    20   ar
    24    20    21   ar
    25    21    22   ar
    26    22    23   ar
    27    24    25   ar
    28    25    26   ar
    29    26    27    1
    30     1    28    1
    31     2    29    1
    32     5    30    1
    33     5    31    1
    34     6    32    1
    35    10    33    1
    36    12    34    1
    37    12    35    1
    38    15    36    1
    39    19    37    1
    40    20    38    1
    41    21    39    1
    42    22    40    1
    43    24    41    1
    44    25    42    1
@<TRIPOS>MOLECULE
../data/bude_mols_rdkit_confs/molecule_79.pdb
 42 44 0 0 0
SMALL
GASTEIGER

@<TRIPOS>ATOM
      1  N1         6.2150    2.2730    0.8810 N.2     1  UNL1       -0.2986
      2  C1         6.4190    1.6190   -0.0480 C.2     1  UNL1        0.0685
      3  C2         5.9270    0.3490   -0.5140 C.1     1  UNL1       -0.0535
      4  C3         5.5170   -0.7530   -0.9200 C.1     1  UNL1       -0.0771
      5  C4         5.0620   -2.0450   -1.3880 C.3     1  UNL1        0.0742
      6  N2         3.6320   -1.9120   -1.7100 N.am    1  UNL1       -0.3004
      7  C5         2.7630   -1.5380   -0.6720 C.2     1  UNL1        0.2476
      8  O1         3.2270   -1.3190    0.4500 O.2     1  UNL1       -0.2701
      9  C6         1.3020   -1.3980   -0.8790 C.ar    1  UNL1        0.0721
     10  C7         0.4650   -1.4160    0.2410 C.ar    1  UNL1       -0.0433
     11  C8        -0.8950   -1.3380    0.2190 C.ar    1  UNL1       -0.0406
     12  C9        -1.7430   -1.3500    1.4320 C.3     1  UNL1        0.0171
     13  C10       -3.0120   -0.6000    1.3530 C.ar    1  UNL1        0.0736
     14  N3        -4.1700   -1.1710    1.4560 N.ar    1  UNL1       -0.1750
     15  N4        -5.4140   -0.6910    1.4750 N.ar    1  UNL1       -0.2425
     16  C11       -5.4150    0.7150    1.3530 C.ar    1  UNL1        0.2725
     17  O2        -6.5930    1.2450    1.3590 O.2     1  UNL1       -0.2658
     18  C12       -4.2930    1.3940    1.2350 C.ar    1  UNL1        0.0496
     19  C13       -4.2650    2.8100    1.0970 C.ar    1  UNL1       -0.0487
     20  C14       -3.1310    3.5080    0.9680 C.ar    1  UNL1       -0.0610
     21  C15       -1.8690    2.8780    0.9640 C.ar    1  UNL1       -0.0611
     22  C16       -1.8470    1.5100    1.0990 C.ar    1  UNL1       -0.0521
     23  C17       -2.9910    0.8040    1.2260 C.ar    1  UNL1        0.0106
     24  C18       -1.4530   -1.2310   -1.0590 C.ar    1  UNL1       -0.0555
     25  C19       -0.6590   -1.2110   -2.1790 C.ar    1  UNL1       -0.0254
     26  C20        0.7190   -1.2930   -2.1040 C.ar    1  UNL1        0.1355
     27  F1         1.4540   -1.2590   -3.2610 F       1  UNL1       -0.2047
     28 H           6.6838    3.1317    0.9910 H       1  UNL1        0.1867
     29 H           7.1098    2.0396   -0.6890 H       1  UNL1        0.0919
     30 H           5.1988   -2.7809   -0.6234 H       1  UNL1        0.0599
     31 H           5.6179   -2.3549   -2.2481 H       1  UNL1        0.0599
     32 H           3.2966   -2.0792   -2.6204 H       1  UNL1        0.1499
     33 H           0.9171   -1.4953    1.1653 H       1  UNL1        0.0629
     34 H          -1.1693   -0.9355    2.2344 H       1  UNL1        0.0377
     35 H          -2.0254   -2.3726    1.5714 H       1  UNL1        0.0377
     36 H          -6.2239   -1.2439    1.5625 H       1  UNL1        0.1921
     37 H          -5.1609    3.3222    1.0964 H       1  UNL1        0.0625
     38 H          -3.1809    4.5340    0.8688 H       1  UNL1        0.0618
     39 H          -0.9976    3.4218    0.8638 H       1  UNL1        0.0618
     40 H          -0.9416    1.0147    1.1033 H       1  UNL1        0.0624
     41 H          -2.4778   -1.1660   -1.1618 H       1  UNL1        0.0621
     42 H          -1.1051   -1.1323   -3.1063 H       1  UNL1        0.0646
@<TRIPOS>BOND
     1     1     2    2
     2     2     3    1
     3     3     4    3
     4     4     5    1
     5     5     6    1
     6     6     7   am
     7     7     8    2
     8     7     9    1
     9     9    10   ar
    10     9    26   ar
    11    10    11   ar
    12    11    12    1
    13    11    24   ar
    14    12    13    1
    15    13    14   ar
    16    13    23   ar
    17    14    15   ar
    18    15    16   ar
    19    16    17    2
    20    16    18   ar
    21    18    19   ar
    22    18    23   ar
    23    19    20   ar
    24    20    21   ar
    25    21    22   ar
    26    22    23   ar
    27    24    25   ar
    28    25    26   ar
    29    26    27    1
    30     1    28    1
    31     2    29    1
    32     5    30    1
    33     5    31    1
    34     6    32    1
    35    10    33    1
    36    12    34    1
    37    12    35    1
    38    15    36    1
    39    19    37    1
    40    20    38    1
    41    21    39    1
    42    22    40    1
    43    24    41    1
    44    25    42    1
@<TRIPOS>MOLECULE
../data/bude_mols_rdkit_confs/molecule_79.pdb
 42 44 0 0 0
SMALL
GASTEIGER

@<TRIPOS>ATOM
      1  N1         6.6540    2.6880   -2.2870 N.2     1  UNL1       -0.2986
      2  C1         6.5580    1.4360   -2.0090 C.2     1  UNL1        0.0685
      3  C2         6.0030    1.0190   -0.7510 C.1     1  UNL1       -0.0535
      4  C3         5.5250    0.6600    0.2910 C.1     1  UNL1       -0.0771
      5  C4         4.9330    0.2400    1.5850 C.3     1  UNL1        0.0742
      6  N2         3.8330   -0.6750    1.3480 N.am    1  UNL1       -0.3004
      7  C5         2.7080   -0.3080    0.6020 C.2     1  UNL1        0.2476
      8  O1         2.7290    0.8920    0.1520 O.2     1  UNL1       -0.2701
      9  C6         1.5500   -1.1420    0.3000 C.ar    1  UNL1        0.0721
     10  C7         0.5500   -0.5700   -0.4860 C.ar    1  UNL1       -0.0433
     11  C8        -0.6110   -1.2510   -0.8550 C.ar    1  UNL1       -0.0406
     12  C9        -1.6140   -0.5600   -1.7240 C.3     1  UNL1        0.0171
     13  C10       -2.3570    0.5140   -1.0290 C.ar    1  UNL1        0.0736
     14  N3        -1.9310    1.8140   -1.1380 N.ar    1  UNL1       -0.1750
     15  N4        -2.5110    2.8130   -0.5180 N.ar    1  UNL1       -0.2425
     16  C11       -3.5660    2.6220    0.2690 C.ar    1  UNL1        0.2725
     17  O2        -4.1430    3.5790    0.8820 O.2     1  UNL1       -0.2658
     18  C12       -4.0770    1.3610    0.4500 C.ar    1  UNL1        0.0496
     19  C13       -5.1770    1.1800    1.2570 C.ar    1  UNL1       -0.0487
     20  C14       -5.6720   -0.0930    1.4040 C.ar    1  UNL1       -0.0610
     21  C15       -5.0630   -1.1410    0.7500 C.ar    1  UNL1       -0.0611
     22  C16       -3.9600   -0.9530   -0.0580 C.ar    1  UNL1       -0.0521
     23  C17       -3.4440    0.3110   -0.2210 C.ar    1  UNL1        0.0106
     24  C18       -0.7450   -2.5340   -0.4110 C.ar    1  UNL1       -0.0555
     25  C19        0.2300   -3.1540    0.3800 C.ar    1  UNL1       -0.0254
     26  C20        1.3740   -2.4290    0.7220 C.ar    1  UNL1        0.1355
     27  F1         2.2870   -3.0370    1.4780 F       1  UNL1       -0.2047
     28 H           7.0344    2.9730   -3.1491 H       1  UNL1        0.1867
     29 H           6.8798    0.7304   -2.6899 H       1  UNL1        0.0919
     30 H           4.5722    1.1016    2.1069 H       1  UNL1        0.0599
     31 H           5.6804   -0.2508    2.1727 H       1  UNL1        0.0599
     32 H           3.8795   -1.5836    1.7242 H       1  UNL1        0.1499
     33 H           0.6743    0.4020   -0.8098 H       1  UNL1        0.0629
     34 H          -2.3172   -1.2869   -2.0733 H       1  UNL1        0.0377
     35 H          -1.0730   -0.1008   -2.5249 H       1  UNL1        0.0377
     36 H          -2.1580    3.7242   -0.6376 H       1  UNL1        0.1921
     37 H          -5.6181    1.9790    1.7387 H       1  UNL1        0.0625
     38 H          -6.4961   -0.2632    2.0015 H       1  UNL1        0.0618
     39 H          -5.4421   -2.0936    0.8674 H       1  UNL1        0.0618
     40 H          -3.5249   -1.7568   -0.5372 H       1  UNL1        0.0624
     41 H          -1.5924   -3.0648   -0.6664 H       1  UNL1        0.0621
     42 H           0.1060   -4.1261    0.7035 H       1  UNL1        0.0646
@<TRIPOS>BOND
     1     1     2    2
     2     2     3    1
     3     3     4    3
     4     4     5    1
     5     5     6    1
     6     6     7   am
     7     7     8    2
     8     7     9    1
     9     9    10   ar
    10     9    26   ar
    11    10    11   ar
    12    11    12    1
    13    11    24   ar
    14    12    13    1
    15    13    14   ar
    16    13    23   ar
    17    14    15   ar
    18    15    16   ar
    19    16    17    2
    20    16    18   ar
    21    18    19   ar
    22    18    23   ar
    23    19    20   ar
    24    20    21   ar
    25    21    22   ar
    26    22    23   ar
    27    24    25   ar
    28    25    26   ar
    29    26    27    1
    30     1    28    1
    31     2    29    1
    32     5    30    1
    33     5    31    1
    34     6    32    1
    35    10    33    1
    36    12    34    1
    37    12    35    1
    38    15    36    1
    39    19    37    1
    40    20    38    1
    41    21    39    1
    42    22    40    1
    43    24    41    1
    44    25    42    1
@<TRIPOS>MOLECULE
../data/bude_mols_rdkit_confs/molecule_79.pdb
 42 44 0 0 0
SMALL
GASTEIGER

@<TRIPOS>ATOM
      1  N1         5.0580    3.9110    0.2310 N.2     1  UNL1       -0.2986
      2  C1         5.6950    3.6440   -1.1450 C.2     1  UNL1        0.0685
      3  C2         5.7040    2.2460   -1.1550 C.1     1  UNL1       -0.0535
      4  C3         5.7360    0.8330   -1.1750 C.1     1  UNL1       -0.0771
      5  C4         5.7490   -0.4050   -1.2000 C.3     1  UNL1        0.0742
      6  N2         4.2730   -0.7300   -0.9500 N.am    1  UNL1       -0.3004
      7  C5         3.3200   -1.4900   -0.7610 C.2     1  UNL1        0.2476
      8  O1         3.4830   -2.8120   -0.8180 O.2     1  UNL1       -0.2701
      9  C6         1.8950   -1.0990   -0.4750 C.ar    1  UNL1        0.0721
     10  C7         0.7910   -1.6960   -0.9220 C.ar    1  UNL1       -0.0433
     11  C8        -0.4960   -1.1600   -0.5380 C.ar    1  UNL1       -0.0406
     12  C9        -1.7140   -1.8480   -1.0030 C.3     1  UNL1        0.0171
     13  C10       -2.7690   -1.6610    0.0850 C.ar    1  UNL1        0.0736
     14  N3        -2.7550   -2.4720    1.1260 N.ar    1  UNL1       -0.1750
     15  N4        -3.5360   -2.2090    2.1790 N.ar    1  UNL1       -0.2425
     16  C11       -4.3200   -1.1480    2.2080 C.ar    1  UNL1        0.2725
     17  O2        -5.0190   -0.8960    3.2290 O.2     1  UNL1       -0.2658
     18  C12       -4.4240   -0.2370    1.2010 C.ar    1  UNL1        0.0496
     19  C13       -5.1760    0.8530    1.1140 C.ar    1  UNL1       -0.0487
     20  C14       -5.2750    1.7530    0.1190 C.ar    1  UNL1       -0.0610
     21  C15       -4.4560    1.4810   -1.0240 C.ar    1  UNL1       -0.0611
     22  C16       -3.6530    0.3490   -1.0070 C.ar    1  UNL1       -0.0521
     23  C17       -3.5550   -0.5510    0.0100 C.ar    1  UNL1        0.0106
     24  C18       -0.5030   -0.0630    0.2600 C.ar    1  UNL1       -0.0555
     25  C19        0.6180    0.5830    0.7280 C.ar    1  UNL1       -0.0254
     26  C20        1.8550    0.0380    0.3360 C.ar    1  UNL1        0.1355
     27  F1         2.9820    0.6100    0.7350 F       1  UNL1       -0.2047
     28 H           4.9142    4.8360    0.5357 H       1  UNL1        0.1867
     29 H           6.0237    4.3111   -1.8605 H       1  UNL1        0.0919
     30 H           6.3736   -0.8051   -0.4288 H       1  UNL1        0.0599
     31 H           6.1400   -0.8194   -2.1057 H       1  UNL1        0.0599
     32 H           3.8524    0.1599   -0.9280 H       1  UNL1        0.1499
     33 H           0.8532   -2.5264   -1.5316 H       1  UNL1        0.0629
     34 H          -1.5159   -2.8893   -1.1489 H       1  UNL1        0.0377
     35 H          -2.0494   -1.4461   -1.9362 H       1  UNL1        0.0377
     36 H          -3.5259   -2.8209    2.9502 H       1  UNL1        0.1921
     37 H          -5.7754    1.0382    1.9334 H       1  UNL1        0.0625
     38 H          -5.8941    2.5768    0.1751 H       1  UNL1        0.0618
     39 H          -4.4627    2.1117   -1.8408 H       1  UNL1        0.0618
     40 H          -3.0758    0.1729   -1.8442 H       1  UNL1        0.0624
     41 H          -1.4214    0.3169    0.5379 H       1  UNL1        0.0621
     42 H           0.5555    1.4181    1.3311 H       1  UNL1        0.0646
@<TRIPOS>BOND
     1     1     2    2
     2     2     3    1
     3     3     4    3
     4     4     5    1
     5     5     6    1
     6     6     7   am
     7     7     8    2
     8     7     9    1
     9     9    10   ar
    10     9    26   ar
    11    10    11   ar
    12    11    12    1
    13    11    24   ar
    14    12    13    1
    15    13    14   ar
    16    13    23   ar
    17    14    15   ar
    18    15    16   ar
    19    16    17    2
    20    16    18   ar
    21    18    19   ar
    22    18    23   ar
    23    19    20   ar
    24    20    21   ar
    25    21    22   ar
    26    22    23   ar
    27    24    25   ar
    28    25    26   ar
    29    26    27    1
    30     1    28    1
    31     2    29    1
    32     5    30    1
    33     5    31    1
    34     6    32    1
    35    10    33    1
    36    12    34    1
    37    12    35    1
    38    15    36    1
    39    19    37    1
    40    20    38    1
    41    21    39    1
    42    22    40    1
    43    24    41    1
    44    25    42    1
@<TRIPOS>MOLECULE
../data/bude_mols_rdkit_confs/molecule_79.pdb
 42 44 0 0 0
SMALL
GASTEIGER

@<TRIPOS>ATOM
      1  N1         6.3730   -3.5460   -2.0890 N.2     1  UNL1       -0.2986
      2  C1         5.7240   -2.5080   -1.7200 C.2     1  UNL1        0.0685
      3  C2         5.4180   -2.1590   -0.3910 C.1     1  UNL1       -0.0535
      4  C3         5.1280   -1.8240    0.8140 C.1     1  UNL1       -0.0771
      5  C4         4.7880   -1.4570    2.1210 C.3     1  UNL1        0.0742
      6  N2         3.7580   -0.4220    2.1890 N.am    1  UNL1       -0.3004
      7  C5         2.4710   -0.5960    1.6790 C.2     1  UNL1        0.2476
      8  O1         2.2410   -1.7440    1.1450 O.2     1  UNL1       -0.2701
      9  C6         1.3650    0.3440    1.6760 C.ar    1  UNL1        0.0721
     10  C7         0.0770   -0.0860    1.4540 C.ar    1  UNL1       -0.0433
     11  C8        -1.0480    0.7540    1.4740 C.ar    1  UNL1       -0.0406
     12  C9        -2.3600    0.1370    1.2790 C.3     1  UNL1        0.0171
     13  C10       -2.7310   -0.2760   -0.0630 C.ar    1  UNL1        0.0736
     14  N3        -2.5280   -1.5830   -0.4540 N.ar    1  UNL1       -0.1750
     15  N4        -2.8210   -2.0110   -1.6700 N.ar    1  UNL1       -0.2425
     16  C11       -3.3350   -1.1980   -2.5990 C.ar    1  UNL1        0.2725
     17  O2        -3.6120   -1.6320   -3.7740 O.2     1  UNL1       -0.2658
     18  C12       -3.5730    0.1320   -2.2960 C.ar    1  UNL1        0.0496
     19  C13       -4.1230    0.9730   -3.2490 C.ar    1  UNL1       -0.0487
     20  C14       -4.3730    2.2870   -2.9230 C.ar    1  UNL1       -0.0610
     21  C15       -4.0640    2.7360   -1.6350 C.ar    1  UNL1       -0.0611
     22  C16       -3.5210    1.8640   -0.7280 C.ar    1  UNL1       -0.0521
     23  C17       -3.2520    0.5440   -1.0070 C.ar    1  UNL1        0.0106
     24  C18       -0.8530    2.0810    1.7300 C.ar    1  UNL1       -0.0555
     25  C19        0.4150    2.5460    1.9550 C.ar    1  UNL1       -0.0254
     26  C20        1.5090    1.6930    1.9290 C.ar    1  UNL1        0.1355
     27  F1         2.7480    2.2090    2.1470 F       1  UNL1       -0.2047
     28 H           6.5398   -3.7080   -3.0457 H       1  UNL1        0.1867
     29 H           5.3956   -1.8699   -2.4617 H       1  UNL1        0.0919
     30 H           5.6672   -1.0919    2.6094 H       1  UNL1        0.0599
     31 H           4.3896   -2.3280    2.5979 H       1  UNL1        0.0599
     32 H           3.9827    0.4371    2.6141 H       1  UNL1        0.1499
     33 H          -0.0715   -1.0888    1.2607 H       1  UNL1        0.0629
     34 H          -3.0944    0.8420    1.6085 H       1  UNL1        0.0377
     35 H          -2.3084   -0.7769    1.8331 H       1  UNL1        0.0377
     36 H          -2.6562   -2.9545   -1.8979 H       1  UNL1        0.1921
     37 H          -4.3430    0.6187   -4.1930 H       1  UNL1        0.0625
     38 H          -4.7821    2.9307   -3.6182 H       1  UNL1        0.0618
     39 H          -4.2436    3.7170   -1.3696 H       1  UNL1        0.0618
     40 H          -3.3017    2.2170    0.2166 H       1  UNL1        0.0624
     41 H          -1.6558    2.7290    1.7537 H       1  UNL1        0.0621
     42 H           0.5597    3.5495    2.1475 H       1  UNL1        0.0646
@<TRIPOS>BOND
     1     1     2    2
     2     2     3    1
     3     3     4    3
     4     4     5    1
     5     5     6    1
     6     6     7   am
     7     7     8    2
     8     7     9    1
     9     9    10   ar
    10     9    26   ar
    11    10    11   ar
    12    11    12    1
    13    11    24   ar
    14    12    13    1
    15    13    14   ar
    16    13    23   ar
    17    14    15   ar
    18    15    16   ar
    19    16    17    2
    20    16    18   ar
    21    18    19   ar
    22    18    23   ar
    23    19    20   ar
    24    20    21   ar
    25    21    22   ar
    26    22    23   ar
    27    24    25   ar
    28    25    26   ar
    29    26    27    1
    30     1    28    1
    31     2    29    1
    32     5    30    1
    33     5    31    1
    34     6    32    1
    35    10    33    1
    36    12    34    1
    37    12    35    1
    38    15    36    1
    39    19    37    1
    40    20    38    1
    41    21    39    1
    42    22    40    1
    43    24    41    1
    44    25    42    1
@<TRIPOS>MOLECULE
../data/bude_mols_rdkit_confs/molecule_79.pdb
 42 44 0 0 0
SMALL
GASTEIGER

@<TRIPOS>ATOM
      1  N1         7.4930    0.4420   -1.1080 N.2     1  UNL1       -0.2986
      2  C1         6.8900   -0.4230   -1.8710 C.2     1  UNL1        0.0685
      3  C2         5.6970   -0.0300   -2.5620 C.1     1  UNL1       -0.0535
      4  C3         4.6720    0.3170   -3.1350 C.1     1  UNL1       -0.0771
      5  C4         3.4260    0.7440   -3.8060 C.3     1  UNL1        0.0742
      6  N2         2.5860    1.2760   -2.7410 N.am    1  UNL1       -0.3004
      7  C5         2.1540    0.5240   -1.6460 C.2     1  UNL1        0.2476
      8  O1         2.5450   -0.6990   -1.6350 O.2     1  UNL1       -0.2701
      9  C6         1.3240    0.9560   -0.5350 C.ar    1  UNL1        0.0721
     10  C7         0.7410    0.0180    0.3080 C.ar    1  UNL1       -0.0433
     11  C8        -0.0750    0.3290    1.3710 C.ar    1  UNL1       -0.0406
     12  C9        -0.6420   -0.7390    2.2260 C.3     1  UNL1        0.0171
     13  C10       -1.7140   -1.5170    1.6270 C.ar    1  UNL1        0.0736
     14  N3        -1.4000   -2.6780    1.0250 N.ar    1  UNL1       -0.1750
     15  N4        -2.2730   -3.4360    0.4090 N.ar    1  UNL1       -0.2425
     16  C11       -3.5670   -3.0920    0.3390 C.ar    1  UNL1        0.2725
     17  O2        -4.4410   -3.7630   -0.2290 O.2     1  UNL1       -0.2658
     18  C12       -3.9600   -1.9020    0.9420 C.ar    1  UNL1        0.0496
     19  C13       -5.2800   -1.5160    0.9070 C.ar    1  UNL1       -0.0487
     20  C14       -5.6440   -0.3510    1.5180 C.ar    1  UNL1       -0.0610
     21  C15       -4.7490    0.4520    2.1680 C.ar    1  UNL1       -0.0611
     22  C16       -3.4440    0.0560    2.1950 C.ar    1  UNL1       -0.0521
     23  C17       -3.0290   -1.1190    1.5860 C.ar    1  UNL1        0.0106
     24  C18       -0.3090    1.6590    1.5860 C.ar    1  UNL1       -0.0555
     25  C19        0.2600    2.6360    0.7590 C.ar    1  UNL1       -0.0254
     26  C20        1.0790    2.2830   -0.3050 C.ar    1  UNL1        0.1355
     27  F1         1.6210    3.2920   -1.0760 F       1  UNL1       -0.2047
     28 H           8.3132    0.1867   -0.6271 H       1  UNL1        0.1867
     29 H           7.2654   -1.3784   -1.9771 H       1  UNL1        0.0919
     30 H           2.9498   -0.0889   -4.2798 H       1  UNL1        0.0599
     31 H           3.6103    1.4684   -4.5716 H       1  UNL1        0.0599
     32 H           2.3072    2.2186   -2.7963 H       1  UNL1        0.1499
     33 H           0.9330   -0.9792    0.1244 H       1  UNL1        0.0629
     34 H          -1.0235   -0.2819    3.1151 H       1  UNL1        0.0377
     35 H           0.1570   -1.4280    2.4041 H       1  UNL1        0.0377
     36 H          -1.9731   -4.2745   -0.0107 H       1  UNL1        0.1921
     37 H          -5.9838   -2.0980    0.4264 H       1  UNL1        0.0625
     38 H          -6.6351   -0.0649    1.4880 H       1  UNL1        0.0618
     39 H          -5.0503    1.3280    2.6228 H       1  UNL1        0.0618
     40 H          -2.7489    0.6447    2.6801 H       1  UNL1        0.0624
     41 H          -0.9146    1.9476    2.3702 H       1  UNL1        0.0621
     42 H           0.0675    3.6330    0.9434 H       1  UNL1        0.0646
@<TRIPOS>BOND
     1     1     2    2
     2     2     3    1
     3     3     4    3
     4     4     5    1
     5     5     6    1
     6     6     7   am
     7     7     8    2
     8     7     9    1
     9     9    10   ar
    10     9    26   ar
    11    10    11   ar
    12    11    12    1
    13    11    24   ar
    14    12    13    1
    15    13    14   ar
    16    13    23   ar
    17    14    15   ar
    18    15    16   ar
    19    16    17    2
    20    16    18   ar
    21    18    19   ar
    22    18    23   ar
    23    19    20   ar
    24    20    21   ar
    25    21    22   ar
    26    22    23   ar
    27    24    25   ar
    28    25    26   ar
    29    26    27    1
    30     1    28    1
    31     2    29    1
    32     5    30    1
    33     5    31    1
    34     6    32    1
    35    10    33    1
    36    12    34    1
    37    12    35    1
    38    15    36    1
    39    19    37    1
    40    20    38    1
    41    21    39    1
    42    22    40    1
    43    24    41    1
    44    25    42    1
@<TRIPOS>MOLECULE
../data/bude_mols_rdkit_confs/molecule_79.pdb
 42 44 0 0 0
SMALL
GASTEIGER

@<TRIPOS>ATOM
      1  N1         6.0940    2.8720   -2.0130 N.2     1  UNL1       -0.2986
      2  C1         5.2300    2.6070   -1.0940 C.2     1  UNL1        0.0685
      3  C2         5.2520    1.3250   -0.4170 C.1     1  UNL1       -0.0535
      4  C3         5.2650    0.2600    0.1230 C.1     1  UNL1       -0.0771
      5  C4         5.2600   -1.0130    0.7820 C.3     1  UNL1        0.0742
      6  N2         3.9340   -1.6630    0.6900 N.am    1  UNL1       -0.3004
      7  C5         2.7850   -1.0600    1.2170 C.2     1  UNL1        0.2476
      8  O1         2.9600    0.0900    1.7720 O.2     1  UNL1       -0.2701
      9  C6         1.4430   -1.6100    1.1910 C.ar    1  UNL1        0.0721
     10  C7         0.3920   -0.8380    1.6420 C.ar    1  UNL1       -0.0433
     11  C8        -0.9350   -1.2470    1.6720 C.ar    1  UNL1       -0.0406
     12  C9        -1.9470   -0.3150    2.2050 C.3     1  UNL1        0.0171
     13  C10       -2.3060    0.7890    1.2860 C.ar    1  UNL1        0.0736
     14  N3        -1.6520    1.9890    1.4070 N.ar    1  UNL1       -0.1750
     15  N4        -1.8800    3.0040    0.5930 N.ar    1  UNL1       -0.2425
     16  C11       -2.7660    2.9530   -0.4180 C.ar    1  UNL1        0.2725
     17  O2        -2.9750    3.9380   -1.1940 O.2     1  UNL1       -0.2658
     18  C12       -3.4710    1.7800   -0.6090 C.ar    1  UNL1        0.0496
     19  C13       -4.4030    1.6720   -1.6160 C.ar    1  UNL1       -0.0487
     20  C14       -5.1300    0.5000   -1.8030 C.ar    1  UNL1       -0.0610
     21  C15       -4.8710   -0.5600   -0.9250 C.ar    1  UNL1       -0.0611
     22  C16       -3.9350   -0.4360    0.0760 C.ar    1  UNL1       -0.0521
     23  C17       -3.2130    0.7260    0.2620 C.ar    1  UNL1        0.0106
     24  C18       -1.2490   -2.4920    1.2300 C.ar    1  UNL1       -0.0555
     25  C19       -0.2340   -3.3080    0.7650 C.ar    1  UNL1       -0.0254
     26  C20        1.0950   -2.8650    0.7480 C.ar    1  UNL1        0.1355
     27  F1         2.0370   -3.6900    0.2950 F       1  UNL1       -0.2047
     28 H           6.0750    3.7439   -2.4698 H       1  UNL1        0.1867
     29 H           4.5193    3.3105   -0.8389 H       1  UNL1        0.0919
     30 H           5.5079   -0.8722    1.8133 H       1  UNL1        0.0599
     31 H           5.9785   -1.6438    0.3016 H       1  UNL1        0.0599
     32 H           3.8576   -2.5395    0.2482 H       1  UNL1        0.1499
     33 H           0.6076    0.1123    1.9817 H       1  UNL1        0.0629
     34 H          -1.5653    0.1125    3.1086 H       1  UNL1        0.0377
     35 H          -2.8383   -0.8869    2.3581 H       1  UNL1        0.0377
     36 H          -1.3769    3.8386    0.7330 H       1  UNL1        0.1921
     37 H          -4.5657    2.4747   -2.2439 H       1  UNL1        0.0625
     38 H          -5.8301    0.4156   -2.5565 H       1  UNL1        0.0618
     39 H          -5.3892   -1.4462   -1.0302 H       1  UNL1        0.0618
     40 H          -3.7677   -1.2356    0.7066 H       1  UNL1        0.0624
     41 H          -2.2265   -2.8229    1.2409 H       1  UNL1        0.0621
     42 H          -0.4586   -4.2564    0.4258 H       1  UNL1        0.0646
@<TRIPOS>BOND
     1     1     2    2
     2     2     3    1
     3     3     4    3
     4     4     5    1
     5     5     6    1
     6     6     7   am
     7     7     8    2
     8     7     9    1
     9     9    10   ar
    10     9    26   ar
    11    10    11   ar
    12    11    12    1
    13    11    24   ar
    14    12    13    1
    15    13    14   ar
    16    13    23   ar
    17    14    15   ar
    18    15    16   ar
    19    16    17    2
    20    16    18   ar
    21    18    19   ar
    22    18    23   ar
    23    19    20   ar
    24    20    21   ar
    25    21    22   ar
    26    22    23   ar
    27    24    25   ar
    28    25    26   ar
    29    26    27    1
    30     1    28    1
    31     2    29    1
    32     5    30    1
    33     5    31    1
    34     6    32    1
    35    10    33    1
    36    12    34    1
    37    12    35    1
    38    15    36    1
    39    19    37    1
    40    20    38    1
    41    21    39    1
    42    22    40    1
    43    24    41    1
    44    25    42    1
