@<TRIPOS>MOLECULE
../data/bude_mols_rdkit_confs/molecule_31.pdb
 38 41 0 0 0
SMALL
GASTEIGER

@<TRIPOS>ATOM
      1  O1        -0.7200    2.0000    0.6290 O.2     1  UNL1       -0.2682
      2  C1        -0.5690    0.8970    0.0920 C.2     1  UNL1        0.2676
      3  C2        -1.5950   -0.0790   -0.1260 C.ar    1  UNL1        0.1535
      4  N1        -1.3060   -1.2680   -0.7360 N.ar    1  UNL1       -0.1656
      5  N2        -2.1630   -2.2190   -0.9800 N.ar    1  UNL1       -0.2420
      6  C3        -3.4600   -2.1340   -0.6510 C.ar    1  UNL1        0.2725
      7  O2        -4.2960   -3.0210   -0.8700 O.2     1  UNL1       -0.2658
      8  C4        -3.8270   -0.9460   -0.0240 C.ar    1  UNL1        0.0501
      9  C5        -5.1480   -0.7660    0.3540 C.ar    1  UNL1       -0.0487
     10  C6        -5.5540    0.3870    0.9740 C.ar    1  UNL1       -0.0610
     11  C7        -4.6450    1.3870    1.2290 C.ar    1  UNL1       -0.0611
     12  C8        -3.3260    1.2310    0.8620 C.ar    1  UNL1       -0.0516
     13  C9        -2.9200    0.0780    0.2430 C.ar    1  UNL1        0.0195
     14  N3         0.7730    0.6170   -0.3340 N.am    1  UNL1       -0.2916
     15  C10        1.1100   -0.6330   -0.9750 C.3     1  UNL1        0.0194
     16  C11        2.6070   -0.7100   -1.2790 C.3     1  UNL1       -0.0115
     17  C12        3.4020   -0.2020   -0.1580 C.ar    1  UNL1       -0.0412
     18  C13        4.5000   -0.8540    0.3120 C.ar    1  UNL1       -0.0582
     19  C14        5.2210   -0.3310    1.3850 C.ar    1  UNL1       -0.0615
     20  C15        4.8350    0.8320    1.9710 C.ar    1  UNL1       -0.0614
     21  C16        3.7120    1.5250    1.5120 C.ar    1  UNL1       -0.0568
     22  C17        3.0230    0.9940    0.4610 C.ar    1  UNL1       -0.0269
     23  C18        1.8250    1.6330   -0.1150 C.3     1  UNL1        0.0403
     24 H          -1.8437   -3.0366   -1.4259 H       1  UNL1        0.1921
     25 H          -5.8365   -1.5114    0.1658 H       1  UNL1        0.0625
     26 H          -6.5416    0.5047    1.2494 H       1  UNL1        0.0618
     27 H          -4.9510    2.2551    1.6957 H       1  UNL1        0.0618
     28 H          -2.6445    1.9820    1.0532 H       1  UNL1        0.0624
     29 H           0.5628   -0.7147   -1.8908 H       1  UNL1        0.0468
     30 H           0.8562   -1.4339   -0.3124 H       1  UNL1        0.0468
     31 H           2.8170   -0.1243   -2.1495 H       1  UNL1        0.0328
     32 H           2.8674   -1.7349   -1.4421 H       1  UNL1        0.0328
     33 H           4.8001   -1.7384   -0.1270 H       1  UNL1        0.0620
     34 H           6.0530   -0.8307    1.7360 H       1  UNL1        0.0618
     35 H           5.3774    1.2080    2.7643 H       1  UNL1        0.0618
     36 H           3.4137    2.4089    1.9532 H       1  UNL1        0.0621
     37 H           1.4622    2.3807    0.5590 H       1  UNL1        0.0514
     38 H           2.0804    2.0851   -1.0506 H       1  UNL1        0.0514
@<TRIPOS>BOND
     1     1     2    2
     2     2     3    1
     3     2    14   am
     4     3     4   ar
     5     3    13   ar
     6     4     5   ar
     7     5     6   ar
     8     6     7    2
     9     6     8   ar
    10     8     9   ar
    11     8    13   ar
    12     9    10   ar
    13    10    11   ar
    14    11    12   ar
    15    12    13   ar
    16    14    15    1
    17    14    23    1
    18    15    16    1
    19    16    17    1
    20    17    18   ar
    21    17    22   ar
    22    18    19   ar
    23    19    20   ar
    24    20    21   ar
    25    21    22   ar
    26    22    23    1
    27     5    24    1
    28     9    25    1
    29    10    26    1
    30    11    27    1
    31    12    28    1
    32    15    29    1
    33    15    30    1
    34    16    31    1
    35    16    32    1
    36    18    33    1
    37    19    34    1
    38    20    35    1
    39    21    36    1
    40    23    37    1
    41    23    38    1
@<TRIPOS>MOLECULE
../data/bude_mols_rdkit_confs/molecule_31.pdb
 38 41 0 0 0
SMALL
GASTEIGER

@<TRIPOS>ATOM
      1  O1        -1.1130    1.2780    1.8650 O.2     1  UNL1       -0.2682
      2  C1        -0.7150    0.5580    0.9230 C.2     1  UNL1        0.2676
      3  C2        -1.5920   -0.1250    0.0130 C.ar    1  UNL1        0.1535
      4  N1        -1.0830   -0.8920   -0.9880 N.ar    1  UNL1       -0.1656
      5  N2        -1.8040   -1.5480   -1.8600 N.ar    1  UNL1       -0.2420
      6  C3        -3.1460   -1.5230   -1.8450 C.ar    1  UNL1        0.2725
      7  O2        -3.8310   -2.1590   -2.6910 O.2     1  UNL1       -0.2658
      8  C4        -3.7460   -0.7700   -0.8640 C.ar    1  UNL1        0.0501
      9  C5        -5.1220   -0.7040   -0.7970 C.ar    1  UNL1       -0.0487
     10  C6        -5.7730    0.0310    0.1600 C.ar    1  UNL1       -0.0610
     11  C7        -4.9790    0.7170    1.0720 C.ar    1  UNL1       -0.0611
     12  C8        -3.6070    0.6710    1.0310 C.ar    1  UNL1       -0.0516
     13  C9        -2.9540   -0.0660    0.0720 C.ar    1  UNL1        0.0195
     14  N3         0.7140    0.4710    0.8270 N.am    1  UNL1       -0.2916
     15  C10        1.5310    1.1750    1.7710 C.3     1  UNL1        0.0194
     16  C11        2.5900    1.9410    0.9630 C.3     1  UNL1       -0.0115
     17  C12        3.4230    0.8340    0.3690 C.ar    1  UNL1       -0.0412
     18  C13        4.7920    0.8900    0.3800 C.ar    1  UNL1       -0.0582
     19  C14        5.5120   -0.1750   -0.1770 C.ar    1  UNL1       -0.0615
     20  C15        4.8970   -1.2750   -0.7330 C.ar    1  UNL1       -0.0614
     21  C16        3.5220   -1.3130   -0.7350 C.ar    1  UNL1       -0.0568
     22  C17        2.8020   -0.2630   -0.1860 C.ar    1  UNL1       -0.0269
     23  C18        1.3110   -0.3160   -0.2060 C.3     1  UNL1        0.0403
     24 H          -1.3465   -2.0787   -2.5516 H       1  UNL1        0.1921
     25 H          -5.6805   -1.2255   -1.4907 H       1  UNL1        0.0625
     26 H          -6.8033    0.0730    0.2014 H       1  UNL1        0.0618
     27 H          -5.4366    1.2805    1.8055 H       1  UNL1        0.0618
     28 H          -3.0589    1.1969    1.7296 H       1  UNL1        0.0624
     29 H           2.0049    0.4829    2.4353 H       1  UNL1        0.0468
     30 H           0.9420    1.8452    2.3616 H       1  UNL1        0.0468
     31 H           3.1797    2.5686    1.5981 H       1  UNL1        0.0328
     32 H           2.1701    2.5958    0.2283 H       1  UNL1        0.0328
     33 H           5.2827    1.7000    0.7901 H       1  UNL1        0.0620
     34 H           6.5432   -0.1337   -0.1705 H       1  UNL1        0.0618
     35 H           5.4509   -2.0470   -1.1357 H       1  UNL1        0.0618
     36 H           3.0275   -2.1211   -1.1442 H       1  UNL1        0.0621
     37 H           0.9689    0.0466   -1.1528 H       1  UNL1        0.0514
     38 H           1.0230   -1.3335   -0.0425 H       1  UNL1        0.0514
@<TRIPOS>BOND
     1     1     2    2
     2     2     3    1
     3     2    14   am
     4     3     4   ar
     5     3    13   ar
     6     4     5   ar
     7     5     6   ar
     8     6     7    2
     9     6     8   ar
    10     8     9   ar
    11     8    13   ar
    12     9    10   ar
    13    10    11   ar
    14    11    12   ar
    15    12    13   ar
    16    14    15    1
    17    14    23    1
    18    15    16    1
    19    16    17    1
    20    17    18   ar
    21    17    22   ar
    22    18    19   ar
    23    19    20   ar
    24    20    21   ar
    25    21    22   ar
    26    22    23    1
    27     5    24    1
    28     9    25    1
    29    10    26    1
    30    11    27    1
    31    12    28    1
    32    15    29    1
    33    15    30    1
    34    16    31    1
    35    16    32    1
    36    18    33    1
    37    19    34    1
    38    20    35    1
    39    21    36    1
    40    23    37    1
    41    23    38    1
@<TRIPOS>MOLECULE
../data/bude_mols_rdkit_confs/molecule_31.pdb
 38 41 0 0 0
SMALL
GASTEIGER

@<TRIPOS>ATOM
      1  O1         0.4690   -0.0830   -2.1810 O.2     1  UNL1       -0.2682
      2  C1         0.4790   -0.3230   -0.9230 C.2     1  UNL1        0.2676
      3  C2         1.6220   -0.1870   -0.0690 C.ar    1  UNL1        0.1535
      4  N1         1.5070   -0.4760    1.2380 N.ar    1  UNL1       -0.1656
      5  N2         2.4730   -0.3920    2.1170 N.ar    1  UNL1       -0.2420
      6  C3         3.6680    0.0170    1.6630 C.ar    1  UNL1        0.2725
      7  O2         4.6530    0.1220    2.4560 O.2     1  UNL1       -0.2658
      8  C4         3.8890    0.3370    0.3420 C.ar    1  UNL1        0.0501
      9  C5         5.1100    0.7560   -0.1230 C.ar    1  UNL1       -0.0487
     10  C6         5.3780    1.0870   -1.4300 C.ar    1  UNL1       -0.0610
     11  C7         4.3290    0.9820   -2.3140 C.ar    1  UNL1       -0.0611
     12  C8         3.0580    0.5580   -1.8910 C.ar    1  UNL1       -0.0516
     13  C9         2.8350    0.2370   -0.5720 C.ar    1  UNL1        0.0195
     14  N3        -0.7840   -0.7550   -0.4050 N.am    1  UNL1       -0.2916
     15  C10       -0.9270   -1.0460    0.9820 C.3     1  UNL1        0.0194
     16  C11       -2.3790   -1.3440    1.3560 C.3     1  UNL1       -0.0115
     17  C12       -3.2960   -0.4690    0.5840 C.ar    1  UNL1       -0.0412
     18  C13       -4.3650    0.0980    1.1930 C.ar    1  UNL1       -0.0582
     19  C14       -5.2380    0.9330    0.4870 C.ar    1  UNL1       -0.0615
     20  C15       -5.0120    1.1820   -0.8400 C.ar    1  UNL1       -0.0614
     21  C16       -3.9100    0.5910   -1.4520 C.ar    1  UNL1       -0.0568
     22  C17       -3.0640   -0.2190   -0.7620 C.ar    1  UNL1       -0.0269
     23  C18       -1.8770   -0.8870   -1.3560 C.3     1  UNL1        0.0403
     24 H           2.3301   -0.6177    3.0646 H       1  UNL1        0.1921
     25 H           5.8827    0.8278    0.5573 H       1  UNL1        0.0625
     26 H           6.3149    1.3973   -1.7317 H       1  UNL1        0.0618
     27 H           4.4786    1.2193   -3.3071 H       1  UNL1        0.0618
     28 H           2.2873    0.4870   -2.5737 H       1  UNL1        0.0624
     29 H          -0.5899   -0.2033    1.5487 H       1  UNL1        0.0468
     30 H          -0.3435   -1.9161    1.1998 H       1  UNL1        0.0468
     31 H          -2.5182   -1.1668    2.4020 H       1  UNL1        0.0328
     32 H          -2.5961   -2.3664    1.1271 H       1  UNL1        0.0328
     33 H          -4.5382   -0.0888    2.1931 H       1  UNL1        0.0620
     34 H          -6.0479    1.3589    0.9641 H       1  UNL1        0.0618
     35 H          -5.6457    1.7954   -1.3759 H       1  UNL1        0.0618
     36 H          -3.7313    0.7719   -2.4522 H       1  UNL1        0.0621
     37 H          -2.0880   -1.9215   -1.5298 H       1  UNL1        0.0514
     38 H          -1.6197   -0.4385   -2.2928 H       1  UNL1        0.0514
@<TRIPOS>BOND
     1     1     2    2
     2     2     3    1
     3     2    14   am
     4     3     4   ar
     5     3    13   ar
     6     4     5   ar
     7     5     6   ar
     8     6     7    2
     9     6     8   ar
    10     8     9   ar
    11     8    13   ar
    12     9    10   ar
    13    10    11   ar
    14    11    12   ar
    15    12    13   ar
    16    14    15    1
    17    14    23    1
    18    15    16    1
    19    16    17    1
    20    17    18   ar
    21    17    22   ar
    22    18    19   ar
    23    19    20   ar
    24    20    21   ar
    25    21    22   ar
    26    22    23    1
    27     5    24    1
    28     9    25    1
    29    10    26    1
    30    11    27    1
    31    12    28    1
    32    15    29    1
    33    15    30    1
    34    16    31    1
    35    16    32    1
    36    18    33    1
    37    19    34    1
    38    20    35    1
    39    21    36    1
    40    23    37    1
    41    23    38    1
@<TRIPOS>MOLECULE
../data/bude_mols_rdkit_confs/molecule_31.pdb
 38 41 0 0 0
SMALL
GASTEIGER

@<TRIPOS>ATOM
      1  O1         0.8700    1.9880   -1.1120 O.2     1  UNL1       -0.2682
      2  C1         0.6050    0.9160   -0.4660 C.2     1  UNL1        0.2676
      3  C2         1.6050   -0.0370   -0.0330 C.ar    1  UNL1        0.1535
      4  N1         1.2170   -1.1430    0.6470 N.ar    1  UNL1       -0.1656
      5  N2         2.0560   -2.0630    1.0800 N.ar    1  UNL1       -0.2420
      6  C3         3.3740   -1.9820    0.8830 C.ar    1  UNL1        0.2725
      7  O2         4.1830   -2.8690    1.3000 O.2     1  UNL1       -0.2658
      8  C4         3.8540   -0.8940    0.2030 C.ar    1  UNL1        0.0501
      9  C5         5.2170   -0.8160    0.0030 C.ar    1  UNL1       -0.0487
     10  C6         5.6920    0.2800   -0.6800 C.ar    1  UNL1       -0.0610
     11  C7         4.8350    1.2510   -1.1410 C.ar    1  UNL1       -0.0611
     12  C8         3.4650    1.1540   -0.9290 C.ar    1  UNL1       -0.0516
     13  C9         2.9560    0.0710   -0.2490 C.ar    1  UNL1        0.0195
     14  N3        -0.7810    0.7510   -0.2130 N.am    1  UNL1       -0.2916
     15  C10       -1.6960    1.7510   -0.6810 C.3     1  UNL1        0.0194
     16  C11       -3.0260    1.2110   -1.1580 C.3     1  UNL1       -0.0115
     17  C12       -3.5860    0.3940   -0.0280 C.ar    1  UNL1       -0.0412
     18  C13       -4.9290    0.3740    0.2580 C.ar    1  UNL1       -0.0582
     19  C14       -5.4310   -0.3820    1.3120 C.ar    1  UNL1       -0.0615
     20  C15       -4.5600   -1.1130    2.0630 C.ar    1  UNL1       -0.0614
     21  C16       -3.2210   -1.1000    1.7860 C.ar    1  UNL1       -0.0568
     22  C17       -2.7160   -0.3550    0.7460 C.ar    1  UNL1       -0.0269
     23  C18       -1.2460   -0.3940    0.4990 C.3     1  UNL1        0.0403
     24 H           1.6970   -2.8395    1.5673 H       1  UNL1        0.1921
     25 H           5.8540   -1.5495    0.3513 H       1  UNL1        0.0625
     26 H           6.7058    0.3744   -0.8485 H       1  UNL1        0.0618
     27 H           5.2144    2.0635   -1.6518 H       1  UNL1        0.0618
     28 H           2.8325    1.8902   -1.2796 H       1  UNL1        0.0624
     29 H          -1.2352    2.2708   -1.4948 H       1  UNL1        0.0468
     30 H          -1.9073    2.3849    0.1547 H       1  UNL1        0.0468
     31 H          -2.8867    0.5977   -2.0237 H       1  UNL1        0.0328
     32 H          -3.6911    2.0046   -1.4278 H       1  UNL1        0.0328
     33 H          -5.5780    0.9304   -0.3201 H       1  UNL1        0.0620
     34 H          -6.4416   -0.3892    1.5209 H       1  UNL1        0.0618
     35 H          -4.9142   -1.6816    2.8480 H       1  UNL1        0.0618
     36 H          -2.5778   -1.6593    2.3678 H       1  UNL1        0.0621
     37 H          -0.7409   -0.4406    1.4411 H       1  UNL1        0.0514
     38 H          -1.0400   -1.2556   -0.1010 H       1  UNL1        0.0514
@<TRIPOS>BOND
     1     1     2    2
     2     2     3    1
     3     2    14   am
     4     3     4   ar
     5     3    13   ar
     6     4     5   ar
     7     5     6   ar
     8     6     7    2
     9     6     8   ar
    10     8     9   ar
    11     8    13   ar
    12     9    10   ar
    13    10    11   ar
    14    11    12   ar
    15    12    13   ar
    16    14    15    1
    17    14    23    1
    18    15    16    1
    19    16    17    1
    20    17    18   ar
    21    17    22   ar
    22    18    19   ar
    23    19    20   ar
    24    20    21   ar
    25    21    22   ar
    26    22    23    1
    27     5    24    1
    28     9    25    1
    29    10    26    1
    30    11    27    1
    31    12    28    1
    32    15    29    1
    33    15    30    1
    34    16    31    1
    35    16    32    1
    36    18    33    1
    37    19    34    1
    38    20    35    1
    39    21    36    1
    40    23    37    1
    41    23    38    1
@<TRIPOS>MOLECULE
../data/bude_mols_rdkit_confs/molecule_31.pdb
 38 41 0 0 0
SMALL
GASTEIGER

@<TRIPOS>ATOM
      1  O1         0.3730   -0.3000   -2.0320 O.2     1  UNL1       -0.2682
      2  C1         0.4210   -0.5400   -0.8000 C.2     1  UNL1        0.2676
      3  C2         1.5970   -0.3090    0.0010 C.ar    1  UNL1        0.1535
      4  N1         1.6220   -0.5650    1.3240 N.ar    1  UNL1       -0.1656
      5  N2         2.6450   -0.3830    2.1170 N.ar    1  UNL1       -0.2420
      6  C3         3.7830    0.0980    1.6030 C.ar    1  UNL1        0.2725
      7  O2         4.7950    0.2860    2.3440 O.2     1  UNL1       -0.2658
      8  C4         3.8850    0.3970    0.2730 C.ar    1  UNL1        0.0501
      9  C5         5.0560    0.8930   -0.2630 C.ar    1  UNL1       -0.0487
     10  C6         5.1440    1.1890   -1.6000 C.ar    1  UNL1       -0.0610
     11  C7         4.0780    1.0020   -2.4400 C.ar    1  UNL1       -0.0611
     12  C8         2.9030    0.4980   -1.8690 C.ar    1  UNL1       -0.0516
     13  C9         2.7660    0.1880   -0.5420 C.ar    1  UNL1        0.0195
     14  N3        -0.7840   -1.0560   -0.2680 N.am    1  UNL1       -0.2916
     15  C10       -1.0570   -1.4490    1.0730 C.3     1  UNL1        0.0194
     16  C11       -1.8860   -0.3400    1.7160 C.3     1  UNL1       -0.0115
     17  C12       -3.0040   -0.0190    0.7820 C.ar    1  UNL1       -0.0412
     18  C13       -4.0690    0.7090    1.3070 C.ar    1  UNL1       -0.0582
     19  C14       -5.1340    1.0400    0.5050 C.ar    1  UNL1       -0.0615
     20  C15       -5.1650    0.6610   -0.8160 C.ar    1  UNL1       -0.0614
     21  C16       -4.1050   -0.0660   -1.3470 C.ar    1  UNL1       -0.0568
     22  C17       -3.0330   -0.3970   -0.5350 C.ar    1  UNL1       -0.0269
     23  C18       -1.9300   -1.1850   -1.1980 C.3     1  UNL1        0.0403
     24 H           2.5794   -0.5961    3.0759 H       1  UNL1        0.1921
     25 H           5.8740    1.0429    0.3481 H       1  UNL1        0.0625
     26 H           6.0293    1.5592   -1.9797 H       1  UNL1        0.0618
     27 H           4.1382    1.2223   -3.4464 H       1  UNL1        0.0618
     28 H           2.0894    0.3509   -2.4866 H       1  UNL1        0.0624
     29 H          -0.1404   -1.5780    1.6097 H       1  UNL1        0.0468
     30 H          -1.5889   -2.3772    1.0930 H       1  UNL1        0.0468
     31 H          -1.2788    0.5272    1.8711 H       1  UNL1        0.0328
     32 H          -2.2659   -0.6549    2.6654 H       1  UNL1        0.0328
     33 H          -4.0580    0.9994    2.2972 H       1  UNL1        0.0620
     34 H          -5.9204    1.5798    0.8990 H       1  UNL1        0.0618
     35 H          -5.9699    0.9144   -1.4101 H       1  UNL1        0.0618
     36 H          -4.1171   -0.3562   -2.3373 H       1  UNL1        0.0621
     37 H          -2.2123   -2.2107   -1.3129 H       1  UNL1        0.0514
     38 H          -1.7035   -0.8273   -2.1807 H       1  UNL1        0.0514
@<TRIPOS>BOND
     1     1     2    2
     2     2     3    1
     3     2    14   am
     4     3     4   ar
     5     3    13   ar
     6     4     5   ar
     7     5     6   ar
     8     6     7    2
     9     6     8   ar
    10     8     9   ar
    11     8    13   ar
    12     9    10   ar
    13    10    11   ar
    14    11    12   ar
    15    12    13   ar
    16    14    15    1
    17    14    23    1
    18    15    16    1
    19    16    17    1
    20    17    18   ar
    21    17    22   ar
    22    18    19   ar
    23    19    20   ar
    24    20    21   ar
    25    21    22   ar
    26    22    23    1
    27     5    24    1
    28     9    25    1
    29    10    26    1
    30    11    27    1
    31    12    28    1
    32    15    29    1
    33    15    30    1
    34    16    31    1
    35    16    32    1
    36    18    33    1
    37    19    34    1
    38    20    35    1
    39    21    36    1
    40    23    37    1
    41    23    38    1
@<TRIPOS>MOLECULE
../data/bude_mols_rdkit_confs/molecule_31.pdb
 38 41 0 0 0
SMALL
GASTEIGER

@<TRIPOS>ATOM
      1  O1         0.6780    2.0090   -1.1790 O.2     1  UNL1       -0.2682
      2  C1         0.5010    0.7730   -0.9200 C.2     1  UNL1        0.2676
      3  C2         1.4220    0.0150   -0.0950 C.ar    1  UNL1        0.1535
      4  N1         1.1730   -1.2890    0.1550 N.ar    1  UNL1       -0.1656
      5  N2         1.9180   -2.0750    0.8770 N.ar    1  UNL1       -0.2420
      6  C3         3.0260   -1.5480    1.4190 C.ar    1  UNL1        0.2725
      7  O2         3.7600   -2.2910    2.1200 O.2     1  UNL1       -0.2658
      8  C4         3.3750   -0.2300    1.2280 C.ar    1  UNL1        0.0501
      9  C5         4.5300    0.2960    1.8010 C.ar    1  UNL1       -0.0487
     10  C6         4.8600    1.6110    1.5990 C.ar    1  UNL1       -0.0610
     11  C7         4.0630    2.4220    0.8360 C.ar    1  UNL1       -0.0611
     12  C8         2.8990    1.9130    0.2530 C.ar    1  UNL1       -0.0516
     13  C9         2.5660    0.5990    0.4520 C.ar    1  UNL1        0.0195
     14  N3        -0.6430    0.2180   -1.4920 N.am    1  UNL1       -0.2916
     15  C10       -1.5260    1.0940   -2.2870 C.3     1  UNL1        0.0194
     16  C11       -2.9630    0.8970   -1.8810 C.3     1  UNL1       -0.0115
     17  C12       -3.1440   -0.0880   -0.7800 C.ar    1  UNL1       -0.0412
     18  C13       -4.2860    0.0190    0.0090 C.ar    1  UNL1       -0.0582
     19  C14       -4.5260   -0.8570    1.0470 C.ar    1  UNL1       -0.0615
     20  C15       -3.6060   -1.8550    1.3000 C.ar    1  UNL1       -0.0614
     21  C16       -2.4680   -1.9870    0.5400 C.ar    1  UNL1       -0.0568
     22  C17       -2.2680   -1.0980   -0.4800 C.ar    1  UNL1       -0.0269
     23  C18       -1.0530   -1.1410   -1.3840 C.3     1  UNL1        0.0403
     24 H           1.6778   -3.0190    1.0197 H       1  UNL1        0.1921
     25 H           5.1384   -0.3051    2.3786 H       1  UNL1        0.0625
     26 H           5.7179    1.9937    2.0263 H       1  UNL1        0.0618
     27 H           4.3221    3.4104    0.6912 H       1  UNL1        0.0618
     28 H           2.2958    2.5216   -0.3222 H       1  UNL1        0.0624
     29 H          -1.4169    0.8567   -3.3246 H       1  UNL1        0.0468
     30 H          -1.2523    2.1136   -2.1128 H       1  UNL1        0.0468
     31 H          -3.5111    0.5548   -2.7339 H       1  UNL1        0.0328
     32 H          -3.3176    1.8394   -1.5189 H       1  UNL1        0.0328
     33 H          -4.9670    0.7692   -0.1868 H       1  UNL1        0.0620
     34 H          -5.3772   -0.7682    1.6237 H       1  UNL1        0.0618
     35 H          -3.7760   -2.5149    2.0750 H       1  UNL1        0.0618
     36 H          -1.7843   -2.7354    0.7336 H       1  UNL1        0.0621
     37 H          -0.2781   -1.7367   -0.9486 H       1  UNL1        0.0514
     38 H          -1.2688   -1.5786   -2.3363 H       1  UNL1        0.0514
@<TRIPOS>BOND
     1     1     2    2
     2     2     3    1
     3     2    14   am
     4     3     4   ar
     5     3    13   ar
     6     4     5   ar
     7     5     6   ar
     8     6     7    2
     9     6     8   ar
    10     8     9   ar
    11     8    13   ar
    12     9    10   ar
    13    10    11   ar
    14    11    12   ar
    15    12    13   ar
    16    14    15    1
    17    14    23    1
    18    15    16    1
    19    16    17    1
    20    17    18   ar
    21    17    22   ar
    22    18    19   ar
    23    19    20   ar
    24    20    21   ar
    25    21    22   ar
    26    22    23    1
    27     5    24    1
    28     9    25    1
    29    10    26    1
    30    11    27    1
    31    12    28    1
    32    15    29    1
    33    15    30    1
    34    16    31    1
    35    16    32    1
    36    18    33    1
    37    19    34    1
    38    20    35    1
    39    21    36    1
    40    23    37    1
    41    23    38    1
@<TRIPOS>MOLECULE
../data/bude_mols_rdkit_confs/molecule_31.pdb
 38 41 0 0 0
SMALL
GASTEIGER

@<TRIPOS>ATOM
      1  O1        -0.6870    1.5710    1.0660 O.2     1  UNL1       -0.2682
      2  C1        -0.5380    0.4010    0.5960 C.2     1  UNL1        0.2676
      3  C2        -1.6430   -0.3220    0.0430 C.ar    1  UNL1        0.1535
      4  N1        -1.4250   -1.5500   -0.4520 N.ar    1  UNL1       -0.1656
      5  N2        -2.3600   -2.3010   -0.9820 N.ar    1  UNL1       -0.2420
      6  C3        -3.6040   -1.7990   -1.0250 C.ar    1  UNL1        0.2725
      7  O2        -4.5040   -2.5090   -1.5290 O.2     1  UNL1       -0.2658
      8  C4        -3.9260   -0.5580   -0.5470 C.ar    1  UNL1        0.0501
      9  C5        -5.2050   -0.0550   -0.5970 C.ar    1  UNL1       -0.0487
     10  C6        -5.5340    1.1910   -0.1170 C.ar    1  UNL1       -0.0610
     11  C7        -4.5480    1.9630    0.4330 C.ar    1  UNL1       -0.0611
     12  C8        -3.2460    1.4560    0.4860 C.ar    1  UNL1       -0.0516
     13  C9        -2.9070    0.2160    0.0110 C.ar    1  UNL1        0.0195
     14  N3         0.7850   -0.1340    0.6570 N.am    1  UNL1       -0.2916
     15  C10        1.1940   -1.4280    0.2190 C.3     1  UNL1        0.0194
     16  C11        2.0310   -1.2250   -1.0590 C.3     1  UNL1       -0.0115
     17  C12        3.1510   -0.3160   -0.6330 C.ar    1  UNL1       -0.0412
     18  C13        4.3610   -0.3930   -1.3260 C.ar    1  UNL1       -0.0582
     19  C14        5.4120    0.4120   -0.9810 C.ar    1  UNL1       -0.0615
     20  C15        5.3250    1.3300    0.0610 C.ar    1  UNL1       -0.0614
     21  C16        4.1460    1.4080    0.7410 C.ar    1  UNL1       -0.0568
     22  C17        3.0540    0.5740    0.3850 C.ar    1  UNL1       -0.0269
     23  C18        1.8260    0.7430    1.1880 C.3     1  UNL1        0.0403
     24 H          -2.1576   -3.1977   -1.3345 H       1  UNL1        0.1921
     25 H          -5.9492   -0.6371   -1.0122 H       1  UNL1        0.0625
     26 H          -6.5050    1.5365   -0.1707 H       1  UNL1        0.0618
     27 H          -4.7612    2.9028    0.8022 H       1  UNL1        0.0618
     28 H          -2.5060    2.0428    0.9021 H       1  UNL1        0.0624
     29 H           0.3370   -2.0319    0.0053 H       1  UNL1        0.0468
     30 H           1.7647   -1.9254    0.9752 H       1  UNL1        0.0468
     31 H           1.4436   -0.7674   -1.8275 H       1  UNL1        0.0328
     32 H           2.3876   -2.1491   -1.4637 H       1  UNL1        0.0328
     33 H           4.4632   -1.0625   -2.1046 H       1  UNL1        0.0620
     34 H           6.2954    0.3361   -1.5091 H       1  UNL1        0.0618
     35 H           6.1257    1.9313    0.3106 H       1  UNL1        0.0618
     36 H           4.0468    2.0779    1.5198 H       1  UNL1        0.0621
     37 H           2.0259    0.4860    2.2073 H       1  UNL1        0.0514
     38 H           1.5000    1.7610    1.1395 H       1  UNL1        0.0514
@<TRIPOS>BOND
     1     1     2    2
     2     2     3    1
     3     2    14   am
     4     3     4   ar
     5     3    13   ar
     6     4     5   ar
     7     5     6   ar
     8     6     7    2
     9     6     8   ar
    10     8     9   ar
    11     8    13   ar
    12     9    10   ar
    13    10    11   ar
    14    11    12   ar
    15    12    13   ar
    16    14    15    1
    17    14    23    1
    18    15    16    1
    19    16    17    1
    20    17    18   ar
    21    17    22   ar
    22    18    19   ar
    23    19    20   ar
    24    20    21   ar
    25    21    22   ar
    26    22    23    1
    27     5    24    1
    28     9    25    1
    29    10    26    1
    30    11    27    1
    31    12    28    1
    32    15    29    1
    33    15    30    1
    34    16    31    1
    35    16    32    1
    36    18    33    1
    37    19    34    1
    38    20    35    1
    39    21    36    1
    40    23    37    1
    41    23    38    1
@<TRIPOS>MOLECULE
../data/bude_mols_rdkit_confs/molecule_31.pdb
 38 41 0 0 0
SMALL
GASTEIGER

@<TRIPOS>ATOM
      1  O1         0.6840   -1.8010   -0.5630 O.2     1  UNL1       -0.2682
      2  C1         0.5030   -0.5640   -0.5940 C.2     1  UNL1        0.2676
      3  C2         1.5090    0.3570   -0.1370 C.ar    1  UNL1        0.1535
      4  N1         1.2810    1.6960   -0.1680 N.ar    1  UNL1       -0.1656
      5  N2         2.0920    2.6360    0.2090 N.ar    1  UNL1       -0.2420
      6  C3         3.3010    2.2780    0.6900 C.ar    1  UNL1        0.2725
      7  O2         4.1050    3.1760    1.0620 O.2     1  UNL1       -0.2658
      8  C4         3.6220    0.9350    0.7590 C.ar    1  UNL1        0.0501
      9  C5         4.8460    0.5300    1.2410 C.ar    1  UNL1       -0.0487
     10  C6         5.1900   -0.8030    1.3180 C.ar    1  UNL1       -0.0610
     11  C7         4.3200   -1.7640    0.9160 C.ar    1  UNL1       -0.0611
     12  C8         3.0800   -1.3810    0.4260 C.ar    1  UNL1       -0.0516
     13  C9         2.7430   -0.0590    0.3510 C.ar    1  UNL1        0.0195
     14  N3        -0.7320   -0.1440   -1.0980 N.am    1  UNL1       -0.2916
     15  C10       -1.1740    1.1940   -1.2640 C.3     1  UNL1        0.0194
     16  C11       -2.1720    1.4590   -0.1380 C.3     1  UNL1       -0.0115
     17  C12       -2.9910    0.2420    0.1000 C.ar    1  UNL1       -0.0412
     18  C13       -4.0180    0.4020    1.0310 C.ar    1  UNL1       -0.0582
     19  C14       -4.8570   -0.6430    1.3490 C.ar    1  UNL1       -0.0615
     20  C15       -4.7020   -1.8750    0.7530 C.ar    1  UNL1       -0.0614
     21  C16       -3.6900   -2.0310   -0.1640 C.ar    1  UNL1       -0.0568
     22  C17       -2.8410   -0.9680   -0.4840 C.ar    1  UNL1       -0.0269
     23  C18       -1.7430   -1.1690   -1.4890 C.3     1  UNL1        0.0403
     24 H           1.8327    3.5836    0.1459 H       1  UNL1        0.1921
     25 H           5.5240    1.2427    1.5529 H       1  UNL1        0.0625
     26 H           6.1165   -1.0722    1.6843 H       1  UNL1        0.0618
     27 H           4.5764   -2.7620    0.9738 H       1  UNL1        0.0618
     28 H           2.4073   -2.0996    0.1159 H       1  UNL1        0.0624
     29 H          -1.6491    1.3118   -2.2155 H       1  UNL1        0.0468
     30 H          -0.3549    1.8814   -1.2273 H       1  UNL1        0.0468
     31 H          -2.8124    2.2707   -0.4136 H       1  UNL1        0.0328
     32 H          -1.6402    1.7095    0.7561 H       1  UNL1        0.0328
     33 H          -4.1510    1.3175    1.4884 H       1  UNL1        0.0620
     34 H          -5.6095   -0.5014    2.0409 H       1  UNL1        0.0618
     35 H          -5.3290   -2.6601    0.9886 H       1  UNL1        0.0618
     36 H          -3.5553   -2.9457   -0.6225 H       1  UNL1        0.0621
     37 H          -1.3354   -2.1559   -1.4199 H       1  UNL1        0.0514
     38 H          -2.0758   -1.0659   -2.5007 H       1  UNL1        0.0514
@<TRIPOS>BOND
     1     1     2    2
     2     2     3    1
     3     2    14   am
     4     3     4   ar
     5     3    13   ar
     6     4     5   ar
     7     5     6   ar
     8     6     7    2
     9     6     8   ar
    10     8     9   ar
    11     8    13   ar
    12     9    10   ar
    13    10    11   ar
    14    11    12   ar
    15    12    13   ar
    16    14    15    1
    17    14    23    1
    18    15    16    1
    19    16    17    1
    20    17    18   ar
    21    17    22   ar
    22    18    19   ar
    23    19    20   ar
    24    20    21   ar
    25    21    22   ar
    26    22    23    1
    27     5    24    1
    28     9    25    1
    29    10    26    1
    30    11    27    1
    31    12    28    1
    32    15    29    1
    33    15    30    1
    34    16    31    1
    35    16    32    1
    36    18    33    1
    37    19    34    1
    38    20    35    1
    39    21    36    1
    40    23    37    1
    41    23    38    1
