@<TRIPOS>MOLECULE
../data/bude_mols_rdkit_confs/molecule_76.pdb
 45 47 0 0 0
SMALL
GASTEIGER

@<TRIPOS>ATOM
      1  O1        -3.7420   -0.2290   -1.0170 O.2     1  UNL1       -0.2687
      2  C1        -3.7420   -0.3570    0.2570 C.2     1  UNL1        0.2601
      3  N1        -2.4560   -0.4320    0.8440 N.am    1  UNL1       -0.2301
      4  N2        -1.2780   -0.3680    0.0550 N.am    1  UNL1       -0.2301
      5  C2        -1.0330    0.7570   -0.7750 C.2     1  UNL1        0.2602
      6  O2        -1.9350    1.6610   -0.7420 O.2     1  UNL1       -0.2687
      7  C3         0.1390    0.9250   -1.6210 C.ar    1  UNL1        0.0400
      8  C4         0.1950    2.0310   -2.4480 C.ar    1  UNL1       -0.0495
      9  C5         1.2910    2.2180   -3.2610 C.ar    1  UNL1       -0.0592
     10  C6         2.3110    1.2900   -3.2280 C.ar    1  UNL1       -0.0350
     11  C7         2.2900    0.1760   -2.4160 C.ar    1  UNL1        0.1092
     12  S1         3.5200   -1.0180   -2.3750 S.O2    1  UNL1        0.0724
     13  O3         2.9880   -2.2580   -1.6860 O.2     1  UNL1       -0.1500
     14  O4         3.9220   -1.4170   -3.7910 O.2     1  UNL1       -0.1500
     15  N3         4.8820   -0.5030   -1.4850 N.pl3   1  UNL1       -0.2163
     16  C8         4.8310   -0.1740   -0.1130 C.ar    1  UNL1        0.0480
     17  C9         5.7610   -0.8100    0.7150 C.ar    1  UNL1       -0.0393
     18  C10        5.8240   -0.6080    2.0670 C.ar    1  UNL1       -0.0600
     19  C11        4.9290    0.2640    2.6430 C.ar    1  UNL1       -0.0616
     20  C12        4.0050    0.8990    1.8330 C.ar    1  UNL1       -0.0600
     21  C13        3.9490    0.6900    0.4720 C.ar    1  UNL1       -0.0393
     22  C14        1.1580    0.0220   -1.6050 C.ar    1  UNL1       -0.0229
     23  C15       -4.9920   -0.4130    0.9850 C.ar    1  UNL1        0.0382
     24  C16       -4.9820   -0.5940    2.3420 C.ar    1  UNL1       -0.0496
     25  C17       -6.1630   -0.6530    3.0830 C.ar    1  UNL1       -0.0610
     26  C18       -7.3710   -0.5230    2.4000 C.ar    1  UNL1       -0.0617
     27  C19       -7.3940   -0.3410    1.0380 C.ar    1  UNL1       -0.0610
     28  C20       -6.1960   -0.2860    0.3270 C.ar    1  UNL1       -0.0496
     29 H          -2.3771   -0.5307    1.8204 H       1  UNL1        0.1731
     30 H          -0.6281   -1.1070    0.0835 H       1  UNL1        0.1731
     31 H          -0.5798    2.7127   -2.4563 H       1  UNL1        0.0625
     32 H           1.3481    3.0385   -3.8843 H       1  UNL1        0.0618
     33 H           3.1287    1.4365   -3.8402 H       1  UNL1        0.0637
     34 H           5.7461   -0.4318   -1.9514 H       1  UNL1        0.1737
     35 H           6.4334   -1.4643    0.2852 H       1  UNL1        0.0636
     36 H           6.5269   -1.0986    2.6416 H       1  UNL1        0.0618
     37 H           4.9468    0.4408    3.6596 H       1  UNL1        0.0618
     38 H           3.3330    1.5532    2.2636 H       1  UNL1        0.0618
     39 H           3.2461    1.1825   -0.1011 H       1  UNL1        0.0636
     40 H           1.0949   -0.7965   -0.9797 H       1  UNL1        0.0645
     41 H          -4.0775   -0.6893    2.8296 H       1  UNL1        0.0625
     42 H          -6.1426   -0.7888    4.1058 H       1  UNL1        0.0618
     43 H          -8.2593   -0.5639    2.9236 H       1  UNL1        0.0618
     44 H          -8.2947   -0.2454    0.5434 H       1  UNL1        0.0618
     45 H          -6.2110   -0.1497   -0.6958 H       1  UNL1        0.0625
@<TRIPOS>BOND
     1     1     2    2
     2     2     3   am
     3     2    23    1
     4     3     4    1
     5     4     5   am
     6     5     6    2
     7     5     7    1
     8     7     8   ar
     9     7    22   ar
    10     8     9   ar
    11     9    10   ar
    12    10    11   ar
    13    11    12    1
    14    11    22   ar
    15    12    13    2
    16    12    14    2
    17    12    15    1
    18    15    16    1
    19    16    17   ar
    20    16    21   ar
    21    17    18   ar
    22    18    19   ar
    23    19    20   ar
    24    20    21   ar
    25    23    24   ar
    26    23    28   ar
    27    24    25   ar
    28    25    26   ar
    29    26    27   ar
    30    27    28   ar
    31     3    29    1
    32     4    30    1
    33     8    31    1
    34     9    32    1
    35    10    33    1
    36    15    34    1
    37    17    35    1
    38    18    36    1
    39    19    37    1
    40    20    38    1
    41    21    39    1
    42    22    40    1
    43    24    41    1
    44    25    42    1
    45    26    43    1
    46    27    44    1
    47    28    45    1
@<TRIPOS>MOLECULE
../data/bude_mols_rdkit_confs/molecule_76.pdb
 45 47 0 0 0
SMALL
GASTEIGER

@<TRIPOS>ATOM
      1  O1        -3.8200    1.5230   -0.3350 O.2     1  UNL1       -0.2687
      2  C1        -4.3980    0.4240   -0.1990 C.2     1  UNL1        0.2601
      3  N1        -3.5540   -0.7340   -0.0840 N.am    1  UNL1       -0.2301
      4  N2        -2.1450   -0.5530   -0.1490 N.am    1  UNL1       -0.2301
      5  C2        -1.4320   -0.0590    0.9700 C.2     1  UNL1        0.2602
      6  O2        -2.0570    0.1880    2.0220 O.2     1  UNL1       -0.2687
      7  C3        -0.0020    0.1720    0.9120 C.ar    1  UNL1        0.0400
      8  C4         0.6370    0.6290    2.0470 C.ar    1  UNL1       -0.0495
      9  C5         1.9800    0.9270    2.0200 C.ar    1  UNL1       -0.0592
     10  C6         2.6760    0.7610    0.8450 C.ar    1  UNL1       -0.0350
     11  C7         2.0880    0.3150   -0.2870 C.ar    1  UNL1        0.1092
     12  S1         2.9730    0.1940   -1.7710 S.O2    1  UNL1        0.0724
     13  O3         2.0360   -0.1670   -2.8960 O.2     1  UNL1       -0.1500
     14  O4         3.5130    1.5750   -2.0990 O.2     1  UNL1       -0.1500
     15  N3         4.2510   -0.9310   -1.7580 N.pl3   1  UNL1       -0.2163
     16  C8         5.3880   -0.8270   -0.8940 C.ar    1  UNL1        0.0480
     17  C9         6.0180    0.4080   -0.7680 C.ar    1  UNL1       -0.0393
     18  C10        7.1200    0.5210    0.0460 C.ar    1  UNL1       -0.0600
     19  C11        7.6180   -0.5500    0.7400 C.ar    1  UNL1       -0.0616
     20  C12        7.0090   -1.7770    0.6280 C.ar    1  UNL1       -0.0600
     21  C13        5.9030   -1.8890   -0.1900 C.ar    1  UNL1       -0.0393
     22  C14        0.7280    0.0150   -0.2490 C.ar    1  UNL1       -0.0229
     23  C15       -5.8450    0.4040   -0.1730 C.ar    1  UNL1        0.0382
     24  C16       -6.5560   -0.7620   -0.2660 C.ar    1  UNL1       -0.0496
     25  C17       -7.9480   -0.7760   -0.2640 C.ar    1  UNL1       -0.0610
     26  C18       -8.6460    0.4290   -0.1640 C.ar    1  UNL1       -0.0617
     27  C19       -7.9440    1.6040   -0.0700 C.ar    1  UNL1       -0.0610
     28  C20       -6.5410    1.5960   -0.0730 C.ar    1  UNL1       -0.0496
     29 H          -3.9421   -1.6307    0.0368 H       1  UNL1        0.1731
     30 H          -1.6618   -0.7728   -0.9781 H       1  UNL1        0.1731
     31 H           0.1035    0.7480    2.9223 H       1  UNL1        0.0625
     32 H           2.4578    1.2697    2.8681 H       1  UNL1        0.0618
     33 H           3.6832    0.9851    0.8274 H       1  UNL1        0.0637
     34 H           4.2057   -1.6943   -2.3781 H       1  UNL1        0.1737
     35 H           5.6615    1.2299   -1.2802 H       1  UNL1        0.0636
     36 H           7.5849    1.4379    0.1368 H       1  UNL1        0.0618
     37 H           8.4468   -0.4360    1.3443 H       1  UNL1        0.0618
     38 H           7.3701   -2.5950    1.1432 H       1  UNL1        0.0618
     39 H           5.4434   -2.8089   -0.2766 H       1  UNL1        0.0636
     40 H           0.2594   -0.3297   -1.1014 H       1  UNL1        0.0645
     41 H          -6.0457   -1.6560   -0.3397 H       1  UNL1        0.0625
     42 H          -8.4596   -1.6694   -0.3358 H       1  UNL1        0.0618
     43 H          -9.6780    0.4358   -0.1608 H       1  UNL1        0.0618
     44 H          -8.4513    2.4997    0.0034 H       1  UNL1        0.0618
     45 H          -6.0239    2.4861   -0.0001 H       1  UNL1        0.0625
@<TRIPOS>BOND
     1     1     2    2
     2     2     3   am
     3     2    23    1
     4     3     4    1
     5     4     5   am
     6     5     6    2
     7     5     7    1
     8     7     8   ar
     9     7    22   ar
    10     8     9   ar
    11     9    10   ar
    12    10    11   ar
    13    11    12    1
    14    11    22   ar
    15    12    13    2
    16    12    14    2
    17    12    15    1
    18    15    16    1
    19    16    17   ar
    20    16    21   ar
    21    17    18   ar
    22    18    19   ar
    23    19    20   ar
    24    20    21   ar
    25    23    24   ar
    26    23    28   ar
    27    24    25   ar
    28    25    26   ar
    29    26    27   ar
    30    27    28   ar
    31     3    29    1
    32     4    30    1
    33     8    31    1
    34     9    32    1
    35    10    33    1
    36    15    34    1
    37    17    35    1
    38    18    36    1
    39    19    37    1
    40    20    38    1
    41    21    39    1
    42    22    40    1
    43    24    41    1
    44    25    42    1
    45    26    43    1
    46    27    44    1
    47    28    45    1
@<TRIPOS>MOLECULE
../data/bude_mols_rdkit_confs/molecule_76.pdb
 45 47 0 0 0
SMALL
GASTEIGER

@<TRIPOS>ATOM
      1  O1        -4.3650   -1.8730   -1.2280 O.2     1  UNL1       -0.2687
      2  C1        -4.6920   -0.9470   -0.4160 C.2     1  UNL1        0.2601
      3  N1        -3.6820   -0.2680    0.3330 N.am    1  UNL1       -0.2301
      4  N2        -2.3160   -0.6390    0.1530 N.am    1  UNL1       -0.2301
      5  C2        -1.2930    0.0930    0.7920 C.2     1  UNL1        0.2602
      6  O2        -1.6080    1.0900    1.5290 O.2     1  UNL1       -0.2687
      7  C3         0.0920   -0.2960    0.6060 C.ar    1  UNL1        0.0400
      8  C4         0.4210   -1.3670   -0.1640 C.ar    1  UNL1       -0.0495
      9  C5         1.7520   -1.7520   -0.3190 C.ar    1  UNL1       -0.0592
     10  C6         2.7880   -1.0720    0.2970 C.ar    1  UNL1       -0.0350
     11  C7         2.4740    0.0150    1.0810 C.ar    1  UNL1        0.1092
     12  S1         3.7240    0.8850    1.9360 S.O2    1  UNL1        0.0724
     13  O3         3.0810    1.8950    2.8730 O.2     1  UNL1       -0.1500
     14  O4         4.4930   -0.1300    2.7680 O.2     1  UNL1       -0.1500
     15  N3         4.7880    1.7490    0.9020 N.pl3   1  UNL1       -0.2163
     16  C8         5.6120    1.1130   -0.0650 C.ar    1  UNL1        0.0480
     17  C9         6.3580   -0.0140    0.3060 C.ar    1  UNL1       -0.0393
     18  C10        7.1720   -0.6340   -0.6160 C.ar    1  UNL1       -0.0600
     19  C11        7.2480   -0.1430   -1.8960 C.ar    1  UNL1       -0.0616
     20  C12        6.5230    0.9560   -2.2650 C.ar    1  UNL1       -0.0600
     21  C13        5.7060    1.5850   -1.3510 C.ar    1  UNL1       -0.0393
     22  C14        1.1370    0.3910    1.2260 C.ar    1  UNL1       -0.0229
     23  C15       -6.0740   -0.5610   -0.2320 C.ar    1  UNL1        0.0382
     24  C16       -6.9730   -0.9710   -1.2070 C.ar    1  UNL1       -0.0496
     25  C17       -8.3310   -0.6760   -1.1560 C.ar    1  UNL1       -0.0610
     26  C18       -8.7730    0.0600   -0.0740 C.ar    1  UNL1       -0.0617
     27  C19       -7.9230    0.4850    0.9140 C.ar    1  UNL1       -0.0610
     28  C20       -6.5790    0.1640    0.8140 C.ar    1  UNL1       -0.0496
     29 H          -3.9255    0.4465    0.9650 H       1  UNL1        0.1731
     30 H          -2.0869   -1.4074   -0.4183 H       1  UNL1        0.1731
     31 H          -0.3231   -1.9012   -0.6393 H       1  UNL1        0.0625
     32 H           1.9712   -2.5685   -0.9108 H       1  UNL1        0.0618
     33 H           3.7677   -1.3712    0.1722 H       1  UNL1        0.0637
     34 H           4.8290    2.7293    0.9828 H       1  UNL1        0.1737
     35 H           6.2974   -0.3791    1.2694 H       1  UNL1        0.0636
     36 H           7.7225   -1.4641   -0.3459 H       1  UNL1        0.0618
     37 H           7.8582   -0.6079   -2.5863 H       1  UNL1        0.0618
     38 H           6.5879    1.3152   -3.2303 H       1  UNL1        0.0618
     39 H           5.1620    2.4150   -1.6344 H       1  UNL1        0.0636
     40 H           0.9128    1.2086    1.8144 H       1  UNL1        0.0645
     41 H          -6.6175   -1.5194   -2.0057 H       1  UNL1        0.0625
     42 H          -8.9795   -0.9928   -1.8936 H       1  UNL1        0.0618
     43 H          -9.7751    0.2975   -0.0072 H       1  UNL1        0.0618
     44 H          -8.2765    1.0320    1.7146 H       1  UNL1        0.0618
     45 H          -5.9351    0.4829    1.5548 H       1  UNL1        0.0625
@<TRIPOS>BOND
     1     1     2    2
     2     2     3   am
     3     2    23    1
     4     3     4    1
     5     4     5   am
     6     5     6    2
     7     5     7    1
     8     7     8   ar
     9     7    22   ar
    10     8     9   ar
    11     9    10   ar
    12    10    11   ar
    13    11    12    1
    14    11    22   ar
    15    12    13    2
    16    12    14    2
    17    12    15    1
    18    15    16    1
    19    16    17   ar
    20    16    21   ar
    21    17    18   ar
    22    18    19   ar
    23    19    20   ar
    24    20    21   ar
    25    23    24   ar
    26    23    28   ar
    27    24    25   ar
    28    25    26   ar
    29    26    27   ar
    30    27    28   ar
    31     3    29    1
    32     4    30    1
    33     8    31    1
    34     9    32    1
    35    10    33    1
    36    15    34    1
    37    17    35    1
    38    18    36    1
    39    19    37    1
    40    20    38    1
    41    21    39    1
    42    22    40    1
    43    24    41    1
    44    25    42    1
    45    26    43    1
    46    27    44    1
    47    28    45    1
@<TRIPOS>MOLECULE
../data/bude_mols_rdkit_confs/molecule_76.pdb
 45 47 0 0 0
SMALL
GASTEIGER

@<TRIPOS>ATOM
      1  O1         3.9880    1.3810    0.6230 O.2     1  UNL1       -0.2687
      2  C1         4.2840    0.2380    0.1930 C.2     1  UNL1        0.2601
      3  N1         3.2590   -0.5040   -0.4450 N.am    1  UNL1       -0.2301
      4  N2         1.9360   -0.0180   -0.6130 N.am    1  UNL1       -0.2301
      5  C2         1.1900    0.4970    0.4780 C.2     1  UNL1        0.2602
      6  O2         1.7250    0.5220    1.6260 O.2     1  UNL1       -0.2687
      7  C3        -0.1700    1.0060    0.3680 C.ar    1  UNL1        0.0400
      8  C4        -0.7050    1.7490    1.4060 C.ar    1  UNL1       -0.0495
      9  C5        -1.9860    2.2500    1.3690 C.ar    1  UNL1       -0.0592
     10  C6        -2.7460    1.9900    0.2490 C.ar    1  UNL1       -0.0350
     11  C7        -2.2400    1.2510   -0.8040 C.ar    1  UNL1        0.1092
     12  S1        -3.2450    0.9350   -2.2040 S.O2    1  UNL1        0.0724
     13  O3        -2.3900    0.9180   -3.4610 O.2     1  UNL1       -0.1500
     14  O4        -4.2290    2.0560   -2.3520 O.2     1  UNL1       -0.1500
     15  N3        -4.0940   -0.5420   -2.0520 N.pl3   1  UNL1       -0.2163
     16  C8        -5.0240   -0.7520   -1.0060 C.ar    1  UNL1        0.0480
     17  C9        -5.9770    0.1870   -0.6570 C.ar    1  UNL1       -0.0393
     18  C10       -6.8950   -0.0110    0.3670 C.ar    1  UNL1       -0.0600
     19  C11       -6.8530   -1.1930    1.0620 C.ar    1  UNL1       -0.0616
     20  C12       -5.9130   -2.1300    0.7240 C.ar    1  UNL1       -0.0600
     21  C13       -5.0130   -1.9370   -0.2790 C.ar    1  UNL1       -0.0393
     22  C14       -0.9590    0.7610   -0.7480 C.ar    1  UNL1       -0.0229
     23  C15        5.6490   -0.2400    0.3780 C.ar    1  UNL1        0.0382
     24  C16        6.1450   -1.3770   -0.2150 C.ar    1  UNL1       -0.0496
     25  C17        7.4490   -1.7870    0.0040 C.ar    1  UNL1       -0.0610
     26  C18        8.3090   -1.0820    0.8190 C.ar    1  UNL1       -0.0617
     27  C19        7.8220    0.0590    1.4180 C.ar    1  UNL1       -0.0610
     28  C20        6.5150    0.4590    1.1910 C.ar    1  UNL1       -0.0496
     29 H           3.4752   -1.4009   -0.7887 H       1  UNL1        0.1731
     30 H           1.5264   -0.0389   -1.5080 H       1  UNL1        0.1731
     31 H          -0.1223    1.9339    2.2374 H       1  UNL1        0.0625
     32 H          -2.3652    2.8022    2.1540 H       1  UNL1        0.0618
     33 H          -3.7103    2.3536    0.1955 H       1  UNL1        0.0637
     34 H          -3.9325   -1.2606   -2.7053 H       1  UNL1        0.1737
     35 H          -6.0079    1.0755   -1.1810 H       1  UNL1        0.0636
     36 H          -7.5919    0.7139    0.5992 H       1  UNL1        0.0618
     37 H          -7.5201   -1.3736    1.8285 H       1  UNL1        0.0618
     38 H          -5.8859   -3.0173    1.2504 H       1  UNL1        0.0618
     39 H          -4.3220   -2.6710   -0.4999 H       1  UNL1        0.0636
     40 H          -0.5823    0.2105   -1.5354 H       1  UNL1        0.0645
     41 H           5.5351   -1.9340   -0.8336 H       1  UNL1        0.0625
     42 H           7.7875   -2.6462   -0.4566 H       1  UNL1        0.0618
     43 H           9.2795   -1.3967    0.9742 H       1  UNL1        0.0618
     44 H           8.4315    0.6166    2.0366 H       1  UNL1        0.0618
     45 H           6.1750    1.3180    1.6509 H       1  UNL1        0.0625
@<TRIPOS>BOND
     1     1     2    2
     2     2     3   am
     3     2    23    1
     4     3     4    1
     5     4     5   am
     6     5     6    2
     7     5     7    1
     8     7     8   ar
     9     7    22   ar
    10     8     9   ar
    11     9    10   ar
    12    10    11   ar
    13    11    12    1
    14    11    22   ar
    15    12    13    2
    16    12    14    2
    17    12    15    1
    18    15    16    1
    19    16    17   ar
    20    16    21   ar
    21    17    18   ar
    22    18    19   ar
    23    19    20   ar
    24    20    21   ar
    25    23    24   ar
    26    23    28   ar
    27    24    25   ar
    28    25    26   ar
    29    26    27   ar
    30    27    28   ar
    31     3    29    1
    32     4    30    1
    33     8    31    1
    34     9    32    1
    35    10    33    1
    36    15    34    1
    37    17    35    1
    38    18    36    1
    39    19    37    1
    40    20    38    1
    41    21    39    1
    42    22    40    1
    43    24    41    1
    44    25    42    1
    45    26    43    1
    46    27    44    1
    47    28    45    1
@<TRIPOS>MOLECULE
../data/bude_mols_rdkit_confs/molecule_76.pdb
 45 47 0 0 0
SMALL
GASTEIGER

@<TRIPOS>ATOM
      1  O1         4.0180    0.7570   -1.1140 O.2     1  UNL1       -0.2687
      2  C1         4.2820    0.0520   -0.1090 C.2     1  UNL1        0.2601
      3  N1         3.1800   -0.2920    0.7210 N.am    1  UNL1       -0.2301
      4  N2         1.8810    0.1390    0.4180 N.am    1  UNL1       -0.2301
      5  C2         1.1890   -0.2870   -0.7410 C.2     1  UNL1        0.2602
      6  O2         1.8070   -1.0890   -1.5060 O.2     1  UNL1       -0.2687
      7  C3        -0.1790    0.1510   -1.0870 C.ar    1  UNL1        0.0400
      8  C4        -0.7390   -0.2040   -2.2980 C.ar    1  UNL1       -0.0495
      9  C5        -2.0110    0.1920   -2.6380 C.ar    1  UNL1       -0.0592
     10  C6        -2.7190    0.9560   -1.7370 C.ar    1  UNL1       -0.0350
     11  C7        -2.1950    1.3270   -0.5240 C.ar    1  UNL1        0.1092
     12  S1        -3.1230    2.3100    0.6180 S.O2    1  UNL1        0.0724
     13  O3        -2.1500    3.0730    1.4680 O.2     1  UNL1       -0.1500
     14  O4        -3.9670    3.2470   -0.1620 O.2     1  UNL1       -0.1500
     15  N3        -4.0390    1.2590    1.6320 N.pl3   1  UNL1       -0.2163
     16  C8        -5.0180    0.4070    1.0430 C.ar    1  UNL1        0.0480
     17  C9        -5.1150   -0.9310    1.4090 C.ar    1  UNL1       -0.0393
     18  C10       -6.0540   -1.7650    0.8480 C.ar    1  UNL1       -0.0600
     19  C11       -6.9430   -1.3110   -0.1020 C.ar    1  UNL1       -0.0616
     20  C12       -6.8610    0.0160   -0.4780 C.ar    1  UNL1       -0.0600
     21  C13       -5.9100    0.8550    0.0910 C.ar    1  UNL1       -0.0393
     22  C14       -0.9000    0.9140   -0.1990 C.ar    1  UNL1       -0.0229
     23  C15        5.6530   -0.3590    0.1420 C.ar    1  UNL1        0.0382
     24  C16        6.0610   -1.0610    1.2530 C.ar    1  UNL1       -0.0496
     25  C17        7.3580   -1.4410    1.4670 C.ar    1  UNL1       -0.0610
     26  C18        8.3190   -1.1170    0.5370 C.ar    1  UNL1       -0.0617
     27  C19        7.9240   -0.4100   -0.5890 C.ar    1  UNL1       -0.0610
     28  C20        6.6120   -0.0330   -0.7910 C.ar    1  UNL1       -0.0496
     29 H           3.3320   -0.8427    1.5228 H       1  UNL1        0.1731
     30 H           1.4329    0.7618    1.0349 H       1  UNL1        0.1731
     31 H          -0.1929   -0.7771   -2.9601 H       1  UNL1        0.0625
     32 H          -2.4244   -0.0763   -3.5447 H       1  UNL1        0.0618
     33 H          -3.6745    1.2594   -1.9819 H       1  UNL1        0.0637
     34 H          -3.8879    1.2475    2.6048 H       1  UNL1        0.1737
     35 H          -4.4669   -1.3073    2.1185 H       1  UNL1        0.0636
     36 H          -6.0936   -2.7525    1.1451 H       1  UNL1        0.0618
     37 H          -7.6463   -1.9409   -0.5186 H       1  UNL1        0.0618
     38 H          -7.5117    0.3876   -1.1877 H       1  UNL1        0.0618
     39 H          -5.8701    1.8421   -0.2076 H       1  UNL1        0.0636
     40 H          -0.4850    1.1816    0.7072 H       1  UNL1        0.0645
     41 H           5.3533   -1.3136    1.9603 H       1  UNL1        0.0625
     42 H           7.6131   -1.9658    2.3182 H       1  UNL1        0.0618
     43 H           9.3043   -1.3919    0.6733 H       1  UNL1        0.0618
     44 H           8.6320   -0.1585   -1.2965 H       1  UNL1        0.0618
     45 H           6.3499    0.4923   -1.6398 H       1  UNL1        0.0625
@<TRIPOS>BOND
     1     1     2    2
     2     2     3   am
     3     2    23    1
     4     3     4    1
     5     4     5   am
     6     5     6    2
     7     5     7    1
     8     7     8   ar
     9     7    22   ar
    10     8     9   ar
    11     9    10   ar
    12    10    11   ar
    13    11    12    1
    14    11    22   ar
    15    12    13    2
    16    12    14    2
    17    12    15    1
    18    15    16    1
    19    16    17   ar
    20    16    21   ar
    21    17    18   ar
    22    18    19   ar
    23    19    20   ar
    24    20    21   ar
    25    23    24   ar
    26    23    28   ar
    27    24    25   ar
    28    25    26   ar
    29    26    27   ar
    30    27    28   ar
    31     3    29    1
    32     4    30    1
    33     8    31    1
    34     9    32    1
    35    10    33    1
    36    15    34    1
    37    17    35    1
    38    18    36    1
    39    19    37    1
    40    20    38    1
    41    21    39    1
    42    22    40    1
    43    24    41    1
    44    25    42    1
    45    26    43    1
    46    27    44    1
    47    28    45    1
@<TRIPOS>MOLECULE
../data/bude_mols_rdkit_confs/molecule_76.pdb
 45 47 0 0 0
SMALL
GASTEIGER

@<TRIPOS>ATOM
      1  O1         3.8960   -0.0340    2.0780 O.2     1  UNL1       -0.2687
      2  C1         4.4720    0.2650    1.0020 C.2     1  UNL1        0.2601
      3  N1         3.7850   -0.0440   -0.1900 N.am    1  UNL1       -0.2301
      4  N2         2.5330   -0.6560   -0.2510 N.am    1  UNL1       -0.2301
      5  C2         1.2870   -0.0270    0.0250 C.2     1  UNL1        0.2602
      6  O2         1.2570    1.1560    0.3590 O.2     1  UNL1       -0.2687
      7  C3         0.0300   -0.7890   -0.0910 C.ar    1  UNL1        0.0400
      8  C4        -0.0850   -2.0210    0.4670 C.ar    1  UNL1       -0.0495
      9  C5        -1.2370   -2.7440    0.2590 C.ar    1  UNL1       -0.0592
     10  C6        -2.2620   -2.2570   -0.4910 C.ar    1  UNL1       -0.0350
     11  C7        -2.1410   -1.0030   -1.0560 C.ar    1  UNL1        0.1092
     12  S1        -3.3140   -0.3270   -2.1360 S.O2    1  UNL1        0.0724
     13  O3        -3.1210    1.2030   -2.2040 O.2     1  UNL1       -0.1500
     14  O4        -2.9990   -0.7600   -3.5740 O.2     1  UNL1       -0.1500
     15  N3        -4.9290   -0.6360   -1.7840 N.pl3   1  UNL1       -0.2163
     16  C8        -5.6310   -0.2560   -0.6630 C.ar    1  UNL1        0.0480
     17  C9        -5.2140   -0.3640    0.6200 C.ar    1  UNL1       -0.0393
     18  C10       -5.9990    0.0080    1.7040 C.ar    1  UNL1       -0.0600
     19  C11       -7.2520    0.5060    1.4470 C.ar    1  UNL1       -0.0616
     20  C12       -7.7120    0.6320    0.1600 C.ar    1  UNL1       -0.0600
     21  C13       -6.9250    0.2620   -0.8820 C.ar    1  UNL1       -0.0393
     22  C14       -0.9790   -0.2500   -0.8560 C.ar    1  UNL1       -0.0229
     23  C15        5.7620    0.8860    1.0420 C.ar    1  UNL1        0.0382
     24  C16        6.5070    1.1550   -0.0740 C.ar    1  UNL1       -0.0496
     25  C17        7.7460    1.7530   -0.0200 C.ar    1  UNL1       -0.0610
     26  C18        8.2860    2.1070    1.1860 C.ar    1  UNL1       -0.0617
     27  C19        7.5650    1.8510    2.3340 C.ar    1  UNL1       -0.0610
     28  C20        6.3310    1.2550    2.2650 C.ar    1  UNL1       -0.0496
     29 H           4.2208    0.1892   -1.0414 H       1  UNL1        0.1731
     30 H           2.5095   -1.6062   -0.5074 H       1  UNL1        0.1731
     31 H           0.6808   -2.4099    1.0392 H       1  UNL1        0.0625
     32 H          -1.3258   -3.6806    0.6832 H       1  UNL1        0.0618
     33 H          -3.1171   -2.8163   -0.6355 H       1  UNL1        0.0637
     34 H          -5.4308   -1.1485   -2.4584 H       1  UNL1        0.1737
     35 H          -4.2701   -0.7397    0.8012 H       1  UNL1        0.0636
     36 H          -5.6514   -0.0870    2.6711 H       1  UNL1        0.0618
     37 H          -7.8572    0.7899    2.2332 H       1  UNL1        0.0618
     38 H          -8.6568    1.0083   -0.0155 H       1  UNL1        0.0618
     39 H          -7.2776    0.3608   -1.8469 H       1  UNL1        0.0636
     40 H          -0.8807    0.6889   -1.2729 H       1  UNL1        0.0645
     41 H           6.1231    0.8983   -0.9969 H       1  UNL1        0.0625
     42 H           8.2685    1.9346   -0.8913 H       1  UNL1        0.0618
     43 H           9.2137    2.5563    1.2360 H       1  UNL1        0.0618
     44 H           7.9572    2.1100    3.2527 H       1  UNL1        0.0618
     45 H           5.8099    1.0746    3.1373 H       1  UNL1        0.0625
@<TRIPOS>BOND
     1     1     2    2
     2     2     3   am
     3     2    23    1
     4     3     4    1
     5     4     5   am
     6     5     6    2
     7     5     7    1
     8     7     8   ar
     9     7    22   ar
    10     8     9   ar
    11     9    10   ar
    12    10    11   ar
    13    11    12    1
    14    11    22   ar
    15    12    13    2
    16    12    14    2
    17    12    15    1
    18    15    16    1
    19    16    17   ar
    20    16    21   ar
    21    17    18   ar
    22    18    19   ar
    23    19    20   ar
    24    20    21   ar
    25    23    24   ar
    26    23    28   ar
    27    24    25   ar
    28    25    26   ar
    29    26    27   ar
    30    27    28   ar
    31     3    29    1
    32     4    30    1
    33     8    31    1
    34     9    32    1
    35    10    33    1
    36    15    34    1
    37    17    35    1
    38    18    36    1
    39    19    37    1
    40    20    38    1
    41    21    39    1
    42    22    40    1
    43    24    41    1
    44    25    42    1
    45    26    43    1
    46    27    44    1
    47    28    45    1
@<TRIPOS>MOLECULE
../data/bude_mols_rdkit_confs/molecule_76.pdb
 45 47 0 0 0
SMALL
GASTEIGER

@<TRIPOS>ATOM
      1  O1         3.9640   -1.5260    0.8550 O.2     1  UNL1       -0.2687
      2  C1         4.3280   -0.5160    0.2180 C.2     1  UNL1        0.2601
      3  N1         3.3790    0.4860   -0.0810 N.am    1  UNL1       -0.2301
      4  N2         2.0230    0.4120    0.3070 N.am    1  UNL1       -0.2301
      5  C2         1.2330   -0.7420    0.1080 C.2     1  UNL1        0.2602
      6  O2         1.7230   -1.7770   -0.4440 O.2     1  UNL1       -0.2687
      7  C3        -0.1580   -0.7760    0.5320 C.ar    1  UNL1        0.0400
      8  C4        -0.7730   -2.0020    0.7840 C.ar    1  UNL1       -0.0495
      9  C5        -2.0910   -2.0670    1.1900 C.ar    1  UNL1       -0.0592
     10  C6        -2.8390   -0.9260    1.3590 C.ar    1  UNL1       -0.0350
     11  C7        -2.2290    0.2740    1.1100 C.ar    1  UNL1        0.1092
     12  S1        -3.1580    1.7430    1.3240 S.O2    1  UNL1        0.0724
     13  O3        -2.1870    2.8500    1.6440 O.2     1  UNL1       -0.1500
     14  O4        -4.0930    1.6160    2.5010 O.2     1  UNL1       -0.1500
     15  N3        -4.0340    2.1850   -0.0780 N.pl3   1  UNL1       -0.2163
     16  C8        -5.0510    1.3410   -0.6410 C.ar    1  UNL1        0.0480
     17  C9        -5.1630    1.1050   -1.9910 C.ar    1  UNL1       -0.0393
     18  C10       -6.1500    0.2980   -2.4960 C.ar    1  UNL1       -0.0600
     19  C11       -7.0840   -0.3180   -1.6640 C.ar    1  UNL1       -0.0616
     20  C12       -6.9840   -0.0870   -0.2930 C.ar    1  UNL1       -0.0600
     21  C13       -5.9880    0.7230    0.1890 C.ar    1  UNL1       -0.0393
     22  C14       -0.9070    0.3700    0.7000 C.ar    1  UNL1       -0.0229
     23  C15        5.7110   -0.4000   -0.1950 C.ar    1  UNL1        0.0382
     24  C16        6.5010   -1.5300   -0.2090 C.ar    1  UNL1       -0.0496
     25  C17        7.8490   -1.5090   -0.5800 C.ar    1  UNL1       -0.0610
     26  C18        8.4060   -0.2980   -0.9470 C.ar    1  UNL1       -0.0617
     27  C19        7.6400    0.8440   -0.9410 C.ar    1  UNL1       -0.0610
     28  C20        6.3010    0.8120   -0.5720 C.ar    1  UNL1       -0.0496
     29 H           3.6779    1.2766   -0.5858 H       1  UNL1        0.1731
     30 H           1.6111    1.1976    0.7341 H       1  UNL1        0.1731
     31 H          -0.2345   -2.8743    0.6652 H       1  UNL1        0.0625
     32 H          -2.5218   -2.9874    1.3696 H       1  UNL1        0.0618
     33 H          -3.8243   -0.9724    1.6625 H       1  UNL1        0.0637
     34 H          -3.8346    3.0455   -0.5128 H       1  UNL1        0.1737
     35 H          -4.4898    1.5446   -2.6380 H       1  UNL1        0.0636
     36 H          -6.2027    0.1431   -3.5149 H       1  UNL1        0.0618
     37 H          -7.8243   -0.9245   -2.0502 H       1  UNL1        0.0618
     38 H          -7.6566   -0.5237    0.3565 H       1  UNL1        0.0618
     39 H          -5.9287    0.8822    1.2069 H       1  UNL1        0.0636
     40 H          -0.4858    1.2951    0.5215 H       1  UNL1        0.0645
     41 H           6.0790   -2.4306    0.0664 H       1  UNL1        0.0625
     42 H           8.4125   -2.3735   -0.5799 H       1  UNL1        0.0618
     43 H           9.3985   -0.2510   -1.2260 H       1  UNL1        0.0618
     44 H           8.0680    1.7420   -1.2158 H       1  UNL1        0.0618
     45 H           5.7426    1.6799   -0.5758 H       1  UNL1        0.0625
@<TRIPOS>BOND
     1     1     2    2
     2     2     3   am
     3     2    23    1
     4     3     4    1
     5     4     5   am
     6     5     6    2
     7     5     7    1
     8     7     8   ar
     9     7    22   ar
    10     8     9   ar
    11     9    10   ar
    12    10    11   ar
    13    11    12    1
    14    11    22   ar
    15    12    13    2
    16    12    14    2
    17    12    15    1
    18    15    16    1
    19    16    17   ar
    20    16    21   ar
    21    17    18   ar
    22    18    19   ar
    23    19    20   ar
    24    20    21   ar
    25    23    24   ar
    26    23    28   ar
    27    24    25   ar
    28    25    26   ar
    29    26    27   ar
    30    27    28   ar
    31     3    29    1
    32     4    30    1
    33     8    31    1
    34     9    32    1
    35    10    33    1
    36    15    34    1
    37    17    35    1
    38    18    36    1
    39    19    37    1
    40    20    38    1
    41    21    39    1
    42    22    40    1
    43    24    41    1
    44    25    42    1
    45    26    43    1
    46    27    44    1
    47    28    45    1
@<TRIPOS>MOLECULE
../data/bude_mols_rdkit_confs/molecule_76.pdb
 45 47 0 0 0
SMALL
GASTEIGER

@<TRIPOS>ATOM
      1  O1        -4.1200   -1.4480   -0.8550 O.2     1  UNL1       -0.2687
      2  C1        -4.3310   -0.2350   -0.5310 C.2     1  UNL1        0.2601
      3  N1        -3.2200    0.6340   -0.5290 N.am    1  UNL1       -0.2301
      4  N2        -1.9280    0.1920   -0.8620 N.am    1  UNL1       -0.2301
      5  C2        -1.2010   -0.5520    0.0900 C.2     1  UNL1        0.2602
      6  O2        -1.7460   -0.7850    1.2280 O.2     1  UNL1       -0.2687
      7  C3         0.1490   -1.0870   -0.1220 C.ar    1  UNL1        0.0400
      8  C4         0.4580   -1.8010   -1.2580 C.ar    1  UNL1       -0.0495
      9  C5         1.7520   -2.3050   -1.4090 C.ar    1  UNL1       -0.0592
     10  C6         2.7160   -2.1000   -0.4490 C.ar    1  UNL1       -0.0350
     11  C7         2.4250   -1.3870    0.6910 C.ar    1  UNL1        0.1092
     12  S1         3.5340   -1.0600    1.9710 S.O2    1  UNL1        0.0724
     13  O3         2.7690   -1.1530    3.2960 O.2     1  UNL1       -0.1500
     14  O4         4.5780   -2.1540    2.0840 O.2     1  UNL1       -0.1500
     15  N3         4.2530    0.4710    1.8300 N.pl3   1  UNL1       -0.2163
     16  C8         5.0640    0.8410    0.7350 C.ar    1  UNL1        0.0480
     17  C9         4.7030    0.7530   -0.5810 C.ar    1  UNL1       -0.0393
     18  C10        5.5720    1.1570   -1.6030 C.ar    1  UNL1       -0.0600
     19  C11        6.8130    1.6580   -1.3270 C.ar    1  UNL1       -0.0616
     20  C12        7.1820    1.7520   -0.0070 C.ar    1  UNL1       -0.0600
     21  C13        6.3480    1.3620    0.9870 C.ar    1  UNL1       -0.0393
     22  C14        1.1350   -0.9000    0.8160 C.ar    1  UNL1       -0.0229
     23  C15       -5.6970    0.1220   -0.2000 C.ar    1  UNL1        0.0382
     24  C16       -6.6520    0.4490   -1.1350 C.ar    1  UNL1       -0.0496
     25  C17       -7.9500    0.7720   -0.7830 C.ar    1  UNL1       -0.0610
     26  C18       -8.3470    0.7790    0.5360 C.ar    1  UNL1       -0.0617
     27  C19       -7.4070    0.4550    1.4850 C.ar    1  UNL1       -0.0610
     28  C20       -6.0980    0.1290    1.1370 C.ar    1  UNL1       -0.0496
     29 H          -3.3536    1.5789   -0.2870 H       1  UNL1        0.1731
     30 H          -1.5384    0.3978   -1.7424 H       1  UNL1        0.1731
     31 H          -0.2552   -1.9613   -1.9865 H       1  UNL1        0.0625
     32 H           1.9897   -2.8419   -2.2577 H       1  UNL1        0.0618
     33 H           3.6642   -2.4839   -0.5851 H       1  UNL1        0.0637
     34 H           4.0976    1.1308    2.5439 H       1  UNL1        0.1737
     35 H           3.7719    0.3816   -0.8262 H       1  UNL1        0.0636
     36 H           5.2682    1.0744   -2.5858 H       1  UNL1        0.0618
     37 H           7.4500    1.9550   -2.0827 H       1  UNL1        0.0618
     38 H           8.1131    2.1272    0.2322 H       1  UNL1        0.0618
     39 H           6.6654    1.4500    1.9650 H       1  UNL1        0.0636
     40 H           0.8998   -0.3637    1.6658 H       1  UNL1        0.0645
     41 H          -6.3908    0.4534   -2.1334 H       1  UNL1        0.0625
     42 H          -8.6316    1.0115   -1.5200 H       1  UNL1        0.0618
     43 H          -9.3149    1.0188    0.8019 H       1  UNL1        0.0618
     44 H          -7.6778    0.4532    2.4808 H       1  UNL1        0.0618
     45 H          -5.4177   -0.1098    1.8754 H       1  UNL1        0.0625
@<TRIPOS>BOND
     1     1     2    2
     2     2     3   am
     3     2    23    1
     4     3     4    1
     5     4     5   am
     6     5     6    2
     7     5     7    1
     8     7     8   ar
     9     7    22   ar
    10     8     9   ar
    11     9    10   ar
    12    10    11   ar
    13    11    12    1
    14    11    22   ar
    15    12    13    2
    16    12    14    2
    17    12    15    1
    18    15    16    1
    19    16    17   ar
    20    16    21   ar
    21    17    18   ar
    22    18    19   ar
    23    19    20   ar
    24    20    21   ar
    25    23    24   ar
    26    23    28   ar
    27    24    25   ar
    28    25    26   ar
    29    26    27   ar
    30    27    28   ar
    31     3    29    1
    32     4    30    1
    33     8    31    1
    34     9    32    1
    35    10    33    1
    36    15    34    1
    37    17    35    1
    38    18    36    1
    39    19    37    1
    40    20    38    1
    41    21    39    1
    42    22    40    1
    43    24    41    1
    44    25    42    1
    45    26    43    1
    46    27    44    1
    47    28    45    1
@<TRIPOS>MOLECULE
../data/bude_mols_rdkit_confs/molecule_76.pdb
 45 47 0 0 0
SMALL
GASTEIGER

@<TRIPOS>ATOM
      1  O1         4.1730    1.2910   -1.0580 O.2     1  UNL1       -0.2687
      2  C1         4.4050    0.4420   -0.1690 C.2     1  UNL1        0.2601
      3  N1         3.3580   -0.3280    0.3980 N.am    1  UNL1       -0.2301
      4  N2         2.0530   -0.1660   -0.0420 N.am    1  UNL1       -0.2301
      5  C2         1.3090    1.0110   -0.1550 C.2     1  UNL1        0.2602
      6  O2         1.8300    2.1030    0.1680 O.2     1  UNL1       -0.2687
      7  C3        -0.0730    1.0330   -0.6420 C.ar    1  UNL1        0.0400
      8  C4        -0.5940    2.1990   -1.1360 C.ar    1  UNL1       -0.0495
      9  C5        -1.8990    2.2150   -1.6030 C.ar    1  UNL1       -0.0592
     10  C6        -2.6540    1.0560   -1.5650 C.ar    1  UNL1       -0.0350
     11  C7        -2.1460   -0.1220   -1.0710 C.ar    1  UNL1        0.1092
     12  S1        -3.0860   -1.5890   -1.0440 S.O2    1  UNL1        0.0724
     13  O3        -3.7600   -1.7850   -2.3660 O.2     1  UNL1       -0.1500
     14  O4        -2.1260   -2.7610   -0.8600 O.2     1  UNL1       -0.1500
     15  N3        -4.1530   -1.5930    0.2820 N.pl3   1  UNL1       -0.2163
     16  C8        -5.1880   -0.5960    0.4240 C.ar    1  UNL1        0.0480
     17  C9        -5.4460    0.0330    1.6090 C.ar    1  UNL1       -0.0393
     18  C10       -6.4180    0.9870    1.7770 C.ar    1  UNL1       -0.0600
     19  C11       -7.1640    1.3090    0.6610 C.ar    1  UNL1       -0.0616
     20  C12       -6.9430    0.7040   -0.5540 C.ar    1  UNL1       -0.0600
     21  C13       -5.9510   -0.2490   -0.6640 C.ar    1  UNL1       -0.0393
     22  C14       -0.8520   -0.1210   -0.6130 C.ar    1  UNL1       -0.0229
     23  C15        5.7660    0.2100    0.3170 C.ar    1  UNL1        0.0382
     24  C16        6.6340    1.2400    0.5710 C.ar    1  UNL1       -0.0496
     25  C17        7.8960    0.8920    0.9960 C.ar    1  UNL1       -0.0610
     26  C18        8.2610   -0.4410    1.1550 C.ar    1  UNL1       -0.0617
     27  C19        7.3790   -1.4620    0.8990 C.ar    1  UNL1       -0.0610
     28  C20        6.1290   -1.1300    0.4780 C.ar    1  UNL1       -0.0496
     29 H           3.5585   -0.9806    1.1073 H       1  UNL1        0.1731
     30 H           1.5884   -0.9913   -0.3109 H       1  UNL1        0.1731
     31 H          -0.0210    3.0570   -1.1604 H       1  UNL1        0.0625
     32 H          -2.3054    3.0867   -1.9771 H       1  UNL1        0.0618
     33 H          -3.6240    1.0765   -1.9168 H       1  UNL1        0.0637
     34 H          -4.0624   -2.2922    0.9691 H       1  UNL1        0.1737
     35 H          -4.8745   -0.2253    2.4286 H       1  UNL1        0.0636
     36 H          -6.5826    1.4399    2.6896 H       1  UNL1        0.0618
     37 H          -7.9062    2.0216    0.7405 H       1  UNL1        0.0618
     38 H          -7.5132    0.9601   -1.3752 H       1  UNL1        0.0618
     39 H          -5.7806   -0.7059   -1.5736 H       1  UNL1        0.0636
     40 H          -0.4478   -0.9939   -0.2393 H       1  UNL1        0.0645
     41 H           6.3554    2.2263    0.4497 H       1  UNL1        0.0625
     42 H           8.5841    1.6335    1.2005 H       1  UNL1        0.0618
     43 H           9.2164   -0.6677    1.4726 H       1  UNL1        0.0618
     44 H           7.6555   -2.4486    1.0220 H       1  UNL1        0.0618
     45 H           5.4428   -1.8738    0.2757 H       1  UNL1        0.0625
@<TRIPOS>BOND
     1     1     2    2
     2     2     3   am
     3     2    23    1
     4     3     4    1
     5     4     5   am
     6     5     6    2
     7     5     7    1
     8     7     8   ar
     9     7    22   ar
    10     8     9   ar
    11     9    10   ar
    12    10    11   ar
    13    11    12    1
    14    11    22   ar
    15    12    13    2
    16    12    14    2
    17    12    15    1
    18    15    16    1
    19    16    17   ar
    20    16    21   ar
    21    17    18   ar
    22    18    19   ar
    23    19    20   ar
    24    20    21   ar
    25    23    24   ar
    26    23    28   ar
    27    24    25   ar
    28    25    26   ar
    29    26    27   ar
    30    27    28   ar
    31     3    29    1
    32     4    30    1
    33     8    31    1
    34     9    32    1
    35    10    33    1
    36    15    34    1
    37    17    35    1
    38    18    36    1
    39    19    37    1
    40    20    38    1
    41    21    39    1
    42    22    40    1
    43    24    41    1
    44    25    42    1
    45    26    43    1
    46    27    44    1
    47    28    45    1
@<TRIPOS>MOLECULE
../data/bude_mols_rdkit_confs/molecule_76.pdb
 45 47 0 0 0
SMALL
GASTEIGER

@<TRIPOS>ATOM
      1  O1        -4.4400    1.7450    0.4980 O.2     1  UNL1       -0.2687
      2  C1        -4.8100    0.6280    0.0590 C.2     1  UNL1        0.2601
      3  N1        -3.8330   -0.4020   -0.0410 N.am    1  UNL1       -0.2301
      4  N2        -2.5010   -0.1310    0.3480 N.am    1  UNL1       -0.2301
      5  C2        -1.4130   -0.3470   -0.5440 C.2     1  UNL1        0.2602
      6  O2        -1.6770   -0.7920   -1.6890 O.2     1  UNL1       -0.2687
      7  C3        -0.0180   -0.0650   -0.1700 C.ar    1  UNL1        0.0400
      8  C4         0.2800    0.8070    0.8630 C.ar    1  UNL1       -0.0495
      9  C5         1.5840    1.0750    1.1860 C.ar    1  UNL1       -0.0592
     10  C6         2.6680    0.4980    0.5080 C.ar    1  UNL1       -0.0350
     11  C7         2.3750   -0.3670   -0.5170 C.ar    1  UNL1        0.1092
     12  S1         3.6170   -1.1040   -1.4610 S.O2    1  UNL1        0.0724
     13  O3         3.0340   -2.3220   -2.1870 O.2     1  UNL1       -0.1500
     14  O4         4.0890   -0.1970   -2.5830 O.2     1  UNL1       -0.1500
     15  N3         4.9740   -1.6580   -0.6120 N.pl3   1  UNL1       -0.2163
     16  C8         5.8520   -0.7850    0.1330 C.ar    1  UNL1        0.0480
     17  C9         6.3030   -1.0600    1.4020 C.ar    1  UNL1       -0.0393
     18  C10        7.1550   -0.2090    2.0690 C.ar    1  UNL1       -0.0600
     19  C11        7.5670    0.9510    1.4490 C.ar    1  UNL1       -0.0616
     20  C12        7.1340    1.2640    0.1710 C.ar    1  UNL1       -0.0600
     21  C13        6.2850    0.3960   -0.4680 C.ar    1  UNL1       -0.0393
     22  C14        1.0360   -0.6380   -0.8420 C.ar    1  UNL1       -0.0229
     23  C15       -6.1890    0.4220   -0.3240 C.ar    1  UNL1        0.0382
     24  C16       -7.1700    1.2500    0.1420 C.ar    1  UNL1       -0.0496
     25  C17       -8.5150    1.0640   -0.2190 C.ar    1  UNL1       -0.0610
     26  C18       -8.8390    0.0210   -1.0620 C.ar    1  UNL1       -0.0617
     27  C19       -7.8500   -0.8120   -1.5310 C.ar    1  UNL1       -0.0610
     28  C20       -6.5250   -0.6110   -1.1610 C.ar    1  UNL1       -0.0496
     29 H          -4.0819   -1.2932   -0.3773 H       1  UNL1        0.1731
     30 H          -2.3227    0.2136    1.2528 H       1  UNL1        0.1731
     31 H          -0.4834    1.2570    1.3920 H       1  UNL1        0.0625
     32 H           1.7770    1.7289    1.9607 H       1  UNL1        0.0618
     33 H           3.6429    0.7142    0.7683 H       1  UNL1        0.0637
     34 H           5.1743   -2.6218   -0.6268 H       1  UNL1        0.1737
     35 H           5.9945   -1.9280    1.8673 H       1  UNL1        0.0636
     36 H           7.4811   -0.4367    3.0213 H       1  UNL1        0.0618
     37 H           8.2056    1.5939    1.9428 H       1  UNL1        0.0618
     38 H           7.4439    2.1330   -0.2914 H       1  UNL1        0.0618
     39 H           5.9579    0.6237   -1.4199 H       1  UNL1        0.0636
     40 H           0.8354   -1.2921   -1.6146 H       1  UNL1        0.0645
     41 H          -6.9183    2.0278    0.7719 H       1  UNL1        0.0625
     42 H          -9.2475    1.6962    0.1400 H       1  UNL1        0.0618
     43 H          -9.8207   -0.1338   -1.3399 H       1  UNL1        0.0618
     44 H          -8.0932   -1.5916   -2.1619 H       1  UNL1        0.0618
     45 H          -5.7908   -1.2423   -1.5180 H       1  UNL1        0.0625
@<TRIPOS>BOND
     1     1     2    2
     2     2     3   am
     3     2    23    1
     4     3     4    1
     5     4     5   am
     6     5     6    2
     7     5     7    1
     8     7     8   ar
     9     7    22   ar
    10     8     9   ar
    11     9    10   ar
    12    10    11   ar
    13    11    12    1
    14    11    22   ar
    15    12    13    2
    16    12    14    2
    17    12    15    1
    18    15    16    1
    19    16    17   ar
    20    16    21   ar
    21    17    18   ar
    22    18    19   ar
    23    19    20   ar
    24    20    21   ar
    25    23    24   ar
    26    23    28   ar
    27    24    25   ar
    28    25    26   ar
    29    26    27   ar
    30    27    28   ar
    31     3    29    1
    32     4    30    1
    33     8    31    1
    34     9    32    1
    35    10    33    1
    36    15    34    1
    37    17    35    1
    38    18    36    1
    39    19    37    1
    40    20    38    1
    41    21    39    1
    42    22    40    1
    43    24    41    1
    44    25    42    1
    45    26    43    1
    46    27    44    1
    47    28    45    1
@<TRIPOS>MOLECULE
../data/bude_mols_rdkit_confs/molecule_76.pdb
 45 47 0 0 0
SMALL
GASTEIGER

@<TRIPOS>ATOM
      1  O1         3.8370   -1.3350    0.1180 O.2     1  UNL1       -0.2687
      2  C1         4.2930   -0.2010    0.4390 C.2     1  UNL1        0.2601
      3  N1         3.3620    0.8680    0.5140 N.am    1  UNL1       -0.2301
      4  N2         2.0020    0.5840    0.2250 N.am    1  UNL1       -0.2301
      5  C2         1.6750    0.2830   -1.1250 C.2     1  UNL1        0.2602
      6  O2         2.6050    0.2920   -1.9680 O.2     1  UNL1       -0.2687
      7  C3         0.2980   -0.0240   -1.4950 C.ar    1  UNL1        0.0400
      8  C4        -0.0530    0.0090   -2.8440 C.ar    1  UNL1       -0.0495
      9  C5        -1.3520   -0.3020   -3.1550 C.ar    1  UNL1       -0.0592
     10  C6        -2.2750   -0.6340   -2.1640 C.ar    1  UNL1       -0.0350
     11  C7        -1.9070   -0.6580   -0.8540 C.ar    1  UNL1        0.1092
     12  S1        -3.0710   -1.0840    0.4020 S.O2    1  UNL1        0.0724
     13  O3        -4.0010   -2.1200   -0.1590 O.2     1  UNL1       -0.1500
     14  O4        -2.2690   -1.7450    1.5140 O.2     1  UNL1       -0.1500
     15  N3        -3.9230    0.2710    0.9970 N.pl3   1  UNL1       -0.2163
     16  C8        -5.3000    0.3940    0.7620 C.ar    1  UNL1        0.0480
     17  C9        -5.8560    0.1440   -0.4620 C.ar    1  UNL1       -0.0393
     18  C10       -7.1930    0.2520   -0.7150 C.ar    1  UNL1       -0.0600
     19  C11       -8.0130    0.6340    0.3270 C.ar    1  UNL1       -0.0616
     20  C12       -7.4770    0.8960    1.5850 C.ar    1  UNL1       -0.0600
     21  C13       -6.1210    0.7770    1.8030 C.ar    1  UNL1       -0.0393
     22  C14       -0.6100   -0.3490   -0.5300 C.ar    1  UNL1       -0.0229
     23  C15        5.7180   -0.0630    0.7090 C.ar    1  UNL1        0.0382
     24  C16        6.2590    1.1300    1.1140 C.ar    1  UNL1       -0.0496
     25  C17        7.6190    1.1920    1.3530 C.ar    1  UNL1       -0.0610
     26  C18        8.4020    0.0730    1.1840 C.ar    1  UNL1       -0.0617
     27  C19        7.8630   -1.1280    0.7780 C.ar    1  UNL1       -0.0610
     28  C20        6.5110   -1.2000    0.5380 C.ar    1  UNL1       -0.0496
     29 H           3.6505    1.7769    0.7586 H       1  UNL1        0.1731
     30 H           1.3144    0.5950    0.9295 H       1  UNL1        0.1731
     31 H           0.6328    0.2560   -3.5745 H       1  UNL1        0.0625
     32 H          -1.6524   -0.2901   -4.1422 H       1  UNL1        0.0618
     33 H          -3.2463   -0.8637   -2.4264 H       1  UNL1        0.0637
     34 H          -3.4469    0.9666    1.5056 H       1  UNL1        0.1737
     35 H          -5.2330   -0.1409   -1.2339 H       1  UNL1        0.0636
     36 H          -7.5770    0.0549   -1.6524 H       1  UNL1        0.0618
     37 H          -9.0293    0.7260    0.1730 H       1  UNL1        0.0618
     38 H          -8.0981    1.1808    2.3584 H       1  UNL1        0.0618
     39 H          -5.7239    0.9724    2.7353 H       1  UNL1        0.0636
     40 H          -0.3167   -0.3626    0.4593 H       1  UNL1        0.0645
     41 H           5.6636    1.9638    1.2377 H       1  UNL1        0.0625
     42 H           8.0481    2.0793    1.6588 H       1  UNL1        0.0618
     43 H           9.4160    0.1350    1.3655 H       1  UNL1        0.0618
     44 H           8.4631   -1.9587    0.6562 H       1  UNL1        0.0618
     45 H           6.0846   -2.0890    0.2333 H       1  UNL1        0.0625
@<TRIPOS>BOND
     1     1     2    2
     2     2     3   am
     3     2    23    1
     4     3     4    1
     5     4     5   am
     6     5     6    2
     7     5     7    1
     8     7     8   ar
     9     7    22   ar
    10     8     9   ar
    11     9    10   ar
    12    10    11   ar
    13    11    12    1
    14    11    22   ar
    15    12    13    2
    16    12    14    2
    17    12    15    1
    18    15    16    1
    19    16    17   ar
    20    16    21   ar
    21    17    18   ar
    22    18    19   ar
    23    19    20   ar
    24    20    21   ar
    25    23    24   ar
    26    23    28   ar
    27    24    25   ar
    28    25    26   ar
    29    26    27   ar
    30    27    28   ar
    31     3    29    1
    32     4    30    1
    33     8    31    1
    34     9    32    1
    35    10    33    1
    36    15    34    1
    37    17    35    1
    38    18    36    1
    39    19    37    1
    40    20    38    1
    41    21    39    1
    42    22    40    1
    43    24    41    1
    44    25    42    1
    45    26    43    1
    46    27    44    1
    47    28    45    1
@<TRIPOS>MOLECULE
../data/bude_mols_rdkit_confs/molecule_76.pdb
 45 47 0 0 0
SMALL
GASTEIGER

@<TRIPOS>ATOM
      1  O1         1.6680   -1.6150    0.7340 O.2     1  UNL1       -0.2687
      2  C1         2.7910   -1.0480    0.5240 C.2     1  UNL1        0.2601
      3  N1         2.7970    0.0210   -0.4000 N.am    1  UNL1       -0.2301
      4  N2         1.5880    0.3950   -1.0190 N.am    1  UNL1       -0.2301
      5  C2         1.0560    1.7030   -0.9110 C.2     1  UNL1        0.2602
      6  O2         1.7550    2.5050   -0.2170 O.2     1  UNL1       -0.2687
      7  C3        -0.1920    2.1290   -1.5350 C.ar    1  UNL1        0.0400
      8  C4        -0.5020    3.4650   -1.7110 C.ar    1  UNL1       -0.0495
      9  C5        -1.6700    3.8770   -2.2900 C.ar    1  UNL1       -0.0592
     10  C6        -2.6100    2.9600   -2.7320 C.ar    1  UNL1       -0.0350
     11  C7        -2.3220    1.6200   -2.5660 C.ar    1  UNL1        0.1092
     12  S1        -3.4440    0.3870   -3.0930 S.O2    1  UNL1        0.0724
     13  O3        -4.2010    0.8790   -4.3000 O.2     1  UNL1       -0.1500
     14  O4        -2.7470   -0.8860   -3.4770 O.2     1  UNL1       -0.1500
     15  N3        -4.5920    0.1270   -1.8350 N.pl3   1  UNL1       -0.2163
     16  C8        -4.1370   -0.3340   -0.5740 C.ar    1  UNL1        0.0480
     17  C9        -3.2450   -1.3560   -0.5050 C.ar    1  UNL1       -0.0393
     18  C10       -2.8220   -1.7820    0.7600 C.ar    1  UNL1       -0.0600
     19  C11       -3.3080   -1.1700    1.9010 C.ar    1  UNL1       -0.0616
     20  C12       -4.2110   -0.1390    1.7770 C.ar    1  UNL1       -0.0600
     21  C13       -4.6400    0.2960    0.5500 C.ar    1  UNL1       -0.0393
     22  C14       -1.1250    1.2130   -1.9730 C.ar    1  UNL1       -0.0229
     23  C15        3.9980   -1.4870    1.2060 C.ar    1  UNL1        0.0382
     24  C16        5.2010   -0.8460    1.0340 C.ar    1  UNL1       -0.0496
     25  C17        6.3520   -1.2640    1.6910 C.ar    1  UNL1       -0.0610
     26  C18        6.3210   -2.3500    2.5460 C.ar    1  UNL1       -0.0617
     27  C19        5.1210   -2.9980    2.7250 C.ar    1  UNL1       -0.0610
     28  C20        3.9990   -2.5650    2.0640 C.ar    1  UNL1       -0.0496
     29 H           3.6332    0.4971   -0.6080 H       1  UNL1        0.1731
     30 H           1.0959   -0.2762   -1.5449 H       1  UNL1        0.1731
     31 H           0.1735    4.1777   -1.3935 H       1  UNL1        0.0625
     32 H          -1.8544    4.8865   -2.3995 H       1  UNL1        0.0618
     33 H          -3.4929    3.2673   -3.1692 H       1  UNL1        0.0637
     34 H          -5.5495    0.2960   -1.9895 H       1  UNL1        0.1737
     35 H          -2.8885   -1.8066   -1.3622 H       1  UNL1        0.0636
     36 H          -2.1445   -2.5562    0.8413 H       1  UNL1        0.0618
     37 H          -2.9972   -1.4827    2.8341 H       1  UNL1        0.0618
     38 H          -4.5739    0.3177    2.6283 H       1  UNL1        0.0618
     39 H          -5.3176    1.0700    0.4673 H       1  UNL1        0.0636
     40 H          -0.9346    0.2050   -1.8601 H       1  UNL1        0.0645
     41 H           5.2512   -0.0329    0.4004 H       1  UNL1        0.0625
     42 H           7.2389   -0.7586    1.5391 H       1  UNL1        0.0618
     43 H           7.1731   -2.6652    3.0355 H       1  UNL1        0.0618
     44 H           5.0643   -3.8114    3.3576 H       1  UNL1        0.0618
     45 H           3.1129   -3.0715    2.2170 H       1  UNL1        0.0625
@<TRIPOS>BOND
     1     1     2    2
     2     2     3   am
     3     2    23    1
     4     3     4    1
     5     4     5   am
     6     5     6    2
     7     5     7    1
     8     7     8   ar
     9     7    22   ar
    10     8     9   ar
    11     9    10   ar
    12    10    11   ar
    13    11    12    1
    14    11    22   ar
    15    12    13    2
    16    12    14    2
    17    12    15    1
    18    15    16    1
    19    16    17   ar
    20    16    21   ar
    21    17    18   ar
    22    18    19   ar
    23    19    20   ar
    24    20    21   ar
    25    23    24   ar
    26    23    28   ar
    27    24    25   ar
    28    25    26   ar
    29    26    27   ar
    30    27    28   ar
    31     3    29    1
    32     4    30    1
    33     8    31    1
    34     9    32    1
    35    10    33    1
    36    15    34    1
    37    17    35    1
    38    18    36    1
    39    19    37    1
    40    20    38    1
    41    21    39    1
    42    22    40    1
    43    24    41    1
    44    25    42    1
    45    26    43    1
    46    27    44    1
    47    28    45    1
@<TRIPOS>MOLECULE
../data/bude_mols_rdkit_confs/molecule_76.pdb
 45 47 0 0 0
SMALL
GASTEIGER

@<TRIPOS>ATOM
      1  O1        -3.9660    0.4040    1.7990 O.2     1  UNL1       -0.2687
      2  C1        -4.2830    0.1340    0.6030 C.2     1  UNL1        0.2601
      3  N1        -3.3060   -0.3630   -0.2990 N.am    1  UNL1       -0.2301
      4  N2        -1.9870   -0.5680    0.1150 N.am    1  UNL1       -0.2301
      5  C2        -1.0820   -1.2560   -0.7570 C.2     1  UNL1        0.2602
      6  O2        -1.4110   -1.6830   -1.8870 O.2     1  UNL1       -0.2687
      7  C3         0.2690   -1.4330   -0.2360 C.ar    1  UNL1        0.0400
      8  C4         0.9420   -2.5840   -0.5740 C.ar    1  UNL1       -0.0495
      9  C5         2.2180   -2.7520   -0.0570 C.ar    1  UNL1       -0.0592
     10  C6         2.7690   -1.7920    0.7590 C.ar    1  UNL1       -0.0350
     11  C7         2.1050   -0.6170    1.1120 C.ar    1  UNL1        0.1092
     12  S1         2.8220    0.5720    2.1590 S.O2    1  UNL1        0.0724
     13  O3         3.5770   -0.0790    3.2960 O.2     1  UNL1       -0.1500
     14  O4         1.6580    1.2970    2.8470 O.2     1  UNL1       -0.1500
     15  N3         3.7620    1.7550    1.3750 N.pl3   1  UNL1       -0.2163
     16  C8         4.9120    1.3650    0.6380 C.ar    1  UNL1        0.0480
     17  C9         6.1830    1.7730    1.0070 C.ar    1  UNL1       -0.0393
     18  C10        7.3100    1.3500    0.3410 C.ar    1  UNL1       -0.0600
     19  C11        7.2140    0.4970   -0.7300 C.ar    1  UNL1       -0.0616
     20  C12        5.9660    0.0900   -1.1030 C.ar    1  UNL1       -0.0600
     21  C13        4.8330    0.5150   -0.4340 C.ar    1  UNL1       -0.0393
     22  C14        0.8180   -0.4700    0.5790 C.ar    1  UNL1       -0.0229
     23  C15       -5.6470    0.3240    0.1340 C.ar    1  UNL1        0.0382
     24  C16       -6.1650   -0.2240   -1.0100 C.ar    1  UNL1       -0.0496
     25  C17       -7.4580   -0.0260   -1.4320 C.ar    1  UNL1       -0.0610
     26  C18       -8.2880    0.7750   -0.6540 C.ar    1  UNL1       -0.0617
     27  C19       -7.8160    1.3570    0.5150 C.ar    1  UNL1       -0.0610
     28  C20       -6.5130    1.1210    0.8840 C.ar    1  UNL1       -0.0496
     29 H          -3.5608   -0.5659   -1.2281 H       1  UNL1        0.1731
     30 H          -1.6838   -0.2441    0.9939 H       1  UNL1        0.1731
     31 H           0.5143   -3.2946   -1.1881 H       1  UNL1        0.0625
     32 H           2.7568   -3.6019   -0.2859 H       1  UNL1        0.0618
     33 H           3.7199   -1.9484    1.1282 H       1  UNL1        0.0637
     34 H           3.5098    2.7049    1.4321 H       1  UNL1        0.1737
     35 H           6.2881    2.4154    1.8078 H       1  UNL1        0.0636
     36 H           8.2384    1.6779    0.6503 H       1  UNL1        0.0618
     37 H           8.0547    0.1752   -1.2347 H       1  UNL1        0.0618
     38 H           5.8653   -0.5515   -1.9051 H       1  UNL1        0.0618
     39 H           3.9074    0.1848   -0.7490 H       1  UNL1        0.0636
     40 H           0.2713    0.3765    0.8018 H       1  UNL1        0.0645
     41 H          -5.5499   -0.8187   -1.5871 H       1  UNL1        0.0625
     42 H          -7.8038   -0.4597   -2.3023 H       1  UNL1        0.0618
     43 H          -9.2635    0.9381   -0.9485 H       1  UNL1        0.0618
     44 H          -8.4290    1.9527    1.0932 H       1  UNL1        0.0618
     45 H          -6.1600    1.5517    1.7529 H       1  UNL1        0.0625
@<TRIPOS>BOND
     1     1     2    2
     2     2     3   am
     3     2    23    1
     4     3     4    1
     5     4     5   am
     6     5     6    2
     7     5     7    1
     8     7     8   ar
     9     7    22   ar
    10     8     9   ar
    11     9    10   ar
    12    10    11   ar
    13    11    12    1
    14    11    22   ar
    15    12    13    2
    16    12    14    2
    17    12    15    1
    18    15    16    1
    19    16    17   ar
    20    16    21   ar
    21    17    18   ar
    22    18    19   ar
    23    19    20   ar
    24    20    21   ar
    25    23    24   ar
    26    23    28   ar
    27    24    25   ar
    28    25    26   ar
    29    26    27   ar
    30    27    28   ar
    31     3    29    1
    32     4    30    1
    33     8    31    1
    34     9    32    1
    35    10    33    1
    36    15    34    1
    37    17    35    1
    38    18    36    1
    39    19    37    1
    40    20    38    1
    41    21    39    1
    42    22    40    1
    43    24    41    1
    44    25    42    1
    45    26    43    1
    46    27    44    1
    47    28    45    1
@<TRIPOS>MOLECULE
../data/bude_mols_rdkit_confs/molecule_76.pdb
 45 47 0 0 0
SMALL
GASTEIGER

@<TRIPOS>ATOM
      1  O1        -4.9210    1.3880    0.5050 O.2     1  UNL1       -0.2687
      2  C1        -4.8860    0.4160   -0.2810 C.2     1  UNL1        0.2601
      3  N1        -3.6430   -0.0270   -0.7360 N.am    1  UNL1       -0.2301
      4  N2        -2.3960    0.5080   -0.4090 N.am    1  UNL1       -0.2301
      5  C2        -1.5670   -0.2910    0.4090 C.2     1  UNL1        0.2602
      6  O2        -1.9690   -1.4290    0.8250 O.2     1  UNL1       -0.2687
      7  C3        -0.2390    0.1020    0.8300 C.ar    1  UNL1        0.0400
      8  C4        -0.0340    0.2460    2.2030 C.ar    1  UNL1       -0.0495
      9  C5         1.2130    0.5960    2.6450 C.ar    1  UNL1       -0.0592
     10  C6         2.2480    0.8030    1.7540 C.ar    1  UNL1       -0.0350
     11  C7         2.0650    0.6660    0.3780 C.ar    1  UNL1        0.1092
     12  S1         3.3640    0.9270   -0.7640 S.O2    1  UNL1        0.0724
     13  O3         3.5380   -0.2940   -1.6550 O.2     1  UNL1       -0.1500
     14  O4         2.9560    2.0530   -1.6880 O.2     1  UNL1       -0.1500
     15  N3         4.8180    1.3550    0.0080 N.pl3   1  UNL1       -0.2163
     16  C8         5.8960    0.4490    0.1100 C.ar    1  UNL1        0.0480
     17  C9         6.3510   -0.2930   -0.9780 C.ar    1  UNL1       -0.0393
     18  C10        7.4100   -1.1490   -0.8720 C.ar    1  UNL1       -0.0600
     19  C11        8.0290   -1.2660    0.3480 C.ar    1  UNL1       -0.0616
     20  C12        7.6130   -0.5500    1.4530 C.ar    1  UNL1       -0.0600
     21  C13        6.5380    0.3080    1.3170 C.ar    1  UNL1       -0.0393
     22  C14        0.8160    0.3150   -0.0610 C.ar    1  UNL1       -0.0229
     23  C15       -6.1640   -0.2150   -0.6910 C.ar    1  UNL1        0.0382
     24  C16       -6.2180   -1.3700   -1.4290 C.ar    1  UNL1       -0.0496
     25  C17       -7.4360   -1.9270   -1.8220 C.ar    1  UNL1       -0.0610
     26  C18       -8.6290   -1.3330   -1.4780 C.ar    1  UNL1       -0.0617
     27  C19       -8.5770   -0.1750   -0.7370 C.ar    1  UNL1       -0.0610
     28  C20       -7.3630    0.3720   -0.3520 C.ar    1  UNL1       -0.0496
     29 H          -3.6462   -0.7959   -1.3508 H       1  UNL1        0.1731
     30 H          -2.1101    1.3934   -0.7308 H       1  UNL1        0.1731
     31 H          -0.8059    0.0919    2.8704 H       1  UNL1        0.0625
     32 H           1.3822    0.7067    3.6570 H       1  UNL1        0.0618
     33 H           3.1786    1.0652    2.1149 H       1  UNL1        0.0637
     34 H           4.9101    2.2564    0.3931 H       1  UNL1        0.1737
     35 H           5.8751   -0.1931   -1.8883 H       1  UNL1        0.0636
     36 H           7.7359   -1.6928   -1.6863 H       1  UNL1        0.0618
     37 H           8.8304   -1.9093    0.4421 H       1  UNL1        0.0618
     38 H           8.0940   -0.6532    2.3602 H       1  UNL1        0.0618
     39 H           6.2130    0.8501    2.1328 H       1  UNL1        0.0636
     40 H           0.6502    0.2053   -1.0737 H       1  UNL1        0.0645
     41 H          -5.3386   -1.8375   -1.6996 H       1  UNL1        0.0625
     42 H          -7.4421   -2.7963   -2.3782 H       1  UNL1        0.0618
     43 H          -9.5315   -1.7422   -1.7660 H       1  UNL1        0.0618
     44 H          -9.4550    0.2934   -0.4637 H       1  UNL1        0.0618
     45 H          -7.3573    1.2419    0.2032 H       1  UNL1        0.0625
@<TRIPOS>BOND
     1     1     2    2
     2     2     3   am
     3     2    23    1
     4     3     4    1
     5     4     5   am
     6     5     6    2
     7     5     7    1
     8     7     8   ar
     9     7    22   ar
    10     8     9   ar
    11     9    10   ar
    12    10    11   ar
    13    11    12    1
    14    11    22   ar
    15    12    13    2
    16    12    14    2
    17    12    15    1
    18    15    16    1
    19    16    17   ar
    20    16    21   ar
    21    17    18   ar
    22    18    19   ar
    23    19    20   ar
    24    20    21   ar
    25    23    24   ar
    26    23    28   ar
    27    24    25   ar
    28    25    26   ar
    29    26    27   ar
    30    27    28   ar
    31     3    29    1
    32     4    30    1
    33     8    31    1
    34     9    32    1
    35    10    33    1
    36    15    34    1
    37    17    35    1
    38    18    36    1
    39    19    37    1
    40    20    38    1
    41    21    39    1
    42    22    40    1
    43    24    41    1
    44    25    42    1
    45    26    43    1
    46    27    44    1
    47    28    45    1
@<TRIPOS>MOLECULE
../data/bude_mols_rdkit_confs/molecule_76.pdb
 45 47 0 0 0
SMALL
GASTEIGER

@<TRIPOS>ATOM
      1  O1         3.4290   -1.0860   -0.5470 O.2     1  UNL1       -0.2687
      2  C1         4.2800   -0.4700    0.1820 C.2     1  UNL1        0.2601
      3  N1         3.7640    0.4610    1.0940 N.am    1  UNL1       -0.2301
      4  N2         2.3870    0.7290    1.2280 N.am    1  UNL1       -0.2301
      5  C2         1.5830    1.2960    0.2170 C.2     1  UNL1        0.2602
      6  O2         2.1290    1.5870   -0.8830 O.2     1  UNL1       -0.2687
      7  C3         0.1570    1.5690    0.3470 C.ar    1  UNL1        0.0400
      8  C4        -0.2780    2.8370   -0.0380 C.ar    1  UNL1       -0.0495
      9  C5        -1.5910    3.1880    0.0360 C.ar    1  UNL1       -0.0592
     10  C6        -2.5030    2.2550    0.5050 C.ar    1  UNL1       -0.0350
     11  C7        -2.0900    1.0020    0.8870 C.ar    1  UNL1        0.1092
     12  S1        -3.2770   -0.1370    1.4630 S.O2    1  UNL1        0.0724
     13  O3        -4.3770    0.6110    2.1630 O.2     1  UNL1       -0.1500
     14  O4        -2.6300   -1.1230    2.4030 O.2     1  UNL1       -0.1500
     15  N3        -3.9010   -1.0340    0.1240 N.pl3   1  UNL1       -0.2163
     16  C8        -5.2470   -0.9180   -0.3450 C.ar    1  UNL1        0.0480
     17  C9        -5.9230   -2.0930   -0.6000 C.ar    1  UNL1       -0.0393
     18  C10       -7.2180   -2.0880   -1.0420 C.ar    1  UNL1       -0.0600
     19  C11       -7.8260   -0.8590   -1.2240 C.ar    1  UNL1       -0.0616
     20  C12       -7.1740    0.3370   -0.9760 C.ar    1  UNL1       -0.0600
     21  C13       -5.8480    0.3010   -0.5240 C.ar    1  UNL1       -0.0393
     22  C14       -0.7480    0.6360    0.8150 C.ar    1  UNL1       -0.0229
     23  C15        5.7020   -0.7450    0.0470 C.ar    1  UNL1        0.0382
     24  C16        6.6900   -0.0960    0.7290 C.ar    1  UNL1       -0.0496
     25  C17        8.0350   -0.3830    0.5770 C.ar    1  UNL1       -0.0610
     26  C18        8.4340   -1.3700   -0.3010 C.ar    1  UNL1       -0.0617
     27  C19        7.4320   -2.0380   -1.0020 C.ar    1  UNL1       -0.0610
     28  C20        6.0970   -1.7420   -0.8410 C.ar    1  UNL1       -0.0496
     29 H           4.3945    0.9518    1.6692 H       1  UNL1        0.1731
     30 H           1.9571    0.5054    2.0850 H       1  UNL1        0.1731
     31 H           0.4098    3.5232   -0.3861 H       1  UNL1        0.0625
     32 H          -1.9013    4.1294   -0.2511 H       1  UNL1        0.0618
     33 H          -3.5024    2.5045    0.5677 H       1  UNL1        0.0637
     34 H          -3.2977   -1.6580   -0.3406 H       1  UNL1        0.1737
     35 H          -5.4422   -2.9945   -0.4544 H       1  UNL1        0.0636
     36 H          -7.7221   -2.9681   -1.2324 H       1  UNL1        0.0618
     37 H          -8.8024   -0.8325   -1.5572 H       1  UNL1        0.0618
     38 H          -7.6555    1.2381   -1.1213 H       1  UNL1        0.0618
     39 H          -5.3342    1.1747   -0.3298 H       1  UNL1        0.0636
     40 H          -0.4385   -0.3054    1.1031 H       1  UNL1        0.0645
     41 H           6.4200    0.6471    1.3923 H       1  UNL1        0.0625
     42 H           8.7393    0.1407    1.1199 H       1  UNL1        0.0618
     43 H           9.4307   -1.6031   -0.4327 H       1  UNL1        0.0618
     44 H           7.7002   -2.7813   -1.6657 H       1  UNL1        0.0618
     45 H           5.3866   -2.2610   -1.3805 H       1  UNL1        0.0625
@<TRIPOS>BOND
     1     1     2    2
     2     2     3   am
     3     2    23    1
     4     3     4    1
     5     4     5   am
     6     5     6    2
     7     5     7    1
     8     7     8   ar
     9     7    22   ar
    10     8     9   ar
    11     9    10   ar
    12    10    11   ar
    13    11    12    1
    14    11    22   ar
    15    12    13    2
    16    12    14    2
    17    12    15    1
    18    15    16    1
    19    16    17   ar
    20    16    21   ar
    21    17    18   ar
    22    18    19   ar
    23    19    20   ar
    24    20    21   ar
    25    23    24   ar
    26    23    28   ar
    27    24    25   ar
    28    25    26   ar
    29    26    27   ar
    30    27    28   ar
    31     3    29    1
    32     4    30    1
    33     8    31    1
    34     9    32    1
    35    10    33    1
    36    15    34    1
    37    17    35    1
    38    18    36    1
    39    19    37    1
    40    20    38    1
    41    21    39    1
    42    22    40    1
    43    24    41    1
    44    25    42    1
    45    26    43    1
    46    27    44    1
    47    28    45    1
@<TRIPOS>MOLECULE
../data/bude_mols_rdkit_confs/molecule_76.pdb
 45 47 0 0 0
SMALL
GASTEIGER

@<TRIPOS>ATOM
      1  O1        -4.4930   -2.2100   -0.2750 O.2     1  UNL1       -0.2687
      2  C1        -4.7850   -0.9820   -0.2480 C.2     1  UNL1        0.2601
      3  N1        -3.7790   -0.0310   -0.5230 N.am    1  UNL1       -0.2301
      4  N2        -2.4320   -0.3900   -0.8340 N.am    1  UNL1       -0.2301
      5  C2        -1.3470    0.2610   -0.1970 C.2     1  UNL1        0.2602
      6  O2        -1.6440    1.1470    0.6470 O.2     1  UNL1       -0.2687
      7  C3         0.0390   -0.0930   -0.5200 C.ar    1  UNL1        0.0400
      8  C4         0.4090   -1.3340   -0.9350 C.ar    1  UNL1       -0.0495
      9  C5         1.7320   -1.5920   -1.3020 C.ar    1  UNL1       -0.0592
     10  C6         2.6950   -0.6070   -1.2550 C.ar    1  UNL1       -0.0350
     11  C7         2.3470    0.6490   -0.8410 C.ar    1  UNL1        0.1092
     12  S1         3.4930    1.9470   -0.8680 S.O2    1  UNL1        0.0724
     13  O3         4.2170    1.8500   -2.2240 O.2     1  UNL1       -0.1500
     14  O4         2.7780    3.2940   -0.8820 O.2     1  UNL1       -0.1500
     15  N3         4.6120    1.8750    0.4060 N.pl3   1  UNL1       -0.2163
     16  C8         5.5480    0.8550    0.6620 C.ar    1  UNL1        0.0480
     17  C9         5.2920   -0.4590    0.9420 C.ar    1  UNL1       -0.0393
     18  C10        6.3550   -1.3310    1.1950 C.ar    1  UNL1       -0.0600
     19  C11        7.6730   -0.9330    1.1770 C.ar    1  UNL1       -0.0616
     20  C12        7.9380    0.3940    0.8940 C.ar    1  UNL1       -0.0600
     21  C13        6.8960    1.2590    0.6450 C.ar    1  UNL1       -0.0393
     22  C14        1.0090    0.8870   -0.4740 C.ar    1  UNL1       -0.0229
     23  C15       -6.1540   -0.6100    0.0670 C.ar    1  UNL1        0.0382
     24  C16       -6.4130    0.6940    0.4350 C.ar    1  UNL1       -0.0496
     25  C17       -7.6860    1.0980    0.7420 C.ar    1  UNL1       -0.0610
     26  C18       -8.7180    0.1950    0.6850 C.ar    1  UNL1       -0.0617
     27  C19       -8.4570   -1.1150    0.3150 C.ar    1  UNL1       -0.0610
     28  C20       -7.1740   -1.5400   -0.0010 C.ar    1  UNL1       -0.0496
     29 H          -4.0168    0.9241   -0.4994 H       1  UNL1        0.1731
     30 H          -2.2560   -1.0962   -1.4970 H       1  UNL1        0.1731
     31 H          -0.2920   -2.0901   -0.9791 H       1  UNL1        0.0625
     32 H           1.9938   -2.5399   -1.6149 H       1  UNL1        0.0618
     33 H           3.6679   -0.8151   -1.5292 H       1  UNL1        0.0637
     34 H           4.6059    2.6311    1.0365 H       1  UNL1        0.1737
     35 H           4.3199   -0.8047    0.9664 H       1  UNL1        0.0636
     36 H           6.1420   -2.3187    1.4050 H       1  UNL1        0.0618
     37 H           8.4358   -1.6014    1.3679 H       1  UNL1        0.0618
     38 H           8.9119    0.7346    0.8695 H       1  UNL1        0.0618
     39 H           7.1129    2.2463    0.4369 H       1  UNL1        0.0636
     40 H           0.7429    1.8326   -0.1578 H       1  UNL1        0.0645
     41 H          -5.6381    1.3741    0.4797 H       1  UNL1        0.0625
     42 H          -7.8678    2.0766    1.0147 H       1  UNL1        0.0618
     43 H          -9.6800    0.4889    0.9156 H       1  UNL1        0.0618
     44 H          -9.2357   -1.7910    0.2734 H       1  UNL1        0.0618
     45 H          -6.9882   -2.5168   -0.2772 H       1  UNL1        0.0625
@<TRIPOS>BOND
     1     1     2    2
     2     2     3   am
     3     2    23    1
     4     3     4    1
     5     4     5   am
     6     5     6    2
     7     5     7    1
     8     7     8   ar
     9     7    22   ar
    10     8     9   ar
    11     9    10   ar
    12    10    11   ar
    13    11    12    1
    14    11    22   ar
    15    12    13    2
    16    12    14    2
    17    12    15    1
    18    15    16    1
    19    16    17   ar
    20    16    21   ar
    21    17    18   ar
    22    18    19   ar
    23    19    20   ar
    24    20    21   ar
    25    23    24   ar
    26    23    28   ar
    27    24    25   ar
    28    25    26   ar
    29    26    27   ar
    30    27    28   ar
    31     3    29    1
    32     4    30    1
    33     8    31    1
    34     9    32    1
    35    10    33    1
    36    15    34    1
    37    17    35    1
    38    18    36    1
    39    19    37    1
    40    20    38    1
    41    21    39    1
    42    22    40    1
    43    24    41    1
    44    25    42    1
    45    26    43    1
    46    27    44    1
    47    28    45    1
@<TRIPOS>MOLECULE
../data/bude_mols_rdkit_confs/molecule_76.pdb
 45 47 0 0 0
SMALL
GASTEIGER

@<TRIPOS>ATOM
      1  O1        -4.1630   -1.8200    0.1930 O.2     1  UNL1       -0.2687
      2  C1        -4.5790   -0.6190    0.2780 C.2     1  UNL1        0.2601
      3  N1        -3.6280    0.4320    0.3140 N.am    1  UNL1       -0.2301
      4  N2        -2.2550    0.0660    0.2440 N.am    1  UNL1       -0.2301
      5  C2        -1.3120    0.6650   -0.6100 C.2     1  UNL1        0.2602
      6  O2        -1.6190    1.6080   -1.3560 O.2     1  UNL1       -0.2687
      7  C3         0.0640    0.1680   -0.6270 C.ar    1  UNL1        0.0400
      8  C4         0.2640   -1.1670   -0.2410 C.ar    1  UNL1       -0.0495
      9  C5         1.5330   -1.6760   -0.3030 C.ar    1  UNL1       -0.0592
     10  C6         2.5680   -0.8960   -0.7300 C.ar    1  UNL1       -0.0350
     11  C7         2.4210    0.4210   -1.1190 C.ar    1  UNL1        0.1092
     12  S1         3.7670    1.2940   -1.7080 S.O2    1  UNL1        0.0724
     13  O3         4.5160    0.5480   -2.8120 O.2     1  UNL1       -0.1500
     14  O4         3.2630    2.5530   -2.4000 O.2     1  UNL1       -0.1500
     15  N3         4.9390    1.7620   -0.5670 N.pl3   1  UNL1       -0.2163
     16  C8         5.6900    0.8430    0.2050 C.ar    1  UNL1        0.0480
     17  C9         6.1990   -0.2880   -0.3580 C.ar    1  UNL1       -0.0393
     18  C10        6.9150   -1.1760    0.3880 C.ar    1  UNL1       -0.0600
     19  C11        7.1250   -0.9200    1.7450 C.ar    1  UNL1       -0.0616
     20  C12        6.6220    0.2230    2.3540 C.ar    1  UNL1       -0.0600
     21  C13        5.8960    1.0960    1.5340 C.ar    1  UNL1       -0.0393
     22  C14        1.1420    0.9320   -1.0550 C.ar    1  UNL1       -0.0229
     23  C15       -6.0100   -0.3840    0.3330 C.ar    1  UNL1        0.0382
     24  C16       -6.6190    0.5330   -0.4950 C.ar    1  UNL1       -0.0496
     25  C17       -7.9780    0.7100   -0.4320 C.ar    1  UNL1       -0.0610
     26  C18       -8.7520   -0.0170    0.4520 C.ar    1  UNL1       -0.0617
     27  C19       -8.1250   -0.9300    1.2730 C.ar    1  UNL1       -0.0610
     28  C20       -6.7780   -1.1220    1.2290 C.ar    1  UNL1       -0.0496
     29 H          -3.9057    1.3739    0.3844 H       1  UNL1        0.1731
     30 H          -1.9433   -0.6572    0.8348 H       1  UNL1        0.1731
     31 H          -0.5250   -1.7491    0.0810 H       1  UNL1        0.0625
     32 H           1.7079   -2.6545   -0.0255 H       1  UNL1        0.0618
     33 H           3.5115   -1.3127   -0.7641 H       1  UNL1        0.0637
     34 H           5.1039    2.7238   -0.4365 H       1  UNL1        0.1737
     35 H           6.0408   -0.4746   -1.3606 H       1  UNL1        0.0636
     36 H           7.2987   -2.0301   -0.0460 H       1  UNL1        0.0618
     37 H           7.6659   -1.5950    2.3079 H       1  UNL1        0.0618
     38 H           6.7750    0.4181    3.3558 H       1  UNL1        0.0618
     39 H           5.5039    1.9575    1.9451 H       1  UNL1        0.0636
     40 H           0.9807    1.9125   -1.3337 H       1  UNL1        0.0645
     41 H          -6.0551    1.0848   -1.1602 H       1  UNL1        0.0625
     42 H          -8.4296    1.3975   -1.0552 H       1  UNL1        0.0618
     43 H          -9.7739    0.1200    0.4966 H       1  UNL1        0.0618
     44 H          -8.6906   -1.4814    1.9372 H       1  UNL1        0.0618
     45 H          -6.3299   -1.8093    1.8550 H       1  UNL1        0.0625
@<TRIPOS>BOND
     1     1     2    2
     2     2     3   am
     3     2    23    1
     4     3     4    1
     5     4     5   am
     6     5     6    2
     7     5     7    1
     8     7     8   ar
     9     7    22   ar
    10     8     9   ar
    11     9    10   ar
    12    10    11   ar
    13    11    12    1
    14    11    22   ar
    15    12    13    2
    16    12    14    2
    17    12    15    1
    18    15    16    1
    19    16    17   ar
    20    16    21   ar
    21    17    18   ar
    22    18    19   ar
    23    19    20   ar
    24    20    21   ar
    25    23    24   ar
    26    23    28   ar
    27    24    25   ar
    28    25    26   ar
    29    26    27   ar
    30    27    28   ar
    31     3    29    1
    32     4    30    1
    33     8    31    1
    34     9    32    1
    35    10    33    1
    36    15    34    1
    37    17    35    1
    38    18    36    1
    39    19    37    1
    40    20    38    1
    41    21    39    1
    42    22    40    1
    43    24    41    1
    44    25    42    1
    45    26    43    1
    46    27    44    1
    47    28    45    1
@<TRIPOS>MOLECULE
../data/bude_mols_rdkit_confs/molecule_76.pdb
 45 47 0 0 0
SMALL
GASTEIGER

@<TRIPOS>ATOM
      1  O1         4.1430    1.9190    1.4460 O.2     1  UNL1       -0.2687
      2  C1         4.6780    1.0440    0.7410 C.2     1  UNL1        0.2601
      3  N1         3.8960   -0.0060    0.2150 N.am    1  UNL1       -0.2301
      4  N2         2.5210   -0.1540    0.4180 N.am    1  UNL1       -0.2301
      5  C2         1.6750   -0.4180   -0.6880 C.2     1  UNL1        0.2602
      6  O2         2.3240   -0.4740   -1.8190 O.2     1  UNL1       -0.2687
      7  C3         0.2500   -0.6300   -0.6970 C.ar    1  UNL1        0.0400
      8  C4        -0.2190   -1.6760   -1.5300 C.ar    1  UNL1       -0.0495
      9  C5        -1.5480   -1.9540   -1.6370 C.ar    1  UNL1       -0.0592
     10  C6        -2.4700   -1.1900   -0.9120 C.ar    1  UNL1       -0.0350
     11  C7        -2.0520   -0.1590   -0.0890 C.ar    1  UNL1        0.1092
     12  S1        -3.2610    0.8300    0.7490 S.O2    1  UNL1        0.0724
     13  O3        -3.9440    1.7830   -0.1690 O.2     1  UNL1       -0.1500
     14  O4        -2.6000    1.5460    1.8910 O.2     1  UNL1       -0.1500
     15  N3        -4.4250   -0.2400    1.4720 N.pl3   1  UNL1       -0.2163
     16  C8        -5.7410   -0.2950    0.9360 C.ar    1  UNL1        0.0480
     17  C9        -6.0240   -0.1620   -0.4100 C.ar    1  UNL1       -0.0393
     18  C10       -7.2950   -0.2260   -0.9320 C.ar    1  UNL1       -0.0600
     19  C11       -8.3750   -0.4330   -0.1120 C.ar    1  UNL1       -0.0616
     20  C12       -8.1230   -0.5680    1.2380 C.ar    1  UNL1       -0.0600
     21  C13       -6.8490   -0.5020    1.7540 C.ar    1  UNL1       -0.0393
     22  C14       -0.6990    0.0870   -0.0060 C.ar    1  UNL1       -0.0229
     23  C15        6.1240    1.0270    0.4090 C.ar    1  UNL1        0.0382
     24  C16        7.1160    1.1780    1.3310 C.ar    1  UNL1       -0.0496
     25  C17        8.4660    1.1530    0.9650 C.ar    1  UNL1       -0.0610
     26  C18        8.8160    0.9740   -0.3610 C.ar    1  UNL1       -0.0617
     27  C19        7.8210    0.8210   -1.3000 C.ar    1  UNL1       -0.0610
     28  C20        6.4820    0.8480   -0.9070 C.ar    1  UNL1       -0.0496
     29 H           4.3519   -0.6835   -0.3349 H       1  UNL1        0.1731
     30 H           2.1426   -0.0754    1.3235 H       1  UNL1        0.1731
     31 H           0.4600   -2.2384   -2.0663 H       1  UNL1        0.0625
     32 H          -1.8722   -2.7208   -2.2469 H       1  UNL1        0.0618
     33 H          -3.4774   -1.3989   -0.9925 H       1  UNL1        0.0637
     34 H          -4.1764   -0.8004    2.2423 H       1  UNL1        0.1737
     35 H          -5.2377   -0.0059   -1.0600 H       1  UNL1        0.0636
     36 H          -7.4372   -0.1174   -1.9484 H       1  UNL1        0.0618
     37 H          -9.3345   -0.4855   -0.4884 H       1  UNL1        0.0618
     38 H          -8.9151   -0.7234    1.8810 H       1  UNL1        0.0618
     39 H          -6.7113   -0.6084    2.7712 H       1  UNL1        0.0636
     40 H          -0.3797    0.8518    0.6089 H       1  UNL1        0.0645
     41 H           6.8654    1.3140    2.3228 H       1  UNL1        0.0625
     42 H           9.1988    1.2678    1.6825 H       1  UNL1        0.0618
     43 H           9.8087    0.9554   -0.6424 H       1  UNL1        0.0618
     44 H           8.0649    0.6865   -2.2937 H       1  UNL1        0.0618
     45 H           5.7445    0.7311   -1.6193 H       1  UNL1        0.0625
@<TRIPOS>BOND
     1     1     2    2
     2     2     3   am
     3     2    23    1
     4     3     4    1
     5     4     5   am
     6     5     6    2
     7     5     7    1
     8     7     8   ar
     9     7    22   ar
    10     8     9   ar
    11     9    10   ar
    12    10    11   ar
    13    11    12    1
    14    11    22   ar
    15    12    13    2
    16    12    14    2
    17    12    15    1
    18    15    16    1
    19    16    17   ar
    20    16    21   ar
    21    17    18   ar
    22    18    19   ar
    23    19    20   ar
    24    20    21   ar
    25    23    24   ar
    26    23    28   ar
    27    24    25   ar
    28    25    26   ar
    29    26    27   ar
    30    27    28   ar
    31     3    29    1
    32     4    30    1
    33     8    31    1
    34     9    32    1
    35    10    33    1
    36    15    34    1
    37    17    35    1
    38    18    36    1
    39    19    37    1
    40    20    38    1
    41    21    39    1
    42    22    40    1
    43    24    41    1
    44    25    42    1
    45    26    43    1
    46    27    44    1
    47    28    45    1
@<TRIPOS>MOLECULE
../data/bude_mols_rdkit_confs/molecule_76.pdb
 45 47 0 0 0
SMALL
GASTEIGER

@<TRIPOS>ATOM
      1  O1        -4.0390    1.3310    0.3340 O.2     1  UNL1       -0.2687
      2  C1        -4.0650    0.6320   -0.6900 C.2     1  UNL1        0.2601
      3  N1        -2.8380    0.1510   -1.2140 N.am    1  UNL1       -0.2301
      4  N2        -1.5820    0.4290   -0.6120 N.am    1  UNL1       -0.2301
      5  C2        -1.2690   -0.0610    0.6770 C.2     1  UNL1        0.2602
      6  O2        -2.1640   -0.7310    1.2480 O.2     1  UNL1       -0.2687
      7  C3         0.0280    0.1710    1.3580 C.ar    1  UNL1        0.0400
      8  C4         0.2710   -0.4120    2.5710 C.ar    1  UNL1       -0.0495
      9  C5         1.4720   -0.2450    3.1990 C.ar    1  UNL1       -0.0592
     10  C6         2.4480    0.5150    2.6070 C.ar    1  UNL1       -0.0350
     11  C7         2.2120    1.1120    1.3750 C.ar    1  UNL1        0.1092
     12  S1         3.5210    2.0270    0.6640 S.O2    1  UNL1        0.0724
     13  O3         2.9280    3.2600    0.0450 O.2     1  UNL1       -0.1500
     14  O4         4.4880    2.3780    1.7570 O.2     1  UNL1       -0.1500
     15  N3         4.3330    1.0670   -0.5310 N.pl3   1  UNL1       -0.2163
     16  C8         4.9550   -0.1300   -0.1530 C.ar    1  UNL1        0.0480
     17  C9         5.7930   -0.2500    0.9390 C.ar    1  UNL1       -0.0393
     18  C10        6.3890   -1.4270    1.2880 C.ar    1  UNL1       -0.0600
     19  C11        6.1550   -2.5360    0.5340 C.ar    1  UNL1       -0.0616
     20  C12        5.3250   -2.4910   -0.5760 C.ar    1  UNL1       -0.0600
     21  C13        4.7380   -1.2920   -0.9040 C.ar    1  UNL1       -0.0393
     22  C14        1.0000    0.9330    0.7630 C.ar    1  UNL1       -0.0229
     23  C15       -5.3510    0.3280   -1.3150 C.ar    1  UNL1        0.0382
     24  C16       -6.4930    0.8820   -0.8010 C.ar    1  UNL1       -0.0496
     25  C17       -7.7460    0.6250   -1.3460 C.ar    1  UNL1       -0.0610
     26  C18       -7.8560   -0.2020   -2.4240 C.ar    1  UNL1       -0.0617
     27  C19       -6.7090   -0.7770   -2.9650 C.ar    1  UNL1       -0.0610
     28  C20       -5.4810   -0.5020   -2.4010 C.ar    1  UNL1       -0.0496
     29 H          -2.8577   -0.3993   -2.0301 H       1  UNL1        0.1731
     30 H          -0.9198    0.9706   -1.0991 H       1  UNL1        0.1731
     31 H          -0.4622   -0.9851    3.0171 H       1  UNL1        0.0625
     32 H           1.6444   -0.6886    4.1147 H       1  UNL1        0.0618
     33 H           3.3579    0.6434    3.0767 H       1  UNL1        0.0637
     34 H           4.3566    1.3618   -1.4700 H       1  UNL1        0.1737
     35 H           5.9760    0.5863    1.5154 H       1  UNL1        0.0636
     36 H           7.0084   -1.4757    2.1120 H       1  UNL1        0.0618
     37 H           6.6043   -3.4281    0.7936 H       1  UNL1        0.0618
     38 H           5.1523   -3.3366   -1.1418 H       1  UNL1        0.0618
     39 H           4.1188   -1.2468   -1.7284 H       1  UNL1        0.0636
     40 H           0.8173    1.3745   -0.1517 H       1  UNL1        0.0645
     41 H          -6.4214    1.5091    0.0155 H       1  UNL1        0.0625
     42 H          -8.5885    1.0581   -0.9365 H       1  UNL1        0.0618
     43 H          -8.7814   -0.4002   -2.8356 H       1  UNL1        0.0618
     44 H          -6.7774   -1.4041   -3.7817 H       1  UNL1        0.0618
     45 H          -4.6354   -0.9324   -2.8069 H       1  UNL1        0.0625
@<TRIPOS>BOND
     1     1     2    2
     2     2     3   am
     3     2    23    1
     4     3     4    1
     5     4     5   am
     6     5     6    2
     7     5     7    1
     8     7     8   ar
     9     7    22   ar
    10     8     9   ar
    11     9    10   ar
    12    10    11   ar
    13    11    12    1
    14    11    22   ar
    15    12    13    2
    16    12    14    2
    17    12    15    1
    18    15    16    1
    19    16    17   ar
    20    16    21   ar
    21    17    18   ar
    22    18    19   ar
    23    19    20   ar
    24    20    21   ar
    25    23    24   ar
    26    23    28   ar
    27    24    25   ar
    28    25    26   ar
    29    26    27   ar
    30    27    28   ar
    31     3    29    1
    32     4    30    1
    33     8    31    1
    34     9    32    1
    35    10    33    1
    36    15    34    1
    37    17    35    1
    38    18    36    1
    39    19    37    1
    40    20    38    1
    41    21    39    1
    42    22    40    1
    43    24    41    1
    44    25    42    1
    45    26    43    1
    46    27    44    1
    47    28    45    1
@<TRIPOS>MOLECULE
../data/bude_mols_rdkit_confs/molecule_76.pdb
 45 47 0 0 0
SMALL
GASTEIGER

@<TRIPOS>ATOM
      1  O1        -3.2170   -1.8480   -0.5940 O.2     1  UNL1       -0.2687
      2  C1        -3.9890   -0.8520   -0.6400 C.2     1  UNL1        0.2601
      3  N1        -3.3740    0.4100   -0.6260 N.am    1  UNL1       -0.2301
      4  N2        -1.9830    0.6370   -0.5610 N.am    1  UNL1       -0.2301
      5  C2        -1.3650    1.3190    0.4970 C.2     1  UNL1        0.2602
      6  O2        -2.1320    1.7320    1.4140 O.2     1  UNL1       -0.2687
      7  C3         0.0520    1.5940    0.6400 C.ar    1  UNL1        0.0400
      8  C4         0.5470    2.0020    1.8630 C.ar    1  UNL1       -0.0495
      9  C5         1.8770    2.2970    2.1050 C.ar    1  UNL1       -0.0592
     10  C6         2.7530    2.1700    1.0400 C.ar    1  UNL1       -0.0350
     11  C7         2.3070    1.7690   -0.1930 C.ar    1  UNL1        0.1092
     12  S1         3.4510    1.6420   -1.4990 S.O2    1  UNL1        0.0724
     13  O3         4.5550    2.6500   -1.2120 O.2     1  UNL1       -0.1500
     14  O4         2.8550    2.0760   -2.8090 O.2     1  UNL1       -0.1500
     15  N3         4.1740    0.1070   -1.6000 N.pl3   1  UNL1       -0.2163
     16  C8         4.9630   -0.4630   -0.5730 C.ar    1  UNL1        0.0480
     17  C9         5.9070    0.2370    0.1410 C.ar    1  UNL1       -0.0393
     18  C10        6.6470   -0.3610    1.1420 C.ar    1  UNL1       -0.0600
     19  C11        6.4820   -1.6820    1.4780 C.ar    1  UNL1       -0.0616
     20  C12        5.5310   -2.4210    0.7710 C.ar    1  UNL1       -0.0600
     21  C13        4.8150   -1.7980   -0.2130 C.ar    1  UNL1       -0.0393
     22  C14        0.9690    1.4810   -0.4010 C.ar    1  UNL1       -0.0229
     23  C15       -5.4150   -1.1010   -0.7000 C.ar    1  UNL1        0.0382
     24  C16       -5.8790   -2.3880   -0.7280 C.ar    1  UNL1       -0.0496
     25  C17       -7.2170   -2.6570   -0.7800 C.ar    1  UNL1       -0.0610
     26  C18       -8.1190   -1.6330   -0.8030 C.ar    1  UNL1       -0.0617
     27  C19       -7.6690   -0.3290   -0.7760 C.ar    1  UNL1       -0.0610
     28  C20       -6.3080   -0.0630   -0.7240 C.ar    1  UNL1       -0.0496
     29 H          -3.9604    1.1999   -0.6646 H       1  UNL1        0.1731
     30 H          -1.4188    0.3002   -1.2941 H       1  UNL1        0.1731
     31 H          -0.1180    2.0927    2.6470 H       1  UNL1        0.0625
     32 H           2.2016    2.5981    3.0372 H       1  UNL1        0.0618
     33 H           3.7542    2.3798    1.1761 H       1  UNL1        0.0637
     34 H           4.0355   -0.4167   -2.4221 H       1  UNL1        0.1737
     35 H           6.0663    1.2332   -0.0764 H       1  UNL1        0.0636
     36 H           7.3450    0.2020    1.6528 H       1  UNL1        0.0618
     37 H           7.0426   -2.1148    2.2287 H       1  UNL1        0.0618
     38 H           5.3719   -3.4175    0.9870 H       1  UNL1        0.0618
     39 H           4.1153   -2.3580   -0.7247 H       1  UNL1        0.0636
     40 H           0.6491    1.1803   -1.3349 H       1  UNL1        0.0645
     41 H          -5.2055   -3.1697   -0.7095 H       1  UNL1        0.0625
     42 H          -7.5461   -3.6349   -0.8019 H       1  UNL1        0.0618
     43 H          -9.1308   -1.8327   -0.8403 H       1  UNL1        0.0618
     44 H          -8.3457    0.4499   -0.7945 H       1  UNL1        0.0618
     45 H          -5.9705    0.9120   -0.7035 H       1  UNL1        0.0625
@<TRIPOS>BOND
     1     1     2    2
     2     2     3   am
     3     2    23    1
     4     3     4    1
     5     4     5   am
     6     5     6    2
     7     5     7    1
     8     7     8   ar
     9     7    22   ar
    10     8     9   ar
    11     9    10   ar
    12    10    11   ar
    13    11    12    1
    14    11    22   ar
    15    12    13    2
    16    12    14    2
    17    12    15    1
    18    15    16    1
    19    16    17   ar
    20    16    21   ar
    21    17    18   ar
    22    18    19   ar
    23    19    20   ar
    24    20    21   ar
    25    23    24   ar
    26    23    28   ar
    27    24    25   ar
    28    25    26   ar
    29    26    27   ar
    30    27    28   ar
    31     3    29    1
    32     4    30    1
    33     8    31    1
    34     9    32    1
    35    10    33    1
    36    15    34    1
    37    17    35    1
    38    18    36    1
    39    19    37    1
    40    20    38    1
    41    21    39    1
    42    22    40    1
    43    24    41    1
    44    25    42    1
    45    26    43    1
    46    27    44    1
    47    28    45    1
@<TRIPOS>MOLECULE
../data/bude_mols_rdkit_confs/molecule_76.pdb
 45 47 0 0 0
SMALL
GASTEIGER

@<TRIPOS>ATOM
      1  O1        -3.5750    0.4330    1.6920 O.2     1  UNL1       -0.2687
      2  C1        -4.3730   -0.2120    0.9160 C.2     1  UNL1        0.2601
      3  N1        -3.7660   -1.3040    0.2440 N.am    1  UNL1       -0.2301
      4  N2        -2.4040   -1.5980    0.4490 N.am    1  UNL1       -0.2301
      5  C2        -1.4920   -0.6640   -0.1730 C.2     1  UNL1        0.2602
      6  O2        -1.9940    0.3060   -0.8380 O.2     1  UNL1       -0.2687
      7  C3        -0.0630   -0.7570   -0.0860 C.ar    1  UNL1        0.0400
      8  C4         0.5440   -1.6000    0.8380 C.ar    1  UNL1       -0.0495
      9  C5         1.9200   -1.5980    0.8640 C.ar    1  UNL1       -0.0592
     10  C6         2.6790   -0.8150    0.0340 C.ar    1  UNL1       -0.0350
     11  C7         2.0740    0.0150   -0.8780 C.ar    1  UNL1        0.1092
     12  S1         2.9270    1.0820   -1.9700 S.O2    1  UNL1        0.0724
     13  O3         2.1740    1.1590   -3.2970 O.2     1  UNL1       -0.1500
     14  O4         2.8760    2.4870   -1.4190 O.2     1  UNL1       -0.1500
     15  N3         4.5170    0.5140   -2.2220 N.pl3   1  UNL1       -0.2163
     16  C8         5.4980    0.3960   -1.2050 C.ar    1  UNL1        0.0480
     17  C9         6.3370   -0.6700   -1.0480 C.ar    1  UNL1       -0.0393
     18  C10        7.2980   -0.7350   -0.0560 C.ar    1  UNL1       -0.0600
     19  C11        7.4580    0.2930    0.8390 C.ar    1  UNL1       -0.0616
     20  C12        6.5990    1.3860    0.6780 C.ar    1  UNL1       -0.0600
     21  C13        5.6450    1.4610   -0.3000 C.ar    1  UNL1       -0.0393
     22  C14        0.6890    0.0250   -0.9180 C.ar    1  UNL1       -0.0229
     23  C15       -5.7560    0.1890    0.7800 C.ar    1  UNL1        0.0382
     24  C16       -6.3490    0.9560    1.7730 C.ar    1  UNL1       -0.0496
     25  C17       -7.6920    1.3570    1.6280 C.ar    1  UNL1       -0.0610
     26  C18       -8.3910    0.9960    0.5280 C.ar    1  UNL1       -0.0617
     27  C19       -7.8150    0.2380   -0.4610 C.ar    1  UNL1       -0.0610
     28  C20       -6.4950   -0.1580   -0.3190 C.ar    1  UNL1       -0.0496
     29 H          -4.2998   -1.8594   -0.3691 H       1  UNL1        0.1731
     30 H          -2.0985   -2.3742    0.9719 H       1  UNL1        0.1731
     31 H          -0.0093   -2.1971    1.4723 H       1  UNL1        0.0625
     32 H           2.4015   -2.2133    1.5383 H       1  UNL1        0.0618
     33 H           3.7087   -0.8491    0.0944 H       1  UNL1        0.0637
     34 H           4.7702    0.2503   -3.1361 H       1  UNL1        0.1737
     35 H           6.2496   -1.4646   -1.7006 H       1  UNL1        0.0636
     36 H           7.9033   -1.5680    0.0123 H       1  UNL1        0.0618
     37 H           8.1693    0.2619    1.5861 H       1  UNL1        0.0618
     38 H           6.6900    2.1786    1.3326 H       1  UNL1        0.0618
     39 H           5.0384    2.2928   -0.3724 H       1  UNL1        0.0636
     40 H           0.2115    0.6403   -1.5951 H       1  UNL1        0.0645
     41 H          -5.8112    1.2302    2.6100 H       1  UNL1        0.0625
     42 H          -8.1424    1.9264    2.3615 H       1  UNL1        0.0618
     43 H          -9.3738    1.2954    0.4305 H       1  UNL1        0.0618
     44 H          -8.3565   -0.0325   -1.2968 H       1  UNL1        0.0618
     45 H          -6.0581   -0.7285   -1.0597 H       1  UNL1        0.0625
@<TRIPOS>BOND
     1     1     2    2
     2     2     3   am
     3     2    23    1
     4     3     4    1
     5     4     5   am
     6     5     6    2
     7     5     7    1
     8     7     8   ar
     9     7    22   ar
    10     8     9   ar
    11     9    10   ar
    12    10    11   ar
    13    11    12    1
    14    11    22   ar
    15    12    13    2
    16    12    14    2
    17    12    15    1
    18    15    16    1
    19    16    17   ar
    20    16    21   ar
    21    17    18   ar
    22    18    19   ar
    23    19    20   ar
    24    20    21   ar
    25    23    24   ar
    26    23    28   ar
    27    24    25   ar
    28    25    26   ar
    29    26    27   ar
    30    27    28   ar
    31     3    29    1
    32     4    30    1
    33     8    31    1
    34     9    32    1
    35    10    33    1
    36    15    34    1
    37    17    35    1
    38    18    36    1
    39    19    37    1
    40    20    38    1
    41    21    39    1
    42    22    40    1
    43    24    41    1
    44    25    42    1
    45    26    43    1
    46    27    44    1
    47    28    45    1
@<TRIPOS>MOLECULE
../data/bude_mols_rdkit_confs/molecule_76.pdb
 45 47 0 0 0
SMALL
GASTEIGER

@<TRIPOS>ATOM
      1  O1        -3.9110    1.2680    1.0820 O.2     1  UNL1       -0.2687
      2  C1        -4.2700    0.1530    0.5570 C.2     1  UNL1        0.2601
      3  N1        -3.2330   -0.7760    0.3820 N.am    1  UNL1       -0.2301
      4  N2        -1.9020   -0.4850    0.7630 N.am    1  UNL1       -0.2301
      5  C2        -1.1710    0.4610   -0.0020 C.2     1  UNL1        0.2602
      6  O2        -1.7380    1.0060   -1.0060 O.2     1  UNL1       -0.2687
      7  C3         0.1860    0.8130    0.3340 C.ar    1  UNL1        0.0400
      8  C4         0.5730    0.8270    1.6540 C.ar    1  UNL1       -0.0495
      9  C5         1.8840    1.1610    2.0080 C.ar    1  UNL1       -0.0592
     10  C6         2.7790    1.4730    1.0140 C.ar    1  UNL1       -0.0350
     11  C7         2.3730    1.4510   -0.2970 C.ar    1  UNL1        0.1092
     12  S1         3.5910    1.8400   -1.5240 S.O2    1  UNL1        0.0724
     13  O3         4.6080    2.7820   -0.9640 O.2     1  UNL1       -0.1500
     14  O4         2.8990    2.4690   -2.6860 O.2     1  UNL1       -0.1500
     15  N3         4.3560    0.3690   -2.0220 N.pl3   1  UNL1       -0.2163
     16  C8         5.0800   -0.4350   -1.1100 C.ar    1  UNL1        0.0480
     17  C9         4.8830   -1.8000   -1.0590 C.ar    1  UNL1       -0.0393
     18  C10        5.5810   -2.6050   -0.1620 C.ar    1  UNL1       -0.0600
     19  C11        6.5060   -2.0410    0.7140 C.ar    1  UNL1       -0.0616
     20  C12        6.6990   -0.6730    0.6590 C.ar    1  UNL1       -0.0600
     21  C13        5.9910    0.1040   -0.2440 C.ar    1  UNL1       -0.0393
     22  C14        1.0760    1.1240   -0.6620 C.ar    1  UNL1       -0.0229
     23  C15       -5.6580   -0.0540    0.2020 C.ar    1  UNL1        0.0382
     24  C16       -6.5630    0.9590    0.4420 C.ar    1  UNL1       -0.0496
     25  C17       -7.8910    0.7790    0.1150 C.ar    1  UNL1       -0.0610
     26  C18       -8.3440   -0.3990   -0.4530 C.ar    1  UNL1       -0.0617
     27  C19       -7.4360   -1.4190   -0.6950 C.ar    1  UNL1       -0.0610
     28  C20       -6.0900   -1.2260   -0.3590 C.ar    1  UNL1       -0.0496
     29 H          -3.4370   -1.6530   -0.0162 H       1  UNL1        0.1731
     30 H          -1.4923   -0.9284    1.5407 H       1  UNL1        0.1731
     31 H          -0.1104    0.5888    2.3897 H       1  UNL1        0.0625
     32 H           2.1738    1.1728    2.9984 H       1  UNL1        0.0618
     33 H           3.7517    1.7227    1.2516 H       1  UNL1        0.0637
     34 H           4.2857    0.0851   -2.9621 H       1  UNL1        0.1737
     35 H           4.2020   -2.2348   -1.7011 H       1  UNL1        0.0636
     36 H           5.4124   -3.6230   -0.1462 H       1  UNL1        0.0618
     37 H           7.0307   -2.6260    1.3830 H       1  UNL1        0.0618
     38 H           7.3767   -0.2264    1.2964 H       1  UNL1        0.0618
     39 H           6.1566    1.1224   -0.2636 H       1  UNL1        0.0636
     40 H           0.7890    1.1149   -1.6532 H       1  UNL1        0.0645
     41 H          -6.2483    1.8467    0.8639 H       1  UNL1        0.0625
     42 H          -8.5627    1.5408    0.2982 H       1  UNL1        0.0618
     43 H          -9.3409   -0.5164   -0.6925 H       1  UNL1        0.0618
     44 H          -7.7477   -2.3078   -1.1168 H       1  UNL1        0.0618
     45 H          -5.4106   -1.9819   -0.5378 H       1  UNL1        0.0625
@<TRIPOS>BOND
     1     1     2    2
     2     2     3   am
     3     2    23    1
     4     3     4    1
     5     4     5   am
     6     5     6    2
     7     5     7    1
     8     7     8   ar
     9     7    22   ar
    10     8     9   ar
    11     9    10   ar
    12    10    11   ar
    13    11    12    1
    14    11    22   ar
    15    12    13    2
    16    12    14    2
    17    12    15    1
    18    15    16    1
    19    16    17   ar
    20    16    21   ar
    21    17    18   ar
    22    18    19   ar
    23    19    20   ar
    24    20    21   ar
    25    23    24   ar
    26    23    28   ar
    27    24    25   ar
    28    25    26   ar
    29    26    27   ar
    30    27    28   ar
    31     3    29    1
    32     4    30    1
    33     8    31    1
    34     9    32    1
    35    10    33    1
    36    15    34    1
    37    17    35    1
    38    18    36    1
    39    19    37    1
    40    20    38    1
    41    21    39    1
    42    22    40    1
    43    24    41    1
    44    25    42    1
    45    26    43    1
    46    27    44    1
    47    28    45    1
@<TRIPOS>MOLECULE
../data/bude_mols_rdkit_confs/molecule_76.pdb
 45 47 0 0 0
SMALL
GASTEIGER

@<TRIPOS>ATOM
      1  O1        -3.0000   -1.2290    1.0990 O.2     1  UNL1       -0.2687
      2  C1        -3.9330   -0.4210    0.8350 C.2     1  UNL1        0.2601
      3  N1        -3.5880    0.9010    0.5510 N.am    1  UNL1       -0.2301
      4  N2        -2.2590    1.3900    0.5410 N.am    1  UNL1       -0.2301
      5  C2        -1.3140    0.8940   -0.3710 C.2     1  UNL1        0.2602
      6  O2        -1.7230    0.0000   -1.1660 O.2     1  UNL1       -0.2687
      7  C3         0.0880    1.3540   -0.4410 C.ar    1  UNL1        0.0400
      8  C4         0.5930    2.3130    0.3720 C.ar    1  UNL1       -0.0495
      9  C5         1.9050    2.7290    0.2910 C.ar    1  UNL1       -0.0592
     10  C6         2.7160    2.1400   -0.6520 C.ar    1  UNL1       -0.0350
     11  C7         2.2280    1.1640   -1.4900 C.ar    1  UNL1        0.1092
     12  S1         3.2460    0.4140   -2.6840 S.O2    1  UNL1        0.0724
     13  O3         2.3740   -0.0100   -3.8420 O.2     1  UNL1       -0.1500
     14  O4         4.2140    1.4680   -3.1620 O.2     1  UNL1       -0.1500
     15  N3         4.0230   -0.9740   -2.0410 N.pl3   1  UNL1       -0.2163
     16  C8         4.9070   -0.8130   -0.9300 C.ar    1  UNL1        0.0480
     17  C9         5.8520    0.1840   -0.9170 C.ar    1  UNL1       -0.0393
     18  C10        6.6980    0.3180    0.1650 C.ar    1  UNL1       -0.0600
     19  C11        6.5790   -0.5560    1.2200 C.ar    1  UNL1       -0.0616
     20  C12        5.6310   -1.5640    1.2170 C.ar    1  UNL1       -0.0600
     21  C13        4.7850   -1.7040    0.1440 C.ar    1  UNL1       -0.0393
     22  C14        0.9140    0.7720   -1.3830 C.ar    1  UNL1       -0.0229
     23  C15       -5.2960   -0.8970    0.8390 C.ar    1  UNL1        0.0382
     24  C16       -5.5570   -2.2140    1.1310 C.ar    1  UNL1       -0.0496
     25  C17       -6.8680   -2.7070    1.1440 C.ar    1  UNL1       -0.0610
     26  C18       -7.9180   -1.8560    0.8580 C.ar    1  UNL1       -0.0617
     27  C19       -7.6700   -0.5410    0.5660 C.ar    1  UNL1       -0.0610
     28  C20       -6.3560   -0.0720    0.5590 C.ar    1  UNL1       -0.0496
     29 H          -4.3139    1.5332    0.3447 H       1  UNL1        0.1731
     30 H          -1.9940    2.0879    1.1829 H       1  UNL1        0.1731
     31 H          -0.0251    2.7466    1.0755 H       1  UNL1        0.0625
     32 H           2.2688    3.4618    0.9201 H       1  UNL1        0.0618
     33 H           3.7021    2.4339   -0.7315 H       1  UNL1        0.0637
     34 H           3.8629   -1.8641   -2.4300 H       1  UNL1        0.1737
     35 H           5.9292    0.8325   -1.7161 H       1  UNL1        0.0636
     36 H           7.4106    1.0643    0.1822 H       1  UNL1        0.0618
     37 H           7.2098   -0.4581    2.0308 H       1  UNL1        0.0618
     38 H           5.5598   -2.2092    2.0193 H       1  UNL1        0.0618
     39 H           4.0733   -2.4512    0.1293 H       1  UNL1        0.0636
     40 H           0.5436    0.0400   -2.0091 H       1  UNL1        0.0645
     41 H          -4.7736   -2.8510    1.3444 H       1  UNL1        0.0625
     42 H          -7.0482   -3.6987    1.3656 H       1  UNL1        0.0618
     43 H          -8.8872   -2.2104    0.8644 H       1  UNL1        0.0618
     44 H          -8.4507    0.0993    0.3524 H       1  UNL1        0.0618
     45 H          -6.1769    0.9200    0.3377 H       1  UNL1        0.0625
@<TRIPOS>BOND
     1     1     2    2
     2     2     3   am
     3     2    23    1
     4     3     4    1
     5     4     5   am
     6     5     6    2
     7     5     7    1
     8     7     8   ar
     9     7    22   ar
    10     8     9   ar
    11     9    10   ar
    12    10    11   ar
    13    11    12    1
    14    11    22   ar
    15    12    13    2
    16    12    14    2
    17    12    15    1
    18    15    16    1
    19    16    17   ar
    20    16    21   ar
    21    17    18   ar
    22    18    19   ar
    23    19    20   ar
    24    20    21   ar
    25    23    24   ar
    26    23    28   ar
    27    24    25   ar
    28    25    26   ar
    29    26    27   ar
    30    27    28   ar
    31     3    29    1
    32     4    30    1
    33     8    31    1
    34     9    32    1
    35    10    33    1
    36    15    34    1
    37    17    35    1
    38    18    36    1
    39    19    37    1
    40    20    38    1
    41    21    39    1
    42    22    40    1
    43    24    41    1
    44    25    42    1
    45    26    43    1
    46    27    44    1
    47    28    45    1
@<TRIPOS>MOLECULE
../data/bude_mols_rdkit_confs/molecule_76.pdb
 45 47 0 0 0
SMALL
GASTEIGER

@<TRIPOS>ATOM
      1  O1        -4.2080    1.9580   -0.1150 O.2     1  UNL1       -0.2687
      2  C1        -4.6080    0.7770   -0.2610 C.2     1  UNL1        0.2601
      3  N1        -3.7100   -0.1740   -0.7810 N.am    1  UNL1       -0.2301
      4  N2        -2.3850    0.0320   -1.1620 N.am    1  UNL1       -0.2301
      5  C2        -1.3020   -0.5350   -0.4700 C.2     1  UNL1        0.2602
      6  O2        -1.6390   -1.2450    0.5500 O.2     1  UNL1       -0.2687
      7  C3         0.1070   -0.4060   -0.7900 C.ar    1  UNL1        0.0400
      8  C4         0.6440    0.2920   -1.8410 C.ar    1  UNL1       -0.0495
      9  C5         1.9820    0.3520   -2.1310 C.ar    1  UNL1       -0.0592
     10  C6         2.8610   -0.3400   -1.3060 C.ar    1  UNL1       -0.0350
     11  C7         2.3990   -1.0460   -0.2530 C.ar    1  UNL1        0.1092
     12  S1         3.4940   -1.9450    0.7750 S.O2    1  UNL1        0.0724
     13  O3         4.3630   -2.8160   -0.0650 O.2     1  UNL1       -0.1500
     14  O4         2.6580   -2.8440    1.6660 O.2     1  UNL1       -0.1500
     15  N3         4.4880   -0.9140    1.7310 N.pl3   1  UNL1       -0.2163
     16  C8         5.4070   -0.0120    1.1400 C.ar    1  UNL1        0.0480
     17  C9         5.4700    1.3100    1.5200 C.ar    1  UNL1       -0.0393
     18  C10        6.3750    2.1640    0.9220 C.ar    1  UNL1       -0.0600
     19  C11        7.2350    1.7380   -0.0570 C.ar    1  UNL1       -0.0616
     20  C12        7.1750    0.4170   -0.4410 C.ar    1  UNL1       -0.0600
     21  C13        6.2710   -0.4510    0.1510 C.ar    1  UNL1       -0.0393
     22  C14        1.0260   -1.0770    0.0020 C.ar    1  UNL1       -0.0229
     23  C15       -5.9780    0.4330    0.1160 C.ar    1  UNL1        0.0382
     24  C16       -6.6360    1.2180    1.0200 C.ar    1  UNL1       -0.0496
     25  C17       -7.9340    0.8850    1.4000 C.ar    1  UNL1       -0.0610
     26  C18       -8.6010   -0.2180    0.8970 C.ar    1  UNL1       -0.0617
     27  C19       -7.9120   -0.9870   -0.0120 C.ar    1  UNL1       -0.0610
     28  C20       -6.6320   -0.6770   -0.3990 C.ar    1  UNL1       -0.0496
     29 H          -4.0573   -1.0890   -0.8878 H       1  UNL1        0.1731
     30 H          -2.2010    0.5971   -1.9469 H       1  UNL1        0.1731
     31 H          -0.0044    0.8079   -2.4562 H       1  UNL1        0.0625
     32 H           2.3268    0.8949   -2.9381 H       1  UNL1        0.0618
     33 H           3.8742   -0.3136   -1.5002 H       1  UNL1        0.0637
     34 H           4.4160   -0.9522    2.7121 H       1  UNL1        0.1737
     35 H           4.8380    1.6640    2.2550 H       1  UNL1        0.0636
     36 H           6.4050    3.1514    1.2205 H       1  UNL1        0.0618
     37 H           7.9074    2.3881   -0.4932 H       1  UNL1        0.0618
     38 H           7.8096    0.0697   -1.1770 H       1  UNL1        0.0618
     39 H           6.2414   -1.4379   -0.1494 H       1  UNL1        0.0636
     40 H           0.6829   -1.6196    0.8100 H       1  UNL1        0.0645
     41 H          -6.1750    2.0511    1.4182 H       1  UNL1        0.0625
     42 H          -8.4183    1.4859    2.0851 H       1  UNL1        0.0618
     43 H          -9.5633   -0.4511    1.1880 H       1  UNL1        0.0618
     44 H          -8.3700   -1.8198   -0.4140 H       1  UNL1        0.0618
     45 H          -6.1485   -1.2790   -1.0838 H       1  UNL1        0.0625
@<TRIPOS>BOND
     1     1     2    2
     2     2     3   am
     3     2    23    1
     4     3     4    1
     5     4     5   am
     6     5     6    2
     7     5     7    1
     8     7     8   ar
     9     7    22   ar
    10     8     9   ar
    11     9    10   ar
    12    10    11   ar
    13    11    12    1
    14    11    22   ar
    15    12    13    2
    16    12    14    2
    17    12    15    1
    18    15    16    1
    19    16    17   ar
    20    16    21   ar
    21    17    18   ar
    22    18    19   ar
    23    19    20   ar
    24    20    21   ar
    25    23    24   ar
    26    23    28   ar
    27    24    25   ar
    28    25    26   ar
    29    26    27   ar
    30    27    28   ar
    31     3    29    1
    32     4    30    1
    33     8    31    1
    34     9    32    1
    35    10    33    1
    36    15    34    1
    37    17    35    1
    38    18    36    1
    39    19    37    1
    40    20    38    1
    41    21    39    1
    42    22    40    1
    43    24    41    1
    44    25    42    1
    45    26    43    1
    46    27    44    1
    47    28    45    1
@<TRIPOS>MOLECULE
../data/bude_mols_rdkit_confs/molecule_76.pdb
 45 47 0 0 0
SMALL
GASTEIGER

@<TRIPOS>ATOM
      1  O1         3.0670    1.1260   -0.7930 O.2     1  UNL1       -0.2687
      2  C1         3.9410    0.4930   -0.1380 C.2     1  UNL1        0.2601
      3  N1         3.4890   -0.4370    0.8120 N.am    1  UNL1       -0.2301
      4  N2         2.1210   -0.6710    1.0500 N.am    1  UNL1       -0.2301
      5  C2         1.2390   -1.2940    0.1380 C.2     1  UNL1        0.2602
      6  O2         1.7060   -1.6750   -0.9550 O.2     1  UNL1       -0.2687
      7  C3        -0.1720   -1.5090    0.4140 C.ar    1  UNL1        0.0400
      8  C4        -0.8080   -2.6840    0.1050 C.ar    1  UNL1       -0.0495
      9  C5        -2.1710   -2.8640    0.3710 C.ar    1  UNL1       -0.0592
     10  C6        -2.8630   -1.8080    0.9610 C.ar    1  UNL1       -0.0350
     11  C7        -2.2640   -0.6230    1.2810 C.ar    1  UNL1        0.1092
     12  S1        -3.2260    0.6460    1.9860 S.O2    1  UNL1        0.0724
     13  O3        -4.2350    0.1110    2.9370 O.2     1  UNL1       -0.1500
     14  O4        -2.2710    1.5340    2.7680 O.2     1  UNL1       -0.1500
     15  N3        -3.9140    1.6560    0.7730 N.pl3   1  UNL1       -0.2163
     16  C8        -4.8050    1.0530   -0.1540 C.ar    1  UNL1        0.0480
     17  C9        -4.6570    1.2940   -1.5220 C.ar    1  UNL1       -0.0393
     18  C10       -5.4880    0.7200   -2.4590 C.ar    1  UNL1       -0.0600
     19  C11       -6.5140   -0.1280   -2.0660 C.ar    1  UNL1       -0.0616
     20  C12       -6.6670   -0.3710   -0.7080 C.ar    1  UNL1       -0.0600
     21  C13       -5.8340    0.2050    0.2130 C.ar    1  UNL1       -0.0393
     22  C14       -0.9190   -0.4810    1.0060 C.ar    1  UNL1       -0.0229
     23  C15        5.3440    0.7430   -0.3820 C.ar    1  UNL1        0.0382
     24  C16        5.7130    1.6040   -1.4260 C.ar    1  UNL1       -0.0496
     25  C17        7.0390    1.8780   -1.6850 C.ar    1  UNL1       -0.0610
     26  C18        8.0530    1.3180   -0.9310 C.ar    1  UNL1       -0.0617
     27  C19        7.7050    0.4800    0.0860 C.ar    1  UNL1       -0.0610
     28  C20        6.3670    0.2000    0.3520 C.ar    1  UNL1       -0.0496
     29 H           4.1537   -0.9447    1.3313 H       1  UNL1        0.1731
     30 H           1.7519   -0.3793    1.9148 H       1  UNL1        0.1731
     31 H          -0.2720   -3.4501   -0.3318 H       1  UNL1        0.0625
     32 H          -2.6473   -3.7493    0.1378 H       1  UNL1        0.0618
     33 H          -3.8679   -1.9261    1.1642 H       1  UNL1        0.0637
     34 H          -3.6979    2.6152    0.7239 H       1  UNL1        0.1737
     35 H          -3.9020    1.9213   -1.8405 H       1  UNL1        0.0636
     36 H          -5.3465    0.9222   -3.4611 H       1  UNL1        0.0618
     37 H          -7.1418   -0.5631   -2.7599 H       1  UNL1        0.0618
     38 H          -7.4221   -0.9970   -0.3870 H       1  UNL1        0.0618
     39 H          -5.9786   -0.0003    1.2140 H       1  UNL1        0.0636
     40 H          -0.4499    0.4072    1.2429 H       1  UNL1        0.0645
     41 H           4.9809    2.0389   -2.0090 H       1  UNL1        0.0625
     42 H           7.2801    2.5159   -2.4596 H       1  UNL1        0.0618
     43 H           9.0432    1.5279   -1.1319 H       1  UNL1        0.0618
     44 H           8.4415    0.0480    0.6656 H       1  UNL1        0.0618
     45 H           6.1373   -0.4389    1.1292 H       1  UNL1        0.0625
@<TRIPOS>BOND
     1     1     2    2
     2     2     3   am
     3     2    23    1
     4     3     4    1
     5     4     5   am
     6     5     6    2
     7     5     7    1
     8     7     8   ar
     9     7    22   ar
    10     8     9   ar
    11     9    10   ar
    12    10    11   ar
    13    11    12    1
    14    11    22   ar
    15    12    13    2
    16    12    14    2
    17    12    15    1
    18    15    16    1
    19    16    17   ar
    20    16    21   ar
    21    17    18   ar
    22    18    19   ar
    23    19    20   ar
    24    20    21   ar
    25    23    24   ar
    26    23    28   ar
    27    24    25   ar
    28    25    26   ar
    29    26    27   ar
    30    27    28   ar
    31     3    29    1
    32     4    30    1
    33     8    31    1
    34     9    32    1
    35    10    33    1
    36    15    34    1
    37    17    35    1
    38    18    36    1
    39    19    37    1
    40    20    38    1
    41    21    39    1
    42    22    40    1
    43    24    41    1
    44    25    42    1
    45    26    43    1
    46    27    44    1
    47    28    45    1
@<TRIPOS>MOLECULE
../data/bude_mols_rdkit_confs/molecule_76.pdb
 45 47 0 0 0
SMALL
GASTEIGER

@<TRIPOS>ATOM
      1  O1         3.7600   -0.8250    0.9840 O.2     1  UNL1       -0.2687
      2  C1         4.3410    0.1350    0.4050 C.2     1  UNL1        0.2601
      3  N1         3.5390    1.3150    0.2140 N.am    1  UNL1       -0.2301
      4  N2         2.2160    1.3540    0.6630 N.am    1  UNL1       -0.2301
      5  C2         1.2810    0.4850    0.0650 C.2     1  UNL1        0.2602
      6  O2         1.6320   -0.2920   -0.8560 O.2     1  UNL1       -0.2687
      7  C3        -0.0950    0.4690    0.5020 C.ar    1  UNL1        0.0400
      8  C4        -0.6130    1.5590    1.1540 C.ar    1  UNL1       -0.0495
      9  C5        -1.9230    1.5490    1.6350 C.ar    1  UNL1       -0.0592
     10  C6        -2.6860    0.4190    1.4370 C.ar    1  UNL1       -0.0350
     11  C7        -2.1520   -0.6640    0.7790 C.ar    1  UNL1        0.1092
     12  S1        -3.1090   -2.1130    0.5750 S.O2    1  UNL1        0.0724
     13  O3        -2.7980   -2.7800   -0.7430 O.2     1  UNL1       -0.1500
     14  O4        -2.6600   -3.0990    1.6360 O.2     1  UNL1       -0.1500
     15  N3        -4.7820   -1.8020    0.7090 N.pl3   1  UNL1       -0.2163
     16  C8        -5.4630   -0.9310   -0.1670 C.ar    1  UNL1        0.0480
     17  C9        -6.3490    0.0040    0.3840 C.ar    1  UNL1       -0.0393
     18  C10       -7.0610    0.8900   -0.3660 C.ar    1  UNL1       -0.0600
     19  C11       -6.9050    0.8720   -1.7620 C.ar    1  UNL1       -0.0616
     20  C12       -6.0400   -0.0380   -2.3210 C.ar    1  UNL1       -0.0600
     21  C13       -5.3390   -0.9170   -1.5240 C.ar    1  UNL1       -0.0393
     22  C14       -0.8650   -0.6720    0.2990 C.ar    1  UNL1       -0.0229
     23  C15        5.7200    0.0110   -0.0160 C.ar    1  UNL1        0.0382
     24  C16        6.4170    1.0340   -0.6080 C.ar    1  UNL1       -0.0496
     25  C17        7.7320    0.8860   -0.9890 C.ar    1  UNL1       -0.0610
     26  C18        8.3810   -0.3130   -0.7790 C.ar    1  UNL1       -0.0617
     27  C19        7.7080   -1.3590   -0.1880 C.ar    1  UNL1       -0.0610
     28  C20        6.3980   -1.1780    0.1800 C.ar    1  UNL1       -0.0496
     29 H           3.9254    2.1006   -0.2364 H       1  UNL1        0.1731
     30 H           1.9440    1.9727    1.3788 H       1  UNL1        0.1731
     31 H          -0.0265    2.3971    1.2906 H       1  UNL1        0.0625
     32 H          -2.3111    2.3687    2.1274 H       1  UNL1        0.0618
     33 H          -3.6579    0.3854    1.7824 H       1  UNL1        0.0637
     34 H          -5.2908   -2.2473    1.4246 H       1  UNL1        0.1737
     35 H          -6.4679    0.0222    1.4090 H       1  UNL1        0.0636
     36 H          -7.7030    1.5619    0.0827 H       1  UNL1        0.0618
     37 H          -7.4308    1.5307   -2.3575 H       1  UNL1        0.0618
     38 H          -5.9145   -0.0633   -3.3450 H       1  UNL1        0.0618
     39 H          -4.6965   -1.5894   -1.9713 H       1  UNL1        0.0636
     40 H          -0.4832   -1.4942   -0.1941 H       1  UNL1        0.0645
     41 H           5.9441    1.9365   -0.7717 H       1  UNL1        0.0625
     42 H           8.2322    1.6725   -1.4319 H       1  UNL1        0.0618
     43 H           9.3666   -0.4256   -1.0636 H       1  UNL1        0.0618
     44 H           8.1798   -2.2622   -0.0248 H       1  UNL1        0.0618
     45 H           5.8970   -1.9642    0.6226 H       1  UNL1        0.0625
@<TRIPOS>BOND
     1     1     2    2
     2     2     3   am
     3     2    23    1
     4     3     4    1
     5     4     5   am
     6     5     6    2
     7     5     7    1
     8     7     8   ar
     9     7    22   ar
    10     8     9   ar
    11     9    10   ar
    12    10    11   ar
    13    11    12    1
    14    11    22   ar
    15    12    13    2
    16    12    14    2
    17    12    15    1
    18    15    16    1
    19    16    17   ar
    20    16    21   ar
    21    17    18   ar
    22    18    19   ar
    23    19    20   ar
    24    20    21   ar
    25    23    24   ar
    26    23    28   ar
    27    24    25   ar
    28    25    26   ar
    29    26    27   ar
    30    27    28   ar
    31     3    29    1
    32     4    30    1
    33     8    31    1
    34     9    32    1
    35    10    33    1
    36    15    34    1
    37    17    35    1
    38    18    36    1
    39    19    37    1
    40    20    38    1
    41    21    39    1
    42    22    40    1
    43    24    41    1
    44    25    42    1
    45    26    43    1
    46    27    44    1
    47    28    45    1
@<TRIPOS>MOLECULE
../data/bude_mols_rdkit_confs/molecule_76.pdb
 45 47 0 0 0
SMALL
GASTEIGER

@<TRIPOS>ATOM
      1  O1         3.9160    1.8450    0.0750 O.2     1  UNL1       -0.2687
      2  C1         4.5020    0.7260    0.2790 C.2     1  UNL1        0.2601
      3  N1         3.6480   -0.2850    0.8080 N.am    1  UNL1       -0.2301
      4  N2         2.3000   -0.1220    1.1060 N.am    1  UNL1       -0.2301
      5  C2         1.2020   -0.7520    0.5030 C.2     1  UNL1        0.2602
      6  O2         1.4730   -1.5670   -0.4300 O.2     1  UNL1       -0.2687
      7  C3        -0.2010   -0.5120    0.8980 C.ar    1  UNL1        0.0400
      8  C4        -0.5650    0.5210    1.7290 C.ar    1  UNL1       -0.0495
      9  C5        -1.8600    0.7580    2.1550 C.ar    1  UNL1       -0.0592
     10  C6        -2.8190   -0.1010    1.7100 C.ar    1  UNL1       -0.0350
     11  C7        -2.5020   -1.1510    0.8750 C.ar    1  UNL1        0.1092
     12  S1        -3.7990   -2.2420    0.4310 S.O2    1  UNL1        0.0724
     13  O3        -3.8030   -3.3550    1.4730 O.2     1  UNL1       -0.1500
     14  O4        -3.4780   -2.9210   -0.8910 O.2     1  UNL1       -0.1500
     15  N3        -5.2860   -1.4490    0.3780 N.pl3   1  UNL1       -0.2163
     16  C8        -5.6340   -0.3850   -0.4760 C.ar    1  UNL1        0.0480
     17  C9        -6.2810    0.7140    0.1210 C.ar    1  UNL1       -0.0393
     18  C10       -6.6880    1.7960   -0.6320 C.ar    1  UNL1       -0.0600
     19  C11       -6.4710    1.8290   -1.9860 C.ar    1  UNL1       -0.0616
     20  C12       -5.8380    0.7670   -2.5920 C.ar    1  UNL1       -0.0600
     21  C13       -5.4320   -0.3180   -1.8270 C.ar    1  UNL1       -0.0393
     22  C14       -1.2130   -1.3640    0.4660 C.ar    1  UNL1       -0.0229
     23  C15        5.8960    0.5280   -0.0030 C.ar    1  UNL1        0.0382
     24  C16        6.4300    0.9950   -1.1820 C.ar    1  UNL1       -0.0496
     25  C17        7.7810    0.8340   -1.4480 C.ar    1  UNL1       -0.0610
     26  C18        8.6500    0.2000   -0.5460 C.ar    1  UNL1       -0.0617
     27  C19        8.0920   -0.2600    0.6270 C.ar    1  UNL1       -0.0610
     28  C20        6.7630   -0.1030    0.8940 C.ar    1  UNL1       -0.0496
     29 H           4.0448   -1.1702    0.9759 H       1  UNL1        0.1731
     30 H           2.0908    0.5132    1.8285 H       1  UNL1        0.1731
     31 H           0.1755    1.1610    2.0562 H       1  UNL1        0.0625
     32 H          -2.0882    1.5472    2.7795 H       1  UNL1        0.0618
     33 H          -3.7990    0.0366    2.0028 H       1  UNL1        0.0637
     34 H          -5.9782   -1.7602    1.0051 H       1  UNL1        0.1737
     35 H          -6.4536    0.7100    1.1385 H       1  UNL1        0.0636
     36 H          -7.1609    2.5893   -0.1715 H       1  UNL1        0.0618
     37 H          -6.7787    2.6407   -2.5442 H       1  UNL1        0.0618
     38 H          -5.6663    0.7775   -3.6096 H       1  UNL1        0.0618
     39 H          -4.9587   -1.1057   -2.2966 H       1  UNL1        0.0636
     40 H          -0.9925   -2.1538   -0.1606 H       1  UNL1        0.0645
     41 H           5.8229    1.4666   -1.8705 H       1  UNL1        0.0625
     42 H           8.1604    1.1920   -2.3385 H       1  UNL1        0.0618
     43 H           9.6548    0.0844   -0.7508 H       1  UNL1        0.0618
     44 H           8.6929   -0.7340    1.3193 H       1  UNL1        0.0618
     45 H           6.3863   -0.4611    1.7856 H       1  UNL1        0.0625
@<TRIPOS>BOND
     1     1     2    2
     2     2     3   am
     3     2    23    1
     4     3     4    1
     5     4     5   am
     6     5     6    2
     7     5     7    1
     8     7     8   ar
     9     7    22   ar
    10     8     9   ar
    11     9    10   ar
    12    10    11   ar
    13    11    12    1
    14    11    22   ar
    15    12    13    2
    16    12    14    2
    17    12    15    1
    18    15    16    1
    19    16    17   ar
    20    16    21   ar
    21    17    18   ar
    22    18    19   ar
    23    19    20   ar
    24    20    21   ar
    25    23    24   ar
    26    23    28   ar
    27    24    25   ar
    28    25    26   ar
    29    26    27   ar
    30    27    28   ar
    31     3    29    1
    32     4    30    1
    33     8    31    1
    34     9    32    1
    35    10    33    1
    36    15    34    1
    37    17    35    1
    38    18    36    1
    39    19    37    1
    40    20    38    1
    41    21    39    1
    42    22    40    1
    43    24    41    1
    44    25    42    1
    45    26    43    1
    46    27    44    1
    47    28    45    1
@<TRIPOS>MOLECULE
../data/bude_mols_rdkit_confs/molecule_76.pdb
 45 47 0 0 0
SMALL
GASTEIGER

@<TRIPOS>ATOM
      1  O1        -3.0730    1.0440   -0.8390 O.2     1  UNL1       -0.2687
      2  C1        -3.8650    0.5910    0.0160 C.2     1  UNL1        0.2601
      3  N1        -3.3120   -0.2300    1.0290 N.am    1  UNL1       -0.2301
      4  N2        -1.9230   -0.5220    1.0670 N.am    1  UNL1       -0.2301
      5  C2        -1.3550   -1.1850   -0.0390 C.2     1  UNL1        0.2602
      6  O2        -2.0760   -1.4990   -1.0160 O.2     1  UNL1       -0.2687
      7  C3         0.0570   -1.5210   -0.0810 C.ar    1  UNL1        0.0400
      8  C4         0.5680   -2.1800   -1.1970 C.ar    1  UNL1       -0.0495
      9  C5         1.8990   -2.5040   -1.2540 C.ar    1  UNL1       -0.0592
     10  C6         2.7840   -2.2070   -0.2400 C.ar    1  UNL1       -0.0350
     11  C7         2.2500   -1.5560    0.8520 C.ar    1  UNL1        0.1092
     12  S1         3.3070   -1.1430    2.1810 S.O2    1  UNL1        0.0724
     13  O3         2.5040   -1.1430    3.4770 O.2     1  UNL1       -0.1500
     14  O4         4.3760   -2.1780    2.3720 O.2     1  UNL1       -0.1500
     15  N3         4.0060    0.4190    1.9680 N.pl3   1  UNL1       -0.2163
     16  C8         4.8360    0.6510    0.8400 C.ar    1  UNL1        0.0480
     17  C9         5.8200   -0.2140    0.4230 C.ar    1  UNL1       -0.0393
     18  C10        6.6160    0.0250   -0.6700 C.ar    1  UNL1       -0.0600
     19  C11        6.4470    1.1680   -1.4020 C.ar    1  UNL1       -0.0616
     20  C12        5.4590    2.0510   -0.9950 C.ar    1  UNL1       -0.0600
     21  C13        4.6580    1.8180    0.0990 C.ar    1  UNL1       -0.0393
     22  C14        0.9290   -1.2170    0.9420 C.ar    1  UNL1       -0.0229
     23  C15       -5.2820    0.9300   -0.0810 C.ar    1  UNL1        0.0382
     24  C16       -5.7380    1.7410   -1.1030 C.ar    1  UNL1       -0.0496
     25  C17       -7.0560    2.0930   -1.2450 C.ar    1  UNL1       -0.0610
     26  C18       -8.0050    1.6410   -0.3530 C.ar    1  UNL1       -0.0617
     27  C19       -7.5790    0.8300    0.6770 C.ar    1  UNL1       -0.0610
     28  C20       -6.2320    0.4790    0.8100 C.ar    1  UNL1       -0.0496
     29 H          -3.9028   -0.6059    1.7210 H       1  UNL1        0.1731
     30 H          -1.3730   -0.2687    1.8432 H       1  UNL1        0.1731
     31 H          -0.0560   -2.4246   -1.9817 H       1  UNL1        0.0625
     32 H           2.2533   -2.9911   -2.0920 H       1  UNL1        0.0618
     33 H           3.7839   -2.4563   -0.2946 H       1  UNL1        0.0637
     34 H           3.8323    1.1379    2.6179 H       1  UNL1        0.1737
     35 H           5.9674   -1.0847    0.9571 H       1  UNL1        0.0636
     36 H           7.3417   -0.6577   -0.9391 H       1  UNL1        0.0618
     37 H           7.0339    1.3659   -2.2275 H       1  UNL1        0.0618
     38 H           5.3185    2.9191   -1.5350 H       1  UNL1        0.0618
     39 H           3.9324    2.5006    0.3684 H       1  UNL1        0.0636
     40 H           0.5818   -0.7295    1.7827 H       1  UNL1        0.0645
     41 H          -5.0560    2.0979   -1.7904 H       1  UNL1        0.0625
     42 H          -7.3403    2.7026   -2.0277 H       1  UNL1        0.0618
     43 H          -8.9988    1.9005   -0.4528 H       1  UNL1        0.0618
     44 H          -8.2656    0.4760    1.3613 H       1  UNL1        0.0618
     45 H          -5.9432   -0.1302    1.5913 H       1  UNL1        0.0625
@<TRIPOS>BOND
     1     1     2    2
     2     2     3   am
     3     2    23    1
     4     3     4    1
     5     4     5   am
     6     5     6    2
     7     5     7    1
     8     7     8   ar
     9     7    22   ar
    10     8     9   ar
    11     9    10   ar
    12    10    11   ar
    13    11    12    1
    14    11    22   ar
    15    12    13    2
    16    12    14    2
    17    12    15    1
    18    15    16    1
    19    16    17   ar
    20    16    21   ar
    21    17    18   ar
    22    18    19   ar
    23    19    20   ar
    24    20    21   ar
    25    23    24   ar
    26    23    28   ar
    27    24    25   ar
    28    25    26   ar
    29    26    27   ar
    30    27    28   ar
    31     3    29    1
    32     4    30    1
    33     8    31    1
    34     9    32    1
    35    10    33    1
    36    15    34    1
    37    17    35    1
    38    18    36    1
    39    19    37    1
    40    20    38    1
    41    21    39    1
    42    22    40    1
    43    24    41    1
    44    25    42    1
    45    26    43    1
    46    27    44    1
    47    28    45    1
