@<TRIPOS>MOLECULE
../data/bude_mols_rdkit_confs/molecule_84.pdb
 36 37 0 0 0
SMALL
GASTEIGER

@<TRIPOS>ATOM
      1  C1        -4.4940   -0.0210   -0.4070 C.3     1  UNL1        0.0098
      2  N1        -3.1280    0.4450   -0.3210 N.am    1  UNL1       -0.2587
      3  C2        -2.8510    1.7770   -0.7200 C.2     1  UNL1        0.3037
      4  N2        -3.8400    2.6770   -1.1860 N.am    1  UNL1       -0.3129
      5  O1        -1.6660    2.1780   -0.6560 O.2     1  UNL1       -0.2525
      6  C3        -2.0900   -0.4220    0.1570 C.ar    1  UNL1        0.0392
      7  C4        -2.1470   -0.8190    1.4900 C.ar    1  UNL1       -0.0401
      8  C5        -1.1980   -1.6390    2.0470 C.ar    1  UNL1       -0.0582
      9  C6        -0.1720   -2.0600    1.2240 C.ar    1  UNL1       -0.0392
     10  C7        -0.0630   -1.6990   -0.1050 C.ar    1  UNL1        0.0498
     11  N3         1.0110   -2.1660   -0.9040 N.pl3   1  UNL1       -0.2160
     12  S1         2.6490   -2.0840   -0.3700 S.O2    1  UNL1        0.0780
     13  O2         2.8070   -2.7930    0.9430 O.2     1  UNL1       -0.1498
     14  O3         3.5750   -2.7630   -1.3370 O.2     1  UNL1       -0.1498
     15  C8         3.1260   -0.4090   -0.1050 C.ar    1  UNL1        0.1843
     16  C9         3.6890    0.3360   -1.1420 C.ar    1  UNL1        0.1907
     17  F1         3.8700   -0.2420   -2.3560 F       1  UNL1       -0.2002
     18  C10        4.0640    1.6540   -0.9500 C.ar    1  UNL1        0.1983
     19  F2         4.6090    2.3650   -1.9640 F       1  UNL1       -0.1993
     20  C11        3.8870    2.2580    0.2740 C.ar    1  UNL1        0.1992
     21  F3         4.2420    3.5400    0.4930 F       1  UNL1       -0.1993
     22  C12        3.3320    1.5480    1.3230 C.ar    1  UNL1        0.1983
     23  F4         3.1540    2.1430    2.5400 F       1  UNL1       -0.1993
     24  C13        2.9680    0.2340    1.1010 C.ar    1  UNL1        0.1907
     25  F5         2.4260   -0.4410    2.1510 F       1  UNL1       -0.2002
     26  C14       -1.0560   -0.8610   -0.6300 C.ar    1  UNL1       -0.0178
     27 H          -5.1157    0.7644   -0.7832 H       1  UNL1        0.0433
     28 H          -4.8340   -0.3103    0.5654 H       1  UNL1        0.0433
     29 H          -4.5431   -0.8619   -1.0668 H       1  UNL1        0.0433
     30 H          -4.7792    2.3881   -1.2464 H       1  UNL1        0.1465
     31 H          -3.5884    3.5916   -1.4496 H       1  UNL1        0.1465
     32 H          -2.9273   -0.4863    2.0777 H       1  UNL1        0.0636
     33 H          -1.2488   -1.9281    3.0364 H       1  UNL1        0.0619
     34 H           0.5522   -2.6774    1.6232 H       1  UNL1        0.0636
     35 H           0.8161   -2.5485   -1.7900 H       1  UNL1        0.1737
     36 H          -1.0088   -0.5711   -1.6193 H       1  UNL1        0.0655
@<TRIPOS>BOND
     1     1     2    1
     2     2     3   am
     3     2     6    1
     4     3     4   am
     5     3     5    2
     6     6     7   ar
     7     6    26   ar
     8     7     8   ar
     9     8     9   ar
    10     9    10   ar
    11    10    11    1
    12    10    26   ar
    13    11    12    1
    14    12    13    2
    15    12    14    2
    16    12    15    1
    17    15    16   ar
    18    15    24   ar
    19    16    17    1
    20    16    18   ar
    21    18    19    1
    22    18    20   ar
    23    20    21    1
    24    20    22   ar
    25    22    23    1
    26    22    24   ar
    27    24    25    1
    28     1    27    1
    29     1    28    1
    30     1    29    1
    31     4    30    1
    32     4    31    1
    33     7    32    1
    34     8    33    1
    35     9    34    1
    36    11    35    1
    37    26    36    1
@<TRIPOS>MOLECULE
../data/bude_mols_rdkit_confs/molecule_84.pdb
 36 37 0 0 0
SMALL
GASTEIGER

@<TRIPOS>ATOM
      1  C1         4.5220   -1.1760   -1.1820 C.3     1  UNL1        0.0098
      2  N1         3.9610    0.0160   -0.6180 N.am    1  UNL1       -0.2587
      3  C2         4.6920    1.2110   -0.6310 C.2     1  UNL1        0.3037
      4  N2         5.9970    1.3650   -1.1790 N.am    1  UNL1       -0.3129
      5  O1         4.1870    2.2450   -0.1310 O.2     1  UNL1       -0.2525
      6  C3         2.6690   -0.0180   -0.0490 C.ar    1  UNL1        0.0392
      7  C4         2.6040    0.0640    1.3320 C.ar    1  UNL1       -0.0401
      8  C5         1.4030    0.0510    2.0000 C.ar    1  UNL1       -0.0582
      9  C6         0.2480   -0.0490    1.2330 C.ar    1  UNL1       -0.0392
     10  C7         0.2490   -0.1340   -0.1430 C.ar    1  UNL1        0.0498
     11  N3        -0.9120   -0.2310   -0.9360 N.pl3   1  UNL1       -0.2160
     12  S1        -2.1930   -1.2710   -0.5310 S.O2    1  UNL1        0.0780
     13  O2        -1.8130   -2.0620    0.7170 O.2     1  UNL1       -0.1498
     14  O3        -2.4990   -2.2280   -1.6590 O.2     1  UNL1       -0.1498
     15  C8        -3.6790   -0.4470   -0.1340 C.ar    1  UNL1        0.1843
     16  C9        -4.5170   -0.1160   -1.1790 C.ar    1  UNL1        0.1907
     17  F1        -4.1580   -0.4350   -2.4450 F       1  UNL1       -0.2002
     18  C10       -5.7230    0.5340   -0.9960 C.ar    1  UNL1        0.1983
     19  F2        -6.5340    0.8520   -2.0460 F       1  UNL1       -0.1993
     20  C11       -6.1230    0.8720    0.2600 C.ar    1  UNL1        0.1992
     21  F3        -7.3060    1.5200    0.5320 F       1  UNL1       -0.1993
     22  C12       -5.2950    0.5480    1.3400 C.ar    1  UNL1        0.1983
     23  F4        -5.6660    0.8680    2.6000 F       1  UNL1       -0.1993
     24  C13       -4.0800   -0.1090    1.1300 C.ar    1  UNL1        0.1907
     25  F5        -3.2910   -0.4300    2.1780 F       1  UNL1       -0.2002
     26  C14        1.5150   -0.1140   -0.7490 C.ar    1  UNL1       -0.0178
     27 H           5.4990   -0.9645   -1.5635 H       1  UNL1        0.0433
     28 H           3.8960   -1.5231   -1.9773 H       1  UNL1        0.0433
     29 H           4.5898   -1.9305   -0.4263 H       1  UNL1        0.0433
     30 H           6.4534    0.5943   -1.5877 H       1  UNL1        0.1465
     31 H           6.4430    2.2422   -1.1492 H       1  UNL1        0.1465
     32 H           3.4797    0.1367    1.8732 H       1  UNL1        0.0636
     33 H           1.3604    0.1130    3.0293 H       1  UNL1        0.0619
     34 H          -0.6613   -0.0602    1.7210 H       1  UNL1        0.0636
     35 H          -0.9828    0.3202   -1.7487 H       1  UNL1        0.1737
     36 H           1.5682   -0.1755   -1.7778 H       1  UNL1        0.0655
@<TRIPOS>BOND
     1     1     2    1
     2     2     3   am
     3     2     6    1
     4     3     4   am
     5     3     5    2
     6     6     7   ar
     7     6    26   ar
     8     7     8   ar
     9     8     9   ar
    10     9    10   ar
    11    10    11    1
    12    10    26   ar
    13    11    12    1
    14    12    13    2
    15    12    14    2
    16    12    15    1
    17    15    16   ar
    18    15    24   ar
    19    16    17    1
    20    16    18   ar
    21    18    19    1
    22    18    20   ar
    23    20    21    1
    24    20    22   ar
    25    22    23    1
    26    22    24   ar
    27    24    25    1
    28     1    27    1
    29     1    28    1
    30     1    29    1
    31     4    30    1
    32     4    31    1
    33     7    32    1
    34     8    33    1
    35     9    34    1
    36    11    35    1
    37    26    36    1
@<TRIPOS>MOLECULE
../data/bude_mols_rdkit_confs/molecule_84.pdb
 36 37 0 0 0
SMALL
GASTEIGER

@<TRIPOS>ATOM
      1  C1        -3.3460    1.5350   -2.0000 C.3     1  UNL1        0.0098
      2  N1        -3.1170    0.9960   -0.6760 N.am    1  UNL1       -0.2587
      3  C2        -3.7800    1.5250    0.4410 C.2     1  UNL1        0.3037
      4  N2        -3.6220    1.0710    1.7690 N.am    1  UNL1       -0.3129
      5  O1        -4.5920    2.4860    0.2750 O.2     1  UNL1       -0.2525
      6  C3        -2.1840   -0.0950   -0.5710 C.ar    1  UNL1        0.0392
      7  C4        -2.1180   -1.0560   -1.5740 C.ar    1  UNL1       -0.0401
      8  C5        -1.2250   -2.1000   -1.4740 C.ar    1  UNL1       -0.0582
      9  C6        -0.3880   -2.2030   -0.3830 C.ar    1  UNL1       -0.0392
     10  C7        -0.4310   -1.2650    0.6260 C.ar    1  UNL1        0.0498
     11  N3         0.4390   -1.3740    1.7600 N.pl3   1  UNL1       -0.2160
     12  S1         2.0970   -1.7280    1.6420 S.O2    1  UNL1        0.0780
     13  O2         2.6940   -1.7150    3.0190 O.2     1  UNL1       -0.1498
     14  O3         2.3550   -3.0720    1.0060 O.2     1  UNL1       -0.1498
     15  C8         2.9330   -0.4750    0.7240 C.ar    1  UNL1        0.1843
     16  C9         3.0930   -0.5440   -0.6440 C.ar    1  UNL1        0.1907
     17  F1         2.6050   -1.5980   -1.3310 F       1  UNL1       -0.2002
     18  C10        3.7570    0.4730   -1.3150 C.ar    1  UNL1        0.1983
     19  F2         3.9250    0.4240   -2.6650 F       1  UNL1       -0.1993
     20  C11        4.2650    1.5630   -0.6240 C.ar    1  UNL1        0.1992
     21  F3         4.8980    2.5180   -1.3120 F       1  UNL1       -0.1993
     22  C12        4.1100    1.6390    0.7380 C.ar    1  UNL1        0.1983
     23  F4         4.6090    2.7050    1.3980 F       1  UNL1       -0.1993
     24  C13        3.4430    0.6120    1.3880 C.ar    1  UNL1        0.1907
     25  F5         3.3180    0.7390    2.7360 F       1  UNL1       -0.2002
     26  C14       -1.3330   -0.2350    0.4990 C.ar    1  UNL1       -0.0178
     27 H          -4.0545    2.3347   -1.9419 H       1  UNL1        0.0433
     28 H          -3.7285    0.7652   -2.6372 H       1  UNL1        0.0433
     29 H          -2.4243    1.9034   -2.3994 H       1  UNL1        0.0433
     30 H          -3.0065    0.3281    1.9653 H       1  UNL1        0.1465
     31 H          -4.1273    1.4974    2.4984 H       1  UNL1        0.1465
     32 H          -2.7394   -0.9868   -2.3950 H       1  UNL1        0.0636
     33 H          -1.1820   -2.8105   -2.2213 H       1  UNL1        0.0619
     34 H           0.2769   -2.9898   -0.3214 H       1  UNL1        0.0636
     35 H           0.0551   -1.2363    2.6561 H       1  UNL1        0.1737
     36 H          -1.3732    0.4726    1.2492 H       1  UNL1        0.0655
@<TRIPOS>BOND
     1     1     2    1
     2     2     3   am
     3     2     6    1
     4     3     4   am
     5     3     5    2
     6     6     7   ar
     7     6    26   ar
     8     7     8   ar
     9     8     9   ar
    10     9    10   ar
    11    10    11    1
    12    10    26   ar
    13    11    12    1
    14    12    13    2
    15    12    14    2
    16    12    15    1
    17    15    16   ar
    18    15    24   ar
    19    16    17    1
    20    16    18   ar
    21    18    19    1
    22    18    20   ar
    23    20    21    1
    24    20    22   ar
    25    22    23    1
    26    22    24   ar
    27    24    25    1
    28     1    27    1
    29     1    28    1
    30     1    29    1
    31     4    30    1
    32     4    31    1
    33     7    32    1
    34     8    33    1
    35     9    34    1
    36    11    35    1
    37    26    36    1
@<TRIPOS>MOLECULE
../data/bude_mols_rdkit_confs/molecule_84.pdb
 36 37 0 0 0
SMALL
GASTEIGER

@<TRIPOS>ATOM
      1  C1        -4.5760    0.1630    0.4710 C.3     1  UNL1        0.0098
      2  N1        -3.1950    0.5510    0.2600 N.am    1  UNL1       -0.2587
      3  C2        -2.9220    1.9080   -0.0590 C.2     1  UNL1        0.3037
      4  N2        -3.9530    2.8820   -0.1870 N.am    1  UNL1       -0.3129
      5  O1        -1.7440    2.3090   -0.2450 O.2     1  UNL1       -0.2525
      6  C3        -2.1700   -0.4050    0.3720 C.ar    1  UNL1        0.0392
      7  C4        -1.9890   -1.2410    1.4600 C.ar    1  UNL1       -0.0401
      8  C5        -0.9680   -2.1710    1.5220 C.ar    1  UNL1       -0.0582
      9  C6        -0.0910   -2.2780    0.4670 C.ar    1  UNL1       -0.0392
     10  C7        -0.2310   -1.4700   -0.6320 C.ar    1  UNL1        0.0498
     11  N3         0.6530   -1.5450   -1.7310 N.pl3   1  UNL1       -0.2160
     12  S1         2.3450   -1.6850   -1.6000 S.O2    1  UNL1        0.0780
     13  O2         2.7560   -2.9860   -0.9480 O.2     1  UNL1       -0.1498
     14  O3         2.9650   -1.7380   -2.9920 O.2     1  UNL1       -0.1498
     15  C8         3.0930   -0.3360   -0.7820 C.ar    1  UNL1        0.1843
     16  C9         3.5040    0.8080   -1.4210 C.ar    1  UNL1        0.1907
     17  F1         3.3460    0.9540   -2.7330 F       1  UNL1       -0.2002
     18  C10        4.1020    1.8500   -0.7100 C.ar    1  UNL1        0.1983
     19  F2         4.5140    2.9800   -1.3090 F       1  UNL1       -0.1993
     20  C11        4.2830    1.7300    0.6550 C.ar    1  UNL1        0.1992
     21  F3         4.8720    2.7550    1.3530 F       1  UNL1       -0.1993
     22  C12        3.8770    0.5910    1.3130 C.ar    1  UNL1        0.1983
     23  F4         4.0550    0.4720    2.6530 F       1  UNL1       -0.1993
     24  C13        3.2870   -0.4240    0.5710 C.ar    1  UNL1        0.1907
     25  F5         2.9020   -1.5350    1.2570 F       1  UNL1       -0.2002
     26  C14       -1.2590   -0.5520   -0.6660 C.ar    1  UNL1       -0.0178
     27 H          -5.2094    1.0162    0.3451 H       1  UNL1        0.0433
     28 H          -4.6905   -0.2231    1.4623 H       1  UNL1        0.0433
     29 H          -4.8472   -0.5904   -0.2387 H       1  UNL1        0.0433
     30 H          -4.8935    2.6239   -0.0521 H       1  UNL1        0.1465
     31 H          -3.7253    3.8134   -0.4104 H       1  UNL1        0.1465
     32 H          -2.6416   -1.1673    2.2560 H       1  UNL1        0.0636
     33 H          -0.8647   -2.7781    2.3501 H       1  UNL1        0.0619
     34 H           0.6748   -2.9688    0.5030 H       1  UNL1        0.0636
     35 H           0.2642   -1.5142   -2.6350 H       1  UNL1        0.1737
     36 H          -1.3557    0.0513   -1.4977 H       1  UNL1        0.0655
@<TRIPOS>BOND
     1     1     2    1
     2     2     3   am
     3     2     6    1
     4     3     4   am
     5     3     5    2
     6     6     7   ar
     7     6    26   ar
     8     7     8   ar
     9     8     9   ar
    10     9    10   ar
    11    10    11    1
    12    10    26   ar
    13    11    12    1
    14    12    13    2
    15    12    14    2
    16    12    15    1
    17    15    16   ar
    18    15    24   ar
    19    16    17    1
    20    16    18   ar
    21    18    19    1
    22    18    20   ar
    23    20    21    1
    24    20    22   ar
    25    22    23    1
    26    22    24   ar
    27    24    25    1
    28     1    27    1
    29     1    28    1
    30     1    29    1
    31     4    30    1
    32     4    31    1
    33     7    32    1
    34     8    33    1
    35     9    34    1
    36    11    35    1
    37    26    36    1
@<TRIPOS>MOLECULE
../data/bude_mols_rdkit_confs/molecule_84.pdb
 36 37 0 0 0
SMALL
GASTEIGER

@<TRIPOS>ATOM
      1  C1        -4.1740   -0.7010   -0.9580 C.3     1  UNL1        0.0098
      2  N1        -3.1840    0.2070   -0.4050 N.am    1  UNL1       -0.2587
      3  C2        -3.3220    1.5920   -0.6200 C.2     1  UNL1        0.3037
      4  N2        -2.3860    2.5460   -0.1050 N.am    1  UNL1       -0.3129
      5  O1        -4.3110    2.0270   -1.2980 O.2     1  UNL1       -0.2525
      6  C3        -2.1230   -0.3570    0.3340 C.ar    1  UNL1        0.0392
      7  C4        -2.1180   -0.1570    1.6980 C.ar    1  UNL1       -0.0401
      8  C5        -1.1000   -0.7090    2.4660 C.ar    1  UNL1       -0.0582
      9  C6        -0.1050   -1.4500    1.8690 C.ar    1  UNL1       -0.0392
     10  C7        -0.0950   -1.6600    0.5000 C.ar    1  UNL1        0.0498
     11  N3         0.9540   -2.4010   -0.0780 N.pl3   1  UNL1       -0.2160
     12  S1         1.8730   -1.7790   -1.4080 S.O2    1  UNL1        0.0780
     13  O2         1.0240   -1.5450   -2.6160 O.2     1  UNL1       -0.1498
     14  O3         2.9310   -2.7790   -1.7730 O.2     1  UNL1       -0.1498
     15  C8         2.7000   -0.2960   -0.9050 C.ar    1  UNL1        0.1843
     16  C9         3.9690   -0.3350   -0.3590 C.ar    1  UNL1        0.1907
     17  F1         4.6010   -1.5350   -0.2320 F       1  UNL1       -0.2002
     18  C10        4.6270    0.7930    0.0640 C.ar    1  UNL1        0.1983
     19  F2         5.8790    0.7510    0.6030 F       1  UNL1       -0.1993
     20  C11        3.9740    2.0100   -0.0720 C.ar    1  UNL1        0.1992
     21  F3         4.5860    3.1620    0.3360 F       1  UNL1       -0.1993
     22  C12        2.7200    2.0970   -0.6070 C.ar    1  UNL1        0.1983
     23  F4         2.0480    3.2890   -0.7530 F       1  UNL1       -0.1993
     24  C13        2.0880    0.9280   -1.0240 C.ar    1  UNL1        0.1907
     25  F5         0.8590    0.9760   -1.5620 F       1  UNL1       -0.2002
     26  C14       -1.1070   -1.1070   -0.2370 C.ar    1  UNL1       -0.0178
     27 H          -4.9144   -0.1406   -1.4896 H       1  UNL1        0.0433
     28 H          -4.6409   -1.2460   -0.1643 H       1  UNL1        0.0433
     29 H          -3.6959   -1.3853   -1.6274 H       1  UNL1        0.0433
     30 H          -1.6123    2.2414    0.4221 H       1  UNL1        0.1465
     31 H          -2.5163    3.5064   -0.2781 H       1  UNL1        0.1465
     32 H          -2.8643    0.3982    2.1451 H       1  UNL1        0.0636
     33 H          -1.0897   -0.5630    3.4876 H       1  UNL1        0.0619
     34 H           0.6450   -1.8553    2.4506 H       1  UNL1        0.0636
     35 H           1.1696   -3.2917    0.2817 H       1  UNL1        0.1737
     36 H          -1.1138   -1.2543   -1.2584 H       1  UNL1        0.0655
@<TRIPOS>BOND
     1     1     2    1
     2     2     3   am
     3     2     6    1
     4     3     4   am
     5     3     5    2
     6     6     7   ar
     7     6    26   ar
     8     7     8   ar
     9     8     9   ar
    10     9    10   ar
    11    10    11    1
    12    10    26   ar
    13    11    12    1
    14    12    13    2
    15    12    14    2
    16    12    15    1
    17    15    16   ar
    18    15    24   ar
    19    16    17    1
    20    16    18   ar
    21    18    19    1
    22    18    20   ar
    23    20    21    1
    24    20    22   ar
    25    22    23    1
    26    22    24   ar
    27    24    25    1
    28     1    27    1
    29     1    28    1
    30     1    29    1
    31     4    30    1
    32     4    31    1
    33     7    32    1
    34     8    33    1
    35     9    34    1
    36    11    35    1
    37    26    36    1
@<TRIPOS>MOLECULE
../data/bude_mols_rdkit_confs/molecule_84.pdb
 36 37 0 0 0
SMALL
GASTEIGER

@<TRIPOS>ATOM
      1  C1        -4.7110   -1.5070    0.1040 C.3     1  UNL1        0.0098
      2  N1        -4.1250   -0.2730   -0.3340 N.am    1  UNL1       -0.2587
      3  C2        -4.8370    0.6170   -1.1640 C.2     1  UNL1        0.3037
      4  N2        -4.2690    1.8570   -1.6130 N.am    1  UNL1       -0.3129
      5  O1        -6.0120    0.3950   -1.5720 O.2     1  UNL1       -0.2525
      6  C3        -2.8130    0.0680    0.0690 C.ar    1  UNL1        0.0392
      7  C4        -2.6470    1.1060    0.9710 C.ar    1  UNL1       -0.0401
      8  C5        -1.4020    1.4940    1.3900 C.ar    1  UNL1       -0.0582
      9  C6        -0.2850    0.8190    0.8870 C.ar    1  UNL1       -0.0392
     10  C7        -0.4080   -0.2130   -0.0070 C.ar    1  UNL1        0.0498
     11  N3         0.7030   -0.9070   -0.5300 N.pl3   1  UNL1       -0.2160
     12  S1         2.0740   -1.4370    0.3610 S.O2    1  UNL1        0.0780
     13  O2         2.2500   -2.9220    0.0630 O.2     1  UNL1       -0.1498
     14  O3         1.8670   -1.3420    1.8450 O.2     1  UNL1       -0.1498
     15  C8         3.5260   -0.6170   -0.1540 C.ar    1  UNL1        0.1843
     16  C9         4.2670   -1.1470   -1.2230 C.ar    1  UNL1        0.1907
     17  F1         3.8080   -2.2860   -1.8030 F       1  UNL1       -0.2002
     18  C10        5.4190   -0.5490   -1.6820 C.ar    1  UNL1        0.1983
     19  F2         6.1410   -1.0430   -2.7100 F       1  UNL1       -0.1993
     20  C11        5.8880    0.6190   -1.0860 C.ar    1  UNL1        0.1992
     21  F3         7.0050    1.2000   -1.5330 F       1  UNL1       -0.1993
     22  C12        5.1750    1.1470   -0.0410 C.ar    1  UNL1        0.1983
     23  F4         5.5950    2.2930    0.5720 F       1  UNL1       -0.1993
     24  C13        4.0040    0.5320    0.4190 C.ar    1  UNL1        0.1907
     25  F5         3.3290    1.0690    1.4580 F       1  UNL1       -0.2002
     26  C14       -1.6900   -0.5810   -0.4110 C.ar    1  UNL1       -0.0178
     27 H          -5.6994   -1.5944   -0.2964 H       1  UNL1        0.0433
     28 H          -4.7568   -1.5205    1.1729 H       1  UNL1        0.0433
     29 H          -4.1139   -2.3265   -0.2378 H       1  UNL1        0.0433
     30 H          -3.3567    2.1077   -1.3409 H       1  UNL1        0.1465
     31 H          -4.7919    2.4565   -2.1930 H       1  UNL1        0.1465
     32 H          -3.4785    1.5972    1.3349 H       1  UNL1        0.0636
     33 H          -1.2904    2.2684    2.0630 H       1  UNL1        0.0619
     34 H           0.6567    1.1054    1.1971 H       1  UNL1        0.0636
     35 H           0.6922   -1.1062   -1.4941 H       1  UNL1        0.1737
     36 H          -1.8040   -1.3554   -1.0836 H       1  UNL1        0.0655
@<TRIPOS>BOND
     1     1     2    1
     2     2     3   am
     3     2     6    1
     4     3     4   am
     5     3     5    2
     6     6     7   ar
     7     6    26   ar
     8     7     8   ar
     9     8     9   ar
    10     9    10   ar
    11    10    11    1
    12    10    26   ar
    13    11    12    1
    14    12    13    2
    15    12    14    2
    16    12    15    1
    17    15    16   ar
    18    15    24   ar
    19    16    17    1
    20    16    18   ar
    21    18    19    1
    22    18    20   ar
    23    20    21    1
    24    20    22   ar
    25    22    23    1
    26    22    24   ar
    27    24    25    1
    28     1    27    1
    29     1    28    1
    30     1    29    1
    31     4    30    1
    32     4    31    1
    33     7    32    1
    34     8    33    1
    35     9    34    1
    36    11    35    1
    37    26    36    1
@<TRIPOS>MOLECULE
../data/bude_mols_rdkit_confs/molecule_84.pdb
 36 37 0 0 0
SMALL
GASTEIGER

@<TRIPOS>ATOM
      1  C1        -4.4130   -1.0180   -1.0000 C.3     1  UNL1        0.0098
      2  N1        -3.8010    0.0130   -0.1900 N.am    1  UNL1       -0.2587
      3  C2        -4.6090    0.7830    0.6980 C.2     1  UNL1        0.3037
      4  N2        -5.9910    0.5980    0.8390 N.am    1  UNL1       -0.3129
      5  O1        -4.0870    1.6980    1.4210 O.2     1  UNL1       -0.2525
      6  C3        -2.3990    0.2900   -0.2480 C.ar    1  UNL1        0.0392
      7  C4        -1.9050    1.5880   -0.2790 C.ar    1  UNL1       -0.0401
      8  C5        -0.5640    1.8590   -0.3340 C.ar    1  UNL1       -0.0582
      9  C6         0.3240    0.7940   -0.3600 C.ar    1  UNL1       -0.0392
     10  C7        -0.0970   -0.5110   -0.3320 C.ar    1  UNL1        0.0498
     11  N3         0.7820   -1.6260   -0.3730 N.pl3   1  UNL1       -0.2160
     12  S1         2.1400   -1.8990    0.6050 S.O2    1  UNL1        0.0780
     13  O2         1.7530   -1.9970    2.0710 O.2     1  UNL1       -0.1498
     14  O3         2.7890   -3.2400    0.2870 O.2     1  UNL1       -0.1498
     15  C8         3.4060   -0.7160    0.4800 C.ar    1  UNL1        0.1843
     16  C9         4.3710   -0.8570   -0.5080 C.ar    1  UNL1        0.1907
     17  F1         4.2680   -1.9030   -1.3520 F       1  UNL1       -0.2002
     18  C10        5.4230    0.0560   -0.6340 C.ar    1  UNL1        0.1983
     19  F2         6.3490   -0.0990   -1.6010 F       1  UNL1       -0.1993
     20  C11        5.5050    1.1070    0.2340 C.ar    1  UNL1        0.1992
     21  F3         6.5070    2.0260    0.1600 F       1  UNL1       -0.1993
     22  C12        4.5390    1.2550    1.2310 C.ar    1  UNL1        0.1983
     23  F4         4.6150    2.3020    2.0990 F       1  UNL1       -0.1993
     24  C13        3.4980    0.3500    1.3520 C.ar    1  UNL1        0.1907
     25  F5         2.5490    0.4890    2.3250 F       1  UNL1       -0.2002
     26  C14       -1.4850   -0.7290   -0.2760 C.ar    1  UNL1       -0.0178
     27 H          -5.4633   -1.0534   -0.7986 H       1  UNL1        0.0433
     28 H          -3.9727   -1.9645   -0.7651 H       1  UNL1        0.0433
     29 H          -4.2556   -0.7986   -2.0354 H       1  UNL1        0.0433
     30 H          -6.4519   -0.0919    0.3090 H       1  UNL1        0.1465
     31 H          -6.5010    1.1579    1.4680 H       1  UNL1        0.1465
     32 H          -2.5719    2.3753   -0.2599 H       1  UNL1        0.0636
     33 H          -0.2222    2.8325   -0.3556 H       1  UNL1        0.0619
     34 H           1.3363    0.9902   -0.4019 H       1  UNL1        0.0636
     35 H           0.5803   -2.3175   -1.0441 H       1  UNL1        0.1737
     36 H          -1.8304   -1.7012   -0.2551 H       1  UNL1        0.0655
@<TRIPOS>BOND
     1     1     2    1
     2     2     3   am
     3     2     6    1
     4     3     4   am
     5     3     5    2
     6     6     7   ar
     7     6    26   ar
     8     7     8   ar
     9     8     9   ar
    10     9    10   ar
    11    10    11    1
    12    10    26   ar
    13    11    12    1
    14    12    13    2
    15    12    14    2
    16    12    15    1
    17    15    16   ar
    18    15    24   ar
    19    16    17    1
    20    16    18   ar
    21    18    19    1
    22    18    20   ar
    23    20    21    1
    24    20    22   ar
    25    22    23    1
    26    22    24   ar
    27    24    25    1
    28     1    27    1
    29     1    28    1
    30     1    29    1
    31     4    30    1
    32     4    31    1
    33     7    32    1
    34     8    33    1
    35     9    34    1
    36    11    35    1
    37    26    36    1
@<TRIPOS>MOLECULE
../data/bude_mols_rdkit_confs/molecule_84.pdb
 36 37 0 0 0
SMALL
GASTEIGER

@<TRIPOS>ATOM
      1  C1        -3.4540    1.3250   -1.5690 C.3     1  UNL1        0.0098
      2  N1        -3.1210    0.7650   -0.2730 N.am    1  UNL1       -0.2587
      3  C2        -3.7780    1.2930    0.8690 C.2     1  UNL1        0.3037
      4  N2        -4.7460    2.3320    0.7370 N.am    1  UNL1       -0.3129
      5  O1        -3.5060    0.8400    2.0100 O.2     1  UNL1       -0.2525
      6  C3        -2.1800   -0.2730   -0.1030 C.ar    1  UNL1        0.0392
      7  C4        -2.2800   -1.4600   -0.8290 C.ar    1  UNL1       -0.0401
      8  C5        -1.3440   -2.4410   -0.6100 C.ar    1  UNL1       -0.0582
      9  C6        -0.3170   -2.3090    0.2880 C.ar    1  UNL1       -0.0392
     10  C7        -0.2070   -1.1380    1.0150 C.ar    1  UNL1        0.0498
     11  N3         0.8330   -1.0230    1.9610 N.pl3   1  UNL1       -0.2160
     12  S1         2.4780   -1.4360    1.7000 S.O2    1  UNL1        0.0780
     13  O2         3.2760   -1.1720    2.9560 O.2     1  UNL1       -0.1498
     14  O3         2.5520   -2.8830    1.3380 O.2     1  UNL1       -0.1498
     15  C8         3.1750   -0.4600    0.4320 C.ar    1  UNL1        0.1843
     16  C9         3.8240    0.7360    0.7760 C.ar    1  UNL1        0.1907
     17  F1         3.8510    1.0470    2.0970 F       1  UNL1       -0.2002
     18  C10        4.4020    1.5480   -0.1910 C.ar    1  UNL1        0.1983
     19  F2         5.0230    2.6960    0.1610 F       1  UNL1       -0.1993
     20  C11        4.3620    1.2090   -1.5290 C.ar    1  UNL1        0.1992
     21  F3         4.9280    1.9940   -2.4890 F       1  UNL1       -0.1993
     22  C12        3.7240    0.0330   -1.8650 C.ar    1  UNL1        0.1983
     23  F4         3.6810   -0.3090   -3.1730 F       1  UNL1       -0.1993
     24  C13        3.1420   -0.7820   -0.8890 C.ar    1  UNL1        0.1907
     25  F5         2.5170   -1.9420   -1.2710 F       1  UNL1       -0.2002
     26  C14       -1.1480   -0.1550    0.7920 C.ar    1  UNL1       -0.0178
     27 H          -4.1875    2.0945   -1.4472 H       1  UNL1        0.0433
     28 H          -3.8462    0.5551   -2.2001 H       1  UNL1        0.0433
     29 H          -2.5740    1.7386   -2.0156 H       1  UNL1        0.0433
     30 H          -4.9640    2.6915   -0.1532 H       1  UNL1        0.1465
     31 H          -5.1962    2.6897    1.5361 H       1  UNL1        0.1465
     32 H          -3.0392   -1.5977   -1.5143 H       1  UNL1        0.0636
     33 H          -1.4175   -3.3192   -1.1471 H       1  UNL1        0.0619
     34 H           0.3645   -3.0727    0.4197 H       1  UNL1        0.0636
     35 H           0.5938   -0.6748    2.8502 H       1  UNL1        0.1737
     36 H          -1.0709    0.7218    1.3309 H       1  UNL1        0.0655
@<TRIPOS>BOND
     1     1     2    1
     2     2     3   am
     3     2     6    1
     4     3     4   am
     5     3     5    2
     6     6     7   ar
     7     6    26   ar
     8     7     8   ar
     9     8     9   ar
    10     9    10   ar
    11    10    11    1
    12    10    26   ar
    13    11    12    1
    14    12    13    2
    15    12    14    2
    16    12    15    1
    17    15    16   ar
    18    15    24   ar
    19    16    17    1
    20    16    18   ar
    21    18    19    1
    22    18    20   ar
    23    20    21    1
    24    20    22   ar
    25    22    23    1
    26    22    24   ar
    27    24    25    1
    28     1    27    1
    29     1    28    1
    30     1    29    1
    31     4    30    1
    32     4    31    1
    33     7    32    1
    34     8    33    1
    35     9    34    1
    36    11    35    1
    37    26    36    1
@<TRIPOS>MOLECULE
../data/bude_mols_rdkit_confs/molecule_84.pdb
 36 37 0 0 0
SMALL
GASTEIGER

@<TRIPOS>ATOM
      1  C1        -4.6970    0.0160   -0.2510 C.3     1  UNL1        0.0098
      2  N1        -3.4120    0.5580    0.0940 N.am    1  UNL1       -0.2587
      3  C2        -3.1570    1.9470    0.2020 C.2     1  UNL1        0.3037
      4  N2        -1.9140    2.5050    0.5360 N.am    1  UNL1       -0.3129
      5  O1        -4.1470    2.7240   -0.0270 O.2     1  UNL1       -0.2525
      6  C3        -2.3620   -0.3690    0.3350 C.ar    1  UNL1        0.0392
      7  C4        -2.2760   -1.0570    1.5470 C.ar    1  UNL1       -0.0401
      8  C5        -1.2410   -1.9390    1.7090 C.ar    1  UNL1       -0.0582
      9  C6        -0.2970   -2.1690    0.7370 C.ar    1  UNL1       -0.0392
     10  C7        -0.3630   -1.4940   -0.4790 C.ar    1  UNL1        0.0498
     11  N3         0.5690   -1.6890   -1.5060 N.pl3   1  UNL1       -0.2160
     12  S1         2.2560   -1.7740   -1.3080 S.O2    1  UNL1        0.0780
     13  O2         2.6730   -2.9300   -0.4320 O.2     1  UNL1       -0.1498
     14  O3         2.9500   -2.0160   -2.6410 O.2     1  UNL1       -0.1498
     15  C8         2.9660   -0.3150   -0.6600 C.ar    1  UNL1        0.1843
     16  C9         3.4140    0.6960   -1.4780 C.ar    1  UNL1        0.1907
     17  F1         3.3150    0.5940   -2.8470 F       1  UNL1       -0.2002
     18  C10        3.9630    1.8130   -0.8910 C.ar    1  UNL1        0.1983
     19  F2         4.4030    2.8090   -1.7120 F       1  UNL1       -0.1993
     20  C11        4.0900    1.9770    0.4700 C.ar    1  UNL1        0.1992
     21  F3         4.6460    3.1140    1.0070 F       1  UNL1       -0.1993
     22  C12        3.6340    0.9520    1.2710 C.ar    1  UNL1        0.1983
     23  F4         3.7300    1.0520    2.6160 F       1  UNL1       -0.1993
     24  C13        3.0790   -0.1810    0.7050 C.ar    1  UNL1        0.1907
     25  F5         2.6360   -1.1830    1.5390 F       1  UNL1       -0.2002
     26  C14       -1.4150   -0.6050   -0.6260 C.ar    1  UNL1       -0.0178
     27 H          -5.3916    0.8153   -0.4049 H       1  UNL1        0.0433
     28 H          -5.0447   -0.6107    0.5435 H       1  UNL1        0.0433
     29 H          -4.6118   -0.5602   -1.1486 H       1  UNL1        0.0433
     30 H          -1.1434    1.9189    0.7148 H       1  UNL1        0.1465
     31 H          -1.8123    3.4827    0.5916 H       1  UNL1        0.1465
     32 H          -2.9696   -0.9058    2.2961 H       1  UNL1        0.0636
     33 H          -1.1666   -2.4537    2.6004 H       1  UNL1        0.0619
     34 H           0.4638   -2.8447    0.9091 H       1  UNL1        0.0636
     35 H           0.2176   -1.7851   -2.4206 H       1  UNL1        0.1737
     36 H          -1.4900   -0.0878   -1.5159 H       1  UNL1        0.0655
@<TRIPOS>BOND
     1     1     2    1
     2     2     3   am
     3     2     6    1
     4     3     4   am
     5     3     5    2
     6     6     7   ar
     7     6    26   ar
     8     7     8   ar
     9     8     9   ar
    10     9    10   ar
    11    10    11    1
    12    10    26   ar
    13    11    12    1
    14    12    13    2
    15    12    14    2
    16    12    15    1
    17    15    16   ar
    18    15    24   ar
    19    16    17    1
    20    16    18   ar
    21    18    19    1
    22    18    20   ar
    23    20    21    1
    24    20    22   ar
    25    22    23    1
    26    22    24   ar
    27    24    25    1
    28     1    27    1
    29     1    28    1
    30     1    29    1
    31     4    30    1
    32     4    31    1
    33     7    32    1
    34     8    33    1
    35     9    34    1
    36    11    35    1
    37    26    36    1
@<TRIPOS>MOLECULE
../data/bude_mols_rdkit_confs/molecule_84.pdb
 36 37 0 0 0
SMALL
GASTEIGER

@<TRIPOS>ATOM
      1  C1        -4.4940    0.0900    0.3360 C.3     1  UNL1        0.0098
      2  N1        -3.1760    0.5080   -0.0910 N.am    1  UNL1       -0.2587
      3  C2        -2.9330    1.8740   -0.3560 C.2     1  UNL1        0.3037
      4  N2        -4.0030    2.8280   -0.1990 N.am    1  UNL1       -0.3129
      5  O1        -1.7930    2.2300   -0.7220 O.2     1  UNL1       -0.2525
      6  C3        -2.1200   -0.4210   -0.2510 C.ar    1  UNL1        0.0392
      7  C4        -2.0700   -1.1590   -1.4260 C.ar    1  UNL1       -0.0401
      8  C5        -1.0520   -2.0810   -1.6190 C.ar    1  UNL1       -0.0582
      9  C6        -0.1060   -2.2410   -0.6250 C.ar    1  UNL1       -0.0392
     10  C7        -0.1280   -1.5290    0.5430 C.ar    1  UNL1        0.0498
     11  N3         0.8930   -1.7630    1.5230 N.pl3   1  UNL1       -0.2160
     12  S1         2.5430   -1.8840    1.1380 S.O2    1  UNL1        0.0780
     13  O2         2.8480   -3.0340    0.2190 O.2     1  UNL1       -0.1498
     14  O3         3.3340   -2.1430    2.4020 O.2     1  UNL1       -0.1498
     15  C8         3.1120   -0.3980    0.4370 C.ar    1  UNL1        0.1843
     16  C9         3.0950   -0.1430   -0.9310 C.ar    1  UNL1        0.1907
     17  F1         2.6260   -1.0680   -1.7690 F       1  UNL1       -0.2002
     18  C10        3.5750    1.0760   -1.3790 C.ar    1  UNL1        0.1983
     19  F2         3.5540    1.3150   -2.7030 F       1  UNL1       -0.1993
     20  C11        4.0640    2.0380   -0.5220 C.ar    1  UNL1        0.1992
     21  F3         4.5300    3.2200   -0.9650 F       1  UNL1       -0.1993
     22  C12        4.0870    1.7970    0.8320 C.ar    1  UNL1        0.1983
     23  F4         4.5600    2.7200    1.6860 F       1  UNL1       -0.1993
     24  C13        3.6130    0.5920    1.2790 C.ar    1  UNL1        0.1907
     25  F5         3.6270    0.3350    2.6210 F       1  UNL1       -0.2002
     26  C14       -1.1410   -0.6140    0.7300 C.ar    1  UNL1       -0.0178
     27 H          -5.1378    0.9428    0.3923 H       1  UNL1        0.0433
     28 H          -4.4274   -0.3708    1.2994 H       1  UNL1        0.0433
     29 H          -4.8913   -0.6110   -0.3680 H       1  UNL1        0.0433
     30 H          -4.8939    2.5252    0.0906 H       1  UNL1        0.1465
     31 H          -3.8426    3.7821   -0.3814 H       1  UNL1        0.1465
     32 H          -2.7885   -1.0218   -2.1540 H       1  UNL1        0.0636
     33 H          -1.0022   -2.6362   -2.4875 H       1  UNL1        0.0619
     34 H           0.6505   -2.9278   -0.7699 H       1  UNL1        0.0636
     35 H           0.6242   -1.8582    2.4653 H       1  UNL1        0.1737
     36 H          -1.1781   -0.0650    1.6031 H       1  UNL1        0.0655
@<TRIPOS>BOND
     1     1     2    1
     2     2     3   am
     3     2     6    1
     4     3     4   am
     5     3     5    2
     6     6     7   ar
     7     6    26   ar
     8     7     8   ar
     9     8     9   ar
    10     9    10   ar
    11    10    11    1
    12    10    26   ar
    13    11    12    1
    14    12    13    2
    15    12    14    2
    16    12    15    1
    17    15    16   ar
    18    15    24   ar
    19    16    17    1
    20    16    18   ar
    21    18    19    1
    22    18    20   ar
    23    20    21    1
    24    20    22   ar
    25    22    23    1
    26    22    24   ar
    27    24    25    1
    28     1    27    1
    29     1    28    1
    30     1    29    1
    31     4    30    1
    32     4    31    1
    33     7    32    1
    34     8    33    1
    35     9    34    1
    36    11    35    1
    37    26    36    1
@<TRIPOS>MOLECULE
../data/bude_mols_rdkit_confs/molecule_84.pdb
 36 37 0 0 0
SMALL
GASTEIGER

@<TRIPOS>ATOM
      1  C1         4.0720   -1.4560   -1.2870 C.3     1  UNL1        0.0098
      2  N1         3.9160   -0.1090   -0.7270 N.am    1  UNL1       -0.2587
      3  C2         4.9910    0.7920   -0.9020 C.2     1  UNL1        0.3037
      4  N2         6.1790    0.4210   -1.5870 N.am    1  UNL1       -0.3129
      5  O1         4.8670    1.9590   -0.4240 O.2     1  UNL1       -0.2525
      6  C3         2.7040    0.2210   -0.0470 C.ar    1  UNL1        0.0392
      7  C4         2.7230    1.0140    1.0760 C.ar    1  UNL1       -0.0401
      8  C5         1.5270    1.3260    1.7240 C.ar    1  UNL1       -0.0582
      9  C6         0.3010    0.8670    1.2820 C.ar    1  UNL1       -0.0392
     10  C7         0.2800    0.0740    0.1610 C.ar    1  UNL1        0.0498
     11  N3        -0.9140   -0.4410   -0.3650 N.pl3   1  UNL1       -0.2160
     12  S1        -2.1760   -1.1450    0.5300 S.O2    1  UNL1        0.0780
     13  O2        -2.3910   -2.5520   -0.0070 O.2     1  UNL1       -0.1498
     14  O3        -1.8150   -1.3210    1.9820 O.2     1  UNL1       -0.1498
     15  C8        -3.6700   -0.2420    0.4860 C.ar    1  UNL1        0.1843
     16  C9        -4.0350    0.7120    1.4080 C.ar    1  UNL1        0.1907
     17  F1        -3.1880    0.9640    2.4370 F       1  UNL1       -0.2002
     18  C10       -5.2270    1.4070    1.3210 C.ar    1  UNL1        0.1983
     19  F2        -5.5410    2.3360    2.2500 F       1  UNL1       -0.1993
     20  C11       -6.1130    1.1740    0.2980 C.ar    1  UNL1        0.1992
     21  F3        -7.2970    1.8620    0.2100 F       1  UNL1       -0.1993
     22  C12       -5.7750    0.2220   -0.6410 C.ar    1  UNL1        0.1983
     23  F4        -6.6460   -0.0150   -1.6530 F       1  UNL1       -0.1993
     24  C13       -4.5870   -0.4650   -0.5500 C.ar    1  UNL1        0.1907
     25  F5        -4.2440   -1.4060   -1.4700 F       1  UNL1       -0.2002
     26  C14        1.4780   -0.2330   -0.4820 C.ar    1  UNL1       -0.0178
     27 H           5.0288   -1.5374   -1.7590 H       1  UNL1        0.0433
     28 H           3.3021   -1.6337   -2.0085 H       1  UNL1        0.0433
     29 H           3.9988   -2.1793   -0.5019 H       1  UNL1        0.0433
     30 H           6.2710   -0.4868   -1.9567 H       1  UNL1        0.1465
     31 H           6.9103    1.0717   -1.6920 H       1  UNL1        0.1465
     32 H           3.6184    1.3772    1.4384 H       1  UNL1        0.0636
     33 H           1.5595    1.9224    2.5656 H       1  UNL1        0.0619
     34 H          -0.5702    1.1120    1.7779 H       1  UNL1        0.0636
     35 H          -1.0318   -0.3901   -1.3411 H       1  UNL1        0.1737
     36 H           1.4451   -0.8288   -1.3240 H       1  UNL1        0.0655
@<TRIPOS>BOND
     1     1     2    1
     2     2     3   am
     3     2     6    1
     4     3     4   am
     5     3     5    2
     6     6     7   ar
     7     6    26   ar
     8     7     8   ar
     9     8     9   ar
    10     9    10   ar
    11    10    11    1
    12    10    26   ar
    13    11    12    1
    14    12    13    2
    15    12    14    2
    16    12    15    1
    17    15    16   ar
    18    15    24   ar
    19    16    17    1
    20    16    18   ar
    21    18    19    1
    22    18    20   ar
    23    20    21    1
    24    20    22   ar
    25    22    23    1
    26    22    24   ar
    27    24    25    1
    28     1    27    1
    29     1    28    1
    30     1    29    1
    31     4    30    1
    32     4    31    1
    33     7    32    1
    34     8    33    1
    35     9    34    1
    36    11    35    1
    37    26    36    1
@<TRIPOS>MOLECULE
../data/bude_mols_rdkit_confs/molecule_84.pdb
 36 37 0 0 0
SMALL
GASTEIGER

@<TRIPOS>ATOM
      1  C1         4.2950   -1.4270   -0.4670 C.3     1  UNL1        0.0098
      2  N1         3.7780   -0.2080    0.1030 N.am    1  UNL1       -0.2587
      3  C2         4.6380    0.6750    0.7700 C.2     1  UNL1        0.3037
      4  N2         6.0300    0.4420    0.9280 N.am    1  UNL1       -0.3129
      5  O1         4.1790    1.7340    1.2630 O.2     1  UNL1       -0.2525
      6  C3         2.4060    0.0920   -0.0140 C.ar    1  UNL1        0.0392
      7  C4         1.9800    0.9130   -1.0410 C.ar    1  UNL1       -0.0401
      8  C5         0.6540    1.2380   -1.2020 C.ar    1  UNL1       -0.0582
      9  C6        -0.2540    0.7120   -0.2940 C.ar    1  UNL1       -0.0392
     10  C7         0.1050   -0.1010    0.7330 C.ar    1  UNL1        0.0498
     11  N3        -0.8350   -0.6030    1.6460 N.pl3   1  UNL1       -0.2160
     12  S1        -2.3010   -1.3970    1.3160 S.O2    1  UNL1        0.0780
     13  O2        -2.9120   -1.9650    2.5720 O.2     1  UNL1       -0.1498
     14  O3        -1.9640   -2.6110    0.4530 O.2     1  UNL1       -0.1498
     15  C8        -3.4680   -0.4660    0.4310 C.ar    1  UNL1        0.1843
     16  C9        -3.5760   -0.5330   -0.9650 C.ar    1  UNL1        0.1907
     17  F1        -2.7410   -1.3520   -1.6380 F       1  UNL1       -0.2002
     18  C10       -4.5230    0.2320   -1.6090 C.ar    1  UNL1        0.1983
     19  F2        -4.5980    0.1390   -2.9780 F       1  UNL1       -0.1993
     20  C11       -5.3800    1.0710   -0.9260 C.ar    1  UNL1        0.1992
     21  F3        -6.3070    1.8180   -1.5750 F       1  UNL1       -0.1993
     22  C12       -5.2920    1.1540    0.4570 C.ar    1  UNL1        0.1983
     23  F4        -6.0900    1.9480    1.2000 F       1  UNL1       -0.1993
     24  C13       -4.3500    0.3930    1.0910 C.ar    1  UNL1        0.1907
     25  F5        -4.2160    0.4320    2.4540 F       1  UNL1       -0.2002
     26  C14        1.4520   -0.4070    0.8660 C.ar    1  UNL1       -0.0178
     27 H           5.3474   -1.4883   -0.2835 H       1  UNL1        0.0433
     28 H           4.1160   -1.4314   -1.5219 H       1  UNL1        0.0433
     29 H           3.8053   -2.2661   -0.0187 H       1  UNL1        0.0433
     30 H           6.4374   -0.3747    0.5588 H       1  UNL1        0.1465
     31 H           6.5875    1.0972    1.4067 H       1  UNL1        0.1465
     32 H           2.6748    1.2915   -1.7036 H       1  UNL1        0.0636
     33 H           0.3445    1.8520   -1.9716 H       1  UNL1        0.0619
     34 H          -1.2519    0.9505   -0.4046 H       1  UNL1        0.0636
     35 H          -0.6178   -0.4796    2.5983 H       1  UNL1        0.1737
     36 H           1.7537   -1.0212    1.6385 H       1  UNL1        0.0655
@<TRIPOS>BOND
     1     1     2    1
     2     2     3   am
     3     2     6    1
     4     3     4   am
     5     3     5    2
     6     6     7   ar
     7     6    26   ar
     8     7     8   ar
     9     8     9   ar
    10     9    10   ar
    11    10    11    1
    12    10    26   ar
    13    11    12    1
    14    12    13    2
    15    12    14    2
    16    12    15    1
    17    15    16   ar
    18    15    24   ar
    19    16    17    1
    20    16    18   ar
    21    18    19    1
    22    18    20   ar
    23    20    21    1
    24    20    22   ar
    25    22    23    1
    26    22    24   ar
    27    24    25    1
    28     1    27    1
    29     1    28    1
    30     1    29    1
    31     4    30    1
    32     4    31    1
    33     7    32    1
    34     8    33    1
    35     9    34    1
    36    11    35    1
    37    26    36    1
@<TRIPOS>MOLECULE
../data/bude_mols_rdkit_confs/molecule_84.pdb
 36 37 0 0 0
SMALL
GASTEIGER

@<TRIPOS>ATOM
      1  C1        -3.5380   -0.8630    1.5970 C.3     1  UNL1        0.0098
      2  N1        -3.0300    0.2410    0.7830 N.am    1  UNL1       -0.2587
      3  C2        -3.4400    1.5450    1.1190 C.2     1  UNL1        0.3037
      4  N2        -2.9800    2.6420    0.3650 N.am    1  UNL1       -0.3129
      5  O1        -4.2080    1.7360    2.0810 O.2     1  UNL1       -0.2525
      6  C3        -2.1470   -0.0390   -0.3070 C.ar    1  UNL1        0.0392
      7  C4        -2.3250    0.6100   -1.5050 C.ar    1  UNL1       -0.0401
      8  C5        -1.4890    0.3640   -2.5950 C.ar    1  UNL1       -0.0582
      9  C6        -0.4660   -0.5530   -2.4500 C.ar    1  UNL1       -0.0392
     10  C7        -0.2740   -1.2200   -1.2410 C.ar    1  UNL1        0.0498
     11  N3         0.7710   -2.1640   -1.1050 N.pl3   1  UNL1       -0.2160
     12  S1         1.8230   -2.2670    0.2350 S.O2    1  UNL1        0.0780
     13  O2         1.0250   -2.4520    1.5000 O.2     1  UNL1       -0.1498
     14  O3         2.7780   -3.4110    0.0580 O.2     1  UNL1       -0.1498
     15  C8         2.7400   -0.7710    0.3930 C.ar    1  UNL1        0.1843
     16  C9         2.2980    0.2940    1.1560 C.ar    1  UNL1        0.1907
     17  F1         1.1000    0.1820    1.8170 F       1  UNL1       -0.2002
     18  C10        3.0440    1.4660    1.2630 C.ar    1  UNL1        0.1983
     19  F2         2.5800    2.4860    2.0160 F       1  UNL1       -0.1993
     20  C11        4.2450    1.5710    0.5970 C.ar    1  UNL1        0.1992
     21  F3         4.9810    2.7280    0.7030 F       1  UNL1       -0.1993
     22  C12        4.7110    0.5390   -0.1650 C.ar    1  UNL1        0.1983
     23  F4         5.8930    0.6110   -0.8350 F       1  UNL1       -0.1993
     24  C13        3.9610   -0.6110   -0.2580 C.ar    1  UNL1        0.1907
     25  F5         4.3870   -1.6660   -1.0090 F       1  UNL1       -0.2002
     26  C14       -1.1100   -0.9630   -0.1780 C.ar    1  UNL1       -0.0178
     27 H          -4.1792   -0.4768    2.3615 H       1  UNL1        0.0433
     28 H          -2.7173   -1.3808    2.0478 H       1  UNL1        0.0433
     29 H          -4.0891   -1.5390    0.9771 H       1  UNL1        0.0433
     30 H          -2.3729    2.4962   -0.3962 H       1  UNL1        0.1465
     31 H          -3.2655    3.5546    0.5991 H       1  UNL1        0.1465
     32 H          -3.0925    1.2932   -1.6006 H       1  UNL1        0.0636
     33 H          -1.6320    0.8567   -3.4905 H       1  UNL1        0.0619
     34 H           0.1628   -0.7463   -3.2452 H       1  UNL1        0.0636
     35 H           0.9009   -2.8090   -1.8373 H       1  UNL1        0.1737
     36 H          -0.9690   -1.4558    0.7177 H       1  UNL1        0.0655
@<TRIPOS>BOND
     1     1     2    1
     2     2     3   am
     3     2     6    1
     4     3     4   am
     5     3     5    2
     6     6     7   ar
     7     6    26   ar
     8     7     8   ar
     9     8     9   ar
    10     9    10   ar
    11    10    11    1
    12    10    26   ar
    13    11    12    1
    14    12    13    2
    15    12    14    2
    16    12    15    1
    17    15    16   ar
    18    15    24   ar
    19    16    17    1
    20    16    18   ar
    21    18    19    1
    22    18    20   ar
    23    20    21    1
    24    20    22   ar
    25    22    23    1
    26    22    24   ar
    27    24    25    1
    28     1    27    1
    29     1    28    1
    30     1    29    1
    31     4    30    1
    32     4    31    1
    33     7    32    1
    34     8    33    1
    35     9    34    1
    36    11    35    1
    37    26    36    1
@<TRIPOS>MOLECULE
../data/bude_mols_rdkit_confs/molecule_84.pdb
 36 37 0 0 0
SMALL
GASTEIGER

@<TRIPOS>ATOM
      1  C1        -4.7180    1.2010   -0.2220 C.3     1  UNL1        0.0098
      2  N1        -3.7900    0.1250   -0.0080 N.am    1  UNL1       -0.2587
      3  C2        -4.2800   -1.1970    0.0800 C.2     1  UNL1        0.3037
      4  N2        -5.6580   -1.5110   -0.0290 N.am    1  UNL1       -0.3129
      5  O1        -3.4630   -2.1350    0.2640 O.2     1  UNL1       -0.2525
      6  C3        -2.3990    0.3680    0.1120 C.ar    1  UNL1        0.0392
      7  C4        -1.9210    1.3300    1.0080 C.ar    1  UNL1       -0.0401
      8  C5        -0.5780    1.5930    1.1540 C.ar    1  UNL1       -0.0582
      9  C6         0.3180    0.8740    0.3820 C.ar    1  UNL1       -0.0392
     10  C7        -0.0740   -0.0650   -0.4970 C.ar    1  UNL1        0.0498
     11  N3         0.7660   -0.8200   -1.3230 N.pl3   1  UNL1       -0.2160
     12  S1         2.1410   -1.7190   -0.9220 S.O2    1  UNL1        0.0780
     13  O2         1.8390   -2.8300    0.0570 O.2     1  UNL1       -0.1498
     14  O3         2.6280   -2.4430   -2.1720 O.2     1  UNL1       -0.1498
     15  C8         3.3730   -0.7080   -0.2570 C.ar    1  UNL1        0.1843
     16  C9         4.2380   -0.0580   -1.1090 C.ar    1  UNL1        0.1907
     17  F1         4.0660   -0.2200   -2.4530 F       1  UNL1       -0.2002
     18  C10        5.2630    0.7450   -0.6470 C.ar    1  UNL1        0.1983
     19  F2         6.0760    1.3540   -1.5560 F       1  UNL1       -0.1993
     20  C11        5.4640    0.9290    0.7020 C.ar    1  UNL1        0.1992
     21  F3         6.4600    1.7090    1.1550 F       1  UNL1       -0.1993
     22  C12        4.6070    0.2850    1.5790 C.ar    1  UNL1        0.1983
     23  F4         4.7800    0.4480    2.9200 F       1  UNL1       -0.1993
     24  C13        3.5880   -0.5130    1.1060 C.ar    1  UNL1        0.1907
     25  F5         2.7560   -1.1380    1.9640 F       1  UNL1       -0.2002
     26  C14       -1.4530   -0.3000   -0.6140 C.ar    1  UNL1       -0.0178
     27 H          -5.7114    0.8082   -0.2840 H       1  UNL1        0.0433
     28 H          -4.4760    1.7045   -1.1346 H       1  UNL1        0.0433
     29 H          -4.6577    1.8915    0.5932 H       1  UNL1        0.0433
     30 H          -6.3165   -0.7935   -0.1732 H       1  UNL1        0.1465
     31 H          -5.9566   -2.4466    0.0395 H       1  UNL1        0.1465
     32 H          -2.5980    1.8602    1.5786 H       1  UNL1        0.0636
     33 H          -0.2477    2.3074    1.8215 H       1  UNL1        0.0619
     34 H           1.3267    1.0662    0.4851 H       1  UNL1        0.0636
     35 H           0.5208   -0.8292   -2.2764 H       1  UNL1        0.1737
     36 H          -1.7701   -1.0168   -1.2853 H       1  UNL1        0.0655
@<TRIPOS>BOND
     1     1     2    1
     2     2     3   am
     3     2     6    1
     4     3     4   am
     5     3     5    2
     6     6     7   ar
     7     6    26   ar
     8     7     8   ar
     9     8     9   ar
    10     9    10   ar
    11    10    11    1
    12    10    26   ar
    13    11    12    1
    14    12    13    2
    15    12    14    2
    16    12    15    1
    17    15    16   ar
    18    15    24   ar
    19    16    17    1
    20    16    18   ar
    21    18    19    1
    22    18    20   ar
    23    20    21    1
    24    20    22   ar
    25    22    23    1
    26    22    24   ar
    27    24    25    1
    28     1    27    1
    29     1    28    1
    30     1    29    1
    31     4    30    1
    32     4    31    1
    33     7    32    1
    34     8    33    1
    35     9    34    1
    36    11    35    1
    37    26    36    1
@<TRIPOS>MOLECULE
../data/bude_mols_rdkit_confs/molecule_84.pdb
 36 37 0 0 0
SMALL
GASTEIGER

@<TRIPOS>ATOM
      1  C1         4.1110   -0.7220   -1.5820 C.3     1  UNL1        0.0098
      2  N1         3.7140   -0.5880   -0.2000 N.am    1  UNL1       -0.2587
      3  C2         4.7060   -0.5540    0.8040 C.2     1  UNL1        0.3037
      4  N2         6.0680   -0.6540    0.4270 N.am    1  UNL1       -0.3129
      5  O1         4.3970   -0.4380    2.0160 O.2     1  UNL1       -0.2525
      6  C3         2.3240   -0.4950    0.0860 C.ar    1  UNL1        0.0392
      7  C4         1.6970   -1.4100    0.8980 C.ar    1  UNL1       -0.0401
      8  C5         0.3560   -1.3560    1.1990 C.ar    1  UNL1       -0.0582
      9  C6        -0.4030   -0.3130    0.6470 C.ar    1  UNL1       -0.0392
     10  C7         0.1720    0.6210   -0.1660 C.ar    1  UNL1        0.0498
     11  N3        -0.5540    1.6940   -0.7170 N.pl3   1  UNL1       -0.2160
     12  S1        -2.0050    1.5770   -1.6110 S.O2    1  UNL1        0.0780
     13  O2        -2.3890    2.9520   -2.1020 O.2     1  UNL1       -0.1498
     14  O3        -1.6880    0.7440   -2.8580 O.2     1  UNL1       -0.1498
     15  C8        -3.3140    0.8880   -0.7310 C.ar    1  UNL1        0.1843
     16  C9        -3.6290   -0.4620   -0.8070 C.ar    1  UNL1        0.1907
     17  F1        -2.8380   -1.2300   -1.6270 F       1  UNL1       -0.2002
     18  C10       -4.6780   -0.9900   -0.0950 C.ar    1  UNL1        0.1983
     19  F2        -4.9410   -2.3140   -0.2060 F       1  UNL1       -0.1993
     20  C11       -5.4230   -0.1770    0.6990 C.ar    1  UNL1        0.1992
     21  F3        -6.4530   -0.6840    1.4010 F       1  UNL1       -0.1993
     22  C12       -5.1490    1.1690    0.8060 C.ar    1  UNL1        0.1983
     23  F4        -5.9250    1.9510    1.6190 F       1  UNL1       -0.1993
     24  C13       -4.0960    1.6820    0.0890 C.ar    1  UNL1        0.1907
     25  F5        -3.8330    2.9960    0.1970 F       1  UNL1       -0.2002
     26  C14        1.5390    0.5110   -0.4340 C.ar    1  UNL1       -0.0178
     27 H           5.1777   -0.7802   -1.6426 H       1  UNL1        0.0433
     28 H           3.7681    0.1271   -2.1355 H       1  UNL1        0.0433
     29 H           3.6813   -1.6121   -1.9918 H       1  UNL1        0.0433
     30 H           6.3104   -0.7449   -0.5228 H       1  UNL1        0.1465
     31 H           6.7720   -0.6326    1.1149 H       1  UNL1        0.1465
     32 H           2.2601   -2.1749    1.3015 H       1  UNL1        0.0636
     33 H          -0.0793   -2.0621    1.8130 H       1  UNL1        0.0619
     34 H          -1.4111   -0.2509    0.8587 H       1  UNL1        0.0636
     35 H          -0.1909    2.5978   -0.5734 H       1  UNL1        0.1737
     36 H           1.9798    1.2137   -1.0480 H       1  UNL1        0.0655
@<TRIPOS>BOND
     1     1     2    1
     2     2     3   am
     3     2     6    1
     4     3     4   am
     5     3     5    2
     6     6     7   ar
     7     6    26   ar
     8     7     8   ar
     9     8     9   ar
    10     9    10   ar
    11    10    11    1
    12    10    26   ar
    13    11    12    1
    14    12    13    2
    15    12    14    2
    16    12    15    1
    17    15    16   ar
    18    15    24   ar
    19    16    17    1
    20    16    18   ar
    21    18    19    1
    22    18    20   ar
    23    20    21    1
    24    20    22   ar
    25    22    23    1
    26    22    24   ar
    27    24    25    1
    28     1    27    1
    29     1    28    1
    30     1    29    1
    31     4    30    1
    32     4    31    1
    33     7    32    1
    34     8    33    1
    35     9    34    1
    36    11    35    1
    37    26    36    1
@<TRIPOS>MOLECULE
../data/bude_mols_rdkit_confs/molecule_84.pdb
 36 37 0 0 0
SMALL
GASTEIGER

@<TRIPOS>ATOM
      1  C1        -3.2690    0.4570   -2.2830 C.3     1  UNL1        0.0098
      2  N1        -2.9330    0.7650   -0.9090 N.am    1  UNL1       -0.2587
      3  C2        -3.4210    1.9640   -0.3490 C.2     1  UNL1        0.3037
      4  N2        -4.2210    2.8250   -1.1350 N.am    1  UNL1       -0.3129
      5  O1        -3.1530    2.2730    0.8370 O.2     1  UNL1       -0.2525
      6  C3        -2.1140   -0.1460   -0.1420 C.ar    1  UNL1        0.0392
      7  C4        -2.3630   -0.3950    1.1900 C.ar    1  UNL1       -0.0401
      8  C5        -1.5550   -1.2740    1.8890 C.ar    1  UNL1       -0.0582
      9  C6        -0.4950   -1.9230    1.3060 C.ar    1  UNL1       -0.0392
     10  C7        -0.2330   -1.6850   -0.0260 C.ar    1  UNL1        0.0498
     11  N3         0.8250   -2.3060   -0.7350 N.pl3   1  UNL1       -0.2160
     12  S1         2.3890   -2.3410   -0.0260 S.O2    1  UNL1        0.0780
     13  O2         3.3250   -3.0810   -0.9570 O.2     1  UNL1       -0.1498
     14  O3         2.3590   -3.0140    1.3310 O.2     1  UNL1       -0.1498
     15  C8         3.0440   -0.7280    0.2410 C.ar    1  UNL1        0.1843
     16  C9         2.8450   -0.1080    1.4540 C.ar    1  UNL1        0.1907
     17  F1         2.1770   -0.6830    2.4770 F       1  UNL1       -0.2002
     18  C10        3.3560    1.1690    1.6560 C.ar    1  UNL1        0.1983
     19  F2         3.1490    1.7730    2.8710 F       1  UNL1       -0.1993
     20  C11        4.0520    1.7970    0.6460 C.ar    1  UNL1        0.1992
     21  F3         4.5300    3.0360    0.8820 F       1  UNL1       -0.1993
     22  C12        4.2560    1.1800   -0.5740 C.ar    1  UNL1        0.1983
     23  F4         4.9520    1.8400   -1.5500 F       1  UNL1       -0.1993
     24  C13        3.7450   -0.0760   -0.7510 C.ar    1  UNL1        0.1907
     25  F5         3.9340   -0.6900   -1.9330 F       1  UNL1       -0.2002
     26  C14       -1.0530   -0.7940   -0.7310 C.ar    1  UNL1       -0.0178
     27 H          -3.8768    1.2402   -2.6857 H       1  UNL1        0.0433
     28 H          -3.8072   -0.4670   -2.3200 H       1  UNL1        0.0433
     29 H          -2.3713    0.3702   -2.8588 H       1  UNL1        0.0433
     30 H          -4.4335    2.5859   -2.0661 H       1  UNL1        0.1465
     31 H          -4.5656    3.6636   -0.7512 H       1  UNL1        0.1465
     32 H          -3.1504    0.0731    1.6652 H       1  UNL1        0.0636
     33 H          -1.7567   -1.4483    2.8860 H       1  UNL1        0.0619
     34 H           0.0915   -2.5734    1.8519 H       1  UNL1        0.0636
     35 H           0.6664   -2.7103   -1.6185 H       1  UNL1        0.1737
     36 H          -0.8538   -0.6175   -1.7281 H       1  UNL1        0.0655
@<TRIPOS>BOND
     1     1     2    1
     2     2     3   am
     3     2     6    1
     4     3     4   am
     5     3     5    2
     6     6     7   ar
     7     6    26   ar
     8     7     8   ar
     9     8     9   ar
    10     9    10   ar
    11    10    11    1
    12    10    26   ar
    13    11    12    1
    14    12    13    2
    15    12    14    2
    16    12    15    1
    17    15    16   ar
    18    15    24   ar
    19    16    17    1
    20    16    18   ar
    21    18    19    1
    22    18    20   ar
    23    20    21    1
    24    20    22   ar
    25    22    23    1
    26    22    24   ar
    27    24    25    1
    28     1    27    1
    29     1    28    1
    30     1    29    1
    31     4    30    1
    32     4    31    1
    33     7    32    1
    34     8    33    1
    35     9    34    1
    36    11    35    1
    37    26    36    1
@<TRIPOS>MOLECULE
../data/bude_mols_rdkit_confs/molecule_84.pdb
 36 37 0 0 0
SMALL
GASTEIGER

@<TRIPOS>ATOM
      1  C1         4.0440   -2.1020   -1.0930 C.3     1  UNL1        0.0098
      2  N1         3.9500   -0.7360   -0.6290 N.am    1  UNL1       -0.2587
      3  C2         5.0290    0.1420   -0.8410 C.2     1  UNL1        0.3037
      4  N2         5.0070    1.5090   -0.4350 N.am    1  UNL1       -0.3129
      5  O1         6.0630   -0.2900   -1.4130 O.2     1  UNL1       -0.2525
      6  C3         2.7540   -0.3450    0.0240 C.ar    1  UNL1        0.0392
      7  C4         2.7660   -0.0890    1.3890 C.ar    1  UNL1       -0.0401
      8  C5         1.6020    0.2640    2.0120 C.ar    1  UNL1       -0.0582
      9  C6         0.4390    0.3580    1.2760 C.ar    1  UNL1       -0.0392
     10  C7         0.3730    0.1160   -0.0780 C.ar    1  UNL1        0.0498
     11  N3        -0.8040    0.2150   -0.8560 N.pl3   1  UNL1       -0.2160
     12  S1        -2.0350    1.3850   -0.6010 S.O2    1  UNL1        0.0780
     13  O2        -1.6060    2.3700    0.4760 O.2     1  UNL1       -0.1498
     14  O3        -2.1880    2.1880   -1.8590 O.2     1  UNL1       -0.1498
     15  C8        -3.5350    0.6240   -0.1870 C.ar    1  UNL1        0.1843
     16  C9        -4.4180    0.1950   -1.1810 C.ar    1  UNL1        0.1907
     17  F1        -4.0450    0.4290   -2.4610 F       1  UNL1       -0.2002
     18  C10       -5.5910   -0.4280   -0.8300 C.ar    1  UNL1        0.1983
     19  F2        -6.4020   -0.8230   -1.8320 F       1  UNL1       -0.1993
     20  C11       -5.9430   -0.6510    0.4990 C.ar    1  UNL1        0.1992
     21  F3        -7.1140   -1.2750    0.7630 F       1  UNL1       -0.1993
     22  C12       -5.0740   -0.2260    1.4670 C.ar    1  UNL1        0.1983
     23  F4        -5.4010   -0.4360    2.7640 F       1  UNL1       -0.1993
     24  C13       -3.8830    0.4050    1.1080 C.ar    1  UNL1        0.1907
     25  F5        -3.0890    0.8010    2.1160 F       1  UNL1       -0.2002
     26  C14        1.5870   -0.2450   -0.6940 C.ar    1  UNL1       -0.0178
     27 H           4.9933   -2.2547   -1.5626 H       1  UNL1        0.0433
     28 H           3.2624   -2.2938   -1.7981 H       1  UNL1        0.0433
     29 H           3.9459   -2.7686   -0.2618 H       1  UNL1        0.0433
     30 H           4.2120    1.8761    0.0149 H       1  UNL1        0.1465
     31 H           5.7868    2.0855   -0.6047 H       1  UNL1        0.1465
     32 H           3.6437   -0.1645    1.9266 H       1  UNL1        0.0636
     33 H           1.5931    0.4588    3.0254 H       1  UNL1        0.0619
     34 H          -0.4289    0.6242    1.7669 H       1  UNL1        0.0636
     35 H          -0.9254   -0.4284   -1.5912 H       1  UNL1        0.1737
     36 H           1.6002   -0.4388   -1.7076 H       1  UNL1        0.0655
@<TRIPOS>BOND
     1     1     2    1
     2     2     3   am
     3     2     6    1
     4     3     4   am
     5     3     5    2
     6     6     7   ar
     7     6    26   ar
     8     7     8   ar
     9     8     9   ar
    10     9    10   ar
    11    10    11    1
    12    10    26   ar
    13    11    12    1
    14    12    13    2
    15    12    14    2
    16    12    15    1
    17    15    16   ar
    18    15    24   ar
    19    16    17    1
    20    16    18   ar
    21    18    19    1
    22    18    20   ar
    23    20    21    1
    24    20    22   ar
    25    22    23    1
    26    22    24   ar
    27    24    25    1
    28     1    27    1
    29     1    28    1
    30     1    29    1
    31     4    30    1
    32     4    31    1
    33     7    32    1
    34     8    33    1
    35     9    34    1
    36    11    35    1
    37    26    36    1
@<TRIPOS>MOLECULE
../data/bude_mols_rdkit_confs/molecule_84.pdb
 36 37 0 0 0
SMALL
GASTEIGER

@<TRIPOS>ATOM
      1  C1         3.9710    2.4420    0.2490 C.3     1  UNL1        0.0098
      2  N1         3.8180    1.0210   -0.0810 N.am    1  UNL1       -0.2587
      3  C2         4.9470    0.2000    0.1270 C.2     1  UNL1        0.3037
      4  N2         6.1910    0.6550    0.6160 N.am    1  UNL1       -0.3129
      5  O1         4.8470   -1.0240   -0.1410 O.2     1  UNL1       -0.2525
      6  C3         2.5990    0.5030   -0.5770 C.ar    1  UNL1        0.0392
      7  C4         2.5170    0.0610   -1.8930 C.ar    1  UNL1       -0.0401
      8  C5         1.3530   -0.4410   -2.4150 C.ar    1  UNL1       -0.0582
      9  C6         0.2450   -0.4930   -1.5690 C.ar    1  UNL1       -0.0392
     10  C7         0.2590   -0.0750   -0.2650 C.ar    1  UNL1        0.0498
     11  N3        -0.8570   -0.1600    0.6080 N.pl3   1  UNL1       -0.2160
     12  S1        -1.8940   -1.5060    0.5010 S.O2    1  UNL1        0.0780
     13  O2        -1.8770   -2.1760    1.8640 O.2     1  UNL1       -0.1498
     14  O3        -1.3650   -2.5180   -0.4770 O.2     1  UNL1       -0.1498
     15  C8        -3.5300   -1.0790    0.1050 C.ar    1  UNL1        0.1843
     16  C9        -4.3930   -0.8780    1.1620 C.ar    1  UNL1        0.1907
     17  F1        -3.9350   -1.0530    2.4180 F       1  UNL1       -0.2002
     18  C10       -5.7060   -0.5060    1.0020 C.ar    1  UNL1        0.1983
     19  F2        -6.5340   -0.3240    2.0650 F       1  UNL1       -0.1993
     20  C11       -6.1940   -0.3210   -0.2540 C.ar    1  UNL1        0.1992
     21  F3        -7.4950    0.0480   -0.4470 F       1  UNL1       -0.1993
     22  C12       -5.3720   -0.5110   -1.3570 C.ar    1  UNL1        0.1983
     23  F4        -5.8520   -0.3280   -2.5860 F       1  UNL1       -0.1993
     24  C13       -4.0400   -0.8910   -1.1540 C.ar    1  UNL1        0.1907
     25  F5        -3.2580   -1.0810   -2.2220 F       1  UNL1       -0.2002
     26  C14        1.4820    0.4290    0.2120 C.ar    1  UNL1       -0.0178
     27 H           4.9641    2.6206    0.6050 H       1  UNL1        0.0433
     28 H           3.2664    2.7097    1.0084 H       1  UNL1        0.0433
     29 H           3.7941    3.0323   -0.6257 H       1  UNL1        0.0433
     30 H           6.3143    1.6060    0.8389 H       1  UNL1        0.1465
     31 H           6.9351    0.0213    0.7340 H       1  UNL1        0.1465
     32 H           3.3551    0.1123   -2.4929 H       1  UNL1        0.0636
     33 H           1.2987   -0.7667   -3.3927 H       1  UNL1        0.0619
     34 H          -0.6380   -0.8689   -1.9485 H       1  UNL1        0.0636
     35 H          -1.0293    0.5506    1.2672 H       1  UNL1        0.1737
     36 H           1.5398    0.7541    1.1897 H       1  UNL1        0.0655
@<TRIPOS>BOND
     1     1     2    1
     2     2     3   am
     3     2     6    1
     4     3     4   am
     5     3     5    2
     6     6     7   ar
     7     6    26   ar
     8     7     8   ar
     9     8     9   ar
    10     9    10   ar
    11    10    11    1
    12    10    26   ar
    13    11    12    1
    14    12    13    2
    15    12    14    2
    16    12    15    1
    17    15    16   ar
    18    15    24   ar
    19    16    17    1
    20    16    18   ar
    21    18    19    1
    22    18    20   ar
    23    20    21    1
    24    20    22   ar
    25    22    23    1
    26    22    24   ar
    27    24    25    1
    28     1    27    1
    29     1    28    1
    30     1    29    1
    31     4    30    1
    32     4    31    1
    33     7    32    1
    34     8    33    1
    35     9    34    1
    36    11    35    1
    37    26    36    1
@<TRIPOS>MOLECULE
../data/bude_mols_rdkit_confs/molecule_84.pdb
 36 37 0 0 0
SMALL
GASTEIGER

@<TRIPOS>ATOM
      1  C1        -4.4500   -1.9960   -0.0800 C.3     1  UNL1        0.0098
      2  N1        -3.8520   -0.6930    0.0420 N.am    1  UNL1       -0.2587
      3  C2        -4.6570    0.3980    0.4320 C.2     1  UNL1        0.3037
      4  N2        -4.1080    1.7110    0.5670 N.am    1  UNL1       -0.3129
      5  O1        -5.8740    0.2620    0.6740 O.2     1  UNL1       -0.2525
      6  C3        -2.4750   -0.5040   -0.2280 C.ar    1  UNL1        0.0392
      7  C4        -1.9420   -1.1430   -1.3340 C.ar    1  UNL1       -0.0401
      8  C5        -0.6080   -0.9580   -1.6010 C.ar    1  UNL1       -0.0582
      9  C6         0.1840   -0.1520   -0.7830 C.ar    1  UNL1       -0.0392
     10  C7        -0.3210    0.4920    0.3200 C.ar    1  UNL1        0.0498
     11  N3         0.4230    1.3430    1.1770 N.pl3   1  UNL1       -0.2160
     12  S1         1.8910    0.8930    1.8800 S.O2    1  UNL1        0.0780
     13  O2         2.3590    1.9160    2.9130 O.2     1  UNL1       -0.1498
     14  O3         1.6210   -0.3570    2.7170 O.2     1  UNL1       -0.1498
     15  C8         3.1880    0.5270    0.8070 C.ar    1  UNL1        0.1843
     16  C9         4.0260    1.4870    0.2660 C.ar    1  UNL1        0.1907
     17  F1         3.7630    2.7750    0.5950 F       1  UNL1       -0.2002
     18  C10        5.0710    1.1820   -0.5600 C.ar    1  UNL1        0.1983
     19  F2         5.8940    2.1390   -1.0900 F       1  UNL1       -0.1993
     20  C11        5.2950   -0.1410   -0.8650 C.ar    1  UNL1        0.1992
     21  F3         6.3070   -0.5320   -1.6720 F       1  UNL1       -0.1993
     22  C12        4.4800   -1.1500   -0.3470 C.ar    1  UNL1        0.1983
     23  F4         4.7240   -2.4600   -0.6660 F       1  UNL1       -0.1993
     24  C13        3.4420   -0.7890    0.4800 C.ar    1  UNL1        0.1907
     25  F5         2.6520   -1.8010    0.9790 F       1  UNL1       -0.2002
     26  C14       -1.6830    0.2900    0.5740 C.ar    1  UNL1       -0.0178
     27 H          -5.4901   -1.9353    0.1638 H       1  UNL1        0.0433
     28 H          -3.9656   -2.6749    0.5903 H       1  UNL1        0.0433
     29 H          -4.3391   -2.3467   -1.0848 H       1  UNL1        0.0433
     30 H          -3.1527    1.8661    0.3865 H       1  UNL1        0.1465
     31 H          -4.6852    2.4602    0.8405 H       1  UNL1        0.1465
     32 H          -2.5284   -1.7394   -1.9385 H       1  UNL1        0.0636
     33 H          -0.1846   -1.4224   -2.4196 H       1  UNL1        0.0619
     34 H           1.1830   -0.0357   -1.0144 H       1  UNL1        0.0636
     35 H           0.0661    2.2397    1.3714 H       1  UNL1        0.1737
     36 H          -2.1099    0.7526    1.3918 H       1  UNL1        0.0655
@<TRIPOS>BOND
     1     1     2    1
     2     2     3   am
     3     2     6    1
     4     3     4   am
     5     3     5    2
     6     6     7   ar
     7     6    26   ar
     8     7     8   ar
     9     8     9   ar
    10     9    10   ar
    11    10    11    1
    12    10    26   ar
    13    11    12    1
    14    12    13    2
    15    12    14    2
    16    12    15    1
    17    15    16   ar
    18    15    24   ar
    19    16    17    1
    20    16    18   ar
    21    18    19    1
    22    18    20   ar
    23    20    21    1
    24    20    22   ar
    25    22    23    1
    26    22    24   ar
    27    24    25    1
    28     1    27    1
    29     1    28    1
    30     1    29    1
    31     4    30    1
    32     4    31    1
    33     7    32    1
    34     8    33    1
    35     9    34    1
    36    11    35    1
    37    26    36    1
@<TRIPOS>MOLECULE
../data/bude_mols_rdkit_confs/molecule_84.pdb
 36 37 0 0 0
SMALL
GASTEIGER

@<TRIPOS>ATOM
      1  C1        -4.3930   -0.2860    0.1970 C.3     1  UNL1        0.0098
      2  N1        -3.0970    0.0790   -0.3450 N.am    1  UNL1       -0.2587
      3  C2        -2.9480    1.3520   -0.9900 C.2     1  UNL1        0.3037
      4  N2        -4.0160    2.2620   -1.0100 N.am    1  UNL1       -0.3129
      5  O1        -1.8270    1.5810   -1.5120 O.2     1  UNL1       -0.2525
      6  C3        -1.9860   -0.8030   -0.2420 C.ar    1  UNL1        0.0392
      7  C4        -1.7790   -1.8790   -1.0520 C.ar    1  UNL1       -0.0401
      8  C5        -0.6950   -2.7260   -0.8490 C.ar    1  UNL1       -0.0582
      9  C6         0.2060   -2.4930    0.1910 C.ar    1  UNL1       -0.0392
     10  C7         0.0230   -1.4230    1.0160 C.ar    1  UNL1        0.0498
     11  N3         0.8820   -1.1360    2.0870 N.pl3   1  UNL1       -0.2160
     12  S1         1.6120    0.4040    2.2860 S.O2    1  UNL1        0.0780
     13  O2         0.5830    1.4860    2.4460 O.2     1  UNL1       -0.1498
     14  O3         2.4420    0.4550    3.5550 O.2     1  UNL1       -0.1498
     15  C8         2.6520    0.6950    0.9160 C.ar    1  UNL1        0.1843
     16  C9         3.9980    0.3270    1.0950 C.ar    1  UNL1        0.1907
     17  F1         4.4290   -0.2130    2.2890 F       1  UNL1       -0.2002
     18  C10        4.9030    0.5000    0.1030 C.ar    1  UNL1        0.1983
     19  F2         6.2080    0.1420    0.2940 F       1  UNL1       -0.1993
     20  C11        4.4660    1.0540   -1.1080 C.ar    1  UNL1        0.1992
     21  F3         5.3530    1.2330   -2.1070 F       1  UNL1       -0.1993
     22  C12        3.1510    1.4230   -1.3100 C.ar    1  UNL1        0.1983
     23  F4         2.7480    1.9610   -2.5130 F       1  UNL1       -0.1993
     24  C13        2.2420    1.2380   -0.2800 C.ar    1  UNL1        0.1907
     25  F5         0.9290    1.5870   -0.4180 F       1  UNL1       -0.2002
     26  C14       -1.0600   -0.6020    0.7860 C.ar    1  UNL1       -0.0178
     27 H          -5.0900    0.5061    0.0190 H       1  UNL1        0.0433
     28 H          -4.3048   -0.4535    1.2501 H       1  UNL1        0.0433
     29 H          -4.7396   -1.1797   -0.2785 H       1  UNL1        0.0433
     30 H          -4.8715    2.0263   -0.5837 H       1  UNL1        0.1465
     31 H          -3.9097    3.1361   -1.4503 H       1  UNL1        0.1465
     32 H          -2.4350   -2.0677   -1.8260 H       1  UNL1        0.0636
     33 H          -0.5553   -3.5353   -1.4739 H       1  UNL1        0.0619
     34 H           1.0070   -3.1276    0.3349 H       1  UNL1        0.0636
     35 H           1.0724   -1.8417    2.7465 H       1  UNL1        0.1737
     36 H          -1.1954    0.2091    1.4095 H       1  UNL1        0.0655
@<TRIPOS>BOND
     1     1     2    1
     2     2     3   am
     3     2     6    1
     4     3     4   am
     5     3     5    2
     6     6     7   ar
     7     6    26   ar
     8     7     8   ar
     9     8     9   ar
    10     9    10   ar
    11    10    11    1
    12    10    26   ar
    13    11    12    1
    14    12    13    2
    15    12    14    2
    16    12    15    1
    17    15    16   ar
    18    15    24   ar
    19    16    17    1
    20    16    18   ar
    21    18    19    1
    22    18    20   ar
    23    20    21    1
    24    20    22   ar
    25    22    23    1
    26    22    24   ar
    27    24    25    1
    28     1    27    1
    29     1    28    1
    30     1    29    1
    31     4    30    1
    32     4    31    1
    33     7    32    1
    34     8    33    1
    35     9    34    1
    36    11    35    1
    37    26    36    1
@<TRIPOS>MOLECULE
../data/bude_mols_rdkit_confs/molecule_84.pdb
 36 37 0 0 0
SMALL
GASTEIGER

@<TRIPOS>ATOM
      1  C1        -4.4990   -1.0750    0.7660 C.3     1  UNL1        0.0098
      2  N1        -3.7280   -0.0310    0.1300 N.am    1  UNL1       -0.2587
      3  C2        -4.3800    1.2020   -0.1470 C.2     1  UNL1        0.3037
      4  N2        -5.7320    1.4320    0.1750 N.am    1  UNL1       -0.3129
      5  O1        -3.6950    2.1190   -0.7090 O.2     1  UNL1       -0.2525
      6  C3        -2.3610   -0.2420   -0.2020 C.ar    1  UNL1        0.0392
      7  C4        -1.9870   -1.4040   -0.8430 C.ar    1  UNL1       -0.0401
      8  C5        -0.6550   -1.5640   -1.1460 C.ar    1  UNL1       -0.0582
      9  C6         0.3170   -0.6120   -0.8340 C.ar    1  UNL1       -0.0392
     10  C7        -0.0490    0.5410   -0.1980 C.ar    1  UNL1        0.0498
     11  N3         0.8340    1.5870    0.1500 N.pl3   1  UNL1       -0.2160
     12  S1         2.2770    1.4840    1.0360 S.O2    1  UNL1        0.0780
     13  O2         2.8720    2.8770    1.2170 O.2     1  UNL1       -0.1498
     14  O3         1.9220    0.9400    2.4020 O.2     1  UNL1       -0.1498
     15  C8         3.4400    0.4740    0.2420 C.ar    1  UNL1        0.1843
     16  C9         3.5440   -0.8410    0.6070 C.ar    1  UNL1        0.1907
     17  F1         2.7400   -1.3370    1.5820 F       1  UNL1       -0.2002
     18  C10        4.4610   -1.7080    0.0050 C.ar    1  UNL1        0.1983
     19  F2         4.5010   -2.9930    0.4230 F       1  UNL1       -0.1993
     20  C11        5.2550   -1.1890   -0.9680 C.ar    1  UNL1        0.1992
     21  F3         6.1610   -2.0270   -1.5690 F       1  UNL1       -0.1993
     22  C12        5.1710    0.1290   -1.3530 C.ar    1  UNL1        0.1983
     23  F4         6.0050    0.5850   -2.3440 F       1  UNL1       -0.1993
     24  C13        4.2620    0.9600   -0.7470 C.ar    1  UNL1        0.1907
     25  F5         4.1960    2.2690   -1.1480 F       1  UNL1       -0.2002
     26  C14       -1.4070    0.7060    0.1100 C.ar    1  UNL1       -0.0178
     27 H          -5.4974   -0.7289    0.9344 H       1  UNL1        0.0433
     28 H          -4.0480   -1.3318    1.7017 H       1  UNL1        0.0433
     29 H          -4.5225   -1.9372    0.1328 H       1  UNL1        0.0433
     30 H          -6.2619    0.7248    0.6089 H       1  UNL1        0.1465
     31 H          -6.1470    2.3000   -0.0339 H       1  UNL1        0.1465
     32 H          -2.6814   -2.1275   -1.0866 H       1  UNL1        0.0636
     33 H          -0.3603   -2.4284   -1.6266 H       1  UNL1        0.0619
     34 H           1.3050   -0.7776   -1.0818 H       1  UNL1        0.0636
     35 H           0.5809    2.4866   -0.1597 H       1  UNL1        0.1737
     36 H          -1.7051    1.5702    0.5888 H       1  UNL1        0.0655
@<TRIPOS>BOND
     1     1     2    1
     2     2     3   am
     3     2     6    1
     4     3     4   am
     5     3     5    2
     6     6     7   ar
     7     6    26   ar
     8     7     8   ar
     9     8     9   ar
    10     9    10   ar
    11    10    11    1
    12    10    26   ar
    13    11    12    1
    14    12    13    2
    15    12    14    2
    16    12    15    1
    17    15    16   ar
    18    15    24   ar
    19    16    17    1
    20    16    18   ar
    21    18    19    1
    22    18    20   ar
    23    20    21    1
    24    20    22   ar
    25    22    23    1
    26    22    24   ar
    27    24    25    1
    28     1    27    1
    29     1    28    1
    30     1    29    1
    31     4    30    1
    32     4    31    1
    33     7    32    1
    34     8    33    1
    35     9    34    1
    36    11    35    1
    37    26    36    1
@<TRIPOS>MOLECULE
../data/bude_mols_rdkit_confs/molecule_84.pdb
 36 37 0 0 0
SMALL
GASTEIGER

@<TRIPOS>ATOM
      1  C1         4.3720    0.3130   -2.0600 C.3     1  UNL1        0.0098
      2  N1         3.8290   -0.1740   -0.8170 N.am    1  UNL1       -0.2587
      3  C2         4.6490   -0.4930    0.2910 C.2     1  UNL1        0.3037
      4  N2         4.1650   -0.9720    1.5220 N.am    1  UNL1       -0.3129
      5  O1         5.8990   -0.3370    0.1630 O.2     1  UNL1       -0.2525
      6  C3         2.4250   -0.3410   -0.6960 C.ar    1  UNL1        0.0392
      7  C4         1.9150   -1.6140   -0.4980 C.ar    1  UNL1       -0.0401
      8  C5         0.5710   -1.8170   -0.3770 C.ar    1  UNL1       -0.0582
      9  C6        -0.2850   -0.7240   -0.4550 C.ar    1  UNL1       -0.0392
     10  C7         0.1610    0.5580   -0.6490 C.ar    1  UNL1        0.0498
     11  N3        -0.6910    1.6710   -0.7530 N.pl3   1  UNL1       -0.2160
     12  S1        -1.8790    2.0590    0.3890 S.O2    1  UNL1        0.0780
     13  O2        -2.4520    3.4220    0.0290 O.2     1  UNL1       -0.1498
     14  O3        -1.2200    2.2820    1.7530 O.2     1  UNL1       -0.1498
     15  C8        -3.1280    0.9010    0.6340 C.ar    1  UNL1        0.1843
     16  C9        -3.0370   -0.0330    1.6440 C.ar    1  UNL1        0.1907
     17  F1        -1.9380   -0.0300    2.4520 F       1  UNL1       -0.2002
     18  C10       -3.9970   -0.9880    1.9000 C.ar    1  UNL1        0.1983
     19  F2        -3.8860   -1.8980    2.9010 F       1  UNL1       -0.1993
     20  C11       -5.1050   -0.9840    1.0780 C.ar    1  UNL1        0.1992
     21  F3        -6.1150   -1.8960    1.2550 F       1  UNL1       -0.1993
     22  C12       -5.2180   -0.0590    0.0620 C.ar    1  UNL1        0.1983
     23  F4        -6.3100   -0.0420   -0.7620 F       1  UNL1       -0.1993
     24  C13       -4.2610    0.8880   -0.1880 C.ar    1  UNL1        0.1907
     25  F5        -4.3470    1.8100   -1.1820 F       1  UNL1       -0.2002
     26  C14        1.5480    0.7100   -0.7670 C.ar    1  UNL1       -0.0178
     27 H           5.4371    0.3798   -1.9821 H       1  UNL1        0.0433
     28 H           3.9684    1.2813   -2.2705 H       1  UNL1        0.0433
     29 H           4.1137   -0.3605   -2.8503 H       1  UNL1        0.0433
     30 H           3.1982   -1.1040    1.6531 H       1  UNL1        0.1465
     31 H           4.7931   -1.1752    2.2524 H       1  UNL1        0.1465
     32 H           2.5592   -2.4182   -0.4414 H       1  UNL1        0.0636
     33 H           0.1957   -2.7670   -0.2299 H       1  UNL1        0.0619
     34 H          -1.3002   -0.8847   -0.3629 H       1  UNL1        0.0636
     35 H          -0.5911    2.2595   -1.5359 H       1  UNL1        0.1737
     36 H           1.9279    1.6582   -0.9144 H       1  UNL1        0.0655
@<TRIPOS>BOND
     1     1     2    1
     2     2     3   am
     3     2     6    1
     4     3     4   am
     5     3     5    2
     6     6     7   ar
     7     6    26   ar
     8     7     8   ar
     9     8     9   ar
    10     9    10   ar
    11    10    11    1
    12    10    26   ar
    13    11    12    1
    14    12    13    2
    15    12    14    2
    16    12    15    1
    17    15    16   ar
    18    15    24   ar
    19    16    17    1
    20    16    18   ar
    21    18    19    1
    22    18    20   ar
    23    20    21    1
    24    20    22   ar
    25    22    23    1
    26    22    24   ar
    27    24    25    1
    28     1    27    1
    29     1    28    1
    30     1    29    1
    31     4    30    1
    32     4    31    1
    33     7    32    1
    34     8    33    1
    35     9    34    1
    36    11    35    1
    37    26    36    1
@<TRIPOS>MOLECULE
../data/bude_mols_rdkit_confs/molecule_84.pdb
 36 37 0 0 0
SMALL
GASTEIGER

@<TRIPOS>ATOM
      1  C1         3.0060    1.4160   -1.9970 C.3     1  UNL1        0.0098
      2  N1         2.9960    0.4920   -0.8830 N.am    1  UNL1       -0.2587
      3  C2         3.9170   -0.5840   -0.8720 C.2     1  UNL1        0.3037
      4  N2         3.9350   -1.5090    0.2060 N.am    1  UNL1       -0.3129
      5  O1         4.7210   -0.7170   -1.8260 O.2     1  UNL1       -0.2525
      6  C3         2.0540    0.7050    0.1640 C.ar    1  UNL1        0.0392
      7  C4         1.9930    1.9220    0.8110 C.ar    1  UNL1       -0.0401
      8  C5         1.0990    2.1780    1.8320 C.ar    1  UNL1       -0.0582
      9  C6         0.2420    1.1590    2.2040 C.ar    1  UNL1       -0.0392
     10  C7         0.2610   -0.0750    1.5920 C.ar    1  UNL1        0.0498
     11  N3        -0.6590   -1.0490    2.0500 N.pl3   1  UNL1       -0.2160
     12  S1        -1.5970   -2.0360    1.0060 S.O2    1  UNL1        0.0780
     13  O2        -0.7230   -2.8830    0.1270 O.2     1  UNL1       -0.1498
     14  O3        -2.4590   -2.9750    1.8000 O.2     1  UNL1       -0.1498
     15  C8        -2.6670   -1.0750   -0.0000 C.ar    1  UNL1        0.1843
     16  C9        -3.9320   -0.7890    0.4700 C.ar    1  UNL1        0.1907
     17  F1        -4.3060   -1.2560    1.6860 F       1  UNL1       -0.2002
     18  C10       -4.8020   -0.0340   -0.2960 C.ar    1  UNL1        0.1983
     19  F2        -6.0560    0.2680    0.1340 F       1  UNL1       -0.1993
     20  C11       -4.4030    0.4340   -1.5350 C.ar    1  UNL1        0.1992
     21  F3        -5.2360    1.1840   -2.3220 F       1  UNL1       -0.1993
     22  C12       -3.1550    0.1630   -2.0210 C.ar    1  UNL1        0.1983
     23  F4        -2.7420    0.6070   -3.2240 F       1  UNL1       -0.1993
     24  C13       -2.2970   -0.5960   -1.2370 C.ar    1  UNL1        0.1907
     25  F5        -1.0690   -0.8660   -1.7090 F       1  UNL1       -0.2002
     26  C14        1.1710   -0.2770    0.5800 C.ar    1  UNL1       -0.0178
     27 H           3.7628    1.1248   -2.6951 H       1  UNL1        0.0433
     28 H           3.2114    2.4034   -1.6396 H       1  UNL1        0.0433
     29 H           2.0512    1.4029   -2.4798 H       1  UNL1        0.0433
     30 H           3.3042   -1.4048    0.9546 H       1  UNL1        0.1465
     31 H           4.5783   -2.2543    0.2044 H       1  UNL1        0.1465
     32 H           2.6411    2.6707    0.5205 H       1  UNL1        0.0636
     33 H           1.0717    3.0971    2.3005 H       1  UNL1        0.0619
     34 H          -0.4341    1.3283    2.9651 H       1  UNL1        0.0636
     35 H          -0.7664   -1.1664    3.0215 H       1  UNL1        0.1737
     36 H           1.1964   -1.1967    0.1126 H       1  UNL1        0.0655
@<TRIPOS>BOND
     1     1     2    1
     2     2     3   am
     3     2     6    1
     4     3     4   am
     5     3     5    2
     6     6     7   ar
     7     6    26   ar
     8     7     8   ar
     9     8     9   ar
    10     9    10   ar
    11    10    11    1
    12    10    26   ar
    13    11    12    1
    14    12    13    2
    15    12    14    2
    16    12    15    1
    17    15    16   ar
    18    15    24   ar
    19    16    17    1
    20    16    18   ar
    21    18    19    1
    22    18    20   ar
    23    20    21    1
    24    20    22   ar
    25    22    23    1
    26    22    24   ar
    27    24    25    1
    28     1    27    1
    29     1    28    1
    30     1    29    1
    31     4    30    1
    32     4    31    1
    33     7    32    1
    34     8    33    1
    35     9    34    1
    36    11    35    1
    37    26    36    1
@<TRIPOS>MOLECULE
../data/bude_mols_rdkit_confs/molecule_84.pdb
 36 37 0 0 0
SMALL
GASTEIGER

@<TRIPOS>ATOM
      1  C1         3.6850    2.3730   -0.8430 C.3     1  UNL1        0.0098
      2  N1         3.9090    0.9540   -0.4390 N.am    1  UNL1       -0.2587
      3  C2         5.2070    0.5120   -0.2240 C.2     1  UNL1        0.3037
      4  N2         5.6290   -0.7740    0.1280 N.am    1  UNL1       -0.3129
      5  O1         6.1510    1.3840   -0.3610 O.2     1  UNL1       -0.2525
      6  C3         2.7400    0.1690   -0.3150 C.ar    1  UNL1        0.0392
      7  C4         2.7820   -1.1970   -0.3510 C.ar    1  UNL1       -0.0401
      8  C5         1.5780   -1.8880   -0.2190 C.ar    1  UNL1       -0.0582
      9  C6         0.3820   -1.2190   -0.0610 C.ar    1  UNL1       -0.0392
     10  C7         0.3090    0.1560   -0.0220 C.ar    1  UNL1        0.0498
     11  N3        -0.9210    0.8530    0.1310 N.pl3   1  UNL1       -0.2160
     12  S1        -2.1380    0.5610    1.2700 S.O2    1  UNL1        0.0780
     13  O2        -2.4610    1.8360    2.0080 O.2     1  UNL1       -0.1498
     14  O3        -1.6860   -0.4260    2.3260 O.2     1  UNL1       -0.1498
     15  C8        -3.5730   -0.0400    0.4790 C.ar    1  UNL1        0.1843
     16  C9        -3.8130   -1.3910    0.3750 C.ar    1  UNL1        0.1907
     17  F1        -2.9600   -2.3290    0.9040 F       1  UNL1       -0.2002
     18  C10       -4.9600   -1.8530   -0.2650 C.ar    1  UNL1        0.1983
     19  F2        -5.1640   -3.2030   -0.3370 F       1  UNL1       -0.1993
     20  C11       -5.8590   -0.9660   -0.7970 C.ar    1  UNL1        0.1992
     21  F3        -6.9570   -1.4880   -1.3980 F       1  UNL1       -0.1993
     22  C12       -5.6450    0.3880   -0.7090 C.ar    1  UNL1        0.1983
     23  F4        -6.5690    1.2230   -1.2510 F       1  UNL1       -0.1993
     24  C13       -4.5110    0.8340   -0.0750 C.ar    1  UNL1        0.1907
     25  F5        -4.2910    2.1780    0.0150 F       1  UNL1       -0.2002
     26  C14        1.5070    0.8220   -0.1530 C.ar    1  UNL1       -0.0178
     27 H           4.6260    2.8781   -0.9082 H       1  UNL1        0.0433
     28 H           3.0695    2.8583   -0.1146 H       1  UNL1        0.0433
     29 H           3.1989    2.4001   -1.7958 H       1  UNL1        0.0433
     30 H           4.9675   -1.4928    0.2506 H       1  UNL1        0.1465
     31 H           6.5875   -0.9605    0.2532 H       1  UNL1        0.1465
     32 H           3.6750   -1.7000   -0.4718 H       1  UNL1        0.0636
     33 H           1.5818   -2.9198   -0.2399 H       1  UNL1        0.0619
     34 H          -0.4875   -1.7672    0.0311 H       1  UNL1        0.0636
     35 H          -1.0835    1.5916   -0.4993 H       1  UNL1        0.1737
     36 H           1.4986    1.8537   -0.1310 H       1  UNL1        0.0655
@<TRIPOS>BOND
     1     1     2    1
     2     2     3   am
     3     2     6    1
     4     3     4   am
     5     3     5    2
     6     6     7   ar
     7     6    26   ar
     8     7     8   ar
     9     8     9   ar
    10     9    10   ar
    11    10    11    1
    12    10    26   ar
    13    11    12    1
    14    12    13    2
    15    12    14    2
    16    12    15    1
    17    15    16   ar
    18    15    24   ar
    19    16    17    1
    20    16    18   ar
    21    18    19    1
    22    18    20   ar
    23    20    21    1
    24    20    22   ar
    25    22    23    1
    26    22    24   ar
    27    24    25    1
    28     1    27    1
    29     1    28    1
    30     1    29    1
    31     4    30    1
    32     4    31    1
    33     7    32    1
    34     8    33    1
    35     9    34    1
    36    11    35    1
    37    26    36    1
@<TRIPOS>MOLECULE
../data/bude_mols_rdkit_confs/molecule_84.pdb
 36 37 0 0 0
SMALL
GASTEIGER

@<TRIPOS>ATOM
      1  C1        -4.5910    0.1010   -1.3190 C.3     1  UNL1        0.0098
      2  N1        -3.5160    0.5790   -0.4290 N.am    1  UNL1       -0.2587
      3  C2        -3.4940    1.9510   -0.1370 C.2     1  UNL1        0.3037
      4  N2        -2.5660    2.6090    0.7000 N.am    1  UNL1       -0.3129
      5  O1        -4.3730    2.7490   -0.6440 O.2     1  UNL1       -0.2525
      6  C3        -2.6090   -0.3830    0.0440 C.ar    1  UNL1        0.0392
      7  C4        -2.9170   -1.7550   -0.0500 C.ar    1  UNL1       -0.0401
      8  C5        -2.0730   -2.7410    0.3720 C.ar    1  UNL1       -0.0582
      9  C6        -0.8670   -2.4030    0.9150 C.ar    1  UNL1       -0.0392
     10  C7        -0.5010   -1.0860    1.0390 C.ar    1  UNL1        0.0498
     11  N3         0.7640   -0.7590    1.6300 N.pl3   1  UNL1       -0.2160
     12  S1         2.1740   -1.4560    0.9750 S.O2    1  UNL1        0.0780
     13  O2         1.8350   -2.3720   -0.1810 O.2     1  UNL1       -0.1498
     14  O3         2.8940   -2.2160    2.0400 O.2     1  UNL1       -0.1498
     15  C8         3.2390   -0.2410    0.3220 C.ar    1  UNL1        0.1843
     16  C9         4.2310    0.2530    1.1400 C.ar    1  UNL1        0.1907
     17  F1         4.3960   -0.1800    2.4090 F       1  UNL1       -0.2002
     18  C10        5.1150    1.2350    0.6820 C.ar    1  UNL1        0.1983
     19  F2         6.1000    1.7420    1.4570 F       1  UNL1       -0.1993
     20  C11        4.9870    1.7080   -0.6040 C.ar    1  UNL1        0.1992
     21  F3         5.8070    2.6590   -1.1210 F       1  UNL1       -0.1993
     22  C12        3.9930    1.2030   -1.4030 C.ar    1  UNL1        0.1983
     23  F4         3.8650    1.6720   -2.6720 F       1  UNL1       -0.1993
     24  C13        3.1030    0.2200   -0.9500 C.ar    1  UNL1        0.1907
     25  F5         2.1290   -0.2710   -1.7350 F       1  UNL1       -0.2002
     26  C14       -1.3810   -0.1150    0.6010 C.ar    1  UNL1       -0.0178
     27 H          -5.2089    0.9258   -1.6068 H       1  UNL1        0.0433
     28 H          -5.1836   -0.6260   -0.8040 H       1  UNL1        0.0433
     29 H          -4.1602   -0.3435   -2.1918 H       1  UNL1        0.0433
     30 H          -1.8503    2.0961    1.1403 H       1  UNL1        0.1465
     31 H          -2.6348    3.5806    0.8431 H       1  UNL1        0.1465
     32 H          -3.8250   -2.0274   -0.4578 H       1  UNL1        0.0636
     33 H          -2.3439   -3.7327    0.2815 H       1  UNL1        0.0619
     34 H          -0.2246   -3.1445    1.2352 H       1  UNL1        0.0636
     35 H           0.8166   -0.1449    2.3977 H       1  UNL1        0.1737
     36 H          -1.0989    0.8729    0.6980 H       1  UNL1        0.0655
@<TRIPOS>BOND
     1     1     2    1
     2     2     3   am
     3     2     6    1
     4     3     4   am
     5     3     5    2
     6     6     7   ar
     7     6    26   ar
     8     7     8   ar
     9     8     9   ar
    10     9    10   ar
    11    10    11    1
    12    10    26   ar
    13    11    12    1
    14    12    13    2
    15    12    14    2
    16    12    15    1
    17    15    16   ar
    18    15    24   ar
    19    16    17    1
    20    16    18   ar
    21    18    19    1
    22    18    20   ar
    23    20    21    1
    24    20    22   ar
    25    22    23    1
    26    22    24   ar
    27    24    25    1
    28     1    27    1
    29     1    28    1
    30     1    29    1
    31     4    30    1
    32     4    31    1
    33     7    32    1
    34     8    33    1
    35     9    34    1
    36    11    35    1
    37    26    36    1
@<TRIPOS>MOLECULE
../data/bude_mols_rdkit_confs/molecule_84.pdb
 36 37 0 0 0
SMALL
GASTEIGER

@<TRIPOS>ATOM
      1  C1        -4.1610   -0.5040    1.3130 C.3     1  UNL1        0.0098
      2  N1        -3.0900   -0.3530    0.3560 N.am    1  UNL1       -0.2587
      3  C2        -2.8260   -1.3690   -0.5800 C.2     1  UNL1        0.3037
      4  N2        -3.5560   -2.5760   -0.6490 N.am    1  UNL1       -0.3129
      5  O1        -1.8890   -1.2450   -1.4320 O.2     1  UNL1       -0.2525
      6  C3        -2.3050    0.8280    0.3630 C.ar    1  UNL1        0.0392
      7  C4        -2.8950    2.0700    0.5430 C.ar    1  UNL1       -0.0401
      8  C5        -2.1350    3.2150    0.5510 C.ar    1  UNL1       -0.0582
      9  C6        -0.7730    3.1870    0.3820 C.ar    1  UNL1       -0.0392
     10  C7        -0.1670    1.9350    0.1990 C.ar    1  UNL1        0.0498
     11  N3         1.2430    1.9220    0.0210 N.pl3   1  UNL1       -0.2160
     12  S1         1.9400    0.9990   -1.2240 S.O2    1  UNL1        0.0780
     13  O2         0.8580    0.4980   -2.1590 O.2     1  UNL1       -0.1498
     14  O3         2.7860    1.9530   -2.0570 O.2     1  UNL1       -0.1498
     15  C8         2.9360   -0.3040   -0.7110 C.ar    1  UNL1        0.1843
     16  C9         4.2740   -0.0280   -0.4340 C.ar    1  UNL1        0.1907
     17  F1         4.7270    1.2370   -0.5660 F       1  UNL1       -0.2002
     18  C10        5.1650   -0.9960   -0.0270 C.ar    1  UNL1        0.1983
     19  F2         6.4770   -0.7030    0.2400 F       1  UNL1       -0.1993
     20  C11        4.7370   -2.2940    0.1170 C.ar    1  UNL1        0.1992
     21  F3         5.6150   -3.2410    0.5170 F       1  UNL1       -0.1993
     22  C12        3.4290   -2.6120   -0.1450 C.ar    1  UNL1        0.1983
     23  F4         2.9690   -3.8920   -0.0120 F       1  UNL1       -0.1993
     24  C13        2.5430   -1.6110   -0.5560 C.ar    1  UNL1        0.1907
     25  F5         1.2660   -1.9380   -0.8230 F       1  UNL1       -0.2002
     26  C14       -0.9300    0.8020    0.1930 C.ar    1  UNL1       -0.0178
     27 H          -4.6425   -1.4478    1.1635 H       1  UNL1        0.0433
     28 H          -4.8722    0.2843    1.1797 H       1  UNL1        0.0433
     29 H          -3.7619   -0.4604    2.3048 H       1  UNL1        0.0433
     30 H          -4.2956   -2.7406   -0.0204 H       1  UNL1        0.1465
     31 H          -3.3252   -3.2529   -1.3257 H       1  UNL1        0.1465
     32 H          -3.9168    2.1352    0.6725 H       1  UNL1        0.0636
     33 H          -2.6030    4.1245    0.6884 H       1  UNL1        0.0619
     34 H          -0.2152    4.0552    0.3893 H       1  UNL1        0.0636
     35 H           1.8180    2.4496    0.6212 H       1  UNL1        0.1737
     36 H          -0.4643   -0.1088    0.0566 H       1  UNL1        0.0655
@<TRIPOS>BOND
     1     1     2    1
     2     2     3   am
     3     2     6    1
     4     3     4   am
     5     3     5    2
     6     6     7   ar
     7     6    26   ar
     8     7     8   ar
     9     8     9   ar
    10     9    10   ar
    11    10    11    1
    12    10    26   ar
    13    11    12    1
    14    12    13    2
    15    12    14    2
    16    12    15    1
    17    15    16   ar
    18    15    24   ar
    19    16    17    1
    20    16    18   ar
    21    18    19    1
    22    18    20   ar
    23    20    21    1
    24    20    22   ar
    25    22    23    1
    26    22    24   ar
    27    24    25    1
    28     1    27    1
    29     1    28    1
    30     1    29    1
    31     4    30    1
    32     4    31    1
    33     7    32    1
    34     8    33    1
    35     9    34    1
    36    11    35    1
    37    26    36    1
@<TRIPOS>MOLECULE
../data/bude_mols_rdkit_confs/molecule_84.pdb
 36 37 0 0 0
SMALL
GASTEIGER

@<TRIPOS>ATOM
      1  C1         4.2330   -2.0390    0.4930 C.3     1  UNL1        0.0098
      2  N1         3.8650   -0.6590    0.2010 N.am    1  UNL1       -0.2587
      3  C2         4.8260    0.3620    0.2680 C.2     1  UNL1        0.3037
      4  N2         4.4780    1.6970    0.0050 N.am    1  UNL1       -0.3129
      5  O1         6.0290    0.0640    0.5730 O.2     1  UNL1       -0.2525
      6  C3         2.5150   -0.4230   -0.1450 C.ar    1  UNL1        0.0392
      7  C4         2.2280   -0.1120   -1.4800 C.ar    1  UNL1       -0.0401
      8  C5         0.9090    0.0740   -1.8010 C.ar    1  UNL1       -0.0582
      9  C6        -0.0800   -0.0450   -0.8360 C.ar    1  UNL1       -0.0392
     10  C7         0.1660   -0.3480    0.4850 C.ar    1  UNL1        0.0498
     11  N3        -0.7920   -0.4860    1.5010 N.pl3   1  UNL1       -0.2160
     12  S1        -2.1490    0.4800    1.7480 S.O2    1  UNL1        0.0780
     13  O2        -1.7510    1.9540    1.9500 O.2     1  UNL1       -0.1498
     14  O3        -2.8190    0.1150    3.0560 O.2     1  UNL1       -0.1498
     15  C8        -3.2810    0.4390    0.4320 C.ar    1  UNL1        0.1843
     16  C9        -4.1440   -0.6090    0.3080 C.ar    1  UNL1        0.1907
     17  F1        -4.0560   -1.6450    1.1960 F       1  UNL1       -0.2002
     18  C10       -5.0900   -0.6790   -0.6690 C.ar    1  UNL1        0.1983
     19  F2        -5.9340   -1.7520   -0.7630 F       1  UNL1       -0.1993
     20  C11       -5.1830    0.3640   -1.5790 C.ar    1  UNL1        0.1992
     21  F3        -6.0970    0.3520   -2.5660 F       1  UNL1       -0.1993
     22  C12       -4.3120    1.4520   -1.4740 C.ar    1  UNL1        0.1983
     23  F4        -4.4430    2.4450   -2.3860 F       1  UNL1       -0.1993
     24  C13       -3.3610    1.4800   -0.4620 C.ar    1  UNL1        0.1907
     25  F5        -2.5120    2.5210   -0.3500 F       1  UNL1       -0.2002
     26  C14        1.5320   -0.5340    0.7850 C.ar    1  UNL1       -0.0178
     27 H           5.2732   -2.0863    0.7394 H       1  UNL1        0.0433
     28 H           4.0418   -2.6484   -0.3655 H       1  UNL1        0.0433
     29 H           3.6542   -2.3953    1.3194 H       1  UNL1        0.0433
     30 H           3.5500    1.9266   -0.2302 H       1  UNL1        0.1465
     31 H           5.1621    2.4032    0.0559 H       1  UNL1        0.1465
     32 H           2.9741   -0.0270   -2.1879 H       1  UNL1        0.0636
     33 H           0.6484    0.3054   -2.7724 H       1  UNL1        0.0619
     34 H          -1.0596    0.1024   -1.1252 H       1  UNL1        0.0636
     35 H          -0.6565   -1.2256    2.1365 H       1  UNL1        0.1737
     36 H           1.7961   -0.7649    1.7555 H       1  UNL1        0.0655
@<TRIPOS>BOND
     1     1     2    1
     2     2     3   am
     3     2     6    1
     4     3     4   am
     5     3     5    2
     6     6     7   ar
     7     6    26   ar
     8     7     8   ar
     9     8     9   ar
    10     9    10   ar
    11    10    11    1
    12    10    26   ar
    13    11    12    1
    14    12    13    2
    15    12    14    2
    16    12    15    1
    17    15    16   ar
    18    15    24   ar
    19    16    17    1
    20    16    18   ar
    21    18    19    1
    22    18    20   ar
    23    20    21    1
    24    20    22   ar
    25    22    23    1
    26    22    24   ar
    27    24    25    1
    28     1    27    1
    29     1    28    1
    30     1    29    1
    31     4    30    1
    32     4    31    1
    33     7    32    1
    34     8    33    1
    35     9    34    1
    36    11    35    1
    37    26    36    1
@<TRIPOS>MOLECULE
../data/bude_mols_rdkit_confs/molecule_84.pdb
 36 37 0 0 0
SMALL
GASTEIGER

@<TRIPOS>ATOM
      1  C1        -4.8060   -0.7320    1.1630 C.3     1  UNL1        0.0098
      2  N1        -3.7300    0.0940    0.6120 N.am    1  UNL1       -0.2587
      3  C2        -3.7820    1.5050    0.7780 C.2     1  UNL1        0.3037
      4  N2        -2.8190    2.4100    0.3080 N.am    1  UNL1       -0.3129
      5  O1        -4.7680    2.0070    1.3990 O.2     1  UNL1       -0.2525
      6  C3        -2.6840   -0.5630   -0.0630 C.ar    1  UNL1        0.0392
      7  C4        -2.9430   -1.1490   -1.2870 C.ar    1  UNL1       -0.0401
      8  C5        -1.9820   -1.8180   -2.0100 C.ar    1  UNL1       -0.0582
      9  C6        -0.7090   -1.9130   -1.5010 C.ar    1  UNL1       -0.0392
     10  C7        -0.4180   -1.3320   -0.2690 C.ar    1  UNL1        0.0498
     11  N3         0.9250   -1.5020    0.2120 N.pl3   1  UNL1       -0.2160
     12  S1         2.2980   -1.2280   -0.7770 S.O2    1  UNL1        0.0780
     13  O2         1.7670   -0.7130   -2.1110 O.2     1  UNL1       -0.1498
     14  O3         3.0610   -2.4930   -1.0560 O.2     1  UNL1       -0.1498
     15  C8         3.3400    0.0520   -0.1830 C.ar    1  UNL1        0.1843
     16  C9         3.1740    1.3790   -0.4960 C.ar    1  UNL1        0.1907
     17  F1         2.1420    1.7490   -1.2700 F       1  UNL1       -0.2002
     18  C10        4.0310    2.3700   -0.0410 C.ar    1  UNL1        0.1983
     19  F2         3.8730    3.6780   -0.3460 F       1  UNL1       -0.1993
     20  C11        5.0740    1.9740    0.7510 C.ar    1  UNL1        0.1992
     21  F3         5.9530    2.9080    1.2310 F       1  UNL1       -0.1993
     22  C12        5.2970    0.6680    1.1020 C.ar    1  UNL1        0.1983
     23  F4         6.3440    0.3170    1.8930 F       1  UNL1       -0.1993
     24  C13        4.4250   -0.2870    0.6310 C.ar    1  UNL1        0.1907
     25  F5         4.5780   -1.6070    0.9310 F       1  UNL1       -0.2002
     26  C14       -1.4000   -0.6670    0.4320 C.ar    1  UNL1       -0.0178
     27 H          -5.5265   -0.1044    1.6446 H       1  UNL1        0.0433
     28 H          -4.3991   -1.4193    1.8750 H       1  UNL1        0.0433
     29 H          -5.2788   -1.2759    0.3721 H       1  UNL1        0.0433
     30 H          -2.0309    2.0802   -0.1813 H       1  UNL1        0.1465
     31 H          -2.9311    3.3750    0.4674 H       1  UNL1        0.1465
     32 H          -3.8968   -1.0823   -1.6753 H       1  UNL1        0.0636
     33 H          -2.2140   -2.2424   -2.9216 H       1  UNL1        0.0619
     34 H           0.0257   -2.4110   -2.0275 H       1  UNL1        0.0636
     35 H           1.0619   -1.7865    1.1445 H       1  UNL1        0.1737
     36 H          -1.1715   -0.2393    1.3430 H       1  UNL1        0.0655
@<TRIPOS>BOND
     1     1     2    1
     2     2     3   am
     3     2     6    1
     4     3     4   am
     5     3     5    2
     6     6     7   ar
     7     6    26   ar
     8     7     8   ar
     9     8     9   ar
    10     9    10   ar
    11    10    11    1
    12    10    26   ar
    13    11    12    1
    14    12    13    2
    15    12    14    2
    16    12    15    1
    17    15    16   ar
    18    15    24   ar
    19    16    17    1
    20    16    18   ar
    21    18    19    1
    22    18    20   ar
    23    20    21    1
    24    20    22   ar
    25    22    23    1
    26    22    24   ar
    27    24    25    1
    28     1    27    1
    29     1    28    1
    30     1    29    1
    31     4    30    1
    32     4    31    1
    33     7    32    1
    34     8    33    1
    35     9    34    1
    36    11    35    1
    37    26    36    1
@<TRIPOS>MOLECULE
../data/bude_mols_rdkit_confs/molecule_84.pdb
 36 37 0 0 0
SMALL
GASTEIGER

@<TRIPOS>ATOM
      1  C1        -4.4560    1.7280   -0.2290 C.3     1  UNL1        0.0098
      2  N1        -3.9370    0.4090    0.0740 N.am    1  UNL1       -0.2587
      3  C2        -4.7400   -0.4910    0.8080 C.2     1  UNL1        0.3037
      4  N2        -6.0410   -0.1280    1.2520 N.am    1  UNL1       -0.3129
      5  O1        -4.3370   -1.6560    1.1010 O.2     1  UNL1       -0.2525
      6  C3        -2.6400    0.0200   -0.3590 C.ar    1  UNL1        0.0392
      7  C4        -2.4390   -0.5810   -1.5900 C.ar    1  UNL1       -0.0401
      8  C5        -1.1740   -0.9530   -1.9960 C.ar    1  UNL1       -0.0582
      9  C6        -0.0450   -0.7500   -1.2080 C.ar    1  UNL1       -0.0392
     10  C7        -0.2290   -0.1570    0.0130 C.ar    1  UNL1        0.0498
     11  N3         0.8550    0.0910    0.8800 N.pl3   1  UNL1       -0.2160
     12  S1         2.0780   -1.0300    1.2330 S.O2    1  UNL1        0.0780
     13  O2         1.8140   -2.3890    0.6550 O.2     1  UNL1       -0.1498
     14  O3         2.1690   -1.2290    2.7370 O.2     1  UNL1       -0.1498
     15  C8         3.6060   -0.4270    0.6340 C.ar    1  UNL1        0.1843
     16  C9         4.2850    0.4350    1.5010 C.ar    1  UNL1        0.1907
     17  F1         3.7500    0.7630    2.7070 F       1  UNL1       -0.2002
     18  C10        5.4920    0.9520    1.1340 C.ar    1  UNL1        0.1983
     19  F2         6.1570    1.7890    1.9680 F       1  UNL1       -0.1993
     20  C11        6.0160    0.6110   -0.0860 C.ar    1  UNL1        0.1992
     21  F3         7.2170    1.1280   -0.4450 F       1  UNL1       -0.1993
     22  C12        5.3880   -0.2310   -0.9710 C.ar    1  UNL1        0.1983
     23  F4         5.9040   -0.5670   -2.1710 F       1  UNL1       -0.1993
     24  C13        4.1500   -0.7530   -0.5780 C.ar    1  UNL1        0.1907
     25  F5         3.4970   -1.5910   -1.3930 F       1  UNL1       -0.2002
     26  C14       -1.5200    0.2180    0.4170 C.ar    1  UNL1       -0.0178
     27 H          -5.4399    1.8267    0.1798 H       1  UNL1        0.0433
     28 H          -4.4957    1.8606   -1.2900 H       1  UNL1        0.0433
     29 H          -3.8156    2.4704    0.1995 H       1  UNL1        0.0433
     30 H          -6.3987    0.7665    1.0490 H       1  UNL1        0.1465
     31 H          -6.5842   -0.7711    1.7624 H       1  UNL1        0.1465
     32 H          -3.2450   -0.7527   -2.2112 H       1  UNL1        0.0636
     33 H          -1.0606   -1.3990   -2.9197 H       1  UNL1        0.0619
     34 H           0.8930   -1.0348   -1.5306 H       1  UNL1        0.0636
     35 H           0.9054    0.9753    1.3098 H       1  UNL1        0.1737
     36 H          -1.6352    0.6638    1.3406 H       1  UNL1        0.0655
@<TRIPOS>BOND
     1     1     2    1
     2     2     3   am
     3     2     6    1
     4     3     4   am
     5     3     5    2
     6     6     7   ar
     7     6    26   ar
     8     7     8   ar
     9     8     9   ar
    10     9    10   ar
    11    10    11    1
    12    10    26   ar
    13    11    12    1
    14    12    13    2
    15    12    14    2
    16    12    15    1
    17    15    16   ar
    18    15    24   ar
    19    16    17    1
    20    16    18   ar
    21    18    19    1
    22    18    20   ar
    23    20    21    1
    24    20    22   ar
    25    22    23    1
    26    22    24   ar
    27    24    25    1
    28     1    27    1
    29     1    28    1
    30     1    29    1
    31     4    30    1
    32     4    31    1
    33     7    32    1
    34     8    33    1
    35     9    34    1
    36    11    35    1
    37    26    36    1
@<TRIPOS>MOLECULE
../data/bude_mols_rdkit_confs/molecule_84.pdb
 36 37 0 0 0
SMALL
GASTEIGER

@<TRIPOS>ATOM
      1  C1        -4.4640    0.2810    0.8080 C.3     1  UNL1        0.0098
      2  N1        -3.1810   -0.2980    0.4690 N.am    1  UNL1       -0.2587
      3  C2        -3.0580   -1.6960    0.4740 C.2     1  UNL1        0.3037
      4  N2        -4.1560   -2.5130    0.8020 N.am    1  UNL1       -0.3129
      5  O1        -1.9620   -2.2180    0.1850 O.2     1  UNL1       -0.2525
      6  C3        -2.0860    0.5640    0.1410 C.ar    1  UNL1        0.0392
      7  C4        -1.9560    1.7490    0.8390 C.ar    1  UNL1       -0.0401
      8  C5        -0.9220    2.6330    0.5750 C.ar    1  UNL1       -0.0582
      9  C6        -0.0350    2.2960   -0.3960 C.ar    1  UNL1       -0.0392
     10  C7        -0.1050    1.1200   -1.1390 C.ar    1  UNL1        0.0498
     11  N3         0.8540    0.8250   -2.1450 N.pl3   1  UNL1       -0.2160
     12  S1         2.5350    1.0110   -1.9790 S.O2    1  UNL1        0.0780
     13  O2         3.2160    0.5830   -3.2470 O.2     1  UNL1       -0.1498
     14  O3         2.9470    2.4360   -1.7500 O.2     1  UNL1       -0.1498
     15  C8         3.1350   -0.0260   -0.6850 C.ar    1  UNL1        0.1843
     16  C9         3.2070    0.4380    0.5970 C.ar    1  UNL1        0.1907
     17  F1         2.8200    1.7050    0.9050 F       1  UNL1       -0.2002
     18  C10        3.6850   -0.4150    1.5760 C.ar    1  UNL1        0.1983
     19  F2         3.7530    0.0520    2.8470 F       1  UNL1       -0.1993
     20  C11        4.0760   -1.7020    1.2430 C.ar    1  UNL1        0.1992
     21  F3         4.5430   -2.5150    2.2320 F       1  UNL1       -0.1993
     22  C12        4.0090   -2.1830   -0.0460 C.ar    1  UNL1        0.1983
     23  F4         4.3980   -3.4430   -0.3410 F       1  UNL1       -0.1993
     24  C13        3.5230   -1.2980   -1.0050 C.ar    1  UNL1        0.1907
     25  F5         3.4520   -1.7530   -2.2700 F       1  UNL1       -0.2002
     26  C14       -1.1620    0.2820   -0.8250 C.ar    1  UNL1       -0.0178
     27 H          -5.1622   -0.5006    1.0238 H       1  UNL1        0.0433
     28 H          -4.8222    0.8617   -0.0162 H       1  UNL1        0.0433
     29 H          -4.3558    0.9097    1.6670 H       1  UNL1        0.0433
     30 H          -5.0223   -2.1049    1.0306 H       1  UNL1        0.1465
     31 H          -4.0578   -3.4926    0.8029 H       1  UNL1        0.1465
     32 H          -2.6436    1.9809    1.5728 H       1  UNL1        0.0636
     33 H          -0.8294    3.5174    1.0987 H       1  UNL1        0.0619
     34 H           0.7375    2.9505   -0.5956 H       1  UNL1        0.0636
     35 H           0.5182    0.4861   -3.0062 H       1  UNL1        0.1737
     36 H          -1.2567   -0.6023   -1.3485 H       1  UNL1        0.0655
@<TRIPOS>BOND
     1     1     2    1
     2     2     3   am
     3     2     6    1
     4     3     4   am
     5     3     5    2
     6     6     7   ar
     7     6    26   ar
     8     7     8   ar
     9     8     9   ar
    10     9    10   ar
    11    10    11    1
    12    10    26   ar
    13    11    12    1
    14    12    13    2
    15    12    14    2
    16    12    15    1
    17    15    16   ar
    18    15    24   ar
    19    16    17    1
    20    16    18   ar
    21    18    19    1
    22    18    20   ar
    23    20    21    1
    24    20    22   ar
    25    22    23    1
    26    22    24   ar
    27    24    25    1
    28     1    27    1
    29     1    28    1
    30     1    29    1
    31     4    30    1
    32     4    31    1
    33     7    32    1
    34     8    33    1
    35     9    34    1
    36    11    35    1
    37    26    36    1
