@<TRIPOS>MOLECULE
../data/bude_mols_rdkit_confs/molecule_97.pdb
 49 52 0 0 0
SMALL
GASTEIGER

@<TRIPOS>ATOM
      1  O1         4.8520    0.8820   -0.5080 O.2     1  UNL1       -0.2687
      2  C1         4.8420   -0.2350    0.0650 C.2     1  UNL1        0.2601
      3  N1         3.6020   -0.7470    0.5050 N.am    1  UNL1       -0.2301
      4  N2         2.3800   -0.0750    0.3380 N.am    1  UNL1       -0.2301
      5  C2         1.9930    0.3690   -0.9290 C.2     1  UNL1        0.2602
      6  O2         2.7520    0.1640   -1.9070 O.2     1  UNL1       -0.2687
      7  C3         0.7140    1.0750   -1.1400 C.ar    1  UNL1        0.0400
      8  C4         0.4940    1.7180   -2.3450 C.ar    1  UNL1       -0.0495
      9  C5        -0.6860    2.3860   -2.5940 C.ar    1  UNL1       -0.0592
     10  C6        -1.6630    2.4140   -1.6280 C.ar    1  UNL1       -0.0350
     11  C7        -1.4510    1.7730   -0.4190 C.ar    1  UNL1        0.1094
     12  S1        -2.7130    1.8100    0.8210 S.O2    1  UNL1        0.0747
     13  O3        -2.1090    1.7280    2.1980 O.2     1  UNL1       -0.1498
     14  O4        -3.4590    3.1140    0.6830 O.2     1  UNL1       -0.1498
     15  N3        -3.7690    0.4570    0.6010 N.pl3   1  UNL1       -0.2024
     16  C8        -3.3530   -0.9120    0.6830 C.3     1  UNL1        0.0390
     17  C9        -4.5130   -1.7310    0.1890 C.3     1  UNL1       -0.0083
     18  C10       -5.6510   -0.7750    0.0690 C.ar    1  UNL1       -0.0232
     19  C11       -6.9670   -1.0430   -0.2320 C.ar    1  UNL1       -0.0567
     20  C12       -7.8680    0.0170   -0.2900 C.ar    1  UNL1       -0.0614
     21  C13       -7.3920    1.2890   -0.0410 C.ar    1  UNL1       -0.0599
     22  C14       -6.0830    1.5360    0.2550 C.ar    1  UNL1       -0.0388
     23  C15       -5.1720    0.4820    0.3160 C.ar    1  UNL1        0.0545
     24  C16       -0.2540    1.1010   -0.1770 C.ar    1  UNL1       -0.0229
     25  C17        6.1160   -0.9470    0.2440 C.ar    1  UNL1        0.0382
     26  C18        7.2660   -0.4640   -0.3880 C.ar    1  UNL1       -0.0496
     27  C19        8.4550   -1.1220   -0.2180 C.ar    1  UNL1       -0.0610
     28  C20        8.5970   -2.2580    0.5540 C.ar    1  UNL1       -0.0617
     29  C21        7.4560   -2.7230    1.1730 C.ar    1  UNL1       -0.0610
     30  C22        6.2550   -2.0740    1.0120 C.ar    1  UNL1       -0.0496
     31 H           3.5934   -1.6233    0.9536 H       1  UNL1        0.1731
     32 H           1.7957    0.0833    1.1143 H       1  UNL1        0.1731
     33 H           1.2270    1.6972   -3.0712 H       1  UNL1        0.0625
     34 H          -0.8343    2.8610   -3.4981 H       1  UNL1        0.0618
     35 H          -2.5507    2.9105   -1.8028 H       1  UNL1        0.0637
     36 H          -3.1211   -1.1696    1.6953 H       1  UNL1        0.0485
     37 H          -2.4735   -1.0887    0.0998 H       1  UNL1        0.0485
     38 H          -4.7479   -2.5067    0.8876 H       1  UNL1        0.0330
     39 H          -4.2944   -2.2081   -0.7435 H       1  UNL1        0.0330
     40 H          -7.2797   -2.0101   -0.4111 H       1  UNL1        0.0621
     41 H          -8.8628   -0.1434   -0.5127 H       1  UNL1        0.0618
     42 H          -8.0507    2.0824   -0.0802 H       1  UNL1        0.0618
     43 H          -5.7674    2.5022    0.4336 H       1  UNL1        0.0637
     44 H          -0.1000    0.6253    0.7258 H       1  UNL1        0.0645
     45 H           7.2192    0.3815   -0.9778 H       1  UNL1        0.0625
     46 H           9.2913   -0.7481   -0.6933 H       1  UNL1        0.0618
     47 H           9.5069   -2.7328    0.6618 H       1  UNL1        0.0618
     48 H           7.5042   -3.5678    1.7638 H       1  UNL1        0.0618
     49 H           5.4219   -2.4515    1.4900 H       1  UNL1        0.0625
@<TRIPOS>BOND
     1     1     2    2
     2     2     3   am
     3     2    25    1
     4     3     4    1
     5     4     5   am
     6     5     6    2
     7     5     7    1
     8     7     8   ar
     9     7    24   ar
    10     8     9   ar
    11     9    10   ar
    12    10    11   ar
    13    11    12    1
    14    11    24   ar
    15    12    13    2
    16    12    14    2
    17    12    15    1
    18    15    16    1
    19    15    23    1
    20    16    17    1
    21    17    18    1
    22    18    19   ar
    23    18    23   ar
    24    19    20   ar
    25    20    21   ar
    26    21    22   ar
    27    22    23   ar
    28    25    26   ar
    29    25    30   ar
    30    26    27   ar
    31    27    28   ar
    32    28    29   ar
    33    29    30   ar
    34     3    31    1
    35     4    32    1
    36     8    33    1
    37     9    34    1
    38    10    35    1
    39    16    36    1
    40    16    37    1
    41    17    38    1
    42    17    39    1
    43    19    40    1
    44    20    41    1
    45    21    42    1
    46    22    43    1
    47    24    44    1
    48    26    45    1
    49    27    46    1
    50    28    47    1
    51    29    48    1
    52    30    49    1
@<TRIPOS>MOLECULE
../data/bude_mols_rdkit_confs/molecule_97.pdb
 49 52 0 0 0
SMALL
GASTEIGER

@<TRIPOS>ATOM
      1  O1        -5.3180   -0.9890    1.2380 O.2     1  UNL1       -0.2687
      2  C1        -5.2830    0.0990    0.6310 C.2     1  UNL1        0.2601
      3  N1        -4.0190    0.4740    0.0330 N.am    1  UNL1       -0.2301
      4  N2        -2.9090   -0.3730    0.1550 N.am    1  UNL1       -0.2301
      5  C2        -1.6110   -0.0640   -0.3210 C.2     1  UNL1        0.2602
      6  O2        -1.4300    1.0440   -0.8960 O.2     1  UNL1       -0.2687
      7  C3        -0.4820   -0.9790   -0.1660 C.ar    1  UNL1        0.0400
      8  C4        -0.6580   -2.2240   -0.7180 C.ar    1  UNL1       -0.0495
      9  C5         0.3100   -3.2060   -0.6230 C.ar    1  UNL1       -0.0592
     10  C6         1.4790   -2.8960    0.0510 C.ar    1  UNL1       -0.0350
     11  C7         1.6900   -1.6610    0.6160 C.ar    1  UNL1        0.1094
     12  S1         3.1860   -1.3340    1.4850 S.O2    1  UNL1        0.0747
     13  O3         3.6340   -2.5770    2.1780 O.2     1  UNL1       -0.1498
     14  O4         2.9950   -0.1930    2.4560 O.2     1  UNL1       -0.1498
     15  N3         4.3860   -0.9190    0.3150 N.pl3   1  UNL1       -0.2024
     16  C8         4.8030   -1.8470   -0.7400 C.3     1  UNL1        0.0390
     17  C9         6.1030   -1.3060   -1.2080 C.3     1  UNL1       -0.0083
     18  C10        6.1520    0.0750   -0.6810 C.ar    1  UNL1       -0.0232
     19  C11        7.0480    1.1010   -0.9550 C.ar    1  UNL1       -0.0567
     20  C12        6.9520    2.3400   -0.3580 C.ar    1  UNL1       -0.0614
     21  C13        5.9240    2.5410    0.5370 C.ar    1  UNL1       -0.0599
     22  C14        5.0210    1.5300    0.8220 C.ar    1  UNL1       -0.0388
     23  C15        5.1300    0.2880    0.2150 C.ar    1  UNL1        0.0545
     24  C16        0.6790   -0.7130    0.4900 C.ar    1  UNL1       -0.0229
     25  C17       -6.4730    0.9160    0.5530 C.ar    1  UNL1        0.0382
     26  C18       -7.2990    1.2020    1.6040 C.ar    1  UNL1       -0.0496
     27  C19       -8.4370    1.9970    1.4840 C.ar    1  UNL1       -0.0610
     28  C20       -8.7830    2.5440    0.2490 C.ar    1  UNL1       -0.0617
     29  C21       -7.9540    2.2550   -0.8100 C.ar    1  UNL1       -0.0610
     30  C22       -6.8320    1.4700   -0.6810 C.ar    1  UNL1       -0.0496
     31 H          -3.9392    1.3231   -0.4588 H       1  UNL1        0.1731
     32 H          -3.0401   -1.2407    0.6013 H       1  UNL1        0.1731
     33 H          -1.5369   -2.4321   -1.2173 H       1  UNL1        0.0625
     34 H           0.1663   -4.1388   -1.0404 H       1  UNL1        0.0618
     35 H           2.2150   -3.6149    0.1317 H       1  UNL1        0.0637
     36 H           4.0890   -1.8613   -1.5368 H       1  UNL1        0.0485
     37 H           4.8806   -2.8556   -0.3914 H       1  UNL1        0.0485
     38 H           6.1465   -1.3028   -2.2771 H       1  UNL1        0.0330
     39 H           6.9297   -1.8956   -0.8706 H       1  UNL1        0.0330
     40 H           7.8112    0.9298   -1.6282 H       1  UNL1        0.0621
     41 H           7.6265    3.0906   -0.5739 H       1  UNL1        0.0618
     42 H           5.8254    3.4573    1.0014 H       1  UNL1        0.0618
     43 H           4.2576    1.7033    1.4945 H       1  UNL1        0.0637
     44 H           0.8146    0.2210    0.9074 H       1  UNL1        0.0645
     45 H          -7.0687    0.8104    2.5306 H       1  UNL1        0.0625
     46 H          -9.0254    2.1815    2.3115 H       1  UNL1        0.0618
     47 H          -9.6201    3.1367    0.1350 H       1  UNL1        0.0618
     48 H          -8.1831    2.6427   -1.7385 H       1  UNL1        0.0618
     49 H          -6.2443    1.2862   -1.5091 H       1  UNL1        0.0625
@<TRIPOS>BOND
     1     1     2    2
     2     2     3   am
     3     2    25    1
     4     3     4    1
     5     4     5   am
     6     5     6    2
     7     5     7    1
     8     7     8   ar
     9     7    24   ar
    10     8     9   ar
    11     9    10   ar
    12    10    11   ar
    13    11    12    1
    14    11    24   ar
    15    12    13    2
    16    12    14    2
    17    12    15    1
    18    15    16    1
    19    15    23    1
    20    16    17    1
    21    17    18    1
    22    18    19   ar
    23    18    23   ar
    24    19    20   ar
    25    20    21   ar
    26    21    22   ar
    27    22    23   ar
    28    25    26   ar
    29    25    30   ar
    30    26    27   ar
    31    27    28   ar
    32    28    29   ar
    33    29    30   ar
    34     3    31    1
    35     4    32    1
    36     8    33    1
    37     9    34    1
    38    10    35    1
    39    16    36    1
    40    16    37    1
    41    17    38    1
    42    17    39    1
    43    19    40    1
    44    20    41    1
    45    21    42    1
    46    22    43    1
    47    24    44    1
    48    26    45    1
    49    27    46    1
    50    28    47    1
    51    29    48    1
    52    30    49    1
@<TRIPOS>MOLECULE
../data/bude_mols_rdkit_confs/molecule_97.pdb
 49 52 0 0 0
SMALL
GASTEIGER

@<TRIPOS>ATOM
      1  O1        -3.8250   -0.9030   -0.8770 O.2     1  UNL1       -0.2687
      2  C1        -4.6080   -0.1720   -0.1710 C.2     1  UNL1        0.2601
      3  N1        -4.1770    0.0820    1.1690 N.am    1  UNL1       -0.2301
      4  N2        -2.9720   -0.4510    1.6500 N.am    1  UNL1       -0.2301
      5  C2        -1.7150   -0.3120    1.0120 C.2     1  UNL1        0.2602
      6  O2        -1.6680    0.3350   -0.0640 O.2     1  UNL1       -0.2687
      7  C3        -0.4740   -0.8770    1.5310 C.ar    1  UNL1        0.0400
      8  C4        -0.3250   -1.2640    2.8490 C.ar    1  UNL1       -0.0495
      9  C5         0.8480   -1.8100    3.3280 C.ar    1  UNL1       -0.0592
     10  C6         1.9330   -1.9950    2.4980 C.ar    1  UNL1       -0.0350
     11  C7         1.8030   -1.6140    1.1770 C.ar    1  UNL1        0.1094
     12  S1         3.1690   -1.8600    0.1170 S.O2    1  UNL1        0.0747
     13  O3         3.9840   -3.0010    0.6720 O.2     1  UNL1       -0.1498
     14  O4         2.7040   -2.1570   -1.2810 O.2     1  UNL1       -0.1498
     15  N3         4.1690   -0.4650    0.1310 N.pl3   1  UNL1       -0.2024
     16  C8         4.8510    0.0690    1.3120 C.3     1  UNL1        0.0390
     17  C9         6.1100    0.6850    0.7210 C.3     1  UNL1       -0.0083
     18  C10        5.6550    1.0590   -0.6440 C.ar    1  UNL1       -0.0232
     19  C11        6.2500    1.9550   -1.5110 C.ar    1  UNL1       -0.0567
     20  C12        5.6330    2.1490   -2.7540 C.ar    1  UNL1       -0.0614
     21  C13        4.4810    1.4790   -3.1040 C.ar    1  UNL1       -0.0599
     22  C14        3.9330    0.5890   -2.1810 C.ar    1  UNL1       -0.0388
     23  C15        4.5120    0.3770   -0.9600 C.ar    1  UNL1        0.0545
     24  C16        0.6140   -1.0630    0.7060 C.ar    1  UNL1       -0.0229
     25  C17       -5.8380    0.3520   -0.7040 C.ar    1  UNL1        0.0382
     26  C18       -6.7860    0.8920    0.1220 C.ar    1  UNL1       -0.0496
     27  C19       -7.9810    1.4030   -0.3980 C.ar    1  UNL1       -0.0610
     28  C20       -8.2000    1.3590   -1.7580 C.ar    1  UNL1       -0.0617
     29  C21       -7.2570    0.8210   -2.5900 C.ar    1  UNL1       -0.0610
     30  C22       -6.0740    0.3180   -2.0530 C.ar    1  UNL1       -0.0496
     31 H          -4.7332    0.6380    1.7613 H       1  UNL1        0.1731
     32 H          -3.0021   -0.9589    2.4928 H       1  UNL1        0.1731
     33 H          -1.1183   -1.1404    3.4974 H       1  UNL1        0.0625
     34 H           0.9140   -2.0836    4.3209 H       1  UNL1        0.0618
     35 H           2.8120   -2.4041    2.8516 H       1  UNL1        0.0637
     36 H           5.0913   -0.7107    2.0043 H       1  UNL1        0.0485
     37 H           4.2574    0.7655    1.8664 H       1  UNL1        0.0485
     38 H           6.9102   -0.0244    0.6840 H       1  UNL1        0.0330
     39 H           6.4978    1.5054    1.2880 H       1  UNL1        0.0330
     40 H           7.1125    2.4601   -1.2540 H       1  UNL1        0.0621
     41 H           6.0525    2.8113   -3.4251 H       1  UNL1        0.0618
     42 H           4.0365    1.6315   -4.0228 H       1  UNL1        0.0618
     43 H           3.0701    0.0781   -2.4249 H       1  UNL1        0.0637
     44 H           0.5459   -0.7869   -0.2861 H       1  UNL1        0.0645
     45 H          -6.6181    0.9229    1.1398 H       1  UNL1        0.0625
     46 H          -8.6913    1.8089    0.2311 H       1  UNL1        0.0618
     47 H          -9.0783    1.7332   -2.1499 H       1  UNL1        0.0618
     48 H          -7.4207    0.7879   -3.6084 H       1  UNL1        0.0618
     49 H          -5.3633   -0.0871   -2.6822 H       1  UNL1        0.0625
@<TRIPOS>BOND
     1     1     2    2
     2     2     3   am
     3     2    25    1
     4     3     4    1
     5     4     5   am
     6     5     6    2
     7     5     7    1
     8     7     8   ar
     9     7    24   ar
    10     8     9   ar
    11     9    10   ar
    12    10    11   ar
    13    11    12    1
    14    11    24   ar
    15    12    13    2
    16    12    14    2
    17    12    15    1
    18    15    16    1
    19    15    23    1
    20    16    17    1
    21    17    18    1
    22    18    19   ar
    23    18    23   ar
    24    19    20   ar
    25    20    21   ar
    26    21    22   ar
    27    22    23   ar
    28    25    26   ar
    29    25    30   ar
    30    26    27   ar
    31    27    28   ar
    32    28    29   ar
    33    29    30   ar
    34     3    31    1
    35     4    32    1
    36     8    33    1
    37     9    34    1
    38    10    35    1
    39    16    36    1
    40    16    37    1
    41    17    38    1
    42    17    39    1
    43    19    40    1
    44    20    41    1
    45    21    42    1
    46    22    43    1
    47    24    44    1
    48    26    45    1
    49    27    46    1
    50    28    47    1
    51    29    48    1
    52    30    49    1
@<TRIPOS>MOLECULE
../data/bude_mols_rdkit_confs/molecule_97.pdb
 49 52 0 0 0
SMALL
GASTEIGER

@<TRIPOS>ATOM
      1  O1         4.0370    0.9730   -0.3460 O.2     1  UNL1       -0.2687
      2  C1         4.8130    0.0200   -0.1060 C.2     1  UNL1        0.2601
      3  N1         4.3040   -1.2950   -0.0980 N.am    1  UNL1       -0.2301
      4  N2         2.9710   -1.5280   -0.3600 N.am    1  UNL1       -0.2301
      5  C2         1.9490   -0.8290    0.3120 C.2     1  UNL1        0.2602
      6  O2         2.1620    0.0410    1.1810 O.2     1  UNL1       -0.2687
      7  C3         0.5460   -1.1440   -0.0350 C.ar    1  UNL1        0.0400
      8  C4         0.1320   -2.4720    0.0700 C.ar    1  UNL1       -0.0495
      9  C5        -1.1560   -2.8000   -0.2880 C.ar    1  UNL1       -0.0592
     10  C6        -2.0230   -1.8260   -0.7450 C.ar    1  UNL1       -0.0350
     11  C7        -1.5820   -0.5360   -0.8330 C.ar    1  UNL1        0.1094
     12  S1        -2.7210    0.6570   -1.4550 S.O2    1  UNL1        0.0747
     13  O3        -2.0040    1.9060   -1.9030 O.2     1  UNL1       -0.1498
     14  O4        -3.4680    0.0890   -2.6260 O.2     1  UNL1       -0.1498
     15  N3        -3.8180    1.0540   -0.1920 N.pl3   1  UNL1       -0.2024
     16  C8        -3.5740    1.6380    1.0930 C.3     1  UNL1        0.0390
     17  C9        -4.6700    1.0450    1.9480 C.3     1  UNL1       -0.0083
     18  C10       -5.7790    0.8330    0.9880 C.ar    1  UNL1       -0.0232
     19  C11       -7.1470    0.6470    1.2150 C.ar    1  UNL1       -0.0567
     20  C12       -7.9440    0.4670    0.1110 C.ar    1  UNL1       -0.0614
     21  C13       -7.4590    0.4630   -1.1910 C.ar    1  UNL1       -0.0599
     22  C14       -6.0990    0.6520   -1.3320 C.ar    1  UNL1       -0.0388
     23  C15       -5.2410    0.8380   -0.2700 C.ar    1  UNL1        0.0545
     24  C16       -0.2970   -0.1660   -0.4820 C.ar    1  UNL1       -0.0229
     25  C17        6.2320    0.2800    0.1640 C.ar    1  UNL1        0.0382
     26  C18        7.2110   -0.5930   -0.2700 C.ar    1  UNL1       -0.0496
     27  C19        8.5690   -0.3640   -0.0150 C.ar    1  UNL1       -0.0610
     28  C20        8.9720    0.7520    0.6840 C.ar    1  UNL1       -0.0617
     29  C21        8.0040    1.6340    1.1240 C.ar    1  UNL1       -0.0610
     30  C22        6.6480    1.3950    0.8630 C.ar    1  UNL1       -0.0496
     31 H           4.9041   -2.0510    0.0958 H       1  UNL1        0.1731
     32 H           2.7264   -2.2014   -1.0353 H       1  UNL1        0.1731
     33 H           0.7817   -3.1977    0.4110 H       1  UNL1        0.0625
     34 H          -1.4758   -3.7785   -0.2147 H       1  UNL1        0.0618
     35 H          -2.9887   -2.0693   -1.0157 H       1  UNL1        0.0637
     36 H          -3.6522    2.7044    1.0522 H       1  UNL1        0.0485
     37 H          -2.5917    1.4387    1.4677 H       1  UNL1        0.0485
     38 H          -4.9595    1.7229    2.7236 H       1  UNL1        0.0330
     39 H          -4.3711    0.1461    2.4455 H       1  UNL1        0.0330
     40 H          -7.5397    0.6451    2.1694 H       1  UNL1        0.0621
     41 H          -8.9562    0.3274    0.2562 H       1  UNL1        0.0618
     42 H          -8.0790    0.3268   -2.0047 H       1  UNL1        0.0618
     43 H          -5.7031    0.6541   -2.2850 H       1  UNL1        0.0637
     44 H           0.0148    0.8151   -0.5551 H       1  UNL1        0.0645
     45 H           6.9342   -1.4365   -0.7962 H       1  UNL1        0.0625
     46 H           9.2737   -1.0374   -0.3539 H       1  UNL1        0.0618
     47 H           9.9714    0.9250    0.8743 H       1  UNL1        0.0618
     48 H           8.2822    2.4772    1.6501 H       1  UNL1        0.0618
     49 H           5.9436    2.0689    1.2016 H       1  UNL1        0.0625
@<TRIPOS>BOND
     1     1     2    2
     2     2     3   am
     3     2    25    1
     4     3     4    1
     5     4     5   am
     6     5     6    2
     7     5     7    1
     8     7     8   ar
     9     7    24   ar
    10     8     9   ar
    11     9    10   ar
    12    10    11   ar
    13    11    12    1
    14    11    24   ar
    15    12    13    2
    16    12    14    2
    17    12    15    1
    18    15    16    1
    19    15    23    1
    20    16    17    1
    21    17    18    1
    22    18    19   ar
    23    18    23   ar
    24    19    20   ar
    25    20    21   ar
    26    21    22   ar
    27    22    23   ar
    28    25    26   ar
    29    25    30   ar
    30    26    27   ar
    31    27    28   ar
    32    28    29   ar
    33    29    30   ar
    34     3    31    1
    35     4    32    1
    36     8    33    1
    37     9    34    1
    38    10    35    1
    39    16    36    1
    40    16    37    1
    41    17    38    1
    42    17    39    1
    43    19    40    1
    44    20    41    1
    45    21    42    1
    46    22    43    1
    47    24    44    1
    48    26    45    1
    49    27    46    1
    50    28    47    1
    51    29    48    1
    52    30    49    1
@<TRIPOS>MOLECULE
../data/bude_mols_rdkit_confs/molecule_97.pdb
 49 52 0 0 0
SMALL
GASTEIGER

@<TRIPOS>ATOM
      1  O1        -5.3280   -1.7180    0.2370 O.2     1  UNL1       -0.2687
      2  C1        -5.0840   -0.4930    0.4540 C.2     1  UNL1        0.2601
      3  N1        -3.7420   -0.0550    0.4110 N.am    1  UNL1       -0.2301
      4  N2        -2.7400   -0.9970    0.1310 N.am    1  UNL1       -0.2301
      5  C2        -1.3690   -0.7180    0.3530 C.2     1  UNL1        0.2602
      6  O2        -1.0790    0.4370    0.8240 O.2     1  UNL1       -0.2687
      7  C3        -0.3140   -1.6800    0.0690 C.ar    1  UNL1        0.0400
      8  C4        -0.5640   -2.8760   -0.5540 C.ar    1  UNL1       -0.0495
      9  C5         0.5130   -3.7360   -0.7960 C.ar    1  UNL1       -0.0592
     10  C6         1.7950   -3.3790   -0.4120 C.ar    1  UNL1       -0.0350
     11  C7         2.0600   -2.1770    0.2170 C.ar    1  UNL1        0.1094
     12  S1         3.6710   -1.7430    0.6690 S.O2    1  UNL1        0.0747
     13  O3         3.7050   -1.2870    2.0820 O.2     1  UNL1       -0.1498
     14  O4         4.5070   -3.0190    0.6140 O.2     1  UNL1       -0.1498
     15  N3         4.3350   -0.5620   -0.4060 N.pl3   1  UNL1       -0.2024
     16  C8         4.5930   -0.6510   -1.8100 C.3     1  UNL1        0.0390
     17  C9         5.5770    0.4310   -2.1350 C.3     1  UNL1       -0.0083
     18  C10        5.4710    1.3720   -0.9720 C.ar    1  UNL1       -0.0232
     19  C11        5.9800    2.6390   -0.8100 C.ar    1  UNL1       -0.0567
     20  C12        5.7680    3.3410    0.3520 C.ar    1  UNL1       -0.0614
     21  C13        5.0260    2.7210    1.3390 C.ar    1  UNL1       -0.0599
     22  C14        4.5060    1.4470    1.1940 C.ar    1  UNL1       -0.0388
     23  C15        4.7270    0.7420    0.0120 C.ar    1  UNL1        0.0545
     24  C16        0.9890   -1.3480    0.4450 C.ar    1  UNL1       -0.0229
     25  C17       -6.1460    0.4410    0.7370 C.ar    1  UNL1        0.0382
     26  C18       -7.4000   -0.0430    1.1140 C.ar    1  UNL1       -0.0496
     27  C19       -8.4530    0.8170    1.3790 C.ar    1  UNL1       -0.0610
     28  C20       -8.2410    2.1700    1.2620 C.ar    1  UNL1       -0.0617
     29  C21       -7.0310    2.6630    0.8970 C.ar    1  UNL1       -0.0610
     30  C22       -5.9740    1.7960    0.6320 C.ar    1  UNL1       -0.0496
     31 H          -3.5147    0.8890    0.5736 H       1  UNL1        0.1731
     32 H          -2.9971   -1.8762   -0.2298 H       1  UNL1        0.1731
     33 H          -1.5220   -3.1351   -0.8371 H       1  UNL1        0.0625
     34 H           0.3511   -4.6417   -1.2634 H       1  UNL1        0.0618
     35 H           2.5743   -4.0287   -0.6008 H       1  UNL1        0.0637
     36 H           3.6879   -0.5044   -2.3615 H       1  UNL1        0.0485
     37 H           4.9793   -1.6142   -2.0706 H       1  UNL1        0.0485
     38 H           5.3149    0.9228   -3.0484 H       1  UNL1        0.0330
     39 H           6.5700    0.0584   -2.2767 H       1  UNL1        0.0330
     40 H           6.5286    3.0684   -1.5713 H       1  UNL1        0.0621
     41 H           6.1473    4.2919    0.4822 H       1  UNL1        0.0618
     42 H           4.8525    3.2289    2.2204 H       1  UNL1        0.0618
     43 H           3.9573    1.0209    1.9571 H       1  UNL1        0.0637
     44 H           1.1540   -0.4432    0.9131 H       1  UNL1        0.0645
     45 H          -7.5453   -1.0614    1.1969 H       1  UNL1        0.0625
     46 H          -9.3763    0.4500    1.6581 H       1  UNL1        0.0618
     47 H          -9.0165    2.8228    1.4554 H       1  UNL1        0.0618
     48 H          -6.8936    3.6826    0.8156 H       1  UNL1        0.0618
     49 H          -5.0556    2.1765    0.3549 H       1  UNL1        0.0625
@<TRIPOS>BOND
     1     1     2    2
     2     2     3   am
     3     2    25    1
     4     3     4    1
     5     4     5   am
     6     5     6    2
     7     5     7    1
     8     7     8   ar
     9     7    24   ar
    10     8     9   ar
    11     9    10   ar
    12    10    11   ar
    13    11    12    1
    14    11    24   ar
    15    12    13    2
    16    12    14    2
    17    12    15    1
    18    15    16    1
    19    15    23    1
    20    16    17    1
    21    17    18    1
    22    18    19   ar
    23    18    23   ar
    24    19    20   ar
    25    20    21   ar
    26    21    22   ar
    27    22    23   ar
    28    25    26   ar
    29    25    30   ar
    30    26    27   ar
    31    27    28   ar
    32    28    29   ar
    33    29    30   ar
    34     3    31    1
    35     4    32    1
    36     8    33    1
    37     9    34    1
    38    10    35    1
    39    16    36    1
    40    16    37    1
    41    17    38    1
    42    17    39    1
    43    19    40    1
    44    20    41    1
    45    21    42    1
    46    22    43    1
    47    24    44    1
    48    26    45    1
    49    27    46    1
    50    28    47    1
    51    29    48    1
    52    30    49    1
@<TRIPOS>MOLECULE
../data/bude_mols_rdkit_confs/molecule_97.pdb
 49 52 0 0 0
SMALL
GASTEIGER

@<TRIPOS>ATOM
      1  O1         3.3610   -0.2940    1.4380 O.2     1  UNL1       -0.2687
      2  C1         4.3750   -0.2870    0.6830 C.2     1  UNL1        0.2601
      3  N1         4.2620    0.4890   -0.4970 N.am    1  UNL1       -0.2301
      4  N2         3.1020    1.2170   -0.8310 N.am    1  UNL1       -0.2301
      5  C2         1.8400    0.6440   -0.9890 C.2     1  UNL1        0.2602
      6  O2         1.7180   -0.6000   -0.8230 O.2     1  UNL1       -0.2687
      7  C3         0.6680    1.4150   -1.3350 C.ar    1  UNL1        0.0400
      8  C4         0.7160    2.7660   -1.5480 C.ar    1  UNL1       -0.0495
      9  C5        -0.4090    3.4930   -1.8810 C.ar    1  UNL1       -0.0592
     10  C6        -1.6380    2.8820   -2.0140 C.ar    1  UNL1       -0.0350
     11  C7        -1.7030    1.5270   -1.8040 C.ar    1  UNL1        0.1094
     12  S1        -3.2260    0.7180   -1.9660 S.O2    1  UNL1        0.0747
     13  O3        -2.9170   -0.6930   -2.4410 O.2     1  UNL1       -0.1498
     14  O4        -4.0330    1.3400   -3.0990 O.2     1  UNL1       -0.1498
     15  N3        -4.1340    0.6600   -0.5350 N.pl3   1  UNL1       -0.2024
     16  C8        -4.6570    1.7630    0.2430 C.3     1  UNL1        0.0390
     17  C9        -5.8550    1.1930    0.9800 C.3     1  UNL1       -0.0083
     18  C10       -5.5380   -0.2470    1.0310 C.ar    1  UNL1       -0.0232
     19  C11       -6.0980   -1.2260    1.8080 C.ar    1  UNL1       -0.0567
     20  C12       -5.6540   -2.5210    1.7070 C.ar    1  UNL1       -0.0614
     21  C13       -4.6510   -2.8390    0.8310 C.ar    1  UNL1       -0.0599
     22  C14       -4.1030   -1.8430    0.0610 C.ar    1  UNL1       -0.0388
     23  C15       -4.5410   -0.5130    0.1480 C.ar    1  UNL1        0.0545
     24  C16       -0.5790    0.8140   -1.4740 C.ar    1  UNL1       -0.0229
     25  C17        5.5600   -1.0480    1.0530 C.ar    1  UNL1        0.0382
     26  C18        6.6930   -1.0780    0.2990 C.ar    1  UNL1       -0.0496
     27  C19        7.8130   -1.8240    0.6910 C.ar    1  UNL1       -0.0610
     28  C20        7.8120   -2.5560    1.8540 C.ar    1  UNL1       -0.0617
     29  C21        6.6620   -2.5270    2.6210 C.ar    1  UNL1       -0.0610
     30  C22        5.5510   -1.7800    2.2220 C.ar    1  UNL1       -0.0496
     31 H           5.0296    0.5213   -1.1126 H       1  UNL1        0.1731
     32 H           3.1878    2.1891   -0.9607 H       1  UNL1        0.1731
     33 H           1.6199    3.2556   -1.4570 H       1  UNL1        0.0625
     34 H          -0.3291    4.5106   -2.0329 H       1  UNL1        0.0618
     35 H          -2.4798    3.4246   -2.2628 H       1  UNL1        0.0637
     36 H          -4.9570    2.5658   -0.3977 H       1  UNL1        0.0485
     37 H          -3.9259    2.1627    0.9143 H       1  UNL1        0.0485
     38 H          -6.7620    1.3711    0.4410 H       1  UNL1        0.0330
     39 H          -6.0130    1.6309    1.9434 H       1  UNL1        0.0330
     40 H          -6.8540   -0.9900    2.4696 H       1  UNL1        0.0621
     41 H          -6.0776   -3.2572    2.2932 H       1  UNL1        0.0618
     42 H          -4.3127   -3.8107    0.7508 H       1  UNL1        0.0618
     43 H          -3.3472   -2.0795   -0.6007 H       1  UNL1        0.0637
     44 H          -0.6610   -0.2037   -1.3236 H       1  UNL1        0.0645
     45 H           6.7281   -0.5396   -0.5807 H       1  UNL1        0.0625
     46 H           8.6551   -1.8235    0.0944 H       1  UNL1        0.0618
     47 H           8.6364   -3.1053    2.1433 H       1  UNL1        0.0618
     48 H           6.6238   -3.0649    3.5009 H       1  UNL1        0.0618
     49 H           4.7059   -1.7758    2.8143 H       1  UNL1        0.0625
@<TRIPOS>BOND
     1     1     2    2
     2     2     3   am
     3     2    25    1
     4     3     4    1
     5     4     5   am
     6     5     6    2
     7     5     7    1
     8     7     8   ar
     9     7    24   ar
    10     8     9   ar
    11     9    10   ar
    12    10    11   ar
    13    11    12    1
    14    11    24   ar
    15    12    13    2
    16    12    14    2
    17    12    15    1
    18    15    16    1
    19    15    23    1
    20    16    17    1
    21    17    18    1
    22    18    19   ar
    23    18    23   ar
    24    19    20   ar
    25    20    21   ar
    26    21    22   ar
    27    22    23   ar
    28    25    26   ar
    29    25    30   ar
    30    26    27   ar
    31    27    28   ar
    32    28    29   ar
    33    29    30   ar
    34     3    31    1
    35     4    32    1
    36     8    33    1
    37     9    34    1
    38    10    35    1
    39    16    36    1
    40    16    37    1
    41    17    38    1
    42    17    39    1
    43    19    40    1
    44    20    41    1
    45    21    42    1
    46    22    43    1
    47    24    44    1
    48    26    45    1
    49    27    46    1
    50    28    47    1
    51    29    48    1
    52    30    49    1
@<TRIPOS>MOLECULE
../data/bude_mols_rdkit_confs/molecule_97.pdb
 49 52 0 0 0
SMALL
GASTEIGER

@<TRIPOS>ATOM
      1  O1         3.3290    1.6090   -0.4280 O.2     1  UNL1       -0.2687
      2  C1         4.3090    0.9010   -0.0760 C.2     1  UNL1        0.2601
      3  N1         4.1560   -0.4870    0.1140 N.am    1  UNL1       -0.2301
      4  N2         2.9750   -1.1650   -0.0760 N.am    1  UNL1       -0.2301
      5  C2         1.8050   -1.0470    0.7070 C.2     1  UNL1        0.2602
      6  O2         1.7800   -0.2510    1.6640 O.2     1  UNL1       -0.2687
      7  C3         0.6540   -1.8960    0.3360 C.ar    1  UNL1        0.0400
      8  C4         0.8310   -3.0550   -0.4220 C.ar    1  UNL1       -0.0495
      9  C5        -0.2420   -3.8430   -0.7810 C.ar    1  UNL1       -0.0592
     10  C6        -1.4920   -3.4850   -0.3910 C.ar    1  UNL1       -0.0350
     11  C7        -1.7360   -2.3400    0.3670 C.ar    1  UNL1        0.1094
     12  S1        -3.3710   -2.0030    0.8060 S.O2    1  UNL1        0.0747
     13  O3        -4.2160   -3.2840    0.7900 O.2     1  UNL1       -0.1498
     14  O4        -3.4730   -1.5000    2.2250 O.2     1  UNL1       -0.1498
     15  N3        -4.0900   -0.8550   -0.2560 N.pl3   1  UNL1       -0.2024
     16  C8        -4.3140   -0.9440   -1.6890 C.3     1  UNL1        0.0390
     17  C9        -5.7040   -0.3440   -1.7830 C.3     1  UNL1       -0.0083
     18  C10       -5.6510    0.7510   -0.7780 C.ar    1  UNL1       -0.0232
     19  C11       -6.3730    1.9170   -0.6340 C.ar    1  UNL1       -0.0567
     20  C12       -6.0890    2.7480    0.4320 C.ar    1  UNL1       -0.0614
     21  C13       -5.0940    2.3960    1.3280 C.ar    1  UNL1       -0.0599
     22  C14       -4.3600    1.2270    1.1960 C.ar    1  UNL1       -0.0388
     23  C15       -4.6500    0.4070    0.1310 C.ar    1  UNL1        0.0545
     24  C16       -0.6570   -1.5790    0.7080 C.ar    1  UNL1       -0.0229
     25  C17        5.6170    1.5570    0.1250 C.ar    1  UNL1        0.0382
     26  C18        6.6080    0.9640    0.8580 C.ar    1  UNL1       -0.0496
     27  C19        7.8320    1.6030    0.9740 C.ar    1  UNL1       -0.0610
     28  C20        8.0850    2.8150    0.3750 C.ar    1  UNL1       -0.0617
     29  C21        7.0910    3.4120   -0.3590 C.ar    1  UNL1       -0.0610
     30  C22        5.8680    2.7740   -0.4750 C.ar    1  UNL1       -0.0496
     31 H           4.9437   -1.0033    0.4006 H       1  UNL1        0.1731
     32 H           2.9414   -1.7946   -0.8321 H       1  UNL1        0.1731
     33 H           1.7814   -3.3266   -0.7187 H       1  UNL1        0.0625
     34 H          -0.0961   -4.6973   -1.3412 H       1  UNL1        0.0618
     35 H          -2.2891   -4.0805   -0.6648 H       1  UNL1        0.0637
     36 H          -4.2964   -1.9579   -2.0303 H       1  UNL1        0.0485
     37 H          -3.5741   -0.4571   -2.2894 H       1  UNL1        0.0485
     38 H          -6.4539   -1.0643   -1.5307 H       1  UNL1        0.0330
     39 H          -5.9578   -0.0080   -2.7667 H       1  UNL1        0.0330
     40 H          -7.1121    2.1642   -1.3105 H       1  UNL1        0.0621
     41 H          -6.6155    3.6263    0.5599 H       1  UNL1        0.0618
     42 H          -4.8918    3.0249    2.1209 H       1  UNL1        0.0618
     43 H          -3.6216    0.9809    1.8736 H       1  UNL1        0.0637
     44 H          -0.8153   -0.7269    1.2683 H       1  UNL1        0.0645
     45 H           6.4465    0.0543    1.3177 H       1  UNL1        0.0625
     46 H           8.5784    1.1548    1.5281 H       1  UNL1        0.0618
     47 H           9.0068    3.2678    0.4758 H       1  UNL1        0.0618
     48 H           7.2527    4.3224   -0.8173 H       1  UNL1        0.0618
     49 H           5.1206    3.2226   -1.0275 H       1  UNL1        0.0625
@<TRIPOS>BOND
     1     1     2    2
     2     2     3   am
     3     2    25    1
     4     3     4    1
     5     4     5   am
     6     5     6    2
     7     5     7    1
     8     7     8   ar
     9     7    24   ar
    10     8     9   ar
    11     9    10   ar
    12    10    11   ar
    13    11    12    1
    14    11    24   ar
    15    12    13    2
    16    12    14    2
    17    12    15    1
    18    15    16    1
    19    15    23    1
    20    16    17    1
    21    17    18    1
    22    18    19   ar
    23    18    23   ar
    24    19    20   ar
    25    20    21   ar
    26    21    22   ar
    27    22    23   ar
    28    25    26   ar
    29    25    30   ar
    30    26    27   ar
    31    27    28   ar
    32    28    29   ar
    33    29    30   ar
    34     3    31    1
    35     4    32    1
    36     8    33    1
    37     9    34    1
    38    10    35    1
    39    16    36    1
    40    16    37    1
    41    17    38    1
    42    17    39    1
    43    19    40    1
    44    20    41    1
    45    21    42    1
    46    22    43    1
    47    24    44    1
    48    26    45    1
    49    27    46    1
    50    28    47    1
    51    29    48    1
    52    30    49    1
@<TRIPOS>MOLECULE
../data/bude_mols_rdkit_confs/molecule_97.pdb
 49 52 0 0 0
SMALL
GASTEIGER

@<TRIPOS>ATOM
      1  O1         4.6610    0.4600   -1.4980 O.2     1  UNL1       -0.2687
      2  C1         4.9500   -0.2240   -0.4900 C.2     1  UNL1        0.2601
      3  N1         3.9340   -0.8260    0.2880 N.am    1  UNL1       -0.2301
      4  N2         2.5790   -0.6580   -0.0750 N.am    1  UNL1       -0.2301
      5  C2         2.0150    0.6200   -0.0170 C.2     1  UNL1        0.2602
      6  O2         2.6650    1.6210    0.3480 O.2     1  UNL1       -0.2687
      7  C3         0.6130    0.8030   -0.3980 C.ar    1  UNL1        0.0400
      8  C4         0.2990    0.8200   -1.7490 C.ar    1  UNL1       -0.0495
      9  C5        -1.0150    1.0050   -2.0880 C.ar    1  UNL1       -0.0592
     10  C6        -1.9810    1.1670   -1.1360 C.ar    1  UNL1       -0.0350
     11  C7        -1.6860    1.1500    0.2130 C.ar    1  UNL1        0.1094
     12  S1        -2.9400    1.3960    1.4320 S.O2    1  UNL1        0.0747
     13  O3        -2.6360    0.4310    2.5510 O.2     1  UNL1       -0.1498
     14  O4        -2.8830    2.7850    1.9890 O.2     1  UNL1       -0.1498
     15  N3        -4.4570    1.0400    0.7390 N.pl3   1  UNL1       -0.2024
     16  C8        -5.5670    1.9830    0.4790 C.3     1  UNL1        0.0390
     17  C9        -6.7620    1.1180    0.7950 C.3     1  UNL1       -0.0083
     18  C10       -6.2870   -0.2160    0.2970 C.ar    1  UNL1       -0.0232
     19  C11       -6.9530   -1.3540   -0.1260 C.ar    1  UNL1       -0.0567
     20  C12       -6.2690   -2.4750   -0.5510 C.ar    1  UNL1       -0.0614
     21  C13       -4.8890   -2.5020   -0.5720 C.ar    1  UNL1       -0.0599
     22  C14       -4.2330   -1.3720   -0.1530 C.ar    1  UNL1       -0.0388
     23  C15       -4.9010   -0.2210    0.2840 C.ar    1  UNL1        0.0545
     24  C16       -0.3620    0.9630    0.5590 C.ar    1  UNL1       -0.0229
     25  C17        6.3340   -0.4040   -0.1160 C.ar    1  UNL1        0.0382
     26  C18        7.2230   -0.7240   -1.1400 C.ar    1  UNL1       -0.0496
     27  C19        8.5630   -0.9010   -0.9090 C.ar    1  UNL1       -0.0610
     28  C20        9.0650   -0.7590    0.3710 C.ar    1  UNL1       -0.0617
     29  C21        8.1710   -0.4410    1.3730 C.ar    1  UNL1       -0.0610
     30  C22        6.8210   -0.2620    1.1510 C.ar    1  UNL1       -0.0496
     31 H           4.1702   -1.3606    1.0802 H       1  UNL1        0.1731
     32 H           2.0400   -1.4293   -0.3645 H       1  UNL1        0.1731
     33 H           1.0269    0.6980   -2.4703 H       1  UNL1        0.0625
     34 H          -1.2812    1.0224   -3.0849 H       1  UNL1        0.0618
     35 H          -2.9594    1.3061   -1.4334 H       1  UNL1        0.0637
     36 H          -5.5758    2.3076   -0.5405 H       1  UNL1        0.0485
     37 H          -5.5170    2.8891    1.0459 H       1  UNL1        0.0485
     38 H          -7.6347    1.4458    0.2698 H       1  UNL1        0.0330
     39 H          -7.0541    1.1269    1.8243 H       1  UNL1        0.0330
     40 H          -7.9849   -1.3642   -0.1234 H       1  UNL1        0.0621
     41 H          -6.7978   -3.3064   -0.8580 H       1  UNL1        0.0618
     42 H          -4.3724   -3.3370   -0.8895 H       1  UNL1        0.0618
     43 H          -3.2010   -1.3701   -0.1602 H       1  UNL1        0.0637
     44 H          -0.0987    0.9429    1.5566 H       1  UNL1        0.0645
     45 H           6.8622   -0.8310   -2.1009 H       1  UNL1        0.0625
     46 H           9.1952   -1.1397   -1.6890 H       1  UNL1        0.0618
     47 H          10.0697   -0.8859    0.5697 H       1  UNL1        0.0618
     48 H           8.5294   -0.3318    2.3346 H       1  UNL1        0.0618
     49 H           6.1889   -0.0243    1.9314 H       1  UNL1        0.0625
@<TRIPOS>BOND
     1     1     2    2
     2     2     3   am
     3     2    25    1
     4     3     4    1
     5     4     5   am
     6     5     6    2
     7     5     7    1
     8     7     8   ar
     9     7    24   ar
    10     8     9   ar
    11     9    10   ar
    12    10    11   ar
    13    11    12    1
    14    11    24   ar
    15    12    13    2
    16    12    14    2
    17    12    15    1
    18    15    16    1
    19    15    23    1
    20    16    17    1
    21    17    18    1
    22    18    19   ar
    23    18    23   ar
    24    19    20   ar
    25    20    21   ar
    26    21    22   ar
    27    22    23   ar
    28    25    26   ar
    29    25    30   ar
    30    26    27   ar
    31    27    28   ar
    32    28    29   ar
    33    29    30   ar
    34     3    31    1
    35     4    32    1
    36     8    33    1
    37     9    34    1
    38    10    35    1
    39    16    36    1
    40    16    37    1
    41    17    38    1
    42    17    39    1
    43    19    40    1
    44    20    41    1
    45    21    42    1
    46    22    43    1
    47    24    44    1
    48    26    45    1
    49    27    46    1
    50    28    47    1
    51    29    48    1
    52    30    49    1
@<TRIPOS>MOLECULE
../data/bude_mols_rdkit_confs/molecule_97.pdb
 49 52 0 0 0
SMALL
GASTEIGER

@<TRIPOS>ATOM
      1  O1         4.9490    0.6580   -1.2980 O.2     1  UNL1       -0.2687
      2  C1         5.0030    0.0330   -0.1800 C.2     1  UNL1        0.2601
      3  N1         3.8160    0.0680    0.5920 N.am    1  UNL1       -0.2301
      4  N2         2.7010    0.7670    0.1420 N.am    1  UNL1       -0.2301
      5  C2         1.5680    0.2210   -0.4880 C.2     1  UNL1        0.2602
      6  O2         1.4890   -1.0030   -0.6760 O.2     1  UNL1       -0.2687
      7  C3         0.4550    1.0820   -0.9370 C.ar    1  UNL1        0.0400
      8  C4         0.7190    2.4230   -1.0810 C.ar    1  UNL1       -0.0495
      9  C5        -0.2990    3.2610   -1.4840 C.ar    1  UNL1       -0.0592
     10  C6        -1.5380    2.7610   -1.7330 C.ar    1  UNL1       -0.0350
     11  C7        -1.8370    1.4060   -1.5980 C.ar    1  UNL1        0.1094
     12  S1        -3.4310    0.8970   -1.9460 S.O2    1  UNL1        0.0747
     13  O3        -4.1600    1.9310   -2.8270 O.2     1  UNL1       -0.1498
     14  O4        -3.4480   -0.3580   -2.8050 O.2     1  UNL1       -0.1498
     15  N3        -4.4540    0.6560   -0.6070 N.pl3   1  UNL1       -0.2024
     16  C8        -4.8830    1.6130    0.4090 C.3     1  UNL1        0.0390
     17  C9        -5.0760    0.7390    1.6210 C.3     1  UNL1       -0.0083
     18  C10       -5.5130   -0.5500    1.0090 C.ar    1  UNL1       -0.0232
     19  C11       -6.2000   -1.6350    1.5330 C.ar    1  UNL1       -0.0567
     20  C12       -6.5000   -2.7270    0.7610 C.ar    1  UNL1       -0.0614
     21  C13       -6.1210   -2.7840   -0.5750 C.ar    1  UNL1       -0.0599
     22  C14       -5.4360   -1.6880   -1.0740 C.ar    1  UNL1       -0.0388
     23  C15       -5.1250   -0.5670   -0.3010 C.ar    1  UNL1        0.0545
     24  C16       -0.8200    0.5890   -1.1980 C.ar    1  UNL1       -0.0229
     25  C17        6.2400   -0.6330    0.1830 C.ar    1  UNL1        0.0382
     26  C18        7.0270   -1.2260   -0.8180 C.ar    1  UNL1       -0.0496
     27  C19        8.2160   -1.8320   -0.5080 C.ar    1  UNL1       -0.0610
     28  C20        8.6620   -1.8700    0.7810 C.ar    1  UNL1       -0.0617
     29  C21        7.9040   -1.2930    1.7740 C.ar    1  UNL1       -0.0610
     30  C22        6.7000   -0.6780    1.4780 C.ar    1  UNL1       -0.0496
     31 H           3.7799   -0.4062    1.4540 H       1  UNL1        0.1731
     32 H           2.7051    1.7420    0.2781 H       1  UNL1        0.1731
     33 H           1.6623    2.7960   -0.8909 H       1  UNL1        0.0625
     34 H          -0.1196    4.2710   -1.5969 H       1  UNL1        0.0618
     35 H          -2.2843    3.4076   -2.0328 H       1  UNL1        0.0637
     36 H          -5.7979    2.0912    0.1277 H       1  UNL1        0.0485
     37 H          -4.1863    2.4100    0.5649 H       1  UNL1        0.0485
     38 H          -5.8283    1.1357    2.2703 H       1  UNL1        0.0330
     39 H          -4.2025    0.6514    2.2327 H       1  UNL1        0.0330
     40 H          -6.4908   -1.6198    2.5231 H       1  UNL1        0.0621
     41 H          -7.0148   -3.5184    1.1777 H       1  UNL1        0.0618
     42 H          -6.3389   -3.6017   -1.1657 H       1  UNL1        0.0618
     43 H          -5.1418   -1.7004   -2.0631 H       1  UNL1        0.0637
     44 H          -1.0010   -0.4208   -1.0861 H       1  UNL1        0.0645
     45 H           6.7058   -1.2050   -1.7985 H       1  UNL1        0.0625
     46 H           8.7798   -2.2640   -1.2567 H       1  UNL1        0.0618
     47 H           9.5588   -2.3269    1.0089 H       1  UNL1        0.0618
     48 H           8.2371   -1.3191    2.7504 H       1  UNL1        0.0618
     49 H           6.1436   -0.2502    2.2346 H       1  UNL1        0.0625
@<TRIPOS>BOND
     1     1     2    2
     2     2     3   am
     3     2    25    1
     4     3     4    1
     5     4     5   am
     6     5     6    2
     7     5     7    1
     8     7     8   ar
     9     7    24   ar
    10     8     9   ar
    11     9    10   ar
    12    10    11   ar
    13    11    12    1
    14    11    24   ar
    15    12    13    2
    16    12    14    2
    17    12    15    1
    18    15    16    1
    19    15    23    1
    20    16    17    1
    21    17    18    1
    22    18    19   ar
    23    18    23   ar
    24    19    20   ar
    25    20    21   ar
    26    21    22   ar
    27    22    23   ar
    28    25    26   ar
    29    25    30   ar
    30    26    27   ar
    31    27    28   ar
    32    28    29   ar
    33    29    30   ar
    34     3    31    1
    35     4    32    1
    36     8    33    1
    37     9    34    1
    38    10    35    1
    39    16    36    1
    40    16    37    1
    41    17    38    1
    42    17    39    1
    43    19    40    1
    44    20    41    1
    45    21    42    1
    46    22    43    1
    47    24    44    1
    48    26    45    1
    49    27    46    1
    50    28    47    1
    51    29    48    1
    52    30    49    1
@<TRIPOS>MOLECULE
../data/bude_mols_rdkit_confs/molecule_97.pdb
 49 52 0 0 0
SMALL
GASTEIGER

@<TRIPOS>ATOM
      1  O1         4.9220    1.4550    0.7760 O.2     1  UNL1       -0.2687
      2  C1         5.0380    0.3120    0.2030 C.2     1  UNL1        0.2601
      3  N1         3.8720   -0.1080   -0.4810 N.am    1  UNL1       -0.2301
      4  N2         2.7070    0.6600   -0.5390 N.am    1  UNL1       -0.2301
      5  C2         1.4640    0.1410   -1.0100 C.2     1  UNL1        0.2602
      6  O2         1.4140   -1.0480   -1.3700 O.2     1  UNL1       -0.2687
      7  C3         0.2440    0.9630   -1.0930 C.ar    1  UNL1        0.0400
      8  C4         0.1990    1.7840   -2.2100 C.ar    1  UNL1       -0.0495
      9  C5        -0.9030    2.5620   -2.4200 C.ar    1  UNL1       -0.0592
     10  C6        -1.9200    2.4900   -1.5010 C.ar    1  UNL1       -0.0350
     11  C7        -1.8960    1.6770   -0.3750 C.ar    1  UNL1        0.1094
     12  S1        -3.2850    1.6660    0.6200 S.O2    1  UNL1        0.0747
     13  O3        -2.9090    2.3580    1.9340 O.2     1  UNL1       -0.1498
     14  O4        -4.3520    2.5460    0.0100 O.2     1  UNL1       -0.1498
     15  N3        -3.9130    0.1280    1.0460 N.pl3   1  UNL1       -0.2024
     16  C8        -3.3280   -0.9350    1.8180 C.3     1  UNL1        0.0390
     17  C9        -3.9190   -2.1880    1.2440 C.3     1  UNL1       -0.0083
     18  C10       -5.2090   -1.7080    0.6900 C.ar    1  UNL1       -0.0232
     19  C11       -6.3520   -2.3830    0.2810 C.ar    1  UNL1       -0.0567
     20  C12       -7.4700   -1.7270   -0.2230 C.ar    1  UNL1       -0.0614
     21  C13       -7.4460   -0.3530   -0.3200 C.ar    1  UNL1       -0.0599
     22  C14       -6.3130    0.3150    0.0860 C.ar    1  UNL1       -0.0388
     23  C15       -5.1890   -0.3390    0.5910 C.ar    1  UNL1        0.0545
     24  C16       -0.7810    0.9010   -0.1750 C.ar    1  UNL1       -0.0229
     25  C17        6.2830   -0.4260    0.2830 C.ar    1  UNL1        0.0382
     26  C18        6.4910   -1.6290   -0.3480 C.ar    1  UNL1       -0.0496
     27  C19        7.7080   -2.2730   -0.2290 C.ar    1  UNL1       -0.0610
     28  C20        8.7540   -1.7540    0.5130 C.ar    1  UNL1       -0.0617
     29  C21        8.5360   -0.5370    1.1480 C.ar    1  UNL1       -0.0610
     30  C22        7.3380    0.1100    1.0380 C.ar    1  UNL1       -0.0496
     31 H           3.8828   -0.9808   -0.9363 H       1  UNL1        0.1731
     32 H           2.7449    1.5981   -0.2427 H       1  UNL1        0.1731
     33 H           0.9887    1.8065   -2.8740 H       1  UNL1        0.0625
     34 H          -0.9691    3.1830   -3.2416 H       1  UNL1        0.0618
     35 H          -2.7547    3.0766   -1.6563 H       1  UNL1        0.0637
     36 H          -3.5839   -0.8359    2.8522 H       1  UNL1        0.0485
     37 H          -2.2591   -0.9311    1.7697 H       1  UNL1        0.0485
     38 H          -4.0745   -2.9256    2.0034 H       1  UNL1        0.0330
     39 H          -3.2923   -2.6623    0.5179 H       1  UNL1        0.0330
     40 H          -6.3724   -3.4122    0.3540 H       1  UNL1        0.0621
     41 H          -8.3027   -2.2600   -0.5190 H       1  UNL1        0.0618
     42 H          -8.2594    0.1640   -0.6889 H       1  UNL1        0.0618
     43 H          -6.2942    1.3443    0.0137 H       1  UNL1        0.0637
     44 H          -0.7122    0.2825    0.6482 H       1  UNL1        0.0645
     45 H           5.7372   -2.0522   -0.9116 H       1  UNL1        0.0625
     46 H           7.8416   -3.1752   -0.7119 H       1  UNL1        0.0618
     47 H           9.6563   -2.2487    0.5915 H       1  UNL1        0.0618
     48 H           9.2910   -0.1156    1.7114 H       1  UNL1        0.0618
     49 H           7.2057    1.0126    1.5205 H       1  UNL1        0.0625
@<TRIPOS>BOND
     1     1     2    2
     2     2     3   am
     3     2    25    1
     4     3     4    1
     5     4     5   am
     6     5     6    2
     7     5     7    1
     8     7     8   ar
     9     7    24   ar
    10     8     9   ar
    11     9    10   ar
    12    10    11   ar
    13    11    12    1
    14    11    24   ar
    15    12    13    2
    16    12    14    2
    17    12    15    1
    18    15    16    1
    19    15    23    1
    20    16    17    1
    21    17    18    1
    22    18    19   ar
    23    18    23   ar
    24    19    20   ar
    25    20    21   ar
    26    21    22   ar
    27    22    23   ar
    28    25    26   ar
    29    25    30   ar
    30    26    27   ar
    31    27    28   ar
    32    28    29   ar
    33    29    30   ar
    34     3    31    1
    35     4    32    1
    36     8    33    1
    37     9    34    1
    38    10    35    1
    39    16    36    1
    40    16    37    1
    41    17    38    1
    42    17    39    1
    43    19    40    1
    44    20    41    1
    45    21    42    1
    46    22    43    1
    47    24    44    1
    48    26    45    1
    49    27    46    1
    50    28    47    1
    51    29    48    1
    52    30    49    1
@<TRIPOS>MOLECULE
../data/bude_mols_rdkit_confs/molecule_97.pdb
 49 52 0 0 0
SMALL
GASTEIGER

@<TRIPOS>ATOM
      1  O1        -5.1430    1.3310   -0.4170 O.2     1  UNL1       -0.2687
      2  C1        -5.0660    0.1570    0.0710 C.2     1  UNL1        0.2601
      3  N1        -3.9360   -0.6870   -0.1100 N.am    1  UNL1       -0.2301
      4  N2        -2.8690   -0.1820   -0.8680 N.am    1  UNL1       -0.2301
      5  C2        -1.5820    0.0560   -0.2820 C.2     1  UNL1        0.2602
      6  O2        -1.4800   -0.2150    0.9440 O.2     1  UNL1       -0.2687
      7  C3        -0.4710    0.5770   -1.0620 C.ar    1  UNL1        0.0400
      8  C4        -0.5010    0.6800   -2.4370 C.ar    1  UNL1       -0.0495
      9  C5         0.5670    1.1970   -3.1710 C.ar    1  UNL1       -0.0592
     10  C6         1.6910    1.6170   -2.4780 C.ar    1  UNL1       -0.0350
     11  C7         1.7520    1.5250   -1.0890 C.ar    1  UNL1        0.1094
     12  S1         3.2020    2.0880   -0.3000 S.O2    1  UNL1        0.0747
     13  O3         2.8900    2.4620    1.1300 O.2     1  UNL1       -0.1498
     14  O4         3.8320    3.2380   -1.0420 O.2     1  UNL1       -0.1498
     15  N3         4.3530    0.7590   -0.3520 N.pl3   1  UNL1       -0.2024
     16  C8         4.8630    0.1700   -1.5660 C.3     1  UNL1        0.0390
     17  C9         5.5440   -1.0820   -1.1470 C.3     1  UNL1       -0.0083
     18  C10        5.6500   -0.9660    0.3200 C.ar    1  UNL1       -0.0232
     19  C11        6.3200   -1.7520    1.2340 C.ar    1  UNL1       -0.0567
     20  C12        6.2870   -1.4760    2.5780 C.ar    1  UNL1       -0.0614
     21  C13        5.5650   -0.3850    3.0410 C.ar    1  UNL1       -0.0599
     22  C14        4.8920    0.4080    2.1500 C.ar    1  UNL1       -0.0388
     23  C15        4.9320    0.1190    0.7720 C.ar    1  UNL1        0.0545
     24  C16        0.6740    1.0080   -0.4120 C.ar    1  UNL1       -0.0229
     25  C17       -6.2080   -0.3030    0.8460 C.ar    1  UNL1        0.0382
     26  C18       -6.6640   -1.5850    0.8010 C.ar    1  UNL1       -0.0496
     27  C19       -7.7720   -1.9670    1.5530 C.ar    1  UNL1       -0.0610
     28  C20       -8.3740   -0.9920    2.3340 C.ar    1  UNL1       -0.0617
     29  C21       -7.9100    0.3150    2.3820 C.ar    1  UNL1       -0.0610
     30  C22       -6.8190    0.6810    1.6380 C.ar    1  UNL1       -0.0496
     31 H          -3.9037   -1.5899    0.2811 H       1  UNL1        0.1731
     32 H          -3.0068    0.0133   -1.8231 H       1  UNL1        0.1731
     33 H          -1.3439    0.3632   -2.9412 H       1  UNL1        0.0625
     34 H           0.5212    1.2646   -4.1998 H       1  UNL1        0.0618
     35 H           2.4943    2.0034   -2.9980 H       1  UNL1        0.0637
     36 H           5.5572    0.8323   -2.0395 H       1  UNL1        0.0485
     37 H           4.0819   -0.0212   -2.2719 H       1  UNL1        0.0485
     38 H           6.5142   -1.1532   -1.5927 H       1  UNL1        0.0330
     39 H           5.0107   -1.9586   -1.4503 H       1  UNL1        0.0330
     40 H           6.8585   -2.5664    0.8996 H       1  UNL1        0.0621
     41 H           6.7977   -2.0782    3.2425 H       1  UNL1        0.0618
     42 H           5.5354   -0.1726    4.0505 H       1  UNL1        0.0618
     43 H           4.3536    1.2203    2.4895 H       1  UNL1        0.0637
     44 H           0.7188    0.9383    0.6167 H       1  UNL1        0.0645
     45 H          -6.1852   -2.2785    0.2054 H       1  UNL1        0.0625
     46 H          -8.1300   -2.9347    1.5301 H       1  UNL1        0.0618
     47 H          -9.1977   -1.2479    2.9006 H       1  UNL1        0.0618
     48 H          -8.3861    1.0106    2.9774 H       1  UNL1        0.0618
     49 H          -6.4588    1.6479    1.6595 H       1  UNL1        0.0625
@<TRIPOS>BOND
     1     1     2    2
     2     2     3   am
     3     2    25    1
     4     3     4    1
     5     4     5   am
     6     5     6    2
     7     5     7    1
     8     7     8   ar
     9     7    24   ar
    10     8     9   ar
    11     9    10   ar
    12    10    11   ar
    13    11    12    1
    14    11    24   ar
    15    12    13    2
    16    12    14    2
    17    12    15    1
    18    15    16    1
    19    15    23    1
    20    16    17    1
    21    17    18    1
    22    18    19   ar
    23    18    23   ar
    24    19    20   ar
    25    20    21   ar
    26    21    22   ar
    27    22    23   ar
    28    25    26   ar
    29    25    30   ar
    30    26    27   ar
    31    27    28   ar
    32    28    29   ar
    33    29    30   ar
    34     3    31    1
    35     4    32    1
    36     8    33    1
    37     9    34    1
    38    10    35    1
    39    16    36    1
    40    16    37    1
    41    17    38    1
    42    17    39    1
    43    19    40    1
    44    20    41    1
    45    21    42    1
    46    22    43    1
    47    24    44    1
    48    26    45    1
    49    27    46    1
    50    28    47    1
    51    29    48    1
    52    30    49    1
@<TRIPOS>MOLECULE
../data/bude_mols_rdkit_confs/molecule_97.pdb
 49 52 0 0 0
SMALL
GASTEIGER

@<TRIPOS>ATOM
      1  O1         4.5180   -0.2420    1.3940 O.2     1  UNL1       -0.2687
      2  C1         4.7190    0.3200    0.2910 C.2     1  UNL1        0.2601
      3  N1         3.6440    0.6040   -0.5780 N.am    1  UNL1       -0.2301
      4  N2         2.3340    0.2290   -0.1510 N.am    1  UNL1       -0.2301
      5  C2         1.9760   -1.1300   -0.3610 C.2     1  UNL1        0.2602
      6  O2         2.8030   -1.9210   -0.8970 O.2     1  UNL1       -0.2687
      7  C3         0.6560   -1.6080    0.0420 C.ar    1  UNL1        0.0400
      8  C4         0.3480   -2.9600   -0.1560 C.ar    1  UNL1       -0.0495
      9  C5        -0.8890   -3.4570    0.2100 C.ar    1  UNL1       -0.0592
     10  C6        -1.8440   -2.6330    0.7770 C.ar    1  UNL1       -0.0350
     11  C7        -1.5620   -1.3040    0.9790 C.ar    1  UNL1        0.1094
     12  S1        -2.7340   -0.2100    1.6940 S.O2    1  UNL1        0.0747
     13  O3        -3.5460   -0.9500    2.6910 O.2     1  UNL1       -0.1498
     14  O4        -2.0010    0.9050    2.4080 O.2     1  UNL1       -0.1498
     15  N3        -3.6700    0.4590    0.4350 N.pl3   1  UNL1       -0.2024
     16  C8        -3.2850    1.2700   -0.6760 C.3     1  UNL1        0.0390
     17  C9        -4.4950    2.1300   -0.9100 C.3     1  UNL1       -0.0083
     18  C10       -5.6110    1.2700   -0.4880 C.ar    1  UNL1       -0.0232
     19  C11       -6.9860    1.2410   -0.7070 C.ar    1  UNL1       -0.0567
     20  C12       -7.8050    0.2790   -0.1580 C.ar    1  UNL1       -0.0614
     21  C13       -7.2740   -0.7040    0.6420 C.ar    1  UNL1       -0.0599
     22  C14       -5.9150   -0.6940    0.8730 C.ar    1  UNL1       -0.0388
     23  C15       -5.0880    0.2770    0.3190 C.ar    1  UNL1        0.0545
     24  C16       -0.3080   -0.8280    0.6010 C.ar    1  UNL1       -0.0229
     25  C17        6.0790    0.6710   -0.0720 C.ar    1  UNL1        0.0382
     26  C18        7.1420    0.1560    0.6840 C.ar    1  UNL1       -0.0496
     27  C19        8.4320    0.4900    0.3440 C.ar    1  UNL1       -0.0610
     28  C20        8.7070    1.3220   -0.7250 C.ar    1  UNL1       -0.0617
     29  C21        7.6580    1.8230   -1.4620 C.ar    1  UNL1       -0.0610
     30  C22        6.3770    1.4890   -1.1220 C.ar    1  UNL1       -0.0496
     31 H           3.7917    1.0442   -1.4461 H       1  UNL1        0.1731
     32 H           1.7160    0.8733    0.2640 H       1  UNL1        0.1731
     33 H           1.0490   -3.5891   -0.5778 H       1  UNL1        0.0625
     34 H          -1.1024   -4.4552    0.0582 H       1  UNL1        0.0618
     35 H          -2.7640   -3.0148    1.0470 H       1  UNL1        0.0637
     36 H          -3.0705    0.6680   -1.5342 H       1  UNL1        0.0485
     37 H          -2.3964    1.8373   -0.4931 H       1  UNL1        0.0485
     38 H          -4.5838    2.3930   -1.9434 H       1  UNL1        0.0330
     39 H          -4.4577    3.0574   -0.3776 H       1  UNL1        0.0330
     40 H          -7.4081    1.9691   -1.3043 H       1  UNL1        0.0621
     41 H          -8.8192    0.2966   -0.3479 H       1  UNL1        0.0618
     42 H          -7.8767   -1.4306    1.0589 H       1  UNL1        0.0618
     43 H          -5.5011   -1.4254    1.4720 H       1  UNL1        0.0637
     44 H          -0.0993    0.1711    0.7536 H       1  UNL1        0.0645
     45 H           6.9583   -0.4665    1.4863 H       1  UNL1        0.0625
     46 H           9.2137    0.1102    0.9005 H       1  UNL1        0.0618
     47 H           9.6810    1.5631   -0.9661 H       1  UNL1        0.0618
     48 H           7.8373    2.4459   -2.2650 H       1  UNL1        0.0618
     49 H           5.6013    1.8725   -1.6843 H       1  UNL1        0.0625
@<TRIPOS>BOND
     1     1     2    2
     2     2     3   am
     3     2    25    1
     4     3     4    1
     5     4     5   am
     6     5     6    2
     7     5     7    1
     8     7     8   ar
     9     7    24   ar
    10     8     9   ar
    11     9    10   ar
    12    10    11   ar
    13    11    12    1
    14    11    24   ar
    15    12    13    2
    16    12    14    2
    17    12    15    1
    18    15    16    1
    19    15    23    1
    20    16    17    1
    21    17    18    1
    22    18    19   ar
    23    18    23   ar
    24    19    20   ar
    25    20    21   ar
    26    21    22   ar
    27    22    23   ar
    28    25    26   ar
    29    25    30   ar
    30    26    27   ar
    31    27    28   ar
    32    28    29   ar
    33    29    30   ar
    34     3    31    1
    35     4    32    1
    36     8    33    1
    37     9    34    1
    38    10    35    1
    39    16    36    1
    40    16    37    1
    41    17    38    1
    42    17    39    1
    43    19    40    1
    44    20    41    1
    45    21    42    1
    46    22    43    1
    47    24    44    1
    48    26    45    1
    49    27    46    1
    50    28    47    1
    51    29    48    1
    52    30    49    1
@<TRIPOS>MOLECULE
../data/bude_mols_rdkit_confs/molecule_97.pdb
 49 52 0 0 0
SMALL
GASTEIGER

@<TRIPOS>ATOM
      1  O1         3.7380   -0.6220    1.6620 O.2     1  UNL1       -0.2687
      2  C1         4.4460   -0.4930    0.6200 C.2     1  UNL1        0.2601
      3  N1         3.8520    0.0500   -0.5290 N.am    1  UNL1       -0.2301
      4  N2         2.4820    0.4500   -0.5360 N.am    1  UNL1       -0.2301
      5  C2         2.0230    1.5330    0.2560 C.2     1  UNL1        0.2602
      6  O2         2.9080    2.1170    0.9710 O.2     1  UNL1       -0.2687
      7  C3         0.6360    1.9850    0.2790 C.ar    1  UNL1        0.0400
      8  C4         0.2740    2.9600    1.1970 C.ar    1  UNL1       -0.0495
      9  C5        -1.0400    3.4380    1.2550 C.ar    1  UNL1       -0.0592
     10  C6        -2.0050    2.9510    0.4030 C.ar    1  UNL1       -0.0350
     11  C7        -1.6170    1.9740   -0.5080 C.ar    1  UNL1        0.1094
     12  S1        -2.7940    1.3260   -1.6180 S.O2    1  UNL1        0.0747
     13  O3        -3.7760    2.3360   -2.0790 O.2     1  UNL1       -0.1498
     14  O4        -2.0720    0.8070   -2.8400 O.2     1  UNL1       -0.1498
     15  N3        -3.5820   -0.0070   -0.8510 N.pl3   1  UNL1       -0.2024
     16  C8        -2.9750   -1.2380   -0.3880 C.3     1  UNL1        0.0390
     17  C9        -4.1190   -2.2220   -0.4960 C.3     1  UNL1       -0.0083
     18  C10       -5.3080   -1.3720   -0.3510 C.ar    1  UNL1       -0.0232
     19  C11       -6.6400   -1.6340   -0.0520 C.ar    1  UNL1       -0.0567
     20  C12       -7.6120   -0.6700    0.0350 C.ar    1  UNL1       -0.0614
     21  C13       -7.2580    0.6410   -0.1860 C.ar    1  UNL1       -0.0599
     22  C14       -5.9530    0.9670   -0.4860 C.ar    1  UNL1       -0.0388
     23  C15       -4.9940   -0.0470   -0.5640 C.ar    1  UNL1        0.0545
     24  C16       -0.3100    1.5000   -0.5640 C.ar    1  UNL1       -0.0229
     25  C17        5.8510   -0.8980    0.6020 C.ar    1  UNL1        0.0382
     26  C18        6.4190   -1.3310    1.7900 C.ar    1  UNL1       -0.0496
     27  C19        7.7240   -1.7220    1.8000 C.ar    1  UNL1       -0.0610
     28  C20        8.4840   -1.6900    0.6370 C.ar    1  UNL1       -0.0617
     29  C21        7.9000   -1.2600   -0.5200 C.ar    1  UNL1       -0.0610
     30  C22        6.5640   -0.8540   -0.5580 C.ar    1  UNL1       -0.0496
     31 H           4.3905    0.1572   -1.3462 H       1  UNL1        0.1731
     32 H           1.8414   -0.0368   -1.1033 H       1  UNL1        0.1731
     33 H           0.9826    3.3376    1.8453 H       1  UNL1        0.0625
     34 H          -1.2884    4.1643    1.9448 H       1  UNL1        0.0618
     35 H          -2.9768    3.2966    0.4386 H       1  UNL1        0.0637
     36 H          -2.6364   -1.1468    0.6229 H       1  UNL1        0.0485
     37 H          -2.1087   -1.5251   -0.9466 H       1  UNL1        0.0485
     38 H          -4.0719   -2.9522    0.2847 H       1  UNL1        0.0330
     39 H          -4.1095   -2.7776   -1.4104 H       1  UNL1        0.0330
     40 H          -6.9147   -2.6147    0.1149 H       1  UNL1        0.0621
     41 H          -8.5868   -0.9224    0.2611 H       1  UNL1        0.0618
     42 H          -7.9726    1.3832   -0.1269 H       1  UNL1        0.0618
     43 H          -5.6864    1.9501   -0.6514 H       1  UNL1        0.0637
     44 H          -0.0581    0.7736   -1.2524 H       1  UNL1        0.0645
     45 H           5.8597   -1.3569    2.6569 H       1  UNL1        0.0625
     46 H           8.1530   -2.0456    2.6811 H       1  UNL1        0.0618
     47 H           9.4726   -1.9861    0.6476 H       1  UNL1        0.0618
     48 H           8.4591   -1.2344   -1.3871 H       1  UNL1        0.0618
     49 H           6.1307   -0.5309   -1.4371 H       1  UNL1        0.0625
@<TRIPOS>BOND
     1     1     2    2
     2     2     3   am
     3     2    25    1
     4     3     4    1
     5     4     5   am
     6     5     6    2
     7     5     7    1
     8     7     8   ar
     9     7    24   ar
    10     8     9   ar
    11     9    10   ar
    12    10    11   ar
    13    11    12    1
    14    11    24   ar
    15    12    13    2
    16    12    14    2
    17    12    15    1
    18    15    16    1
    19    15    23    1
    20    16    17    1
    21    17    18    1
    22    18    19   ar
    23    18    23   ar
    24    19    20   ar
    25    20    21   ar
    26    21    22   ar
    27    22    23   ar
    28    25    26   ar
    29    25    30   ar
    30    26    27   ar
    31    27    28   ar
    32    28    29   ar
    33    29    30   ar
    34     3    31    1
    35     4    32    1
    36     8    33    1
    37     9    34    1
    38    10    35    1
    39    16    36    1
    40    16    37    1
    41    17    38    1
    42    17    39    1
    43    19    40    1
    44    20    41    1
    45    21    42    1
    46    22    43    1
    47    24    44    1
    48    26    45    1
    49    27    46    1
    50    28    47    1
    51    29    48    1
    52    30    49    1
@<TRIPOS>MOLECULE
../data/bude_mols_rdkit_confs/molecule_97.pdb
 49 52 0 0 0
SMALL
GASTEIGER

@<TRIPOS>ATOM
      1  O1        -4.1930   -1.4800    1.5760 O.2     1  UNL1       -0.2687
      2  C1        -4.7410   -0.6700    0.7720 C.2     1  UNL1        0.2601
      3  N1        -3.9680   -0.1610   -0.2800 N.am    1  UNL1       -0.2301
      4  N2        -2.6130   -0.4770   -0.5100 N.am    1  UNL1       -0.2301
      5  C2        -1.9150   -0.0250   -1.6580 C.2     1  UNL1        0.2602
      6  O2        -2.5890    0.6850   -2.4730 O.2     1  UNL1       -0.2687
      7  C3        -0.5050   -0.3550   -1.8940 C.ar    1  UNL1        0.0400
      8  C4         0.0620   -0.3760   -3.1490 C.ar    1  UNL1       -0.0495
      9  C5         1.3880   -0.6990   -3.3350 C.ar    1  UNL1       -0.0592
     10  C6         2.1850   -1.0140   -2.2420 C.ar    1  UNL1       -0.0350
     11  C7         1.6470   -1.0010   -0.9860 C.ar    1  UNL1        0.1094
     12  S1         2.5980   -1.4120    0.4310 S.O2    1  UNL1        0.0747
     13  O3         3.3420   -2.6580    0.1740 O.2     1  UNL1       -0.1498
     14  O4         1.6820   -1.4910    1.6340 O.2     1  UNL1       -0.1498
     15  N3         3.6300   -0.0460    0.7190 N.pl3   1  UNL1       -0.2024
     16  C8         3.2690    1.3180    1.0180 C.3     1  UNL1        0.0390
     17  C9         4.3200    2.0740    0.2210 C.3     1  UNL1       -0.0083
     18  C10        5.5290    1.2180    0.4080 C.ar    1  UNL1       -0.0232
     19  C11        6.8750    1.4850    0.3320 C.ar    1  UNL1       -0.0567
     20  C12        7.7580    0.4540    0.5550 C.ar    1  UNL1       -0.0614
     21  C13        7.3200   -0.8180    0.8490 C.ar    1  UNL1       -0.0599
     22  C14        5.9520   -1.0940    0.9260 C.ar    1  UNL1       -0.0388
     23  C15        5.0680   -0.0620    0.7030 C.ar    1  UNL1        0.0545
     24  C16        0.3220   -0.6740   -0.8350 C.ar    1  UNL1       -0.0229
     25  C17       -6.1200   -0.2400    0.8800 C.ar    1  UNL1        0.0382
     26  C18       -7.0470   -1.0910    1.4240 C.ar    1  UNL1       -0.0496
     27  C19       -8.3660   -0.6110    1.5010 C.ar    1  UNL1       -0.0610
     28  C20       -8.7250    0.6390    1.0590 C.ar    1  UNL1       -0.0617
     29  C21       -7.7710    1.4600    0.5220 C.ar    1  UNL1       -0.0610
     30  C22       -6.4600    1.0130    0.4340 C.ar    1  UNL1       -0.0496
     31 H          -4.4029    0.4633   -0.9047 H       1  UNL1        0.1731
     32 H          -2.1354   -1.0305    0.1494 H       1  UNL1        0.1731
     33 H          -0.5202   -0.1444   -3.9690 H       1  UNL1        0.0625
     34 H           1.7890   -0.7069   -4.2859 H       1  UNL1        0.0618
     35 H           3.1788   -1.2567   -2.3778 H       1  UNL1        0.0637
     36 H           3.3451    1.5247    2.0651 H       1  UNL1        0.0485
     37 H           2.2593    1.5725    0.7717 H       1  UNL1        0.0485
     38 H           4.4747    3.0564    0.6158 H       1  UNL1        0.0330
     39 H           4.0552    2.2275   -0.8043 H       1  UNL1        0.0330
     40 H           7.2146    2.4346    0.1132 H       1  UNL1        0.0621
     41 H           8.7720    0.6381    0.5007 H       1  UNL1        0.0618
     42 H           8.0056   -1.5716    1.0134 H       1  UNL1        0.0618
     43 H           5.6140   -2.0444    1.1438 H       1  UNL1        0.0637
     44 H          -0.0757   -0.6662    0.1173 H       1  UNL1        0.0645
     45 H          -6.7904   -2.0329    1.7588 H       1  UNL1        0.0625
     46 H          -9.0930   -1.2216    1.9054 H       1  UNL1        0.0618
     47 H          -9.7045    0.9558    1.1312 H       1  UNL1        0.0618
     48 H          -8.0239    2.4023    0.1857 H       1  UNL1        0.0618
     49 H          -5.7355    1.6271    0.0303 H       1  UNL1        0.0625
@<TRIPOS>BOND
     1     1     2    2
     2     2     3   am
     3     2    25    1
     4     3     4    1
     5     4     5   am
     6     5     6    2
     7     5     7    1
     8     7     8   ar
     9     7    24   ar
    10     8     9   ar
    11     9    10   ar
    12    10    11   ar
    13    11    12    1
    14    11    24   ar
    15    12    13    2
    16    12    14    2
    17    12    15    1
    18    15    16    1
    19    15    23    1
    20    16    17    1
    21    17    18    1
    22    18    19   ar
    23    18    23   ar
    24    19    20   ar
    25    20    21   ar
    26    21    22   ar
    27    22    23   ar
    28    25    26   ar
    29    25    30   ar
    30    26    27   ar
    31    27    28   ar
    32    28    29   ar
    33    29    30   ar
    34     3    31    1
    35     4    32    1
    36     8    33    1
    37     9    34    1
    38    10    35    1
    39    16    36    1
    40    16    37    1
    41    17    38    1
    42    17    39    1
    43    19    40    1
    44    20    41    1
    45    21    42    1
    46    22    43    1
    47    24    44    1
    48    26    45    1
    49    27    46    1
    50    28    47    1
    51    29    48    1
    52    30    49    1
@<TRIPOS>MOLECULE
../data/bude_mols_rdkit_confs/molecule_97.pdb
 49 52 0 0 0
SMALL
GASTEIGER

@<TRIPOS>ATOM
      1  O1        -4.4860    0.7540   -1.5910 O.2     1  UNL1       -0.2687
      2  C1        -4.8300    0.0010   -0.6510 C.2     1  UNL1        0.2601
      3  N1        -4.0850   -0.1060    0.5450 N.am    1  UNL1       -0.2301
      4  N2        -2.9020    0.6450    0.7440 N.am    1  UNL1       -0.2301
      5  C2        -1.8210    0.6920   -0.1600 C.2     1  UNL1        0.2602
      6  O2        -1.9020    0.0240   -1.2200 O.2     1  UNL1       -0.2687
      7  C3        -0.6350    1.4910    0.1240 C.ar    1  UNL1        0.0400
      8  C4        -0.6130    2.5150    1.0640 C.ar    1  UNL1       -0.0495
      9  C5         0.5000    3.2680    1.3550 C.ar    1  UNL1       -0.0592
     10  C6         1.6660    2.9960    0.6780 C.ar    1  UNL1       -0.0350
     11  C7         1.7070    1.9870   -0.2730 C.ar    1  UNL1        0.1094
     12  S1         3.2290    1.6650   -1.0700 S.O2    1  UNL1        0.0747
     13  O3         4.1280    2.8590   -0.9000 O.2     1  UNL1       -0.1498
     14  O4         2.9950    1.5190   -2.5650 O.2     1  UNL1       -0.1498
     15  N3         3.9480    0.2280   -0.4630 N.pl3   1  UNL1       -0.2024
     16  C8         3.2900   -1.0750   -0.5740 C.3     1  UNL1        0.0390
     17  C9         4.4870   -1.9600   -0.8360 C.3     1  UNL1       -0.0083
     18  C10        5.5340   -1.3520    0.0120 C.ar    1  UNL1       -0.0232
     19  C11        6.6850   -1.8330    0.5720 C.ar    1  UNL1       -0.0567
     20  C12        7.4820   -0.9840    1.3150 C.ar    1  UNL1       -0.0614
     21  C13        7.1100    0.3390    1.4850 C.ar    1  UNL1       -0.0599
     22  C14        5.9520    0.8410    0.9280 C.ar    1  UNL1       -0.0388
     23  C15        5.1630   -0.0150    0.1880 C.ar    1  UNL1        0.0545
     24  C16        0.5640    1.2670   -0.5220 C.ar    1  UNL1       -0.0229
     25  C17       -6.0380   -0.7930   -0.8040 C.ar    1  UNL1        0.0382
     26  C18       -6.2500   -1.4550   -2.0040 C.ar    1  UNL1       -0.0496
     27  C19       -7.4030   -2.2050   -2.1740 C.ar    1  UNL1       -0.0610
     28  C20       -8.3630   -2.3240   -1.1920 C.ar    1  UNL1       -0.0617
     29  C21       -8.1430   -1.6550    0.0100 C.ar    1  UNL1       -0.0610
     30  C22       -6.9990   -0.9150    0.1720 C.ar    1  UNL1       -0.0496
     31 H          -4.3950   -0.7149    1.2538 H       1  UNL1        0.1731
     32 H          -2.8287    1.1719    1.5724 H       1  UNL1        0.1731
     33 H          -1.4854    2.7227    1.5746 H       1  UNL1        0.0625
     34 H           0.4615    4.0178    2.0630 H       1  UNL1        0.0618
     35 H           2.5158    3.5461    0.8788 H       1  UNL1        0.0637
     36 H           2.5942   -1.0993   -1.3865 H       1  UNL1        0.0485
     37 H           2.7035   -1.3547    0.2761 H       1  UNL1        0.0485
     38 H           4.7654   -1.9363   -1.8689 H       1  UNL1        0.0330
     39 H           4.3083   -2.9916   -0.6150 H       1  UNL1        0.0330
     40 H           6.9555   -2.8203    0.4409 H       1  UNL1        0.0621
     41 H           8.3531   -1.3350    1.7427 H       1  UNL1        0.0618
     42 H           7.7134    0.9644    2.0416 H       1  UNL1        0.0618
     43 H           5.6837    1.8286    1.0611 H       1  UNL1        0.0637
     44 H           0.6039    0.5178   -1.2306 H       1  UNL1        0.0645
     45 H          -5.5550   -1.3897   -2.7641 H       1  UNL1        0.0625
     46 H          -7.5486   -2.6937   -3.0712 H       1  UNL1        0.0618
     47 H          -9.2140   -2.8883   -1.3418 H       1  UNL1        0.0618
     48 H          -8.8353   -1.7156    0.7729 H       1  UNL1        0.0618
     49 H          -6.8527   -0.4266    1.0693 H       1  UNL1        0.0625
@<TRIPOS>BOND
     1     1     2    2
     2     2     3   am
     3     2    25    1
     4     3     4    1
     5     4     5   am
     6     5     6    2
     7     5     7    1
     8     7     8   ar
     9     7    24   ar
    10     8     9   ar
    11     9    10   ar
    12    10    11   ar
    13    11    12    1
    14    11    24   ar
    15    12    13    2
    16    12    14    2
    17    12    15    1
    18    15    16    1
    19    15    23    1
    20    16    17    1
    21    17    18    1
    22    18    19   ar
    23    18    23   ar
    24    19    20   ar
    25    20    21   ar
    26    21    22   ar
    27    22    23   ar
    28    25    26   ar
    29    25    30   ar
    30    26    27   ar
    31    27    28   ar
    32    28    29   ar
    33    29    30   ar
    34     3    31    1
    35     4    32    1
    36     8    33    1
    37     9    34    1
    38    10    35    1
    39    16    36    1
    40    16    37    1
    41    17    38    1
    42    17    39    1
    43    19    40    1
    44    20    41    1
    45    21    42    1
    46    22    43    1
    47    24    44    1
    48    26    45    1
    49    27    46    1
    50    28    47    1
    51    29    48    1
    52    30    49    1
@<TRIPOS>MOLECULE
../data/bude_mols_rdkit_confs/molecule_97.pdb
 49 52 0 0 0
SMALL
GASTEIGER

@<TRIPOS>ATOM
      1  O1         4.6960    0.6590   -1.3500 O.2     1  UNL1       -0.2687
      2  C1         4.9710   -0.4330   -0.7630 C.2     1  UNL1        0.2601
      3  N1         3.9190   -1.3080   -0.4540 N.am    1  UNL1       -0.2301
      4  N2         2.5970   -0.9250   -0.8160 N.am    1  UNL1       -0.2301
      5  C2         2.0150    0.2010   -0.1930 C.2     1  UNL1        0.2602
      6  O2         2.7250    0.8090    0.6760 O.2     1  UNL1       -0.2687
      7  C3         0.6990    0.7420   -0.4280 C.ar    1  UNL1        0.0400
      8  C4         0.3580    1.4470   -1.5590 C.ar    1  UNL1       -0.0495
      9  C5        -0.9080    1.9840   -1.7410 C.ar    1  UNL1       -0.0592
     10  C6        -1.8580    1.8020   -0.7490 C.ar    1  UNL1       -0.0350
     11  C7        -1.5490    1.1050    0.3830 C.ar    1  UNL1        0.1094
     12  S1        -2.7250    0.9390    1.6410 S.O2    1  UNL1        0.0747
     13  O3        -2.5760    2.1600    2.5430 O.2     1  UNL1       -0.1498
     14  O4        -2.3230   -0.3010    2.4470 O.2     1  UNL1       -0.1498
     15  N3        -4.3360    0.8130    1.1050 N.pl3   1  UNL1       -0.2024
     16  C8        -5.3530    1.8430    1.4060 C.3     1  UNL1        0.0390
     17  C9        -6.6600    1.0970    1.3880 C.3     1  UNL1       -0.0083
     18  C10       -6.3980   -0.0340    0.4570 C.ar    1  UNL1       -0.0232
     19  C11       -7.2790   -0.8580   -0.2110 C.ar    1  UNL1       -0.0567
     20  C12       -6.7660   -1.8410   -1.0340 C.ar    1  UNL1       -0.0614
     21  C13       -5.3970   -1.9490   -1.1470 C.ar    1  UNL1       -0.0599
     22  C14       -4.5000   -1.1380   -0.4890 C.ar    1  UNL1       -0.0388
     23  C15       -5.0280   -0.1490    0.3390 C.ar    1  UNL1        0.0545
     24  C16       -0.2960    0.5860    0.5400 C.ar    1  UNL1       -0.0229
     25  C17        6.3750   -0.6690   -0.4620 C.ar    1  UNL1        0.0382
     26  C18        7.3270   -0.6130   -1.4570 C.ar    1  UNL1       -0.0496
     27  C19        8.6720   -0.8240   -1.1940 C.ar    1  UNL1       -0.0610
     28  C20        9.1010   -1.1000    0.0970 C.ar    1  UNL1       -0.0617
     29  C21        8.1650   -1.1560    1.0840 C.ar    1  UNL1       -0.0610
     30  C22        6.8340   -0.9480    0.8250 C.ar    1  UNL1       -0.0496
     31 H           4.0906   -2.1640    0.0010 H       1  UNL1        0.1731
     32 H           2.0956   -1.4374   -1.4907 H       1  UNL1        0.1731
     33 H           1.0675    1.5808   -2.2964 H       1  UNL1        0.0625
     34 H          -1.1379    2.5092   -2.5991 H       1  UNL1        0.0618
     35 H          -2.8046    2.1957   -0.8667 H       1  UNL1        0.0637
     36 H          -5.3455    2.6112    0.6612 H       1  UNL1        0.0485
     37 H          -5.1749    2.3301    2.3419 H       1  UNL1        0.0485
     38 H          -7.4507    1.7185    1.0227 H       1  UNL1        0.0330
     39 H          -6.9709    0.7749    2.3599 H       1  UNL1        0.0330
     40 H          -8.2983   -0.7427   -0.0985 H       1  UNL1        0.0621
     41 H          -7.3917   -2.4783   -1.5511 H       1  UNL1        0.0618
     42 H          -5.0199   -2.6850   -1.7644 H       1  UNL1        0.0618
     43 H          -3.4813   -1.2571   -0.6038 H       1  UNL1        0.0637
     44 H          -0.0769    0.0616    1.4014 H       1  UNL1        0.0645
     45 H           7.0308   -0.4085   -2.4242 H       1  UNL1        0.0625
     46 H           9.3585   -0.7755   -1.9630 H       1  UNL1        0.0618
     47 H          10.0999   -1.2581    0.3025 H       1  UNL1        0.0618
     48 H           8.4640   -1.3599    2.0505 H       1  UNL1        0.0618
     49 H           6.1560   -0.9992    1.6013 H       1  UNL1        0.0625
@<TRIPOS>BOND
     1     1     2    2
     2     2     3   am
     3     2    25    1
     4     3     4    1
     5     4     5   am
     6     5     6    2
     7     5     7    1
     8     7     8   ar
     9     7    24   ar
    10     8     9   ar
    11     9    10   ar
    12    10    11   ar
    13    11    12    1
    14    11    24   ar
    15    12    13    2
    16    12    14    2
    17    12    15    1
    18    15    16    1
    19    15    23    1
    20    16    17    1
    21    17    18    1
    22    18    19   ar
    23    18    23   ar
    24    19    20   ar
    25    20    21   ar
    26    21    22   ar
    27    22    23   ar
    28    25    26   ar
    29    25    30   ar
    30    26    27   ar
    31    27    28   ar
    32    28    29   ar
    33    29    30   ar
    34     3    31    1
    35     4    32    1
    36     8    33    1
    37     9    34    1
    38    10    35    1
    39    16    36    1
    40    16    37    1
    41    17    38    1
    42    17    39    1
    43    19    40    1
    44    20    41    1
    45    21    42    1
    46    22    43    1
    47    24    44    1
    48    26    45    1
    49    27    46    1
    50    28    47    1
    51    29    48    1
    52    30    49    1
@<TRIPOS>MOLECULE
../data/bude_mols_rdkit_confs/molecule_97.pdb
 49 52 0 0 0
SMALL
GASTEIGER

@<TRIPOS>ATOM
      1  O1         5.6380   -0.1480    1.2340 O.2     1  UNL1       -0.2687
      2  C1         5.4090   -0.0530    0.0070 C.2     1  UNL1        0.2601
      3  N1         4.0860    0.2020   -0.3900 N.am    1  UNL1       -0.2301
      4  N2         3.0250    0.3510    0.5330 N.am    1  UNL1       -0.2301
      5  C2         1.7970   -0.2790    0.2410 C.2     1  UNL1        0.2602
      6  O2         1.7220   -0.9380   -0.8250 O.2     1  UNL1       -0.2687
      7  C3         0.6450   -0.1860    1.1210 C.ar    1  UNL1        0.0400
      8  C4         0.6750    0.4190    2.3590 C.ar    1  UNL1       -0.0495
      9  C5        -0.4600    0.4780    3.1390 C.ar    1  UNL1       -0.0592
     10  C6        -1.6300   -0.0680    2.6800 C.ar    1  UNL1       -0.0350
     11  C7        -1.6700   -0.6670    1.4580 C.ar    1  UNL1        0.1094
     12  S1        -3.1410   -1.3710    0.8420 S.O2    1  UNL1        0.0747
     13  O3        -3.9380   -1.9280    1.9900 O.2     1  UNL1       -0.1498
     14  O4        -2.8210   -2.5510   -0.0600 O.2     1  UNL1       -0.1498
     15  N3        -4.0670   -0.2680   -0.0650 N.pl3   1  UNL1       -0.2024
     16  C8        -3.6810    0.4090   -1.2830 C.3     1  UNL1        0.0390
     17  C9        -4.9970    0.4560   -2.0240 C.3     1  UNL1       -0.0083
     18  C10       -5.9960    0.6170   -0.9390 C.ar    1  UNL1       -0.0232
     19  C11       -7.2880    1.0900   -0.9050 C.ar    1  UNL1       -0.0567
     20  C12       -7.9850    1.1180    0.2990 C.ar    1  UNL1       -0.0614
     21  C13       -7.4150    0.6800    1.4750 C.ar    1  UNL1       -0.0599
     22  C14       -6.1270    0.2140    1.4120 C.ar    1  UNL1       -0.0388
     23  C15       -5.3860    0.1650    0.2360 C.ar    1  UNL1        0.0545
     24  C16       -0.5550   -0.7360    0.6710 C.ar    1  UNL1       -0.0229
     25  C17        6.5180   -0.2110   -0.9320 C.ar    1  UNL1        0.0382
     26  C18        6.3830   -0.1110   -2.2840 C.ar    1  UNL1       -0.0496
     27  C19        7.4670   -0.2700   -3.1560 C.ar    1  UNL1       -0.0610
     28  C20        8.7140   -0.5350   -2.6470 C.ar    1  UNL1       -0.0617
     29  C21        8.8840   -0.6420   -1.2780 C.ar    1  UNL1       -0.0610
     30  C22        7.7960   -0.4810   -0.4530 C.ar    1  UNL1       -0.0496
     31 H           3.8890    0.2803   -1.3514 H       1  UNL1        0.1731
     32 H           3.1400    0.8793    1.3558 H       1  UNL1        0.1731
     33 H           1.5553    0.8316    2.7052 H       1  UNL1        0.0625
     34 H          -0.4287    0.9318    4.0654 H       1  UNL1        0.0618
     35 H          -2.4817   -0.0251    3.2612 H       1  UNL1        0.0637
     36 H          -2.9458   -0.1483   -1.8250 H       1  UNL1        0.0485
     37 H          -3.2302    1.3670   -1.1284 H       1  UNL1        0.0485
     38 H          -5.1637   -0.4510   -2.5666 H       1  UNL1        0.0330
     39 H          -5.0396    1.2398   -2.7512 H       1  UNL1        0.0330
     40 H          -7.7392    1.4234   -1.7712 H       1  UNL1        0.0621
     41 H          -8.9530    1.4757    0.3117 H       1  UNL1        0.0618
     42 H          -7.9358    0.7019    2.3657 H       1  UNL1        0.0618
     43 H          -5.6841   -0.1179    2.2830 H       1  UNL1        0.0637
     44 H          -0.6008   -1.1934   -0.2530 H       1  UNL1        0.0645
     45 H           5.4506    0.0886   -2.6787 H       1  UNL1        0.0625
     46 H           7.3292   -0.1884   -4.1755 H       1  UNL1        0.0618
     47 H           9.5194   -0.6536   -3.2812 H       1  UNL1        0.0618
     48 H           9.8158   -0.8402   -0.8812 H       1  UNL1        0.0618
     49 H           7.9334   -0.5641    0.5664 H       1  UNL1        0.0625
@<TRIPOS>BOND
     1     1     2    2
     2     2     3   am
     3     2    25    1
     4     3     4    1
     5     4     5   am
     6     5     6    2
     7     5     7    1
     8     7     8   ar
     9     7    24   ar
    10     8     9   ar
    11     9    10   ar
    12    10    11   ar
    13    11    12    1
    14    11    24   ar
    15    12    13    2
    16    12    14    2
    17    12    15    1
    18    15    16    1
    19    15    23    1
    20    16    17    1
    21    17    18    1
    22    18    19   ar
    23    18    23   ar
    24    19    20   ar
    25    20    21   ar
    26    21    22   ar
    27    22    23   ar
    28    25    26   ar
    29    25    30   ar
    30    26    27   ar
    31    27    28   ar
    32    28    29   ar
    33    29    30   ar
    34     3    31    1
    35     4    32    1
    36     8    33    1
    37     9    34    1
    38    10    35    1
    39    16    36    1
    40    16    37    1
    41    17    38    1
    42    17    39    1
    43    19    40    1
    44    20    41    1
    45    21    42    1
    46    22    43    1
    47    24    44    1
    48    26    45    1
    49    27    46    1
    50    28    47    1
    51    29    48    1
    52    30    49    1
@<TRIPOS>MOLECULE
../data/bude_mols_rdkit_confs/molecule_97.pdb
 49 52 0 0 0
SMALL
GASTEIGER

@<TRIPOS>ATOM
      1  O1         4.6540   -0.5540   -1.1870 O.2     1  UNL1       -0.2687
      2  C1         4.7390   -0.5070    0.0740 C.2     1  UNL1        0.2601
      3  N1         3.5150   -0.4430    0.7830 N.am    1  UNL1       -0.2301
      4  N2         2.2510   -0.4320    0.1370 N.am    1  UNL1       -0.2301
      5  C2         2.0010    0.5790   -0.8230 C.2     1  UNL1        0.2602
      6  O2         2.9150    1.4180   -1.0560 O.2     1  UNL1       -0.2687
      7  C3         0.7180    0.6260   -1.5080 C.ar    1  UNL1        0.0400
      8  C4         0.5280    1.5360   -2.5530 C.ar    1  UNL1       -0.0495
      9  C5        -0.6570    1.6390   -3.2440 C.ar    1  UNL1       -0.0592
     10  C6        -1.7100    0.8200   -2.9050 C.ar    1  UNL1       -0.0350
     11  C7        -1.5620   -0.0900   -1.8810 C.ar    1  UNL1        0.1094
     12  S1        -2.8210   -1.1720   -1.3660 S.O2    1  UNL1        0.0747
     13  O3        -3.6900   -1.6200   -2.4820 O.2     1  UNL1       -0.1498
     14  O4        -2.2140   -2.3900   -0.7040 O.2     1  UNL1       -0.1498
     15  N3        -3.7300   -0.3500   -0.1380 N.pl3   1  UNL1       -0.2024
     16  C8        -3.2600    0.1310    1.1460 C.3     1  UNL1        0.0390
     17  C9        -4.4550   -0.2220    2.0320 C.3     1  UNL1       -0.0083
     18  C10       -5.5940    0.0810    1.1110 C.ar    1  UNL1       -0.0232
     19  C11       -6.9170    0.4030    1.3340 C.ar    1  UNL1       -0.0567
     20  C12       -7.7690    0.6390    0.2770 C.ar    1  UNL1       -0.0614
     21  C13       -7.2640    0.5460   -1.0160 C.ar    1  UNL1       -0.0599
     22  C14       -5.9540    0.2280   -1.2880 C.ar    1  UNL1       -0.0388
     23  C15       -5.1170   -0.0050   -0.1900 C.ar    1  UNL1        0.0545
     24  C16       -0.3430   -0.1730   -1.1950 C.ar    1  UNL1       -0.0229
     25  C17        6.0370   -0.5170    0.7470 C.ar    1  UNL1        0.0382
     26  C18        7.1790   -0.4990   -0.0280 C.ar    1  UNL1       -0.0496
     27  C19        8.4450   -0.5090    0.5230 C.ar    1  UNL1       -0.0610
     28  C20        8.6120   -0.5380    1.8980 C.ar    1  UNL1       -0.0617
     29  C21        7.4800   -0.5570    2.6740 C.ar    1  UNL1       -0.0610
     30  C22        6.2010   -0.5470    2.1100 C.ar    1  UNL1       -0.0496
     31 H           3.5417   -0.4045    1.7664 H       1  UNL1        0.1731
     32 H           1.5676   -1.1078    0.3502 H       1  UNL1        0.1731
     33 H           1.3096    2.1562   -2.8167 H       1  UNL1        0.0625
     34 H          -0.7556    2.3240   -4.0095 H       1  UNL1        0.0618
     35 H          -2.6049    0.8871   -3.4146 H       1  UNL1        0.0637
     36 H          -3.0781    1.1853    1.1301 H       1  UNL1        0.0485
     37 H          -2.3293   -0.2893    1.4654 H       1  UNL1        0.0485
     38 H          -4.4868    0.3886    2.9101 H       1  UNL1        0.0330
     39 H          -4.4454   -1.2245    2.4060 H       1  UNL1        0.0330
     40 H          -7.2716    0.4677    2.3010 H       1  UNL1        0.0621
     41 H          -8.7592    0.8793    0.4408 H       1  UNL1        0.0618
     42 H          -7.9019    0.7239   -1.8075 H       1  UNL1        0.0618
     43 H          -5.6040    0.1640   -2.2567 H       1  UNL1        0.0637
     44 H          -0.2447   -0.8589   -0.4302 H       1  UNL1        0.0645
     45 H           7.0833   -0.4773   -1.0553 H       1  UNL1        0.0625
     46 H           9.2724   -0.4948   -0.0936 H       1  UNL1        0.0618
     47 H           9.5524   -0.5451    2.3229 H       1  UNL1        0.0618
     48 H           7.5757   -0.5793    3.7013 H       1  UNL1        0.0618
     49 H           5.3717   -0.5623    2.7241 H       1  UNL1        0.0625
@<TRIPOS>BOND
     1     1     2    2
     2     2     3   am
     3     2    25    1
     4     3     4    1
     5     4     5   am
     6     5     6    2
     7     5     7    1
     8     7     8   ar
     9     7    24   ar
    10     8     9   ar
    11     9    10   ar
    12    10    11   ar
    13    11    12    1
    14    11    24   ar
    15    12    13    2
    16    12    14    2
    17    12    15    1
    18    15    16    1
    19    15    23    1
    20    16    17    1
    21    17    18    1
    22    18    19   ar
    23    18    23   ar
    24    19    20   ar
    25    20    21   ar
    26    21    22   ar
    27    22    23   ar
    28    25    26   ar
    29    25    30   ar
    30    26    27   ar
    31    27    28   ar
    32    28    29   ar
    33    29    30   ar
    34     3    31    1
    35     4    32    1
    36     8    33    1
    37     9    34    1
    38    10    35    1
    39    16    36    1
    40    16    37    1
    41    17    38    1
    42    17    39    1
    43    19    40    1
    44    20    41    1
    45    21    42    1
    46    22    43    1
    47    24    44    1
    48    26    45    1
    49    27    46    1
    50    28    47    1
    51    29    48    1
    52    30    49    1
@<TRIPOS>MOLECULE
../data/bude_mols_rdkit_confs/molecule_97.pdb
 49 52 0 0 0
SMALL
GASTEIGER

@<TRIPOS>ATOM
      1  O1         4.5730    1.5700   -0.5590 O.2     1  UNL1       -0.2687
      2  C1         4.7760    0.3730   -0.2540 C.2     1  UNL1        0.2601
      3  N1         3.6580   -0.4910   -0.2550 N.am    1  UNL1       -0.2301
      4  N2         2.3460   -0.0920   -0.5720 N.am    1  UNL1       -0.2301
      5  C2         1.8010    0.9950    0.1600 C.2     1  UNL1        0.2602
      6  O2         2.4940    1.5430    1.0370 O.2     1  UNL1       -0.2687
      7  C3         0.4510    1.5050   -0.0710 C.ar    1  UNL1        0.0400
      8  C4         0.0800    2.7040    0.5270 C.ar    1  UNL1       -0.0495
      9  C5        -1.1880    3.1650    0.3080 C.ar    1  UNL1       -0.0592
     10  C6        -2.0810    2.4690   -0.4810 C.ar    1  UNL1       -0.0350
     11  C7        -1.7200    1.2810   -1.0750 C.ar    1  UNL1        0.1094
     12  S1        -2.8550    0.3820   -2.0790 S.O2    1  UNL1        0.0747
     13  O3        -2.0490   -0.4030   -3.1060 O.2     1  UNL1       -0.1498
     14  O4        -3.7870    1.3000   -2.8130 O.2     1  UNL1       -0.1498
     15  N3        -3.6790   -0.7140   -1.0640 N.pl3   1  UNL1       -0.2024
     16  C8        -3.1430   -1.7960   -0.2820 C.3     1  UNL1        0.0390
     17  C9        -4.0150   -1.7460    0.9460 C.3     1  UNL1       -0.0083
     18  C10       -5.3410   -1.3510    0.3850 C.ar    1  UNL1       -0.0232
     19  C11       -6.6400   -1.4850    0.8270 C.ar    1  UNL1       -0.0567
     20  C12       -7.6650   -0.9940    0.0560 C.ar    1  UNL1       -0.0614
     21  C13       -7.4100   -0.3680   -1.1520 C.ar    1  UNL1       -0.0599
     22  C14       -6.1150   -0.2300   -1.6030 C.ar    1  UNL1       -0.0388
     23  C15       -5.0950   -0.7300   -0.8160 C.ar    1  UNL1        0.0545
     24  C16       -0.4430    0.8090   -0.8610 C.ar    1  UNL1       -0.0229
     25  C17        6.1230   -0.0660    0.0800 C.ar    1  UNL1        0.0382
     26  C18        7.0870    0.9020    0.2720 C.ar    1  UNL1       -0.0496
     27  C19        8.4030    0.6150    0.5910 C.ar    1  UNL1       -0.0610
     28  C20        8.7580   -0.7100    0.7200 C.ar    1  UNL1       -0.0617
     29  C21        7.7980   -1.6790    0.5290 C.ar    1  UNL1       -0.0610
     30  C22        6.4830   -1.3900    0.2110 C.ar    1  UNL1       -0.0496
     31 H           3.8066   -1.4350   -0.0182 H       1  UNL1        0.1731
     32 H           1.8272   -0.5485   -1.2732 H       1  UNL1        0.1731
     33 H           0.7421    3.2302    1.1185 H       1  UNL1        0.0625
     34 H          -1.4841    4.0531    0.7423 H       1  UNL1        0.0618
     35 H          -3.0313    2.8439   -0.6275 H       1  UNL1        0.0637
     36 H          -2.1149   -1.6286   -0.0375 H       1  UNL1        0.0485
     37 H          -3.1527   -2.7411   -0.7836 H       1  UNL1        0.0485
     38 H          -3.6582   -1.0179    1.6442 H       1  UNL1        0.0330
     39 H          -4.0392   -2.6673    1.4897 H       1  UNL1        0.0330
     40 H          -6.8399   -1.9489    1.7269 H       1  UNL1        0.0621
     41 H          -8.6392   -1.0932    0.3819 H       1  UNL1        0.0618
     42 H          -8.1927   -0.0032   -1.7171 H       1  UNL1        0.0618
     43 H          -5.9128    0.2334   -2.5026 H       1  UNL1        0.0637
     44 H          -0.1500   -0.0788   -1.2981 H       1  UNL1        0.0645
     45 H           6.8126    1.8919    0.1726 H       1  UNL1        0.0625
     46 H           9.0951    1.3683    0.7276 H       1  UNL1        0.0618
     47 H           9.7278   -0.9723    0.9560 H       1  UNL1        0.0618
     48 H           8.0730   -2.6687    0.6279 H       1  UNL1        0.0618
     49 H           5.7915   -2.1440    0.0758 H       1  UNL1        0.0625
@<TRIPOS>BOND
     1     1     2    2
     2     2     3   am
     3     2    25    1
     4     3     4    1
     5     4     5   am
     6     5     6    2
     7     5     7    1
     8     7     8   ar
     9     7    24   ar
    10     8     9   ar
    11     9    10   ar
    12    10    11   ar
    13    11    12    1
    14    11    24   ar
    15    12    13    2
    16    12    14    2
    17    12    15    1
    18    15    16    1
    19    15    23    1
    20    16    17    1
    21    17    18    1
    22    18    19   ar
    23    18    23   ar
    24    19    20   ar
    25    20    21   ar
    26    21    22   ar
    27    22    23   ar
    28    25    26   ar
    29    25    30   ar
    30    26    27   ar
    31    27    28   ar
    32    28    29   ar
    33    29    30   ar
    34     3    31    1
    35     4    32    1
    36     8    33    1
    37     9    34    1
    38    10    35    1
    39    16    36    1
    40    16    37    1
    41    17    38    1
    42    17    39    1
    43    19    40    1
    44    20    41    1
    45    21    42    1
    46    22    43    1
    47    24    44    1
    48    26    45    1
    49    27    46    1
    50    28    47    1
    51    29    48    1
    52    30    49    1
@<TRIPOS>MOLECULE
../data/bude_mols_rdkit_confs/molecule_97.pdb
 49 52 0 0 0
SMALL
GASTEIGER

@<TRIPOS>ATOM
      1  O1         4.7840   -0.6470   -1.0550 O.2     1  UNL1       -0.2687
      2  C1         4.9260    0.1220   -0.0380 C.2     1  UNL1        0.2601
      3  N1         3.7270    0.5490    0.5670 N.am    1  UNL1       -0.2301
      4  N2         2.4550    0.1450    0.0740 N.am    1  UNL1       -0.2301
      5  C2         1.9340   -1.1550    0.2740 C.2     1  UNL1        0.2602
      6  O2         2.6420   -1.9730    0.9190 O.2     1  UNL1       -0.2687
      7  C3         0.6200   -1.5450   -0.2450 C.ar    1  UNL1        0.0400
      8  C4         0.3190   -2.8880   -0.2440 C.ar    1  UNL1       -0.0495
      9  C5        -0.8850   -3.3340   -0.7060 C.ar    1  UNL1       -0.0592
     10  C6        -1.7840   -2.4230   -1.1680 C.ar    1  UNL1       -0.0350
     11  C7        -1.5320   -1.0700   -1.1900 C.ar    1  UNL1        0.1094
     12  S1        -2.7280    0.0510   -1.8000 S.O2    1  UNL1        0.0747
     13  O3        -3.5010   -0.6010   -2.8840 O.2     1  UNL1       -0.1498
     14  O4        -2.0400    1.2710   -2.3690 O.2     1  UNL1       -0.1498
     15  N3        -3.7590    0.4800   -0.5020 N.pl3   1  UNL1       -0.2024
     16  C8        -3.4510    1.1480    0.7450 C.3     1  UNL1        0.0390
     17  C9        -4.6800    2.0100    0.9520 C.3     1  UNL1       -0.0083
     18  C10       -5.7640    1.1190    0.4190 C.ar    1  UNL1       -0.0232
     19  C11       -7.1250    1.1010    0.6680 C.ar    1  UNL1       -0.0567
     20  C12       -7.8950    0.1500    0.0160 C.ar    1  UNL1       -0.0614
     21  C13       -7.3500   -0.7670   -0.8610 C.ar    1  UNL1       -0.0599
     22  C14       -5.9910   -0.7020   -1.0690 C.ar    1  UNL1       -0.0388
     23  C15       -5.1750    0.2240   -0.4490 C.ar    1  UNL1        0.0545
     24  C16       -0.3010   -0.6420   -0.7150 C.ar    1  UNL1       -0.0229
     25  C17        6.2620    0.4810    0.3950 C.ar    1  UNL1        0.0382
     26  C18        7.3540    0.1010   -0.3480 C.ar    1  UNL1       -0.0496
     27  C19        8.6320    0.4400    0.0570 C.ar    1  UNL1       -0.0610
     28  C20        8.8360    1.1590    1.2010 C.ar    1  UNL1       -0.0617
     29  C21        7.7510    1.5550    1.9670 C.ar    1  UNL1       -0.0610
     30  C22        6.4730    1.1980    1.5340 C.ar    1  UNL1       -0.0496
     31 H           3.7707    1.1424    1.3513 H       1  UNL1        0.1731
     32 H           1.9146    0.7976   -0.4274 H       1  UNL1        0.1731
     33 H           1.0120   -3.5657    0.1103 H       1  UNL1        0.0625
     34 H          -1.1091   -4.3414   -0.7050 H       1  UNL1        0.0618
     35 H          -2.6944   -2.7612   -1.5171 H       1  UNL1        0.0637
     36 H          -2.5673    1.7451    0.6583 H       1  UNL1        0.0485
     37 H          -3.2519    0.4785    1.5556 H       1  UNL1        0.0485
     38 H          -4.6156    2.9223    0.3966 H       1  UNL1        0.0330
     39 H          -4.8294    2.3205    1.9650 H       1  UNL1        0.0330
     40 H          -7.5545    1.7758    1.3201 H       1  UNL1        0.0621
     41 H          -8.9115    0.1266    0.1924 H       1  UNL1        0.0618
     42 H          -7.9355   -1.4696   -1.3391 H       1  UNL1        0.0618
     43 H          -5.5609   -1.3778   -1.7197 H       1  UNL1        0.0637
     44 H          -0.0753    0.3650   -0.7149 H       1  UNL1        0.0645
     45 H           7.2191   -0.4418   -1.2153 H       1  UNL1        0.0625
     46 H           9.4416    0.1464   -0.5117 H       1  UNL1        0.0618
     47 H           9.7943    1.4062    1.4935 H       1  UNL1        0.0618
     48 H           7.8843    2.0989    2.8338 H       1  UNL1        0.0618
     49 H           5.6582    1.4878    2.0972 H       1  UNL1        0.0625
@<TRIPOS>BOND
     1     1     2    2
     2     2     3   am
     3     2    25    1
     4     3     4    1
     5     4     5   am
     6     5     6    2
     7     5     7    1
     8     7     8   ar
     9     7    24   ar
    10     8     9   ar
    11     9    10   ar
    12    10    11   ar
    13    11    12    1
    14    11    24   ar
    15    12    13    2
    16    12    14    2
    17    12    15    1
    18    15    16    1
    19    15    23    1
    20    16    17    1
    21    17    18    1
    22    18    19   ar
    23    18    23   ar
    24    19    20   ar
    25    20    21   ar
    26    21    22   ar
    27    22    23   ar
    28    25    26   ar
    29    25    30   ar
    30    26    27   ar
    31    27    28   ar
    32    28    29   ar
    33    29    30   ar
    34     3    31    1
    35     4    32    1
    36     8    33    1
    37     9    34    1
    38    10    35    1
    39    16    36    1
    40    16    37    1
    41    17    38    1
    42    17    39    1
    43    19    40    1
    44    20    41    1
    45    21    42    1
    46    22    43    1
    47    24    44    1
    48    26    45    1
    49    27    46    1
    50    28    47    1
    51    29    48    1
    52    30    49    1
@<TRIPOS>MOLECULE
../data/bude_mols_rdkit_confs/molecule_97.pdb
 49 52 0 0 0
SMALL
GASTEIGER

@<TRIPOS>ATOM
      1  O1         5.0080    0.2060    1.9380 O.2     1  UNL1       -0.2687
      2  C1         5.1710   -0.0580    0.7230 C.2     1  UNL1        0.2601
      3  N1         4.1650    0.3720   -0.1890 N.am    1  UNL1       -0.2301
      4  N2         3.0200    1.0670    0.2160 N.am    1  UNL1       -0.2301
      5  C2         1.7100    0.7510   -0.2230 C.2     1  UNL1        0.2602
      6  O2         1.5800   -0.2350   -1.0300 O.2     1  UNL1       -0.2687
      7  C3         0.5160    1.4720    0.1790 C.ar    1  UNL1        0.0400
      8  C4         0.5300    2.4110    1.1870 C.ar    1  UNL1       -0.0495
      9  C5        -0.6040    3.1260    1.5500 C.ar    1  UNL1       -0.0592
     10  C6        -1.7910    2.8680    0.8530 C.ar    1  UNL1       -0.0350
     11  C7        -1.8350    1.9330   -0.1600 C.ar    1  UNL1        0.1094
     12  S1        -3.3290    1.6790   -1.0140 S.O2    1  UNL1        0.0747
     13  O3        -2.9510    1.0140   -2.3360 O.2     1  UNL1       -0.1498
     14  O4        -3.9620    2.9920   -1.4180 O.2     1  UNL1       -0.1498
     15  N3        -4.4340    0.7110   -0.1370 N.pl3   1  UNL1       -0.2024
     16  C8        -4.9900    1.0590    1.1420 C.3     1  UNL1        0.0390
     17  C9        -6.1540    0.1390    1.3150 C.3     1  UNL1       -0.0083
     18  C10       -5.9750   -0.9070    0.3110 C.ar    1  UNL1       -0.0232
     19  C11       -6.7010   -2.0980    0.1820 C.ar    1  UNL1       -0.0567
     20  C12       -6.3690   -2.9410   -0.8510 C.ar    1  UNL1       -0.0614
     21  C13       -5.3540   -2.6050   -1.7190 C.ar    1  UNL1       -0.0599
     22  C14       -4.6570   -1.4240   -1.5660 C.ar    1  UNL1       -0.0388
     23  C15       -4.9650   -0.5370   -0.5230 C.ar    1  UNL1        0.0545
     24  C16       -0.6800    1.2510   -0.4790 C.ar    1  UNL1       -0.0229
     25  C17        6.3300   -0.7740    0.2160 C.ar    1  UNL1        0.0382
     26  C18        6.4550   -1.1990   -1.0710 C.ar    1  UNL1       -0.0496
     27  C19        7.5770   -1.8780   -1.5440 C.ar    1  UNL1       -0.0610
     28  C20        8.6080   -2.1340   -0.6780 C.ar    1  UNL1       -0.0617
     29  C21        8.5360   -1.7250    0.6490 C.ar    1  UNL1       -0.0610
     30  C22        7.4150   -1.0650    1.0560 C.ar    1  UNL1       -0.0496
     31 H           4.2802    0.1715   -1.1460 H       1  UNL1        0.1731
     32 H           3.1308    1.8188    0.8419 H       1  UNL1        0.1731
     33 H           1.4135    2.5892    1.6897 H       1  UNL1        0.0625
     34 H          -0.5729    3.8248    2.3088 H       1  UNL1        0.0618
     35 H          -2.6479    3.3866    1.1017 H       1  UNL1        0.0637
     36 H          -5.3119    2.0794    1.1481 H       1  UNL1        0.0485
     37 H          -4.2762    0.9605    1.9330 H       1  UNL1        0.0485
     38 H          -7.0725    0.6625    1.1504 H       1  UNL1        0.0330
     39 H          -6.1988   -0.2638    2.3053 H       1  UNL1        0.0330
     40 H          -7.4596   -2.3343    0.8406 H       1  UNL1        0.0621
     41 H          -6.8814   -3.8279   -0.9767 H       1  UNL1        0.0618
     42 H          -5.1119   -3.2437   -2.4926 H       1  UNL1        0.0618
     43 H          -3.8997   -1.1900   -2.2269 H       1  UNL1        0.0637
     44 H          -0.7091    0.5503   -1.2361 H       1  UNL1        0.0645
     45 H           5.6822   -1.0095   -1.7282 H       1  UNL1        0.0625
     46 H           7.6303   -2.1824   -2.5286 H       1  UNL1        0.0618
     47 H           9.4454   -2.6349   -1.0139 H       1  UNL1        0.0618
     48 H           9.3085   -1.9155    1.3063 H       1  UNL1        0.0618
     49 H           7.3613   -0.7613    2.0408 H       1  UNL1        0.0625
@<TRIPOS>BOND
     1     1     2    2
     2     2     3   am
     3     2    25    1
     4     3     4    1
     5     4     5   am
     6     5     6    2
     7     5     7    1
     8     7     8   ar
     9     7    24   ar
    10     8     9   ar
    11     9    10   ar
    12    10    11   ar
    13    11    12    1
    14    11    24   ar
    15    12    13    2
    16    12    14    2
    17    12    15    1
    18    15    16    1
    19    15    23    1
    20    16    17    1
    21    17    18    1
    22    18    19   ar
    23    18    23   ar
    24    19    20   ar
    25    20    21   ar
    26    21    22   ar
    27    22    23   ar
    28    25    26   ar
    29    25    30   ar
    30    26    27   ar
    31    27    28   ar
    32    28    29   ar
    33    29    30   ar
    34     3    31    1
    35     4    32    1
    36     8    33    1
    37     9    34    1
    38    10    35    1
    39    16    36    1
    40    16    37    1
    41    17    38    1
    42    17    39    1
    43    19    40    1
    44    20    41    1
    45    21    42    1
    46    22    43    1
    47    24    44    1
    48    26    45    1
    49    27    46    1
    50    28    47    1
    51    29    48    1
    52    30    49    1
@<TRIPOS>MOLECULE
../data/bude_mols_rdkit_confs/molecule_97.pdb
 49 52 0 0 0
SMALL
GASTEIGER

@<TRIPOS>ATOM
      1  O1         4.5450   -1.3800    0.5380 O.2     1  UNL1       -0.2687
      2  C1         4.5730   -0.1580    0.2220 C.2     1  UNL1        0.2601
      3  N1         3.3610    0.5360    0.0770 N.am    1  UNL1       -0.2301
      4  N2         2.1140   -0.1140    0.2780 N.am    1  UNL1       -0.2301
      5  C2         1.7830   -1.2400   -0.5030 C.2     1  UNL1        0.2602
      6  O2         2.6130   -1.6360   -1.3560 O.2     1  UNL1       -0.2687
      7  C3         0.5140   -1.9100   -0.3110 C.ar    1  UNL1        0.0400
      8  C4         0.3830   -3.1910   -0.8530 C.ar    1  UNL1       -0.0495
      9  C5        -0.8030   -3.8580   -0.6990 C.ar    1  UNL1       -0.0592
     10  C6        -1.8240   -3.2380   -0.0140 C.ar    1  UNL1       -0.0350
     11  C7        -1.7000   -1.9810    0.5200 C.ar    1  UNL1        0.1094
     12  S1        -3.0030   -1.2380    1.3790 S.O2    1  UNL1        0.0747
     13  O3        -2.4930   -0.2490    2.4170 O.2     1  UNL1       -0.1498
     14  O4        -3.7110   -2.3080    2.2000 O.2     1  UNL1       -0.1498
     15  N3        -4.1130   -0.4270    0.3550 N.pl3   1  UNL1       -0.2024
     16  C8        -4.8940   -1.0760   -0.6760 C.3     1  UNL1        0.0390
     17  C9        -6.0270   -0.1610   -1.0180 C.3     1  UNL1       -0.0083
     18  C10       -5.5700    1.1440   -0.4630 C.ar    1  UNL1       -0.0232
     19  C11       -6.1140    2.3940   -0.6560 C.ar    1  UNL1       -0.0567
     20  C12       -5.5090    3.4810   -0.0260 C.ar    1  UNL1       -0.0614
     21  C13       -4.3990    3.3190    0.7680 C.ar    1  UNL1       -0.0599
     22  C14       -3.8950    2.0530    0.9290 C.ar    1  UNL1       -0.0388
     23  C15       -4.4610    0.9380    0.3230 C.ar    1  UNL1        0.0545
     24  C16       -0.5180   -1.3160    0.3670 C.ar    1  UNL1       -0.0229
     25  C17        5.8430    0.5020    0.0120 C.ar    1  UNL1        0.0382
     26  C18        5.9310    1.8620   -0.0670 C.ar    1  UNL1       -0.0496
     27  C19        7.1360    2.5180   -0.2810 C.ar    1  UNL1       -0.0610
     28  C20        8.2810    1.7510   -0.4170 C.ar    1  UNL1       -0.0617
     29  C21        8.1930    0.3630   -0.3360 C.ar    1  UNL1       -0.0610
     30  C22        6.9920   -0.2700   -0.1230 C.ar    1  UNL1       -0.0496
     31 H           3.3757    1.4894   -0.1682 H       1  UNL1        0.1731
     32 H           1.4852    0.2196    0.9581 H       1  UNL1        0.1731
     33 H           1.1677   -3.6277   -1.3614 H       1  UNL1        0.0625
     34 H          -0.9290   -4.8055   -1.0882 H       1  UNL1        0.0618
     35 H          -2.7185   -3.7394    0.1022 H       1  UNL1        0.0637
     36 H          -5.2731   -2.0093   -0.3153 H       1  UNL1        0.0485
     37 H          -4.2928   -1.2735   -1.5388 H       1  UNL1        0.0485
     38 H          -6.9360   -0.4813   -0.5532 H       1  UNL1        0.0330
     39 H          -6.2440   -0.1255   -2.0652 H       1  UNL1        0.0330
     40 H          -6.9473    2.5230   -1.2510 H       1  UNL1        0.0621
     41 H          -5.9025    4.4258   -0.1586 H       1  UNL1        0.0618
     42 H          -3.9563    4.1282    1.2309 H       1  UNL1        0.0618
     43 H          -3.0619    1.9237    1.5242 H       1  UNL1        0.0637
     44 H          -0.4019   -0.3691    0.7606 H       1  UNL1        0.0645
     45 H           5.0709    2.4229    0.0361 H       1  UNL1        0.0625
     46 H           7.1771    3.5477   -0.3371 H       1  UNL1        0.0618
     47 H           9.1939    2.2048   -0.5774 H       1  UNL1        0.0618
     48 H           9.0498   -0.2031   -0.4384 H       1  UNL1        0.0618
     49 H           6.9435   -1.2992   -0.0643 H       1  UNL1        0.0625
@<TRIPOS>BOND
     1     1     2    2
     2     2     3   am
     3     2    25    1
     4     3     4    1
     5     4     5   am
     6     5     6    2
     7     5     7    1
     8     7     8   ar
     9     7    24   ar
    10     8     9   ar
    11     9    10   ar
    12    10    11   ar
    13    11    12    1
    14    11    24   ar
    15    12    13    2
    16    12    14    2
    17    12    15    1
    18    15    16    1
    19    15    23    1
    20    16    17    1
    21    17    18    1
    22    18    19   ar
    23    18    23   ar
    24    19    20   ar
    25    20    21   ar
    26    21    22   ar
    27    22    23   ar
    28    25    26   ar
    29    25    30   ar
    30    26    27   ar
    31    27    28   ar
    32    28    29   ar
    33    29    30   ar
    34     3    31    1
    35     4    32    1
    36     8    33    1
    37     9    34    1
    38    10    35    1
    39    16    36    1
    40    16    37    1
    41    17    38    1
    42    17    39    1
    43    19    40    1
    44    20    41    1
    45    21    42    1
    46    22    43    1
    47    24    44    1
    48    26    45    1
    49    27    46    1
    50    28    47    1
    51    29    48    1
    52    30    49    1
@<TRIPOS>MOLECULE
../data/bude_mols_rdkit_confs/molecule_97.pdb
 49 52 0 0 0
SMALL
GASTEIGER

@<TRIPOS>ATOM
      1  O1         4.7220    1.7820    0.8150 O.2     1  UNL1       -0.2687
      2  C1         5.1590    0.7710    0.1730 C.2     1  UNL1        0.2601
      3  N1         4.2530   -0.1520   -0.3750 N.am    1  UNL1       -0.2301
      4  N2         2.8530    0.0260   -0.2020 N.am    1  UNL1       -0.2301
      5  C2         2.1600   -0.8730    0.6390 C.2     1  UNL1        0.2602
      6  O2         2.8640   -1.7830    1.1950 O.2     1  UNL1       -0.2687
      7  C3         0.7460   -0.7760    0.8560 C.ar    1  UNL1        0.0400
      8  C4         0.2470   -1.1460    2.1150 C.ar    1  UNL1       -0.0495
      9  C5        -1.1070   -1.1300    2.3390 C.ar    1  UNL1       -0.0592
     10  C6        -2.0240   -0.7670    1.3900 C.ar    1  UNL1       -0.0350
     11  C7        -1.5380   -0.4050    0.1600 C.ar    1  UNL1        0.1094
     12  S1        -2.6670   -0.0030   -1.1090 S.O2    1  UNL1        0.0747
     13  O3        -2.7920   -1.1720   -2.0420 O.2     1  UNL1       -0.1498
     14  O4        -2.0420    1.1050   -1.9260 O.2     1  UNL1       -0.1498
     15  N3        -4.1630    0.5260   -0.5020 N.pl3   1  UNL1       -0.2024
     16  C8        -4.4140    1.6800    0.3210 C.3     1  UNL1        0.0390
     17  C9        -5.8110    2.0520   -0.0620 C.3     1  UNL1       -0.0083
     18  C10       -6.4380    0.7660   -0.4230 C.ar    1  UNL1       -0.0232
     19  C11       -7.7560    0.3420   -0.5320 C.ar    1  UNL1       -0.0567
     20  C12       -8.0080   -0.9630   -0.9230 C.ar    1  UNL1       -0.0614
     21  C13       -6.9830   -1.8410   -1.2050 C.ar    1  UNL1       -0.0599
     22  C14       -5.6570   -1.4280   -1.1000 C.ar    1  UNL1       -0.0388
     23  C15       -5.4250   -0.1200   -0.7060 C.ar    1  UNL1        0.0545
     24  C16       -0.1940   -0.4040   -0.1110 C.ar    1  UNL1       -0.0229
     25  C17        6.6070    0.5730    0.0150 C.ar    1  UNL1        0.0382
     26  C18        7.4800    1.5670    0.4350 C.ar    1  UNL1       -0.0496
     27  C19        8.8170    1.3710    0.3030 C.ar    1  UNL1       -0.0610
     28  C20        9.3480    0.2060   -0.2420 C.ar    1  UNL1       -0.0617
     29  C21        8.5070   -0.7980   -0.6690 C.ar    1  UNL1       -0.0610
     30  C22        7.1370   -0.5700   -0.5210 C.ar    1  UNL1       -0.0496
     31 H           4.5892   -0.9263   -0.8816 H       1  UNL1        0.1731
     32 H           2.3779    0.7582   -0.6574 H       1  UNL1        0.1731
     33 H           0.8944   -1.4283    2.8675 H       1  UNL1        0.0625
     34 H          -1.4517   -1.4061    3.2717 H       1  UNL1        0.0618
     35 H          -3.0362   -0.7658    1.5912 H       1  UNL1        0.0637
     36 H          -3.7283    2.4706    0.0981 H       1  UNL1        0.0485
     37 H          -4.2939    1.4922    1.3675 H       1  UNL1        0.0485
     38 H          -5.8108    2.7222   -0.8961 H       1  UNL1        0.0330
     39 H          -6.3322    2.5574    0.7240 H       1  UNL1        0.0330
     40 H          -8.5341    0.9877   -0.3254 H       1  UNL1        0.0621
     41 H          -8.9850   -1.2852   -1.0050 H       1  UNL1        0.0618
     42 H          -7.1991   -2.8076   -1.4949 H       1  UNL1        0.0618
     43 H          -4.8773   -2.0714   -1.3077 H       1  UNL1        0.0637
     44 H           0.1314   -0.1226   -1.0491 H       1  UNL1        0.0645
     45 H           7.1177    2.4433    0.8422 H       1  UNL1        0.0625
     46 H           9.4622    2.1123    0.6180 H       1  UNL1        0.0618
     47 H          10.3705    0.0943   -0.3262 H       1  UNL1        0.0618
     48 H           8.8705   -1.6734   -1.0772 H       1  UNL1        0.0618
     49 H           6.4857   -1.3067   -0.8342 H       1  UNL1        0.0625
@<TRIPOS>BOND
     1     1     2    2
     2     2     3   am
     3     2    25    1
     4     3     4    1
     5     4     5   am
     6     5     6    2
     7     5     7    1
     8     7     8   ar
     9     7    24   ar
    10     8     9   ar
    11     9    10   ar
    12    10    11   ar
    13    11    12    1
    14    11    24   ar
    15    12    13    2
    16    12    14    2
    17    12    15    1
    18    15    16    1
    19    15    23    1
    20    16    17    1
    21    17    18    1
    22    18    19   ar
    23    18    23   ar
    24    19    20   ar
    25    20    21   ar
    26    21    22   ar
    27    22    23   ar
    28    25    26   ar
    29    25    30   ar
    30    26    27   ar
    31    27    28   ar
    32    28    29   ar
    33    29    30   ar
    34     3    31    1
    35     4    32    1
    36     8    33    1
    37     9    34    1
    38    10    35    1
    39    16    36    1
    40    16    37    1
    41    17    38    1
    42    17    39    1
    43    19    40    1
    44    20    41    1
    45    21    42    1
    46    22    43    1
    47    24    44    1
    48    26    45    1
    49    27    46    1
    50    28    47    1
    51    29    48    1
    52    30    49    1
@<TRIPOS>MOLECULE
../data/bude_mols_rdkit_confs/molecule_97.pdb
 49 52 0 0 0
SMALL
GASTEIGER

@<TRIPOS>ATOM
      1  O1         3.5270   -1.0370    1.2420 O.2     1  UNL1       -0.2687
      2  C1         4.5580   -0.4780    0.7400 C.2     1  UNL1        0.2601
      3  N1         4.3470    0.7910    0.1420 N.am    1  UNL1       -0.2301
      4  N2         3.0650    1.3990    0.1070 N.am    1  UNL1       -0.2301
      5  C2         1.9950    0.8780   -0.6170 C.2     1  UNL1        0.2602
      6  O2         2.1620   -0.1810   -1.2710 O.2     1  UNL1       -0.2687
      7  C3         0.6980    1.5430   -0.6220 C.ar    1  UNL1        0.0400
      8  C4         0.4800    2.7760   -0.0800 C.ar    1  UNL1       -0.0495
      9  C5        -0.7490    3.3990   -0.0860 C.ar    1  UNL1       -0.0592
     10  C6        -1.8150    2.7610   -0.6620 C.ar    1  UNL1       -0.0350
     11  C7        -1.6260    1.5150   -1.2180 C.ar    1  UNL1        0.1094
     12  S1        -3.0160    0.7040   -1.9640 S.O2    1  UNL1        0.0747
     13  O3        -3.9430    1.6970   -2.5630 O.2     1  UNL1       -0.1498
     14  O4        -2.5010   -0.2610   -2.9860 O.2     1  UNL1       -0.1498
     15  N3        -3.8090   -0.1800   -0.6980 N.pl3   1  UNL1       -0.2024
     16  C8        -3.1790   -1.2350    0.0390 C.3     1  UNL1        0.0390
     17  C9        -4.2850   -1.9090    0.8030 C.3     1  UNL1       -0.0083
     18  C10       -5.4360   -0.9980    0.6660 C.ar    1  UNL1       -0.0232
     19  C11       -6.6780   -1.0310    1.2710 C.ar    1  UNL1       -0.0567
     20  C12       -7.6120   -0.0670    0.9920 C.ar    1  UNL1       -0.0614
     21  C13       -7.3030    0.9390    0.1010 C.ar    1  UNL1       -0.0599
     22  C14       -6.0660    0.9860   -0.5130 C.ar    1  UNL1       -0.0388
     23  C15       -5.1400    0.0070   -0.2180 C.ar    1  UNL1        0.0545
     24  C16       -0.3930    0.8990   -1.2080 C.ar    1  UNL1       -0.0229
     25  C17        5.8660   -1.1360    0.7960 C.ar    1  UNL1        0.0382
     26  C18        7.0020   -0.6110    0.2450 C.ar    1  UNL1       -0.0496
     27  C19        8.2340   -1.2660    0.3190 C.ar    1  UNL1       -0.0610
     28  C20        8.3070   -2.4820    0.9680 C.ar    1  UNL1       -0.0617
     29  C21        7.1630   -3.0220    1.5290 C.ar    1  UNL1       -0.0610
     30  C22        5.9500   -2.3470    1.4400 C.ar    1  UNL1       -0.0496
     31 H           5.1115    1.2633   -0.2601 H       1  UNL1        0.1731
     32 H           2.9253    2.2284    0.6187 H       1  UNL1        0.1731
     33 H           1.2759    3.2669    0.3566 H       1  UNL1        0.0625
     34 H          -0.8644    4.3330    0.3375 H       1  UNL1        0.0618
     35 H          -2.7456    3.2068   -0.6793 H       1  UNL1        0.0637
     36 H          -2.4488   -0.8364    0.7120 H       1  UNL1        0.0485
     37 H          -2.6685   -1.9193   -0.6060 H       1  UNL1        0.0485
     38 H          -4.0165   -2.0272    1.8320 H       1  UNL1        0.0330
     39 H          -4.4963   -2.8904    0.4326 H       1  UNL1        0.0330
     40 H          -6.9039   -1.7862    1.9371 H       1  UNL1        0.0621
     41 H          -8.5388   -0.0940    1.4451 H       1  UNL1        0.0618
     42 H          -8.0044    1.6660   -0.1099 H       1  UNL1        0.0618
     43 H          -5.8390    1.7399   -1.1802 H       1  UNL1        0.0637
     44 H          -0.2769   -0.0346   -1.6321 H       1  UNL1        0.0645
     45 H           6.9477    0.2978   -0.2409 H       1  UNL1        0.0625
     46 H           9.0764   -0.8470   -0.1051 H       1  UNL1        0.0618
     47 H           9.2063   -2.9838    1.0343 H       1  UNL1        0.0618
     48 H           7.2101   -3.9306    2.0161 H       1  UNL1        0.0618
     49 H           5.1039   -2.7602    1.8623 H       1  UNL1        0.0625
@<TRIPOS>BOND
     1     1     2    2
     2     2     3   am
     3     2    25    1
     4     3     4    1
     5     4     5   am
     6     5     6    2
     7     5     7    1
     8     7     8   ar
     9     7    24   ar
    10     8     9   ar
    11     9    10   ar
    12    10    11   ar
    13    11    12    1
    14    11    24   ar
    15    12    13    2
    16    12    14    2
    17    12    15    1
    18    15    16    1
    19    15    23    1
    20    16    17    1
    21    17    18    1
    22    18    19   ar
    23    18    23   ar
    24    19    20   ar
    25    20    21   ar
    26    21    22   ar
    27    22    23   ar
    28    25    26   ar
    29    25    30   ar
    30    26    27   ar
    31    27    28   ar
    32    28    29   ar
    33    29    30   ar
    34     3    31    1
    35     4    32    1
    36     8    33    1
    37     9    34    1
    38    10    35    1
    39    16    36    1
    40    16    37    1
    41    17    38    1
    42    17    39    1
    43    19    40    1
    44    20    41    1
    45    21    42    1
    46    22    43    1
    47    24    44    1
    48    26    45    1
    49    27    46    1
    50    28    47    1
    51    29    48    1
    52    30    49    1
@<TRIPOS>MOLECULE
../data/bude_mols_rdkit_confs/molecule_97.pdb
 49 52 0 0 0
SMALL
GASTEIGER

@<TRIPOS>ATOM
      1  O1         4.3340   -0.1870   -1.6690 O.2     1  UNL1       -0.2687
      2  C1         4.8950   -0.3350   -0.5430 C.2     1  UNL1        0.2601
      3  N1         4.2710   -1.0810    0.4790 N.am    1  UNL1       -0.2301
      4  N2         3.0100   -1.6670    0.2470 N.am    1  UNL1       -0.2301
      5  C2         1.8710   -0.9130   -0.1010 C.2     1  UNL1        0.2602
      6  O2         2.0360    0.3380   -0.1980 O.2     1  UNL1       -0.2687
      7  C3         0.5450   -1.4560   -0.3510 C.ar    1  UNL1        0.0400
      8  C4         0.2480   -2.7930   -0.2040 C.ar    1  UNL1       -0.0495
      9  C5        -1.0290   -3.2970   -0.4430 C.ar    1  UNL1       -0.0592
     10  C6        -2.0490   -2.4670   -0.8400 C.ar    1  UNL1       -0.0350
     11  C7        -1.7520   -1.1230   -0.9890 C.ar    1  UNL1        0.1094
     12  S1        -3.0290   -0.0330   -1.4920 S.O2    1  UNL1        0.0747
     13  O3        -2.5230    1.0720   -2.3580 O.2     1  UNL1       -0.1498
     14  O4        -4.0310   -0.8080   -2.2940 O.2     1  UNL1       -0.1498
     15  N3        -3.8440    0.6620   -0.1450 N.pl3   1  UNL1       -0.2024
     16  C8        -3.2480    1.5200    0.8900 C.3     1  UNL1        0.0390
     17  C9        -4.3780    2.4480    1.2560 C.3     1  UNL1       -0.0083
     18  C10       -5.5770    1.5890    1.0400 C.ar    1  UNL1       -0.0232
     19  C11       -6.8860    1.6320    1.4820 C.ar    1  UNL1       -0.0567
     20  C12       -7.8040    0.6750    1.1110 C.ar    1  UNL1       -0.0614
     21  C13       -7.4390   -0.3590    0.2830 C.ar    1  UNL1       -0.0599
     22  C14       -6.1400   -0.4160   -0.1640 C.ar    1  UNL1       -0.0388
     23  C15       -5.2150    0.5380    0.2020 C.ar    1  UNL1        0.0545
     24  C16       -0.4840   -0.6310   -0.7500 C.ar    1  UNL1       -0.0229
     25  C17        6.1950    0.2930   -0.3560 C.ar    1  UNL1        0.0382
     26  C18        6.9990    0.0210    0.7280 C.ar    1  UNL1       -0.0496
     27  C19        8.2310    0.6500    0.8710 C.ar    1  UNL1       -0.0610
     28  C20        8.6820    1.5450   -0.0410 C.ar    1  UNL1       -0.0617
     29  C21        7.8940    1.8300   -1.1320 C.ar    1  UNL1       -0.0610
     30  C22        6.6820    1.2080   -1.2690 C.ar    1  UNL1       -0.0496
     31 H           4.7145   -1.1919    1.3509 H       1  UNL1        0.1731
     32 H           2.9212   -2.6438    0.3316 H       1  UNL1        0.1731
     33 H           0.9942   -3.4414    0.0923 H       1  UNL1        0.0625
     34 H          -1.2105   -4.3055   -0.3203 H       1  UNL1        0.0618
     35 H          -2.9980   -2.8304   -1.0199 H       1  UNL1        0.0637
     36 H          -2.4129    2.0655    0.5028 H       1  UNL1        0.0485
     37 H          -2.8679    0.9698    1.7253 H       1  UNL1        0.0485
     38 H          -4.3964    3.3067    0.6178 H       1  UNL1        0.0330
     39 H          -4.3055    2.8408    2.2487 H       1  UNL1        0.0330
     40 H          -7.1824    2.3996    2.1049 H       1  UNL1        0.0621
     41 H          -8.7742    0.7349    1.4577 H       1  UNL1        0.0618
     42 H          -8.1250   -1.0773    0.0027 H       1  UNL1        0.0618
     43 H          -5.8521   -1.1879   -0.7855 H       1  UNL1        0.0637
     44 H          -0.3030    0.3775   -0.8730 H       1  UNL1        0.0645
     45 H           6.6846   -0.6558    1.4409 H       1  UNL1        0.0625
     46 H           8.8162    0.4297    1.6920 H       1  UNL1        0.0618
     47 H           9.5984    2.0037    0.0805 H       1  UNL1        0.0618
     48 H           8.2139    2.5074   -1.8417 H       1  UNL1        0.0618
     49 H           6.1046    1.4336   -2.0940 H       1  UNL1        0.0625
@<TRIPOS>BOND
     1     1     2    2
     2     2     3   am
     3     2    25    1
     4     3     4    1
     5     4     5   am
     6     5     6    2
     7     5     7    1
     8     7     8   ar
     9     7    24   ar
    10     8     9   ar
    11     9    10   ar
    12    10    11   ar
    13    11    12    1
    14    11    24   ar
    15    12    13    2
    16    12    14    2
    17    12    15    1
    18    15    16    1
    19    15    23    1
    20    16    17    1
    21    17    18    1
    22    18    19   ar
    23    18    23   ar
    24    19    20   ar
    25    20    21   ar
    26    21    22   ar
    27    22    23   ar
    28    25    26   ar
    29    25    30   ar
    30    26    27   ar
    31    27    28   ar
    32    28    29   ar
    33    29    30   ar
    34     3    31    1
    35     4    32    1
    36     8    33    1
    37     9    34    1
    38    10    35    1
    39    16    36    1
    40    16    37    1
    41    17    38    1
    42    17    39    1
    43    19    40    1
    44    20    41    1
    45    21    42    1
    46    22    43    1
    47    24    44    1
    48    26    45    1
    49    27    46    1
    50    28    47    1
    51    29    48    1
    52    30    49    1
@<TRIPOS>MOLECULE
../data/bude_mols_rdkit_confs/molecule_97.pdb
 49 52 0 0 0
SMALL
GASTEIGER

@<TRIPOS>ATOM
      1  O1         4.6810   -1.7510   -0.9260 O.2     1  UNL1       -0.2687
      2  C1         5.0250   -0.7410   -0.2600 C.2     1  UNL1        0.2601
      3  N1         4.0190    0.1330    0.2250 N.am    1  UNL1       -0.2301
      4  N2         2.6350   -0.0640   -0.0150 N.am    1  UNL1       -0.2301
      5  C2         1.9960    0.8440   -0.8710 C.2     1  UNL1        0.2602
      6  O2         2.7420    1.7810   -1.3450 O.2     1  UNL1       -0.2687
      7  C3         0.6050    0.8430   -1.2760 C.ar    1  UNL1        0.0400
      8  C4         0.1850    1.7340   -2.2730 C.ar    1  UNL1       -0.0495
      9  C5        -1.1180    1.7500   -2.6900 C.ar    1  UNL1       -0.0592
     10  C6        -2.0820    0.9180   -2.1820 C.ar    1  UNL1       -0.0350
     11  C7        -1.6760    0.0230   -1.1860 C.ar    1  UNL1        0.1094
     12  S1        -2.8420   -1.0860   -0.5230 S.O2    1  UNL1        0.0747
     13  O3        -2.1050   -2.2560    0.0510 O.2     1  UNL1       -0.1498
     14  O4        -3.6210   -1.6580   -1.7080 O.2     1  UNL1       -0.1498
     15  N3        -3.9240   -0.3610    0.6030 N.pl3   1  UNL1       -0.2024
     16  C8        -3.5690    0.2610    1.8490 C.3     1  UNL1        0.0390
     17  C9        -4.7920    0.1090    2.7560 C.3     1  UNL1       -0.0083
     18  C10       -5.8780    0.0270    1.7480 C.ar    1  UNL1       -0.0232
     19  C11       -7.2390    0.1820    1.9360 C.ar    1  UNL1       -0.0567
     20  C12       -8.0720    0.0570    0.8510 C.ar    1  UNL1       -0.0614
     21  C13       -7.5470   -0.2190   -0.4000 C.ar    1  UNL1       -0.0599
     22  C14       -6.1880   -0.3710   -0.5680 C.ar    1  UNL1       -0.0388
     23  C15       -5.3430   -0.2490    0.5110 C.ar    1  UNL1        0.0545
     24  C16       -0.3650    0.0040   -0.7620 C.ar    1  UNL1       -0.0229
     25  C17        6.4390   -0.5280   -0.0310 C.ar    1  UNL1        0.0382
     26  C18        7.3260   -0.8530   -1.0360 C.ar    1  UNL1       -0.0496
     27  C19        8.6800   -0.6570   -0.8410 C.ar    1  UNL1       -0.0610
     28  C20        9.1660   -0.1440    0.3290 C.ar    1  UNL1       -0.0617
     29  C21        8.2690    0.1760    1.3190 C.ar    1  UNL1       -0.0610
     30  C22        6.9050   -0.0150    1.1400 C.ar    1  UNL1       -0.0496
     31 H           4.2950    0.9156    0.7547 H       1  UNL1        0.1731
     32 H           2.1433   -0.8078    0.4024 H       1  UNL1        0.1731
     33 H           0.8652    2.3843   -2.6967 H       1  UNL1        0.0625
     34 H          -1.3890    2.4226   -3.4243 H       1  UNL1        0.0618
     35 H          -3.0575    0.9502   -2.5172 H       1  UNL1        0.0637
     36 H          -3.3440    1.2961    1.6977 H       1  UNL1        0.0485
     37 H          -2.7006   -0.1911    2.2808 H       1  UNL1        0.0485
     38 H          -4.9138    0.9564    3.3979 H       1  UNL1        0.0330
     39 H          -4.7457   -0.7242    3.4258 H       1  UNL1        0.0330
     40 H          -7.6212    0.3874    2.8724 H       1  UNL1        0.0621
     41 H          -9.0911    0.1690    0.9685 H       1  UNL1        0.0618
     42 H          -8.1775   -0.3115   -1.2117 H       1  UNL1        0.0618
     43 H          -5.8037   -0.5764   -1.5035 H       1  UNL1        0.0637
     44 H          -0.0952   -0.6679   -0.0266 H       1  UNL1        0.0645
     45 H           6.9806   -1.2402   -1.9281 H       1  UNL1        0.0625
     46 H           9.3391   -0.9035   -1.5959 H       1  UNL1        0.0618
     47 H          10.1790   -0.0010    0.4649 H       1  UNL1        0.0618
     48 H           8.6143    0.5647    2.2104 H       1  UNL1        0.0618
     49 H           6.2455    0.2319    1.8944 H       1  UNL1        0.0625
@<TRIPOS>BOND
     1     1     2    2
     2     2     3   am
     3     2    25    1
     4     3     4    1
     5     4     5   am
     6     5     6    2
     7     5     7    1
     8     7     8   ar
     9     7    24   ar
    10     8     9   ar
    11     9    10   ar
    12    10    11   ar
    13    11    12    1
    14    11    24   ar
    15    12    13    2
    16    12    14    2
    17    12    15    1
    18    15    16    1
    19    15    23    1
    20    16    17    1
    21    17    18    1
    22    18    19   ar
    23    18    23   ar
    24    19    20   ar
    25    20    21   ar
    26    21    22   ar
    27    22    23   ar
    28    25    26   ar
    29    25    30   ar
    30    26    27   ar
    31    27    28   ar
    32    28    29   ar
    33    29    30   ar
    34     3    31    1
    35     4    32    1
    36     8    33    1
    37     9    34    1
    38    10    35    1
    39    16    36    1
    40    16    37    1
    41    17    38    1
    42    17    39    1
    43    19    40    1
    44    20    41    1
    45    21    42    1
    46    22    43    1
    47    24    44    1
    48    26    45    1
    49    27    46    1
    50    28    47    1
    51    29    48    1
    52    30    49    1
@<TRIPOS>MOLECULE
../data/bude_mols_rdkit_confs/molecule_97.pdb
 49 52 0 0 0
SMALL
GASTEIGER

@<TRIPOS>ATOM
      1  O1         5.3750    0.4020   -1.8490 O.2     1  UNL1       -0.2687
      2  C1         5.5260   -0.1200   -0.7070 C.2     1  UNL1        0.2601
      3  N1         4.3610   -0.6580   -0.0850 N.am    1  UNL1       -0.2301
      4  N2         3.1020   -0.6190   -0.6850 N.am    1  UNL1       -0.2301
      5  C2         2.0150   -0.0460    0.0070 C.2     1  UNL1        0.2602
      6  O2         2.1550    0.4290    1.1820 O.2     1  UNL1       -0.2687
      7  C3         0.6610    0.0520   -0.5600 C.ar    1  UNL1        0.0400
      8  C4         0.3900   -0.2740   -1.8850 C.ar    1  UNL1       -0.0495
      9  C5        -0.8590   -0.1500   -2.4400 C.ar    1  UNL1       -0.0592
     10  C6        -1.9180    0.3220   -1.6630 C.ar    1  UNL1       -0.0350
     11  C7        -1.6900    0.6520   -0.3560 C.ar    1  UNL1        0.1094
     12  S1        -2.9650    1.3240    0.6430 S.O2    1  UNL1        0.0747
     13  O3        -3.3920    2.6180    0.0270 O.2     1  UNL1       -0.1498
     14  O4        -2.4030    1.6520    2.0090 O.2     1  UNL1       -0.1498
     15  N3        -4.2790    0.2540    0.7990 N.pl3   1  UNL1       -0.2024
     16  C8        -4.2300   -1.0670    1.3840 C.3     1  UNL1        0.0390
     17  C9        -5.6510   -1.5780    1.4160 C.3     1  UNL1       -0.0083
     18  C10       -6.4610   -0.5370    0.7620 C.ar    1  UNL1       -0.0232
     19  C11       -7.8310   -0.5070    0.4940 C.ar    1  UNL1       -0.0567
     20  C12       -8.3600    0.5910   -0.1430 C.ar    1  UNL1       -0.0614
     21  C13       -7.5310    1.6280   -0.5000 C.ar    1  UNL1       -0.0599
     22  C14       -6.1710    1.6010   -0.2350 C.ar    1  UNL1       -0.0388
     23  C15       -5.6330    0.4970    0.4070 C.ar    1  UNL1        0.0545
     24  C16       -0.4220    0.5120    0.1630 C.ar    1  UNL1       -0.0229
     25  C17        6.8540   -0.1370   -0.1370 C.ar    1  UNL1        0.0382
     26  C18        7.8910   -0.7010   -0.8800 C.ar    1  UNL1       -0.0496
     27  C19        9.1990   -0.7650   -0.3840 C.ar    1  UNL1       -0.0610
     28  C20        9.4880   -0.2600    0.8610 C.ar    1  UNL1       -0.0617
     29  C21        8.4870    0.2960    1.6010 C.ar    1  UNL1       -0.0610
     30  C22        7.1720    0.3600    1.1060 C.ar    1  UNL1       -0.0496
     31 H           4.4486   -1.0735    0.8032 H       1  UNL1        0.1731
     32 H           2.9730   -0.9900   -1.5878 H       1  UNL1        0.1731
     33 H           1.1607   -0.6238   -2.4755 H       1  UNL1        0.0625
     34 H          -1.0146   -0.4047   -3.4279 H       1  UNL1        0.0618
     35 H          -2.8612    0.4207   -2.0699 H       1  UNL1        0.0637
     36 H          -3.8333   -1.0167    2.3765 H       1  UNL1        0.0485
     37 H          -3.5988   -1.7175    0.8154 H       1  UNL1        0.0485
     38 H          -5.9733   -1.7224    2.4260 H       1  UNL1        0.0330
     39 H          -5.7437   -2.5216    0.9200 H       1  UNL1        0.0330
     40 H          -8.4367   -1.2959    0.7694 H       1  UNL1        0.0621
     41 H          -9.3698    0.6361   -0.3511 H       1  UNL1        0.0618
     42 H          -7.9326    2.4494   -0.9786 H       1  UNL1        0.0618
     43 H          -5.5678    2.3913   -0.5117 H       1  UNL1        0.0637
     44 H          -0.2721    0.7662    1.1519 H       1  UNL1        0.0645
     45 H           7.6894   -1.0804   -1.8183 H       1  UNL1        0.0625
     46 H           9.9463   -1.1916   -0.9537 H       1  UNL1        0.0618
     47 H          10.4505   -0.3011    1.2311 H       1  UNL1        0.0618
     48 H           8.6971    0.6752    2.5375 H       1  UNL1        0.0618
     49 H           6.4326    0.7873    1.6854 H       1  UNL1        0.0625
@<TRIPOS>BOND
     1     1     2    2
     2     2     3   am
     3     2    25    1
     4     3     4    1
     5     4     5   am
     6     5     6    2
     7     5     7    1
     8     7     8   ar
     9     7    24   ar
    10     8     9   ar
    11     9    10   ar
    12    10    11   ar
    13    11    12    1
    14    11    24   ar
    15    12    13    2
    16    12    14    2
    17    12    15    1
    18    15    16    1
    19    15    23    1
    20    16    17    1
    21    17    18    1
    22    18    19   ar
    23    18    23   ar
    24    19    20   ar
    25    20    21   ar
    26    21    22   ar
    27    22    23   ar
    28    25    26   ar
    29    25    30   ar
    30    26    27   ar
    31    27    28   ar
    32    28    29   ar
    33    29    30   ar
    34     3    31    1
    35     4    32    1
    36     8    33    1
    37     9    34    1
    38    10    35    1
    39    16    36    1
    40    16    37    1
    41    17    38    1
    42    17    39    1
    43    19    40    1
    44    20    41    1
    45    21    42    1
    46    22    43    1
    47    24    44    1
    48    26    45    1
    49    27    46    1
    50    28    47    1
    51    29    48    1
    52    30    49    1
@<TRIPOS>MOLECULE
../data/bude_mols_rdkit_confs/molecule_97.pdb
 49 52 0 0 0
SMALL
GASTEIGER

@<TRIPOS>ATOM
      1  O1         3.9390    1.1660    1.2940 O.2     1  UNL1       -0.2687
      2  C1         4.6630    0.2120    0.9040 C.2     1  UNL1        0.2601
      3  N1         4.2480   -0.4590   -0.2740 N.am    1  UNL1       -0.2301
      4  N2         3.0670   -0.0600   -0.9650 N.am    1  UNL1       -0.2301
      5  C2         1.9260   -0.8640   -1.0640 C.2     1  UNL1        0.2602
      6  O2         1.9220   -2.0040   -0.5280 O.2     1  UNL1       -0.2687
      7  C3         0.7390   -0.3700   -1.7910 C.ar    1  UNL1        0.0400
      8  C4         0.7760    0.6250   -2.7210 C.ar    1  UNL1       -0.0495
      9  C5        -0.3340    1.1140   -3.3880 C.ar    1  UNL1       -0.0592
     10  C6        -1.5630    0.5290   -3.0660 C.ar    1  UNL1       -0.0350
     11  C7        -1.6450   -0.4790   -2.1330 C.ar    1  UNL1        0.1094
     12  S1        -3.2260   -1.1570   -1.7300 S.O2    1  UNL1        0.0747
     13  O3        -3.0090   -2.6250   -1.4380 O.2     1  UNL1       -0.1498
     14  O4        -4.1370   -1.0530   -2.9090 O.2     1  UNL1       -0.1498
     15  N3        -3.8860   -0.3900   -0.3630 N.pl3   1  UNL1       -0.2024
     16  C8        -3.3050   -0.3750    0.9820 C.3     1  UNL1        0.0390
     17  C9        -4.5420   -0.3800    1.8380 C.3     1  UNL1       -0.0083
     18  C10       -5.5100    0.4160    1.0410 C.ar    1  UNL1       -0.0232
     19  C11       -6.6540    1.1220    1.3630 C.ar    1  UNL1       -0.0567
     20  C12       -7.3800    1.7780    0.4030 C.ar    1  UNL1       -0.0614
     21  C13       -6.9310    1.7110   -0.8950 C.ar    1  UNL1       -0.0599
     22  C14       -5.8020    1.0220   -1.2570 C.ar    1  UNL1       -0.0388
     23  C15       -5.0790    0.3640   -0.2700 C.ar    1  UNL1        0.0545
     24  C16       -0.5140   -0.9280   -1.5010 C.ar    1  UNL1       -0.0229
     25  C17        5.8410   -0.1140    1.6850 C.ar    1  UNL1        0.0382
     26  C18        6.7630   -1.0450    1.2600 C.ar    1  UNL1       -0.0496
     27  C19        7.8980   -1.3750    2.0030 C.ar    1  UNL1       -0.0610
     28  C20        8.1150   -0.7510    3.2120 C.ar    1  UNL1       -0.0617
     29  C21        7.1990    0.1850    3.6510 C.ar    1  UNL1       -0.0610
     30  C22        6.0830    0.4970    2.8990 C.ar    1  UNL1       -0.0496
     31 H           4.7825   -1.2103   -0.6192 H       1  UNL1        0.1731
     32 H           3.0533    0.8259   -1.3943 H       1  UNL1        0.1731
     33 H           1.6934    1.0422   -2.9431 H       1  UNL1        0.0625
     34 H          -0.2587    1.8703   -4.0861 H       1  UNL1        0.0618
     35 H          -2.4211    0.8583   -3.5352 H       1  UNL1        0.0637
     36 H          -2.7190    0.5052    1.1457 H       1  UNL1        0.0485
     37 H          -2.6334   -1.1846    1.1781 H       1  UNL1        0.0485
     38 H          -4.3547    0.0806    2.7855 H       1  UNL1        0.0330
     39 H          -4.8932   -1.3656    2.0618 H       1  UNL1        0.0330
     40 H          -6.9677    1.1559    2.3456 H       1  UNL1        0.0621
     41 H          -8.2340    2.3040    0.6460 H       1  UNL1        0.0618
     42 H          -7.4670    2.2005   -1.6286 H       1  UNL1        0.0618
     43 H          -5.4958    0.9929   -2.2421 H       1  UNL1        0.0637
     44 H          -0.5860   -1.6855   -0.8038 H       1  UNL1        0.0645
     45 H           6.6085   -1.5177    0.3557 H       1  UNL1        0.0625
     46 H           8.5665   -2.0780    1.6508 H       1  UNL1        0.0618
     47 H           8.9466   -0.9787    3.7791 H       1  UNL1        0.0618
     48 H           7.3507    0.6588    4.5552 H       1  UNL1        0.0618
     49 H           5.4165    1.2014    3.2520 H       1  UNL1        0.0625
@<TRIPOS>BOND
     1     1     2    2
     2     2     3   am
     3     2    25    1
     4     3     4    1
     5     4     5   am
     6     5     6    2
     7     5     7    1
     8     7     8   ar
     9     7    24   ar
    10     8     9   ar
    11     9    10   ar
    12    10    11   ar
    13    11    12    1
    14    11    24   ar
    15    12    13    2
    16    12    14    2
    17    12    15    1
    18    15    16    1
    19    15    23    1
    20    16    17    1
    21    17    18    1
    22    18    19   ar
    23    18    23   ar
    24    19    20   ar
    25    20    21   ar
    26    21    22   ar
    27    22    23   ar
    28    25    26   ar
    29    25    30   ar
    30    26    27   ar
    31    27    28   ar
    32    28    29   ar
    33    29    30   ar
    34     3    31    1
    35     4    32    1
    36     8    33    1
    37     9    34    1
    38    10    35    1
    39    16    36    1
    40    16    37    1
    41    17    38    1
    42    17    39    1
    43    19    40    1
    44    20    41    1
    45    21    42    1
    46    22    43    1
    47    24    44    1
    48    26    45    1
    49    27    46    1
    50    28    47    1
    51    29    48    1
    52    30    49    1
@<TRIPOS>MOLECULE
../data/bude_mols_rdkit_confs/molecule_97.pdb
 49 52 0 0 0
SMALL
GASTEIGER

@<TRIPOS>ATOM
      1  O1         3.9260    0.6300    1.0540 O.2     1  UNL1       -0.2687
      2  C1         4.6080    0.3900    0.0060 C.2     1  UNL1        0.2601
      3  N1         3.9220   -0.2230   -1.0820 N.am    1  UNL1       -0.2301
      4  N2         2.5520   -0.5440   -0.9840 N.am    1  UNL1       -0.2301
      5  C2         2.0430   -1.4830   -0.0490 C.2     1  UNL1        0.2602
      6  O2         2.8910   -2.0380    0.7210 O.2     1  UNL1       -0.2687
      7  C3         0.6540   -1.8480    0.0860 C.ar    1  UNL1        0.0400
      8  C4         0.2920   -2.8650    0.9420 C.ar    1  UNL1       -0.0495
      9  C5        -1.0280   -3.2340    1.0720 C.ar    1  UNL1       -0.0592
     10  C6        -2.0270   -2.6220    0.3740 C.ar    1  UNL1       -0.0350
     11  C7        -1.6830   -1.5860   -0.5000 C.ar    1  UNL1        0.1094
     12  S1        -2.9930   -0.8480   -1.3770 S.O2    1  UNL1        0.0747
     13  O3        -3.9850   -1.9090   -1.7760 O.2     1  UNL1       -0.1498
     14  O4        -2.4580   -0.1640   -2.6110 O.2     1  UNL1       -0.1498
     15  N3        -3.7830    0.3520   -0.4180 N.pl3   1  UNL1       -0.2024
     16  C8        -3.1570    1.5440    0.0960 C.3     1  UNL1        0.0390
     17  C9        -4.2810    2.5000    0.3290 C.3     1  UNL1       -0.0083
     18  C10       -5.4620    1.6130    0.4840 C.ar    1  UNL1       -0.0232
     19  C11       -6.7470    1.8350    0.9750 C.ar    1  UNL1       -0.0567
     20  C12       -7.6700    0.8080    0.9970 C.ar    1  UNL1       -0.0614
     21  C13       -7.3520   -0.4610    0.5370 C.ar    1  UNL1       -0.0599
     22  C14       -6.0810   -0.6710    0.0550 C.ar    1  UNL1       -0.0388
     23  C15       -5.1350    0.3640    0.0270 C.ar    1  UNL1        0.0545
     24  C16       -0.3650   -1.2360   -0.6140 C.ar    1  UNL1       -0.0229
     25  C17        6.0140    0.7320   -0.0510 C.ar    1  UNL1        0.0382
     26  C18        6.6240    1.2890    1.0720 C.ar    1  UNL1       -0.0496
     27  C19        7.9660    1.6310    1.0720 C.ar    1  UNL1       -0.0610
     28  C20        8.7470    1.4230   -0.0670 C.ar    1  UNL1       -0.0617
     29  C21        8.1470    0.8760   -1.1690 C.ar    1  UNL1       -0.0610
     30  C22        6.8090    0.5430   -1.1470 C.ar    1  UNL1       -0.0496
     31 H           4.4104   -0.4251   -1.9126 H       1  UNL1        0.1731
     32 H           1.9200   -0.0964   -1.5918 H       1  UNL1        0.1731
     33 H           1.0164   -3.3544    1.4904 H       1  UNL1        0.0625
     34 H          -1.2698   -4.0000    1.7199 H       1  UNL1        0.0618
     35 H          -3.0099   -2.9154    0.4877 H       1  UNL1        0.0637
     36 H          -2.4654    1.9429   -0.6164 H       1  UNL1        0.0485
     37 H          -2.5999    1.3527    0.9893 H       1  UNL1        0.0485
     38 H          -4.4033    3.1577   -0.5061 H       1  UNL1        0.0330
     39 H          -4.1210    3.1338    1.1761 H       1  UNL1        0.0330
     40 H          -7.0099    2.7702    1.3234 H       1  UNL1        0.0621
     41 H          -8.6174    0.9889    1.3639 H       1  UNL1        0.0618
     42 H          -8.0470   -1.2237    0.5557 H       1  UNL1        0.0618
     43 H          -5.8188   -1.6068   -0.2922 H       1  UNL1        0.0637
     44 H          -0.1193   -0.4703   -1.2608 H       1  UNL1        0.0645
     45 H           6.0626    1.4502    1.9228 H       1  UNL1        0.0625
     46 H           8.3911    2.0417    1.9180 H       1  UNL1        0.0618
     47 H           9.7478    1.6745   -0.0775 H       1  UNL1        0.0618
     48 H           8.7009    0.7113   -2.0240 H       1  UNL1        0.0618
     49 H           6.3891    0.1328   -1.9958 H       1  UNL1        0.0625
@<TRIPOS>BOND
     1     1     2    2
     2     2     3   am
     3     2    25    1
     4     3     4    1
     5     4     5   am
     6     5     6    2
     7     5     7    1
     8     7     8   ar
     9     7    24   ar
    10     8     9   ar
    11     9    10   ar
    12    10    11   ar
    13    11    12    1
    14    11    24   ar
    15    12    13    2
    16    12    14    2
    17    12    15    1
    18    15    16    1
    19    15    23    1
    20    16    17    1
    21    17    18    1
    22    18    19   ar
    23    18    23   ar
    24    19    20   ar
    25    20    21   ar
    26    21    22   ar
    27    22    23   ar
    28    25    26   ar
    29    25    30   ar
    30    26    27   ar
    31    27    28   ar
    32    28    29   ar
    33    29    30   ar
    34     3    31    1
    35     4    32    1
    36     8    33    1
    37     9    34    1
    38    10    35    1
    39    16    36    1
    40    16    37    1
    41    17    38    1
    42    17    39    1
    43    19    40    1
    44    20    41    1
    45    21    42    1
    46    22    43    1
    47    24    44    1
    48    26    45    1
    49    27    46    1
    50    28    47    1
    51    29    48    1
    52    30    49    1
@<TRIPOS>MOLECULE
../data/bude_mols_rdkit_confs/molecule_97.pdb
 49 52 0 0 0
SMALL
GASTEIGER

@<TRIPOS>ATOM
      1  O1        -4.8240   -1.2970    0.1370 O.2     1  UNL1       -0.2687
      2  C1        -4.9850   -0.0540   -0.1150 C.2     1  UNL1        0.2601
      3  N1        -3.8330    0.6980   -0.3730 N.am    1  UNL1       -0.2301
      4  N2        -2.5360    0.1340   -0.3710 N.am    1  UNL1       -0.2301
      5  C2        -2.0030   -0.6620    0.6530 C.2     1  UNL1        0.2602
      6  O2        -2.7090   -0.9110    1.6660 O.2     1  UNL1       -0.2687
      7  C3        -0.6600   -1.2320    0.6200 C.ar    1  UNL1        0.0400
      8  C4        -0.2700   -2.2780    1.4290 C.ar    1  UNL1       -0.0495
      9  C5         1.0140   -2.8300    1.3890 C.ar    1  UNL1       -0.0592
     10  C6         1.9510   -2.3270    0.5130 C.ar    1  UNL1       -0.0350
     11  C7         1.5700   -1.2810   -0.3000 C.ar    1  UNL1        0.1094
     12  S1         2.7320   -0.6260   -1.4550 S.O2    1  UNL1        0.0747
     13  O3         2.0120    0.2390   -2.4620 O.2     1  UNL1       -0.1498
     14  O4         3.4540   -1.7180   -2.1630 O.2     1  UNL1       -0.1498
     15  N3         3.8500    0.3600   -0.5850 N.pl3   1  UNL1       -0.2024
     16  C8         3.5260    1.5450    0.1690 C.3     1  UNL1        0.0390
     17  C9         4.7530    1.8140    0.9700 C.3     1  UNL1       -0.0083
     18  C10        5.8440    0.9560    0.4320 C.ar    1  UNL1       -0.0232
     19  C11        7.2140    0.8900    0.6920 C.ar    1  UNL1       -0.0567
     20  C12        8.0500   -0.0030    0.0480 C.ar    1  UNL1       -0.0614
     21  C13        7.4530   -0.8330   -0.8730 C.ar    1  UNL1       -0.0599
     22  C14        6.1040   -0.7830   -1.1420 C.ar    1  UNL1       -0.0388
     23  C15        5.2690    0.1160   -0.4930 C.ar    1  UNL1        0.0545
     24  C16        0.3080   -0.7370   -0.2600 C.ar    1  UNL1       -0.0229
     25  C17       -6.3430    0.4610   -0.1110 C.ar    1  UNL1        0.0382
     26  C18       -7.4240   -0.3620    0.1920 C.ar    1  UNL1       -0.0496
     27  C19       -8.7180    0.0900    0.1960 C.ar    1  UNL1       -0.0610
     28  C20       -9.0220    1.3960   -0.1010 C.ar    1  UNL1       -0.0617
     29  C21       -7.9490    2.2270   -0.4040 C.ar    1  UNL1       -0.0610
     30  C22       -6.6360    1.7720   -0.4100 C.ar    1  UNL1       -0.0496
     31 H          -3.9295    1.6590   -0.5637 H       1  UNL1        0.1731
     32 H          -1.9620    0.3146   -1.1502 H       1  UNL1        0.1731
     33 H          -0.9556   -2.6706    2.0930 H       1  UNL1        0.0625
     34 H           1.2595   -3.6131    2.0147 H       1  UNL1        0.0618
     35 H           2.9044   -2.7195    0.4671 H       1  UNL1        0.0637
     36 H           2.6859    1.3704    0.8083 H       1  UNL1        0.0485
     37 H           3.2564    2.3692   -0.4578 H       1  UNL1        0.0485
     38 H           4.5761    1.5761    1.9981 H       1  UNL1        0.0330
     39 H           5.0231    2.8473    0.9048 H       1  UNL1        0.0330
     40 H           7.6180    1.5322    1.3915 H       1  UNL1        0.0621
     41 H           9.0619   -0.0447    0.2462 H       1  UNL1        0.0618
     42 H           8.0369   -1.5167   -1.3796 H       1  UNL1        0.0618
     43 H           5.7046   -1.4281   -1.8416 H       1  UNL1        0.0637
     44 H           0.0717    0.0472   -0.8878 H       1  UNL1        0.0645
     45 H          -7.2440   -1.3516    0.4228 H       1  UNL1        0.0625
     46 H          -9.4807   -0.5656    0.4273 H       1  UNL1        0.0618
     47 H          -9.9943    1.7420   -0.0994 H       1  UNL1        0.0618
     48 H          -8.1343    3.2162   -0.6324 H       1  UNL1        0.0618
     49 H          -5.8713    2.4252   -0.6415 H       1  UNL1        0.0625
@<TRIPOS>BOND
     1     1     2    2
     2     2     3   am
     3     2    25    1
     4     3     4    1
     5     4     5   am
     6     5     6    2
     7     5     7    1
     8     7     8   ar
     9     7    24   ar
    10     8     9   ar
    11     9    10   ar
    12    10    11   ar
    13    11    12    1
    14    11    24   ar
    15    12    13    2
    16    12    14    2
    17    12    15    1
    18    15    16    1
    19    15    23    1
    20    16    17    1
    21    17    18    1
    22    18    19   ar
    23    18    23   ar
    24    19    20   ar
    25    20    21   ar
    26    21    22   ar
    27    22    23   ar
    28    25    26   ar
    29    25    30   ar
    30    26    27   ar
    31    27    28   ar
    32    28    29   ar
    33    29    30   ar
    34     3    31    1
    35     4    32    1
    36     8    33    1
    37     9    34    1
    38    10    35    1
    39    16    36    1
    40    16    37    1
    41    17    38    1
    42    17    39    1
    43    19    40    1
    44    20    41    1
    45    21    42    1
    46    22    43    1
    47    24    44    1
    48    26    45    1
    49    27    46    1
    50    28    47    1
    51    29    48    1
    52    30    49    1
