@<TRIPOS>MOLECULE
../data/bude_mols_rdkit_confs/molecule_28.pdb
 37 39 0 0 0
SMALL
GASTEIGER

@<TRIPOS>ATOM
      1  O1         0.1730   -0.3380   -0.1810 O.2     1  UNL1       -0.2751
      2  C1         0.1580    0.5340   -1.0960 C.2     1  UNL1        0.2232
      3  C2        -1.1590    0.5390   -1.8700 C.3     1  UNL1        0.0688
      4  C3        -1.9890   -0.4730   -1.2330 C.ar    1  UNL1        0.0780
      5  N1        -1.7450   -1.7670   -1.5940 N.ar    1  UNL1       -0.1748
      6  N2        -2.3340   -2.7980   -1.0170 N.ar    1  UNL1       -0.2425
      7  C4        -3.2210   -2.6250   -0.0360 C.ar    1  UNL1        0.2725
      8  O2        -3.8070   -3.6090    0.5390 O.2     1  UNL1       -0.2658
      9  C5        -3.5490   -1.3480    0.4070 C.ar    1  UNL1        0.0496
     10  C6        -4.4910   -1.1480    1.3910 C.ar    1  UNL1       -0.0487
     11  C7        -4.8060    0.1310    1.7630 C.ar    1  UNL1       -0.0610
     12  C8        -4.1580    1.1900    1.1260 C.ar    1  UNL1       -0.0611
     13  C9        -3.2140    0.9930    0.1410 C.ar    1  UNL1       -0.0521
     14  C10       -2.8960   -0.2870   -0.2320 C.ar    1  UNL1        0.0108
     15  N3         1.2390    1.3510   -1.3370 N.am    1  UNL1       -0.2809
     16  C11        2.4710    1.2370   -0.6310 C.ar    1  UNL1        0.0991
     17  C12        2.8200    0.1210    0.0880 C.ar    1  UNL1       -0.0221
     18  C13        4.0740    0.0030    0.7130 C.ar    1  UNL1        0.0727
     19  C14        4.4170   -1.2250    1.4630 C.3     1  UNL1        0.4188
     20  F1         3.2990   -2.0740    1.5430 F       1  UNL1       -0.1658
     21  F2         4.8750   -0.9640    2.7290 F       1  UNL1       -0.1658
     22  F3         5.3550   -1.9500    0.7270 F       1  UNL1       -0.1658
     23  C15        4.9480    1.0370    0.5870 C.ar    1  UNL1        0.0167
     24  N4         4.5840    2.1450   -0.1350 N.ar    1  UNL1       -0.3270
     25  C16        3.3910    2.2610   -0.7320 C.ar    1  UNL1        0.2701
     26  O3         3.1100    3.3210   -1.3950 O.2     1  UNL1       -0.2659
     27 H          -0.9899    0.2915   -2.8972 H       1  UNL1        0.0423
     28 H          -1.6250    1.5020   -1.8538 H       1  UNL1        0.0423
     29 H          -2.1148   -3.7101   -1.3159 H       1  UNL1        0.1921
     30 H          -4.9538   -1.9524    1.8424 H       1  UNL1        0.0625
     31 H          -5.5076    0.3083    2.4987 H       1  UNL1        0.0618
     32 H          -4.3941    2.1559    1.4024 H       1  UNL1        0.0618
     33 H          -2.7527    1.7987   -0.3097 H       1  UNL1        0.0624
     34 H           1.1571    2.0462   -2.0292 H       1  UNL1        0.1550
     35 H           2.1429   -0.6533    0.1722 H       1  UNL1        0.0644
     36 H           5.8782    0.9885    1.0313 H       1  UNL1        0.0813
     37 H           5.2268    2.8861   -0.2178 H       1  UNL1        0.1684
@<TRIPOS>BOND
     1     1     2    2
     2     2     3    1
     3     2    15   am
     4     3     4    1
     5     4     5   ar
     6     4    14   ar
     7     5     6   ar
     8     6     7   ar
     9     7     8    2
    10     7     9   ar
    11     9    10   ar
    12     9    14   ar
    13    10    11   ar
    14    11    12   ar
    15    12    13   ar
    16    13    14   ar
    17    15    16    1
    18    16    17   ar
    19    16    25   ar
    20    17    18   ar
    21    18    19    1
    22    18    23   ar
    23    19    20    1
    24    19    21    1
    25    19    22    1
    26    23    24   ar
    27    24    25   ar
    28    25    26    2
    29     3    27    1
    30     3    28    1
    31     6    29    1
    32    10    30    1
    33    11    31    1
    34    12    32    1
    35    13    33    1
    36    15    34    1
    37    17    35    1
    38    23    36    1
    39    24    37    1
@<TRIPOS>MOLECULE
../data/bude_mols_rdkit_confs/molecule_28.pdb
 37 39 0 0 0
SMALL
GASTEIGER

@<TRIPOS>ATOM
      1  O1         1.5490    2.0770   -0.6300 O.2     1  UNL1       -0.2751
      2  C1         0.5690    1.2000   -0.5220 C.2     1  UNL1        0.2232
      3  C2        -0.7800    1.6700   -0.8070 C.3     1  UNL1        0.0688
      4  C3        -1.7810    0.6410   -0.9000 C.ar    1  UNL1        0.0780
      5  N1        -1.5010   -0.4680   -1.6600 N.ar    1  UNL1       -0.1748
      6  N2        -2.3600   -1.4660   -1.7590 N.ar    1  UNL1       -0.2425
      7  C4        -3.5620   -1.4780   -1.1340 C.ar    1  UNL1        0.2725
      8  O2        -4.3610   -2.4690   -1.2690 O.2     1  UNL1       -0.2658
      9  C5        -3.9130   -0.4040   -0.3560 C.ar    1  UNL1        0.0496
     10  C6        -5.1500   -0.3670    0.2650 C.ar    1  UNL1       -0.0487
     11  C7        -5.4860    0.7400    0.9950 C.ar    1  UNL1       -0.0610
     12  C8        -4.6250    1.7740    1.1120 C.ar    1  UNL1       -0.0611
     13  C9        -3.3860    1.7110    0.4820 C.ar    1  UNL1       -0.0521
     14  C10       -3.0090    0.6330   -0.2570 C.ar    1  UNL1        0.0108
     15  N3         0.9410   -0.0850   -0.1530 N.am    1  UNL1       -0.2809
     16  C11        2.2780   -0.5610    0.0930 C.ar    1  UNL1        0.0991
     17  C12        3.4070    0.2160   -0.0050 C.ar    1  UNL1       -0.0221
     18  C13        4.6900   -0.2750    0.2020 C.ar    1  UNL1        0.0727
     19  C14        5.8690    0.6230    0.0530 C.3     1  UNL1        0.4188
     20  F1         5.7180    1.6480    0.9760 F       1  UNL1       -0.1658
     21  F2         5.8000    1.2060   -1.1890 F       1  UNL1       -0.1658
     22  F3         7.0610   -0.0300    0.2710 F       1  UNL1       -0.1658
     23  C15        4.8110   -1.6060    0.5220 C.ar    1  UNL1        0.0167
     24  N4         3.7190   -2.3840    0.6280 N.ar    1  UNL1       -0.3270
     25  C16        2.5050   -1.8960    0.4260 C.ar    1  UNL1        0.2701
     26  O3         1.4990   -2.6690    0.5410 O.2     1  UNL1       -0.2659
     27 H          -0.7575    2.1949   -1.7391 H       1  UNL1        0.0423
     28 H          -1.0618    2.2838    0.0229 H       1  UNL1        0.0423
     29 H          -2.1146   -2.2405   -2.3151 H       1  UNL1        0.1921
     30 H          -5.8058   -1.1592    0.1788 H       1  UNL1        0.0625
     31 H          -6.4059    0.7855    1.4606 H       1  UNL1        0.0618
     32 H          -4.8845    2.6056    1.6652 H       1  UNL1        0.0618
     33 H          -2.7341    2.5052    0.5782 H       1  UNL1        0.0624
     34 H           0.2141   -0.7407   -0.0483 H       1  UNL1        0.1550
     35 H           3.2964    1.2138   -0.2442 H       1  UNL1        0.0644
     36 H           5.7464   -2.0114    0.6821 H       1  UNL1        0.0813
     37 H           3.8245   -3.3349    0.8603 H       1  UNL1        0.1684
@<TRIPOS>BOND
     1     1     2    2
     2     2     3    1
     3     2    15   am
     4     3     4    1
     5     4     5   ar
     6     4    14   ar
     7     5     6   ar
     8     6     7   ar
     9     7     8    2
    10     7     9   ar
    11     9    10   ar
    12     9    14   ar
    13    10    11   ar
    14    11    12   ar
    15    12    13   ar
    16    13    14   ar
    17    15    16    1
    18    16    17   ar
    19    16    25   ar
    20    17    18   ar
    21    18    19    1
    22    18    23   ar
    23    19    20    1
    24    19    21    1
    25    19    22    1
    26    23    24   ar
    27    24    25   ar
    28    25    26    2
    29     3    27    1
    30     3    28    1
    31     6    29    1
    32    10    30    1
    33    11    31    1
    34    12    32    1
    35    13    33    1
    36    15    34    1
    37    17    35    1
    38    23    36    1
    39    24    37    1
@<TRIPOS>MOLECULE
../data/bude_mols_rdkit_confs/molecule_28.pdb
 37 39 0 0 0
SMALL
GASTEIGER

@<TRIPOS>ATOM
      1  O1         0.0610    0.0210   -0.4780 O.2     1  UNL1       -0.2751
      2  C1         0.1650   -0.9470    0.2830 C.2     1  UNL1        0.2232
      3  C2        -1.0240   -1.5830    0.9210 C.3     1  UNL1        0.0688
      4  C3        -2.2850   -1.1020    0.3640 C.ar    1  UNL1        0.0780
      5  N1        -2.8970   -1.9010   -0.5640 N.ar    1  UNL1       -0.1748
      6  N2        -4.0170   -1.5390   -1.1570 N.ar    1  UNL1       -0.2425
      7  C4        -4.6560   -0.3840   -0.9220 C.ar    1  UNL1        0.2725
      8  O2        -5.7280   -0.0670   -1.5060 O.2     1  UNL1       -0.2658
      9  C5        -4.0620    0.4680    0.0220 C.ar    1  UNL1        0.0496
     10  C6        -4.6720    1.6520    0.2860 C.ar    1  UNL1       -0.0487
     11  C7        -4.0760    2.4730    1.2020 C.ar    1  UNL1       -0.0610
     12  C8        -2.9080    2.1660    1.8600 C.ar    1  UNL1       -0.0611
     13  C9        -2.2880    0.9590    1.5910 C.ar    1  UNL1       -0.0521
     14  C10       -2.8770    0.0960    0.6530 C.ar    1  UNL1        0.0108
     15  N3         1.4430   -1.4860    0.5690 N.am    1  UNL1       -0.2809
     16  C11        2.6750   -1.0280    0.0760 C.ar    1  UNL1        0.0991
     17  C12        2.8330    0.1400   -0.5950 C.ar    1  UNL1       -0.0221
     18  C13        4.0740    0.5630   -1.0700 C.ar    1  UNL1        0.0727
     19  C14        4.2480    1.8420   -1.7600 C.3     1  UNL1        0.4188
     20  F1         4.7580    2.8220   -0.8770 F       1  UNL1       -0.1658
     21  F2         5.1850    1.7590   -2.7590 F       1  UNL1       -0.1658
     22  F3         3.0420    2.2960   -2.2760 F       1  UNL1       -0.1658
     23  C15        5.1640   -0.2690   -0.8350 C.ar    1  UNL1        0.0167
     24  N4         5.0270   -1.4310   -0.1760 N.ar    1  UNL1       -0.3270
     25  C16        3.8100   -1.8060    0.2730 C.ar    1  UNL1        0.2701
     26  O3         3.7620   -2.8940    0.8810 O.2     1  UNL1       -0.2659
     27 H          -1.0075   -1.3665    1.9687 H       1  UNL1        0.0423
     28 H          -0.9678   -2.6351    0.7343 H       1  UNL1        0.0423
     29 H          -4.4099   -2.1568   -1.8152 H       1  UNL1        0.1921
     30 H          -5.5496    1.9210   -0.1856 H       1  UNL1        0.0625
     31 H          -4.5290    3.3761    1.4121 H       1  UNL1        0.0618
     32 H          -2.5012    2.8246    2.5425 H       1  UNL1        0.0618
     33 H          -1.4115    0.6985    2.0694 H       1  UNL1        0.0624
     34 H           1.4702   -2.2610    1.1755 H       1  UNL1        0.1550
     35 H           2.0067    0.7360   -0.7597 H       1  UNL1        0.0644
     36 H           6.0971    0.0127   -1.1741 H       1  UNL1        0.0813
     37 H           5.8103   -2.0069   -0.0209 H       1  UNL1        0.1684
@<TRIPOS>BOND
     1     1     2    2
     2     2     3    1
     3     2    15   am
     4     3     4    1
     5     4     5   ar
     6     4    14   ar
     7     5     6   ar
     8     6     7   ar
     9     7     8    2
    10     7     9   ar
    11     9    10   ar
    12     9    14   ar
    13    10    11   ar
    14    11    12   ar
    15    12    13   ar
    16    13    14   ar
    17    15    16    1
    18    16    17   ar
    19    16    25   ar
    20    17    18   ar
    21    18    19    1
    22    18    23   ar
    23    19    20    1
    24    19    21    1
    25    19    22    1
    26    23    24   ar
    27    24    25   ar
    28    25    26    2
    29     3    27    1
    30     3    28    1
    31     6    29    1
    32    10    30    1
    33    11    31    1
    34    12    32    1
    35    13    33    1
    36    15    34    1
    37    17    35    1
    38    23    36    1
    39    24    37    1
@<TRIPOS>MOLECULE
../data/bude_mols_rdkit_confs/molecule_28.pdb
 37 39 0 0 0
SMALL
GASTEIGER

@<TRIPOS>ATOM
      1  O1         1.3170   -0.5320    1.5400 O.2     1  UNL1       -0.2751
      2  C1         0.5600   -0.0620    0.6140 C.2     1  UNL1        0.2232
      3  C2        -0.8200    0.1720    0.9590 C.3     1  UNL1        0.0688
      4  C3        -1.8760   -0.2540    0.0550 C.ar    1  UNL1        0.0780
      5  N1        -1.7470   -0.6880   -1.1940 N.ar    1  UNL1       -0.1748
      6  N2        -2.7600   -0.9780   -1.9790 N.ar    1  UNL1       -0.2425
      7  C4        -4.0380   -0.8440   -1.5330 C.ar    1  UNL1        0.2725
      8  O2        -5.0350   -1.1120   -2.2690 O.2     1  UNL1       -0.2658
      9  C5        -4.2650   -0.4040   -0.2510 C.ar    1  UNL1        0.0496
     10  C6        -5.5440   -0.2550    0.2560 C.ar    1  UNL1       -0.0487
     11  C7        -5.7230    0.1880    1.5530 C.ar    1  UNL1       -0.0610
     12  C8        -4.6720    0.4900    2.3660 C.ar    1  UNL1       -0.0611
     13  C9        -3.3940    0.3360    1.8490 C.ar    1  UNL1       -0.0521
     14  C10       -3.1890   -0.1060    0.5520 C.ar    1  UNL1        0.0108
     15  N3         1.1780    0.1750   -0.6430 N.am    1  UNL1       -0.2809
     16  C11        2.5660   -0.0030   -0.8550 C.ar    1  UNL1        0.0991
     17  C12        3.5050    0.2500    0.1480 C.ar    1  UNL1       -0.0221
     18  C13        4.8830    0.2160   -0.0920 C.ar    1  UNL1        0.0727
     19  C14        5.8300    0.5450    1.0060 C.3     1  UNL1        0.4188
     20  F1         7.1100    0.3900    0.5750 F       1  UNL1       -0.1658
     21  F2         5.5980   -0.2480    2.1290 F       1  UNL1       -0.1658
     22  F3         5.5910    1.8560    1.4410 F       1  UNL1       -0.1658
     23  C15        5.3170   -0.0790   -1.3470 C.ar    1  UNL1        0.0167
     24  N4         4.4230   -0.3260   -2.3210 N.ar    1  UNL1       -0.3270
     25  C16        3.0760   -0.2910   -2.0870 C.ar    1  UNL1        0.2701
     26  O3         2.3240   -0.5410   -3.0600 O.2     1  UNL1       -0.2659
     27 H          -0.9315    1.2282    1.0888 H       1  UNL1        0.0423
     28 H          -0.9675   -0.4466    1.8195 H       1  UNL1        0.0423
     29 H          -2.5929   -1.2944   -2.8962 H       1  UNL1        0.1921
     30 H          -6.3625   -0.4742   -0.3331 H       1  UNL1        0.0625
     31 H          -6.6829    0.2934    1.9171 H       1  UNL1        0.0618
     32 H          -4.8214    0.8214    3.3318 H       1  UNL1        0.0618
     33 H          -2.5789    0.5552    2.4428 H       1  UNL1        0.0624
     34 H           0.6190    0.4747   -1.3960 H       1  UNL1        0.1550
     35 H           3.1705    0.4697    1.0993 H       1  UNL1        0.0644
     36 H           6.3281   -0.1131   -1.5509 H       1  UNL1        0.0813
     37 H           4.7468   -0.5376   -3.2263 H       1  UNL1        0.1684
@<TRIPOS>BOND
     1     1     2    2
     2     2     3    1
     3     2    15   am
     4     3     4    1
     5     4     5   ar
     6     4    14   ar
     7     5     6   ar
     8     6     7   ar
     9     7     8    2
    10     7     9   ar
    11     9    10   ar
    12     9    14   ar
    13    10    11   ar
    14    11    12   ar
    15    12    13   ar
    16    13    14   ar
    17    15    16    1
    18    16    17   ar
    19    16    25   ar
    20    17    18   ar
    21    18    19    1
    22    18    23   ar
    23    19    20    1
    24    19    21    1
    25    19    22    1
    26    23    24   ar
    27    24    25   ar
    28    25    26    2
    29     3    27    1
    30     3    28    1
    31     6    29    1
    32    10    30    1
    33    11    31    1
    34    12    32    1
    35    13    33    1
    36    15    34    1
    37    17    35    1
    38    23    36    1
    39    24    37    1
@<TRIPOS>MOLECULE
../data/bude_mols_rdkit_confs/molecule_28.pdb
 37 39 0 0 0
SMALL
GASTEIGER

@<TRIPOS>ATOM
      1  O1         0.6800    0.8900    0.9910 O.2     1  UNL1       -0.2751
      2  C1         0.3630   -0.3190    1.2380 C.2     1  UNL1        0.2232
      3  C2        -0.8510   -0.6510    2.0350 C.3     1  UNL1        0.0688
      4  C3        -2.1060   -0.6320    1.2680 C.ar    1  UNL1        0.0780
      5  N1        -2.5840   -1.8310    0.7950 N.ar    1  UNL1       -0.1748
      6  N2        -3.6570   -1.9330    0.0700 N.ar    1  UNL1       -0.2425
      7  C4        -4.3810   -0.8650   -0.2700 C.ar    1  UNL1        0.2725
      8  O2        -5.4350   -0.9540   -0.9790 O.2     1  UNL1       -0.2658
      9  C5        -3.9910    0.4020    0.1540 C.ar    1  UNL1        0.0496
     10  C6        -4.7250    1.5220   -0.1750 C.ar    1  UNL1       -0.0487
     11  C7        -4.3330    2.7630    0.2590 C.ar    1  UNL1       -0.0610
     12  C8        -3.1790    2.8110    1.0330 C.ar    1  UNL1       -0.0611
     13  C9        -2.4310    1.7230    1.3780 C.ar    1  UNL1       -0.0521
     14  C10       -2.8330    0.4710    0.9310 C.ar    1  UNL1        0.0108
     15  N3         1.2210   -1.2990    0.7160 N.am    1  UNL1       -0.2809
     16  C11        2.4060   -1.1640   -0.0330 C.ar    1  UNL1        0.0991
     17  C12        3.1060    0.0240   -0.0610 C.ar    1  UNL1       -0.0221
     18  C13        4.3030    0.1370   -0.7340 C.ar    1  UNL1        0.0727
     19  C14        5.0820    1.4310   -0.7550 C.3     1  UNL1        0.4188
     20  F1         5.4870    1.6800    0.5490 F       1  UNL1       -0.1658
     21  F2         4.1940    2.4150   -1.1330 F       1  UNL1       -0.1658
     22  F3         6.1420    1.3040   -1.6110 F       1  UNL1       -0.1658
     23  C15        4.7900   -0.9630   -1.3880 C.ar    1  UNL1        0.0167
     24  N4         4.1000   -2.1260   -1.3590 N.ar    1  UNL1       -0.3270
     25  C16        2.9470   -2.2560   -0.7140 C.ar    1  UNL1        0.2701
     26  O3         2.2810   -3.3240   -0.6650 O.2     1  UNL1       -0.2659
     27 H          -0.9340    0.0602    2.8301 H       1  UNL1        0.0423
     28 H          -0.7219   -1.6542    2.3841 H       1  UNL1        0.0423
     29 H          -3.9441   -2.8232   -0.2372 H       1  UNL1        0.1921
     30 H          -5.5753    1.4260   -0.7518 H       1  UNL1        0.0625
     31 H          -4.8659    3.6149    0.0237 H       1  UNL1        0.0618
     32 H          -2.8660    3.7347    1.3704 H       1  UNL1        0.0618
     33 H          -1.5845    1.8283    1.9588 H       1  UNL1        0.0624
     34 H           0.9522   -2.2275    0.9028 H       1  UNL1        0.1550
     35 H           2.7250    0.8462    0.4328 H       1  UNL1        0.0644
     36 H           5.6827   -0.9048   -1.9026 H       1  UNL1        0.0813
     37 H           4.4669   -2.9061   -1.8345 H       1  UNL1        0.1684
@<TRIPOS>BOND
     1     1     2    2
     2     2     3    1
     3     2    15   am
     4     3     4    1
     5     4     5   ar
     6     4    14   ar
     7     5     6   ar
     8     6     7   ar
     9     7     8    2
    10     7     9   ar
    11     9    10   ar
    12     9    14   ar
    13    10    11   ar
    14    11    12   ar
    15    12    13   ar
    16    13    14   ar
    17    15    16    1
    18    16    17   ar
    19    16    25   ar
    20    17    18   ar
    21    18    19    1
    22    18    23   ar
    23    19    20    1
    24    19    21    1
    25    19    22    1
    26    23    24   ar
    27    24    25   ar
    28    25    26    2
    29     3    27    1
    30     3    28    1
    31     6    29    1
    32    10    30    1
    33    11    31    1
    34    12    32    1
    35    13    33    1
    36    15    34    1
    37    17    35    1
    38    23    36    1
    39    24    37    1
@<TRIPOS>MOLECULE
../data/bude_mols_rdkit_confs/molecule_28.pdb
 37 39 0 0 0
SMALL
GASTEIGER

@<TRIPOS>ATOM
      1  O1         1.2480   -0.8360    1.7240 O.2     1  UNL1       -0.2751
      2  C1         0.5710   -0.7990    0.5970 C.2     1  UNL1        0.2232
      3  C2        -0.7570   -1.4730    0.6040 C.3     1  UNL1        0.0688
      4  C3        -1.8210   -0.4490    0.5300 C.ar    1  UNL1        0.0780
      5  N1        -1.5040    0.8440    0.7590 N.ar    1  UNL1       -0.1748
      6  N2        -2.3830    1.8310    0.6440 N.ar    1  UNL1       -0.2425
      7  C4        -3.6490    1.5750    0.2900 C.ar    1  UNL1        0.2725
      8  O2        -4.4440    2.5210    0.1860 O.2     1  UNL1       -0.2658
      9  C5        -4.0190    0.2780    0.0470 C.ar    1  UNL1        0.0496
     10  C6        -5.3240    0.0140   -0.3390 C.ar    1  UNL1       -0.0487
     11  C7        -5.6950   -1.2760   -0.5960 C.ar    1  UNL1       -0.0610
     12  C8        -4.7940   -2.3380   -0.4840 C.ar    1  UNL1       -0.0611
     13  C9        -3.4960   -2.0160   -0.0920 C.ar    1  UNL1       -0.0521
     14  C10       -3.1010   -0.7450    0.1690 C.ar    1  UNL1        0.0108
     15  N3         1.1770   -0.1410   -0.4440 N.am    1  UNL1       -0.2809
     16  C11        2.4290    0.4620   -0.4730 C.ar    1  UNL1        0.0991
     17  C12        3.4790    0.0060    0.2810 C.ar    1  UNL1       -0.0221
     18  C13        4.7510    0.5550    0.1440 C.ar    1  UNL1        0.0727
     19  C14        5.8570   -0.0370    0.9660 C.3     1  UNL1        0.4188
     20  F1         7.0140    0.6000    0.5220 F       1  UNL1       -0.1658
     21  F2         5.6430    0.0920    2.2890 F       1  UNL1       -0.1658
     22  F3         5.9160   -1.3740    0.5230 F       1  UNL1       -0.1658
     23  C15        4.9410    1.5670   -0.7650 C.ar    1  UNL1        0.0167
     24  N4         3.9060    2.0100   -1.5040 N.ar    1  UNL1       -0.3270
     25  C16        2.6890    1.4960   -1.3830 C.ar    1  UNL1        0.2701
     26  O3         1.7160    1.9190   -2.0880 O.2     1  UNL1       -0.2659
     27 H          -0.8666   -2.0388    1.5055 H       1  UNL1        0.0423
     28 H          -0.8313   -2.1307   -0.2367 H       1  UNL1        0.0423
     29 H          -2.1027    2.7582    0.8201 H       1  UNL1        0.1921
     30 H          -6.0070    0.7822   -0.4312 H       1  UNL1        0.0625
     31 H          -6.6676   -1.4711   -0.8807 H       1  UNL1        0.0618
     32 H          -5.0753   -3.3111   -0.6815 H       1  UNL1        0.0618
     33 H          -2.8058   -2.7772    0.0038 H       1  UNL1        0.0624
     34 H           0.6574   -0.0894   -1.2786 H       1  UNL1        0.1550
     35 H           3.3243   -0.7554    0.9602 H       1  UNL1        0.0644
     36 H           5.8762    1.9876   -0.8816 H       1  UNL1        0.0813
     37 H           4.0567    2.7356   -2.1521 H       1  UNL1        0.1684
@<TRIPOS>BOND
     1     1     2    2
     2     2     3    1
     3     2    15   am
     4     3     4    1
     5     4     5   ar
     6     4    14   ar
     7     5     6   ar
     8     6     7   ar
     9     7     8    2
    10     7     9   ar
    11     9    10   ar
    12     9    14   ar
    13    10    11   ar
    14    11    12   ar
    15    12    13   ar
    16    13    14   ar
    17    15    16    1
    18    16    17   ar
    19    16    25   ar
    20    17    18   ar
    21    18    19    1
    22    18    23   ar
    23    19    20    1
    24    19    21    1
    25    19    22    1
    26    23    24   ar
    27    24    25   ar
    28    25    26    2
    29     3    27    1
    30     3    28    1
    31     6    29    1
    32    10    30    1
    33    11    31    1
    34    12    32    1
    35    13    33    1
    36    15    34    1
    37    17    35    1
    38    23    36    1
    39    24    37    1
@<TRIPOS>MOLECULE
../data/bude_mols_rdkit_confs/molecule_28.pdb
 37 39 0 0 0
SMALL
GASTEIGER

@<TRIPOS>ATOM
      1  O1         1.0140    0.5610    1.6600 O.2     1  UNL1       -0.2751
      2  C1         0.4970    0.6380    0.4480 C.2     1  UNL1        0.2232
      3  C2        -0.8570    1.2020    0.3050 C.3     1  UNL1        0.0688
      4  C3        -1.8790    0.1580    0.2640 C.ar    1  UNL1        0.0780
      5  N1        -1.5770   -1.1370    0.0710 N.ar    1  UNL1       -0.1748
      6  N2        -2.5050   -2.0870   -0.0370 N.ar    1  UNL1       -0.2425
      7  C4        -3.8050   -1.8440    0.0370 C.ar    1  UNL1        0.2725
      8  O2        -4.7070   -2.7570   -0.0610 O.2     1  UNL1       -0.2658
      9  C5        -4.2170   -0.5220    0.2360 C.ar    1  UNL1        0.0496
     10  C6        -5.5440   -0.2060    0.3350 C.ar    1  UNL1       -0.0487
     11  C7        -5.9020    1.1120    0.5400 C.ar    1  UNL1       -0.0610
     12  C8        -4.9250    2.0910    0.6480 C.ar    1  UNL1       -0.0611
     13  C9        -3.5920    1.7530    0.5520 C.ar    1  UNL1       -0.0521
     14  C10       -3.2260    0.4410    0.3430 C.ar    1  UNL1        0.0108
     15  N3         1.3330    0.1610   -0.5440 N.am    1  UNL1       -0.2809
     16  C11        2.6480   -0.3180   -0.4440 C.ar    1  UNL1        0.0991
     17  C12        3.4910    0.2100    0.5340 C.ar    1  UNL1       -0.0221
     18  C13        4.8110   -0.2100    0.5000 C.ar    1  UNL1        0.0727
     19  C14        5.7470    0.3740    1.4730 C.3     1  UNL1        0.4188
     20  F1         5.3130    0.2640    2.7660 F       1  UNL1       -0.1658
     21  F2         5.8850    1.7310    1.1920 F       1  UNL1       -0.1658
     22  F3         7.0250   -0.1610    1.4070 F       1  UNL1       -0.1658
     23  C15        5.2880   -1.1140   -0.4550 C.ar    1  UNL1        0.0167
     24  N4         4.4230   -1.5730   -1.3450 N.ar    1  UNL1       -0.3270
     25  C16        3.1580   -1.2050   -1.3580 C.ar    1  UNL1        0.2701
     26  O3         2.3490   -1.6660   -2.2300 O.2     1  UNL1       -0.2659
     27 H          -0.9026    1.7670   -0.6025 H       1  UNL1        0.0423
     28 H          -1.0499    1.8227    1.1550 H       1  UNL1        0.0423
     29 H          -2.2099   -3.0155   -0.1788 H       1  UNL1        0.1921
     30 H          -6.2654   -0.9399    0.2578 H       1  UNL1        0.0625
     31 H          -6.8988    1.3693    0.6130 H       1  UNL1        0.0618
     32 H          -5.1968    3.0748    0.8006 H       1  UNL1        0.0618
     33 H          -2.8676    2.4831    0.6367 H       1  UNL1        0.0624
     34 H           0.9508    0.1567   -1.4513 H       1  UNL1        0.1550
     35 H           3.1502    0.8769    1.2440 H       1  UNL1        0.0644
     36 H           6.2762   -1.4114   -0.4651 H       1  UNL1        0.0813
     37 H           4.7367   -2.2139   -2.0233 H       1  UNL1        0.1684
@<TRIPOS>BOND
     1     1     2    2
     2     2     3    1
     3     2    15   am
     4     3     4    1
     5     4     5   ar
     6     4    14   ar
     7     5     6   ar
     8     6     7   ar
     9     7     8    2
    10     7     9   ar
    11     9    10   ar
    12     9    14   ar
    13    10    11   ar
    14    11    12   ar
    15    12    13   ar
    16    13    14   ar
    17    15    16    1
    18    16    17   ar
    19    16    25   ar
    20    17    18   ar
    21    18    19    1
    22    18    23   ar
    23    19    20    1
    24    19    21    1
    25    19    22    1
    26    23    24   ar
    27    24    25   ar
    28    25    26    2
    29     3    27    1
    30     3    28    1
    31     6    29    1
    32    10    30    1
    33    11    31    1
    34    12    32    1
    35    13    33    1
    36    15    34    1
    37    17    35    1
    38    23    36    1
    39    24    37    1
@<TRIPOS>MOLECULE
../data/bude_mols_rdkit_confs/molecule_28.pdb
 37 39 0 0 0
SMALL
GASTEIGER

@<TRIPOS>ATOM
      1  O1         0.3190    0.6030   -0.3160 O.2     1  UNL1       -0.2751
      2  C1         0.1740   -0.5640   -0.7980 C.2     1  UNL1        0.2232
      3  C2        -1.1170   -0.8220   -1.4760 C.3     1  UNL1        0.0688
      4  C3        -2.0660    0.2730   -1.3060 C.ar    1  UNL1        0.0780
      5  N1        -2.0190    1.3090   -2.1840 N.ar    1  UNL1       -0.1748
      6  N2        -2.7620    2.3920   -2.0930 N.ar    1  UNL1       -0.2425
      7  C4        -3.6320    2.5230   -1.0870 C.ar    1  UNL1        0.2725
      8  O2        -4.3450    3.5700   -1.0030 O.2     1  UNL1       -0.2658
      9  C5        -3.7620    1.5190   -0.1310 C.ar    1  UNL1        0.0496
     10  C6        -4.6660    1.5790    0.9070 C.ar    1  UNL1       -0.0487
     11  C7        -4.7740    0.5300    1.8030 C.ar    1  UNL1       -0.0610
     12  C8        -3.9840   -0.6010    1.6900 C.ar    1  UNL1       -0.0611
     13  C9        -3.0720   -0.6370    0.6280 C.ar    1  UNL1       -0.0521
     14  C10       -2.9550    0.3970   -0.2720 C.ar    1  UNL1        0.0108
     15  N3         1.1900   -1.5100   -0.6770 N.am    1  UNL1       -0.2809
     16  C11        2.4610   -1.3560   -0.0800 C.ar    1  UNL1        0.0991
     17  C12        2.9850   -0.1610    0.3350 C.ar    1  UNL1       -0.0221
     18  C13        4.2560   -0.0570    0.8780 C.ar    1  UNL1        0.0727
     19  C14        4.8250    1.2400    1.3150 C.3     1  UNL1        0.4188
     20  F1         4.0280    2.3040    0.9220 F       1  UNL1       -0.1658
     21  F2         5.0550    1.2690    2.6790 F       1  UNL1       -0.1658
     22  F3         6.0560    1.3730    0.6870 F       1  UNL1       -0.1658
     23  C15        5.0030   -1.2000    0.9950 C.ar    1  UNL1        0.0167
     24  N4         4.4840   -2.3740    0.5820 N.ar    1  UNL1       -0.3270
     25  C16        3.2670   -2.4910    0.0610 C.ar    1  UNL1        0.2701
     26  O3         2.8470   -3.6360   -0.3050 O.2     1  UNL1       -0.2659
     27 H          -1.5459   -1.7140   -1.0694 H       1  UNL1        0.0423
     28 H          -0.9201   -0.9220   -2.5230 H       1  UNL1        0.0423
     29 H          -2.6767    3.1054   -2.7661 H       1  UNL1        0.1921
     30 H          -5.2662    2.4113    1.0169 H       1  UNL1        0.0625
     31 H          -5.4588    0.5923    2.5726 H       1  UNL1        0.0618
     32 H          -4.0636   -1.3830    2.3587 H       1  UNL1        0.0618
     33 H          -2.4679   -1.4663    0.5168 H       1  UNL1        0.0624
     34 H           0.9976   -2.3982   -1.0555 H       1  UNL1        0.1550
     35 H           2.4131    0.6928    0.2401 H       1  UNL1        0.0644
     36 H           5.9535   -1.1626    1.3953 H       1  UNL1        0.0813
     37 H           5.0344   -3.1854    0.6709 H       1  UNL1        0.1684
@<TRIPOS>BOND
     1     1     2    2
     2     2     3    1
     3     2    15   am
     4     3     4    1
     5     4     5   ar
     6     4    14   ar
     7     5     6   ar
     8     6     7   ar
     9     7     8    2
    10     7     9   ar
    11     9    10   ar
    12     9    14   ar
    13    10    11   ar
    14    11    12   ar
    15    12    13   ar
    16    13    14   ar
    17    15    16    1
    18    16    17   ar
    19    16    25   ar
    20    17    18   ar
    21    18    19    1
    22    18    23   ar
    23    19    20    1
    24    19    21    1
    25    19    22    1
    26    23    24   ar
    27    24    25   ar
    28    25    26    2
    29     3    27    1
    30     3    28    1
    31     6    29    1
    32    10    30    1
    33    11    31    1
    34    12    32    1
    35    13    33    1
    36    15    34    1
    37    17    35    1
    38    23    36    1
    39    24    37    1
@<TRIPOS>MOLECULE
../data/bude_mols_rdkit_confs/molecule_28.pdb
 37 39 0 0 0
SMALL
GASTEIGER

@<TRIPOS>ATOM
      1  O1         0.7640    2.0580    0.0410 O.2     1  UNL1       -0.2751
      2  C1         0.3180    1.1170   -0.7270 C.2     1  UNL1        0.2232
      3  C2        -0.9210    1.4720   -1.4290 C.3     1  UNL1        0.0688
      4  C3        -2.1270    1.4140   -0.5500 C.ar    1  UNL1        0.0780
      5  N1        -2.5450    2.4850    0.1470 N.ar    1  UNL1       -0.1748
      6  N2        -3.5390    2.4640    1.0020 N.ar    1  UNL1       -0.2425
      7  C4        -4.1910    1.3180    1.2090 C.ar    1  UNL1        0.2725
      8  O2        -5.1570    1.2110    2.0250 O.2     1  UNL1       -0.2658
      9  C5        -3.8560    0.1530    0.5490 C.ar    1  UNL1        0.0496
     10  C6        -4.5390   -1.0350    0.7280 C.ar    1  UNL1       -0.0487
     11  C7        -4.1580   -2.1530    0.0010 C.ar    1  UNL1       -0.0610
     12  C8        -3.1190   -2.0730   -0.8820 C.ar    1  UNL1       -0.0611
     13  C9        -2.4050   -0.8760   -1.0850 C.ar    1  UNL1       -0.0521
     14  C10       -2.7880    0.2340   -0.3540 C.ar    1  UNL1        0.0108
     15  N3         1.0090   -0.0820   -0.8240 N.am    1  UNL1       -0.2809
     16  C11        2.2170   -0.4140   -0.1650 C.ar    1  UNL1        0.0991
     17  C12        3.1010    0.4900    0.3620 C.ar    1  UNL1       -0.0221
     18  C13        4.2930    0.0570    0.9400 C.ar    1  UNL1        0.0727
     19  C14        5.2480    1.0540    1.4840 C.3     1  UNL1        0.4188
     20  F1         6.1940    1.2550    0.4820 F       1  UNL1       -0.1658
     21  F2         4.6320    2.1980    1.9010 F       1  UNL1       -0.1658
     22  F3         5.9270    0.5470    2.5730 F       1  UNL1       -0.1658
     23  C15        4.6070   -1.2660    0.9960 C.ar    1  UNL1        0.0167
     24  N4         3.7500   -2.1670    0.4820 N.ar    1  UNL1       -0.3270
     25  C16        2.6000   -1.7570   -0.0770 C.ar    1  UNL1        0.2701
     26  O3         1.7850   -2.6090   -0.5660 O.2     1  UNL1       -0.2659
     27 H          -1.0590    0.7909   -2.2426 H       1  UNL1        0.0423
     28 H          -0.8193    2.4823   -1.7666 H       1  UNL1        0.0423
     29 H          -3.8005    3.2816    1.4841 H       1  UNL1        0.1921
     30 H          -5.3242   -1.0897    1.3955 H       1  UNL1        0.0625
     31 H          -4.6598   -3.0459    0.1273 H       1  UNL1        0.0618
     32 H          -2.8493   -2.9140   -1.4159 H       1  UNL1        0.0618
     33 H          -1.6226   -0.8287   -1.7564 H       1  UNL1        0.0624
     34 H           0.6203   -0.7711   -1.4099 H       1  UNL1        0.1550
     35 H           2.8829    1.4982    0.3308 H       1  UNL1        0.0644
     36 H           5.4921   -1.5746    1.4277 H       1  UNL1        0.0813
     37 H           3.9661   -3.1269    0.5158 H       1  UNL1        0.1684
@<TRIPOS>BOND
     1     1     2    2
     2     2     3    1
     3     2    15   am
     4     3     4    1
     5     4     5   ar
     6     4    14   ar
     7     5     6   ar
     8     6     7   ar
     9     7     8    2
    10     7     9   ar
    11     9    10   ar
    12     9    14   ar
    13    10    11   ar
    14    11    12   ar
    15    12    13   ar
    16    13    14   ar
    17    15    16    1
    18    16    17   ar
    19    16    25   ar
    20    17    18   ar
    21    18    19    1
    22    18    23   ar
    23    19    20    1
    24    19    21    1
    25    19    22    1
    26    23    24   ar
    27    24    25   ar
    28    25    26    2
    29     3    27    1
    30     3    28    1
    31     6    29    1
    32    10    30    1
    33    11    31    1
    34    12    32    1
    35    13    33    1
    36    15    34    1
    37    17    35    1
    38    23    36    1
    39    24    37    1
@<TRIPOS>MOLECULE
../data/bude_mols_rdkit_confs/molecule_28.pdb
 37 39 0 0 0
SMALL
GASTEIGER

@<TRIPOS>ATOM
      1  O1        -1.0340   -0.2010   -1.5430 O.2     1  UNL1       -0.2751
      2  C1        -0.5660    0.3830   -0.5580 C.2     1  UNL1        0.2232
      3  C2         0.8050    0.9500   -0.6280 C.3     1  UNL1        0.0688
      4  C3         1.9050    0.0610   -0.2960 C.ar    1  UNL1        0.0780
      5  N1         1.7500   -1.1360    0.2700 N.ar    1  UNL1       -0.1748
      6  N2         2.8040   -1.8850    0.6030 N.ar    1  UNL1       -0.2425
      7  C4         4.0720   -1.4750    0.3850 C.ar    1  UNL1        0.2725
      8  O2         5.0820   -2.1870    0.7060 O.2     1  UNL1       -0.2658
      9  C5         4.2960   -0.2540   -0.1960 C.ar    1  UNL1        0.0496
     10  C6         5.5800    0.1980   -0.4350 C.ar    1  UNL1       -0.0487
     11  C7         5.7470    1.4450   -1.0310 C.ar    1  UNL1       -0.0610
     12  C8         4.6450    2.2170   -1.3730 C.ar    1  UNL1       -0.0611
     13  C9         3.3470    1.7580   -1.1260 C.ar    1  UNL1       -0.0521
     14  C10        3.2010    0.5330   -0.5440 C.ar    1  UNL1        0.0108
     15  N3        -1.3510    0.4860    0.6040 N.am    1  UNL1       -0.2809
     16  C11       -2.6620    0.0520    0.8580 C.ar    1  UNL1        0.0991
     17  C12       -3.5590   -0.2670   -0.1760 C.ar    1  UNL1       -0.0221
     18  C13       -4.8640   -0.6110    0.1800 C.ar    1  UNL1        0.0727
     19  C14       -5.8110   -0.9100   -0.9330 C.3     1  UNL1        0.4188
     20  F1        -6.3720    0.3110   -1.3420 F       1  UNL1       -0.1658
     21  F2        -5.1210   -1.4700   -1.9830 F       1  UNL1       -0.1658
     22  F3        -6.8660   -1.6910   -0.5570 F       1  UNL1       -0.1658
     23  C15       -5.2520   -0.6380    1.4880 C.ar    1  UNL1        0.0167
     24  N4        -4.3570   -0.3230    2.4730 N.ar    1  UNL1       -0.3270
     25  C16       -3.0930    0.0140    2.1640 C.ar    1  UNL1        0.2701
     26  O3        -2.2570    0.3060    3.0630 O.2     1  UNL1       -0.2659
     27 H           0.8458    1.7796    0.0465 H       1  UNL1        0.0423
     28 H           0.9503    1.1983   -1.6586 H       1  UNL1        0.0423
     29 H           2.6520   -2.7635    1.0205 H       1  UNL1        0.1921
     30 H           6.3975   -0.3766   -0.1772 H       1  UNL1        0.0625
     31 H           6.6979    1.7985   -1.2202 H       1  UNL1        0.0618
     32 H           4.7850    3.1394   -1.8142 H       1  UNL1        0.0618
     33 H           2.5246    2.3289   -1.3765 H       1  UNL1        0.0624
     34 H          -0.9105    0.9347    1.3615 H       1  UNL1        0.1550
     35 H          -3.2629   -0.2475   -1.1644 H       1  UNL1        0.0644
     36 H          -6.2205   -0.8960    1.7339 H       1  UNL1        0.0813
     37 H          -4.6407   -0.3432    3.4155 H       1  UNL1        0.1684
@<TRIPOS>BOND
     1     1     2    2
     2     2     3    1
     3     2    15   am
     4     3     4    1
     5     4     5   ar
     6     4    14   ar
     7     5     6   ar
     8     6     7   ar
     9     7     8    2
    10     7     9   ar
    11     9    10   ar
    12     9    14   ar
    13    10    11   ar
    14    11    12   ar
    15    12    13   ar
    16    13    14   ar
    17    15    16    1
    18    16    17   ar
    19    16    25   ar
    20    17    18   ar
    21    18    19    1
    22    18    23   ar
    23    19    20    1
    24    19    21    1
    25    19    22    1
    26    23    24   ar
    27    24    25   ar
    28    25    26    2
    29     3    27    1
    30     3    28    1
    31     6    29    1
    32    10    30    1
    33    11    31    1
    34    12    32    1
    35    13    33    1
    36    15    34    1
    37    17    35    1
    38    23    36    1
    39    24    37    1
@<TRIPOS>MOLECULE
../data/bude_mols_rdkit_confs/molecule_28.pdb
 37 39 0 0 0
SMALL
GASTEIGER

@<TRIPOS>ATOM
      1  O1         0.8360    0.5950   -1.9560 O.2     1  UNL1       -0.2751
      2  C1         0.2580    1.0460   -0.9360 C.2     1  UNL1        0.2232
      3  C2        -1.1260    1.5950   -1.2160 C.3     1  UNL1        0.0688
      4  C3        -2.1460    0.5700   -1.3080 C.ar    1  UNL1        0.0780
      5  N1        -2.4230   -0.0370   -2.4800 N.ar    1  UNL1       -0.1748
      6  N2        -3.3120   -1.0110   -2.5790 N.ar    1  UNL1       -0.2425
      7  C4        -3.9970   -1.4510   -1.5140 C.ar    1  UNL1        0.2725
      8  O2        -4.8490   -2.3810   -1.5850 O.2     1  UNL1       -0.2658
      9  C5        -3.7850   -0.8920   -0.2800 C.ar    1  UNL1        0.0496
     10  C6        -4.4780   -1.2790    0.8520 C.ar    1  UNL1       -0.0487
     11  C7        -4.2490   -0.6590    2.0850 C.ar    1  UNL1       -0.0610
     12  C8        -3.3300    0.3440    2.1870 C.ar    1  UNL1       -0.0611
     13  C9        -2.6550    0.7030    1.0340 C.ar    1  UNL1       -0.0521
     14  C10       -2.8450    0.1230   -0.2020 C.ar    1  UNL1        0.0108
     15  N3         0.8670    1.0230    0.3230 N.am    1  UNL1       -0.2809
     16  C11        2.1880    0.5050    0.5330 C.ar    1  UNL1        0.0991
     17  C12        3.1080    0.2190   -0.4250 C.ar    1  UNL1       -0.0221
     18  C13        4.3950   -0.2380   -0.1150 C.ar    1  UNL1        0.0727
     19  C14        5.3880   -0.5170   -1.1850 C.3     1  UNL1        0.4188
     20  F1         6.6070    0.0610   -0.8570 F       1  UNL1       -0.1658
     21  F2         5.4890   -1.8690   -1.4190 F       1  UNL1       -0.1658
     22  F3         4.9670    0.1500   -2.3310 F       1  UNL1       -0.1658
     23  C15        4.7550   -0.4140    1.2140 C.ar    1  UNL1        0.0167
     24  N4         3.8220   -0.1260    2.1400 N.ar    1  UNL1       -0.3270
     25  C16        2.5990    0.3120    1.8640 C.ar    1  UNL1        0.2701
     26  O3         1.7740    0.5610    2.8040 O.2     1  UNL1       -0.2659
     27 H          -1.0976    2.1288   -2.1429 H       1  UNL1        0.0423
     28 H          -1.3871    2.2262   -0.3924 H       1  UNL1        0.0423
     29 H          -3.4750   -1.4238   -3.4578 H       1  UNL1        0.1921
     30 H          -5.1751   -2.0371    0.7864 H       1  UNL1        0.0625
     31 H          -4.7764   -0.9610    2.9191 H       1  UNL1        0.0618
     32 H          -3.1460    0.8152    3.0865 H       1  UNL1        0.0618
     33 H          -1.9580    1.4608    1.1044 H       1  UNL1        0.0624
     34 H           0.3693    1.3763    1.0955 H       1  UNL1        0.1550
     35 H           2.8492    0.3429   -1.4163 H       1  UNL1        0.0644
     36 H           5.6940   -0.7499    1.4794 H       1  UNL1        0.0813
     37 H           4.0625   -0.2484    3.0868 H       1  UNL1        0.1684
@<TRIPOS>BOND
     1     1     2    2
     2     2     3    1
     3     2    15   am
     4     3     4    1
     5     4     5   ar
     6     4    14   ar
     7     5     6   ar
     8     6     7   ar
     9     7     8    2
    10     7     9   ar
    11     9    10   ar
    12     9    14   ar
    13    10    11   ar
    14    11    12   ar
    15    12    13   ar
    16    13    14   ar
    17    15    16    1
    18    16    17   ar
    19    16    25   ar
    20    17    18   ar
    21    18    19    1
    22    18    23   ar
    23    19    20    1
    24    19    21    1
    25    19    22    1
    26    23    24   ar
    27    24    25   ar
    28    25    26    2
    29     3    27    1
    30     3    28    1
    31     6    29    1
    32    10    30    1
    33    11    31    1
    34    12    32    1
    35    13    33    1
    36    15    34    1
    37    17    35    1
    38    23    36    1
    39    24    37    1
@<TRIPOS>MOLECULE
../data/bude_mols_rdkit_confs/molecule_28.pdb
 37 39 0 0 0
SMALL
GASTEIGER

@<TRIPOS>ATOM
      1  O1         1.5510   -1.7520   -1.1420 O.2     1  UNL1       -0.2751
      2  C1         0.5100   -1.2240   -0.6290 C.2     1  UNL1        0.2232
      3  C2        -0.7510   -1.7720   -1.1160 C.3     1  UNL1        0.0688
      4  C3        -1.8570   -0.8530   -1.4170 C.ar    1  UNL1        0.0780
      5  N1        -2.1100   -0.3810   -2.6490 N.ar    1  UNL1       -0.1748
      6  N2        -3.0780    0.4050   -3.0120 N.ar    1  UNL1       -0.2425
      7  C4        -3.9470    0.8130   -2.0600 C.ar    1  UNL1        0.2725
      8  O2        -4.9030    1.5690   -2.3530 O.2     1  UNL1       -0.2658
      9  C5        -3.7640    0.3810   -0.7740 C.ar    1  UNL1        0.0496
     10  C6        -4.6550    0.7250    0.2410 C.ar    1  UNL1       -0.0487
     11  C7        -4.5190    0.2660    1.5180 C.ar    1  UNL1       -0.0610
     12  C8        -3.4760   -0.5620    1.8410 C.ar    1  UNL1       -0.0611
     13  C9        -2.5550   -0.9360    0.8520 C.ar    1  UNL1       -0.0521
     14  C10       -2.7140   -0.4670   -0.4110 C.ar    1  UNL1        0.0108
     15  N3         0.6970   -0.1870    0.3340 N.am    1  UNL1       -0.2809
     16  C11        2.0380    0.2330    0.6990 C.ar    1  UNL1        0.0991
     17  C12        3.1490    0.0050   -0.0330 C.ar    1  UNL1       -0.0221
     18  C13        4.4010    0.4470    0.3680 C.ar    1  UNL1        0.0727
     19  C14        5.5730    0.1430   -0.5250 C.3     1  UNL1        0.4188
     20  F1         5.3290    0.8180   -1.7100 F       1  UNL1       -0.1658
     21  F2         6.7270    0.4460    0.0920 F       1  UNL1       -0.1658
     22  F3         5.4460   -1.2170   -0.8610 F       1  UNL1       -0.1658
     23  C15        4.5300    1.1300    1.5250 C.ar    1  UNL1        0.0167
     24  N4         3.4110    1.3680    2.2740 N.ar    1  UNL1       -0.3270
     25  C16        2.2110    0.9420    1.8860 C.ar    1  UNL1        0.2701
     26  O3         1.2290    1.2000    2.6310 O.2     1  UNL1       -0.2659
     27 H          -1.1043   -2.4551   -0.3721 H       1  UNL1        0.0423
     28 H          -0.4987   -2.1909   -2.0677 H       1  UNL1        0.0423
     29 H          -3.1757    0.6938   -3.9481 H       1  UNL1        0.1921
     30 H          -5.4459    1.3494    0.0183 H       1  UNL1        0.0625
     31 H          -5.2016    0.5422    2.2411 H       1  UNL1        0.0618
     32 H          -3.3689   -0.9085    2.8072 H       1  UNL1        0.0618
     33 H          -1.7661   -1.5602    1.0820 H       1  UNL1        0.0624
     34 H          -0.0839    0.2437    0.7510 H       1  UNL1        0.1550
     35 H           3.0640   -0.5153   -0.9202 H       1  UNL1        0.0644
     36 H           5.4543    1.4658    1.8380 H       1  UNL1        0.0813
     37 H           3.4947    1.8657    3.1193 H       1  UNL1        0.1684
@<TRIPOS>BOND
     1     1     2    2
     2     2     3    1
     3     2    15   am
     4     3     4    1
     5     4     5   ar
     6     4    14   ar
     7     5     6   ar
     8     6     7   ar
     9     7     8    2
    10     7     9   ar
    11     9    10   ar
    12     9    14   ar
    13    10    11   ar
    14    11    12   ar
    15    12    13   ar
    16    13    14   ar
    17    15    16    1
    18    16    17   ar
    19    16    25   ar
    20    17    18   ar
    21    18    19    1
    22    18    23   ar
    23    19    20    1
    24    19    21    1
    25    19    22    1
    26    23    24   ar
    27    24    25   ar
    28    25    26    2
    29     3    27    1
    30     3    28    1
    31     6    29    1
    32    10    30    1
    33    11    31    1
    34    12    32    1
    35    13    33    1
    36    15    34    1
    37    17    35    1
    38    23    36    1
    39    24    37    1
@<TRIPOS>MOLECULE
../data/bude_mols_rdkit_confs/molecule_28.pdb
 37 39 0 0 0
SMALL
GASTEIGER

@<TRIPOS>ATOM
      1  O1         0.3870    0.7090    0.9880 O.2     1  UNL1       -0.2751
      2  C1         0.1500   -0.5090    0.9710 C.2     1  UNL1        0.2232
      3  C2        -1.1180   -1.1140    1.4500 C.3     1  UNL1        0.0688
      4  C3        -2.1630   -1.0000    0.4490 C.ar    1  UNL1        0.0780
      5  N1        -2.4530   -2.1250   -0.2790 N.ar    1  UNL1       -0.1748
      6  N2        -3.3660   -2.1880   -1.2040 N.ar    1  UNL1       -0.2425
      7  C4        -4.0900   -1.1240   -1.5000 C.ar    1  UNL1        0.2725
      8  O2        -4.9880   -1.1280   -2.3830 O.2     1  UNL1       -0.2658
      9  C5        -3.8460    0.0530   -0.7990 C.ar    1  UNL1        0.0496
     10  C6        -4.5850    1.1880   -1.0760 C.ar    1  UNL1       -0.0487
     11  C7        -4.3880    2.3730   -0.4110 C.ar    1  UNL1       -0.0610
     12  C8        -3.4180    2.4300    0.5730 C.ar    1  UNL1       -0.0611
     13  C9        -2.6660    1.3160    0.8770 C.ar    1  UNL1       -0.0521
     14  C10       -2.8790    0.1180    0.1810 C.ar    1  UNL1        0.0108
     15  N3         1.2040   -1.3500    0.4530 N.am    1  UNL1       -0.2809
     16  C11        2.4660   -0.8950    0.0130 C.ar    1  UNL1        0.0991
     17  C12        3.0180    0.3300    0.2610 C.ar    1  UNL1       -0.0221
     18  C13        4.3220    0.6330   -0.1920 C.ar    1  UNL1        0.0727
     19  C14        4.8320    2.0060    0.1410 C.3     1  UNL1        0.4188
     20  F1         4.8480    2.7250   -1.0290 F       1  UNL1       -0.1658
     21  F2         6.0860    1.9300    0.7250 F       1  UNL1       -0.1658
     22  F3         3.9570    2.6280    1.0420 F       1  UNL1       -0.1658
     23  C15        5.0310   -0.2910   -0.8760 C.ar    1  UNL1        0.0167
     24  N4         4.4850   -1.4930   -1.1160 N.ar    1  UNL1       -0.3270
     25  C16        3.2480   -1.8060   -0.6950 C.ar    1  UNL1        0.2701
     26  O3         2.8070   -2.9520   -0.9610 O.2     1  UNL1       -0.2659
     27 H          -1.4309   -0.6102    2.3406 H       1  UNL1        0.0423
     28 H          -0.9465   -2.1520    1.6452 H       1  UNL1        0.0423
     29 H          -3.5178   -3.0331   -1.6856 H       1  UNL1        0.1921
     30 H          -5.3105    1.1430   -1.8086 H       1  UNL1        0.0625
     31 H          -4.9531    3.2053   -0.6411 H       1  UNL1        0.0618
     32 H          -3.2563    3.3125    1.0829 H       1  UNL1        0.0618
     33 H          -1.9471    1.3636    1.6159 H       1  UNL1        0.0624
     34 H           1.0284   -2.3174    0.4028 H       1  UNL1        0.1550
     35 H           2.4791    1.0388    0.7827 H       1  UNL1        0.0644
     36 H           5.9830   -0.0747   -1.2106 H       1  UNL1        0.0813
     37 H           5.0051   -2.1641   -1.6143 H       1  UNL1        0.1684
@<TRIPOS>BOND
     1     1     2    2
     2     2     3    1
     3     2    15   am
     4     3     4    1
     5     4     5   ar
     6     4    14   ar
     7     5     6   ar
     8     6     7   ar
     9     7     8    2
    10     7     9   ar
    11     9    10   ar
    12     9    14   ar
    13    10    11   ar
    14    11    12   ar
    15    12    13   ar
    16    13    14   ar
    17    15    16    1
    18    16    17   ar
    19    16    25   ar
    20    17    18   ar
    21    18    19    1
    22    18    23   ar
    23    19    20    1
    24    19    21    1
    25    19    22    1
    26    23    24   ar
    27    24    25   ar
    28    25    26    2
    29     3    27    1
    30     3    28    1
    31     6    29    1
    32    10    30    1
    33    11    31    1
    34    12    32    1
    35    13    33    1
    36    15    34    1
    37    17    35    1
    38    23    36    1
    39    24    37    1
@<TRIPOS>MOLECULE
../data/bude_mols_rdkit_confs/molecule_28.pdb
 37 39 0 0 0
SMALL
GASTEIGER

@<TRIPOS>ATOM
      1  O1         0.4810   -1.4110    1.2430 O.2     1  UNL1       -0.2751
      2  C1         0.2580   -0.2300    0.9390 C.2     1  UNL1        0.2232
      3  C2        -0.9210    0.5790    1.4080 C.3     1  UNL1        0.0688
      4  C3        -1.9020    0.8360    0.3610 C.ar    1  UNL1        0.0780
      5  N1        -1.5120    1.8040   -0.5630 N.ar    1  UNL1       -0.1748
      6  N2        -2.3070    2.1200   -1.5350 N.ar    1  UNL1       -0.2425
      7  C4        -3.5040    1.5550   -1.6860 C.ar    1  UNL1        0.2725
      8  O2        -4.2320    1.9090   -2.6190 O.2     1  UNL1       -0.2658
      9  C5        -3.9410    0.5940   -0.7970 C.ar    1  UNL1        0.0496
     10  C6        -5.2090    0.0460   -0.9110 C.ar    1  UNL1       -0.0487
     11  C7        -5.6720   -0.8640   -0.0090 C.ar    1  UNL1       -0.0610
     12  C8        -4.8140   -1.2310    1.0490 C.ar    1  UNL1       -0.0611
     13  C9        -3.5360   -0.6900    1.1770 C.ar    1  UNL1       -0.0521
     14  C10       -3.0990    0.2240    0.2570 C.ar    1  UNL1        0.0108
     15  N3         1.2010    0.4360    0.0670 N.am    1  UNL1       -0.2809
     16  C11        2.4110   -0.0950   -0.3760 C.ar    1  UNL1        0.0991
     17  C12        3.3520   -0.4060    0.6270 C.ar    1  UNL1       -0.0221
     18  C13        4.6530   -0.7060    0.2770 C.ar    1  UNL1        0.0727
     19  C14        5.7190   -0.9070    1.3100 C.3     1  UNL1        0.4188
     20  F1         5.2180   -0.4680    2.5110 F       1  UNL1       -0.1658
     21  F2         6.7790   -0.0430    0.9270 F       1  UNL1       -0.1658
     22  F3         6.1240   -2.2010    1.3910 F       1  UNL1       -0.1658
     23  C15        5.0650   -0.7170   -1.0230 C.ar    1  UNL1        0.0167
     24  N4         4.1350   -0.4140   -1.9690 N.ar    1  UNL1       -0.3270
     25  C16        2.8890   -0.1290   -1.6410 C.ar    1  UNL1        0.2701
     26  O3         2.0810    0.1260   -2.5810 O.2     1  UNL1       -0.2659
     27 H          -0.5631    1.5182    1.7749 H       1  UNL1        0.0423
     28 H          -1.4129    0.0080    2.1675 H       1  UNL1        0.0423
     29 H          -2.0171    2.8008   -2.1844 H       1  UNL1        0.1921
     30 H          -5.8150    0.3333   -1.6954 H       1  UNL1        0.0625
     31 H          -6.6166   -1.2703   -0.0966 H       1  UNL1        0.0618
     32 H          -5.1412   -1.9179    1.7463 H       1  UNL1        0.0618
     33 H          -2.9251   -0.9759    1.9581 H       1  UNL1        0.0624
     34 H           0.9679    1.3420   -0.2397 H       1  UNL1        0.1550
     35 H           3.0689   -0.4093    1.6194 H       1  UNL1        0.0644
     36 H           6.0387   -0.9450   -1.2779 H       1  UNL1        0.0813
     37 H           4.3972   -0.4073   -2.9179 H       1  UNL1        0.1684
@<TRIPOS>BOND
     1     1     2    2
     2     2     3    1
     3     2    15   am
     4     3     4    1
     5     4     5   ar
     6     4    14   ar
     7     5     6   ar
     8     6     7   ar
     9     7     8    2
    10     7     9   ar
    11     9    10   ar
    12     9    14   ar
    13    10    11   ar
    14    11    12   ar
    15    12    13   ar
    16    13    14   ar
    17    15    16    1
    18    16    17   ar
    19    16    25   ar
    20    17    18   ar
    21    18    19    1
    22    18    23   ar
    23    19    20    1
    24    19    21    1
    25    19    22    1
    26    23    24   ar
    27    24    25   ar
    28    25    26    2
    29     3    27    1
    30     3    28    1
    31     6    29    1
    32    10    30    1
    33    11    31    1
    34    12    32    1
    35    13    33    1
    36    15    34    1
    37    17    35    1
    38    23    36    1
    39    24    37    1
@<TRIPOS>MOLECULE
../data/bude_mols_rdkit_confs/molecule_28.pdb
 37 39 0 0 0
SMALL
GASTEIGER

@<TRIPOS>ATOM
      1  O1         1.2690    1.1640    1.9570 O.2     1  UNL1       -0.2751
      2  C1         0.4990    0.7220    1.0410 C.2     1  UNL1        0.2232
      3  C2        -0.9670    1.0710    1.1070 C.3     1  UNL1        0.0688
      4  C3        -1.8310   -0.0210    0.6150 C.ar    1  UNL1        0.0780
      5  N1        -1.5010   -1.3050    0.5110 N.ar    1  UNL1       -0.1748
      6  N2        -2.3370   -2.2170   -0.0150 N.ar    1  UNL1       -0.2425
      7  C4        -3.5580   -1.9130   -0.4700 C.ar    1  UNL1        0.2725
      8  O2        -4.3450   -2.7700   -0.9690 O.2     1  UNL1       -0.2658
      9  C5        -3.9660   -0.6070   -0.3900 C.ar    1  UNL1        0.0496
     10  C6        -5.1970   -0.2360   -0.8320 C.ar    1  UNL1       -0.0487
     11  C7        -5.6650    1.0760   -0.7730 C.ar    1  UNL1       -0.0610
     12  C8        -4.8250    2.0130   -0.2410 C.ar    1  UNL1       -0.0611
     13  C9        -3.5640    1.6350    0.2130 C.ar    1  UNL1       -0.0521
     14  C10       -3.1080    0.3280    0.1480 C.ar    1  UNL1        0.0108
     15  N3         1.0600   -0.0590    0.0220 N.am    1  UNL1       -0.2809
     16  C11        2.4200   -0.3850   -0.1370 C.ar    1  UNL1        0.0991
     17  C12        3.4290    0.3300    0.4390 C.ar    1  UNL1       -0.0221
     18  C13        4.7800    0.0500    0.2010 C.ar    1  UNL1        0.0727
     19  C14        5.8660    0.8680    0.7940 C.3     1  UNL1        0.4188
     20  F1         5.2990    1.9460    1.4730 F       1  UNL1       -0.1658
     21  F2         6.5570    1.4770   -0.2720 F       1  UNL1       -0.1658
     22  F3         6.6800    0.1720    1.6350 F       1  UNL1       -0.1658
     23  C15        5.0920   -0.9810   -0.6400 C.ar    1  UNL1        0.0167
     24  N4         4.0870   -1.6880   -1.2060 N.ar    1  UNL1       -0.3270
     25  C16        2.7990   -1.4250   -0.9850 C.ar    1  UNL1        0.2701
     26  O3         1.9440   -2.1420   -1.5720 O.2     1  UNL1       -0.2659
     27 H          -1.1398    1.9413    0.5089 H       1  UNL1        0.0423
     28 H          -1.2142    1.2437    2.1336 H       1  UNL1        0.0423
     29 H          -2.0365   -3.1530   -0.0679 H       1  UNL1        0.1921
     30 H          -5.8147   -0.9604   -1.2304 H       1  UNL1        0.0625
     31 H          -6.6050    1.3284   -1.1162 H       1  UNL1        0.0618
     32 H          -5.1243    2.9985   -0.1758 H       1  UNL1        0.0618
     33 H          -2.9446    2.3567    0.6137 H       1  UNL1        0.0624
     34 H           0.4386   -0.4168   -0.6526 H       1  UNL1        0.1550
     35 H           3.1873    1.1066    1.0742 H       1  UNL1        0.0644
     36 H           6.0768   -1.2161   -0.8398 H       1  UNL1        0.0813
     37 H           4.3176   -2.4312   -1.8091 H       1  UNL1        0.1684
@<TRIPOS>BOND
     1     1     2    2
     2     2     3    1
     3     2    15   am
     4     3     4    1
     5     4     5   ar
     6     4    14   ar
     7     5     6   ar
     8     6     7   ar
     9     7     8    2
    10     7     9   ar
    11     9    10   ar
    12     9    14   ar
    13    10    11   ar
    14    11    12   ar
    15    12    13   ar
    16    13    14   ar
    17    15    16    1
    18    16    17   ar
    19    16    25   ar
    20    17    18   ar
    21    18    19    1
    22    18    23   ar
    23    19    20    1
    24    19    21    1
    25    19    22    1
    26    23    24   ar
    27    24    25   ar
    28    25    26    2
    29     3    27    1
    30     3    28    1
    31     6    29    1
    32    10    30    1
    33    11    31    1
    34    12    32    1
    35    13    33    1
    36    15    34    1
    37    17    35    1
    38    23    36    1
    39    24    37    1
@<TRIPOS>MOLECULE
../data/bude_mols_rdkit_confs/molecule_28.pdb
 37 39 0 0 0
SMALL
GASTEIGER

@<TRIPOS>ATOM
      1  O1         0.7610   -2.1370    0.4770 O.2     1  UNL1       -0.2751
      2  C1         0.1970   -1.7030   -0.5010 C.2     1  UNL1        0.2232
      3  C2        -1.2120   -2.0810   -0.9220 C.3     1  UNL1        0.0688
      4  C3        -2.1140   -1.5190    0.1060 C.ar    1  UNL1        0.0780
      5  N1        -2.1890   -2.1490    1.3150 N.ar    1  UNL1       -0.1748
      6  N2        -2.8040   -1.6030    2.3690 N.ar    1  UNL1       -0.2425
      7  C4        -3.3740   -0.4160    2.2740 C.ar    1  UNL1        0.2725
      8  O2        -3.9580    0.0850    3.2770 O.2     1  UNL1       -0.2658
      9  C5        -3.3680    0.3270    1.0950 C.ar    1  UNL1        0.0496
     10  C6        -4.0480    1.5180    0.9930 C.ar    1  UNL1       -0.0487
     11  C7        -4.0880    2.1670   -0.2670 C.ar    1  UNL1       -0.0610
     12  C8        -3.4270    1.5400   -1.3230 C.ar    1  UNL1       -0.0611
     13  C9        -2.7460    0.3480   -1.2060 C.ar    1  UNL1       -0.0521
     14  C10       -2.7170   -0.2770    0.0270 C.ar    1  UNL1        0.0108
     15  N3         0.8750   -0.7650   -1.3550 N.am    1  UNL1       -0.2809
     16  C11        2.1860   -0.2560   -1.0760 C.ar    1  UNL1        0.0991
     17  C12        2.7050   -0.1230    0.2070 C.ar    1  UNL1       -0.0221
     18  C13        3.9200    0.4700    0.4370 C.ar    1  UNL1        0.0727
     19  C14        4.4740    0.6630    1.8380 C.3     1  UNL1        0.4188
     20  F1         3.4930    0.3390    2.7340 F       1  UNL1       -0.1658
     21  F2         5.6140   -0.1150    1.9530 F       1  UNL1       -0.1658
     22  F3         4.7810    2.0120    1.9640 F       1  UNL1       -0.1658
     23  C15        4.6780    0.9610   -0.5980 C.ar    1  UNL1        0.0167
     24  N4         4.1720    0.8360   -1.8440 N.ar    1  UNL1       -0.3270
     25  C16        2.9790    0.2550   -2.1030 C.ar    1  UNL1        0.2701
     26  O3         2.5750    0.1820   -3.2910 O.2     1  UNL1       -0.2659
     27 H          -1.3139   -3.1453   -0.9632 H       1  UNL1        0.0423
     28 H          -1.4439   -1.7002   -1.8947 H       1  UNL1        0.0423
     29 H          -2.8321   -2.0906    3.2238 H       1  UNL1        0.1921
     30 H          -4.5181    1.9297    1.8143 H       1  UNL1        0.0625
     31 H          -4.5838    3.0628   -0.3968 H       1  UNL1        0.0618
     32 H          -3.4493    1.9966   -2.2482 H       1  UNL1        0.0618
     33 H          -2.2683   -0.0689   -2.0203 H       1  UNL1        0.0624
     34 H           0.4168   -0.4577   -2.1704 H       1  UNL1        0.1550
     35 H           2.1611   -0.4802    1.0080 H       1  UNL1        0.0644
     36 H           5.5940    1.4059   -0.4308 H       1  UNL1        0.0813
     37 H           4.6972    1.1848   -2.6001 H       1  UNL1        0.1684
@<TRIPOS>BOND
     1     1     2    2
     2     2     3    1
     3     2    15   am
     4     3     4    1
     5     4     5   ar
     6     4    14   ar
     7     5     6   ar
     8     6     7   ar
     9     7     8    2
    10     7     9   ar
    11     9    10   ar
    12     9    14   ar
    13    10    11   ar
    14    11    12   ar
    15    12    13   ar
    16    13    14   ar
    17    15    16    1
    18    16    17   ar
    19    16    25   ar
    20    17    18   ar
    21    18    19    1
    22    18    23   ar
    23    19    20    1
    24    19    21    1
    25    19    22    1
    26    23    24   ar
    27    24    25   ar
    28    25    26    2
    29     3    27    1
    30     3    28    1
    31     6    29    1
    32    10    30    1
    33    11    31    1
    34    12    32    1
    35    13    33    1
    36    15    34    1
    37    17    35    1
    38    23    36    1
    39    24    37    1
@<TRIPOS>MOLECULE
../data/bude_mols_rdkit_confs/molecule_28.pdb
 37 39 0 0 0
SMALL
GASTEIGER

@<TRIPOS>ATOM
      1  O1         1.2910   -1.0800   -2.0180 O.2     1  UNL1       -0.2751
      2  C1         0.5670   -0.8510   -1.0200 C.2     1  UNL1        0.2232
      3  C2        -0.8810   -1.3190   -0.9310 C.3     1  UNL1        0.0688
      4  C3        -1.7650   -0.2080   -0.5640 C.ar    1  UNL1        0.0780
      5  N1        -1.2960    0.9620   -0.0880 N.ar    1  UNL1       -0.1748
      6  N2        -2.0380    1.9200    0.3970 N.ar    1  UNL1       -0.2425
      7  C4        -3.3490    1.7370    0.4170 C.ar    1  UNL1        0.2725
      8  O2        -4.1450    2.5950    0.8630 O.2     1  UNL1       -0.2658
      9  C5        -3.9530    0.5610   -0.0540 C.ar    1  UNL1        0.0496
     10  C6        -5.3110    0.3960   -0.0310 C.ar    1  UNL1       -0.0487
     11  C7        -5.8690   -0.7880   -0.5210 C.ar    1  UNL1       -0.0610
     12  C8        -5.0800   -1.7850   -1.0270 C.ar    1  UNL1       -0.0611
     13  C9        -3.6870   -1.6170   -1.0520 C.ar    1  UNL1       -0.0521
     14  C10       -3.1390   -0.4380   -0.5590 C.ar    1  UNL1        0.0108
     15  N3         1.0730   -0.1360    0.0590 N.am    1  UNL1       -0.2809
     16  C11        2.4020    0.3520    0.2050 C.ar    1  UNL1        0.0991
     17  C12        3.5100   -0.3970   -0.1070 C.ar    1  UNL1       -0.0221
     18  C13        4.7990    0.0270    0.2230 C.ar    1  UNL1        0.0727
     19  C14        5.9760   -0.8340   -0.0330 C.3     1  UNL1        0.4188
     20  F1         6.0630   -1.8940    0.8840 F       1  UNL1       -0.1658
     21  F2         5.8630   -1.3630   -1.2800 F       1  UNL1       -0.1658
     22  F3         7.1090   -0.0740    0.0520 F       1  UNL1       -0.1658
     23  C15        4.9470    1.2300    0.8730 C.ar    1  UNL1        0.0167
     24  N4         3.8780    1.9700    1.1790 N.ar    1  UNL1       -0.3270
     25  C16        2.6240    1.5550    0.8650 C.ar    1  UNL1        0.2701
     26  O3         1.6200    2.2350    1.1470 O.2     1  UNL1       -0.2659
     27 H          -0.9566   -2.0871   -0.1900 H       1  UNL1        0.0423
     28 H          -1.1800   -1.6940   -1.8875 H       1  UNL1        0.0423
     29 H          -1.6358    2.7518    0.7370 H       1  UNL1        0.1921
     30 H          -5.9188    1.1403    0.3454 H       1  UNL1        0.0625
     31 H          -6.8933   -0.9125   -0.5009 H       1  UNL1        0.0618
     32 H          -5.5059   -2.6533   -1.3872 H       1  UNL1        0.0618
     33 H          -3.0775   -2.3585   -1.4312 H       1  UNL1        0.0624
     34 H           0.4491    0.0519    0.7970 H       1  UNL1        0.1550
     35 H           3.3869   -1.2963   -0.5980 H       1  UNL1        0.0644
     36 H           5.8904    1.5632    1.1260 H       1  UNL1        0.0813
     37 H           4.0015    2.8310    1.6401 H       1  UNL1        0.1684
@<TRIPOS>BOND
     1     1     2    2
     2     2     3    1
     3     2    15   am
     4     3     4    1
     5     4     5   ar
     6     4    14   ar
     7     5     6   ar
     8     6     7   ar
     9     7     8    2
    10     7     9   ar
    11     9    10   ar
    12     9    14   ar
    13    10    11   ar
    14    11    12   ar
    15    12    13   ar
    16    13    14   ar
    17    15    16    1
    18    16    17   ar
    19    16    25   ar
    20    17    18   ar
    21    18    19    1
    22    18    23   ar
    23    19    20    1
    24    19    21    1
    25    19    22    1
    26    23    24   ar
    27    24    25   ar
    28    25    26    2
    29     3    27    1
    30     3    28    1
    31     6    29    1
    32    10    30    1
    33    11    31    1
    34    12    32    1
    35    13    33    1
    36    15    34    1
    37    17    35    1
    38    23    36    1
    39    24    37    1
@<TRIPOS>MOLECULE
../data/bude_mols_rdkit_confs/molecule_28.pdb
 37 39 0 0 0
SMALL
GASTEIGER

@<TRIPOS>ATOM
      1  O1         0.9690    1.8350   -0.2740 O.2     1  UNL1       -0.2751
      2  C1         0.4300    0.8300   -0.8020 C.2     1  UNL1        0.2232
      3  C2        -0.7690    1.0300   -1.6030 C.3     1  UNL1        0.0688
      4  C3        -2.0490    1.1880   -0.9240 C.ar    1  UNL1        0.0780
      5  N1        -2.4540    2.4270   -0.5860 N.ar    1  UNL1       -0.1748
      6  N2        -3.5760    2.6880    0.0640 N.ar    1  UNL1       -0.2425
      7  C4        -4.3870    1.6710    0.4220 C.ar    1  UNL1        0.2725
      8  O2        -5.4630    1.8690    1.0330 O.2     1  UNL1       -0.2658
      9  C5        -4.0400    0.3800    0.1110 C.ar    1  UNL1        0.0496
     10  C6        -4.8390   -0.7050    0.4160 C.ar    1  UNL1       -0.0487
     11  C7        -4.4710   -1.9880    0.0540 C.ar    1  UNL1       -0.0610
     12  C8        -3.3090   -2.2380   -0.6160 C.ar    1  UNL1       -0.0611
     13  C9        -2.4950   -1.1570   -0.9320 C.ar    1  UNL1       -0.0521
     14  C10       -2.8430    0.1310   -0.5790 C.ar    1  UNL1        0.0108
     15  N3         1.0040   -0.4450   -0.6060 N.am    1  UNL1       -0.2809
     16  C11        2.2460   -0.5960    0.1200 C.ar    1  UNL1        0.0991
     17  C12        3.1850    0.4040    0.0510 C.ar    1  UNL1       -0.0221
     18  C13        4.4390    0.1950    0.6230 C.ar    1  UNL1        0.0727
     19  C14        5.4980    1.2270    0.5010 C.3     1  UNL1        0.4188
     20  F1         6.7160    0.7490    0.9600 F       1  UNL1       -0.1658
     21  F2         5.1290    2.3390    1.2180 F       1  UNL1       -0.1658
     22  F3         5.6830    1.5560   -0.8500 F       1  UNL1       -0.1658
     23  C15        4.7190   -1.0000    1.2470 C.ar    1  UNL1        0.0167
     24  N4         3.7940   -1.9960    1.3240 N.ar    1  UNL1       -0.3270
     25  C16        2.5860   -1.7680    0.7610 C.ar    1  UNL1        0.2701
     26  O3         1.6790   -2.6500    0.8020 O.2     1  UNL1       -0.2659
     27 H          -0.8592    0.1832   -2.2509 H       1  UNL1        0.0423
     28 H          -0.6089    1.9761   -2.0765 H       1  UNL1        0.0423
     29 H          -3.8173    3.6166    0.2847 H       1  UNL1        0.1921
     30 H          -5.7256   -0.5555    0.9226 H       1  UNL1        0.0625
     31 H          -5.0911   -2.7764    0.2968 H       1  UNL1        0.0618
     32 H          -3.0430   -3.1996   -0.8798 H       1  UNL1        0.0618
     33 H          -1.6123   -1.3207   -1.4410 H       1  UNL1        0.0624
     34 H           0.5530   -1.2417   -0.9682 H       1  UNL1        0.1550
     35 H           2.9654    1.2970   -0.4174 H       1  UNL1        0.0644
     36 H           5.6511   -1.1440    1.6658 H       1  UNL1        0.0813
     37 H           3.9967   -2.8489    1.7721 H       1  UNL1        0.1684
@<TRIPOS>BOND
     1     1     2    2
     2     2     3    1
     3     2    15   am
     4     3     4    1
     5     4     5   ar
     6     4    14   ar
     7     5     6   ar
     8     6     7   ar
     9     7     8    2
    10     7     9   ar
    11     9    10   ar
    12     9    14   ar
    13    10    11   ar
    14    11    12   ar
    15    12    13   ar
    16    13    14   ar
    17    15    16    1
    18    16    17   ar
    19    16    25   ar
    20    17    18   ar
    21    18    19    1
    22    18    23   ar
    23    19    20    1
    24    19    21    1
    25    19    22    1
    26    23    24   ar
    27    24    25   ar
    28    25    26    2
    29     3    27    1
    30     3    28    1
    31     6    29    1
    32    10    30    1
    33    11    31    1
    34    12    32    1
    35    13    33    1
    36    15    34    1
    37    17    35    1
    38    23    36    1
    39    24    37    1
@<TRIPOS>MOLECULE
../data/bude_mols_rdkit_confs/molecule_28.pdb
 37 39 0 0 0
SMALL
GASTEIGER

@<TRIPOS>ATOM
      1  O1         0.6580    1.2310   -0.1560 O.2     1  UNL1       -0.2751
      2  C1         0.3360    0.1010   -0.4210 C.2     1  UNL1        0.2232
      3  C2        -0.8940   -0.4840   -0.9180 C.3     1  UNL1        0.0688
      4  C3        -2.1890   -0.6560   -0.3380 C.ar    1  UNL1        0.0780
      5  N1        -2.5670   -1.9200    0.1370 N.ar    1  UNL1       -0.1748
      6  N2        -3.7480   -2.2060    0.5420 N.ar    1  UNL1       -0.2425
      7  C4        -4.7750   -1.3540    0.5600 C.ar    1  UNL1        0.2725
      8  O2        -5.9090   -1.6890    0.9740 O.2     1  UNL1       -0.2658
      9  C5        -4.5220   -0.0550    0.1020 C.ar    1  UNL1        0.0496
     10  C6        -5.5750    0.8070    0.0880 C.ar    1  UNL1       -0.0487
     11  C7        -5.3630    2.0760   -0.3780 C.ar    1  UNL1       -0.0610
     12  C8        -4.0890    2.4490   -0.8160 C.ar    1  UNL1       -0.0611
     13  C9        -3.0470    1.5540   -0.7860 C.ar    1  UNL1       -0.0521
     14  C10       -3.2180    0.2740   -0.3300 C.ar    1  UNL1        0.0108
     15  N3         1.4160   -0.9460   -0.2530 N.am    1  UNL1       -0.2809
     16  C11        2.7790   -0.6990    0.0660 C.ar    1  UNL1        0.0991
     17  C12        3.4920    0.4580   -0.0180 C.ar    1  UNL1       -0.0221
     18  C13        4.8950    0.4720    0.0920 C.ar    1  UNL1        0.0727
     19  C14        5.7250    1.7170    0.0190 C.3     1  UNL1        0.4188
     20  F1         5.6390    2.5480    1.0440 F       1  UNL1       -0.1658
     21  F2         5.3400    2.3820   -1.2310 F       1  UNL1       -0.1658
     22  F3         7.0280    1.2910   -0.2330 F       1  UNL1       -0.1658
     23  C15        5.5090   -0.7490    0.3140 C.ar    1  UNL1        0.0167
     24  N4         4.8720   -1.8920    0.4180 N.ar    1  UNL1       -0.3270
     25  C16        3.5330   -1.8600    0.2930 C.ar    1  UNL1        0.2701
     26  O3         2.9790   -2.9680    0.3760 O.2     1  UNL1       -0.2659
     27 H          -0.6060   -1.4803   -1.1811 H       1  UNL1        0.0423
     28 H          -1.1612    0.3347   -1.5530 H       1  UNL1        0.0423
     29 H          -3.9101   -3.1222    0.8638 H       1  UNL1        0.1921
     30 H          -6.5068    0.5120    0.4194 H       1  UNL1        0.0625
     31 H          -6.1401    2.7545   -0.4060 H       1  UNL1        0.0618
     32 H          -3.9294    3.4068   -1.1656 H       1  UNL1        0.0618
     33 H          -2.1153    1.8528   -1.1142 H       1  UNL1        0.0624
     34 H           1.1496   -1.8857   -0.3761 H       1  UNL1        0.1550
     35 H           2.9906    1.3477   -0.1662 H       1  UNL1        0.0644
     36 H           6.5370   -0.7613    0.4038 H       1  UNL1        0.0813
     37 H           5.3530   -2.7355    0.5803 H       1  UNL1        0.1684
@<TRIPOS>BOND
     1     1     2    2
     2     2     3    1
     3     2    15   am
     4     3     4    1
     5     4     5   ar
     6     4    14   ar
     7     5     6   ar
     8     6     7   ar
     9     7     8    2
    10     7     9   ar
    11     9    10   ar
    12     9    14   ar
    13    10    11   ar
    14    11    12   ar
    15    12    13   ar
    16    13    14   ar
    17    15    16    1
    18    16    17   ar
    19    16    25   ar
    20    17    18   ar
    21    18    19    1
    22    18    23   ar
    23    19    20    1
    24    19    21    1
    25    19    22    1
    26    23    24   ar
    27    24    25   ar
    28    25    26    2
    29     3    27    1
    30     3    28    1
    31     6    29    1
    32    10    30    1
    33    11    31    1
    34    12    32    1
    35    13    33    1
    36    15    34    1
    37    17    35    1
    38    23    36    1
    39    24    37    1
@<TRIPOS>MOLECULE
../data/bude_mols_rdkit_confs/molecule_28.pdb
 37 39 0 0 0
SMALL
GASTEIGER

@<TRIPOS>ATOM
      1  O1         0.9900    1.6960    1.4750 O.2     1  UNL1       -0.2751
      2  C1         0.3190    1.3890    0.4520 C.2     1  UNL1        0.2232
      3  C2        -1.0240    2.0330    0.3020 C.3     1  UNL1        0.0688
      4  C3        -1.9860    1.0750    0.7910 C.ar    1  UNL1        0.0780
      5  N1        -1.9770    0.7360    2.1040 N.ar    1  UNL1       -0.1748
      6  N2        -2.7300   -0.2130    2.5770 N.ar    1  UNL1       -0.2425
      7  C4        -3.5690   -0.9250    1.8310 C.ar    1  UNL1        0.2725
      8  O2        -4.2860   -1.8460    2.3020 O.2     1  UNL1       -0.2658
      9  C5        -3.6350   -0.6290    0.4600 C.ar    1  UNL1        0.0496
     10  C6        -4.4970   -1.2880   -0.3700 C.ar    1  UNL1       -0.0487
     11  C7        -4.5610   -0.9460   -1.6920 C.ar    1  UNL1       -0.0610
     12  C8        -3.7820    0.0440   -2.2370 C.ar    1  UNL1       -0.0611
     13  C9        -2.9090    0.7160   -1.4240 C.ar    1  UNL1       -0.0521
     14  C10       -2.8220    0.3970   -0.0800 C.ar    1  UNL1        0.0108
     15  N3         0.8210    0.4850   -0.4660 N.am    1  UNL1       -0.2809
     16  C11        2.0810   -0.1310   -0.4180 C.ar    1  UNL1        0.0991
     17  C12        3.1100    0.3670    0.3390 C.ar    1  UNL1       -0.0221
     18  C13        4.4040   -0.1810    0.3110 C.ar    1  UNL1        0.0727
     19  C14        5.4150    0.4990    1.1610 C.3     1  UNL1        0.4188
     20  F1         5.2920    1.8670    0.8240 F       1  UNL1       -0.1658
     21  F2         6.6590    0.0410    0.8810 F       1  UNL1       -0.1658
     22  F3         5.0290    0.4210    2.4700 F       1  UNL1       -0.1658
     23  C15        4.6450   -1.2560   -0.4960 C.ar    1  UNL1        0.0167
     24  N4         3.6510   -1.7380   -1.2270 N.ar    1  UNL1       -0.3270
     25  C16        2.3870   -1.2050   -1.2060 C.ar    1  UNL1        0.2701
     26  O3         1.5610   -1.7640   -1.9320 O.2     1  UNL1       -0.2659
     27 H          -1.2146    2.2584   -0.7265 H       1  UNL1        0.0423
     28 H          -1.0785    2.9530    0.8457 H       1  UNL1        0.0423
     29 H          -2.6758   -0.4150    3.5390 H       1  UNL1        0.1921
     30 H          -5.0977   -2.0413   -0.0003 H       1  UNL1        0.0625
     31 H          -5.2205   -1.4517   -2.3039 H       1  UNL1        0.0618
     32 H          -3.8529    0.2772   -3.2398 H       1  UNL1        0.0618
     33 H          -2.3137    1.4630   -1.8147 H       1  UNL1        0.0624
     34 H           0.2394    0.2514   -1.2252 H       1  UNL1        0.1550
     35 H           2.9273    1.1758    0.9534 H       1  UNL1        0.0644
     36 H           5.5830   -1.6844   -0.5356 H       1  UNL1        0.0813
     37 H           3.8267   -2.5115   -1.8101 H       1  UNL1        0.1684
@<TRIPOS>BOND
     1     1     2    2
     2     2     3    1
     3     2    15   am
     4     3     4    1
     5     4     5   ar
     6     4    14   ar
     7     5     6   ar
     8     6     7   ar
     9     7     8    2
    10     7     9   ar
    11     9    10   ar
    12     9    14   ar
    13    10    11   ar
    14    11    12   ar
    15    12    13   ar
    16    13    14   ar
    17    15    16    1
    18    16    17   ar
    19    16    25   ar
    20    17    18   ar
    21    18    19    1
    22    18    23   ar
    23    19    20    1
    24    19    21    1
    25    19    22    1
    26    23    24   ar
    27    24    25   ar
    28    25    26    2
    29     3    27    1
    30     3    28    1
    31     6    29    1
    32    10    30    1
    33    11    31    1
    34    12    32    1
    35    13    33    1
    36    15    34    1
    37    17    35    1
    38    23    36    1
    39    24    37    1
@<TRIPOS>MOLECULE
../data/bude_mols_rdkit_confs/molecule_28.pdb
 37 39 0 0 0
SMALL
GASTEIGER

@<TRIPOS>ATOM
      1  O1         1.0350    1.2200    1.3010 O.2     1  UNL1       -0.2751
      2  C1         0.4940    0.2500    0.5620 C.2     1  UNL1        0.2232
      3  C2        -0.8870   -0.0650    0.8860 C.3     1  UNL1        0.0688
      4  C3        -2.0310    0.3860    0.0650 C.ar    1  UNL1        0.0780
      5  N1        -1.9960    1.0210   -1.1090 N.ar    1  UNL1       -0.1748
      6  N2        -3.1340    1.2300   -1.8210 N.ar    1  UNL1       -0.2425
      7  C4        -4.3420    0.8150   -1.3830 C.ar    1  UNL1        0.2725
      8  O2        -5.4320    0.9880   -1.9950 O.2     1  UNL1       -0.2658
      9  C5        -4.4300    0.1740   -0.1760 C.ar    1  UNL1        0.0496
     10  C6        -5.6650   -0.2950    0.2870 C.ar    1  UNL1       -0.0487
     11  C7        -5.8130   -0.9770    1.4570 C.ar    1  UNL1       -0.0610
     12  C8        -4.6160   -1.1920    2.1770 C.ar    1  UNL1       -0.0611
     13  C9        -3.3720   -0.7490    1.7590 C.ar    1  UNL1       -0.0521
     14  C10       -3.2670   -0.0460    0.5540 C.ar    1  UNL1        0.0108
     15  N3         1.3310   -0.3210   -0.3650 N.am    1  UNL1       -0.2809
     16  C11        2.7270   -0.0590   -0.6020 C.ar    1  UNL1        0.0991
     17  C12        3.6600    0.3040    0.3360 C.ar    1  UNL1       -0.0221
     18  C13        5.0400    0.3250    0.0830 C.ar    1  UNL1        0.0727
     19  C14        6.0590    0.6660    1.0820 C.3     1  UNL1        0.4188
     20  F1         5.7250    1.7550    1.8150 F       1  UNL1       -0.1658
     21  F2         7.2440    1.0610    0.4530 F       1  UNL1       -0.1658
     22  F3         6.3870   -0.4320    1.8710 F       1  UNL1       -0.1658
     23  C15        5.3950   -0.0340   -1.1870 C.ar    1  UNL1        0.0167
     24  N4         4.5040   -0.3790   -2.1180 N.ar    1  UNL1       -0.3270
     25  C16        3.1780   -0.4000   -1.8740 C.ar    1  UNL1        0.2701
     26  O3         2.3850   -0.7050   -2.7820 O.2     1  UNL1       -0.2659
     27 H          -1.0561    0.3268    1.8672 H       1  UNL1        0.0423
     28 H          -0.9093   -1.1219    0.7208 H       1  UNL1        0.0423
     29 H          -3.0760    1.6993   -2.6845 H       1  UNL1        0.1921
     30 H          -6.5043   -0.1154   -0.2859 H       1  UNL1        0.0625
     31 H          -6.7300   -1.3114    1.7923 H       1  UNL1        0.0618
     32 H          -4.6722   -1.7102    3.0677 H       1  UNL1        0.0618
     33 H          -2.5326   -0.9353    2.3297 H       1  UNL1        0.0624
     34 H           0.9211   -1.0017   -0.9463 H       1  UNL1        0.1550
     35 H           3.3301    0.5754    1.2754 H       1  UNL1        0.0644
     36 H           6.3963   -0.0384   -1.4368 H       1  UNL1        0.0813
     37 H           4.8259   -0.6270   -3.0147 H       1  UNL1        0.1684
@<TRIPOS>BOND
     1     1     2    2
     2     2     3    1
     3     2    15   am
     4     3     4    1
     5     4     5   ar
     6     4    14   ar
     7     5     6   ar
     8     6     7   ar
     9     7     8    2
    10     7     9   ar
    11     9    10   ar
    12     9    14   ar
    13    10    11   ar
    14    11    12   ar
    15    12    13   ar
    16    13    14   ar
    17    15    16    1
    18    16    17   ar
    19    16    25   ar
    20    17    18   ar
    21    18    19    1
    22    18    23   ar
    23    19    20    1
    24    19    21    1
    25    19    22    1
    26    23    24   ar
    27    24    25   ar
    28    25    26    2
    29     3    27    1
    30     3    28    1
    31     6    29    1
    32    10    30    1
    33    11    31    1
    34    12    32    1
    35    13    33    1
    36    15    34    1
    37    17    35    1
    38    23    36    1
    39    24    37    1
@<TRIPOS>MOLECULE
../data/bude_mols_rdkit_confs/molecule_28.pdb
 37 39 0 0 0
SMALL
GASTEIGER

@<TRIPOS>ATOM
      1  O1         0.5270   -0.2900   -0.5740 O.2     1  UNL1       -0.2751
      2  C1         0.4390    0.4040    0.4590 C.2     1  UNL1        0.2232
      3  C2        -0.9360    0.5070    1.0780 C.3     1  UNL1        0.0688
      4  C3        -1.9470    0.2920    0.0150 C.ar    1  UNL1        0.0780
      5  N1        -1.6200    0.5830   -1.2920 N.ar    1  UNL1       -0.1748
      6  N2        -2.4830    0.4590   -2.2830 N.ar    1  UNL1       -0.2425
      7  C4        -3.7370    0.0320   -1.9980 C.ar    1  UNL1        0.2725
      8  O2        -4.5670   -0.0640   -2.9420 O.2     1  UNL1       -0.2658
      9  C5        -4.0960   -0.2730   -0.7220 C.ar    1  UNL1        0.0496
     10  C6        -5.3390   -0.7110   -0.3660 C.ar    1  UNL1       -0.0487
     11  C7        -5.7670   -1.0260    0.8940 C.ar    1  UNL1       -0.0610
     12  C8        -4.8690   -0.8960    1.9340 C.ar    1  UNL1       -0.0611
     13  C9        -3.5890   -0.4620    1.6710 C.ar    1  UNL1       -0.0521
     14  C10       -3.2090   -0.1550    0.3460 C.ar    1  UNL1        0.0108
     15  N3         1.5420    1.0500    1.0310 N.am    1  UNL1       -0.2809
     16  C11        2.8360    0.8990    0.4700 C.ar    1  UNL1        0.0991
     17  C12        3.2160   -0.3000   -0.0890 C.ar    1  UNL1       -0.0221
     18  C13        4.5240   -0.4970   -0.5600 C.ar    1  UNL1        0.0727
     19  C14        4.9670   -1.7890   -1.0740 C.3     1  UNL1        0.4188
     20  F1         4.1040   -2.8210   -0.7880 F       1  UNL1       -0.1658
     21  F2         6.2450   -2.1450   -0.6250 F       1  UNL1       -0.1658
     22  F3         5.0380   -1.7830   -2.4700 F       1  UNL1       -0.1658
     23  C15        5.3960    0.5470   -0.4300 C.ar    1  UNL1        0.0167
     24  N4         5.0500    1.7080    0.1030 N.ar    1  UNL1       -0.3270
     25  C16        3.7920    1.9380    0.5660 C.ar    1  UNL1        0.2701
     26  O3         3.4240    3.0240    1.0670 O.2     1  UNL1       -0.2659
     27 H          -1.0661    1.4777    1.5090 H       1  UNL1        0.0423
     28 H          -1.0488   -0.2295    1.8460 H       1  UNL1        0.0423
     29 H          -2.2216    0.6719   -3.2080 H       1  UNL1        0.1921
     30 H          -6.0277   -0.8153   -1.1274 H       1  UNL1        0.0625
     31 H          -6.7320   -1.3510    1.0621 H       1  UNL1        0.0618
     32 H          -5.1542   -1.1220    2.8997 H       1  UNL1        0.0618
     33 H          -2.9088   -0.3613    2.4405 H       1  UNL1        0.0624
     34 H           1.4183    1.6134    1.8288 H       1  UNL1        0.1550
     35 H           2.5287   -1.0663   -0.1631 H       1  UNL1        0.0644
     36 H           6.3657    0.4250   -0.7615 H       1  UNL1        0.0813
     37 H           5.7218    2.4249    0.1661 H       1  UNL1        0.1684
@<TRIPOS>BOND
     1     1     2    2
     2     2     3    1
     3     2    15   am
     4     3     4    1
     5     4     5   ar
     6     4    14   ar
     7     5     6   ar
     8     6     7   ar
     9     7     8    2
    10     7     9   ar
    11     9    10   ar
    12     9    14   ar
    13    10    11   ar
    14    11    12   ar
    15    12    13   ar
    16    13    14   ar
    17    15    16    1
    18    16    17   ar
    19    16    25   ar
    20    17    18   ar
    21    18    19    1
    22    18    23   ar
    23    19    20    1
    24    19    21    1
    25    19    22    1
    26    23    24   ar
    27    24    25   ar
    28    25    26    2
    29     3    27    1
    30     3    28    1
    31     6    29    1
    32    10    30    1
    33    11    31    1
    34    12    32    1
    35    13    33    1
    36    15    34    1
    37    17    35    1
    38    23    36    1
    39    24    37    1
@<TRIPOS>MOLECULE
../data/bude_mols_rdkit_confs/molecule_28.pdb
 37 39 0 0 0
SMALL
GASTEIGER

@<TRIPOS>ATOM
      1  O1         0.8910    0.5890   -1.6180 O.2     1  UNL1       -0.2751
      2  C1         0.3930    1.1140   -0.5400 C.2     1  UNL1        0.2232
      3  C2        -1.0450    1.4290   -0.6110 C.3     1  UNL1        0.0688
      4  C3        -1.8700    0.2340   -0.8170 C.ar    1  UNL1        0.0780
      5  N1        -1.3490   -0.8180   -1.4620 N.ar    1  UNL1       -0.1748
      6  N2        -1.9750   -1.9720   -1.6530 N.ar    1  UNL1       -0.2425
      7  C4        -3.2020   -2.0930   -1.1730 C.ar    1  UNL1        0.2725
      8  O2        -3.8570   -3.1720   -1.3130 O.2     1  UNL1       -0.2658
      9  C5        -3.8380   -1.0730   -0.4990 C.ar    1  UNL1        0.0496
     10  C6        -5.1030   -1.2220   -0.0160 C.ar    1  UNL1       -0.0487
     11  C7        -5.7000   -0.1690    0.6530 C.ar    1  UNL1       -0.0610
     12  C8        -5.0480    1.0190    0.8400 C.ar    1  UNL1       -0.0611
     13  C9        -3.7540    1.1360    0.3300 C.ar    1  UNL1       -0.0521
     14  C10       -3.1370    0.1350   -0.3240 C.ar    1  UNL1        0.0108
     15  N3         1.2550    1.2970    0.5420 N.am    1  UNL1       -0.2809
     16  C11        2.6150    0.9470    0.6460 C.ar    1  UNL1        0.0991
     17  C12        3.1670   -0.0640   -0.0930 C.ar    1  UNL1       -0.0221
     18  C13        4.4890   -0.4870    0.1020 C.ar    1  UNL1        0.0727
     19  C14        5.0770   -1.5940   -0.6780 C.3     1  UNL1        0.4188
     20  F1         4.3310   -1.8260   -1.8110 F       1  UNL1       -0.1658
     21  F2         6.3950   -1.3210   -0.9400 F       1  UNL1       -0.1658
     22  F3         4.9680   -2.7470    0.0870 F       1  UNL1       -0.1658
     23  C15        5.2560    0.1330    1.0520 C.ar    1  UNL1        0.0167
     24  N4         4.7110    1.1400    1.7830 N.ar    1  UNL1       -0.3270
     25  C16        3.4390    1.5410    1.5960 C.ar    1  UNL1        0.2701
     26  O3         2.9720    2.4710    2.2750 O.2     1  UNL1       -0.2659
     27 H          -1.2090    2.1042   -1.4247 H       1  UNL1        0.0423
     28 H          -1.3299    1.8648    0.3238 H       1  UNL1        0.0423
     29 H          -1.5415   -2.7128   -2.1353 H       1  UNL1        0.1921
     30 H          -5.6103   -2.1110   -0.1479 H       1  UNL1        0.0625
     31 H          -6.6582   -0.2819    1.0191 H       1  UNL1        0.0618
     32 H          -5.4973    1.8016    1.3408 H       1  UNL1        0.0618
     33 H          -3.2497    2.0270    0.4599 H       1  UNL1        0.0624
     34 H           0.8613    1.7265    1.3356 H       1  UNL1        0.1550
     35 H           2.5935   -0.5282   -0.8145 H       1  UNL1        0.0644
     36 H           6.2328   -0.1602    1.2101 H       1  UNL1        0.0813
     37 H           5.2597    1.5880    2.4667 H       1  UNL1        0.1684
@<TRIPOS>BOND
     1     1     2    2
     2     2     3    1
     3     2    15   am
     4     3     4    1
     5     4     5   ar
     6     4    14   ar
     7     5     6   ar
     8     6     7   ar
     9     7     8    2
    10     7     9   ar
    11     9    10   ar
    12     9    14   ar
    13    10    11   ar
    14    11    12   ar
    15    12    13   ar
    16    13    14   ar
    17    15    16    1
    18    16    17   ar
    19    16    25   ar
    20    17    18   ar
    21    18    19    1
    22    18    23   ar
    23    19    20    1
    24    19    21    1
    25    19    22    1
    26    23    24   ar
    27    24    25   ar
    28    25    26    2
    29     3    27    1
    30     3    28    1
    31     6    29    1
    32    10    30    1
    33    11    31    1
    34    12    32    1
    35    13    33    1
    36    15    34    1
    37    17    35    1
    38    23    36    1
    39    24    37    1
@<TRIPOS>MOLECULE
../data/bude_mols_rdkit_confs/molecule_28.pdb
 37 39 0 0 0
SMALL
GASTEIGER

@<TRIPOS>ATOM
      1  O1        -0.1630   -0.7490   -0.1590 O.2     1  UNL1       -0.2751
      2  C1        -0.0890    0.0770   -1.0760 C.2     1  UNL1        0.2232
      3  C2         1.1710    0.2390   -1.8790 C.3     1  UNL1        0.0688
      4  C3         2.2350   -0.6490   -1.3260 C.ar    1  UNL1        0.0780
      5  N1         2.5990   -1.8160   -1.8730 N.ar    1  UNL1       -0.1748
      6  N2         3.5470   -2.5890   -1.3370 N.ar    1  UNL1       -0.2425
      7  C4         4.1990   -2.2270   -0.1940 C.ar    1  UNL1        0.2725
      8  O2         5.0840   -2.9610    0.2950 O.2     1  UNL1       -0.2658
      9  C5         3.8700   -1.0350    0.4180 C.ar    1  UNL1        0.0496
     10  C6         4.5150   -0.6300    1.5790 C.ar    1  UNL1       -0.0487
     11  C7         4.1800    0.5710    2.1810 C.ar    1  UNL1       -0.0610
     12  C8         3.2050    1.3470    1.6120 C.ar    1  UNL1       -0.0611
     13  C9         2.5690    0.9310    0.4530 C.ar    1  UNL1       -0.0521
     14  C10        2.8820   -0.2670   -0.1750 C.ar    1  UNL1        0.0108
     15  N3        -1.2060    0.8890   -1.3850 N.am    1  UNL1       -0.2809
     16  C11       -2.4570    0.8690   -0.7580 C.ar    1  UNL1        0.0991
     17  C12       -2.8840   -0.0380    0.1800 C.ar    1  UNL1       -0.0221
     18  C13       -4.1650    0.0120    0.7250 C.ar    1  UNL1        0.0727
     19  C14       -4.6280   -1.0000    1.7300 C.3     1  UNL1        0.4188
     20  F1        -3.6420   -1.9430    1.9810 F       1  UNL1       -0.1658
     21  F2        -5.7440   -1.6340    1.1770 F       1  UNL1       -0.1658
     22  F3        -5.0340   -0.3370    2.8440 F       1  UNL1       -0.1658
     23  C15       -5.0540    0.9860    0.3360 C.ar    1  UNL1        0.0167
     24  N4        -4.6350    1.8760   -0.5850 N.ar    1  UNL1       -0.3270
     25  C16       -3.4090    1.8310   -1.1090 C.ar    1  UNL1        0.2701
     26  O3        -3.1210    2.7090   -1.9580 O.2     1  UNL1       -0.2659
     27 H           1.4960    1.2573   -1.8299 H       1  UNL1        0.0423
     28 H           0.9798   -0.0275   -2.8975 H       1  UNL1        0.0423
     29 H           3.7807   -3.4386   -1.7760 H       1  UNL1        0.1921
     30 H           5.2471   -1.2267    1.9949 H       1  UNL1        0.0625
     31 H           4.6568    0.8764    3.0438 H       1  UNL1        0.0618
     32 H           2.9430    2.2449    2.0481 H       1  UNL1        0.0618
     33 H           1.8376    1.5324    0.0427 H       1  UNL1        0.0624
     34 H          -1.0910    1.5360   -2.1181 H       1  UNL1        0.1550
     35 H          -2.2365   -0.7791    0.4907 H       1  UNL1        0.0644
     36 H          -6.0050    1.0336    0.7338 H       1  UNL1        0.0813
     37 H          -5.2537    2.5824   -0.8808 H       1  UNL1        0.1684
@<TRIPOS>BOND
     1     1     2    2
     2     2     3    1
     3     2    15   am
     4     3     4    1
     5     4     5   ar
     6     4    14   ar
     7     5     6   ar
     8     6     7   ar
     9     7     8    2
    10     7     9   ar
    11     9    10   ar
    12     9    14   ar
    13    10    11   ar
    14    11    12   ar
    15    12    13   ar
    16    13    14   ar
    17    15    16    1
    18    16    17   ar
    19    16    25   ar
    20    17    18   ar
    21    18    19    1
    22    18    23   ar
    23    19    20    1
    24    19    21    1
    25    19    22    1
    26    23    24   ar
    27    24    25   ar
    28    25    26    2
    29     3    27    1
    30     3    28    1
    31     6    29    1
    32    10    30    1
    33    11    31    1
    34    12    32    1
    35    13    33    1
    36    15    34    1
    37    17    35    1
    38    23    36    1
    39    24    37    1
@<TRIPOS>MOLECULE
../data/bude_mols_rdkit_confs/molecule_28.pdb
 37 39 0 0 0
SMALL
GASTEIGER

@<TRIPOS>ATOM
      1  O1         1.0120   -0.6190    1.8750 O.2     1  UNL1       -0.2751
      2  C1         0.4930   -0.9550    0.8180 C.2     1  UNL1        0.2232
      3  C2        -0.8720   -1.5620    0.7560 C.3     1  UNL1        0.0688
      4  C3        -1.8030   -0.3630    0.7920 C.ar    1  UNL1        0.0780
      5  N1        -1.3420    0.8440    1.2040 N.ar    1  UNL1       -0.1748
      6  N2        -2.1360    1.8910    1.1870 N.ar    1  UNL1       -0.2425
      7  C4        -3.4270    1.8090    0.7640 C.ar    1  UNL1        0.2725
      8  O2        -4.1720    2.8390    0.7620 O.2     1  UNL1       -0.2658
      9  C5        -3.9380    0.6050    0.3390 C.ar    1  UNL1        0.0496
     10  C6        -5.2420    0.4890   -0.1030 C.ar    1  UNL1       -0.0487
     11  C7        -5.7540   -0.7070   -0.5320 C.ar    1  UNL1       -0.0610
     12  C8        -4.9400   -1.8190   -0.5160 C.ar    1  UNL1       -0.0611
     13  C9        -3.6340   -1.6930   -0.0720 C.ar    1  UNL1       -0.0521
     14  C10       -3.1080   -0.5060    0.3540 C.ar    1  UNL1        0.0108
     15  N3         1.2180   -0.7380   -0.4010 N.am    1  UNL1       -0.2809
     16  C11        2.5100   -0.1690   -0.5000 C.ar    1  UNL1        0.0991
     17  C12        3.4080    0.0120    0.5060 C.ar    1  UNL1       -0.0221
     18  C13        4.6660    0.5580    0.2670 C.ar    1  UNL1        0.0727
     19  C14        5.6560    0.7750    1.3700 C.3     1  UNL1        0.4188
     20  F1         5.3640    1.9390    2.0360 F       1  UNL1       -0.1658
     21  F2         5.6380   -0.3440    2.2220 F       1  UNL1       -0.1658
     22  F3         6.8940    0.9030    0.7450 F       1  UNL1       -0.1658
     23  C15        4.9960    0.9170   -1.0150 C.ar    1  UNL1        0.0167
     24  N4         4.1330    0.7530   -2.0470 N.ar    1  UNL1       -0.3270
     25  C16        2.9340    0.2260   -1.7880 C.ar    1  UNL1        0.2701
     26  O3         2.1440    0.0770   -2.7720 O.2     1  UNL1       -0.2659
     27 H          -1.0428   -2.2027    1.5958 H       1  UNL1        0.0423
     28 H          -1.0151   -2.1713   -0.1118 H       1  UNL1        0.0423
     29 H          -1.7866    2.7604    1.4892 H       1  UNL1        0.1921
     30 H          -5.8463    1.3256   -0.1101 H       1  UNL1        0.0625
     31 H          -6.7300   -0.7740   -0.8607 H       1  UNL1        0.0618
     32 H          -5.2989   -2.7339   -0.8308 H       1  UNL1        0.0618
     33 H          -3.0325   -2.5315   -0.0625 H       1  UNL1        0.0624
     34 H           0.7793   -1.0079   -1.2400 H       1  UNL1        0.1550
     35 H           3.1509   -0.2615    1.4673 H       1  UNL1        0.0644
     36 H           5.9268    1.3231   -1.1987 H       1  UNL1        0.0813
     37 H           4.3833    1.0152   -2.9623 H       1  UNL1        0.1684
@<TRIPOS>BOND
     1     1     2    2
     2     2     3    1
     3     2    15   am
     4     3     4    1
     5     4     5   ar
     6     4    14   ar
     7     5     6   ar
     8     6     7   ar
     9     7     8    2
    10     7     9   ar
    11     9    10   ar
    12     9    14   ar
    13    10    11   ar
    14    11    12   ar
    15    12    13   ar
    16    13    14   ar
    17    15    16    1
    18    16    17   ar
    19    16    25   ar
    20    17    18   ar
    21    18    19    1
    22    18    23   ar
    23    19    20    1
    24    19    21    1
    25    19    22    1
    26    23    24   ar
    27    24    25   ar
    28    25    26    2
    29     3    27    1
    30     3    28    1
    31     6    29    1
    32    10    30    1
    33    11    31    1
    34    12    32    1
    35    13    33    1
    36    15    34    1
    37    17    35    1
    38    23    36    1
    39    24    37    1
@<TRIPOS>MOLECULE
../data/bude_mols_rdkit_confs/molecule_28.pdb
 37 39 0 0 0
SMALL
GASTEIGER

@<TRIPOS>ATOM
      1  O1         0.8600    0.7850    0.9520 O.2     1  UNL1       -0.2751
      2  C1         0.5310    0.1760   -0.1350 C.2     1  UNL1        0.2232
      3  C2        -0.7940    0.4350   -0.6920 C.3     1  UNL1        0.0688
      4  C3        -1.9870   -0.2450   -0.2650 C.ar    1  UNL1        0.0780
      5  N1        -1.9870   -1.5950   -0.0100 N.ar    1  UNL1       -0.1748
      6  N2        -3.1430   -2.2160    0.2940 N.ar    1  UNL1       -0.2425
      7  C4        -4.3250   -1.6130    0.3790 C.ar    1  UNL1        0.2725
      8  O2        -5.3790   -2.2400    0.6600 O.2     1  UNL1       -0.2658
      9  C5        -4.3660   -0.2490    0.1370 C.ar    1  UNL1        0.0496
     10  C6        -5.5730    0.4030    0.1760 C.ar    1  UNL1       -0.0487
     11  C7        -5.6830    1.7600   -0.0980 C.ar    1  UNL1       -0.0610
     12  C8        -4.5500    2.4590   -0.4050 C.ar    1  UNL1       -0.0611
     13  C9        -3.3300    1.7680   -0.4350 C.ar    1  UNL1       -0.0521
     14  C10       -3.1820    0.4240   -0.1800 C.ar    1  UNL1        0.0108
     15  N3         1.4730   -0.6800   -0.7320 N.am    1  UNL1       -0.2809
     16  C11        2.8330   -0.8670   -0.3560 C.ar    1  UNL1        0.0991
     17  C12        3.4920    0.2010    0.2340 C.ar    1  UNL1       -0.0221
     18  C13        4.8250    0.1390    0.4730 C.ar    1  UNL1        0.0727
     19  C14        5.4840    1.3280    1.0630 C.3     1  UNL1        0.4188
     20  F1         5.0940    2.4360    0.3140 F       1  UNL1       -0.1658
     21  F2         6.8590    1.1690    1.0520 F       1  UNL1       -0.1658
     22  F3         5.0720    1.3820    2.3850 F       1  UNL1       -0.1658
     23  C15        5.5100   -1.0060    0.1140 C.ar    1  UNL1        0.0167
     24  N4         4.8580   -2.0200   -0.4530 N.ar    1  UNL1       -0.3270
     25  C16        3.5160   -1.9950   -0.7070 C.ar    1  UNL1        0.2701
     26  O3         2.9710   -3.0070   -1.2560 O.2     1  UNL1       -0.2659
     27 H          -0.7107    0.2455   -1.7418 H       1  UNL1        0.0423
     28 H          -0.9800    1.4245   -0.3298 H       1  UNL1        0.0423
     29 H          -3.1104   -3.1849    0.4654 H       1  UNL1        0.1921
     30 H          -6.4233   -0.1304    0.4158 H       1  UNL1        0.0625
     31 H          -6.6011    2.2304   -0.0703 H       1  UNL1        0.0618
     32 H          -4.5909    3.4697   -0.6096 H       1  UNL1        0.0618
     33 H          -2.4807    2.3072   -0.6653 H       1  UNL1        0.0624
     34 H           1.1556   -1.2109   -1.4979 H       1  UNL1        0.1550
     35 H           2.9639    1.0490    0.4930 H       1  UNL1        0.0644
     36 H           6.5254   -1.0756    0.2849 H       1  UNL1        0.0813
     37 H           5.3673   -2.8253   -0.7006 H       1  UNL1        0.1684
@<TRIPOS>BOND
     1     1     2    2
     2     2     3    1
     3     2    15   am
     4     3     4    1
     5     4     5   ar
     6     4    14   ar
     7     5     6   ar
     8     6     7   ar
     9     7     8    2
    10     7     9   ar
    11     9    10   ar
    12     9    14   ar
    13    10    11   ar
    14    11    12   ar
    15    12    13   ar
    16    13    14   ar
    17    15    16    1
    18    16    17   ar
    19    16    25   ar
    20    17    18   ar
    21    18    19    1
    22    18    23   ar
    23    19    20    1
    24    19    21    1
    25    19    22    1
    26    23    24   ar
    27    24    25   ar
    28    25    26    2
    29     3    27    1
    30     3    28    1
    31     6    29    1
    32    10    30    1
    33    11    31    1
    34    12    32    1
    35    13    33    1
    36    15    34    1
    37    17    35    1
    38    23    36    1
    39    24    37    1
@<TRIPOS>MOLECULE
../data/bude_mols_rdkit_confs/molecule_28.pdb
 37 39 0 0 0
SMALL
GASTEIGER

@<TRIPOS>ATOM
      1  O1         0.7280    0.7810    0.5330 O.2     1  UNL1       -0.2751
      2  C1         0.4300   -0.3010   -0.0320 C.2     1  UNL1        0.2232
      3  C2        -0.9920   -0.6470   -0.2180 C.3     1  UNL1        0.0688
      4  C3        -1.9420    0.4240    0.1000 C.ar    1  UNL1        0.0780
      5  N1        -1.5830    1.7090    0.2960 N.ar    1  UNL1       -0.1748
      6  N2        -2.4790    2.6530    0.5250 N.ar    1  UNL1       -0.2425
      7  C4        -3.7900    2.3830    0.5740 C.ar    1  UNL1        0.2725
      8  O2        -4.6580    3.3040    0.7950 O.2     1  UNL1       -0.2658
      9  C5        -4.2380    1.1040    0.3900 C.ar    1  UNL1        0.0496
     10  C6        -5.5880    0.8350    0.4420 C.ar    1  UNL1       -0.0487
     11  C7        -6.0360   -0.4560    0.2540 C.ar    1  UNL1       -0.0610
     12  C8        -5.1440   -1.4530    0.0180 C.ar    1  UNL1       -0.0611
     13  C9        -3.7960   -1.1540   -0.0300 C.ar    1  UNL1       -0.0521
     14  C10       -3.2910    0.1150    0.1520 C.ar    1  UNL1        0.0108
     15  N3         1.4500   -1.1570   -0.4850 N.am    1  UNL1       -0.2809
     16  C11        2.8450   -0.9460   -0.3930 C.ar    1  UNL1        0.0991
     17  C12        3.4680    0.1010    0.2210 C.ar    1  UNL1       -0.0221
     18  C13        4.8440    0.2030    0.2520 C.ar    1  UNL1        0.0727
     19  C14        5.4600    1.3500    0.9330 C.3     1  UNL1        0.4188
     20  F1         6.0940    2.1040   -0.0580 F       1  UNL1       -0.1658
     21  F2         4.5160    2.1040    1.6030 F       1  UNL1       -0.1658
     22  F3         6.3480    0.8890    1.8640 F       1  UNL1       -0.1658
     23  C15        5.6330   -0.7640   -0.3490 C.ar    1  UNL1        0.0167
     24  N4         5.0430   -1.7950   -0.9550 N.ar    1  UNL1       -0.3270
     25  C16        3.7200   -1.8800   -0.9760 C.ar    1  UNL1        0.2701
     26  O3         3.1660   -2.8650   -1.5720 O.2     1  UNL1       -0.2659
     27 H          -1.2140   -1.4839    0.4107 H       1  UNL1        0.0423
     28 H          -1.1138   -0.8518   -1.2611 H       1  UNL1        0.0423
     29 H          -2.1749    3.5791    0.6632 H       1  UNL1        0.1921
     30 H          -6.2615    1.5962    0.6209 H       1  UNL1        0.0625
     31 H          -7.0461   -0.6639    0.2925 H       1  UNL1        0.0618
     32 H          -5.4693   -2.4221   -0.1237 H       1  UNL1        0.0618
     33 H          -3.1316   -1.9224   -0.2120 H       1  UNL1        0.0624
     34 H           1.1608   -1.9951   -0.9131 H       1  UNL1        0.1550
     35 H           2.8976    0.8331    0.6724 H       1  UNL1        0.0644
     36 H           6.6620   -0.6877   -0.3281 H       1  UNL1        0.0813
     37 H           5.5888   -2.4918   -1.3860 H       1  UNL1        0.1684
@<TRIPOS>BOND
     1     1     2    2
     2     2     3    1
     3     2    15   am
     4     3     4    1
     5     4     5   ar
     6     4    14   ar
     7     5     6   ar
     8     6     7   ar
     9     7     8    2
    10     7     9   ar
    11     9    10   ar
    12     9    14   ar
    13    10    11   ar
    14    11    12   ar
    15    12    13   ar
    16    13    14   ar
    17    15    16    1
    18    16    17   ar
    19    16    25   ar
    20    17    18   ar
    21    18    19    1
    22    18    23   ar
    23    19    20    1
    24    19    21    1
    25    19    22    1
    26    23    24   ar
    27    24    25   ar
    28    25    26    2
    29     3    27    1
    30     3    28    1
    31     6    29    1
    32    10    30    1
    33    11    31    1
    34    12    32    1
    35    13    33    1
    36    15    34    1
    37    17    35    1
    38    23    36    1
    39    24    37    1
@<TRIPOS>MOLECULE
../data/bude_mols_rdkit_confs/molecule_28.pdb
 37 39 0 0 0
SMALL
GASTEIGER

@<TRIPOS>ATOM
      1  O1         0.8500    1.9040    0.1320 O.2     1  UNL1       -0.2751
      2  C1         0.4270    0.8800    0.8030 C.2     1  UNL1        0.2232
      3  C2        -0.7810    0.9780    1.6080 C.3     1  UNL1        0.0688
      4  C3        -2.0740    1.2380    1.0630 C.ar    1  UNL1        0.0780
      5  N1        -2.5430    2.5050    1.0330 N.ar    1  UNL1       -0.1748
      6  N2        -3.7230    2.8520    0.5770 N.ar    1  UNL1       -0.2425
      7  C4        -4.5900    1.9420    0.0830 C.ar    1  UNL1        0.2725
      8  O2        -5.7460    2.2520   -0.3670 O.2     1  UNL1       -0.2658
      9  C5        -4.1860    0.6130    0.0720 C.ar    1  UNL1        0.0496
     10  C6        -5.0450   -0.3450   -0.4160 C.ar    1  UNL1       -0.0487
     11  C7        -4.6390   -1.6370   -0.4140 C.ar    1  UNL1       -0.0610
     12  C8        -3.3900   -2.0140    0.0580 C.ar    1  UNL1       -0.0611
     13  C9        -2.5130   -1.0730    0.5520 C.ar    1  UNL1       -0.0521
     14  C10       -2.9320    0.2670    0.5560 C.ar    1  UNL1        0.0108
     15  N3         1.2080   -0.2940    0.7020 N.am    1  UNL1       -0.2809
     16  C11        2.4120   -0.5060    0.0090 C.ar    1  UNL1        0.0991
     17  C12        3.3240    0.4320   -0.4060 C.ar    1  UNL1       -0.0221
     18  C13        4.5430    0.1370   -0.9900 C.ar    1  UNL1        0.0727
     19  C14        5.5680    1.1200   -1.4150 C.3     1  UNL1        0.4188
     20  F1         5.1820    1.9330   -2.4490 F       1  UNL1       -0.1658
     21  F2         5.7750    1.9480   -0.2700 F       1  UNL1       -0.1658
     22  F3         6.7620    0.5020   -1.6110 F       1  UNL1       -0.1658
     23  C15        4.8260   -1.2250   -1.1580 C.ar    1  UNL1        0.0167
     24  N4         3.9530   -2.1570   -0.7630 N.ar    1  UNL1       -0.3270
     25  C16        2.7920   -1.8410   -0.2020 C.ar    1  UNL1        0.2701
     26  O3         2.0370   -2.7930    0.1320 O.2     1  UNL1       -0.2659
     27 H          -0.5988    1.7613    2.3138 H       1  UNL1        0.0423
     28 H          -0.8939   -0.0338    1.9372 H       1  UNL1        0.0423
     29 H          -3.9835    3.8012    0.5954 H       1  UNL1        0.1921
     30 H          -5.9769   -0.0849   -0.7751 H       1  UNL1        0.0625
     31 H          -5.2779   -2.3629   -0.7744 H       1  UNL1        0.0618
     32 H          -3.1152   -3.0086    0.0389 H       1  UNL1        0.0618
     33 H          -1.5821   -1.3433    0.9061 H       1  UNL1        0.0624
     34 H           0.8579   -1.0759    1.1871 H       1  UNL1        0.1550
     35 H           3.0837    1.4268   -0.2731 H       1  UNL1        0.0644
     36 H           5.7178   -1.5116   -1.5912 H       1  UNL1        0.0813
     37 H           4.1778   -3.1068   -0.8920 H       1  UNL1        0.1684
@<TRIPOS>BOND
     1     1     2    2
     2     2     3    1
     3     2    15   am
     4     3     4    1
     5     4     5   ar
     6     4    14   ar
     7     5     6   ar
     8     6     7   ar
     9     7     8    2
    10     7     9   ar
    11     9    10   ar
    12     9    14   ar
    13    10    11   ar
    14    11    12   ar
    15    12    13   ar
    16    13    14   ar
    17    15    16    1
    18    16    17   ar
    19    16    25   ar
    20    17    18   ar
    21    18    19    1
    22    18    23   ar
    23    19    20    1
    24    19    21    1
    25    19    22    1
    26    23    24   ar
    27    24    25   ar
    28    25    26    2
    29     3    27    1
    30     3    28    1
    31     6    29    1
    32    10    30    1
    33    11    31    1
    34    12    32    1
    35    13    33    1
    36    15    34    1
    37    17    35    1
    38    23    36    1
    39    24    37    1
@<TRIPOS>MOLECULE
../data/bude_mols_rdkit_confs/molecule_28.pdb
 37 39 0 0 0
SMALL
GASTEIGER

@<TRIPOS>ATOM
      1  O1         0.5160    0.8660   -0.4480 O.2     1  UNL1       -0.2751
      2  C1         0.3560    0.2870    0.6840 C.2     1  UNL1        0.2232
      3  C2        -0.8680    0.6010    1.4550 C.3     1  UNL1        0.0688
      4  C3        -1.9920    1.1080    0.7040 C.ar    1  UNL1        0.0780
      5  N1        -2.1170    2.4380    0.4290 N.ar    1  UNL1       -0.1748
      6  N2        -3.1050    2.9640   -0.2440 N.ar    1  UNL1       -0.2425
      7  C4        -4.0960    2.1890   -0.7290 C.ar    1  UNL1        0.2725
      8  O2        -5.0200    2.7530   -1.3610 O.2     1  UNL1       -0.2658
      9  C5        -4.0460    0.8390   -0.5020 C.ar    1  UNL1        0.0496
     10  C6        -5.1110    0.0510   -0.9780 C.ar    1  UNL1       -0.0487
     11  C7        -5.0770   -1.3090   -0.7160 C.ar    1  UNL1       -0.0610
     12  C8        -4.0390   -1.8480   -0.0140 C.ar    1  UNL1       -0.0611
     13  C9        -2.9790   -1.0540    0.4610 C.ar    1  UNL1       -0.0521
     14  C10       -3.0000    0.2900    0.2110 C.ar    1  UNL1        0.0108
     15  N3         1.2880   -0.6130    1.2140 N.am    1  UNL1       -0.2809
     16  C11        2.5270   -0.8900    0.5590 C.ar    1  UNL1        0.0991
     17  C12        3.2140    0.0960   -0.1150 C.ar    1  UNL1       -0.0221
     18  C13        4.4850   -0.0510   -0.6090 C.ar    1  UNL1        0.0727
     19  C14        5.2100    1.0640   -1.2850 C.3     1  UNL1        0.4188
     20  F1         4.6720    1.4680   -2.4590 F       1  UNL1       -0.1658
     21  F2         6.5310    0.6870   -1.3980 F       1  UNL1       -0.1658
     22  F3         5.2260    2.1740   -0.4130 F       1  UNL1       -0.1658
     23  C15        5.1160   -1.2920   -0.4120 C.ar    1  UNL1        0.0167
     24  N4         4.4550   -2.2740    0.2440 N.ar    1  UNL1       -0.3270
     25  C16        3.2010   -2.1140    0.7310 C.ar    1  UNL1        0.2701
     26  O3         2.6330   -3.0510    1.3310 O.2     1  UNL1       -0.2659
     27 H          -0.6100    1.3355    2.1890 H       1  UNL1        0.0423
     28 H          -1.1961   -0.3346    1.8574 H       1  UNL1        0.0423
     29 H          -3.1264    3.9360   -0.3987 H       1  UNL1        0.1921
     30 H          -5.8917    0.4727   -1.5050 H       1  UNL1        0.0625
     31 H          -5.8399   -1.9166   -1.0532 H       1  UNL1        0.0618
     32 H          -4.0310   -2.8628    0.1732 H       1  UNL1        0.0618
     33 H          -2.2000   -1.4783    0.9884 H       1  UNL1        0.0624
     34 H           1.0837   -1.0682    2.0627 H       1  UNL1        0.1550
     35 H           2.7422    1.0028   -0.2572 H       1  UNL1        0.0644
     36 H           6.0728   -1.4523   -0.7638 H       1  UNL1        0.0813
     37 H           4.9041   -3.1406    0.3726 H       1  UNL1        0.1684
@<TRIPOS>BOND
     1     1     2    2
     2     2     3    1
     3     2    15   am
     4     3     4    1
     5     4     5   ar
     6     4    14   ar
     7     5     6   ar
     8     6     7   ar
     9     7     8    2
    10     7     9   ar
    11     9    10   ar
    12     9    14   ar
    13    10    11   ar
    14    11    12   ar
    15    12    13   ar
    16    13    14   ar
    17    15    16    1
    18    16    17   ar
    19    16    25   ar
    20    17    18   ar
    21    18    19    1
    22    18    23   ar
    23    19    20    1
    24    19    21    1
    25    19    22    1
    26    23    24   ar
    27    24    25   ar
    28    25    26    2
    29     3    27    1
    30     3    28    1
    31     6    29    1
    32    10    30    1
    33    11    31    1
    34    12    32    1
    35    13    33    1
    36    15    34    1
    37    17    35    1
    38    23    36    1
    39    24    37    1
@<TRIPOS>MOLECULE
../data/bude_mols_rdkit_confs/molecule_28.pdb
 37 39 0 0 0
SMALL
GASTEIGER

@<TRIPOS>ATOM
      1  O1         1.1070    2.4280   -1.0080 O.2     1  UNL1       -0.2751
      2  C1         0.2700    1.5360   -0.7400 C.2     1  UNL1        0.2232
      3  C2        -1.1970    1.9780   -0.8180 C.3     1  UNL1        0.0688
      4  C3        -1.9600    1.2560    0.2020 C.ar    1  UNL1        0.0780
      5  N1        -1.6900    1.4980    1.5250 N.ar    1  UNL1       -0.1748
      6  N2        -2.2310    0.8120    2.4950 N.ar    1  UNL1       -0.2425
      7  C4        -3.0890   -0.1800    2.2830 C.ar    1  UNL1        0.2725
      8  O2        -3.6050   -0.8400    3.2540 O.2     1  UNL1       -0.2658
      9  C5        -3.4240   -0.4970    0.9890 C.ar    1  UNL1        0.0496
     10  C6        -4.3620   -1.5050    0.7530 C.ar    1  UNL1       -0.0487
     11  C7        -4.7170   -1.7680   -0.5420 C.ar    1  UNL1       -0.0610
     12  C8        -4.1610   -1.0590   -1.5820 C.ar    1  UNL1       -0.0611
     13  C9        -3.2240   -0.0580   -1.3320 C.ar    1  UNL1       -0.0521
     14  C10       -2.8550    0.2260   -0.0370 C.ar    1  UNL1        0.0108
     15  N3         0.6700    0.2580   -0.3880 N.am    1  UNL1       -0.2809
     16  C11        2.0040   -0.1560   -0.2730 C.ar    1  UNL1        0.0991
     17  C12        3.1320    0.5990   -0.4470 C.ar    1  UNL1       -0.0221
     18  C13        4.4200    0.1110   -0.2470 C.ar    1  UNL1        0.0727
     19  C14        5.5900    1.0240   -0.4520 C.3     1  UNL1        0.4188
     20  F1         6.7380    0.3280   -0.1860 F       1  UNL1       -0.1658
     21  F2         5.4340    2.1180    0.3860 F       1  UNL1       -0.1658
     22  F3         5.5590    1.5070   -1.7630 F       1  UNL1       -0.1658
     23  C15        4.5850   -1.1890    0.1420 C.ar    1  UNL1        0.0167
     24  N4         3.4890   -1.9550    0.3190 N.ar    1  UNL1       -0.3270
     25  C16        2.2480   -1.4780    0.1270 C.ar    1  UNL1        0.2701
     26  O3         1.2820   -2.2580    0.3180 O.2     1  UNL1       -0.2659
     27 H          -1.5897    1.7532   -1.7876 H       1  UNL1        0.0423
     28 H          -1.2695    3.0321   -0.6492 H       1  UNL1        0.0423
     29 H          -1.9931    1.0394    3.4229 H       1  UNL1        0.1921
     30 H          -4.7761   -2.0370    1.5344 H       1  UNL1        0.0625
     31 H          -5.4097   -2.5066   -0.7410 H       1  UNL1        0.0618
     32 H          -4.4395   -1.2698   -2.5531 H       1  UNL1        0.0618
     33 H          -2.8080    0.4688   -2.1159 H       1  UNL1        0.0624
     34 H          -0.0326   -0.4071   -0.2055 H       1  UNL1        0.1550
     35 H           3.0218    1.5818   -0.7420 H       1  UNL1        0.0644
     36 H           5.5288   -1.5765    0.2971 H       1  UNL1        0.0813
     37 H           3.6020   -2.8925    0.5975 H       1  UNL1        0.1684
@<TRIPOS>BOND
     1     1     2    2
     2     2     3    1
     3     2    15   am
     4     3     4    1
     5     4     5   ar
     6     4    14   ar
     7     5     6   ar
     8     6     7   ar
     9     7     8    2
    10     7     9   ar
    11     9    10   ar
    12     9    14   ar
    13    10    11   ar
    14    11    12   ar
    15    12    13   ar
    16    13    14   ar
    17    15    16    1
    18    16    17   ar
    19    16    25   ar
    20    17    18   ar
    21    18    19    1
    22    18    23   ar
    23    19    20    1
    24    19    21    1
    25    19    22    1
    26    23    24   ar
    27    24    25   ar
    28    25    26    2
    29     3    27    1
    30     3    28    1
    31     6    29    1
    32    10    30    1
    33    11    31    1
    34    12    32    1
    35    13    33    1
    36    15    34    1
    37    17    35    1
    38    23    36    1
    39    24    37    1
