@<TRIPOS>MOLECULE
../data/bude_mols_rdkit_confs/molecule_11.pdb
 43 45 0 0 0
SMALL
GASTEIGER

@<TRIPOS>ATOM
      1  C1        -3.8550   -1.8900    1.3640 C.3     1  UNL1       -0.0643
      2  C2        -3.5430   -2.1550   -0.0750 C.3     1  UNL1       -0.0407
      3  C3        -2.4570   -1.2880   -0.6620 C.3     1  UNL1        0.0603
      4  C4        -1.2110   -1.5140    0.0690 C.2     1  UNL1        0.2207
      5  O1        -1.1160   -2.3970    0.9520 O.2     1  UNL1       -0.2751
      6  N1        -0.0150   -0.7500   -0.1690 N.am    1  UNL1       -0.3091
      7  C5         1.2120   -0.9820    0.5590 C.3     1  UNL1        0.0562
      8  C6         2.2290   -0.0460    0.0840 C.ar    1  UNL1        0.0863
      9  N2         1.8990    0.8250   -0.8850 N.ar    1  UNL1       -0.1737
     10  N3         2.7380    1.7130   -1.3890 N.ar    1  UNL1       -0.2424
     11  C7         4.0020    1.7910   -0.9420 C.ar    1  UNL1        0.2725
     12  O2         4.8250    2.6260   -1.4020 O.2     1  UNL1       -0.2658
     13  C8         4.3990    0.9250    0.0500 C.ar    1  UNL1        0.0496
     14  C9         5.7020    0.9640    0.5500 C.ar    1  UNL1       -0.0487
     15  C10        6.0820    0.0880    1.5450 C.ar    1  UNL1       -0.0610
     16  C11        5.1660   -0.8210    2.0360 C.ar    1  UNL1       -0.0611
     17  C12        3.8740   -0.8760    1.5560 C.ar    1  UNL1       -0.0520
     18  C13        3.5200    0.0090    0.5630 C.ar    1  UNL1        0.0118
     19  C14       -2.9400    0.1160   -0.5700 C.ar    1  UNL1       -0.0355
     20  C15       -3.4080    0.7000   -1.7210 C.ar    1  UNL1       -0.0578
     21  C16       -3.8800    1.9890   -1.7880 C.ar    1  UNL1       -0.0615
     22  C17       -3.8910    2.7560   -0.6430 C.ar    1  UNL1       -0.0617
     23  C18       -3.4250    2.1870    0.5210 C.ar    1  UNL1       -0.0615
     24  C19       -2.9490    0.8700    0.5660 C.ar    1  UNL1       -0.0578
     25 H          -4.6326   -2.5499    1.6877 H       1  UNL1        0.0230
     26 H          -4.1771   -0.8760    1.4783 H       1  UNL1        0.0230
     27 H          -2.9785   -2.0546    1.9552 H       1  UNL1        0.0230
     28 H          -4.4363   -1.9980   -0.6427 H       1  UNL1        0.0273
     29 H          -3.1809   -3.1608   -0.1222 H       1  UNL1        0.0273
     30 H          -2.2498   -1.5190   -1.6860 H       1  UNL1        0.0443
     31 H          -0.0332   -0.0426   -0.8535 H       1  UNL1        0.1491
     32 H           1.5430   -1.9861    0.3941 H       1  UNL1        0.0528
     33 H           1.0455   -0.8356    1.6058 H       1  UNL1        0.0528
     34 H           2.4335    2.3232   -2.0990 H       1  UNL1        0.1921
     35 H           6.3793    1.6469    0.1758 H       1  UNL1        0.0625
     36 H           7.0433    0.1117    1.9196 H       1  UNL1        0.0618
     37 H           5.4550   -1.4751    2.7801 H       1  UNL1        0.0618
     38 H           3.1953   -1.5581    1.9290 H       1  UNL1        0.0624
     39 H          -3.4052    0.1381   -2.5866 H       1  UNL1        0.0620
     40 H          -4.2209    2.3765   -2.6817 H       1  UNL1        0.0618
     41 H          -4.2381    3.7278   -0.6576 H       1  UNL1        0.0618
     42 H          -3.4264    2.7480    1.3872 H       1  UNL1        0.0618
     43 H          -2.6068    0.4725    1.4548 H       1  UNL1        0.0620
@<TRIPOS>BOND
     1     1     2    1
     2     2     3    1
     3     3     4    1
     4     3    19    1
     5     4     5    2
     6     4     6   am
     7     6     7    1
     8     7     8    1
     9     8     9   ar
    10     8    18   ar
    11     9    10   ar
    12    10    11   ar
    13    11    12    2
    14    11    13   ar
    15    13    14   ar
    16    13    18   ar
    17    14    15   ar
    18    15    16   ar
    19    16    17   ar
    20    17    18   ar
    21    19    20   ar
    22    19    24   ar
    23    20    21   ar
    24    21    22   ar
    25    22    23   ar
    26    23    24   ar
    27     1    25    1
    28     1    26    1
    29     1    27    1
    30     2    28    1
    31     2    29    1
    32     3    30    1
    33     6    31    1
    34     7    32    1
    35     7    33    1
    36    10    34    1
    37    14    35    1
    38    15    36    1
    39    16    37    1
    40    17    38    1
    41    20    39    1
    42    21    40    1
    43    22    41    1
    44    23    42    1
    45    24    43    1
@<TRIPOS>MOLECULE
../data/bude_mols_rdkit_confs/molecule_11.pdb
 43 45 0 0 0
SMALL
GASTEIGER

@<TRIPOS>ATOM
      1  C1        -2.4580   -1.6030   -2.0380 C.3     1  UNL1       -0.0643
      2  C2        -3.0830   -0.2500   -2.1560 C.3     1  UNL1       -0.0407
      3  C3        -2.6560    0.7430   -1.1220 C.3     1  UNL1        0.0603
      4  C4        -1.2200    0.9770   -1.1610 C.2     1  UNL1        0.2207
      5  O1        -0.7920    1.9180   -1.9280 O.2     1  UNL1       -0.2751
      6  N1        -0.2270    0.2950   -0.4530 N.am    1  UNL1       -0.3091
      7  C5         1.1540    0.6700   -0.6290 C.3     1  UNL1        0.0562
      8  C6         2.0690   -0.1570    0.1980 C.ar    1  UNL1        0.0863
      9  N2         1.6110   -1.1330    1.0030 N.ar    1  UNL1       -0.1737
     10  N3         2.4290   -1.8690    1.7390 N.ar    1  UNL1       -0.2424
     11  C7         3.7650   -1.7190    1.7560 C.ar    1  UNL1        0.2725
     12  O2         4.5160   -2.4530    2.4830 O.2     1  UNL1       -0.2658
     13  C8         4.2980   -0.7340    0.9510 C.ar    1  UNL1        0.0496
     14  C9         5.6640   -0.5390    0.9320 C.ar    1  UNL1       -0.0487
     15  C10        6.1380    0.4610    0.1080 C.ar    1  UNL1       -0.0610
     16  C11        5.2900    1.2350   -0.6650 C.ar    1  UNL1       -0.0611
     17  C12        3.9480    1.0160   -0.6220 C.ar    1  UNL1       -0.0520
     18  C13        3.4340    0.0350    0.1810 C.ar    1  UNL1        0.0118
     19  C14       -3.2520    0.5750    0.2120 C.ar    1  UNL1       -0.0355
     20  C15       -3.1240   -0.5480    0.9870 C.ar    1  UNL1       -0.0578
     21  C16       -3.7050   -0.6570    2.2500 C.ar    1  UNL1       -0.0615
     22  C17       -4.4440    0.3770    2.7790 C.ar    1  UNL1       -0.0617
     23  C18       -4.5890    1.5170    2.0200 C.ar    1  UNL1       -0.0615
     24  C19       -4.0090    1.6100    0.7740 C.ar    1  UNL1       -0.0578
     25 H          -2.8264   -2.2354   -2.8186 H       1  UNL1        0.0230
     26 H          -2.7051   -2.0284   -1.0878 H       1  UNL1        0.0230
     27 H          -1.3952   -1.5136   -2.1232 H       1  UNL1        0.0230
     28 H          -4.1439   -0.3683   -2.0827 H       1  UNL1        0.0273
     29 H          -2.7600    0.1445   -3.0967 H       1  UNL1        0.0273
     30 H          -3.1019    1.6731   -1.4068 H       1  UNL1        0.0443
     31 H          -0.4684   -0.4357    0.1611 H       1  UNL1        0.1491
     32 H           1.2706    1.6965   -0.3504 H       1  UNL1        0.0528
     33 H           1.4085    0.5143   -1.6566 H       1  UNL1        0.0528
     34 H           2.0351   -2.5688    2.3086 H       1  UNL1        0.1921
     35 H           6.3004   -1.1135    1.5065 H       1  UNL1        0.0625
     36 H           7.1541    0.6369    0.0668 H       1  UNL1        0.0618
     37 H           5.6745    1.9758   -1.2720 H       1  UNL1        0.0618
     38 H           3.3148    1.5926   -1.1978 H       1  UNL1        0.0624
     39 H          -2.5768   -1.3432    0.6220 H       1  UNL1        0.0620
     40 H          -3.5793   -1.5241    2.7952 H       1  UNL1        0.0618
     41 H          -4.8751    0.3004    3.7135 H       1  UNL1        0.0618
     42 H          -5.1377    2.3096    2.3884 H       1  UNL1        0.0618
     43 H          -4.1379    2.4788    0.2322 H       1  UNL1        0.0620
@<TRIPOS>BOND
     1     1     2    1
     2     2     3    1
     3     3     4    1
     4     3    19    1
     5     4     5    2
     6     4     6   am
     7     6     7    1
     8     7     8    1
     9     8     9   ar
    10     8    18   ar
    11     9    10   ar
    12    10    11   ar
    13    11    12    2
    14    11    13   ar
    15    13    14   ar
    16    13    18   ar
    17    14    15   ar
    18    15    16   ar
    19    16    17   ar
    20    17    18   ar
    21    19    20   ar
    22    19    24   ar
    23    20    21   ar
    24    21    22   ar
    25    22    23   ar
    26    23    24   ar
    27     1    25    1
    28     1    26    1
    29     1    27    1
    30     2    28    1
    31     2    29    1
    32     3    30    1
    33     6    31    1
    34     7    32    1
    35     7    33    1
    36    10    34    1
    37    14    35    1
    38    15    36    1
    39    16    37    1
    40    17    38    1
    41    20    39    1
    42    21    40    1
    43    22    41    1
    44    23    42    1
    45    24    43    1
@<TRIPOS>MOLECULE
../data/bude_mols_rdkit_confs/molecule_11.pdb
 43 45 0 0 0
SMALL
GASTEIGER

@<TRIPOS>ATOM
      1  C1        -3.7070   -2.2260    1.1480 C.3     1  UNL1       -0.0643
      2  C2        -2.4640   -1.3960    1.0420 C.3     1  UNL1       -0.0407
      3  C3        -2.2850   -0.7740   -0.3290 C.3     1  UNL1        0.0603
      4  C4        -1.0290    0.0110   -0.2910 C.2     1  UNL1        0.2207
      5  O1        -1.1110    1.2540   -0.4610 O.2     1  UNL1       -0.2751
      6  N1         0.2430   -0.5610   -0.0760 N.am    1  UNL1       -0.3091
      7  C5         1.3950    0.2760   -0.0570 C.3     1  UNL1        0.0562
      8  C6         2.6600   -0.4460    0.1770 C.ar    1  UNL1        0.0863
      9  N2         2.7320   -1.7760    0.3570 N.ar    1  UNL1       -0.1737
     10  N3         3.9010   -2.3580    0.5610 N.ar    1  UNL1       -0.2424
     11  C7         5.0580   -1.6650    0.6000 C.ar    1  UNL1        0.2725
     12  O2         6.1700   -2.2160    0.7950 O.2     1  UNL1       -0.2658
     13  C8         5.0590   -0.3000    0.4250 C.ar    1  UNL1        0.0496
     14  C9         6.2090    0.4500    0.4550 C.ar    1  UNL1       -0.0487
     15  C10        6.1670    1.8120    0.2760 C.ar    1  UNL1       -0.0610
     16  C11        4.9740    2.4380    0.0630 C.ar    1  UNL1       -0.0611
     17  C12        3.8250    1.6770    0.0330 C.ar    1  UNL1       -0.0520
     18  C13        3.8200    0.3020    0.2100 C.ar    1  UNL1        0.0118
     19  C14       -3.4660    0.0920   -0.5720 C.ar    1  UNL1       -0.0355
     20  C15       -4.3280   -0.1030   -1.6350 C.ar    1  UNL1       -0.0578
     21  C16       -5.4230    0.7270   -1.8310 C.ar    1  UNL1       -0.0615
     22  C17       -5.6880    1.7690   -0.9770 C.ar    1  UNL1       -0.0617
     23  C18       -4.8400    1.9730    0.0830 C.ar    1  UNL1       -0.0615
     24  C19       -3.7560    1.1450    0.2700 C.ar    1  UNL1       -0.0578
     25 H          -3.7786   -2.6368    2.1334 H       1  UNL1        0.0230
     26 H          -3.6675   -3.0205    0.4324 H       1  UNL1        0.0230
     27 H          -4.5626   -1.6134    0.9539 H       1  UNL1        0.0230
     28 H          -1.6188   -2.0192    1.2471 H       1  UNL1        0.0273
     29 H          -2.5503   -0.5969    1.7483 H       1  UNL1        0.0273
     30 H          -2.2173   -1.4959   -1.1159 H       1  UNL1        0.0443
     31 H           0.3334   -1.5319    0.0599 H       1  UNL1        0.1491
     32 H           1.2720    0.9995    0.7217 H       1  UNL1        0.0528
     33 H           1.4688    0.7216   -1.0270 H       1  UNL1        0.0528
     34 H           3.9286   -3.3337    0.6893 H       1  UNL1        0.1921
     35 H           7.1164   -0.0151    0.6140 H       1  UNL1        0.0625
     36 H           7.0397    2.3621    0.3028 H       1  UNL1        0.0618
     37 H           4.9324    3.4602   -0.0729 H       1  UNL1        0.0618
     38 H           2.9244    2.1542   -0.1292 H       1  UNL1        0.0624
     39 H          -4.1545   -0.8784   -2.2936 H       1  UNL1        0.0620
     40 H          -6.0496    0.5579   -2.6334 H       1  UNL1        0.0618
     41 H          -6.5036    2.3829   -1.1281 H       1  UNL1        0.0618
     42 H          -5.0153    2.7485    0.7410 H       1  UNL1        0.0618
     43 H          -3.1339    1.3198    1.0746 H       1  UNL1        0.0620
@<TRIPOS>BOND
     1     1     2    1
     2     2     3    1
     3     3     4    1
     4     3    19    1
     5     4     5    2
     6     4     6   am
     7     6     7    1
     8     7     8    1
     9     8     9   ar
    10     8    18   ar
    11     9    10   ar
    12    10    11   ar
    13    11    12    2
    14    11    13   ar
    15    13    14   ar
    16    13    18   ar
    17    14    15   ar
    18    15    16   ar
    19    16    17   ar
    20    17    18   ar
    21    19    20   ar
    22    19    24   ar
    23    20    21   ar
    24    21    22   ar
    25    22    23   ar
    26    23    24   ar
    27     1    25    1
    28     1    26    1
    29     1    27    1
    30     2    28    1
    31     2    29    1
    32     3    30    1
    33     6    31    1
    34     7    32    1
    35     7    33    1
    36    10    34    1
    37    14    35    1
    38    15    36    1
    39    16    37    1
    40    17    38    1
    41    20    39    1
    42    21    40    1
    43    22    41    1
    44    23    42    1
    45    24    43    1
@<TRIPOS>MOLECULE
../data/bude_mols_rdkit_confs/molecule_11.pdb
 43 45 0 0 0
SMALL
GASTEIGER

@<TRIPOS>ATOM
      1  C1        -2.5420    2.3520   -2.4330 C.3     1  UNL1       -0.0643
      2  C2        -2.9740    1.1240   -1.6730 C.3     1  UNL1       -0.0407
      3  C3        -2.6810    1.2380   -0.1970 C.3     1  UNL1        0.0603
      4  C4        -1.2400    1.4210    0.0950 C.2     1  UNL1        0.2207
      5  O1        -0.8670    2.5080    0.6520 O.2     1  UNL1       -0.2751
      6  N1        -0.2290    0.4900   -0.1920 N.am    1  UNL1       -0.3091
      7  C5         1.1360    0.7830    0.1410 C.3     1  UNL1        0.0562
      8  C6         2.0650   -0.3100   -0.2330 C.ar    1  UNL1        0.0863
      9  N2         1.6630   -1.4510   -0.8210 N.ar    1  UNL1       -0.1737
     10  N3         2.5300   -2.4150   -1.1430 N.ar    1  UNL1       -0.2424
     11  C7         3.8490   -2.3060   -0.9030 C.ar    1  UNL1        0.2725
     12  O2         4.6570   -3.2270   -1.2140 O.2     1  UNL1       -0.2658
     13  C8         4.3380   -1.1510   -0.2960 C.ar    1  UNL1        0.0496
     14  C9         5.6800   -1.0210   -0.0420 C.ar    1  UNL1       -0.0487
     15  C10        6.1390    0.1230    0.5550 C.ar    1  UNL1       -0.0610
     16  C11        5.2530    1.1290    0.8940 C.ar    1  UNL1       -0.0611
     17  C12        3.9120    0.9640    0.6250 C.ar    1  UNL1       -0.0520
     18  C13        3.4120   -0.1760    0.0230 C.ar    1  UNL1        0.0118
     19  C14       -3.2890    0.0840    0.5050 C.ar    1  UNL1       -0.0355
     20  C15       -4.0300    0.2890    1.6490 C.ar    1  UNL1       -0.0578
     21  C16       -4.6290   -0.7540    2.3350 C.ar    1  UNL1       -0.0615
     22  C17       -4.4760   -2.0330    1.8540 C.ar    1  UNL1       -0.0617
     23  C18       -3.7390   -2.2500    0.7120 C.ar    1  UNL1       -0.0615
     24  C19       -3.1360   -1.1900    0.0230 C.ar    1  UNL1       -0.0578
     25 H          -2.7684    2.2269   -3.4713 H       1  UNL1        0.0230
     26 H          -1.4883    2.4938   -2.3123 H       1  UNL1        0.0230
     27 H          -3.0626    3.2070   -2.0549 H       1  UNL1        0.0230
     28 H          -2.4527    0.2752   -2.0637 H       1  UNL1        0.0273
     29 H          -4.0321    1.0181   -1.7918 H       1  UNL1        0.0273
     30 H          -3.1314    2.1329    0.1789 H       1  UNL1        0.0443
     31 H          -0.4569   -0.3655   -0.6225 H       1  UNL1        0.1491
     32 H           1.2037    0.9431    1.1968 H       1  UNL1        0.0528
     33 H           1.4230    1.6534   -0.4113 H       1  UNL1        0.0528
     34 H           2.1915   -3.2343   -1.5712 H       1  UNL1        0.1921
     35 H           6.3355   -1.7760   -0.2976 H       1  UNL1        0.0625
     36 H           7.1459    0.2342    0.7518 H       1  UNL1        0.0618
     37 H           5.5925    1.9937    1.3435 H       1  UNL1        0.0618
     38 H           3.2568    1.7187    0.8821 H       1  UNL1        0.0624
     39 H          -4.1420    1.2509    2.0058 H       1  UNL1        0.0620
     40 H          -5.1790   -0.5751    3.1897 H       1  UNL1        0.0618
     41 H          -4.9122   -2.8275    2.3475 H       1  UNL1        0.0618
     42 H          -3.6285   -3.2125    0.3564 H       1  UNL1        0.0618
     43 H          -2.5861   -1.3651   -0.8326 H       1  UNL1        0.0620
@<TRIPOS>BOND
     1     1     2    1
     2     2     3    1
     3     3     4    1
     4     3    19    1
     5     4     5    2
     6     4     6   am
     7     6     7    1
     8     7     8    1
     9     8     9   ar
    10     8    18   ar
    11     9    10   ar
    12    10    11   ar
    13    11    12    2
    14    11    13   ar
    15    13    14   ar
    16    13    18   ar
    17    14    15   ar
    18    15    16   ar
    19    16    17   ar
    20    17    18   ar
    21    19    20   ar
    22    19    24   ar
    23    20    21   ar
    24    21    22   ar
    25    22    23   ar
    26    23    24   ar
    27     1    25    1
    28     1    26    1
    29     1    27    1
    30     2    28    1
    31     2    29    1
    32     3    30    1
    33     6    31    1
    34     7    32    1
    35     7    33    1
    36    10    34    1
    37    14    35    1
    38    15    36    1
    39    16    37    1
    40    17    38    1
    41    20    39    1
    42    21    40    1
    43    22    41    1
    44    23    42    1
    45    24    43    1
@<TRIPOS>MOLECULE
../data/bude_mols_rdkit_confs/molecule_11.pdb
 43 45 0 0 0
SMALL
GASTEIGER

@<TRIPOS>ATOM
      1  C1        -1.8290   -0.8140    2.8660 C.3     1  UNL1       -0.0643
      2  C2        -2.7460   -0.2410    1.8120 C.3     1  UNL1       -0.0407
      3  C3        -2.2700   -0.5980    0.4200 C.3     1  UNL1        0.0603
      4  C4        -0.9030   -0.0680    0.1700 C.2     1  UNL1        0.2207
      5  O1        -0.3540    0.5720    1.0940 O.2     1  UNL1       -0.2751
      6  N1        -0.2090   -0.2490   -1.0370 N.am    1  UNL1       -0.3091
      7  C5         1.1150    0.3050   -1.1830 C.3     1  UNL1        0.0562
      8  C6         2.0410   -0.2620   -0.1610 C.ar    1  UNL1        0.0863
      9  N2         1.6540   -1.1670    0.7560 N.ar    1  UNL1       -0.1737
     10  N3         2.4900   -1.6630    1.6600 N.ar    1  UNL1       -0.2424
     11  C7         3.7760   -1.2990    1.7230 C.ar    1  UNL1        0.2725
     12  O2         4.5490   -1.7930    2.6000 O.2     1  UNL1       -0.2658
     13  C8         4.2210   -0.3760    0.8060 C.ar    1  UNL1        0.0496
     14  C9         5.5440    0.0090    0.8590 C.ar    1  UNL1       -0.0487
     15  C10        6.0450    0.9290   -0.0330 C.ar    1  UNL1       -0.0610
     16  C11        5.2050    1.4710   -0.9930 C.ar    1  UNL1       -0.0611
     17  C12        3.8810    1.0650   -1.0210 C.ar    1  UNL1       -0.0520
     18  C13        3.3530    0.1540   -0.1500 C.ar    1  UNL1        0.0118
     19  C14       -3.2560   -0.0620   -0.5310 C.ar    1  UNL1       -0.0355
     20  C15       -3.9350   -0.9210   -1.3670 C.ar    1  UNL1       -0.0578
     21  C16       -4.8780   -0.4560   -2.2820 C.ar    1  UNL1       -0.0615
     22  C17       -5.1630    0.8900   -2.3810 C.ar    1  UNL1       -0.0617
     23  C18       -4.4870    1.7540   -1.5470 C.ar    1  UNL1       -0.0615
     24  C19       -3.5470    1.2810   -0.6350 C.ar    1  UNL1       -0.0578
     25 H          -2.1901   -0.5458    3.8369 H       1  UNL1        0.0230
     26 H          -0.8424   -0.4222    2.7316 H       1  UNL1        0.0230
     27 H          -1.8048   -1.8800    2.7764 H       1  UNL1        0.0230
     28 H          -2.7687    0.8242    1.9107 H       1  UNL1        0.0273
     29 H          -3.7232   -0.6536    1.9523 H       1  UNL1        0.0273
     30 H          -2.1972   -1.6592    0.3036 H       1  UNL1        0.0443
     31 H          -0.6223   -0.7496   -1.7772 H       1  UNL1        0.1491
     32 H           1.0664    1.3670   -1.0618 H       1  UNL1        0.0528
     33 H           1.4851    0.0582   -2.1562 H       1  UNL1        0.0528
     34 H           2.1515   -2.3227    2.3077 H       1  UNL1        0.1921
     35 H           6.1653   -0.3975    1.5758 H       1  UNL1        0.0625
     36 H           7.0362    1.2126    0.0123 H       1  UNL1        0.0618
     37 H           5.5585    2.1625   -1.6726 H       1  UNL1        0.0618
     38 H           3.2602    1.4722   -1.7378 H       1  UNL1        0.0624
     39 H          -3.7408   -1.9332   -1.3145 H       1  UNL1        0.0620
     40 H          -5.3691   -1.1271   -2.8931 H       1  UNL1        0.0618
     41 H          -5.8598    1.2387   -3.0577 H       1  UNL1        0.0618
     42 H          -4.6802    2.7664   -1.5991 H       1  UNL1        0.0618
     43 H          -3.0569    1.9518   -0.0227 H       1  UNL1        0.0620
@<TRIPOS>BOND
     1     1     2    1
     2     2     3    1
     3     3     4    1
     4     3    19    1
     5     4     5    2
     6     4     6   am
     7     6     7    1
     8     7     8    1
     9     8     9   ar
    10     8    18   ar
    11     9    10   ar
    12    10    11   ar
    13    11    12    2
    14    11    13   ar
    15    13    14   ar
    16    13    18   ar
    17    14    15   ar
    18    15    16   ar
    19    16    17   ar
    20    17    18   ar
    21    19    20   ar
    22    19    24   ar
    23    20    21   ar
    24    21    22   ar
    25    22    23   ar
    26    23    24   ar
    27     1    25    1
    28     1    26    1
    29     1    27    1
    30     2    28    1
    31     2    29    1
    32     3    30    1
    33     6    31    1
    34     7    32    1
    35     7    33    1
    36    10    34    1
    37    14    35    1
    38    15    36    1
    39    16    37    1
    40    17    38    1
    41    20    39    1
    42    21    40    1
    43    22    41    1
    44    23    42    1
    45    24    43    1
@<TRIPOS>MOLECULE
../data/bude_mols_rdkit_confs/molecule_11.pdb
 43 45 0 0 0
SMALL
GASTEIGER

@<TRIPOS>ATOM
      1  C1        -3.7810   -1.7160    2.0160 C.3     1  UNL1       -0.0643
      2  C2        -2.4460   -1.0360    1.8640 C.3     1  UNL1       -0.0407
      3  C3        -2.0240   -0.9270    0.4160 C.3     1  UNL1        0.0603
      4  C4        -0.7210   -0.2580    0.3360 C.2     1  UNL1        0.2207
      5  O1        -0.1300    0.1150    1.3820 O.2     1  UNL1       -0.2751
      6  N1        -0.0500    0.0090   -0.8960 N.am    1  UNL1       -0.3091
      7  C5         1.2220    0.6620   -0.9740 C.3     1  UNL1        0.0562
      8  C6         2.2940   -0.0500   -0.2720 C.ar    1  UNL1        0.0863
      9  N2         2.0730   -1.2060    0.3760 N.ar    1  UNL1       -0.1737
     10  N3         3.0540   -1.8520    1.0150 N.ar    1  UNL1       -0.2424
     11  C7         4.3220   -1.4050    1.0620 C.ar    1  UNL1        0.2725
     12  O2         5.2280   -2.0560    1.6850 O.2     1  UNL1       -0.2658
     13  C8         4.6050   -0.2230    0.4140 C.ar    1  UNL1        0.0496
     14  C9         5.9000    0.2430    0.4560 C.ar    1  UNL1       -0.0487
     15  C10        6.1820    1.4350   -0.1980 C.ar    1  UNL1       -0.0610
     16  C11        5.1740    2.0960   -0.8530 C.ar    1  UNL1       -0.0611
     17  C12        3.8800    1.6220   -0.8900 C.ar    1  UNL1       -0.0520
     18  C13        3.5820    0.4390   -0.2460 C.ar    1  UNL1        0.0118
     19  C14       -3.0930   -0.1890   -0.3040 C.ar    1  UNL1       -0.0355
     20  C15       -3.8650   -0.7810   -1.2810 C.ar    1  UNL1       -0.0578
     21  C16       -4.8650   -0.0700   -1.9470 C.ar    1  UNL1       -0.0615
     22  C17       -5.1010    1.2400   -1.6400 C.ar    1  UNL1       -0.0617
     23  C18       -4.3370    1.8450   -0.6640 C.ar    1  UNL1       -0.0615
     24  C19       -3.3440    1.1340   -0.0060 C.ar    1  UNL1       -0.0578
     25 H          -4.0375   -1.7704    3.0534 H       1  UNL1        0.0230
     26 H          -3.7261   -2.7044    1.6099 H       1  UNL1        0.0230
     27 H          -4.5279   -1.1564    1.4927 H       1  UNL1        0.0230
     28 H          -1.7090   -1.6001    2.3965 H       1  UNL1        0.0273
     29 H          -2.5349   -0.0446    2.2565 H       1  UNL1        0.0273
     30 H          -1.9035   -1.8874   -0.0400 H       1  UNL1        0.0443
     31 H          -0.4841   -0.2701   -1.7344 H       1  UNL1        0.1491
     32 H           1.1276    1.6379   -0.5454 H       1  UNL1        0.0528
     33 H           1.4937    0.6949   -2.0084 H       1  UNL1        0.0528
     34 H           2.8378   -2.6960    1.4735 H       1  UNL1        0.1921
     35 H           6.6372   -0.2768    0.9573 H       1  UNL1        0.0625
     36 H           7.1396    1.8196   -0.1914 H       1  UNL1        0.0618
     37 H           5.3926    2.9813   -1.3362 H       1  UNL1        0.0618
     38 H           3.1451    2.1444   -1.3920 H       1  UNL1        0.0624
     39 H          -3.7002   -1.7701   -1.5250 H       1  UNL1        0.0620
     40 H          -5.4287   -0.5364   -2.6748 H       1  UNL1        0.0618
     41 H          -5.8392    1.7686   -2.1306 H       1  UNL1        0.0618
     42 H          -4.5053    2.8339   -0.4214 H       1  UNL1        0.0618
     43 H          -2.7821    1.6043    0.7207 H       1  UNL1        0.0620
@<TRIPOS>BOND
     1     1     2    1
     2     2     3    1
     3     3     4    1
     4     3    19    1
     5     4     5    2
     6     4     6   am
     7     6     7    1
     8     7     8    1
     9     8     9   ar
    10     8    18   ar
    11     9    10   ar
    12    10    11   ar
    13    11    12    2
    14    11    13   ar
    15    13    14   ar
    16    13    18   ar
    17    14    15   ar
    18    15    16   ar
    19    16    17   ar
    20    17    18   ar
    21    19    20   ar
    22    19    24   ar
    23    20    21   ar
    24    21    22   ar
    25    22    23   ar
    26    23    24   ar
    27     1    25    1
    28     1    26    1
    29     1    27    1
    30     2    28    1
    31     2    29    1
    32     3    30    1
    33     6    31    1
    34     7    32    1
    35     7    33    1
    36    10    34    1
    37    14    35    1
    38    15    36    1
    39    16    37    1
    40    17    38    1
    41    20    39    1
    42    21    40    1
    43    22    41    1
    44    23    42    1
    45    24    43    1
@<TRIPOS>MOLECULE
../data/bude_mols_rdkit_confs/molecule_11.pdb
 43 45 0 0 0
SMALL
GASTEIGER

@<TRIPOS>ATOM
      1  C1        -3.5560   -3.1570    0.7300 C.3     1  UNL1       -0.0643
      2  C2        -2.2250   -2.7230    0.1580 C.3     1  UNL1       -0.0407
      3  C3        -2.3710   -1.4790   -0.6590 C.3     1  UNL1        0.0603
      4  C4        -1.0600   -1.0410   -1.2290 C.2     1  UNL1        0.2207
      5  O1        -0.8200   -1.1170   -2.4880 O.2     1  UNL1       -0.2751
      6  N1         0.0090   -0.5170   -0.4640 N.am    1  UNL1       -0.3091
      7  C5         1.2620   -0.1050   -1.0620 C.3     1  UNL1        0.0562
      8  C6         2.2000    0.4030   -0.0310 C.ar    1  UNL1        0.0863
      9  N2         1.7950    0.4180    1.2640 N.ar    1  UNL1       -0.1737
     10  N3         2.5640    0.8520    2.2390 N.ar    1  UNL1       -0.2424
     11  C7         3.8170    1.3110    1.9820 C.ar    1  UNL1        0.2725
     12  O2         4.5450    1.7230    2.9160 O.2     1  UNL1       -0.2658
     13  C8         4.3080    1.3310    0.6980 C.ar    1  UNL1        0.0496
     14  C9         5.5580    1.7770    0.3610 C.ar    1  UNL1       -0.0487
     15  C10        5.9910    1.7710   -0.9540 C.ar    1  UNL1       -0.0610
     16  C11        5.1750    1.3150   -1.9510 C.ar    1  UNL1       -0.0611
     17  C12        3.8980    0.8590   -1.6050 C.ar    1  UNL1       -0.0520
     18  C13        3.4530    0.8600   -0.3010 C.ar    1  UNL1        0.0118
     19  C14       -3.1040   -0.3920    0.0190 C.ar    1  UNL1       -0.0355
     20  C15       -2.8400   -0.0090    1.3060 C.ar    1  UNL1       -0.0578
     21  C16       -3.5550    1.0260    1.8890 C.ar    1  UNL1       -0.0615
     22  C17       -4.5370    1.7000    1.2220 C.ar    1  UNL1       -0.0617
     23  C18       -4.8220    1.3370   -0.0680 C.ar    1  UNL1       -0.0615
     24  C19       -4.1140    0.3110   -0.6480 C.ar    1  UNL1       -0.0578
     25 H          -3.4224   -4.0471    1.3085 H       1  UNL1        0.0230
     26 H          -4.2415   -3.3502   -0.0686 H       1  UNL1        0.0230
     27 H          -3.9459   -2.3807    1.3547 H       1  UNL1        0.0230
     28 H          -1.8391   -3.5051   -0.4619 H       1  UNL1        0.0273
     29 H          -1.5560   -2.5213    0.9683 H       1  UNL1        0.0273
     30 H          -3.0017   -1.7397   -1.4831 H       1  UNL1        0.0443
     31 H          -0.1032   -0.4293    0.5102 H       1  UNL1        0.1491
     32 H           1.0717    0.6701   -1.7746 H       1  UNL1        0.0528
     33 H           1.7069   -0.9523   -1.5406 H       1  UNL1        0.0528
     34 H           2.2283    0.8442    3.1645 H       1  UNL1        0.1921
     35 H           6.1887    2.1239    1.1006 H       1  UNL1        0.0625
     36 H           6.9372    2.1135   -1.1831 H       1  UNL1        0.0618
     37 H           5.4922    1.3072   -2.9330 H       1  UNL1        0.0618
     38 H           3.2715    0.5119   -2.3480 H       1  UNL1        0.0624
     39 H          -2.1051   -0.4929    1.8452 H       1  UNL1        0.0620
     40 H          -3.3373    1.2962    2.8609 H       1  UNL1        0.0618
     41 H          -5.0539    2.4669    1.6799 H       1  UNL1        0.0618
     42 H          -5.5592    1.8277   -0.5979 H       1  UNL1        0.0618
     43 H          -4.3376    0.0469   -1.6203 H       1  UNL1        0.0620
@<TRIPOS>BOND
     1     1     2    1
     2     2     3    1
     3     3     4    1
     4     3    19    1
     5     4     5    2
     6     4     6   am
     7     6     7    1
     8     7     8    1
     9     8     9   ar
    10     8    18   ar
    11     9    10   ar
    12    10    11   ar
    13    11    12    2
    14    11    13   ar
    15    13    14   ar
    16    13    18   ar
    17    14    15   ar
    18    15    16   ar
    19    16    17   ar
    20    17    18   ar
    21    19    20   ar
    22    19    24   ar
    23    20    21   ar
    24    21    22   ar
    25    22    23   ar
    26    23    24   ar
    27     1    25    1
    28     1    26    1
    29     1    27    1
    30     2    28    1
    31     2    29    1
    32     3    30    1
    33     6    31    1
    34     7    32    1
    35     7    33    1
    36    10    34    1
    37    14    35    1
    38    15    36    1
    39    16    37    1
    40    17    38    1
    41    20    39    1
    42    21    40    1
    43    22    41    1
    44    23    42    1
    45    24    43    1
@<TRIPOS>MOLECULE
../data/bude_mols_rdkit_confs/molecule_11.pdb
 43 45 0 0 0
SMALL
GASTEIGER

@<TRIPOS>ATOM
      1  C1        -4.2870    2.4810    0.3240 C.3     1  UNL1       -0.0643
      2  C2        -2.7910    2.3540    0.3210 C.3     1  UNL1       -0.0407
      3  C3        -2.2980    1.0410    0.8150 C.3     1  UNL1        0.0603
      4  C4        -0.8010    1.0490    0.7600 C.2     1  UNL1        0.2207
      5  O1        -0.0930    0.9500    1.8080 O.2     1  UNL1       -0.2751
      6  N1        -0.0990    1.1680   -0.4640 N.am    1  UNL1       -0.3091
      7  C5         1.3500    1.1710   -0.4740 C.3     1  UNL1        0.0562
      8  C6         1.9110   -0.0770    0.0910 C.ar    1  UNL1        0.0863
      9  N2         1.1740   -1.0960    0.5580 N.ar    1  UNL1       -0.1737
     10  N3         1.7270   -2.1900    1.0520 N.ar    1  UNL1       -0.2424
     11  C7         3.0630   -2.3290    1.1080 C.ar    1  UNL1        0.2725
     12  O2         3.6110   -3.3520    1.5700 O.2     1  UNL1       -0.2658
     13  C8         3.8710   -1.3080    0.6400 C.ar    1  UNL1        0.0496
     14  C9         5.2510   -1.3970    0.6720 C.ar    1  UNL1       -0.0487
     15  C10        6.0240   -0.3580    0.1960 C.ar    1  UNL1       -0.0610
     16  C11        5.4610    0.7800   -0.3180 C.ar    1  UNL1       -0.0611
     17  C12        4.0870    0.8690   -0.3510 C.ar    1  UNL1       -0.0520
     18  C13        3.2920   -0.1790    0.1300 C.ar    1  UNL1        0.0118
     19  C14       -2.7580   -0.1340    0.0400 C.ar    1  UNL1       -0.0355
     20  C15       -2.9890   -0.1400   -1.3080 C.ar    1  UNL1       -0.0578
     21  C16       -3.4020   -1.2760   -1.9540 C.ar    1  UNL1       -0.0615
     22  C17       -3.5910   -2.4350   -1.2400 C.ar    1  UNL1       -0.0617
     23  C18       -3.3620   -2.4430    0.1280 C.ar    1  UNL1       -0.0615
     24  C19       -2.9470   -1.3060    0.7810 C.ar    1  UNL1       -0.0578
     25 H          -4.5636    3.4474   -0.0426 H       1  UNL1        0.0230
     26 H          -4.6532    2.3599    1.3221 H       1  UNL1        0.0230
     27 H          -4.7103    1.7262   -0.3053 H       1  UNL1        0.0230
     28 H          -2.3861    3.1228    0.9455 H       1  UNL1        0.0273
     29 H          -2.4733    2.4427   -0.6969 H       1  UNL1        0.0273
     30 H          -2.6937    0.9359    1.8036 H       1  UNL1        0.0443
     31 H          -0.5963    1.2488   -1.3098 H       1  UNL1        0.1491
     32 H           1.6978    1.9999    0.1064 H       1  UNL1        0.0528
     33 H           1.6734    1.2480   -1.4911 H       1  UNL1        0.0528
     34 H           1.1507   -2.9156    1.3847 H       1  UNL1        0.1921
     35 H           5.7035   -2.2427    1.0529 H       1  UNL1        0.0625
     36 H           7.0522   -0.4403    0.2280 H       1  UNL1        0.0618
     37 H           6.0505    1.5500   -0.6710 H       1  UNL1        0.0618
     38 H           3.6389    1.7161   -0.7339 H       1  UNL1        0.0624
     39 H          -2.8496    0.7276   -1.8492 H       1  UNL1        0.0620
     40 H          -3.5703   -1.2612   -2.9721 H       1  UNL1        0.0618
     41 H          -3.9016   -3.2947   -1.7191 H       1  UNL1        0.0618
     42 H          -3.5050   -3.3138    0.6630 H       1  UNL1        0.0618
     43 H          -2.7780   -1.3169    1.7990 H       1  UNL1        0.0620
@<TRIPOS>BOND
     1     1     2    1
     2     2     3    1
     3     3     4    1
     4     3    19    1
     5     4     5    2
     6     4     6   am
     7     6     7    1
     8     7     8    1
     9     8     9   ar
    10     8    18   ar
    11     9    10   ar
    12    10    11   ar
    13    11    12    2
    14    11    13   ar
    15    13    14   ar
    16    13    18   ar
    17    14    15   ar
    18    15    16   ar
    19    16    17   ar
    20    17    18   ar
    21    19    20   ar
    22    19    24   ar
    23    20    21   ar
    24    21    22   ar
    25    22    23   ar
    26    23    24   ar
    27     1    25    1
    28     1    26    1
    29     1    27    1
    30     2    28    1
    31     2    29    1
    32     3    30    1
    33     6    31    1
    34     7    32    1
    35     7    33    1
    36    10    34    1
    37    14    35    1
    38    15    36    1
    39    16    37    1
    40    17    38    1
    41    20    39    1
    42    21    40    1
    43    22    41    1
    44    23    42    1
    45    24    43    1
@<TRIPOS>MOLECULE
../data/bude_mols_rdkit_confs/molecule_11.pdb
 43 45 0 0 0
SMALL
GASTEIGER

@<TRIPOS>ATOM
      1  C1        -3.1620   -2.4180   -0.4830 C.3     1  UNL1       -0.0643
      2  C2        -2.8040   -1.5260   -1.6210 C.3     1  UNL1       -0.0407
      3  C3        -2.0840   -0.2560   -1.2260 C.3     1  UNL1        0.0603
      4  C4        -0.8080   -0.5110   -0.5280 C.2     1  UNL1        0.2207
      5  O1        -0.5850    0.0420    0.5840 O.2     1  UNL1       -0.2751
      6  N1         0.1730   -1.3560   -1.0670 N.am    1  UNL1       -0.3091
      7  C5         1.4430   -1.6380   -0.4200 C.3     1  UNL1        0.0562
      8  C6         2.1540   -0.3390   -0.2620 C.ar    1  UNL1        0.0863
      9  N2         1.6470    0.8300   -0.6680 N.ar    1  UNL1       -0.1737
     10  N3         2.2510    1.9920   -0.5430 N.ar    1  UNL1       -0.2424
     11  C7         3.4660    2.0490    0.0310 C.ar    1  UNL1        0.2725
     12  O2         4.0880    3.1490    0.1740 O.2     1  UNL1       -0.2658
     13  C8         4.0790    0.9100    0.4840 C.ar    1  UNL1        0.0496
     14  C9         5.3230    0.9560    1.0720 C.ar    1  UNL1       -0.0487
     15  C10        5.9110   -0.2120    1.5170 C.ar    1  UNL1       -0.0610
     16  C11        5.2280   -1.3980    1.3570 C.ar    1  UNL1       -0.0611
     17  C12        3.9790   -1.4520    0.7670 C.ar    1  UNL1       -0.0520
     18  C13        3.4160   -0.2900    0.3350 C.ar    1  UNL1        0.0118
     19  C14       -2.9460    0.6690   -0.4490 C.ar    1  UNL1       -0.0355
     20  C15       -3.3530    0.4250    0.8480 C.ar    1  UNL1       -0.0578
     21  C16       -4.1550    1.2860    1.5650 C.ar    1  UNL1       -0.0615
     22  C17       -4.5840    2.4570    0.9770 C.ar    1  UNL1       -0.0617
     23  C18       -4.2070    2.7390   -0.3000 C.ar    1  UNL1       -0.0615
     24  C19       -3.4150    1.8740   -0.9880 C.ar    1  UNL1       -0.0578
     25 H          -3.6648   -3.2862   -0.8549 H       1  UNL1        0.0230
     26 H          -3.8064   -1.8942    0.1917 H       1  UNL1        0.0230
     27 H          -2.2719   -2.7143    0.0316 H       1  UNL1        0.0230
     28 H          -3.7062   -1.2538   -2.1278 H       1  UNL1        0.0273
     29 H          -2.1258   -2.0790   -2.2368 H       1  UNL1        0.0273
     30 H          -1.8424    0.2317   -2.1473 H       1  UNL1        0.0443
     31 H          -0.0097   -1.7833   -1.9349 H       1  UNL1        0.1491
     32 H           2.0234   -2.3025   -1.0254 H       1  UNL1        0.0528
     33 H           1.2900   -2.1056    0.5302 H       1  UNL1        0.0528
     34 H           1.8168    2.8139   -0.8673 H       1  UNL1        0.1921
     35 H           5.8133    1.8577    1.1797 H       1  UNL1        0.0625
     36 H           6.8428   -0.1967    1.9603 H       1  UNL1        0.0618
     37 H           5.6626   -2.2735    1.6881 H       1  UNL1        0.0618
     38 H           3.4852   -2.3514    0.6566 H       1  UNL1        0.0624
     39 H          -3.0405   -0.4467    1.3034 H       1  UNL1        0.0620
     40 H          -4.4318    1.0567    2.5324 H       1  UNL1        0.0618
     41 H          -5.1849    3.1131    1.4999 H       1  UNL1        0.0618
     42 H          -4.5236    3.6131   -0.7480 H       1  UNL1        0.0618
     43 H          -3.1463    2.1170   -1.9543 H       1  UNL1        0.0620
@<TRIPOS>BOND
     1     1     2    1
     2     2     3    1
     3     3     4    1
     4     3    19    1
     5     4     5    2
     6     4     6   am
     7     6     7    1
     8     7     8    1
     9     8     9   ar
    10     8    18   ar
    11     9    10   ar
    12    10    11   ar
    13    11    12    2
    14    11    13   ar
    15    13    14   ar
    16    13    18   ar
    17    14    15   ar
    18    15    16   ar
    19    16    17   ar
    20    17    18   ar
    21    19    20   ar
    22    19    24   ar
    23    20    21   ar
    24    21    22   ar
    25    22    23   ar
    26    23    24   ar
    27     1    25    1
    28     1    26    1
    29     1    27    1
    30     2    28    1
    31     2    29    1
    32     3    30    1
    33     6    31    1
    34     7    32    1
    35     7    33    1
    36    10    34    1
    37    14    35    1
    38    15    36    1
    39    16    37    1
    40    17    38    1
    41    20    39    1
    42    21    40    1
    43    22    41    1
    44    23    42    1
    45    24    43    1
@<TRIPOS>MOLECULE
../data/bude_mols_rdkit_confs/molecule_11.pdb
 43 45 0 0 0
SMALL
GASTEIGER

@<TRIPOS>ATOM
      1  C1        -3.3440   -2.7220    0.4090 C.3     1  UNL1       -0.0643
      2  C2        -2.0530   -1.9780    0.5260 C.3     1  UNL1       -0.0407
      3  C3        -1.8390   -1.0970   -0.6840 C.3     1  UNL1        0.0603
      4  C4        -0.5550   -0.3540   -0.5760 C.2     1  UNL1        0.2207
      5  O1         0.4030   -0.5880   -1.3890 O.2     1  UNL1       -0.2751
      6  N1        -0.3150    0.6380    0.4080 N.am    1  UNL1       -0.3091
      7  C5         0.9770    1.3140    0.4350 C.3     1  UNL1        0.0562
      8  C6         2.0710    0.3550    0.6530 C.ar    1  UNL1        0.0863
      9  N2         1.8730   -0.9670    0.8070 N.ar    1  UNL1       -0.1737
     10  N3         2.8640   -1.8240    1.0050 N.ar    1  UNL1       -0.2424
     11  C7         4.1490   -1.4410    1.0670 C.ar    1  UNL1        0.2725
     12  O2         5.0760   -2.2650    1.2540 O.2     1  UNL1       -0.2658
     13  C8         4.4290   -0.0820    0.9150 C.ar    1  UNL1        0.0496
     14  C9         5.7450    0.3310    0.9760 C.ar    1  UNL1       -0.0487
     15  C10        6.0210    1.6740    0.8250 C.ar    1  UNL1       -0.0610
     16  C11        4.9990    2.5700    0.6200 C.ar    1  UNL1       -0.0611
     17  C12        3.6940    2.1360    0.5630 C.ar    1  UNL1       -0.0520
     18  C13        3.3780    0.7910    0.7100 C.ar    1  UNL1        0.0118
     19  C14       -2.9960   -0.2140   -0.9500 C.ar    1  UNL1       -0.0355
     20  C15       -3.4670   -0.0570   -2.2280 C.ar    1  UNL1       -0.0578
     21  C16       -4.5400    0.7430   -2.5070 C.ar    1  UNL1       -0.0615
     22  C17       -5.1750    1.4170   -1.4770 C.ar    1  UNL1       -0.0617
     23  C18       -4.7190    1.2720   -0.1990 C.ar    1  UNL1       -0.0615
     24  C19       -3.6260    0.4520    0.0560 C.ar    1  UNL1       -0.0578
     25 H          -3.4793   -3.3395    1.2723 H       1  UNL1        0.0230
     26 H          -3.3245   -3.3345   -0.4681 H       1  UNL1        0.0230
     27 H          -4.1525   -2.0246    0.3391 H       1  UNL1        0.0230
     28 H          -1.2478   -2.6789    0.5983 H       1  UNL1        0.0273
     29 H          -2.0857   -1.3629    1.4009 H       1  UNL1        0.0273
     30 H          -1.7644   -1.7325   -1.5416 H       1  UNL1        0.0443
     31 H          -1.0116    0.8676    1.0647 H       1  UNL1        0.1491
     32 H           0.9790    2.0328    1.2276 H       1  UNL1        0.0528
     33 H           1.1291    1.7950   -0.5086 H       1  UNL1        0.0528
     34 H           2.6494   -2.7790    1.1108 H       1  UNL1        0.1921
     35 H           6.5050   -0.3497    1.1311 H       1  UNL1        0.0625
     36 H           6.9970    2.0068    0.8660 H       1  UNL1        0.0618
     37 H           5.2113    3.5737    0.5082 H       1  UNL1        0.0618
     38 H           2.9377    2.8210    0.4085 H       1  UNL1        0.0624
     39 H          -2.9988   -0.5563   -3.0004 H       1  UNL1        0.0620
     40 H          -4.8744    0.8440   -3.4781 H       1  UNL1        0.0618
     41 H          -5.9861    2.0237   -1.6744 H       1  UNL1        0.0618
     42 H          -5.1844    1.7698    0.5760 H       1  UNL1        0.0618
     43 H          -3.2863    0.3464    1.0248 H       1  UNL1        0.0620
@<TRIPOS>BOND
     1     1     2    1
     2     2     3    1
     3     3     4    1
     4     3    19    1
     5     4     5    2
     6     4     6   am
     7     6     7    1
     8     7     8    1
     9     8     9   ar
    10     8    18   ar
    11     9    10   ar
    12    10    11   ar
    13    11    12    2
    14    11    13   ar
    15    13    14   ar
    16    13    18   ar
    17    14    15   ar
    18    15    16   ar
    19    16    17   ar
    20    17    18   ar
    21    19    20   ar
    22    19    24   ar
    23    20    21   ar
    24    21    22   ar
    25    22    23   ar
    26    23    24   ar
    27     1    25    1
    28     1    26    1
    29     1    27    1
    30     2    28    1
    31     2    29    1
    32     3    30    1
    33     6    31    1
    34     7    32    1
    35     7    33    1
    36    10    34    1
    37    14    35    1
    38    15    36    1
    39    16    37    1
    40    17    38    1
    41    20    39    1
    42    21    40    1
    43    22    41    1
    44    23    42    1
    45    24    43    1
@<TRIPOS>MOLECULE
../data/bude_mols_rdkit_confs/molecule_11.pdb
 43 45 0 0 0
SMALL
GASTEIGER

@<TRIPOS>ATOM
      1  C1         2.0220   -0.8020   -2.4400 C.3     1  UNL1       -0.0643
      2  C2         2.8020   -1.6330   -1.4950 C.3     1  UNL1       -0.0407
      3  C3         2.6320   -1.2840   -0.0230 C.3     1  UNL1        0.0603
      4  C4         1.2720   -1.3980    0.4710 C.2     1  UNL1        0.2207
      5  O1         1.0340   -2.2750    1.3870 O.2     1  UNL1       -0.2751
      6  N1         0.1320   -0.6660    0.0780 N.am    1  UNL1       -0.3091
      7  C5        -1.1800   -0.8930    0.6750 C.3     1  UNL1        0.0562
      8  C6        -2.1720   -0.0230    0.1060 C.ar    1  UNL1        0.0863
      9  N2        -1.8250    0.8550   -0.8530 N.ar    1  UNL1       -0.1737
     10  N3        -2.7200    1.6770   -1.4020 N.ar    1  UNL1       -0.2424
     11  C7        -4.0140    1.6890   -1.0460 C.ar    1  UNL1        0.2725
     12  O2        -4.8540    2.4710   -1.5720 O.2     1  UNL1       -0.2658
     13  C8        -4.4330    0.8140   -0.0700 C.ar    1  UNL1        0.0496
     14  C9        -5.7450    0.7670    0.3490 C.ar    1  UNL1       -0.0487
     15  C10       -6.1270   -0.1280    1.3330 C.ar    1  UNL1       -0.0610
     16  C11       -5.2160   -0.9770    1.9050 C.ar    1  UNL1       -0.0611
     17  C12       -3.9010   -0.9210    1.4760 C.ar    1  UNL1       -0.0520
     18  C13       -3.4950   -0.0340    0.4920 C.ar    1  UNL1        0.0118
     19  C14        3.3720   -0.0630    0.2900 C.ar    1  UNL1       -0.0355
     20  C15        2.9260    1.2270    0.1520 C.ar    1  UNL1       -0.0578
     21  C16        3.7270    2.3180    0.4710 C.ar    1  UNL1       -0.0615
     22  C17        5.0130    2.1450    0.9440 C.ar    1  UNL1       -0.0617
     23  C18        5.4820    0.8740    1.0910 C.ar    1  UNL1       -0.0615
     24  C19        4.6820   -0.1970    0.7730 C.ar    1  UNL1       -0.0578
     25 H           2.2117   -1.1274   -3.4415 H       1  UNL1        0.0230
     26 H           2.3119    0.2228   -2.3369 H       1  UNL1        0.0230
     27 H           0.9786   -0.9009   -2.2245 H       1  UNL1        0.0230
     28 H           3.8380   -1.5284   -1.7413 H       1  UNL1        0.0273
     29 H           2.4316   -2.6308   -1.6056 H       1  UNL1        0.0273
     30 H           3.0922   -2.0450    0.5719 H       1  UNL1        0.0443
     31 H           0.2246    0.0203   -0.6218 H       1  UNL1        0.1491
     32 H          -1.1198   -0.7110    1.7277 H       1  UNL1        0.0528
     33 H          -1.4681   -1.9050    0.4808 H       1  UNL1        0.0528
     34 H          -2.4182    2.3029   -2.0994 H       1  UNL1        0.1921
     35 H          -6.4434    1.3999   -0.0714 H       1  UNL1        0.0625
     36 H          -7.1118   -0.1564    1.6403 H       1  UNL1        0.0618
     37 H          -5.5037   -1.6430    2.6389 H       1  UNL1        0.0618
     38 H          -3.2060   -1.5555    1.8995 H       1  UNL1        0.0624
     39 H           1.9694    1.3923   -0.1983 H       1  UNL1        0.0620
     40 H           3.3543    3.2730    0.3523 H       1  UNL1        0.0618
     41 H           5.6037    2.9576    1.1801 H       1  UNL1        0.0618
     42 H           6.4396    0.7156    1.4417 H       1  UNL1        0.0618
     43 H           5.0642   -1.1477    0.8957 H       1  UNL1        0.0620
@<TRIPOS>BOND
     1     1     2    1
     2     2     3    1
     3     3     4    1
     4     3    19    1
     5     4     5    2
     6     4     6   am
     7     6     7    1
     8     7     8    1
     9     8     9   ar
    10     8    18   ar
    11     9    10   ar
    12    10    11   ar
    13    11    12    2
    14    11    13   ar
    15    13    14   ar
    16    13    18   ar
    17    14    15   ar
    18    15    16   ar
    19    16    17   ar
    20    17    18   ar
    21    19    20   ar
    22    19    24   ar
    23    20    21   ar
    24    21    22   ar
    25    22    23   ar
    26    23    24   ar
    27     1    25    1
    28     1    26    1
    29     1    27    1
    30     2    28    1
    31     2    29    1
    32     3    30    1
    33     6    31    1
    34     7    32    1
    35     7    33    1
    36    10    34    1
    37    14    35    1
    38    15    36    1
    39    16    37    1
    40    17    38    1
    41    20    39    1
    42    21    40    1
    43    22    41    1
    44    23    42    1
    45    24    43    1
@<TRIPOS>MOLECULE
../data/bude_mols_rdkit_confs/molecule_11.pdb
 43 45 0 0 0
SMALL
GASTEIGER

@<TRIPOS>ATOM
      1  C1        -2.6860   -2.1660   -0.1780 C.3     1  UNL1       -0.0643
      2  C2        -2.3840   -1.4360   -1.4410 C.3     1  UNL1       -0.0407
      3  C3        -2.2270    0.0470   -1.3040 C.3     1  UNL1        0.0603
      4  C4        -1.1240    0.4200   -0.3790 C.2     1  UNL1        0.2207
      5  O1        -1.3160    1.2110    0.6000 O.2     1  UNL1       -0.2751
      6  N1         0.2000   -0.0730   -0.5230 N.am    1  UNL1       -0.3091
      7  C5         1.2680    0.3090    0.4010 C.3     1  UNL1        0.0562
      8  C6         2.5450   -0.3200    0.0580 C.ar    1  UNL1        0.0863
      9  N2         2.6880   -1.1480   -0.9890 N.ar    1  UNL1       -0.1737
     10  N3         3.8350   -1.7210   -1.3070 N.ar    1  UNL1       -0.2424
     11  C7         4.9400   -1.5000   -0.5840 C.ar    1  UNL1        0.2725
     12  O2         6.0540   -2.0390   -0.8700 O.2     1  UNL1       -0.2658
     13  C8         4.8980   -0.6560    0.5230 C.ar    1  UNL1        0.0496
     14  C9         6.0270   -0.4180    1.2780 C.ar    1  UNL1       -0.0487
     15  C10        5.9260    0.4230    2.3580 C.ar    1  UNL1       -0.0610
     16  C11        4.7070    0.9940    2.6450 C.ar    1  UNL1       -0.0611
     17  C12        3.5950    0.7510    1.8900 C.ar    1  UNL1       -0.0520
     18  C13        3.6700   -0.0800    0.8140 C.ar    1  UNL1        0.0118
     19  C14       -3.4650    0.7280   -0.8780 C.ar    1  UNL1       -0.0355
     20  C15       -3.9550    0.6290    0.4070 C.ar    1  UNL1       -0.0578
     21  C16       -5.1240    1.2730    0.7860 C.ar    1  UNL1       -0.0615
     22  C17       -5.8220    2.0380   -0.1420 C.ar    1  UNL1       -0.0617
     23  C18       -5.3300    2.1350   -1.4220 C.ar    1  UNL1       -0.0615
     24  C19       -4.1700    1.4890   -1.7800 C.ar    1  UNL1       -0.0578
     25 H          -2.7783   -3.2119   -0.3839 H       1  UNL1        0.0230
     26 H          -3.6037   -1.8013    0.2341 H       1  UNL1        0.0230
     27 H          -1.8930   -2.0091    0.5230 H       1  UNL1        0.0230
     28 H          -3.1828   -1.6213   -2.1284 H       1  UNL1        0.0273
     29 H          -1.4359   -1.8033   -1.7743 H       1  UNL1        0.0273
     30 H          -1.9837    0.3818   -2.2907 H       1  UNL1        0.0443
     31 H           0.4045   -0.6880   -1.2641 H       1  UNL1        0.1491
     32 H           0.9912    0.0104    1.3905 H       1  UNL1        0.0528
     33 H           1.3955    1.3694    0.3366 H       1  UNL1        0.0528
     34 H           3.8779   -2.3196   -2.0874 H       1  UNL1        0.1921
     35 H           6.9269   -0.8618    1.0367 H       1  UNL1        0.0625
     36 H           6.7505    0.6239    2.9452 H       1  UNL1        0.0618
     37 H           4.6307    1.6263    3.4570 H       1  UNL1        0.0618
     38 H           2.6975    1.1975    2.1352 H       1  UNL1        0.0624
     39 H          -3.4415    0.0641    1.1014 H       1  UNL1        0.0620
     40 H          -5.4741    1.1846    1.7528 H       1  UNL1        0.0618
     41 H          -6.6926    2.5236    0.1250 H       1  UNL1        0.0618
     42 H          -5.8369    2.6989   -2.1221 H       1  UNL1        0.0618
     43 H          -3.8210    1.5775   -2.7472 H       1  UNL1        0.0620
@<TRIPOS>BOND
     1     1     2    1
     2     2     3    1
     3     3     4    1
     4     3    19    1
     5     4     5    2
     6     4     6   am
     7     6     7    1
     8     7     8    1
     9     8     9   ar
    10     8    18   ar
    11     9    10   ar
    12    10    11   ar
    13    11    12    2
    14    11    13   ar
    15    13    14   ar
    16    13    18   ar
    17    14    15   ar
    18    15    16   ar
    19    16    17   ar
    20    17    18   ar
    21    19    20   ar
    22    19    24   ar
    23    20    21   ar
    24    21    22   ar
    25    22    23   ar
    26    23    24   ar
    27     1    25    1
    28     1    26    1
    29     1    27    1
    30     2    28    1
    31     2    29    1
    32     3    30    1
    33     6    31    1
    34     7    32    1
    35     7    33    1
    36    10    34    1
    37    14    35    1
    38    15    36    1
    39    16    37    1
    40    17    38    1
    41    20    39    1
    42    21    40    1
    43    22    41    1
    44    23    42    1
    45    24    43    1
@<TRIPOS>MOLECULE
../data/bude_mols_rdkit_confs/molecule_11.pdb
 43 45 0 0 0
SMALL
GASTEIGER

@<TRIPOS>ATOM
      1  C1         1.7330    2.5380   -0.2490 C.3     1  UNL1       -0.0643
      2  C2         2.2380    1.7050   -1.3830 C.3     1  UNL1       -0.0407
      3  C3         2.2560    0.2200   -1.1080 C.3     1  UNL1        0.0603
      4  C4         0.9170   -0.3400   -0.7990 C.2     1  UNL1        0.2207
      5  O1         0.7650   -0.9830    0.2640 O.2     1  UNL1       -0.2751
      6  N1        -0.2000   -0.1800   -1.6550 N.am    1  UNL1       -0.3091
      7  C5        -1.5160   -0.7160   -1.3920 C.3     1  UNL1        0.0562
      8  C6        -2.1180   -0.2090   -0.1320 C.ar    1  UNL1        0.0863
      9  N2        -1.5030    0.6620    0.6880 N.ar    1  UNL1       -0.1737
     10  N3        -2.0410    1.1110    1.8090 N.ar    1  UNL1       -0.2424
     11  C7        -3.2610    0.7380    2.2390 C.ar    1  UNL1        0.2725
     12  O2        -3.7360    1.1970    3.3250 O.2     1  UNL1       -0.2658
     13  C8        -3.9520   -0.1550    1.4480 C.ar    1  UNL1        0.0496
     14  C9        -5.2040   -0.5550    1.8630 C.ar    1  UNL1       -0.0487
     15  C10       -5.8850   -1.4570    1.0500 C.ar    1  UNL1       -0.0610
     16  C11       -5.3200   -1.9210   -0.1160 C.ar    1  UNL1       -0.0611
     17  C12       -4.0640   -1.5160   -0.5270 C.ar    1  UNL1       -0.0520
     18  C13       -3.3780   -0.6150    0.2800 C.ar    1  UNL1        0.0118
     19  C14        3.2490   -0.0740   -0.0760 C.ar    1  UNL1       -0.0355
     20  C15        3.0780    0.1480    1.2730 C.ar    1  UNL1       -0.0578
     21  C16        4.0850   -0.1590    2.1770 C.ar    1  UNL1       -0.0615
     22  C17        5.2860   -0.6930    1.7720 C.ar    1  UNL1       -0.0617
     23  C18        5.4760   -0.9240    0.4190 C.ar    1  UNL1       -0.0615
     24  C19        4.4690   -0.6150   -0.4680 C.ar    1  UNL1       -0.0578
     25 H           1.7542    3.5708   -0.5280 H       1  UNL1        0.0230
     26 H           2.3548    2.3874    0.6087 H       1  UNL1        0.0230
     27 H           0.7286    2.2520   -0.0160 H       1  UNL1        0.0230
     28 H           3.2370    2.0157   -1.6073 H       1  UNL1        0.0273
     29 H           1.5608    1.8561   -2.1975 H       1  UNL1        0.0273
     30 H           2.5455   -0.2784   -2.0095 H       1  UNL1        0.0443
     31 H          -0.0710    0.3315   -2.4863 H       1  UNL1        0.1491
     32 H          -1.4418   -1.7815   -1.3278 H       1  UNL1        0.0528
     33 H          -2.1510   -0.4027   -2.1942 H       1  UNL1        0.0528
     34 H          -1.5255    1.7478    2.3548 H       1  UNL1        0.1921
     35 H          -5.6190   -0.2010    2.7391 H       1  UNL1        0.0625
     36 H          -6.8252   -1.7817    1.3251 H       1  UNL1        0.0618
     37 H          -5.8481   -2.5891   -0.6989 H       1  UNL1        0.0618
     38 H          -3.6494   -1.8703   -1.4031 H       1  UNL1        0.0624
     39 H           2.1902    0.5475    1.6153 H       1  UNL1        0.0620
     40 H           3.9283    0.0184    3.1815 H       1  UNL1        0.0618
     41 H           6.0252   -0.9155    2.4569 H       1  UNL1        0.0618
     42 H           6.3644   -1.3241    0.0790 H       1  UNL1        0.0618
     43 H           4.6271   -0.7934   -1.4721 H       1  UNL1        0.0620
@<TRIPOS>BOND
     1     1     2    1
     2     2     3    1
     3     3     4    1
     4     3    19    1
     5     4     5    2
     6     4     6   am
     7     6     7    1
     8     7     8    1
     9     8     9   ar
    10     8    18   ar
    11     9    10   ar
    12    10    11   ar
    13    11    12    2
    14    11    13   ar
    15    13    14   ar
    16    13    18   ar
    17    14    15   ar
    18    15    16   ar
    19    16    17   ar
    20    17    18   ar
    21    19    20   ar
    22    19    24   ar
    23    20    21   ar
    24    21    22   ar
    25    22    23   ar
    26    23    24   ar
    27     1    25    1
    28     1    26    1
    29     1    27    1
    30     2    28    1
    31     2    29    1
    32     3    30    1
    33     6    31    1
    34     7    32    1
    35     7    33    1
    36    10    34    1
    37    14    35    1
    38    15    36    1
    39    16    37    1
    40    17    38    1
    41    20    39    1
    42    21    40    1
    43    22    41    1
    44    23    42    1
    45    24    43    1
@<TRIPOS>MOLECULE
../data/bude_mols_rdkit_confs/molecule_11.pdb
 43 45 0 0 0
SMALL
GASTEIGER

@<TRIPOS>ATOM
      1  C1         2.4900   -2.4010   -0.4770 C.3     1  UNL1       -0.0643
      2  C2         2.3040   -1.9640    0.9790 C.3     1  UNL1       -0.0407
      3  C3         2.1890   -0.4670    1.0270 C.3     1  UNL1        0.0603
      4  C4         1.0600    0.0250    0.2360 C.2     1  UNL1        0.2207
      5  O1         1.1470    1.1480   -0.3750 O.2     1  UNL1       -0.2751
      6  N1        -0.2140   -0.6490    0.0640 N.am    1  UNL1       -0.3091
      7  C5        -1.1340    0.1710   -0.6680 C.3     1  UNL1        0.0562
      8  C6        -2.4810   -0.2580   -0.9450 C.ar    1  UNL1        0.0863
      9  N2        -2.9040   -0.9620   -1.9680 N.ar    1  UNL1       -0.1737
     10  N3        -4.2020   -1.1150   -2.2790 N.ar    1  UNL1       -0.2424
     11  C7        -5.2080   -0.5610   -1.5740 C.ar    1  UNL1        0.2725
     12  O2        -6.4080   -0.6840   -1.8430 O.2     1  UNL1       -0.2658
     13  C8        -4.8120    0.2070   -0.4610 C.ar    1  UNL1        0.0496
     14  C9        -5.8020    0.7070    0.3650 C.ar    1  UNL1       -0.0487
     15  C10       -5.3950    1.3690    1.5230 C.ar    1  UNL1       -0.0610
     16  C11       -4.0670    1.5190    1.8350 C.ar    1  UNL1       -0.0611
     17  C12       -3.0910    1.0080    0.9910 C.ar    1  UNL1       -0.0520
     18  C13       -3.4890    0.3570   -0.1540 C.ar    1  UNL1        0.0118
     19  C14        3.4090    0.2650    0.5690 C.ar    1  UNL1       -0.0355
     20  C15        4.5570   -0.4220    0.2440 C.ar    1  UNL1       -0.0578
     21  C16        5.6440    0.2120   -0.2840 C.ar    1  UNL1       -0.0615
     22  C17        5.5790    1.5680   -0.4950 C.ar    1  UNL1       -0.0617
     23  C18        4.4440    2.2750   -0.1760 C.ar    1  UNL1       -0.0615
     24  C19        3.3300    1.6200    0.3680 C.ar    1  UNL1       -0.0578
     25 H           2.5730   -3.4668   -0.5217 H       1  UNL1        0.0230
     26 H           3.3800   -1.9571   -0.8717 H       1  UNL1        0.0230
     27 H           1.6470   -2.0844   -1.0549 H       1  UNL1        0.0230
     28 H           3.1467   -2.2782    1.5587 H       1  UNL1        0.0273
     29 H           1.4174   -2.4087    1.3805 H       1  UNL1        0.0273
     30 H           2.0451   -0.2649    2.0678 H       1  UNL1        0.0443
     31 H          -0.4190   -1.5496    0.4048 H       1  UNL1        0.1491
     32 H          -0.6779    0.3598   -1.6174 H       1  UNL1        0.0528
     33 H          -1.2909    0.9893    0.0033 H       1  UNL1        0.0528
     34 H          -4.4308   -1.6618   -3.0651 H       1  UNL1        0.1921
     35 H          -6.8015    0.5948    0.1338 H       1  UNL1        0.0625
     36 H          -6.1091    1.7551    2.1602 H       1  UNL1        0.0618
     37 H          -3.7936    2.0128    2.6990 H       1  UNL1        0.0618
     38 H          -2.0896    1.1139    1.2170 H       1  UNL1        0.0624
     39 H           4.5964   -1.4408    0.4035 H       1  UNL1        0.0620
     40 H           6.4982   -0.3168   -0.5202 H       1  UNL1        0.0618
     41 H           6.3912    2.0613   -0.8974 H       1  UNL1        0.0618
     42 H           4.4117    3.2937   -0.3379 H       1  UNL1        0.0618
     43 H           2.4739    2.1428    0.6106 H       1  UNL1        0.0620
@<TRIPOS>BOND
     1     1     2    1
     2     2     3    1
     3     3     4    1
     4     3    19    1
     5     4     5    2
     6     4     6   am
     7     6     7    1
     8     7     8    1
     9     8     9   ar
    10     8    18   ar
    11     9    10   ar
    12    10    11   ar
    13    11    12    2
    14    11    13   ar
    15    13    14   ar
    16    13    18   ar
    17    14    15   ar
    18    15    16   ar
    19    16    17   ar
    20    17    18   ar
    21    19    20   ar
    22    19    24   ar
    23    20    21   ar
    24    21    22   ar
    25    22    23   ar
    26    23    24   ar
    27     1    25    1
    28     1    26    1
    29     1    27    1
    30     2    28    1
    31     2    29    1
    32     3    30    1
    33     6    31    1
    34     7    32    1
    35     7    33    1
    36    10    34    1
    37    14    35    1
    38    15    36    1
    39    16    37    1
    40    17    38    1
    41    20    39    1
    42    21    40    1
    43    22    41    1
    44    23    42    1
    45    24    43    1
@<TRIPOS>MOLECULE
../data/bude_mols_rdkit_confs/molecule_11.pdb
 43 45 0 0 0
SMALL
GASTEIGER

@<TRIPOS>ATOM
      1  C1        -2.3670   -1.2280    1.7690 C.3     1  UNL1       -0.0643
      2  C2        -2.0450   -1.8250    0.3870 C.3     1  UNL1       -0.0407
      3  C3        -2.0680   -0.6890   -0.6240 C.3     1  UNL1        0.0603
      4  C4        -1.0690    0.3730   -0.3350 C.2     1  UNL1        0.2207
      5  O1        -1.2500    1.5900   -0.6990 O.2     1  UNL1       -0.2751
      6  N1         0.1190    0.1180    0.3400 N.am    1  UNL1       -0.3091
      7  C5         1.2810    0.7150    0.7890 C.3     1  UNL1        0.0562
      8  C6         2.4450    1.0590   -0.0070 C.ar    1  UNL1        0.0863
      9  N2         2.6760    2.1080   -0.7760 N.ar    1  UNL1       -0.1737
     10  N3         3.9340    2.4500   -1.1630 N.ar    1  UNL1       -0.2424
     11  C7         5.0150    1.7690   -0.8170 C.ar    1  UNL1        0.2725
     12  O2         6.1990    2.0570   -1.1510 O.2     1  UNL1       -0.2658
     13  C8         4.8580    0.6400   -0.0220 C.ar    1  UNL1        0.0496
     14  C9         5.9380   -0.1610    0.3400 C.ar    1  UNL1       -0.0487
     15  C10        5.7570   -1.3260    1.1080 C.ar    1  UNL1       -0.0610
     16  C11        4.4880   -1.6350    1.4750 C.ar    1  UNL1       -0.0611
     17  C12        3.4070   -0.8640    1.1380 C.ar    1  UNL1       -0.0520
     18  C13        3.5940    0.2990    0.3760 C.ar    1  UNL1        0.0118
     19  C14       -3.4360   -0.1430   -0.5390 C.ar    1  UNL1       -0.0355
     20  C15       -4.4990   -0.7440   -1.1920 C.ar    1  UNL1       -0.0578
     21  C16       -5.7970   -0.2720   -1.0910 C.ar    1  UNL1       -0.0615
     22  C17       -6.0790    0.8540   -0.3110 C.ar    1  UNL1       -0.0617
     23  C18       -5.0100    1.4330    0.3190 C.ar    1  UNL1       -0.0615
     24  C19       -3.7240    0.9600    0.2220 C.ar    1  UNL1       -0.0578
     25 H          -2.3583   -2.0054    2.5042 H       1  UNL1        0.0230
     26 H          -3.3345   -0.7718    1.7438 H       1  UNL1        0.0230
     27 H          -1.6320   -0.4919    2.0196 H       1  UNL1        0.0230
     28 H          -2.7788   -2.5591    0.1271 H       1  UNL1        0.0273
     29 H          -1.0853   -2.2981    0.3974 H       1  UNL1        0.0273
     30 H          -1.8127   -1.0481   -1.5991 H       1  UNL1        0.0443
     31 H           0.1399   -0.8344    0.5884 H       1  UNL1        0.1491
     32 H           1.6506    0.0621    1.5519 H       1  UNL1        0.0528
     33 H           0.9072    1.6983    0.9849 H       1  UNL1        0.0528
     34 H           4.0467    3.2464   -1.7307 H       1  UNL1        0.1921
     35 H           6.8888    0.1048    0.0394 H       1  UNL1        0.0625
     36 H           6.5556   -1.9201    1.3805 H       1  UNL1        0.0618
     37 H           4.3300   -2.4888    2.0328 H       1  UNL1        0.0618
     38 H           2.4598   -1.1373    1.4431 H       1  UNL1        0.0624
     39 H          -4.3170   -1.5751   -1.7761 H       1  UNL1        0.0620
     40 H          -6.5593   -0.7531   -1.5934 H       1  UNL1        0.0618
     41 H          -7.0366    1.2267   -0.2158 H       1  UNL1        0.0618
     42 H          -5.1797    2.2702    0.8981 H       1  UNL1        0.0618
     43 H          -2.9648    1.4414    0.7287 H       1  UNL1        0.0620
@<TRIPOS>BOND
     1     1     2    1
     2     2     3    1
     3     3     4    1
     4     3    19    1
     5     4     5    2
     6     4     6   am
     7     6     7    1
     8     7     8    1
     9     8     9   ar
    10     8    18   ar
    11     9    10   ar
    12    10    11   ar
    13    11    12    2
    14    11    13   ar
    15    13    14   ar
    16    13    18   ar
    17    14    15   ar
    18    15    16   ar
    19    16    17   ar
    20    17    18   ar
    21    19    20   ar
    22    19    24   ar
    23    20    21   ar
    24    21    22   ar
    25    22    23   ar
    26    23    24   ar
    27     1    25    1
    28     1    26    1
    29     1    27    1
    30     2    28    1
    31     2    29    1
    32     3    30    1
    33     6    31    1
    34     7    32    1
    35     7    33    1
    36    10    34    1
    37    14    35    1
    38    15    36    1
    39    16    37    1
    40    17    38    1
    41    20    39    1
    42    21    40    1
    43    22    41    1
    44    23    42    1
    45    24    43    1
@<TRIPOS>MOLECULE
../data/bude_mols_rdkit_confs/molecule_11.pdb
 43 45 0 0 0
SMALL
GASTEIGER

@<TRIPOS>ATOM
      1  C1        -3.3660    1.9520   -0.5030 C.3     1  UNL1       -0.0643
      2  C2        -2.7940    1.3690    0.7400 C.3     1  UNL1       -0.0407
      3  C3        -2.0650    0.0700    0.5150 C.3     1  UNL1        0.0603
      4  C4        -0.9310    0.2010   -0.3470 C.2     1  UNL1        0.2207
      5  O1        -0.8390   -0.4300   -1.4230 O.2     1  UNL1       -0.2751
      6  N1         0.2060    1.0590   -0.0160 N.am    1  UNL1       -0.3091
      7  C5         1.2930    0.9770   -0.9410 C.3     1  UNL1        0.0562
      8  C6         2.6100    1.4220   -0.4930 C.ar    1  UNL1        0.0863
      9  N2         3.1310    2.6140   -0.6410 N.ar    1  UNL1       -0.1737
     10  N3         4.4120    2.9640   -0.4510 N.ar    1  UNL1       -0.2424
     11  C7         5.2760    1.9760   -0.0540 C.ar    1  UNL1        0.2725
     12  O2         6.5080    2.2590    0.1270 O.2     1  UNL1       -0.2658
     13  C8         4.7860    0.7030    0.1260 C.ar    1  UNL1        0.0496
     14  C9         5.6090   -0.3220    0.6220 C.ar    1  UNL1       -0.0487
     15  C10        5.0880   -1.5650    0.8790 C.ar    1  UNL1       -0.0610
     16  C11        3.7310   -1.8120    0.6480 C.ar    1  UNL1       -0.0611
     17  C12        2.9050   -0.8370    0.1650 C.ar    1  UNL1       -0.0520
     18  C13        3.4940    0.3930   -0.0770 C.ar    1  UNL1        0.0118
     19  C14       -3.0410   -0.9890    0.1420 C.ar    1  UNL1       -0.0355
     20  C15       -3.3470   -1.3640   -1.1320 C.ar    1  UNL1       -0.0578
     21  C16       -4.3010   -2.3740   -1.3790 C.ar    1  UNL1       -0.0615
     22  C17       -4.9380   -2.9860   -0.3390 C.ar    1  UNL1       -0.0617
     23  C18       -4.6450   -2.6200    0.9560 C.ar    1  UNL1       -0.0615
     24  C19       -3.7020   -1.6320    1.1890 C.ar    1  UNL1       -0.0578
     25 H          -3.8667    2.8684   -0.2696 H       1  UNL1        0.0230
     26 H          -4.0639    1.2634   -0.9316 H       1  UNL1        0.0230
     27 H          -2.5789    2.1436   -1.2021 H       1  UNL1        0.0230
     28 H          -3.5925    1.1940    1.4304 H       1  UNL1        0.0273
     29 H          -2.0785    2.0702    1.1159 H       1  UNL1        0.0273
     30 H          -1.6127   -0.2453    1.4320 H       1  UNL1        0.0443
     31 H           0.2216    1.6433    0.7762 H       1  UNL1        0.1491
     32 H           1.0305    1.5680   -1.7935 H       1  UNL1        0.0528
     33 H           1.4121   -0.0710   -1.1210 H       1  UNL1        0.0528
     34 H           4.7182    3.8892   -0.5904 H       1  UNL1        0.1921
     35 H           6.6100   -0.1391    0.7938 H       1  UNL1        0.0625
     36 H           5.6960   -2.3158    1.2419 H       1  UNL1        0.0618
     37 H           3.3462   -2.7488    0.8462 H       1  UNL1        0.0618
     38 H           1.9021   -1.0068   -0.0092 H       1  UNL1        0.0624
     39 H          -2.8751   -0.9036   -1.9260 H       1  UNL1        0.0620
     40 H          -4.5176   -2.6507   -2.3493 H       1  UNL1        0.0618
     41 H          -5.6380   -3.7218   -0.5225 H       1  UNL1        0.0618
     42 H          -5.1242   -3.0782    1.7468 H       1  UNL1        0.0618
     43 H          -3.4830   -1.3650    2.1615 H       1  UNL1        0.0620
@<TRIPOS>BOND
     1     1     2    1
     2     2     3    1
     3     3     4    1
     4     3    19    1
     5     4     5    2
     6     4     6   am
     7     6     7    1
     8     7     8    1
     9     8     9   ar
    10     8    18   ar
    11     9    10   ar
    12    10    11   ar
    13    11    12    2
    14    11    13   ar
    15    13    14   ar
    16    13    18   ar
    17    14    15   ar
    18    15    16   ar
    19    16    17   ar
    20    17    18   ar
    21    19    20   ar
    22    19    24   ar
    23    20    21   ar
    24    21    22   ar
    25    22    23   ar
    26    23    24   ar
    27     1    25    1
    28     1    26    1
    29     1    27    1
    30     2    28    1
    31     2    29    1
    32     3    30    1
    33     6    31    1
    34     7    32    1
    35     7    33    1
    36    10    34    1
    37    14    35    1
    38    15    36    1
    39    16    37    1
    40    17    38    1
    41    20    39    1
    42    21    40    1
    43    22    41    1
    44    23    42    1
    45    24    43    1
@<TRIPOS>MOLECULE
../data/bude_mols_rdkit_confs/molecule_11.pdb
 43 45 0 0 0
SMALL
GASTEIGER

@<TRIPOS>ATOM
      1  C1        -2.4880   -2.3470   -1.0880 C.3     1  UNL1       -0.0643
      2  C2        -2.0060   -0.9700   -1.4190 C.3     1  UNL1       -0.0407
      3  C3        -1.8740   -0.0170   -0.3110 C.3     1  UNL1        0.0603
      4  C4        -0.9150   -0.3500    0.7630 C.2     1  UNL1        0.2207
      5  O1        -1.2420   -0.3470    1.9680 O.2     1  UNL1       -0.2751
      6  N1         0.4200   -0.6650    0.4280 N.am    1  UNL1       -0.3091
      7  C5         1.3650   -0.8740    1.4930 C.3     1  UNL1        0.0562
      8  C6         2.7610   -0.9990    1.0070 C.ar    1  UNL1        0.0863
      9  N2         3.5270   -2.0540    1.2530 N.ar    1  UNL1       -0.1737
     10  N3         4.8340   -2.1310    0.9520 N.ar    1  UNL1       -0.2424
     11  C7         5.4240   -1.0860    0.3640 C.ar    1  UNL1        0.2725
     12  O2         6.6350   -1.1320    0.0780 O.2     1  UNL1       -0.2658
     13  C8         4.6550    0.0300    0.0840 C.ar    1  UNL1        0.0496
     14  C9         5.2060    1.0970   -0.6200 C.ar    1  UNL1       -0.0487
     15  C10        4.4670    2.1980   -1.0160 C.ar    1  UNL1       -0.0610
     16  C11        3.1350    2.2320   -0.6850 C.ar    1  UNL1       -0.0611
     17  C12        2.5190    1.1970    0.0310 C.ar    1  UNL1       -0.0520
     18  C13        3.3120    0.1140    0.3910 C.ar    1  UNL1        0.0118
     19  C14       -3.1710    0.5330    0.2200 C.ar    1  UNL1       -0.0355
     20  C15       -3.4890    1.8690    0.0720 C.ar    1  UNL1       -0.0578
     21  C16       -4.7000    2.3690    0.5830 C.ar    1  UNL1       -0.0615
     22  C17       -5.6020    1.5680    1.2420 C.ar    1  UNL1       -0.0617
     23  C18       -5.2690    0.2240    1.3830 C.ar    1  UNL1       -0.0615
     24  C19       -4.0770   -0.2740    0.8780 C.ar    1  UNL1       -0.0578
     25 H          -2.5368   -2.9324   -1.9823 H       1  UNL1        0.0230
     26 H          -3.4610   -2.2879   -0.6468 H       1  UNL1        0.0230
     27 H          -1.8109   -2.8057   -0.3981 H       1  UNL1        0.0230
     28 H          -2.6931   -0.5500   -2.1236 H       1  UNL1        0.0273
     29 H          -1.0088   -1.1085   -1.7815 H       1  UNL1        0.0273
     30 H          -1.3948    0.7900   -0.8248 H       1  UNL1        0.0443
     31 H           0.6982   -0.7400   -0.5134 H       1  UNL1        0.1491
     32 H           1.1020   -1.7720    2.0120 H       1  UNL1        0.0528
     33 H           1.3225   -0.0181    2.1338 H       1  UNL1        0.0528
     34 H           5.3486   -2.9438    1.1611 H       1  UNL1        0.1921
     35 H           6.2099    1.0656   -0.8571 H       1  UNL1        0.0625
     36 H           4.9037    2.9698   -1.5439 H       1  UNL1        0.0618
     37 H           2.5694    3.0458   -0.9727 H       1  UNL1        0.0618
     38 H           1.5184    1.2372    0.2805 H       1  UNL1        0.0624
     39 H          -2.8358    2.5023   -0.4151 H       1  UNL1        0.0620
     40 H          -4.9186    3.3699    0.4592 H       1  UNL1        0.0618
     41 H          -6.4866    1.9463    1.6155 H       1  UNL1        0.0618
     42 H          -5.9191   -0.4119    1.8709 H       1  UNL1        0.0618
     43 H          -3.8615   -1.2761    0.9976 H       1  UNL1        0.0620
@<TRIPOS>BOND
     1     1     2    1
     2     2     3    1
     3     3     4    1
     4     3    19    1
     5     4     5    2
     6     4     6   am
     7     6     7    1
     8     7     8    1
     9     8     9   ar
    10     8    18   ar
    11     9    10   ar
    12    10    11   ar
    13    11    12    2
    14    11    13   ar
    15    13    14   ar
    16    13    18   ar
    17    14    15   ar
    18    15    16   ar
    19    16    17   ar
    20    17    18   ar
    21    19    20   ar
    22    19    24   ar
    23    20    21   ar
    24    21    22   ar
    25    22    23   ar
    26    23    24   ar
    27     1    25    1
    28     1    26    1
    29     1    27    1
    30     2    28    1
    31     2    29    1
    32     3    30    1
    33     6    31    1
    34     7    32    1
    35     7    33    1
    36    10    34    1
    37    14    35    1
    38    15    36    1
    39    16    37    1
    40    17    38    1
    41    20    39    1
    42    21    40    1
    43    22    41    1
    44    23    42    1
    45    24    43    1
@<TRIPOS>MOLECULE
../data/bude_mols_rdkit_confs/molecule_11.pdb
 43 45 0 0 0
SMALL
GASTEIGER

@<TRIPOS>ATOM
      1  C1        -3.6650   -2.3350   -0.9360 C.3     1  UNL1       -0.0643
      2  C2        -2.2450   -1.8180   -0.8530 C.3     1  UNL1       -0.0407
      3  C3        -2.2560   -0.3210   -1.1070 C.3     1  UNL1        0.0603
      4  C4        -0.8410    0.1720   -1.0200 C.2     1  UNL1        0.2207
      5  O1        -0.4920    1.0180   -0.1500 O.2     1  UNL1       -0.2751
      6  N1         0.1380   -0.3140   -1.9300 N.am    1  UNL1       -0.3091
      7  C5         1.4860    0.1470   -1.8580 C.3     1  UNL1        0.0562
      8  C6         2.1410   -0.1330   -0.5660 C.ar    1  UNL1        0.0863
      9  N2         1.5480   -0.7600    0.4640 N.ar    1  UNL1       -0.1737
     10  N3         2.1850   -0.9890    1.6130 N.ar    1  UNL1       -0.2424
     11  C7         3.4480   -0.6070    1.8040 C.ar    1  UNL1        0.2725
     12  O2         4.0700   -0.8200    2.8990 O.2     1  UNL1       -0.2658
     13  C8         4.1200    0.0460    0.7820 C.ar    1  UNL1        0.0496
     14  C9         5.4200    0.4620    0.9230 C.ar    1  UNL1       -0.0487
     15  C10        6.0560    1.1070   -0.1110 C.ar    1  UNL1       -0.0610
     16  C11        5.4150    1.3540   -1.3100 C.ar    1  UNL1       -0.0611
     17  C12        4.1200    0.9320   -1.4300 C.ar    1  UNL1       -0.0520
     18  C13        3.4480    0.2820   -0.4160 C.ar    1  UNL1        0.0118
     19  C14       -3.0730    0.3180   -0.0730 C.ar    1  UNL1       -0.0355
     20  C15       -4.2280    1.0120   -0.4030 C.ar    1  UNL1       -0.0578
     21  C16       -5.0070    1.6180    0.5610 C.ar    1  UNL1       -0.0615
     22  C17       -4.6380    1.5390    1.8740 C.ar    1  UNL1       -0.0617
     23  C18       -3.4830    0.8470    2.2270 C.ar    1  UNL1       -0.0615
     24  C19       -2.7200    0.2500    1.2490 C.ar    1  UNL1       -0.0578
     25 H          -3.6713   -3.3902   -0.7587 H       1  UNL1        0.0230
     26 H          -4.0612   -2.1346   -1.9095 H       1  UNL1        0.0230
     27 H          -4.2664   -1.8458   -0.1985 H       1  UNL1        0.0230
     28 H          -1.6413   -2.3039   -1.5908 H       1  UNL1        0.0273
     29 H          -1.8396   -2.0202    0.1164 H       1  UNL1        0.0273
     30 H          -2.6617   -0.0923   -2.0703 H       1  UNL1        0.0443
     31 H          -0.1166   -0.9737   -2.6150 H       1  UNL1        0.1491
     32 H           1.4899    1.2052   -2.0162 H       1  UNL1        0.0528
     33 H           2.0370   -0.3804   -2.6084 H       1  UNL1        0.0528
     34 H           1.7098   -1.4527    2.3399 H       1  UNL1        0.1921
     35 H           5.9219    0.2901    1.8082 H       1  UNL1        0.0625
     36 H           7.0339    1.4135    0.0109 H       1  UNL1        0.0618
     37 H           5.8950    1.8381   -2.0847 H       1  UNL1        0.0618
     38 H           3.6239    1.1074   -2.3178 H       1  UNL1        0.0624
     39 H          -4.5113    1.0765   -1.3933 H       1  UNL1        0.0620
     40 H          -5.8630    2.1278    0.2920 H       1  UNL1        0.0618
     41 H          -5.2136    1.9908    2.6017 H       1  UNL1        0.0618
     42 H          -3.2000    0.7818    3.2173 H       1  UNL1        0.0618
     43 H          -1.8637   -0.2597    1.5174 H       1  UNL1        0.0620
@<TRIPOS>BOND
     1     1     2    1
     2     2     3    1
     3     3     4    1
     4     3    19    1
     5     4     5    2
     6     4     6   am
     7     6     7    1
     8     7     8    1
     9     8     9   ar
    10     8    18   ar
    11     9    10   ar
    12    10    11   ar
    13    11    12    2
    14    11    13   ar
    15    13    14   ar
    16    13    18   ar
    17    14    15   ar
    18    15    16   ar
    19    16    17   ar
    20    17    18   ar
    21    19    20   ar
    22    19    24   ar
    23    20    21   ar
    24    21    22   ar
    25    22    23   ar
    26    23    24   ar
    27     1    25    1
    28     1    26    1
    29     1    27    1
    30     2    28    1
    31     2    29    1
    32     3    30    1
    33     6    31    1
    34     7    32    1
    35     7    33    1
    36    10    34    1
    37    14    35    1
    38    15    36    1
    39    16    37    1
    40    17    38    1
    41    20    39    1
    42    21    40    1
    43    22    41    1
    44    23    42    1
    45    24    43    1
@<TRIPOS>MOLECULE
../data/bude_mols_rdkit_confs/molecule_11.pdb
 43 45 0 0 0
SMALL
GASTEIGER

@<TRIPOS>ATOM
      1  C1        -2.7700   -2.7930    0.2300 C.3     1  UNL1       -0.0643
      2  C2        -2.9950   -2.0920   -1.0530 C.3     1  UNL1       -0.0407
      3  C3        -2.3400   -0.7790   -1.2500 C.3     1  UNL1        0.0603
      4  C4        -0.8640   -0.7770   -1.1970 C.2     1  UNL1        0.2207
      5  O1        -0.2300   -1.7910   -0.8390 O.2     1  UNL1       -0.2751
      6  N1        -0.1710    0.4140   -1.5670 N.am    1  UNL1       -0.3091
      7  C5         1.2810    0.4890   -1.5400 C.3     1  UNL1        0.0562
      8  C6         1.8360    0.2440   -0.2030 C.ar    1  UNL1        0.0863
      9  N2         1.1140   -0.0220    0.8990 N.ar    1  UNL1       -0.1737
     10  N3         1.6500   -0.2370    2.0890 N.ar    1  UNL1       -0.2424
     11  C7         2.9770   -0.2020    2.2720 C.ar    1  UNL1        0.2725
     12  O2         3.5320   -0.4000    3.3820 O.2     1  UNL1       -0.2658
     13  C8         3.7930    0.0640    1.1960 C.ar    1  UNL1        0.0496
     14  C9         5.1610    0.1100    1.3370 C.ar    1  UNL1       -0.0487
     15  C10        6.0020    0.3730    0.2840 C.ar    1  UNL1       -0.0610
     16  C11        5.4280    0.5970   -0.9580 C.ar    1  UNL1       -0.0611
     17  C12        4.0590    0.5520   -1.1060 C.ar    1  UNL1       -0.0520
     18  C13        3.2080    0.2890   -0.0540 C.ar    1  UNL1        0.0118
     19  C14       -2.9160    0.2940   -0.3870 C.ar    1  UNL1       -0.0355
     20  C15       -3.6060    1.3750   -0.9030 C.ar    1  UNL1       -0.0578
     21  C16       -4.1440    2.3720   -0.1470 C.ar    1  UNL1       -0.0615
     22  C17       -4.0050    2.3240    1.2290 C.ar    1  UNL1       -0.0617
     23  C18       -3.3230    1.2640    1.7870 C.ar    1  UNL1       -0.0615
     24  C19       -2.7840    0.2580    0.9860 C.ar    1  UNL1       -0.0578
     25 H          -3.3023   -3.7212    0.2274 H       1  UNL1        0.0230
     26 H          -3.1208   -2.1830    1.0360 H       1  UNL1        0.0230
     27 H          -1.7242   -2.9819    0.3546 H       1  UNL1        0.0230
     28 H          -4.0495   -1.9400   -1.1522 H       1  UNL1        0.0273
     29 H          -2.5472   -2.7278   -1.7879 H       1  UNL1        0.0273
     30 H          -2.5733   -0.5517   -2.2692 H       1  UNL1        0.0443
     31 H          -0.6880    1.2036   -1.8472 H       1  UNL1        0.1491
     32 H           1.5794    1.4651   -1.8610 H       1  UNL1        0.0528
     33 H           1.6563   -0.2732   -2.1905 H       1  UNL1        0.0528
     34 H           1.0622   -0.4265    2.8557 H       1  UNL1        0.1921
     35 H           5.5702   -0.0595    2.2691 H       1  UNL1        0.0625
     36 H           7.0255    0.4029    0.4125 H       1  UNL1        0.0618
     37 H           6.0276    0.7979   -1.7735 H       1  UNL1        0.0618
     38 H           3.6551    0.7217   -2.0404 H       1  UNL1        0.0624
     39 H          -3.7209    1.4301   -1.9271 H       1  UNL1        0.0620
     40 H          -4.6487    3.1530   -0.5945 H       1  UNL1        0.0618
     41 H          -4.4036    3.0663    1.8249 H       1  UNL1        0.0618
     42 H          -3.2098    1.2143    2.8116 H       1  UNL1        0.0618
     43 H          -2.2783   -0.5260    1.4271 H       1  UNL1        0.0620
@<TRIPOS>BOND
     1     1     2    1
     2     2     3    1
     3     3     4    1
     4     3    19    1
     5     4     5    2
     6     4     6   am
     7     6     7    1
     8     7     8    1
     9     8     9   ar
    10     8    18   ar
    11     9    10   ar
    12    10    11   ar
    13    11    12    2
    14    11    13   ar
    15    13    14   ar
    16    13    18   ar
    17    14    15   ar
    18    15    16   ar
    19    16    17   ar
    20    17    18   ar
    21    19    20   ar
    22    19    24   ar
    23    20    21   ar
    24    21    22   ar
    25    22    23   ar
    26    23    24   ar
    27     1    25    1
    28     1    26    1
    29     1    27    1
    30     2    28    1
    31     2    29    1
    32     3    30    1
    33     6    31    1
    34     7    32    1
    35     7    33    1
    36    10    34    1
    37    14    35    1
    38    15    36    1
    39    16    37    1
    40    17    38    1
    41    20    39    1
    42    21    40    1
    43    22    41    1
    44    23    42    1
    45    24    43    1
@<TRIPOS>MOLECULE
../data/bude_mols_rdkit_confs/molecule_11.pdb
 43 45 0 0 0
SMALL
GASTEIGER

@<TRIPOS>ATOM
      1  C1        -2.2040   -3.1850    1.7500 C.3     1  UNL1       -0.0643
      2  C2        -2.7630   -1.7890    1.6390 C.3     1  UNL1       -0.0407
      3  C3        -2.4750   -1.2460    0.2660 C.3     1  UNL1        0.0603
      4  C4        -0.9850   -1.2160    0.0500 C.2     1  UNL1        0.2207
      5  O1        -0.2170   -1.5580    0.9770 O.2     1  UNL1       -0.2751
      6  N1        -0.4320   -0.8060   -1.1890 N.am    1  UNL1       -0.3091
      7  C5         0.9780   -0.7680   -1.4180 C.3     1  UNL1        0.0562
      8  C6         1.7000    0.1350   -0.4990 C.ar    1  UNL1        0.0863
      9  N2         1.1450    0.8600    0.4580 N.ar    1  UNL1       -0.1737
     10  N3         1.8480    1.6450    1.2430 N.ar    1  UNL1       -0.2424
     11  C7         3.1770    1.7530    1.1110 C.ar    1  UNL1        0.2725
     12  O2         3.8820    2.4940    1.8430 O.2     1  UNL1       -0.2658
     13  C8         3.8400    1.0370    0.1430 C.ar    1  UNL1        0.0496
     14  C9         5.2190    1.1410   -0.0020 C.ar    1  UNL1       -0.0487
     15  C10        5.7910    0.3830   -1.0030 C.ar    1  UNL1       -0.0610
     16  C11        5.0650   -0.4440   -1.8310 C.ar    1  UNL1       -0.0611
     17  C12        3.7090   -0.5190   -1.6560 C.ar    1  UNL1       -0.0520
     18  C13        3.0810    0.2190   -0.6680 C.ar    1  UNL1        0.0118
     19  C14       -3.0180    0.1180    0.0740 C.ar    1  UNL1       -0.0355
     20  C15       -2.6060    1.1080    0.9360 C.ar    1  UNL1       -0.0578
     21  C16       -3.1030    2.4030    0.7790 C.ar    1  UNL1       -0.0615
     22  C17       -4.0070    2.6900   -0.2410 C.ar    1  UNL1       -0.0617
     23  C18       -4.4140    1.6920   -1.1000 C.ar    1  UNL1       -0.0615
     24  C19       -3.9010    0.4170   -0.9150 C.ar    1  UNL1       -0.0578
     25 H          -2.4073   -3.5741    2.7258 H       1  UNL1        0.0230
     26 H          -1.1464   -3.1595    1.5894 H       1  UNL1        0.0230
     27 H          -2.6616   -3.8120    1.0135 H       1  UNL1        0.0230
     28 H          -2.3055   -1.1612    2.3749 H       1  UNL1        0.0273
     29 H          -3.8204   -1.8124    1.8007 H       1  UNL1        0.0273
     30 H          -2.9531   -1.8892   -0.4430 H       1  UNL1        0.0443
     31 H          -1.0396   -0.5385   -1.9160 H       1  UNL1        0.1491
     32 H           1.1494   -0.4379   -2.4213 H       1  UNL1        0.0528
     33 H           1.3514   -1.7559   -1.2464 H       1  UNL1        0.0528
     34 H           1.3890    2.1643    1.9422 H       1  UNL1        0.1921
     35 H           5.7847    1.7528    0.6069 H       1  UNL1        0.0625
     36 H           6.8127    0.4385   -1.1378 H       1  UNL1        0.0618
     37 H           5.5328   -0.9953   -2.5674 H       1  UNL1        0.0618
     38 H           3.1489   -1.1329   -2.2679 H       1  UNL1        0.0624
     39 H          -1.9359    0.8952    1.6915 H       1  UNL1        0.0620
     40 H          -2.7992    3.1512    1.4216 H       1  UNL1        0.0618
     41 H          -4.3716    3.6489   -0.3534 H       1  UNL1        0.0618
     42 H          -5.0830    1.8884   -1.8609 H       1  UNL1        0.0618
     43 H          -4.2019   -0.3353   -1.5542 H       1  UNL1        0.0620
@<TRIPOS>BOND
     1     1     2    1
     2     2     3    1
     3     3     4    1
     4     3    19    1
     5     4     5    2
     6     4     6   am
     7     6     7    1
     8     7     8    1
     9     8     9   ar
    10     8    18   ar
    11     9    10   ar
    12    10    11   ar
    13    11    12    2
    14    11    13   ar
    15    13    14   ar
    16    13    18   ar
    17    14    15   ar
    18    15    16   ar
    19    16    17   ar
    20    17    18   ar
    21    19    20   ar
    22    19    24   ar
    23    20    21   ar
    24    21    22   ar
    25    22    23   ar
    26    23    24   ar
    27     1    25    1
    28     1    26    1
    29     1    27    1
    30     2    28    1
    31     2    29    1
    32     3    30    1
    33     6    31    1
    34     7    32    1
    35     7    33    1
    36    10    34    1
    37    14    35    1
    38    15    36    1
    39    16    37    1
    40    17    38    1
    41    20    39    1
    42    21    40    1
    43    22    41    1
    44    23    42    1
    45    24    43    1
@<TRIPOS>MOLECULE
../data/bude_mols_rdkit_confs/molecule_11.pdb
 43 45 0 0 0
SMALL
GASTEIGER

@<TRIPOS>ATOM
      1  C1        -1.9500    0.8890   -1.8940 C.3     1  UNL1       -0.0643
      2  C2        -1.5960    1.5760   -0.6140 C.3     1  UNL1       -0.0407
      3  C3        -1.9250    0.6110    0.6240 C.3     1  UNL1        0.0603
      4  C4        -1.1010   -0.5770    0.3870 C.2     1  UNL1        0.2207
      5  O1        -1.5340   -1.6680   -0.0660 O.2     1  UNL1       -0.2751
      6  N1         0.3210   -0.5170    0.6880 N.am    1  UNL1       -0.3091
      7  C5         1.0850   -1.6680    0.3650 C.3     1  UNL1        0.0562
      8  C6         2.4990   -1.6660    0.6840 C.ar    1  UNL1        0.0863
      9  N2         3.0540   -2.6510    1.4420 N.ar    1  UNL1       -0.1737
     10  N3         4.3600   -2.7740    1.6500 N.ar    1  UNL1       -0.2424
     11  C7         5.2540   -1.9220    1.1260 C.ar    1  UNL1        0.2725
     12  O2         6.4760   -2.0670    1.3520 O.2     1  UNL1       -0.2658
     13  C8         4.7650   -0.8930    0.3450 C.ar    1  UNL1        0.0496
     14  C9         5.6290    0.0430   -0.1980 C.ar    1  UNL1       -0.0487
     15  C10        5.1190    1.0890   -0.9380 C.ar    1  UNL1       -0.0610
     16  C11        3.7700    1.2280   -1.1530 C.ar    1  UNL1       -0.0611
     17  C12        2.8930    0.3000   -0.6230 C.ar    1  UNL1       -0.0520
     18  C13        3.3910   -0.7600    0.1240 C.ar    1  UNL1        0.0118
     19  C14       -3.3620    0.5390    0.5640 C.ar    1  UNL1       -0.0355
     20  C15       -4.0830   -0.5120    0.1250 C.ar    1  UNL1       -0.0578
     21  C16       -5.4760   -0.4090    0.0950 C.ar    1  UNL1       -0.0615
     22  C17       -6.1040    0.7270    0.5120 C.ar    1  UNL1       -0.0617
     23  C18       -5.4010    1.8130    0.9730 C.ar    1  UNL1       -0.0615
     24  C19       -4.0250    1.6920    0.9840 C.ar    1  UNL1       -0.0578
     25 H          -1.7296    1.5348   -2.7182 H       1  UNL1        0.0230
     26 H          -2.9936    0.6527   -1.8952 H       1  UNL1        0.0230
     27 H          -1.3802   -0.0121   -1.9846 H       1  UNL1        0.0230
     28 H          -2.1659    2.4772   -0.5242 H       1  UNL1        0.0273
     29 H          -0.5520    1.8106   -0.6138 H       1  UNL1        0.0273
     30 H          -1.6869    0.8789    1.6322 H       1  UNL1        0.0443
     31 H           0.7315    0.2802    1.0944 H       1  UNL1        0.1491
     32 H           0.9986   -1.8196   -0.6907 H       1  UNL1        0.0528
     33 H           0.6757   -2.4388    0.9840 H       1  UNL1        0.0528
     34 H           4.6836   -3.5171    2.2088 H       1  UNL1        0.1921
     35 H           6.6468   -0.0415   -0.0500 H       1  UNL1        0.0625
     36 H           5.7671    1.7843   -1.3400 H       1  UNL1        0.0618
     37 H           3.4125    2.0215   -1.7076 H       1  UNL1        0.0618
     38 H           1.8775    0.3939   -0.7809 H       1  UNL1        0.0624
     39 H          -3.6140   -1.3779   -0.1837 H       1  UNL1        0.0620
     40 H          -6.0376   -1.2041   -0.2477 H       1  UNL1        0.0618
     41 H          -7.1345    0.7720    0.4804 H       1  UNL1        0.0618
     42 H          -5.8746    2.6721    1.2935 H       1  UNL1        0.0618
     43 H          -3.4625    2.4902    1.3178 H       1  UNL1        0.0620
@<TRIPOS>BOND
     1     1     2    1
     2     2     3    1
     3     3     4    1
     4     3    19    1
     5     4     5    2
     6     4     6   am
     7     6     7    1
     8     7     8    1
     9     8     9   ar
    10     8    18   ar
    11     9    10   ar
    12    10    11   ar
    13    11    12    2
    14    11    13   ar
    15    13    14   ar
    16    13    18   ar
    17    14    15   ar
    18    15    16   ar
    19    16    17   ar
    20    17    18   ar
    21    19    20   ar
    22    19    24   ar
    23    20    21   ar
    24    21    22   ar
    25    22    23   ar
    26    23    24   ar
    27     1    25    1
    28     1    26    1
    29     1    27    1
    30     2    28    1
    31     2    29    1
    32     3    30    1
    33     6    31    1
    34     7    32    1
    35     7    33    1
    36    10    34    1
    37    14    35    1
    38    15    36    1
    39    16    37    1
    40    17    38    1
    41    20    39    1
    42    21    40    1
    43    22    41    1
    44    23    42    1
    45    24    43    1
@<TRIPOS>MOLECULE
../data/bude_mols_rdkit_confs/molecule_11.pdb
 43 45 0 0 0
SMALL
GASTEIGER

@<TRIPOS>ATOM
      1  C1        -4.2040   -2.2060    0.2590 C.3     1  UNL1       -0.0643
      2  C2        -2.6920   -2.1840    0.3390 C.3     1  UNL1       -0.0407
      3  C3        -2.1220   -1.1440   -0.6390 C.3     1  UNL1        0.0603
      4  C4        -0.6710   -1.2060   -0.4890 C.2     1  UNL1        0.2207
      5  O1         0.0280   -1.2230   -1.5510 O.2     1  UNL1       -0.2751
      6  N1        -0.0090   -1.2490    0.7390 N.am    1  UNL1       -0.3091
      7  C5         1.4630   -1.3030    0.8290 C.3     1  UNL1        0.0562
      8  C6         2.0760   -0.1310    0.2020 C.ar    1  UNL1        0.0863
      9  N2         1.2850    0.8080   -0.3500 N.ar    1  UNL1       -0.1737
     10  N3         1.8000    1.8970   -0.9340 N.ar    1  UNL1       -0.2424
     11  C7         3.1140    2.1200   -1.0060 C.ar    1  UNL1        0.2725
     12  O2         3.5970    3.1440   -1.5550 O.2     1  UNL1       -0.2658
     13  C8         3.9820    1.2010   -0.4610 C.ar    1  UNL1        0.0496
     14  C9         5.3460    1.3870   -0.5110 C.ar    1  UNL1       -0.0487
     15  C10        6.1890    0.4390    0.0480 C.ar    1  UNL1       -0.0610
     16  C11        5.6360   -0.6700    0.6420 C.ar    1  UNL1       -0.0611
     17  C12        4.2670   -0.8580    0.6920 C.ar    1  UNL1       -0.0520
     18  C13        3.4370    0.0810    0.1380 C.ar    1  UNL1        0.0118
     19  C14       -2.7540    0.1520   -0.3180 C.ar    1  UNL1       -0.0355
     20  C15       -3.9240    0.4600   -0.9900 C.ar    1  UNL1       -0.0578
     21  C16       -4.5840    1.6410   -0.7770 C.ar    1  UNL1       -0.0615
     22  C17       -4.0590    2.5400    0.1340 C.ar    1  UNL1       -0.0617
     23  C18       -2.8960    2.2300    0.8000 C.ar    1  UNL1       -0.0615
     24  C19       -2.2170    1.0290    0.5890 C.ar    1  UNL1       -0.0578
     25 H          -4.5869   -2.9333    0.9440 H       1  UNL1        0.0230
     26 H          -4.5049   -2.4600   -0.7359 H       1  UNL1        0.0230
     27 H          -4.5887   -1.2402    0.5123 H       1  UNL1        0.0230
     28 H          -2.3109   -3.1516    0.0872 H       1  UNL1        0.0273
     29 H          -2.3995   -1.9230    1.3346 H       1  UNL1        0.0273
     30 H          -2.3332   -1.3153   -1.6739 H       1  UNL1        0.0443
     31 H          -0.5390   -1.2431    1.5686 H       1  UNL1        0.1491
     32 H           1.8106   -2.1855    0.3337 H       1  UNL1        0.0528
     33 H           1.7385   -1.3166    1.8628 H       1  UNL1        0.0528
     34 H           1.1856    2.5591   -1.3256 H       1  UNL1        0.1921
     35 H           5.7384    2.2280   -0.9624 H       1  UNL1        0.0625
     36 H           7.2130    0.5638    0.0186 H       1  UNL1        0.0618
     37 H           6.2574   -1.3796    1.0608 H       1  UNL1        0.0618
     38 H           3.8736   -1.6988    1.1429 H       1  UNL1        0.0624
     39 H          -4.3084   -0.2165   -1.6679 H       1  UNL1        0.0620
     40 H          -5.4556    1.8560   -1.2860 H       1  UNL1        0.0618
     41 H          -4.5366    3.4372    0.3127 H       1  UNL1        0.0618
     42 H          -2.5131    2.9075    1.4777 H       1  UNL1        0.0618
     43 H          -1.3451    0.8097    1.0957 H       1  UNL1        0.0620
@<TRIPOS>BOND
     1     1     2    1
     2     2     3    1
     3     3     4    1
     4     3    19    1
     5     4     5    2
     6     4     6   am
     7     6     7    1
     8     7     8    1
     9     8     9   ar
    10     8    18   ar
    11     9    10   ar
    12    10    11   ar
    13    11    12    2
    14    11    13   ar
    15    13    14   ar
    16    13    18   ar
    17    14    15   ar
    18    15    16   ar
    19    16    17   ar
    20    17    18   ar
    21    19    20   ar
    22    19    24   ar
    23    20    21   ar
    24    21    22   ar
    25    22    23   ar
    26    23    24   ar
    27     1    25    1
    28     1    26    1
    29     1    27    1
    30     2    28    1
    31     2    29    1
    32     3    30    1
    33     6    31    1
    34     7    32    1
    35     7    33    1
    36    10    34    1
    37    14    35    1
    38    15    36    1
    39    16    37    1
    40    17    38    1
    41    20    39    1
    42    21    40    1
    43    22    41    1
    44    23    42    1
    45    24    43    1
@<TRIPOS>MOLECULE
../data/bude_mols_rdkit_confs/molecule_11.pdb
 43 45 0 0 0
SMALL
GASTEIGER

@<TRIPOS>ATOM
      1  C1         1.3800   -2.1670   -0.8350 C.3     1  UNL1       -0.0643
      2  C2         1.6950   -1.7500    0.5520 C.3     1  UNL1       -0.0407
      3  C3         2.0740   -0.3310    0.7540 C.3     1  UNL1        0.0603
      4  C4         0.9730    0.6210    0.3430 C.2     1  UNL1        0.2207
      5  O1         1.0640    1.2880   -0.7030 O.2     1  UNL1       -0.2751
      6  N1        -0.1450    0.7310    1.1770 N.am    1  UNL1       -0.3091
      7  C5        -1.3300    1.3920    1.2370 C.3     1  UNL1        0.0562
      8  C6        -2.3310    1.3180    0.1810 C.ar    1  UNL1        0.0863
      9  N2        -2.5370    2.1890   -0.7900 N.ar    1  UNL1       -0.1737
     10  N3        -3.6050    2.2400   -1.5470 N.ar    1  UNL1       -0.2424
     11  C7        -4.6090    1.3810   -1.4010 C.ar    1  UNL1        0.2725
     12  O2        -5.6700    1.3650   -2.0740 O.2     1  UNL1       -0.2658
     13  C8        -4.4990    0.4140   -0.4110 C.ar    1  UNL1        0.0496
     14  C9        -5.4250   -0.6150   -0.2590 C.ar    1  UNL1       -0.0487
     15  C10       -5.1580   -1.6180    0.6710 C.ar    1  UNL1       -0.0610
     16  C11       -4.0310   -1.6260    1.4330 C.ar    1  UNL1       -0.0611
     17  C12       -3.0960   -0.6180    1.3070 C.ar    1  UNL1       -0.0520
     18  C13       -3.3660    0.3860    0.3730 C.ar    1  UNL1        0.0118
     19  C14        3.4030    0.0550    0.3210 C.ar    1  UNL1       -0.0355
     20  C15        3.7490    1.3960    0.3790 C.ar    1  UNL1       -0.0578
     21  C16        5.0220    1.8230    0.0930 C.ar    1  UNL1       -0.0615
     22  C17        6.0190    0.9550   -0.2670 C.ar    1  UNL1       -0.0617
     23  C18        5.6940   -0.4120   -0.3380 C.ar    1  UNL1       -0.0615
     24  C19        4.3970   -0.8440   -0.0440 C.ar    1  UNL1       -0.0578
     25 H           1.1236   -3.2058   -0.8456 H       1  UNL1        0.0230
     26 H           2.2337   -2.0040   -1.4591 H       1  UNL1        0.0230
     27 H           0.5553   -1.5923   -1.2016 H       1  UNL1        0.0230
     28 H           2.5088   -2.3543    0.8947 H       1  UNL1        0.0273
     29 H           0.7824   -1.8761    1.0962 H       1  UNL1        0.0273
     30 H           2.1748   -0.2387    1.8152 H       1  UNL1        0.0443
     31 H          -0.0403    0.1490    1.9641 H       1  UNL1        0.1491
     32 H          -1.0852    2.4285    1.3398 H       1  UNL1        0.0528
     33 H          -1.8223    0.8794    2.0368 H       1  UNL1        0.0528
     34 H          -3.6657    2.9335   -2.2431 H       1  UNL1        0.1921
     35 H          -6.2895   -0.6344   -0.8224 H       1  UNL1        0.0625
     36 H          -5.8407   -2.3833    0.7859 H       1  UNL1        0.0618
     37 H          -3.8741   -2.3898    2.1090 H       1  UNL1        0.0618
     38 H          -2.2359   -0.6064    1.8772 H       1  UNL1        0.0624
     39 H           3.0325    2.0900    0.6435 H       1  UNL1        0.0620
     40 H           5.2350    2.8311    0.1511 H       1  UNL1        0.0618
     41 H           6.9717    1.2910   -0.4780 H       1  UNL1        0.0618
     42 H           6.4156   -1.0985   -0.6081 H       1  UNL1        0.0618
     43 H           4.1740   -1.8501   -0.0993 H       1  UNL1        0.0620
@<TRIPOS>BOND
     1     1     2    1
     2     2     3    1
     3     3     4    1
     4     3    19    1
     5     4     5    2
     6     4     6   am
     7     6     7    1
     8     7     8    1
     9     8     9   ar
    10     8    18   ar
    11     9    10   ar
    12    10    11   ar
    13    11    12    2
    14    11    13   ar
    15    13    14   ar
    16    13    18   ar
    17    14    15   ar
    18    15    16   ar
    19    16    17   ar
    20    17    18   ar
    21    19    20   ar
    22    19    24   ar
    23    20    21   ar
    24    21    22   ar
    25    22    23   ar
    26    23    24   ar
    27     1    25    1
    28     1    26    1
    29     1    27    1
    30     2    28    1
    31     2    29    1
    32     3    30    1
    33     6    31    1
    34     7    32    1
    35     7    33    1
    36    10    34    1
    37    14    35    1
    38    15    36    1
    39    16    37    1
    40    17    38    1
    41    20    39    1
    42    21    40    1
    43    22    41    1
    44    23    42    1
    45    24    43    1
